YPI.pdb
     RDKit          3D

 28 29  0  0  1  0  0  0  0  0999 V2000
    8.7059  -19.9116   26.9454 O   0  0  0  0  0  0  0  0  0  0  0  0
    8.7469  -19.7704   25.5563 C   0  0  0  0  0  0  0  0  0  0  0  0
    7.6163  -19.7099   24.7852 C   0  0  0  0  0  0  0  0  0  0  0  0
    7.7022  -19.5681   23.3974 C   0  0  0  0  0  0  0  0  0  0  0  0
    8.9246  -19.4855   22.7688 C   0  0  0  0  0  0  0  0  0  0  0  0
    9.0463  -19.3319   21.3034 C   0  0  0  0  0  0  0  0  0  0  0  0
   10.0743  -18.2973   20.8929 C   0  0  2  0  0  0  0  0  0  0  0  0
   11.4286  -18.7192   21.0585 N   0  0  0  0  0  0  0  0  0  0  0  0
    9.7556  -16.9657   21.4607 C   0  0  0  0  0  0  0  0  0  0  0  0
   10.7360  -16.3281   22.0159 O   0  0  0  0  0  0  0  0  0  0  0  0
   10.0564  -19.5496   23.5755 C   0  0  0  0  0  0  0  0  0  0  0  0
    9.9704  -19.6893   24.9417 C   0  0  0  0  0  0  0  0  0  0  0  0
    8.4925  -16.3349   21.4522 N   0  0  0  0  0  0  0  0  0  0  0  0
    7.2197  -16.7763   20.9693 C   0  0  0  0  0  0  0  0  0  0  0  0
    6.5803  -15.5030   20.4254 C   0  0  0  0  0  0  0  0  0  0  0  0
    7.4021  -14.3781   20.9495 C   0  0  0  0  0  0  0  0  0  0  0  0
    8.2520  -14.9979   22.0052 C   0  0  1  0  0  0  0  0  0  0  0  0
    7.6222  -15.1271   23.3208 C   0  0  0  0  0  0  0  0  0  0  0  0
    7.5263  -16.2721   23.8727 O   0  0  0  0  0  0  0  0  0  0  0  0
    6.8097  -10.4117   27.4397 C   0  0  0  0  0  0  0  0  0  0  0  0
    7.3459  -11.7054   26.9972 C   0  0  0  0  0  0  0  0  0  0  0  0
    7.0003  -12.3033   25.7136 C   0  0  2  0  0  0  0  0  0  0  0  0
    5.4840  -12.4947   25.5468 C   0  0  0  0  0  0  0  0  0  0  0  0
    7.7463  -13.4912   25.2590 C   0  0  2  0  0  0  0  0  0  0  0  0
    7.1055  -14.0117   24.0183 N   0  0  0  0  0  0  0  0  0  0  0  0
    7.7318  -14.6058   26.1840 C   0  0  0  0  0  0  0  0  0  0  0  0
    8.5432  -14.6488   27.1439 O   0  0  0  0  0  0  0  0  0  0  0  0
    6.8524  -15.6499   26.0808 O   0  0  0  0  0  0  0  0  0  0  0  0
  2  1  1  0
  3  2  2  0
  4  3  1  0
  5  4  2  0
  5 11  1  0
  6  5  1  0
  7  9  1  0
  7  6  1  0
  7  8  1  1
  9 13  1  0
  9 10  2  0
 11 12  2  0
 12  2  1  0
 13 14  1  0
 14 15  1  0
 16 15  1  0
 17 13  1  0
 17 16  1  0
 17 18  1  1
 19 18  2  0
 20 21  1  0
 21 22  1  0
 22 24  1  0
 22 23  1  1
 24 25  1  6
 25 18  1  0
 26 24  1  0
 26 28  1  0
 27 26  2  0
M  END
$$$$
