YPI.pdb
     RDKit          3D

 28 29  0  0  1  0  0  0  0  0999 V2000
    8.1138  -20.1489   27.4176 O   0  0  0  0  0  0  0  0  0  0  0  0
    7.9610  -19.8627   26.0590 C   0  0  0  0  0  0  0  0  0  0  0  0
    6.8436  -19.2533   25.5525 C   0  0  0  0  0  0  0  0  0  0  0  0
    6.7311  -18.9849   24.1854 C   0  0  0  0  0  0  0  0  0  0  0  0
    7.7397  -19.3256   23.3120 C   0  0  0  0  0  0  0  0  0  0  0  0
    7.6501  -19.0513   21.8621 C   0  0  0  0  0  0  0  0  0  0  0  0
    8.8455  -18.2938   21.3208 C   0  0  2  0  0  0  0  0  0  0  0  0
   10.0345  -19.0770   21.2106 N   0  0  0  0  0  0  0  0  0  0  0  0
    9.0118  -16.9892   22.0045 C   0  0  0  0  0  0  0  0  0  0  0  0
   10.0870  -16.8432   22.7104 O   0  0  0  0  0  0  0  0  0  0  0  0
    8.8630  -19.9433   23.8528 C   0  0  0  0  0  0  0  0  0  0  0  0
    8.9724  -20.2070   25.1989 C   0  0  0  0  0  0  0  0  0  0  0  0
    8.1130  -15.9012   21.9574 N   0  0  0  0  0  0  0  0  0  0  0  0
    6.8296  -15.7625   21.3397 C   0  0  0  0  0  0  0  0  0  0  0  0
    6.8124  -14.3123   20.8681 C   0  0  0  0  0  0  0  0  0  0  0  0
    7.9527  -13.6466   21.5551 C   0  0  0  0  0  0  0  0  0  0  0  0
    8.3669  -14.6132   22.6113 C   0  0  1  0  0  0  0  0  0  0  0  0
    7.6004  -14.5463   23.8571 C   0  0  0  0  0  0  0  0  0  0  0  0
    6.4946  -15.1718   23.9603 O   0  0  0  0  0  0  0  0  0  0  0  0
   10.2663  -13.2178   28.7697 C   0  0  0  0  0  0  0  0  0  0  0  0
    9.2514  -13.0485   27.7217 C   0  0  0  0  0  0  0  0  0  0  0  0
    8.3232  -14.1077   27.3462 C   0  0  2  0  0  0  0  0  0  0  0  0
    9.0299  -15.4565   27.1342 C   0  0  0  0  0  0  0  0  0  0  0  0
    7.3362  -13.8438   26.2830 C   0  0  2  0  0  0  0  0  0  0  0  0
    8.0453  -13.8015   24.9729 N   0  0  0  0  0  0  0  0  0  0  0  0
    6.6627  -12.5655   26.3859 C   0  0  0  0  0  0  0  0  0  0  0  0
    6.9895  -11.6101   25.6363 O   0  0  0  0  0  0  0  0  0  0  0  0
    5.6494  -12.3253   27.2745 O   0  0  0  0  0  0  0  0  0  0  0  0
  2  1  1  0
  3  2  2  0
  4  3  1  0
  5  4  2  0
  5 11  1  0
  6  5  1  0
  7  9  1  0
  7  6  1  0
  7  8  1  1
  9 13  1  0
  9 10  2  0
 11 12  2  0
 12  2  1  0
 13 14  1  0
 14 15  1  0
 16 15  1  0
 17 13  1  0
 17 16  1  0
 17 18  1  1
 19 18  2  0
 20 21  1  0
 21 22  1  0
 22 24  1  0
 22 23  1  6
 24 25  1  6
 25 18  1  0
 26 24  1  0
 26 28  1  0
 27 26  2  0
M  END
$$$$
