YPI.pdb
     RDKit          3D

 28 29  0  0  1  0  0  0  0  0999 V2000
    4.3483   -9.5971   26.9727 O   0  0  0  0  0  0  0  0  0  0  0  0
    4.9955  -10.8140   26.7456 C   0  0  0  0  0  0  0  0  0  0  0  0
    4.6651  -11.9635   27.4135 C   0  0  0  0  0  0  0  0  0  0  0  0
    5.3385  -13.1608   27.1558 C   0  0  0  0  0  0  0  0  0  0  0  0
    6.3510  -13.2169   26.2241 C   0  0  0  0  0  0  0  0  0  0  0  0
    7.0784  -14.4694   25.9281 C   0  0  0  0  0  0  0  0  0  0  0  0
    6.3241  -15.3937   24.9940 C   0  0  2  0  0  0  0  0  0  0  0  0
    5.3093  -16.1702   25.6316 N   0  0  0  0  0  0  0  0  0  0  0  0
    7.2518  -16.1592   24.1278 C   0  0  0  0  0  0  0  0  0  0  0  0
    7.2014  -17.4488   24.2301 O   0  0  0  0  0  0  0  0  0  0  0  0
    6.6662  -12.0353   25.5605 C   0  0  0  0  0  0  0  0  0  0  0  0
    6.0024  -10.8572   25.8153 C   0  0  0  0  0  0  0  0  0  0  0  0
    8.1773  -15.6161   23.2102 N   0  0  0  0  0  0  0  0  0  0  0  0
    8.4148  -14.2674   22.7948 C   0  0  0  0  0  0  0  0  0  0  0  0
    8.7782  -14.4040   21.3200 C   0  0  0  0  0  0  0  0  0  0  0  0
    9.0486  -15.8509   21.0991 C   0  0  0  0  0  0  0  0  0  0  0  0
    9.1529  -16.4242   22.4709 C   0  0  1  0  0  0  0  0  0  0  0  0
   10.4658  -16.2941   23.1061 C   0  0  0  0  0  0  0  0  0  0  0  0
   11.3740  -15.5893   22.5555 O   0  0  0  0  0  0  0  0  0  0  0  0
    9.5933  -14.2839   27.5773 C   0  0  0  0  0  0  0  0  0  0  0  0
   10.2710  -14.8337   26.3960 C   0  0  0  0  0  0  0  0  0  0  0  0
   11.2241  -15.9335   26.4759 C   0  0  2  0  0  0  0  0  0  0  0  0
   12.2706  -15.7213   27.5821 C   0  0  0  0  0  0  0  0  0  0  0  0
   11.8464  -16.4264   25.2333 C   0  0  2  0  0  0  0  0  0  0  0  0
   10.7739  -16.9309   24.3297 N   0  0  0  0  0  0  0  0  0  0  0  0
   12.7456  -17.5482   25.4101 C   0  0  0  0  0  0  0  0  0  0  0  0
   12.2979  -18.7222   25.4644 O   0  0  0  0  0  0  0  0  0  0  0  0
   14.1030  -17.4068   25.5171 O   0  0  0  0  0  0  0  0  0  0  0  0
  2  1  1  0
  3  2  2  0
  4  3  1  0
  5  4  2  0
  5 11  1  0
  6  5  1  0
  7  9  1  0
  7  6  1  0
  7  8  1  1
  9 13  1  0
  9 10  2  0
 11 12  2  0
 12  2  1  0
 13 14  1  0
 14 15  1  0
 16 15  1  0
 17 13  1  0
 17 16  1  0
 17 18  1  1
 19 18  2  0
 20 21  1  0
 21 22  1  0
 22 24  1  0
 22 23  1  1
 24 25  1  6
 25 18  1  0
 26 24  1  0
 26 28  1  0
 27 26  2  0
M  END
$$$$
