YPI.pdb
     RDKit          3D

 28 29  0  0  1  0  0  0  0  0999 V2000
   11.5130  -24.1562   24.3528 O   0  0  0  0  0  0  0  0  0  0  0  0
   11.2174  -22.7927   24.2827 C   0  0  0  0  0  0  0  0  0  0  0  0
   10.3050  -22.2780   23.4001 C   0  0  0  0  0  0  0  0  0  0  0  0
   10.0388  -20.9065   23.3629 C   0  0  0  0  0  0  0  0  0  0  0  0
   10.6860  -20.0367   24.2119 C   0  0  0  0  0  0  0  0  0  0  0  0
   10.4226  -18.5820   24.1976 C   0  0  0  0  0  0  0  0  0  0  0  0
   11.0250  -17.8759   23.0000 C   0  0  2  0  0  0  0  0  0  0  0  0
   12.4473  -17.9737   22.9167 N   0  0  0  0  0  0  0  0  0  0  0  0
   10.4780  -16.5065   22.8501 C   0  0  0  0  0  0  0  0  0  0  0  0
   11.2926  -15.5318   23.0995 O   0  0  0  0  0  0  0  0  0  0  0  0
   11.6075  -20.5858   25.0979 C   0  0  0  0  0  0  0  0  0  0  0  0
   11.8687  -21.9364   25.1334 C   0  0  0  0  0  0  0  0  0  0  0  0
    9.1620  -16.1706   22.4643 N   0  0  0  0  0  0  0  0  0  0  0  0
    8.1280  -16.9507   21.8558 C   0  0  0  0  0  0  0  0  0  0  0  0
    7.4232  -15.9588   20.9364 C   0  0  0  0  0  0  0  0  0  0  0  0
    7.8991  -14.6105   21.3499 C   0  0  0  0  0  0  0  0  0  0  0  0
    8.5772  -14.8394   22.6572 C   0  0  1  0  0  0  0  0  0  0  0  0
    7.6940  -14.8662   23.8248 C   0  0  0  0  0  0  0  0  0  0  0  0
    7.1745  -15.9656   24.2070 O   0  0  0  0  0  0  0  0  0  0  0  0
    7.1500   -9.8985   26.2154 C   0  0  0  0  0  0  0  0  0  0  0  0
    7.5603  -11.3074   26.2763 C   0  0  0  0  0  0  0  0  0  0  0  0
    6.6070  -12.3988   26.4326 C   0  0  2  0  0  0  0  0  0  0  0  0
    5.9670  -12.4207   27.8304 C   0  0  0  0  0  0  0  0  0  0  0  0
    6.9990  -13.7524   25.9985 C   0  0  2  0  0  0  0  0  0  0  0  0
    7.3873  -13.6990   24.5607 N   0  0  0  0  0  0  0  0  0  0  0  0
    5.9409  -14.7395   26.0644 C   0  0  0  0  0  0  0  0  0  0  0  0
    5.7170  -15.3642   27.1326 O   0  0  0  0  0  0  0  0  0  0  0  0
    5.1337  -15.0403   25.0005 O   0  0  0  0  0  0  0  0  0  0  0  0
  2  1  1  0
  3  2  2  0
  4  3  1  0
  5  4  2  0
  5 11  1  0
  6  5  1  0
  7  9  1  0
  7  6  1  0
  7  8  1  1
  9 13  1  0
  9 10  2  0
 11 12  2  0
 12  2  1  0
 13 14  1  0
 14 15  1  0
 16 15  1  0
 17 13  1  0
 17 16  1  0
 17 18  1  1
 19 18  2  0
 20 21  1  0
 21 22  1  0
 22 24  1  0
 22 23  1  1
 24 25  1  6
 25 18  1  0
 26 24  1  0
 26 28  1  0
 27 26  2  0
M  END
$$$$
