YPI.pdb
     RDKit          3D

 28 29  0  0  1  0  0  0  0  0999 V2000
    0.5299  -20.4201   19.8991 O   0  0  0  0  0  0  0  0  0  0  0  0
    1.6218  -19.7476   20.4530 C   0  0  0  0  0  0  0  0  0  0  0  0
    2.4508  -18.9471   19.7124 C   0  0  0  0  0  0  0  0  0  0  0  0
    3.5329  -18.2918   20.3065 C   0  0  0  0  0  0  0  0  0  0  0  0
    3.7943  -18.4332   21.6511 C   0  0  0  0  0  0  0  0  0  0  0  0
    4.9293  -17.7500   22.3074 C   0  0  0  0  0  0  0  0  0  0  0  0
    6.2576  -18.0038   21.6240 C   0  0  2  0  0  0  0  0  0  0  0  0
    6.5619  -19.3854   21.4298 N   0  0  0  0  0  0  0  0  0  0  0  0
    7.3416  -17.2001   22.2372 C   0  0  0  0  0  0  0  0  0  0  0  0
    8.3854  -17.8533   22.6369 O   0  0  0  0  0  0  0  0  0  0  0  0
    2.9370  -19.2518   22.3796 C   0  0  0  0  0  0  0  0  0  0  0  0
    1.8720  -19.8965   21.7933 C   0  0  0  0  0  0  0  0  0  0  0  0
    7.3401  -15.8007   22.4243 N   0  0  0  0  0  0  0  0  0  0  0  0
    6.3094  -14.8247   22.2424 C   0  0  0  0  0  0  0  0  0  0  0  0
    7.0599  -13.6008   21.7279 C   0  0  0  0  0  0  0  0  0  0  0  0
    8.5018  -13.8708   21.9803 C   0  0  0  0  0  0  0  0  0  0  0  0
    8.5059  -15.0463   22.8966 C   0  0  1  0  0  0  0  0  0  0  0  0
    8.3341  -14.7340   24.3168 C   0  0  0  0  0  0  0  0  0  0  0  0
    7.1636  -14.6183   24.8078 O   0  0  0  0  0  0  0  0  0  0  0  0
   11.6134  -17.4350   27.5658 C   0  0  0  0  0  0  0  0  0  0  0  0
   10.4965  -16.6331   27.0493 C   0  0  0  0  0  0  0  0  0  0  0  0
   10.3681  -15.2043   27.3069 C   0  0  2  0  0  0  0  0  0  0  0  0
   10.4701  -14.8683   28.8037 C   0  0  0  0  0  0  0  0  0  0  0  0
    9.2695  -14.4618   26.6619 C   0  0  2  0  0  0  0  0  0  0  0  0
    9.4356  -14.5517   25.1836 N   0  0  0  0  0  0  0  0  0  0  0  0
    9.2465  -13.0425   26.9507 C   0  0  0  0  0  0  0  0  0  0  0  0
    8.5822  -12.6000   27.9224 O   0  0  0  0  0  0  0  0  0  0  0  0
    9.9346  -12.1192   26.2104 O   0  0  0  0  0  0  0  0  0  0  0  0
  2  1  1  0
  3  2  2  0
  4  3  1  0
  5  4  2  0
  5 11  1  0
  6  5  1  0
  7  9  1  0
  7  6  1  0
  7  8  1  1
  9 13  1  0
  9 10  2  0
 11 12  2  0
 12  2  1  0
 13 14  1  0
 14 15  1  0
 16 15  1  0
 17 13  1  0
 17 16  1  0
 17 18  1  1
 19 18  2  0
 20 21  1  0
 21 22  1  0
 22 24  1  0
 22 23  1  1
 24 25  1  6
 25 18  1  0
 26 24  1  0
 26 28  1  0
 27 26  2  0
M  END
$$$$
