YPI.pdb
     RDKit          3D

 28 29  0  0  1  0  0  0  0  0999 V2000
    9.1502  -19.7716   29.6666 O   0  0  0  0  0  0  0  0  0  0  0  0
    8.4075  -19.3963   28.5446 C   0  0  0  0  0  0  0  0  0  0  0  0
    7.9019  -18.1338   28.3806 C   0  0  0  0  0  0  0  0  0  0  0  0
    7.1636  -17.7998   27.2418 C   0  0  0  0  0  0  0  0  0  0  0  0
    6.9250  -18.7303   26.2551 C   0  0  0  0  0  0  0  0  0  0  0  0
    6.1507  -18.4050   25.0385 C   0  0  0  0  0  0  0  0  0  0  0  0
    6.8703  -18.7680   23.7555 C   0  0  2  0  0  0  0  0  0  0  0  0
    7.3896  -20.0981   23.7313 N   0  0  0  0  0  0  0  0  0  0  0  0
    7.8292  -17.7102   23.3572 C   0  0  0  0  0  0  0  0  0  0  0  0
    9.0402  -18.0956   23.1104 O   0  0  0  0  0  0  0  0  0  0  0  0
    7.4498  -20.0045   26.4469 C   0  0  0  0  0  0  0  0  0  0  0  0
    8.1765  -20.3320   27.5686 C   0  0  0  0  0  0  0  0  0  0  0  0
    7.5459  -16.3334   23.2242 N   0  0  0  0  0  0  0  0  0  0  0  0
    6.3913  -15.5678   23.5832 C   0  0  0  0  0  0  0  0  0  0  0  0
    6.2964  -14.5208   22.4784 C   0  0  0  0  0  0  0  0  0  0  0  0
    7.6012  -14.5631   21.7634 C   0  0  0  0  0  0  0  0  0  0  0  0
    8.4879  -15.3650   22.6534 C   0  0  1  0  0  0  0  0  0  0  0  0
    9.1270  -14.6180   23.7386 C   0  0  0  0  0  0  0  0  0  0  0  0
    9.1407  -13.3437   23.7144 O   0  0  0  0  0  0  0  0  0  0  0  0
    6.7167  -12.6163   26.3187 C   0  0  0  0  0  0  0  0  0  0  0  0
    7.9720  -13.1975   25.8251 C   0  0  0  0  0  0  0  0  0  0  0  0
    8.8646  -13.9784   26.6724 C   0  0  2  0  0  0  0  0  0  0  0  0
    9.1461  -13.2888   28.0174 C   0  0  0  0  0  0  0  0  0  0  0  0
   10.0970  -14.5345   26.0839 C   0  0  2  0  0  0  0  0  0  0  0  0
    9.7421  -15.2650   24.8344 N   0  0  0  0  0  0  0  0  0  0  0  0
   10.7745  -15.5126   26.9101 C   0  0  0  0  0  0  0  0  0  0  0  0
   10.4446  -16.7253   26.8633 O   0  0  0  0  0  0  0  0  0  0  0  0
   11.7947  -15.1900   27.7639 O   0  0  0  0  0  0  0  0  0  0  0  0
  2  1  1  0
  3  2  2  0
  4  3  1  0
  5  4  2  0
  5 11  1  0
  6  5  1  0
  7  9  1  0
  7  6  1  0
  7  8  1  1
  9 13  1  0
  9 10  2  0
 11 12  2  0
 12  2  1  0
 13 14  1  0
 14 15  1  0
 16 15  1  0
 17 13  1  0
 17 16  1  0
 17 18  1  1
 19 18  2  0
 20 21  1  0
 21 22  1  0
 22 24  1  0
 22 23  1  1
 24 25  1  6
 25 18  1  0
 26 24  1  0
 26 28  1  0
 27 26  2  0
M  END
$$$$
