YPI.pdb
     RDKit          3D

 28 29  0  0  1  0  0  0  0  0999 V2000
    1.6518  -19.2937   19.1982 O   0  0  0  0  0  0  0  0  0  0  0  0
    2.9362  -19.1740   19.7342 C   0  0  0  0  0  0  0  0  0  0  0  0
    3.9917  -18.6708   19.0205 C   0  0  0  0  0  0  0  0  0  0  0  0
    5.2615  -18.5682   19.5953 C   0  0  0  0  0  0  0  0  0  0  0  0
    5.4853  -18.9697   20.8933 C   0  0  0  0  0  0  0  0  0  0  0  0
    6.8165  -18.8699   21.5287 C   0  0  0  0  0  0  0  0  0  0  0  0
    7.8155  -18.0824   20.7056 C   0  0  2  0  0  0  0  0  0  0  0  0
    8.7010  -18.8901   19.9291 N   0  0  0  0  0  0  0  0  0  0  0  0
    8.4715  -17.0295   21.5168 C   0  0  0  0  0  0  0  0  0  0  0  0
    9.7515  -17.1406   21.6761 O   0  0  0  0  0  0  0  0  0  0  0  0
    4.3963  -19.4768   21.5953 C   0  0  0  0  0  0  0  0  0  0  0  0
    3.1466  -19.5774   21.0281 C   0  0  0  0  0  0  0  0  0  0  0  0
    7.8345  -15.9269   22.1266 N   0  0  0  0  0  0  0  0  0  0  0  0
    6.4809  -15.4662   22.0661 C   0  0  0  0  0  0  0  0  0  0  0  0
    6.6156  -13.9477   22.1104 C   0  0  0  0  0  0  0  0  0  0  0  0
    8.0161  -13.6748   22.5342 C   0  0  0  0  0  0  0  0  0  0  0  0
    8.5206  -14.9896   23.0221 C   0  0  1  0  0  0  0  0  0  0  0  0
    8.1830  -15.3144   24.4094 C   0  0  0  0  0  0  0  0  0  0  0  0
    7.2124  -16.1010   24.6626 O   0  0  0  0  0  0  0  0  0  0  0  0
   10.6777  -12.5069   28.4906 C   0  0  0  0  0  0  0  0  0  0  0  0
   10.5796  -13.5600   27.4716 C   0  0  0  0  0  0  0  0  0  0  0  0
    9.8800  -14.8174   27.7039 C   0  0  2  0  0  0  0  0  0  0  0  0
   10.5348  -15.6544   28.8150 C   0  0  0  0  0  0  0  0  0  0  0  0
    9.5152  -15.6524   26.5447 C   0  0  2  0  0  0  0  0  0  0  0  0
    8.9037  -14.7809   25.5019 N   0  0  0  0  0  0  0  0  0  0  0  0
    8.5169  -16.6657   26.8185 C   0  0  0  0  0  0  0  0  0  0  0  0
    7.2927  -16.4033   26.7005 O   0  0  0  0  0  0  0  0  0  0  0  0
    8.8337  -17.9406   27.2036 O   0  0  0  0  0  0  0  0  0  0  0  0
  2  1  1  0
  3  2  2  0
  4  3  1  0
  5  4  2  0
  5 11  1  0
  6  5  1  0
  7  9  1  0
  7  6  1  0
  7  8  1  1
  9 13  1  0
  9 10  2  0
 11 12  2  0
 12  2  1  0
 13 14  1  0
 14 15  1  0
 16 15  1  0
 17 13  1  0
 17 16  1  0
 17 18  1  1
 19 18  2  0
 20 21  1  0
 21 22  1  0
 22 24  1  0
 22 23  1  1
 24 25  1  6
 25 18  1  0
 26 24  1  0
 26 28  1  0
 27 26  2  0
M  END
$$$$
