ACC.pdb
     RDKit          3D

 18 17  0  0  1  0  0  0  0  0999 V2000
    8.2934  -12.4979   19.2689 C   0  0  0  0  0  0  0  0  0  0  0  0
    8.4827  -13.9761   19.3605 C   0  0  2  0  0  0  0  0  0  0  0  0
    8.0183  -14.5916   18.1318 N   0  0  0  0  0  0  0  0  0  0  0  0
    7.7708  -14.5679   20.5458 C   0  0  0  0  0  0  0  0  0  0  0  0
    6.6437  -15.0964   20.3894 O   0  0  0  0  0  0  0  0  0  0  0  0
    8.3911  -14.5150   21.8169 N   0  0  0  0  0  0  0  0  0  0  0  0
    7.7950  -15.1413   22.9712 C   0  0  1  0  0  0  0  0  0  0  0  0
    8.2418  -16.5706   22.9983 C   0  0  0  0  0  0  0  0  0  0  0  0
    7.9070  -17.4202   24.5567 S   0  0  0  0  0  0  0  0  0  0  0  0
    8.1875  -14.3817   24.1820 C   0  0  0  0  0  0  0  0  0  0  0  0
    9.4188  -14.0633   24.3508 O   0  0  0  0  0  0  0  0  0  0  0  0
    7.3158  -13.9576   25.2007 N   0  0  0  0  0  0  0  0  0  0  0  0
    7.8457  -13.2274   26.3464 C   0  0  1  0  0  0  0  0  0  0  0  0
    6.8410  -12.2038   26.8456 C   0  0  0  0  0  0  0  0  0  0  0  0
    5.1804  -12.8728   26.9833 S   0  0  0  0  0  0  0  0  0  0  0  0
    8.2279  -14.1589   27.4393 C   0  0  0  0  0  0  0  0  0  0  0  0
    7.9852  -15.3741   27.4342 O   0  0  0  0  0  0  0  0  0  0  0  0
    8.8986  -13.6087   28.5241 O   0  0  0  0  0  0  0  0  0  0  0  0
  2  1  1  6
  2  3  1  0
  4  5  2  0
  4  2  1  0
  6  4  1  0
  7  6  1  0
  7  8  1  1
  9  8  1  0
 10  7  1  0
 10 12  1  0
 11 10  2  0
 13 12  1  0
 13 16  1  0
 13 14  1  1
 14 15  1  0
 16 18  1  0
 17 16  2  0
M  END
$$$$
