ACC.pdb
     RDKit          3D

 18 17  0  0  1  0  0  0  0  0999 V2000
    7.1140  -18.7686   17.6462 C   0  0  0  0  0  0  0  0  0  0  0  0
    7.4168  -17.3904   17.1580 C   0  0  2  0  0  0  0  0  0  0  0  0
    8.1798  -17.4792   15.9276 N   0  0  0  0  0  0  0  0  0  0  0  0
    8.1616  -16.5764   18.1801 C   0  0  0  0  0  0  0  0  0  0  0  0
    9.4155  -16.5442   18.1504 O   0  0  0  0  0  0  0  0  0  0  0  0
    7.4280  -15.8617   19.1570 N   0  0  0  0  0  0  0  0  0  0  0  0
    8.0892  -15.0525   20.1510 C   0  0  1  0  0  0  0  0  0  0  0  0
    7.0628  -14.1488   20.7618 C   0  0  0  0  0  0  0  0  0  0  0  0
    7.6559  -13.2158   22.1902 S   0  0  0  0  0  0  0  0  0  0  0  0
    8.7431  -15.9466   21.1360 C   0  0  0  0  0  0  0  0  0  0  0  0
    8.1339  -17.0082   21.5205 O   0  0  0  0  0  0  0  0  0  0  0  0
   10.0099  -15.7431   21.7116 N   0  0  0  0  0  0  0  0  0  0  0  0
   10.5030  -16.6750   22.7190 C   0  0  1  0  0  0  0  0  0  0  0  0
   11.9466  -17.0562   22.4411 C   0  0  0  0  0  0  0  0  0  0  0  0
   12.1282  -18.0451   20.9534 S   0  0  0  0  0  0  0  0  0  0  0  0
   10.3684  -16.1021   24.0835 C   0  0  0  0  0  0  0  0  0  0  0  0
    9.8572  -15.0001   24.3279 O   0  0  0  0  0  0  0  0  0  0  0  0
   10.8539  -16.8695   25.1347 O   0  0  0  0  0  0  0  0  0  0  0  0
  2  1  1  1
  2  3  1  0
  4  5  2  0
  4  2  1  0
  6  4  1  0
  7  6  1  0
  7  8  1  1
  9  8  1  0
 10  7  1  0
 10 12  1  0
 11 10  2  0
 13 12  1  0
 13 16  1  0
 13 14  1  6
 14 15  1  0
 16 18  1  0
 17 16  2  0
M  END
$$$$
