ACC.pdb
     RDKit          3D

 18 17  0  0  1  0  0  0  0  0999 V2000
    6.4699  -15.9780   21.1025 C   0  0  0  0  0  0  0  0  0  0  0  0
    7.1755  -14.6656   21.1985 C   0  0  2  0  0  0  0  0  0  0  0  0
    8.1299  -14.5587   20.1114 N   0  0  0  0  0  0  0  0  0  0  0  0
    7.8659  -14.4872   22.5227 C   0  0  0  0  0  0  0  0  0  0  0  0
    9.0521  -14.8728   22.6583 O   0  0  0  0  0  0  0  0  0  0  0  0
    7.1589  -13.8855   23.5910 N   0  0  0  0  0  0  0  0  0  0  0  0
    7.7647  -13.7066   24.8875 C   0  0  1  0  0  0  0  0  0  0  0  0
    6.8527  -12.8430   25.7035 C   0  0  0  0  0  0  0  0  0  0  0  0
    7.3354  -12.6894   27.4372 S   0  0  0  0  0  0  0  0  0  0  0  0
    8.0040  -15.0394   25.4903 C   0  0  0  0  0  0  0  0  0  0  0  0
    7.0366  -15.8792   25.5595 O   0  0  0  0  0  0  0  0  0  0  0  0
    9.2284  -15.4943   26.0114 N   0  0  0  0  0  0  0  0  0  0  0  0
    9.2909  -16.7870   26.6835 C   0  0  1  0  0  0  0  0  0  0  0  0
   10.0182  -17.8070   25.8248 C   0  0  0  0  0  0  0  0  0  0  0  0
   11.0418  -17.0455   24.5613 S   0  0  0  0  0  0  0  0  0  0  0  0
    9.9444  -16.6634   28.0124 C   0  0  0  0  0  0  0  0  0  0  0  0
   10.4162  -15.6087   28.4602 O   0  0  0  0  0  0  0  0  0  0  0  0
   10.0187  -17.8171   28.7824 O   0  0  0  0  0  0  0  0  0  0  0  0
  2  1  1  1
  2  3  1  0
  4  5  2  0
  4  2  1  0
  6  4  1  0
  7  6  1  0
  7  8  1  1
  9  8  1  0
 10  7  1  0
 10 12  1  0
 11 10  2  0
 13 12  1  0
 13 16  1  0
 13 14  1  6
 14 15  1  0
 16 18  1  0
 17 16  2  0
M  END
$$$$
