ACC.pdb
     RDKit          3D

 18 17  0  0  1  0  0  0  0  0999 V2000
    6.4254  -18.7663   23.5406 C   0  0  0  0  0  0  0  0  0  0  0  0
    6.3814  -17.4146   22.9079 C   0  0  2  0  0  0  0  0  0  0  0  0
    6.6790  -17.5419   21.4939 N   0  0  0  0  0  0  0  0  0  0  0  0
    7.3339  -16.4506   23.5601 C   0  0  0  0  0  0  0  0  0  0  0  0
    8.4960  -16.3259   23.1041 O   0  0  0  0  0  0  0  0  0  0  0  0
    6.8960  -15.7024   24.6789 N   0  0  0  0  0  0  0  0  0  0  0  0
    7.7591  -14.7474   25.3294 C   0  0  1  0  0  0  0  0  0  0  0  0
    6.8902  -13.7398   26.0172 C   0  0  0  0  0  0  0  0  0  0  0  0
    7.7679  -12.6881   27.1946 S   0  0  0  0  0  0  0  0  0  0  0  0
    8.6609  -15.4728   26.2554 C   0  0  0  0  0  0  0  0  0  0  0  0
    8.1893  -16.4285   26.9697 O   0  0  0  0  0  0  0  0  0  0  0  0
   10.0308  -15.2117   26.4362 N   0  0  0  0  0  0  0  0  0  0  0  0
   10.8145  -16.0557   27.3306 C   0  0  1  0  0  0  0  0  0  0  0  0
   12.2474  -16.1759   26.8418 C   0  0  0  0  0  0  0  0  0  0  0  0
   12.9388  -14.6003   26.3284 S   0  0  0  0  0  0  0  0  0  0  0  0
   10.7801  -15.5318   28.7208 C   0  0  0  0  0  0  0  0  0  0  0  0
   10.2426  -14.4645   29.0489 O   0  0  0  0  0  0  0  0  0  0  0  0
   11.3961  -16.3056   29.6962 O   0  0  0  0  0  0  0  0  0  0  0  0
  2  1  1  1
  2  3  1  0
  4  5  2  0
  4  2  1  0
  6  4  1  0
  7  6  1  0
  7  8  1  1
  9  8  1  0
 10  7  1  0
 10 12  1  0
 11 10  2  0
 13 12  1  0
 13 16  1  0
 13 14  1  6
 14 15  1  0
 16 18  1  0
 17 16  2  0
M  END
$$$$
