ACC.pdb
     RDKit          3D

 18 17  0  0  1  0  0  0  0  0999 V2000
    8.3625  -12.4817   19.3580 C   0  0  0  0  0  0  0  0  0  0  0  0
    8.3788  -13.9674   19.5058 C   0  0  2  0  0  0  0  0  0  0  0  0
    7.9069  -14.5725   18.2748 N   0  0  0  0  0  0  0  0  0  0  0  0
    7.5486  -14.4316   20.6709 C   0  0  0  0  0  0  0  0  0  0  0  0
    6.3178  -14.6200   20.5168 O   0  0  0  0  0  0  0  0  0  0  0  0
    8.1773  -14.6464   21.9206 N   0  0  0  0  0  0  0  0  0  0  0  0
    7.4460  -15.1629   23.0513 C   0  0  1  0  0  0  0  0  0  0  0  0
    7.3989  -16.6544   22.9232 C   0  0  0  0  0  0  0  0  0  0  0  0
    6.6924  -17.4973   24.3560 S   0  0  0  0  0  0  0  0  0  0  0  0
    8.1053  -14.7024   24.2964 C   0  0  0  0  0  0  0  0  0  0  0  0
    9.3867  -14.6883   24.3592 O   0  0  0  0  0  0  0  0  0  0  0  0
    7.4454  -14.2618   25.4575 N   0  0  0  0  0  0  0  0  0  0  0  0
    8.2249  -13.8708   26.6262 C   0  0  1  0  0  0  0  0  0  0  0  0
    7.4563  -12.8772   27.4798 C   0  0  0  0  0  0  0  0  0  0  0  0
    6.2784  -11.9119   26.5285 S   0  0  0  0  0  0  0  0  0  0  0  0
    8.6101  -15.0600   27.4298 C   0  0  0  0  0  0  0  0  0  0  0  0
    8.1989  -16.2087   27.2132 O   0  0  0  0  0  0  0  0  0  0  0  0
    9.4877  -14.8444   28.4847 O   0  0  0  0  0  0  0  0  0  0  0  0
  2  1  1  6
  2  3  1  0
  4  5  2  0
  4  2  1  0
  6  4  1  0
  7  6  1  0
  7  8  1  6
  9  8  1  0
 10  7  1  0
 10 12  1  0
 11 10  2  0
 13 12  1  0
 13 16  1  0
 13 14  1  1
 14 15  1  0
 16 18  1  0
 17 16  2  0
M  END
$$$$
