ACC.pdb
     RDKit          3D

 18 17  0  0  1  0  0  0  0  0999 V2000
    6.4722  -19.3434   19.5034 C   0  0  0  0  0  0  0  0  0  0  0  0
    7.2315  -18.1262   19.0895 C   0  0  2  0  0  0  0  0  0  0  0  0
    7.9901  -18.4247   17.8897 N   0  0  0  0  0  0  0  0  0  0  0  0
    8.1435  -17.6283   20.1769 C   0  0  0  0  0  0  0  0  0  0  0  0
    9.3032  -18.0970   20.2739 O   0  0  0  0  0  0  0  0  0  0  0  0
    7.6708  -16.6376   21.0704 N   0  0  0  0  0  0  0  0  0  0  0  0
    8.4882  -16.1508   22.1542 C   0  0  1  0  0  0  0  0  0  0  0  0
    7.8282  -14.9270   22.7111 C   0  0  0  0  0  0  0  0  0  0  0  0
    8.5719  -14.3172   24.2401 S   0  0  0  0  0  0  0  0  0  0  0  0
    8.6514  -17.2342   23.1526 C   0  0  0  0  0  0  0  0  0  0  0  0
    7.6166  -17.8771   23.5550 O   0  0  0  0  0  0  0  0  0  0  0  0
    9.8693  -17.6451   23.7230 N   0  0  0  0  0  0  0  0  0  0  0  0
    9.8703  -18.6661   24.7642 C   0  0  1  0  0  0  0  0  0  0  0  0
   10.4276  -19.9761   24.2349 C   0  0  0  0  0  0  0  0  0  0  0  0
   12.0936  -19.8087   23.5864 S   0  0  0  0  0  0  0  0  0  0  0  0
   10.6412  -18.2133   25.9512 C   0  0  0  0  0  0  0  0  0  0  0  0
   11.2444  -17.1329   26.0182 O   0  0  0  0  0  0  0  0  0  0  0  0
   10.6725  -19.0731   27.0418 O   0  0  0  0  0  0  0  0  0  0  0  0
  2  1  1  1
  2  3  1  0
  4  5  2  0
  4  2  1  0
  6  4  1  0
  7  6  1  0
  7  8  1  1
  9  8  1  0
 10  7  1  0
 10 12  1  0
 11 10  2  0
 13 12  1  0
 13 16  1  0
 13 14  1  6
 14 15  1  0
 16 18  1  0
 17 16  2  0
M  END
$$$$
