ACC.pdb
     RDKit          3D

 18 17  0  0  1  0  0  0  0  0999 V2000
    4.9511  -18.2887   23.0239 C   0  0  0  0  0  0  0  0  0  0  0  0
    4.9279  -18.0209   21.5552 C   0  0  2  0  0  0  0  0  0  0  0  0
    4.7839  -19.2777   20.8453 N   0  0  0  0  0  0  0  0  0  0  0  0
    6.1597  -17.2938   21.0906 C   0  0  0  0  0  0  0  0  0  0  0  0
    7.1801  -17.9492   20.7692 O   0  0  0  0  0  0  0  0  0  0  0  0
    6.1402  -15.8801   21.0262 N   0  0  0  0  0  0  0  0  0  0  0  0
    7.3328  -15.1240   20.7329 C   0  0  1  0  0  0  0  0  0  0  0  0
    6.9099  -13.7663   20.2630 C   0  0  0  0  0  0  0  0  0  0  0  0
    8.2818  -12.6690   19.8431 S   0  0  0  0  0  0  0  0  0  0  0  0
    8.1835  -15.0854   21.9461 C   0  0  0  0  0  0  0  0  0  0  0  0
    7.7349  -14.5240   23.0090 O   0  0  0  0  0  0  0  0  0  0  0  0
    9.4787  -15.6223   22.0553 N   0  0  0  0  0  0  0  0  0  0  0  0
   10.2152  -15.4816   23.3060 C   0  0  1  0  0  0  0  0  0  0  0  0
    9.5747  -16.3104   24.4057 C   0  0  0  0  0  0  0  0  0  0  0  0
    8.1928  -15.4731   25.1889 S   0  0  0  0  0  0  0  0  0  0  0  0
   11.6405  -15.8629   23.1287 C   0  0  0  0  0  0  0  0  0  0  0  0
   12.1181  -16.2965   22.0706 O   0  0  0  0  0  0  0  0  0  0  0  0
   12.4695  -15.7149   24.2333 O   0  0  0  0  0  0  0  0  0  0  0  0
  2  1  1  1
  2  3  1  0
  4  5  2  0
  4  2  1  0
  6  4  1  0
  7  6  1  0
  7  8  1  1
  9  8  1  0
 10  7  1  0
 10 12  1  0
 11 10  2  0
 13 12  1  0
 13 16  1  0
 13 14  1  1
 14 15  1  0
 16 18  1  0
 17 16  2  0
M  END
$$$$
