IYF.pdb
     RDKit          3D

 32 33  0  0  1  0  0  0  0  0999 V2000
   27.0229  -19.5706  -17.9620 C   0  0  0  0  0  0  0  0  0  0  0  0
   27.7543  -18.6501  -17.0494 C   0  0  0  0  0  0  0  0  0  0  0  0
   27.2214  -18.5593  -15.6690 C   0  0  2  0  0  0  0  0  0  0  0  0
   27.7227  -17.3043  -14.9877 C   0  0  0  0  0  0  0  0  0  0  0  0
   27.4166  -19.7633  -14.8151 C   0  0  2  0  0  0  0  0  0  0  0  0
   27.1653  -21.0132  -15.4443 N   0  0  0  0  0  0  0  0  0  0  0  0
   26.6548  -19.6801  -13.5436 C   0  0  0  0  0  0  0  0  0  0  0  0
   26.4749  -18.5617  -13.0172 O   0  0  0  0  0  0  0  0  0  0  0  0
   20.3856  -19.2512  -15.3554 O   0  0  0  0  0  0  0  0  0  0  0  0
   21.2878  -19.7749  -14.4675 C   0  0  0  0  0  0  0  0  0  0  0  0
   22.1779  -20.7495  -14.8722 C   0  0  0  0  0  0  0  0  0  0  0  0
   23.0912  -21.2882  -13.9978 C   0  0  0  0  0  0  0  0  0  0  0  0
   23.0937  -20.8204  -12.6834 C   0  0  0  0  0  0  0  0  0  0  0  0
   24.0744  -21.4294  -11.7613 C   0  0  0  0  0  0  0  0  0  0  0  0
   25.3685  -20.6809  -11.6833 C   0  0  2  0  0  0  0  0  0  0  0  0
   26.1357  -20.8380  -12.9273 N   0  0  0  0  0  0  0  0  0  0  0  0
   26.1661  -21.1510  -10.5381 C   0  0  0  0  0  0  0  0  0  0  0  0
   26.8773  -22.1798  -10.5718 O   0  0  0  0  0  0  0  0  0  0  0  0
   22.2127  -19.8525  -12.2724 C   0  0  0  0  0  0  0  0  0  0  0  0
   21.2988  -19.3158  -13.1545 C   0  0  0  0  0  0  0  0  0  0  0  0
   26.1277  -20.3960   -9.3264 N   0  0  0  0  0  0  0  0  0  0  0  0
   26.8518  -20.9145   -8.1828 C   0  0  1  0  0  0  0  0  0  0  0  0
   28.1043  -20.0895   -8.0157 C   0  0  0  0  0  0  0  0  0  0  0  0
   28.5060  -19.9120   -6.6090 C   0  0  0  0  0  0  0  0  0  0  0  0
   29.3146  -20.8293   -5.9439 C   0  0  0  0  0  0  0  0  0  0  0  0
   29.6836  -20.6388   -4.6301 C   0  0  0  0  0  0  0  0  0  0  0  0
   29.2239  -19.4994   -3.9834 C   0  0  0  0  0  0  0  0  0  0  0  0
   28.4219  -18.5763   -4.6215 C   0  0  0  0  0  0  0  0  0  0  0  0
   28.0611  -18.7816   -5.9378 C   0  0  0  0  0  0  0  0  0  0  0  0
   25.9567  -20.8729   -7.0225 C   0  0  0  0  0  0  0  0  0  0  0  0
   24.8516  -20.2845   -7.1221 O   0  0  0  0  0  0  0  0  0  0  0  0
   26.2639  -21.4559   -5.7981 O   0  0  0  0  0  0  0  0  0  0  0  0
  2  1  1  0
  3  2  1  0
  3  4  1  1
  5  6  1  6
  5  3  1  0
  7  5  1  0
  8  7  2  0
 10 11  2  0
 10  9  1  0
 12 11  1  0
 13 12  2  0
 14 13  1  0
 15 14  1  6
 15 16  1  0
 16  7  1  0
 17 21  1  0
 17 15  1  0
 18 17  2  0
 19 13  1  0
 19 20  2  0
 20 10  1  0
 22 23  1  1
 22 21  1  0
 23 24  1  0
 24 29  1  0
 25 24  2  0
 25 26  1  0
 26 27  2  0
 27 28  1  0
 29 28  2  0
 30 22  1  0
 30 32  1  0
 31 30  2  0
M  END
$$$$
