IYF.pdb
     RDKit          3D

 32 33  0  0  1  0  0  0  0  0999 V2000
   30.5135  -16.8478  -17.4278 C   0  0  0  0  0  0  0  0  0  0  0  0
   29.6352  -18.0474  -17.4978 C   0  0  0  0  0  0  0  0  0  0  0  0
   28.6157  -18.1584  -16.4273 C   0  0  2  0  0  0  0  0  0  0  0  0
   29.0455  -19.1706  -15.3875 C   0  0  0  0  0  0  0  0  0  0  0  0
   27.2179  -18.3969  -16.8814 C   0  0  2  0  0  0  0  0  0  0  0  0
   26.7126  -17.4713  -17.8348 N   0  0  0  0  0  0  0  0  0  0  0  0
   26.2699  -18.5136  -15.7448 C   0  0  0  0  0  0  0  0  0  0  0  0
   25.9209  -17.4789  -15.1383 O   0  0  0  0  0  0  0  0  0  0  0  0
   19.9397  -20.7218  -10.2976 O   0  0  0  0  0  0  0  0  0  0  0  0
   20.8092  -20.6131  -11.3506 C   0  0  0  0  0  0  0  0  0  0  0  0
   21.4861  -21.7242  -11.8125 C   0  0  0  0  0  0  0  0  0  0  0  0
   22.3626  -21.6373  -12.8674 C   0  0  0  0  0  0  0  0  0  0  0  0
   22.5502  -20.3890  -13.4615 C   0  0  0  0  0  0  0  0  0  0  0  0
   23.5108  -20.3219  -14.5820 C   0  0  0  0  0  0  0  0  0  0  0  0
   24.8622  -19.8161  -14.1833 C   0  0  2  0  0  0  0  0  0  0  0  0
   25.7625  -19.7673  -15.3443 N   0  0  0  0  0  0  0  0  0  0  0  0
   25.4418  -20.6706  -13.1333 C   0  0  0  0  0  0  0  0  0  0  0  0
   25.8962  -21.8157  -13.3520 O   0  0  0  0  0  0  0  0  0  0  0  0
   21.8821  -19.2795  -13.0091 C   0  0  0  0  0  0  0  0  0  0  0  0
   21.0038  -19.3731  -11.9502 C   0  0  0  0  0  0  0  0  0  0  0  0
   25.4889  -20.1694  -11.7968 N   0  0  0  0  0  0  0  0  0  0  0  0
   25.9248  -21.0725  -10.7503 C   0  0  1  0  0  0  0  0  0  0  0  0
   27.1986  -20.5175  -10.1614 C   0  0  0  0  0  0  0  0  0  0  0  0
   27.0403  -20.0239   -8.7819 C   0  0  0  0  0  0  0  0  0  0  0  0
   26.2780  -18.9001   -8.4759 C   0  0  0  0  0  0  0  0  0  0  0  0
   26.1381  -18.4610   -7.1774 C   0  0  0  0  0  0  0  0  0  0  0  0
   26.7826  -19.1747   -6.1758 C   0  0  0  0  0  0  0  0  0  0  0  0
   27.5432  -20.2911   -6.4545 C   0  0  0  0  0  0  0  0  0  0  0  0
   27.6733  -20.7182   -7.7605 C   0  0  0  0  0  0  0  0  0  0  0  0
   24.8329  -21.2039   -9.7808 C   0  0  0  0  0  0  0  0  0  0  0  0
   23.8924  -20.3718   -9.8011 O   0  0  0  0  0  0  0  0  0  0  0  0
   24.7761  -22.2117   -8.8246 O   0  0  0  0  0  0  0  0  0  0  0  0
  2  1  1  0
  3  2  1  0
  3  4  1  1
  5  6  1  6
  5  3  1  0
  7  5  1  0
  8  7  2  0
 10 11  2  0
 10  9  1  0
 12 11  1  0
 13 12  2  0
 14 13  1  0
 15 14  1  6
 15 16  1  0
 16  7  1  0
 17 21  1  0
 17 15  1  0
 18 17  2  0
 19 13  1  0
 19 20  2  0
 20 10  1  0
 22 23  1  1
 22 21  1  0
 23 24  1  0
 24 29  1  0
 25 24  2  0
 25 26  1  0
 26 27  2  0
 27 28  1  0
 29 28  2  0
 30 22  1  0
 30 32  1  0
 31 30  2  0
M  END
$$$$
