IYF.pdb
     RDKit          3D

 32 33  0  0  1  0  0  0  0  0999 V2000
   15.0899  -12.2248  -14.3311 C   0  0  0  0  0  0  0  0  0  0  0  0
   14.5572  -12.0047  -12.9589 C   0  0  0  0  0  0  0  0  0  0  0  0
   14.7329  -10.6367  -12.4152 C   0  0  2  0  0  0  0  0  0  0  0  0
   16.1824  -10.2112  -12.5061 C   0  0  0  0  0  0  0  0  0  0  0  0
   14.1749  -10.3998  -11.0553 C   0  0  2  0  0  0  0  0  0  0  0  0
   12.8377  -10.8377  -10.8522 N   0  0  0  0  0  0  0  0  0  0  0  0
   14.3082   -8.9831  -10.6321 C   0  0  0  0  0  0  0  0  0  0  0  0
   13.5979   -8.1165  -11.1842 O   0  0  0  0  0  0  0  0  0  0  0  0
    9.5508   -7.4253   -6.5874 O   0  0  0  0  0  0  0  0  0  0  0  0
   10.8813   -7.3073   -6.8914 C   0  0  0  0  0  0  0  0  0  0  0  0
   11.6836   -8.4292   -6.9537 C   0  0  0  0  0  0  0  0  0  0  0  0
   13.0206   -8.3333   -7.2570 C   0  0  0  0  0  0  0  0  0  0  0  0
   13.5471   -7.0646   -7.5013 C   0  0  0  0  0  0  0  0  0  0  0  0
   14.9904   -6.9899   -7.8080 C   0  0  0  0  0  0  0  0  0  0  0  0
   15.3057   -7.1846   -9.2584 C   0  0  2  0  0  0  0  0  0  0  0  0
   15.2189   -8.6060   -9.6230 N   0  0  0  0  0  0  0  0  0  0  0  0
   16.6499   -6.6679   -9.5663 C   0  0  0  0  0  0  0  0  0  0  0  0
   17.6810   -7.0275   -8.9556 O   0  0  0  0  0  0  0  0  0  0  0  0
   12.7575   -5.9444   -7.4414 C   0  0  0  0  0  0  0  0  0  0  0  0
   11.4165   -6.0471   -7.1367 C   0  0  0  0  0  0  0  0  0  0  0  0
   16.7862   -5.7076  -10.6145 N   0  0  0  0  0  0  0  0  0  0  0  0
   18.1215   -5.4204  -11.0997 C   0  0  1  0  0  0  0  0  0  0  0  0
   18.6702   -6.6828  -11.7184 C   0  0  0  0  0  0  0  0  0  0  0  0
   19.9463   -6.4816  -12.4274 C   0  0  0  0  0  0  0  0  0  0  0  0
   21.1794   -6.6615  -11.8072 C   0  0  0  0  0  0  0  0  0  0  0  0
   22.3601   -6.4746  -12.4923 C   0  0  0  0  0  0  0  0  0  0  0  0
   22.2859   -6.0995  -13.8271 C   0  0  0  0  0  0  0  0  0  0  0  0
   21.0760   -5.9153  -14.4632 C   0  0  0  0  0  0  0  0  0  0  0  0
   19.9021   -6.1066  -13.7629 C   0  0  0  0  0  0  0  0  0  0  0  0
   18.0320   -4.2942  -12.0341 C   0  0  0  0  0  0  0  0  0  0  0  0
   16.9782   -4.1310  -12.6975 O   0  0  0  0  0  0  0  0  0  0  0  0
   19.0617   -3.3812  -12.2324 O   0  0  0  0  0  0  0  0  0  0  0  0
  2  1  1  0
  3  2  1  0
  3  4  1  1
  5  6  1  6
  5  3  1  0
  7  5  1  0
  8  7  2  0
 10 11  2  0
 10  9  1  0
 12 11  1  0
 13 12  2  0
 14 13  1  0
 15 14  1  1
 15 16  1  0
 16  7  1  0
 17 21  1  0
 17 15  1  0
 18 17  2  0
 19 13  1  0
 19 20  2  0
 20 10  1  0
 22 23  1  6
 22 21  1  0
 23 24  1  0
 24 29  1  0
 25 24  2  0
 25 26  1  0
 26 27  2  0
 27 28  1  0
 29 28  2  0
 30 22  1  0
 30 32  1  0
 31 30  2  0
M  END
$$$$
