IYF.pdb
     RDKit          3D

 32 33  0  0  1  0  0  0  0  0999 V2000
   29.8796  -20.3725  -16.4835 C   0  0  0  0  0  0  0  0  0  0  0  0
   28.4011  -20.5294  -16.4132 C   0  0  0  0  0  0  0  0  0  0  0  0
   27.7769  -20.1471  -15.1241 C   0  0  2  0  0  0  0  0  0  0  0  0
   28.4212  -20.8979  -13.9788 C   0  0  0  0  0  0  0  0  0  0  0  0
   26.2914  -20.2312  -15.0696 C   0  0  2  0  0  0  0  0  0  0  0  0
   25.5933  -19.4420  -16.0240 N   0  0  0  0  0  0  0  0  0  0  0  0
   25.7625  -19.9574  -13.7097 C   0  0  0  0  0  0  0  0  0  0  0  0
   25.7235  -18.7778  -13.3009 O   0  0  0  0  0  0  0  0  0  0  0  0
   19.9174  -18.7582  -15.0444 O   0  0  0  0  0  0  0  0  0  0  0  0
   20.7748  -19.3126  -14.1310 C   0  0  0  0  0  0  0  0  0  0  0  0
   21.4506  -20.4790  -14.4288 C   0  0  0  0  0  0  0  0  0  0  0  0
   22.3153  -21.0518  -13.5271 C   0  0  0  0  0  0  0  0  0  0  0  0
   22.4919  -20.4186  -12.2965 C   0  0  0  0  0  0  0  0  0  0  0  0
   23.4139  -21.0657  -11.3405 C   0  0  0  0  0  0  0  0  0  0  0  0
   24.8452  -20.6678  -11.5255 C   0  0  2  0  0  0  0  0  0  0  0  0
   25.3072  -21.0035  -12.8800 N   0  0  0  0  0  0  0  0  0  0  0  0
   25.6970  -21.3324  -10.5248 C   0  0  0  0  0  0  0  0  0  0  0  0
   26.0532  -22.5287  -10.6108 O   0  0  0  0  0  0  0  0  0  0  0  0
   21.8244  -19.2595  -11.9920 C   0  0  0  0  0  0  0  0  0  0  0  0
   20.9582  -18.6895  -12.9010 C   0  0  0  0  0  0  0  0  0  0  0  0
   26.1405  -20.5751   -9.3980 N   0  0  0  0  0  0  0  0  0  0  0  0
   26.8083  -21.2857   -8.3257 C   0  0  1  0  0  0  0  0  0  0  0  0
   28.1798  -20.6801   -8.1534 C   0  0  0  0  0  0  0  0  0  0  0  0
   28.3327  -19.9223   -6.8988 C   0  0  0  0  0  0  0  0  0  0  0  0
   27.8068  -18.6443   -6.7318 C   0  0  0  0  0  0  0  0  0  0  0  0
   27.9558  -17.9573   -5.5468 C   0  0  0  0  0  0  0  0  0  0  0  0
   28.6495  -18.5786   -4.5169 C   0  0  0  0  0  0  0  0  0  0  0  0
   29.1795  -19.8441   -4.6586 C   0  0  0  0  0  0  0  0  0  0  0  0
   29.0214  -20.5191   -5.8521 C   0  0  0  0  0  0  0  0  0  0  0  0
   25.9668  -21.1948   -7.1286 C   0  0  0  0  0  0  0  0  0  0  0  0
   26.3125  -21.8087   -6.0888 O   0  0  0  0  0  0  0  0  0  0  0  0
   24.7894  -20.4572   -7.0755 O   0  0  0  0  0  0  0  0  0  0  0  0
  2  1  1  0
  3  2  1  0
  3  4  1  1
  5  6  1  6
  5  3  1  0
  7  5  1  0
  8  7  2  0
 10 11  2  0
 10  9  1  0
 12 11  1  0
 13 12  2  0
 14 13  1  0
 15 14  1  6
 15 16  1  0
 16  7  1  0
 17 21  1  0
 17 15  1  0
 18 17  2  0
 19 13  1  0
 19 20  2  0
 20 10  1  0
 22 23  1  1
 22 21  1  0
 23 24  1  0
 24 29  1  0
 25 24  2  0
 25 26  1  0
 26 27  2  0
 27 28  1  0
 29 28  2  0
 30 22  1  0
 30 32  1  0
 31 30  2  0
M  END
$$$$
