TWY.pdb
     RDKit          3D

 34 36  0  0  1  0  0  0  0  0999 V2000
   28.1116  -21.0374  -17.0274 C   0  0  0  0  0  0  0  0  0  0  0  0
   27.7826  -21.6412  -15.6803 C   0  0  1  0  0  0  0  0  0  0  0  0
   28.8715  -22.3103  -15.1701 O   0  0  0  0  0  0  0  0  0  0  0  0
   27.3035  -20.5257  -14.7827 C   0  0  2  0  0  0  0  0  0  0  0  0
   28.3552  -19.5348  -14.7034 N   0  0  0  0  0  0  0  0  0  0  0  0
   26.8544  -20.9927  -13.4700 C   0  0  0  0  0  0  0  0  0  0  0  0
   26.0464  -21.9755  -13.4052 O   0  0  0  0  0  0  0  0  0  0  0  0
   27.2445  -20.4393  -12.2297 N   0  0  0  0  0  0  0  0  0  0  0  0
   26.5882  -20.8485  -10.9573 C   0  0  1  0  0  0  0  0  0  0  0  0
   27.3973  -20.3868   -9.8057 C   0  0  0  0  0  0  0  0  0  0  0  0
   26.8820  -20.6151   -8.4690 C   0  0  0  0  0  0  0  0  0  0  0  0
   25.7325  -21.2640   -8.0748 C   0  0  0  0  0  0  0  0  0  0  0  0
   25.6248  -21.2207   -6.7407 N   0  0  0  0  0  0  0  0  0  0  0  0
   26.7053  -20.5424   -6.2582 C   0  0  0  0  0  0  0  0  0  0  0  0
   27.0779  -20.2183   -4.9702 C   0  0  0  0  0  0  0  0  0  0  0  0
   28.2346  -19.5135   -4.7237 C   0  0  0  0  0  0  0  0  0  0  0  0
   29.0487  -19.1153   -5.7668 C   0  0  0  0  0  0  0  0  0  0  0  0
   28.6635  -19.4461   -7.0460 C   0  0  0  0  0  0  0  0  0  0  0  0
   27.5132  -20.1491   -7.3185 C   0  0  0  0  0  0  0  0  0  0  0  0
   25.2145  -20.3302  -10.9964 C   0  0  0  0  0  0  0  0  0  0  0  0
   24.9826  -19.1042  -11.3165 O   0  0  0  0  0  0  0  0  0  0  0  0
   23.5136  -17.2399  -16.4238 O   0  0  0  0  0  0  0  0  0  0  0  0
   23.2109  -18.1522  -15.4012 C   0  0  0  0  0  0  0  0  0  0  0  0
   23.6740  -19.4565  -15.4424 C   0  0  0  0  0  0  0  0  0  0  0  0
   23.3688  -20.3475  -14.4272 C   0  0  0  0  0  0  0  0  0  0  0  0
   22.5987  -19.9861  -13.3386 C   0  0  0  0  0  0  0  0  0  0  0  0
   22.2961  -20.9682  -12.2835 C   0  0  0  0  0  0  0  0  0  0  0  0
   22.7127  -20.5091  -10.8930 C   0  0  2  0  0  0  0  0  0  0  0  0
   24.0472  -21.0983  -10.7033 N   0  0  0  0  0  0  0  0  0  0  0  0
   21.8113  -21.0368   -9.8737 C   0  0  0  0  0  0  0  0  0  0  0  0
   22.1862  -21.9474   -9.0834 O   0  0  0  0  0  0  0  0  0  0  0  0
   22.1378  -18.6873  -13.2986 C   0  0  0  0  0  0  0  0  0  0  0  0
   22.4426  -17.7865  -14.3187 C   0  0  0  0  0  0  0  0  0  0  0  0
   20.5295  -20.5605   -9.7407 O   0  0  0  0  0  0  0  0  0  0  0  0
  2  3  1  0
  2  1  1  6
  4  6  1  0
  4  2  1  0
  4  5  1  1
  6  7  2  0
  8  9  1  0
  8  6  1  0
  9 10  1  1
 11 12  2  0
 11 10  1  0
 13 12  1  0
 14 19  2  0
 14 13  1  0
 15 14  1  0
 16 17  1  0
 16 15  2  0
 17 18  2  0
 18 19  1  0
 19 11  1  0
 20  9  1  0
 21 20  2  0
 22 23  1  0
 23 33  2  0
 23 24  1  0
 24 25  2  0
 25 26  1  0
 26 27  1  0
 28 27  1  6
 28 29  1  0
 29 20  1  0
 30 28  1  0
 30 34  1  0
 31 30  2  0
 32 26  2  0
 33 32  1  0
M  END
$$$$
