TWY.pdb
     RDKit          3D

 34 36  0  0  1  0  0  0  0  0999 V2000
   26.1424  -21.0896  -18.2627 C   0  0  0  0  0  0  0  0  0  0  0  0
   27.2196  -22.1183  -18.5257 C   0  0  1  0  0  0  0  0  0  0  0  0
   27.7035  -21.9965  -19.8081 O   0  0  0  0  0  0  0  0  0  0  0  0
   28.2884  -21.9418  -17.4740 C   0  0  2  0  0  0  0  0  0  0  0  0
   29.3196  -22.9278  -17.7169 N   0  0  0  0  0  0  0  0  0  0  0  0
   27.7663  -21.9819  -16.1070 C   0  0  0  0  0  0  0  0  0  0  0  0
   27.4326  -23.1038  -15.6040 O   0  0  0  0  0  0  0  0  0  0  0  0
   27.5921  -20.8592  -15.2669 N   0  0  0  0  0  0  0  0  0  0  0  0
   27.0376  -20.9982  -13.8919 C   0  0  1  0  0  0  0  0  0  0  0  0
   27.6669  -20.0013  -12.9953 C   0  0  0  0  0  0  0  0  0  0  0  0
   28.0314  -20.4174  -11.6542 C   0  0  0  0  0  0  0  0  0  0  0  0
   29.1929  -21.0090  -11.2084 C   0  0  0  0  0  0  0  0  0  0  0  0
   29.0998  -21.2530   -9.8950 N   0  0  0  0  0  0  0  0  0  0  0  0
   27.8751  -20.8210   -9.4777 C   0  0  0  0  0  0  0  0  0  0  0  0
   27.2780  -20.8352   -8.2344 C   0  0  0  0  0  0  0  0  0  0  0  0
   26.0088  -20.3336   -8.0525 C   0  0  0  0  0  0  0  0  0  0  0  0
   25.3052  -19.8036   -9.1171 C   0  0  0  0  0  0  0  0  0  0  0  0
   25.9143  -19.7965  -10.3512 C   0  0  0  0  0  0  0  0  0  0  0  0
   27.1807  -20.2914  -10.5589 C   0  0  0  0  0  0  0  0  0  0  0  0
   25.5769  -20.8943  -14.0052 C   0  0  0  0  0  0  0  0  0  0  0  0
   25.0354  -19.9392  -14.6790 O   0  0  0  0  0  0  0  0  0  0  0  0
   16.8841  -22.8838  -13.6881 O   0  0  0  0  0  0  0  0  0  0  0  0
   18.2875  -22.8948  -13.6834 C   0  0  0  0  0  0  0  0  0  0  0  0
   18.9993  -23.1900  -12.5329 C   0  0  0  0  0  0  0  0  0  0  0  0
   20.3841  -23.1980  -12.5407 C   0  0  0  0  0  0  0  0  0  0  0  0
   21.1145  -22.9163  -13.6790 C   0  0  0  0  0  0  0  0  0  0  0  0
   22.5868  -22.9330  -13.6403 C   0  0  0  0  0  0  0  0  0  0  0  0
   23.2037  -21.5471  -13.5118 C   0  0  2  0  0  0  0  0  0  0  0  0
   24.6489  -21.8033  -13.4126 N   0  0  0  0  0  0  0  0  0  0  0  0
   22.7543  -20.8833  -12.2921 C   0  0  0  0  0  0  0  0  0  0  0  0
   23.3439  -21.0764  -11.1924 O   0  0  0  0  0  0  0  0  0  0  0  0
   20.4049  -22.6223  -14.8240 C   0  0  0  0  0  0  0  0  0  0  0  0
   19.0104  -22.6131  -14.8208 C   0  0  0  0  0  0  0  0  0  0  0  0
   21.6787  -20.0285  -12.3013 O   0  0  0  0  0  0  0  0  0  0  0  0
  2  3  1  0
  2  1  1  1
  4  6  1  0
  4  2  1  0
  4  5  1  1
  6  7  2  0
  8  9  1  0
  8  6  1  0
  9 10  1  1
 11 12  2  0
 11 10  1  0
 13 12  1  0
 14 19  2  0
 14 13  1  0
 15 14  1  0
 16 17  1  0
 16 15  2  0
 17 18  2  0
 18 19  1  0
 19 11  1  0
 20  9  1  0
 21 20  2  0
 22 23  1  0
 23 33  2  0
 23 24  1  0
 24 25  2  0
 25 26  1  0
 26 27  1  0
 28 27  1  1
 28 29  1  0
 29 20  1  0
 30 28  1  0
 30 34  1  0
 31 30  2  0
 32 26  2  0
 33 32  1  0
M  END
$$$$
