TWY.pdb
     RDKit          3D

 34 36  0  0  1  0  0  0  0  0999 V2000
   26.3165  -21.3585  -16.9433 C   0  0  0  0  0  0  0  0  0  0  0  0
   27.5290  -22.2424  -16.7520 C   0  0  1  0  0  0  0  0  0  0  0  0
   28.2540  -22.3297  -17.9183 O   0  0  0  0  0  0  0  0  0  0  0  0
   28.3295  -21.6797  -15.6020 C   0  0  2  0  0  0  0  0  0  0  0  0
   29.5989  -22.3735  -15.5613 N   0  0  0  0  0  0  0  0  0  0  0  0
   27.6131  -21.7178  -14.3260 C   0  0  0  0  0  0  0  0  0  0  0  0
   26.4208  -22.1659  -14.2981 O   0  0  0  0  0  0  0  0  0  0  0  0
   28.1351  -21.2913  -13.0842 N   0  0  0  0  0  0  0  0  0  0  0  0
   27.3209  -21.3517  -11.8389 C   0  0  1  0  0  0  0  0  0  0  0  0
   28.0743  -20.7432  -10.7182 C   0  0  0  0  0  0  0  0  0  0  0  0
   27.3815  -20.5276   -9.4620 C   0  0  0  0  0  0  0  0  0  0  0  0
   26.0364  -20.6203   -9.1790 C   0  0  0  0  0  0  0  0  0  0  0  0
   25.8233  -20.3104   -7.8937 N   0  0  0  0  0  0  0  0  0  0  0  0
   27.0304  -20.0138   -7.3320 C   0  0  0  0  0  0  0  0  0  0  0  0
   27.3714  -19.6359   -6.0500 C   0  0  0  0  0  0  0  0  0  0  0  0
   28.6818  -19.3845   -5.7107 C   0  0  0  0  0  0  0  0  0  0  0  0
   29.6856  -19.5064   -6.6524 C   0  0  0  0  0  0  0  0  0  0  0  0
   29.3296  -19.8843   -7.9270 C   0  0  0  0  0  0  0  0  0  0  0  0
   28.0283  -20.1410   -8.2909 C   0  0  0  0  0  0  0  0  0  0  0  0
   26.0318  -20.7138  -12.1371 C   0  0  0  0  0  0  0  0  0  0  0  0
   25.9836  -19.5136  -12.6023 O   0  0  0  0  0  0  0  0  0  0  0  0
   19.0169  -17.4677  -15.6529 O   0  0  0  0  0  0  0  0  0  0  0  0
   20.1454  -18.1496  -15.1724 C   0  0  0  0  0  0  0  0  0  0  0  0
   21.2234  -17.4655  -14.6364 C   0  0  0  0  0  0  0  0  0  0  0  0
   22.3315  -18.1495  -14.1653 C   0  0  0  0  0  0  0  0  0  0  0  0
   22.4165  -19.5278  -14.2054 C   0  0  0  0  0  0  0  0  0  0  0  0
   23.6164  -20.2135  -13.6959 C   0  0  0  0  0  0  0  0  0  0  0  0
   23.5270  -20.5704  -12.2186 C   0  0  2  0  0  0  0  0  0  0  0  0
   24.7578  -21.3323  -11.9564 N   0  0  0  0  0  0  0  0  0  0  0  0
   22.3739  -21.4249  -11.9537 C   0  0  0  0  0  0  0  0  0  0  0  0
   21.2890  -20.9386  -11.5286 O   0  0  0  0  0  0  0  0  0  0  0  0
   21.3429  -20.2082  -14.7395 C   0  0  0  0  0  0  0  0  0  0  0  0
   20.2249  -19.5236  -15.2152 C   0  0  0  0  0  0  0  0  0  0  0  0
   22.4311  -22.7823  -12.1585 O   0  0  0  0  0  0  0  0  0  0  0  0
  2  3  1  0
  2  1  1  6
  4  6  1  0
  4  2  1  0
  4  5  1  1
  6  7  2  0
  8  9  1  0
  8  6  1  0
  9 10  1  1
 11 12  2  0
 11 10  1  0
 13 12  1  0
 14 19  2  0
 14 13  1  0
 15 14  1  0
 16 17  1  0
 16 15  2  0
 17 18  2  0
 18 19  1  0
 19 11  1  0
 20  9  1  0
 21 20  2  0
 22 23  1  0
 23 33  2  0
 23 24  1  0
 24 25  2  0
 25 26  1  0
 26 27  1  0
 28 27  1  6
 28 29  1  0
 29 20  1  0
 30 28  1  0
 30 34  1  0
 31 30  2  0
 32 26  2  0
 33 32  1  0
M  END
$$$$
