TWY.pdb
     RDKit          3D

 34 36  0  0  1  0  0  0  0  0999 V2000
   26.4127  -18.5237  -18.7506 C   0  0  0  0  0  0  0  0  0  0  0  0
   26.1662  -19.0869  -17.3686 C   0  0  1  0  0  0  0  0  0  0  0  0
   24.9408  -19.7103  -17.3108 O   0  0  0  0  0  0  0  0  0  0  0  0
   27.3133  -20.0116  -17.0392 C   0  0  2  0  0  0  0  0  0  0  0  0
   27.3752  -21.0284  -18.0672 N   0  0  0  0  0  0  0  0  0  0  0  0
   27.2383  -20.5664  -15.6866 C   0  0  0  0  0  0  0  0  0  0  0  0
   26.8920  -21.7829  -15.5344 O   0  0  0  0  0  0  0  0  0  0  0  0
   27.5225  -19.8583  -14.4973 N   0  0  0  0  0  0  0  0  0  0  0  0
   27.3528  -20.4898  -13.1596 C   0  0  1  0  0  0  0  0  0  0  0  0
   28.2981  -19.8811  -12.1952 C   0  0  0  0  0  0  0  0  0  0  0  0
   28.5758  -20.5941  -10.9628 C   0  0  0  0  0  0  0  0  0  0  0  0
   29.4372  -21.6451  -10.7365 C   0  0  0  0  0  0  0  0  0  0  0  0
   29.3634  -22.0209   -9.4533 N   0  0  0  0  0  0  0  0  0  0  0  0
   28.4519  -21.2155   -8.8360 C   0  0  0  0  0  0  0  0  0  0  0  0
   28.0038  -21.1775   -7.5321 C   0  0  0  0  0  0  0  0  0  0  0  0
   27.0600  -20.2576   -7.1340 C   0  0  0  0  0  0  0  0  0  0  0  0
   26.5410  -19.3500   -8.0374 C   0  0  0  0  0  0  0  0  0  0  0  0
   26.9980  -19.4003   -9.3347 C   0  0  0  0  0  0  0  0  0  0  0  0
   27.9397  -20.3094   -9.7570 C   0  0  0  0  0  0  0  0  0  0  0  0
   25.9342  -20.3619  -12.8009 C   0  0  0  0  0  0  0  0  0  0  0  0
   25.2829  -19.2828  -13.0669 O   0  0  0  0  0  0  0  0  0  0  0  0
   17.4545  -22.0456  -10.9014 O   0  0  0  0  0  0  0  0  0  0  0  0
   18.8047  -22.0664  -11.2836 C   0  0  0  0  0  0  0  0  0  0  0  0
   19.7423  -22.7922  -10.5684 C   0  0  0  0  0  0  0  0  0  0  0  0
   21.0718  -22.8052  -10.9556 C   0  0  0  0  0  0  0  0  0  0  0  0
   21.5234  -22.1057  -12.0580 C   0  0  0  0  0  0  0  0  0  0  0  0
   22.9476  -22.1455  -12.4311 C   0  0  0  0  0  0  0  0  0  0  0  0
   23.7874  -21.0910  -11.7234 C   0  0  2  0  0  0  0  0  0  0  0  0
   25.1643  -21.3765  -12.1557 N   0  0  0  0  0  0  0  0  0  0  0  0
   23.7044  -21.2395  -10.2739 C   0  0  0  0  0  0  0  0  0  0  0  0
   24.4756  -22.0256   -9.6561 O   0  0  0  0  0  0  0  0  0  0  0  0
   20.5892  -21.3831  -12.7694 C   0  0  0  0  0  0  0  0  0  0  0  0
   19.2492  -21.3671  -12.3833 C   0  0  0  0  0  0  0  0  0  0  0  0
   22.7875  -20.5301   -9.5365 O   0  0  0  0  0  0  0  0  0  0  0  0
  2  3  1  0
  2  1  1  6
  4  6  1  0
  4  2  1  0
  4  5  1  6
  6  7  2  0
  8  9  1  0
  8  6  1  0
  9 10  1  1
 11 12  2  0
 11 10  1  0
 13 12  1  0
 14 19  2  0
 14 13  1  0
 15 14  1  0
 16 17  1  0
 16 15  2  0
 17 18  2  0
 18 19  1  0
 19 11  1  0
 20  9  1  0
 21 20  2  0
 22 23  1  0
 23 33  2  0
 23 24  1  0
 24 25  2  0
 25 26  1  0
 26 27  1  0
 28 27  1  6
 28 29  1  0
 29 20  1  0
 30 28  1  0
 30 34  1  0
 31 30  2  0
 32 26  2  0
 33 32  1  0
M  END
$$$$
