TWY.pdb
     RDKit          3D

 34 36  0  0  1  0  0  0  0  0999 V2000
   28.9249  -19.3934  -16.1879 C   0  0  0  0  0  0  0  0  0  0  0  0
   27.9440  -19.7505  -15.0934 C   0  0  1  0  0  0  0  0  0  0  0  0
   26.6637  -19.8184  -15.5932 O   0  0  0  0  0  0  0  0  0  0  0  0
   28.4029  -21.0477  -14.4719 C   0  0  2  0  0  0  0  0  0  0  0  0
   28.3191  -22.0801  -15.4825 N   0  0  0  0  0  0  0  0  0  0  0  0
   27.6824  -21.3867  -13.2436 C   0  0  0  0  0  0  0  0  0  0  0  0
   26.6794  -22.1694  -13.3097 O   0  0  0  0  0  0  0  0  0  0  0  0
   28.0042  -20.9133  -11.9517 N   0  0  0  0  0  0  0  0  0  0  0  0
   27.1230  -21.1883  -10.7833 C   0  0  1  0  0  0  0  0  0  0  0  0
   27.8535  -20.9018   -9.5270 C   0  0  0  0  0  0  0  0  0  0  0  0
   27.0804  -20.6196   -8.3324 C   0  0  0  0  0  0  0  0  0  0  0  0
   25.7151  -20.6402   -8.1501 C   0  0  0  0  0  0  0  0  0  0  0  0
   25.4223  -20.2860   -6.8923 N   0  0  0  0  0  0  0  0  0  0  0  0
   26.5973  -20.0324   -6.2476 C   0  0  0  0  0  0  0  0  0  0  0  0
   26.8601  -19.6369   -4.9526 C   0  0  0  0  0  0  0  0  0  0  0  0
   28.1524  -19.4394   -4.5208 C   0  0  0  0  0  0  0  0  0  0  0  0
   29.2164  -19.6345   -5.3806 C   0  0  0  0  0  0  0  0  0  0  0  0
   28.9381  -20.0291   -6.6694 C   0  0  0  0  0  0  0  0  0  0  0  0
   27.6565  -20.2329   -7.1249 C   0  0  0  0  0  0  0  0  0  0  0  0
   25.8951  -20.4061  -10.9778 C   0  0  0  0  0  0  0  0  0  0  0  0
   25.9523  -19.1485  -11.2507 O   0  0  0  0  0  0  0  0  0  0  0  0
   22.5108  -24.9376  -15.4479 O   0  0  0  0  0  0  0  0  0  0  0  0
   22.7482  -23.7201  -14.7914 C   0  0  0  0  0  0  0  0  0  0  0  0
   24.0366  -23.2684  -14.5601 C   0  0  0  0  0  0  0  0  0  0  0  0
   24.2581  -22.0652  -13.9114 C   0  0  0  0  0  0  0  0  0  0  0  0
   23.2213  -21.2667  -13.4689 C   0  0  0  0  0  0  0  0  0  0  0  0
   23.5038  -19.9957  -12.7802 C   0  0  0  0  0  0  0  0  0  0  0  0
   23.4202  -20.0987  -11.2635 C   0  0  2  0  0  0  0  0  0  0  0  0
   24.5720  -20.9361  -10.8946 N   0  0  0  0  0  0  0  0  0  0  0  0
   22.1925  -20.7707  -10.8497 C   0  0  0  0  0  0  0  0  0  0  0  0
   22.2257  -21.9175  -10.3224 O   0  0  0  0  0  0  0  0  0  0  0  0
   21.9388  -21.7173  -13.6994 C   0  0  0  0  0  0  0  0  0  0  0  0
   21.7108  -22.9283  -14.3523 C   0  0  0  0  0  0  0  0  0  0  0  0
   20.9644  -20.1785  -11.0191 O   0  0  0  0  0  0  0  0  0  0  0  0
  2  3  1  0
  2  1  1  6
  4  6  1  0
  4  2  1  0
  4  5  1  6
  6  7  2  0
  8  9  1  0
  8  6  1  0
  9 10  1  1
 11 12  2  0
 11 10  1  0
 13 12  1  0
 14 19  2  0
 14 13  1  0
 15 14  1  0
 16 17  1  0
 16 15  2  0
 17 18  2  0
 18 19  1  0
 19 11  1  0
 20  9  1  0
 21 20  2  0
 22 23  1  0
 23 33  2  0
 23 24  1  0
 24 25  2  0
 25 26  1  0
 26 27  1  0
 28 27  1  6
 28 29  1  0
 29 20  1  0
 30 28  1  0
 30 34  1  0
 31 30  2  0
 32 26  2  0
 33 32  1  0
M  END
$$$$
