TWY.pdb
     RDKit          3D

 34 36  0  0  1  0  0  0  0  0999 V2000
   26.1552  -23.3590  -22.6457 C   0  0  0  0  0  0  0  0  0  0  0  0
   25.8052  -22.5336  -21.4275 C   0  0  1  0  0  0  0  0  0  0  0  0
   25.7392  -23.3284  -20.3061 O   0  0  0  0  0  0  0  0  0  0  0  0
   26.8318  -21.4328  -21.3093 C   0  0  2  0  0  0  0  0  0  0  0  0
   28.1340  -22.0504  -21.1781 N   0  0  0  0  0  0  0  0  0  0  0  0
   26.5373  -20.4806  -20.2372 C   0  0  0  0  0  0  0  0  0  0  0  0
   27.2601  -20.4858  -19.1881 O   0  0  0  0  0  0  0  0  0  0  0  0
   25.4949  -19.5268  -20.2566 N   0  0  0  0  0  0  0  0  0  0  0  0
   25.2423  -18.6305  -19.0947 C   0  0  1  0  0  0  0  0  0  0  0  0
   25.1319  -17.2283  -19.5589 C   0  0  0  0  0  0  0  0  0  0  0  0
   25.9556  -16.2242  -18.9125 C   0  0  0  0  0  0  0  0  0  0  0  0
   26.7666  -15.2640  -19.4766 C   0  0  0  0  0  0  0  0  0  0  0  0
   27.3719  -14.5606  -18.5112 N   0  0  0  0  0  0  0  0  0  0  0  0
   26.9578  -15.0598  -17.3112 C   0  0  0  0  0  0  0  0  0  0  0  0
   27.2728  -14.7017  -16.0170 C   0  0  0  0  0  0  0  0  0  0  0  0
   26.7194  -15.3639  -14.9443 C   0  0  0  0  0  0  0  0  0  0  0  0
   25.8333  -16.4052  -15.1445 C   0  0  0  0  0  0  0  0  0  0  0  0
   25.5290  -16.7507  -16.4414 C   0  0  0  0  0  0  0  0  0  0  0  0
   26.0683  -16.1050  -17.5296 C   0  0  0  0  0  0  0  0  0  0  0  0
   24.0551  -19.1489  -18.4024 C   0  0  0  0  0  0  0  0  0  0  0  0
   23.1301  -19.7650  -19.0537 O   0  0  0  0  0  0  0  0  0  0  0  0
   18.3406  -21.1421  -11.8004 O   0  0  0  0  0  0  0  0  0  0  0  0
   19.4561  -20.7719  -12.5672 C   0  0  0  0  0  0  0  0  0  0  0  0
   19.7483  -19.4410  -12.8137 C   0  0  0  0  0  0  0  0  0  0  0  0
   20.8521  -19.0881  -13.5717 C   0  0  0  0  0  0  0  0  0  0  0  0
   21.7048  -20.0311  -14.1122 C   0  0  0  0  0  0  0  0  0  0  0  0
   22.8654  -19.6100  -14.9154 C   0  0  0  0  0  0  0  0  0  0  0  0
   22.5912  -19.5966  -16.4129 C   0  0  2  0  0  0  0  0  0  0  0  0
   23.8177  -19.0342  -16.9992 N   0  0  0  0  0  0  0  0  0  0  0  0
   21.4675  -18.7221  -16.7331 C   0  0  0  0  0  0  0  0  0  0  0  0
   21.6191  -17.4709  -16.8090 O   0  0  0  0  0  0  0  0  0  0  0  0
   21.4130  -21.3560  -13.8666 C   0  0  0  0  0  0  0  0  0  0  0  0
   20.3025  -21.7162  -13.1037 C   0  0  0  0  0  0  0  0  0  0  0  0
   20.2120  -19.2307  -16.9627 O   0  0  0  0  0  0  0  0  0  0  0  0
  2  3  1  0
  2  1  1  6
  4  6  1  0
  4  2  1  0
  4  5  1  1
  6  7  2  0
  8  9  1  0
  8  6  1  0
  9 10  1  6
 11 12  2  0
 11 10  1  0
 13 12  1  0
 14 19  2  0
 14 13  1  0
 15 14  1  0
 16 17  1  0
 16 15  2  0
 17 18  2  0
 18 19  1  0
 19 11  1  0
 20  9  1  0
 21 20  2  0
 22 23  1  0
 23 33  2  0
 23 24  1  0
 24 25  2  0
 25 26  1  0
 26 27  1  0
 28 27  1  1
 28 29  1  0
 29 20  1  0
 30 28  1  0
 30 34  1  0
 31 30  2  0
 32 26  2  0
 33 32  1  0
M  END
$$$$
