TWY.pdb
     RDKit          3D

 34 36  0  0  1  0  0  0  0  0999 V2000
   28.3018  -24.2558  -18.3535 C   0  0  0  0  0  0  0  0  0  0  0  0
   27.7273  -23.2483  -17.3826 C   0  0  1  0  0  0  0  0  0  0  0  0
   27.9888  -21.9648  -17.8045 O   0  0  0  0  0  0  0  0  0  0  0  0
   26.2509  -23.5337  -17.2459 C   0  0  2  0  0  0  0  0  0  0  0  0
   25.6449  -23.3805  -18.5512 N   0  0  0  0  0  0  0  0  0  0  0  0
   25.5997  -22.7273  -16.2123 C   0  0  0  0  0  0  0  0  0  0  0  0
   25.9436  -22.8845  -14.9957 O   0  0  0  0  0  0  0  0  0  0  0  0
   24.5947  -21.7613  -16.4435 N   0  0  0  0  0  0  0  0  0  0  0  0
   24.1579  -20.8249  -15.3712 C   0  0  1  0  0  0  0  0  0  0  0  0
   24.4712  -19.4318  -15.7651 C   0  0  0  0  0  0  0  0  0  0  0  0
   25.8619  -19.0714  -15.9661 C   0  0  0  0  0  0  0  0  0  0  0  0
   26.4422  -18.3711  -17.0008 C   0  0  0  0  0  0  0  0  0  0  0  0
   27.7641  -18.2875  -16.8038 N   0  0  0  0  0  0  0  0  0  0  0  0
   28.0523  -18.9340  -15.6378 C   0  0  0  0  0  0  0  0  0  0  0  0
   29.2476  -19.1416  -14.9815 C   0  0  0  0  0  0  0  0  0  0  0  0
   29.2923  -19.8377  -13.7945 C   0  0  0  0  0  0  0  0  0  0  0  0
   28.1349  -20.3443  -13.2349 C   0  0  0  0  0  0  0  0  0  0  0  0
   26.9502  -20.1289  -13.9015 C   0  0  0  0  0  0  0  0  0  0  0  0
   26.8792  -19.4371  -15.0881 C   0  0  0  0  0  0  0  0  0  0  0  0
   22.7356  -21.0925  -15.1203 C   0  0  0  0  0  0  0  0  0  0  0  0
   22.0005  -21.6438  -16.0231 O   0  0  0  0  0  0  0  0  0  0  0  0
   14.9624  -22.2776  -10.8915 O   0  0  0  0  0  0  0  0  0  0  0  0
   16.2955  -22.0026  -11.2328 C   0  0  0  0  0  0  0  0  0  0  0  0
   17.1874  -23.0215  -11.5225 C   0  0  0  0  0  0  0  0  0  0  0  0
   18.5005  -22.7375  -11.8584 C   0  0  0  0  0  0  0  0  0  0  0  0
   18.9801  -21.4434  -11.9205 C   0  0  0  0  0  0  0  0  0  0  0  0
   20.3858  -21.1882  -12.2788 C   0  0  0  0  0  0  0  0  0  0  0  0
   20.6140  -21.0641  -13.7789 C   0  0  2  0  0  0  0  0  0  0  0  0
   22.0538  -20.7889  -13.9032 N   0  0  0  0  0  0  0  0  0  0  0  0
   19.8661  -19.9399  -14.3327 C   0  0  0  0  0  0  0  0  0  0  0  0
   20.3565  -18.7764  -14.3452 O   0  0  0  0  0  0  0  0  0  0  0  0
   18.0915  -20.4295  -11.6316 C   0  0  0  0  0  0  0  0  0  0  0  0
   16.7682  -20.7108  -11.2930 C   0  0  0  0  0  0  0  0  0  0  0  0
   18.6080  -20.1107  -14.8577 O   0  0  0  0  0  0  0  0  0  0  0  0
  2  3  1  0
  2  1  1  6
  4  6  1  0
  4  2  1  0
  4  5  1  6
  6  7  2  0
  8  9  1  0
  8  6  1  0
  9 10  1  6
 11 12  2  0
 11 10  1  0
 13 12  1  0
 14 19  2  0
 14 13  1  0
 15 14  1  0
 16 17  1  0
 16 15  2  0
 17 18  2  0
 18 19  1  0
 19 11  1  0
 20  9  1  0
 21 20  2  0
 22 23  1  0
 23 33  2  0
 23 24  1  0
 24 25  2  0
 25 26  1  0
 26 27  1  0
 28 27  1  1
 28 29  1  0
 29 20  1  0
 30 28  1  0
 30 34  1  0
 31 30  2  0
 32 26  2  0
 33 32  1  0
M  END
$$$$
