IPT.pdb
     RDKit          3D

 23 23  0  0  1  0  0  0  0  0999 V2000
    6.8420  -11.8664   27.7323 C   0  0  0  0  0  0  0  0  0  0  0  0
    6.0816  -12.8995   26.9280 C   0  0  0  0  0  0  0  0  0  0  0  0
    7.0525  -13.6682   26.0777 C   0  0  2  0  0  0  0  0  0  0  0  0
    7.7948  -12.7307   25.1516 C   0  0  0  0  0  0  0  0  0  0  0  0
    6.3861  -14.7840   25.3039 C   0  0  2  0  0  0  0  0  0  0  0  0
    5.5457  -15.6049   26.0982 N   0  0  0  0  0  0  0  0  0  0  0  0
    7.3517  -15.5283   24.4661 C   0  0  0  0  0  0  0  0  0  0  0  0
    8.0259  -16.4110   25.0695 O   0  0  0  0  0  0  0  0  0  0  0  0
    7.5512  -15.3049   23.0626 N   0  0  0  0  0  0  0  0  0  0  0  0
    6.6537  -14.4153   22.3412 C   0  0  0  0  0  0  0  0  0  0  0  0
    7.0583  -14.5347   20.8811 C   0  0  0  0  0  0  0  0  0  0  0  0
    8.5379  -14.7710   21.0416 C   0  0  0  0  0  0  0  0  0  0  0  0
    8.5161  -15.8151   22.1688 C   0  0  1  0  0  0  0  0  0  0  0  0
    9.8817  -16.0121   22.6962 C   0  0  0  0  0  0  0  0  0  0  0  0
   10.1721  -15.5835   23.8301 O   0  0  0  0  0  0  0  0  0  0  0  0
   11.3456  -16.9833   24.8394 C   0  0  0  0  0  0  0  0  0  0  0  0
   12.0243  -17.8615   23.7976 C   0  0  1  0  0  0  0  0  0  0  0  0
   11.1870  -18.9510   23.5647 O   0  0  0  0  0  0  0  0  0  0  0  0
   12.1852  -17.0256   22.5485 C   0  0  2  0  0  0  0  0  0  0  0  0
   10.9024  -16.6775   21.9653 N   0  0  0  0  0  0  0  0  0  0  0  0
   13.0670  -17.7011   21.5774 C   0  0  0  0  0  0  0  0  0  0  0  0
   12.6327  -18.4537   20.6729 O   0  0  0  0  0  0  0  0  0  0  0  0
   14.4401  -17.5094   21.6496 O   0  0  0  0  0  0  0  0  0  0  0  0
  2  1  1  0
  3  4  1  6
  3  2  1  0
  5  6  1  1
  5  3  1  0
  7  8  2  0
  7  5  1  0
  9  7  1  0
 10  9  1  0
 10 11  1  0
 12 13  1  0
 12 11  1  0
 13  9  1  0
 13 14  1  1
 15 14  2  0
 17 16  1  1
 18 17  1  0
 19 17  1  0
 19 20  1  6
 20 14  1  0
 21 23  1  0
 21 19  1  0
 22 21  2  0
M  END
$$$$
