IPT.pdb
     RDKit          3D

 23 23  0  0  1  0  0  0  0  0999 V2000
    6.7617  -11.5980   27.4825 C   0  0  0  0  0  0  0  0  0  0  0  0
    6.1346  -12.8410   26.8875 C   0  0  0  0  0  0  0  0  0  0  0  0
    7.1664  -13.5658   26.0710 C   0  0  2  0  0  0  0  0  0  0  0  0
    7.7637  -12.6372   25.0372 C   0  0  0  0  0  0  0  0  0  0  0  0
    6.6175  -14.8187   25.4255 C   0  0  2  0  0  0  0  0  0  0  0  0
    5.9293  -15.6694   26.3277 N   0  0  0  0  0  0  0  0  0  0  0  0
    7.6331  -15.5027   24.5954 C   0  0  0  0  0  0  0  0  0  0  0  0
    8.3941  -16.2988   25.2157 O   0  0  0  0  0  0  0  0  0  0  0  0
    7.7889  -15.3128   23.1815 N   0  0  0  0  0  0  0  0  0  0  0  0
    6.8134  -14.5182   22.4507 C   0  0  0  0  0  0  0  0  0  0  0  0
    7.1988  -14.6565   20.9870 C   0  0  0  0  0  0  0  0  0  0  0  0
    8.6948  -14.7754   21.1238 C   0  0  0  0  0  0  0  0  0  0  0  0
    8.7730  -15.7793   22.2846 C   0  0  1  0  0  0  0  0  0  0  0  0
   10.1591  -15.8552   22.7892 C   0  0  0  0  0  0  0  0  0  0  0  0
   10.6640  -14.8657   23.3548 O   0  0  0  0  0  0  0  0  0  0  0  0
   11.7500  -18.0008   25.3721 C   0  0  0  0  0  0  0  0  0  0  0  0
   12.5052  -18.2929   24.0830 C   0  0  1  0  0  0  0  0  0  0  0  0
   11.9406  -19.4368   23.5218 O   0  0  0  0  0  0  0  0  0  0  0  0
   12.3183  -17.0969   23.1778 C   0  0  2  0  0  0  0  0  0  0  0  0
   10.9638  -17.0193   22.6618 N   0  0  0  0  0  0  0  0  0  0  0  0
   13.3210  -17.0987   22.0954 C   0  0  0  0  0  0  0  0  0  0  0  0
   13.0301  -17.3367   20.8988 O   0  0  0  0  0  0  0  0  0  0  0  0
   14.6500  -16.8279   22.3918 O   0  0  0  0  0  0  0  0  0  0  0  0
  2  1  1  0
  3  4  1  6
  3  2  1  0
  5  6  1  1
  5  3  1  0
  7  8  2  0
  7  5  1  0
  9  7  1  0
 10  9  1  0
 10 11  1  0
 12 13  1  0
 12 11  1  0
 13  9  1  0
 13 14  1  1
 15 14  2  0
 17 16  1  1
 18 17  1  0
 19 17  1  0
 19 20  1  6
 20 14  1  0
 21 23  1  0
 21 19  1  0
 22 21  2  0
M  END
$$$$
