IPT.pdb
     RDKit          3D

 23 23  0  0  1  0  0  0  0  0999 V2000
    6.4811  -17.5621   20.6187 C   0  0  0  0  0  0  0  0  0  0  0  0
    6.6248  -16.0710   20.8385 C   0  0  0  0  0  0  0  0  0  0  0  0
    7.2625  -15.8338   22.1779 C   0  0  2  0  0  0  0  0  0  0  0  0
    6.3907  -16.3934   23.2800 C   0  0  0  0  0  0  0  0  0  0  0  0
    7.5754  -14.3738   22.4189 C   0  0  2  0  0  0  0  0  0  0  0  0
    8.1734  -13.7284   21.3067 N   0  0  0  0  0  0  0  0  0  0  0  0
    8.2852  -14.1653   23.7000 C   0  0  0  0  0  0  0  0  0  0  0  0
    9.4499  -14.6528   23.7605 O   0  0  0  0  0  0  0  0  0  0  0  0
    7.7377  -13.4674   24.8281 N   0  0  0  0  0  0  0  0  0  0  0  0
    6.5803  -12.6043   24.6474 C   0  0  0  0  0  0  0  0  0  0  0  0
    6.3740  -11.9232   25.9903 C   0  0  0  0  0  0  0  0  0  0  0  0
    6.8405  -13.0211   26.9112 C   0  0  0  0  0  0  0  0  0  0  0  0
    8.1263  -13.4446   26.1841 C   0  0  1  0  0  0  0  0  0  0  0  0
    8.6341  -14.7073   26.7581 C   0  0  0  0  0  0  0  0  0  0  0  0
    7.9978  -15.7645   26.5809 O   0  0  0  0  0  0  0  0  0  0  0  0
   11.9840  -17.8161   28.0013 C   0  0  0  0  0  0  0  0  0  0  0  0
   11.6537  -16.4264   27.4748 C   0  0  1  0  0  0  0  0  0  0  0  0
   11.5610  -16.5198   26.0874 O   0  0  0  0  0  0  0  0  0  0  0  0
   10.3280  -16.0255   28.0803 C   0  0  2  0  0  0  0  0  0  0  0  0
    9.8332  -14.7827   27.5166 N   0  0  0  0  0  0  0  0  0  0  0  0
   10.4223  -15.9643   29.5514 C   0  0  0  0  0  0  0  0  0  0  0  0
   10.6795  -16.9675   30.2590 O   0  0  0  0  0  0  0  0  0  0  0  0
   10.2211  -14.7541   30.2014 O   0  0  0  0  0  0  0  0  0  0  0  0
  2  1  1  0
  3  4  1  1
  3  2  1  0
  5  6  1  6
  5  3  1  0
  7  8  2  0
  7  5  1  0
  9  7  1  0
 10  9  1  0
 10 11  1  0
 12 13  1  0
 12 11  1  0
 13  9  1  0
 13 14  1  1
 15 14  2  0
 17 16  1  1
 18 17  1  0
 19 17  1  0
 19 20  1  6
 20 14  1  0
 21 23  1  0
 21 19  1  0
 22 21  2  0
M  END
$$$$
