IPT.pdb
     RDKit          3D

 23 23  0  0  1  0  0  0  0  0999 V2000
    6.8862  -11.7022   27.6042 C   0  0  0  0  0  0  0  0  0  0  0  0
    6.1355  -12.7561   26.8180 C   0  0  0  0  0  0  0  0  0  0  0  0
    7.1229  -13.5905   26.0528 C   0  0  2  0  0  0  0  0  0  0  0  0
    7.9319  -12.7192   25.1178 C   0  0  0  0  0  0  0  0  0  0  0  0
    6.4623  -14.7265   25.3039 C   0  0  2  0  0  0  0  0  0  0  0  0
    5.6092  -15.5210   26.1116 N   0  0  0  0  0  0  0  0  0  0  0  0
    7.4356  -15.4984   24.5007 C   0  0  0  0  0  0  0  0  0  0  0  0
    8.0629  -16.3993   25.1274 O   0  0  0  0  0  0  0  0  0  0  0  0
    7.6911  -15.2816   23.1053 N   0  0  0  0  0  0  0  0  0  0  0  0
    6.8311  -14.3854   22.3474 C   0  0  0  0  0  0  0  0  0  0  0  0
    7.2901  -14.5137   20.9042 C   0  0  0  0  0  0  0  0  0  0  0  0
    8.7600  -14.7645   21.1220 C   0  0  0  0  0  0  0  0  0  0  0  0
    8.6843  -15.8046   22.2507 C   0  0  1  0  0  0  0  0  0  0  0  0
   10.0266  -16.0137   22.8306 C   0  0  0  0  0  0  0  0  0  0  0  0
   10.5657  -15.0978   23.4821 O   0  0  0  0  0  0  0  0  0  0  0  0
   11.4720  -18.6637   25.1948 C   0  0  0  0  0  0  0  0  0  0  0  0
   12.2562  -18.7397   23.8922 C   0  0  1  0  0  0  0  0  0  0  0  0
   11.7005  -19.7679   23.1331 O   0  0  0  0  0  0  0  0  0  0  0  0
   12.0953  -17.4065   23.1983 C   0  0  2  0  0  0  0  0  0  0  0  0
   10.7504  -17.2273   22.6826 N   0  0  0  0  0  0  0  0  0  0  0  0
   13.1159  -17.2383   22.1461 C   0  0  0  0  0  0  0  0  0  0  0  0
   12.8907  -17.4770   20.9356 O   0  0  0  0  0  0  0  0  0  0  0  0
   14.3871  -16.7979   22.4886 O   0  0  0  0  0  0  0  0  0  0  0  0
  2  1  1  0
  3  4  1  6
  3  2  1  0
  5  6  1  1
  5  3  1  0
  7  8  2  0
  7  5  1  0
  9  7  1  0
 10  9  1  0
 10 11  1  0
 12 13  1  0
 12 11  1  0
 13  9  1  0
 13 14  1  1
 15 14  2  0
 17 16  1  1
 18 17  1  0
 19 17  1  0
 19 20  1  6
 20 14  1  0
 21 23  1  0
 21 19  1  0
 22 21  2  0
M  END
$$$$
