IPT.pdb
     RDKit          3D

 23 23  0  0  1  0  0  0  0  0999 V2000
    6.9918  -11.7340   27.6089 C   0  0  0  0  0  0  0  0  0  0  0  0
    6.2672  -12.8495   26.8858 C   0  0  0  0  0  0  0  0  0  0  0  0
    7.2612  -13.6350   26.0786 C   0  0  2  0  0  0  0  0  0  0  0  0
    7.9991  -12.7229   25.1241 C   0  0  0  0  0  0  0  0  0  0  0  0
    6.6232  -14.7923   25.3428 C   0  0  2  0  0  0  0  0  0  0  0  0
    5.8230  -15.6212   26.1698 N   0  0  0  0  0  0  0  0  0  0  0  0
    7.6022  -15.5241   24.5095 C   0  0  0  0  0  0  0  0  0  0  0  0
    8.3003  -16.3826   25.1205 O   0  0  0  0  0  0  0  0  0  0  0  0
    7.7894  -15.3139   23.1023 N   0  0  0  0  0  0  0  0  0  0  0  0
    6.8367  -14.4990   22.3638 C   0  0  0  0  0  0  0  0  0  0  0  0
    7.2513  -14.6183   20.9065 C   0  0  0  0  0  0  0  0  0  0  0  0
    8.7430  -14.7534   21.0726 C   0  0  0  0  0  0  0  0  0  0  0  0
    8.7878  -15.7757   22.2190 C   0  0  1  0  0  0  0  0  0  0  0  0
   10.1623  -15.8723   22.7510 C   0  0  0  0  0  0  0  0  0  0  0  0
   10.6389  -14.9226   23.4027 O   0  0  0  0  0  0  0  0  0  0  0  0
   11.5527  -19.2319   24.2148 C   0  0  0  0  0  0  0  0  0  0  0  0
   12.2127  -17.8884   24.4920 C   0  0  1  0  0  0  0  0  0  0  0  0
   13.4856  -18.1480   24.9966 O   0  0  0  0  0  0  0  0  0  0  0  0
   12.2925  -17.1523   23.1742 C   0  0  2  0  0  0  0  0  0  0  0  0
   10.9867  -17.0130   22.5559 N   0  0  0  0  0  0  0  0  0  0  0  0
   13.2634  -17.7999   22.2715 C   0  0  0  0  0  0  0  0  0  0  0  0
   12.9239  -18.3925   21.2195 O   0  0  0  0  0  0  0  0  0  0  0  0
   14.6163  -17.7640   22.5807 O   0  0  0  0  0  0  0  0  0  0  0  0
  2  1  1  0
  3  4  1  6
  3  2  1  0
  5  6  1  1
  5  3  1  0
  7  8  2  0
  7  5  1  0
  9  7  1  0
 10  9  1  0
 10 11  1  0
 12 13  1  0
 12 11  1  0
 13  9  1  0
 13 14  1  1
 15 14  2  0
 17 16  1  6
 18 17  1  0
 19 17  1  0
 19 20  1  6
 20 14  1  0
 21 23  1  0
 21 19  1  0
 22 21  2  0
M  END
$$$$
