IPT.pdb
     RDKit          3D

 23 23  0  0  1  0  0  0  0  0999 V2000
    6.4770  -11.6768   27.4262 C   0  0  0  0  0  0  0  0  0  0  0  0
    5.8600  -12.9011   26.7835 C   0  0  0  0  0  0  0  0  0  0  0  0
    6.9164  -13.6258   25.9990 C   0  0  2  0  0  0  0  0  0  0  0  0
    7.5539  -12.6937   24.9927 C   0  0  0  0  0  0  0  0  0  0  0  0
    6.3845  -14.8719   25.3267 C   0  0  2  0  0  0  0  0  0  0  0  0
    5.6748  -15.7326   26.2024 N   0  0  0  0  0  0  0  0  0  0  0  0
    7.4209  -15.5465   24.5148 C   0  0  0  0  0  0  0  0  0  0  0  0
    8.1792  -16.3344   25.1488 O   0  0  0  0  0  0  0  0  0  0  0  0
    7.5989  -15.3564   23.1035 N   0  0  0  0  0  0  0  0  0  0  0  0
    6.6565  -14.5300   22.3646 C   0  0  0  0  0  0  0  0  0  0  0  0
    7.0545  -14.6747   20.9049 C   0  0  0  0  0  0  0  0  0  0  0  0
    8.5445  -14.8393   21.0585 C   0  0  0  0  0  0  0  0  0  0  0  0
    8.5789  -15.8492   22.2162 C   0  0  1  0  0  0  0  0  0  0  0  0
    9.9561  -15.9687   22.7365 C   0  0  0  0  0  0  0  0  0  0  0  0
   10.5346  -14.9602   23.1861 O   0  0  0  0  0  0  0  0  0  0  0  0
   11.4297  -18.2964   25.3990 C   0  0  0  0  0  0  0  0  0  0  0  0
   12.2117  -18.5336   24.1146 C   0  0  1  0  0  0  0  0  0  0  0  0
   11.6692  -19.6613   23.5011 O   0  0  0  0  0  0  0  0  0  0  0  0
   12.0298  -17.3068   23.2506 C   0  0  2  0  0  0  0  0  0  0  0  0
   10.6710  -17.1965   22.7522 N   0  0  0  0  0  0  0  0  0  0  0  0
   13.0210  -17.2854   22.1579 C   0  0  0  0  0  0  0  0  0  0  0  0
   12.7142  -17.4791   20.9572 O   0  0  0  0  0  0  0  0  0  0  0  0
   14.3565  -17.0420   22.4486 O   0  0  0  0  0  0  0  0  0  0  0  0
  2  1  1  0
  3  4  1  6
  3  2  1  0
  5  6  1  1
  5  3  1  0
  7  8  2  0
  7  5  1  0
  9  7  1  0
 10  9  1  0
 10 11  1  0
 12 13  1  0
 12 11  1  0
 13  9  1  0
 13 14  1  1
 15 14  2  0
 17 16  1  1
 18 17  1  0
 19 17  1  0
 19 20  1  6
 20 14  1  0
 21 23  1  0
 21 19  1  0
 22 21  2  0
M  END
$$$$
