IPT.pdb
     RDKit          3D

 23 23  0  0  1  0  0  0  0  0999 V2000
    6.8209  -11.5283   27.4057 C   0  0  0  0  0  0  0  0  0  0  0  0
    6.1312  -12.7147   26.7659 C   0  0  0  0  0  0  0  0  0  0  0  0
    7.1486  -13.5232   26.0122 C   0  0  2  0  0  0  0  0  0  0  0  0
    7.8445  -12.6614   24.9823 C   0  0  0  0  0  0  0  0  0  0  0  0
    6.5497  -14.7573   25.3750 C   0  0  2  0  0  0  0  0  0  0  0  0
    5.8091  -15.5620   26.2779 N   0  0  0  0  0  0  0  0  0  0  0  0
    7.5431  -15.5000   24.5689 C   0  0  0  0  0  0  0  0  0  0  0  0
    8.2214  -16.3592   25.2008 O   0  0  0  0  0  0  0  0  0  0  0  0
    7.7640  -15.2994   23.1652 N   0  0  0  0  0  0  0  0  0  0  0  0
    6.8690  -14.4333   22.4127 C   0  0  0  0  0  0  0  0  0  0  0  0
    7.3000  -14.5741   20.9621 C   0  0  0  0  0  0  0  0  0  0  0  0
    8.7792  -14.7902   21.1518 C   0  0  0  0  0  0  0  0  0  0  0  0
    8.7499  -15.8142   22.2972 C   0  0  1  0  0  0  0  0  0  0  0  0
   10.1084  -15.9859   22.8511 C   0  0  0  0  0  0  0  0  0  0  0  0
   10.6175  -15.0718   23.5287 O   0  0  0  0  0  0  0  0  0  0  0  0
   11.5990  -18.9100   24.9105 C   0  0  0  0  0  0  0  0  0  0  0  0
   12.4723  -18.7184   23.6785 C   0  0  1  0  0  0  0  0  0  0  0  0
   12.0742  -19.6654   22.7367 O   0  0  0  0  0  0  0  0  0  0  0  0
   12.2259  -17.3153   23.1730 C   0  0  2  0  0  0  0  0  0  0  0  0
   10.8812  -17.1609   22.6487 N   0  0  0  0  0  0  0  0  0  0  0  0
   13.2506  -16.9282   22.1846 C   0  0  0  0  0  0  0  0  0  0  0  0
   13.0143  -16.8483   20.9554 O   0  0  0  0  0  0  0  0  0  0  0  0
   14.5388  -16.6355   22.6116 O   0  0  0  0  0  0  0  0  0  0  0  0
  2  1  1  0
  3  4  1  6
  3  2  1  0
  5  6  1  1
  5  3  1  0
  7  8  2  0
  7  5  1  0
  9  7  1  0
 10  9  1  0
 10 11  1  0
 12 13  1  0
 12 11  1  0
 13  9  1  0
 13 14  1  1
 15 14  2  0
 17 16  1  1
 18 17  1  0
 19 17  1  0
 19 20  1  6
 20 14  1  0
 21 23  1  0
 21 19  1  0
 22 21  2  0
M  END
$$$$
