IPT.pdb
     RDKit          3D

 23 23  0  0  1  0  0  0  0  0999 V2000
    6.7708  -11.8487   27.7079 C   0  0  0  0  0  0  0  0  0  0  0  0
    6.0379  -12.8888   26.8872 C   0  0  0  0  0  0  0  0  0  0  0  0
    7.0355  -13.6552   26.0662 C   0  0  2  0  0  0  0  0  0  0  0  0
    7.7602  -12.7248   25.1192 C   0  0  0  0  0  0  0  0  0  0  0  0
    6.4049  -14.8097   25.3196 C   0  0  2  0  0  0  0  0  0  0  0  0
    5.5923  -15.6387   26.1342 N   0  0  0  0  0  0  0  0  0  0  0  0
    7.3934  -15.5416   24.4978 C   0  0  0  0  0  0  0  0  0  0  0  0
    8.1002  -16.3839   25.1214 O   0  0  0  0  0  0  0  0  0  0  0  0
    7.5805  -15.3485   23.0881 N   0  0  0  0  0  0  0  0  0  0  0  0
    6.6415  -14.5222   22.3445 C   0  0  0  0  0  0  0  0  0  0  0  0
    7.0494  -14.6635   20.8872 C   0  0  0  0  0  0  0  0  0  0  0  0
    8.5386  -14.8261   21.0504 C   0  0  0  0  0  0  0  0  0  0  0  0
    8.5670  -15.8381   22.2064 C   0  0  1  0  0  0  0  0  0  0  0  0
    9.9409  -15.9564   22.7355 C   0  0  0  0  0  0  0  0  0  0  0  0
   10.2103  -15.4911   23.8601 O   0  0  0  0  0  0  0  0  0  0  0  0
   11.4913  -16.6448   24.8789 C   0  0  0  0  0  0  0  0  0  0  0  0
   12.2353  -17.5443   23.9018 C   0  0  1  0  0  0  0  0  0  0  0  0
   11.4955  -18.7185   23.7735 O   0  0  0  0  0  0  0  0  0  0  0  0
   12.3101  -16.8049   22.5857 C   0  0  2  0  0  0  0  0  0  0  0  0
   10.9930  -16.5851   22.0165 N   0  0  0  0  0  0  0  0  0  0  0  0
   13.2076  -17.5019   21.6446 C   0  0  0  0  0  0  0  0  0  0  0  0
   12.7865  -18.2523   20.7321 O   0  0  0  0  0  0  0  0  0  0  0  0
   14.5812  -17.3342   21.7560 O   0  0  0  0  0  0  0  0  0  0  0  0
  2  1  1  0
  3  4  1  6
  3  2  1  0
  5  6  1  1
  5  3  1  0
  7  8  2  0
  7  5  1  0
  9  7  1  0
 10  9  1  0
 10 11  1  0
 12 13  1  0
 12 11  1  0
 13  9  1  0
 13 14  1  1
 15 14  2  0
 17 16  1  1
 18 17  1  0
 19 17  1  0
 19 20  1  6
 20 14  1  0
 21 23  1  0
 21 19  1  0
 22 21  2  0
M  END
$$$$
