IPT.pdb
     RDKit          3D

 23 23  0  0  1  0  0  0  0  0999 V2000
    6.9819  -11.9600   27.5492 C   0  0  0  0  0  0  0  0  0  0  0  0
    6.2356  -13.0838   26.8617 C   0  0  0  0  0  0  0  0  0  0  0  0
    7.1910  -13.8379   25.9813 C   0  0  2  0  0  0  0  0  0  0  0  0
    7.8273  -12.9032   24.9767 C   0  0  0  0  0  0  0  0  0  0  0  0
    6.5365  -15.0146   25.2922 C   0  0  2  0  0  0  0  0  0  0  0  0
    5.8239  -15.8666   26.1740 N   0  0  0  0  0  0  0  0  0  0  0  0
    7.4741  -15.7172   24.3891 C   0  0  0  0  0  0  0  0  0  0  0  0
    8.1982  -16.5969   24.9366 O   0  0  0  0  0  0  0  0  0  0  0  0
    7.5960  -15.4581   22.9829 N   0  0  0  0  0  0  0  0  0  0  0  0
    6.6336  -14.5865   22.3261 C   0  0  0  0  0  0  0  0  0  0  0  0
    6.9693  -14.6614   20.8457 C   0  0  0  0  0  0  0  0  0  0  0  0
    8.4624  -14.8480   20.9285 C   0  0  0  0  0  0  0  0  0  0  0  0
    8.5326  -15.9151   22.0320 C   0  0  1  0  0  0  0  0  0  0  0  0
    9.9286  -16.0740   22.4876 C   0  0  0  0  0  0  0  0  0  0  0  0
   10.4754  -15.1561   23.1297 O   0  0  0  0  0  0  0  0  0  0  0  0
   11.4775  -18.4550   24.8149 C   0  0  0  0  0  0  0  0  0  0  0  0
   12.2321  -18.6618   23.5091 C   0  0  1  0  0  0  0  0  0  0  0  0
   11.6545  -19.7544   22.8650 O   0  0  0  0  0  0  0  0  0  0  0  0
   12.0624  -17.4006   22.6933 C   0  0  2  0  0  0  0  0  0  0  0  0
   10.6968  -17.2407   22.2278 N   0  0  0  0  0  0  0  0  0  0  0  0
   13.0316  -17.3628   21.5815 C   0  0  0  0  0  0  0  0  0  0  0  0
   14.2606  -17.1834   21.7561 O   0  0  0  0  0  0  0  0  0  0  0  0
   12.5856  -17.5307   20.2775 O   0  0  0  0  0  0  0  0  0  0  0  0
  2  1  1  0
  3  4  1  6
  3  2  1  0
  5  6  1  1
  5  3  1  0
  7  8  2  0
  7  5  1  0
  9  7  1  0
 10  9  1  0
 10 11  1  0
 12 13  1  0
 12 11  1  0
 13  9  1  0
 13 14  1  1
 15 14  2  0
 17 16  1  1
 18 17  1  0
 19 17  1  0
 19 20  1  6
 20 14  1  0
 21 23  1  0
 21 19  1  0
 22 21  2  0
M  END
$$$$
