IPT.pdb
     RDKit          3D

 23 23  0  0  1  0  0  0  0  0999 V2000
    8.3395  -12.2476   27.4196 C   0  0  0  0  0  0  0  0  0  0  0  0
    7.7728  -13.6120   27.0884 C   0  0  0  0  0  0  0  0  0  0  0  0
    6.8166  -13.4777   25.9377 C   0  0  2  0  0  0  0  0  0  0  0  0
    5.6854  -12.5423   26.3026 C   0  0  0  0  0  0  0  0  0  0  0  0
    6.2879  -14.8141   25.4662 C   0  0  2  0  0  0  0  0  0  0  0  0
    5.7262  -15.6021   26.5028 N   0  0  0  0  0  0  0  0  0  0  0  0
    7.2683  -15.5282   24.6193 C   0  0  0  0  0  0  0  0  0  0  0  0
    7.8847  -16.4760   25.1844 O   0  0  0  0  0  0  0  0  0  0  0  0
    7.5413  -15.2092   23.2470 N   0  0  0  0  0  0  0  0  0  0  0  0
    6.6511  -14.3119   22.5263 C   0  0  0  0  0  0  0  0  0  0  0  0
    7.1468  -14.3231   21.0896 C   0  0  0  0  0  0  0  0  0  0  0  0
    8.6231  -14.5109   21.3272 C   0  0  0  0  0  0  0  0  0  0  0  0
    8.5789  -15.6240   22.3857 C   0  0  1  0  0  0  0  0  0  0  0  0
    9.9178  -15.8001   22.9841 C   0  0  0  0  0  0  0  0  0  0  0  0
   10.3631  -14.9349   23.7632 O   0  0  0  0  0  0  0  0  0  0  0  0
   11.3720  -18.6311   25.0648 C   0  0  0  0  0  0  0  0  0  0  0  0
   12.2605  -18.4910   23.8367 C   0  0  1  0  0  0  0  0  0  0  0  0
   11.8426  -19.4458   22.9115 O   0  0  0  0  0  0  0  0  0  0  0  0
   12.0591  -17.0924   23.2998 C   0  0  2  0  0  0  0  0  0  0  0  0
   10.7416  -16.9257   22.7137 N   0  0  0  0  0  0  0  0  0  0  0  0
   13.1327  -16.7366   22.3523 C   0  0  0  0  0  0  0  0  0  0  0  0
   13.0093  -16.8523   21.1095 O   0  0  0  0  0  0  0  0  0  0  0  0
   14.3401  -16.2507   22.8356 O   0  0  0  0  0  0  0  0  0  0  0  0
  2  1  1  0
  3  4  1  1
  3  2  1  0
  5  6  1  1
  5  3  1  0
  7  8  2  0
  7  5  1  0
  9  7  1  0
 10  9  1  0
 10 11  1  0
 12 13  1  0
 12 11  1  0
 13  9  1  0
 13 14  1  1
 15 14  2  0
 17 16  1  1
 18 17  1  0
 19 17  1  0
 19 20  1  6
 20 14  1  0
 21 23  1  0
 21 19  1  0
 22 21  2  0
M  END
$$$$
