QIW.pdb
     RDKit          3D

 32 33  0  0  1  0  0  0  0  0999 V2000
   12.3099  -21.4917   20.6520 N   0  0  0  0  0  0  0  0  0  0  0  0
   12.2365  -21.3531   19.2457 C   0  0  0  0  0  0  0  0  0  0  0  0
   12.6005  -22.3156   18.5485 O   0  0  0  0  0  0  0  0  0  0  0  0
   11.7493  -20.1203   18.5927 C   0  0  0  0  0  0  0  0  0  0  0  0
   11.3534  -19.0265   19.5072 C   0  0  0  0  0  0  0  0  0  0  0  0
   10.9075  -17.7504   18.8834 C   0  0  2  0  0  0  0  0  0  0  0  0
   11.8749  -17.2650   17.8988 N   0  0  0  0  0  0  0  0  0  0  0  0
   10.6438  -16.7165   19.9011 C   0  0  0  0  0  0  0  0  0  0  0  0
   11.5796  -15.9489   20.2328 O   0  0  0  0  0  0  0  0  0  0  0  0
    6.2556  -13.6116   20.0902 C   0  0  0  0  0  0  0  0  0  0  0  0
    7.6265  -14.1766   20.2580 C   0  0  0  0  0  0  0  0  0  0  0  0
    7.8476  -14.9369   21.5265 C   0  0  2  0  0  0  0  0  0  0  0  0
    7.7826  -13.9711   22.6972 C   0  0  0  0  0  0  0  0  0  0  0  0
    9.2012  -15.6293   21.5913 C   0  0  2  0  0  0  0  0  0  0  0  0
    9.3577  -16.5685   20.5144 N   0  0  0  0  0  0  0  0  0  0  0  0
    9.2035  -16.3819   22.8705 C   0  0  0  0  0  0  0  0  0  0  0  0
    8.7881  -17.5731   22.9461 O   0  0  0  0  0  0  0  0  0  0  0  0
    9.6892  -15.7321   24.0313 N   0  0  0  0  0  0  0  0  0  0  0  0
    9.8333  -16.4526   25.3054 C   0  0  1  0  0  0  0  0  0  0  0  0
    9.6856  -15.3909   26.3570 C   0  0  0  0  0  0  0  0  0  0  0  0
    8.3633  -14.7643   26.3321 C   0  0  0  0  0  0  0  0  0  0  0  0
    7.1316  -15.3965   26.0748 C   0  0  0  0  0  0  0  0  0  0  0  0
    6.1402  -14.5103   26.0990 N   0  0  0  0  0  0  0  0  0  0  0  0
    6.6769  -13.3213   26.3637 C   0  0  0  0  0  0  0  0  0  0  0  0
    6.0869  -12.0919   26.5141 C   0  0  0  0  0  0  0  0  0  0  0  0
    6.8205  -10.9847   26.8098 C   0  0  0  0  0  0  0  0  0  0  0  0
    8.2007  -11.0763   26.9679 C   0  0  0  0  0  0  0  0  0  0  0  0
    8.7934  -12.3075   26.8167 C   0  0  0  0  0  0  0  0  0  0  0  0
    8.0608  -13.4413   26.5153 C   0  0  0  0  0  0  0  0  0  0  0  0
    8.8416  -17.5174   25.3789 C   0  0  0  0  0  0  0  0  0  0  0  0
    9.0977  -18.6719   26.0873 O   0  0  0  0  0  0  0  0  0  0  0  0
    7.7425  -17.4004   24.7934 O   0  0  0  0  0  0  0  0  0  0  0  0
  1  2  1  0
  2  3  2  0
  2  4  1  0
  4  5  1  0
  6  5  1  0
  6  7  1  6
  8  9  2  0
  8  6  1  0
 10 11  1  0
 11 12  1  0
 12 14  1  0
 12 13  1  1
 14 15  1  6
 15  8  1  0
 16 18  1  0
 16 14  1  0
 17 16  2  0
 19 30  1  0
 19 18  1  0
 20 21  1  0
 19 20  1  1
 21 22  2  0
 21 29  1  0
 22 23  1  0
 23 24  1  0
 24 25  2  0
 25 26  1  0
 27 26  2  0
 28 27  1  0
 29 28  2  0
 29 24  1  0
 30 31  1  0
 32 30  2  0
M  END
$$$$
