QIW.pdb
     RDKit          3D

 32 33  0  0  1  0  0  0  0  0999 V2000
   10.4389  -19.8678   16.0723 N   0  0  0  0  0  0  0  0  0  0  0  0
    9.0481  -20.0522   16.2572 C   0  0  0  0  0  0  0  0  0  0  0  0
    8.3092  -19.9220   15.2662 O   0  0  0  0  0  0  0  0  0  0  0  0
    8.4582  -20.3881   17.5698 C   0  0  0  0  0  0  0  0  0  0  0  0
    7.9226  -19.2446   18.3410 C   0  0  0  0  0  0  0  0  0  0  0  0
    8.4460  -19.0545   19.7217 C   0  0  2  0  0  0  0  0  0  0  0  0
    7.4090  -19.2859   20.7277 N   0  0  0  0  0  0  0  0  0  0  0  0
    9.0416  -17.7165   19.8926 C   0  0  0  0  0  0  0  0  0  0  0  0
   10.0694  -17.4287   19.2326 O   0  0  0  0  0  0  0  0  0  0  0  0
    7.6172  -11.8742   20.4341 C   0  0  0  0  0  0  0  0  0  0  0  0
    8.6087  -12.9698   20.6423 C   0  0  0  0  0  0  0  0  0  0  0  0
    8.0299  -14.3478   20.6885 C   0  0  2  0  0  0  0  0  0  0  0  0
    7.0829  -14.4447   21.8723 C   0  0  0  0  0  0  0  0  0  0  0  0
    9.0755  -15.4401   20.8603 C   0  0  2  0  0  0  0  0  0  0  0  0
    8.4808  -16.7465   20.7853 N   0  0  0  0  0  0  0  0  0  0  0  0
    9.6245  -15.2553   22.2269 C   0  0  0  0  0  0  0  0  0  0  0  0
   10.3067  -14.2390   22.5415 O   0  0  0  0  0  0  0  0  0  0  0  0
    9.3666  -16.2559   23.1953 N   0  0  0  0  0  0  0  0  0  0  0  0
   10.0409  -16.2447   24.5024 C   0  0  1  0  0  0  0  0  0  0  0  0
    9.6402  -14.9365   25.1214 C   0  0  0  0  0  0  0  0  0  0  0  0
    8.1954  -14.8416   25.3338 C   0  0  0  0  0  0  0  0  0  0  0  0
    7.2458  -15.8677   25.1660 C   0  0  0  0  0  0  0  0  0  0  0  0
    6.0209  -15.4127   25.4138 N   0  0  0  0  0  0  0  0  0  0  0  0
    6.1333  -14.1267   25.7386 C   0  0  0  0  0  0  0  0  0  0  0  0
    5.1757  -13.2124   26.0980 C   0  0  0  0  0  0  0  0  0  0  0  0
    5.5034  -11.9315   26.4194 C   0  0  0  0  0  0  0  0  0  0  0  0
    6.8320  -11.5164   26.3903 C   0  0  0  0  0  0  0  0  0  0  0  0
    7.7926  -12.4312   26.0296 C   0  0  0  0  0  0  0  0  0  0  0  0
    7.4744  -13.7362   25.6994 C   0  0  0  0  0  0  0  0  0  0  0  0
    9.6446  -17.4205   25.2661 C   0  0  0  0  0  0  0  0  0  0  0  0
    8.8002  -18.3638   24.7209 O   0  0  0  0  0  0  0  0  0  0  0  0
   10.0623  -17.5877   26.4332 O   0  0  0  0  0  0  0  0  0  0  0  0
  1  2  1  0
  2  3  2  0
  2  4  1  0
  4  5  1  0
  6  5  1  0
  6  7  1  1
  8  9  2  0
  8  6  1  0
 10 11  1  0
 11 12  1  0
 12 14  1  0
 12 13  1  1
 14 15  1  1
 15  8  1  0
 16 18  1  0
 16 14  1  0
 17 16  2  0
 19 30  1  0
 19 18  1  0
 20 21  1  0
 19 20  1  1
 21 22  2  0
 21 29  1  0
 22 23  1  0
 23 24  1  0
 24 25  2  0
 25 26  1  0
 27 26  2  0
 28 27  1  0
 29 28  2  0
 29 24  1  0
 30 31  1  0
 32 30  2  0
M  END
$$$$
