QIW.pdb
     RDKit          3D

 32 33  0  0  1  0  0  0  0  0999 V2000
   11.5093  -22.1202   19.1903 N   0  0  0  0  0  0  0  0  0  0  0  0
   12.2553  -21.1716   18.4514 C   0  0  0  0  0  0  0  0  0  0  0  0
   13.4442  -21.4354   18.2027 O   0  0  0  0  0  0  0  0  0  0  0  0
   11.6739  -19.8991   17.9755 C   0  0  0  0  0  0  0  0  0  0  0  0
   11.1644  -18.9954   19.0305 C   0  0  0  0  0  0  0  0  0  0  0  0
   10.6736  -17.6582   18.5977 C   0  0  2  0  0  0  0  0  0  0  0  0
   11.5567  -17.0579   17.5974 N   0  0  0  0  0  0  0  0  0  0  0  0
   10.5017  -16.7496   19.7463 C   0  0  0  0  0  0  0  0  0  0  0  0
   11.5255  -16.2598   20.2819 O   0  0  0  0  0  0  0  0  0  0  0  0
    6.8448  -12.7834   19.8359 C   0  0  0  0  0  0  0  0  0  0  0  0
    8.0423  -13.6391   20.0821 C   0  0  0  0  0  0  0  0  0  0  0  0
    7.9204  -14.5827   21.2356 C   0  0  2  0  0  0  0  0  0  0  0  0
    7.8247  -13.7790   22.5212 C   0  0  0  0  0  0  0  0  0  0  0  0
    9.1099  -15.5208   21.3810 C   0  0  2  0  0  0  0  0  0  0  0  0
    9.2070  -16.4158   20.2605 N   0  0  0  0  0  0  0  0  0  0  0  0
    8.8371  -16.3252   22.5982 C   0  0  0  0  0  0  0  0  0  0  0  0
    8.2868  -17.4613   22.5392 O   0  0  0  0  0  0  0  0  0  0  0  0
    9.2113  -15.7900   23.8548 N   0  0  0  0  0  0  0  0  0  0  0  0
    9.2765  -16.6364   25.0559 C   0  0  1  0  0  0  0  0  0  0  0  0
    9.2824  -15.6648   26.2010 C   0  0  0  0  0  0  0  0  0  0  0  0
    8.0069  -14.9608   26.3391 C   0  0  0  0  0  0  0  0  0  0  0  0
    6.7177  -15.5080   26.1925 C   0  0  0  0  0  0  0  0  0  0  0  0
    5.7921  -14.5666   26.3533 N   0  0  0  0  0  0  0  0  0  0  0  0
    6.4274  -13.4233   26.6007 C   0  0  0  0  0  0  0  0  0  0  0  0
    5.9351  -12.1686   26.8561 C   0  0  0  0  0  0  0  0  0  0  0  0
    6.7638  -11.1198   27.1106 C   0  0  0  0  0  0  0  0  0  0  0  0
    8.1445  -11.2993   27.1174 C   0  0  0  0  0  0  0  0  0  0  0  0
    8.6393  -12.5559   26.8608 C   0  0  0  0  0  0  0  0  0  0  0  0
    7.8093  -13.6310   26.5997 C   0  0  0  0  0  0  0  0  0  0  0  0
    8.1550  -17.5665   25.0590 C   0  0  0  0  0  0  0  0  0  0  0  0
    8.2117  -18.7369   25.7849 O   0  0  0  0  0  0  0  0  0  0  0  0
    7.1240  -17.3172   24.3961 O   0  0  0  0  0  0  0  0  0  0  0  0
  1  2  1  0
  2  3  2  0
  2  4  1  0
  4  5  1  0
  6  5  1  0
  6  7  1  6
  8  9  2  0
  8  6  1  0
 10 11  1  0
 11 12  1  0
 12 14  1  0
 12 13  1  1
 14 15  1  6
 15  8  1  0
 16 18  1  0
 16 14  1  0
 17 16  2  0
 19 30  1  0
 19 18  1  0
 20 21  1  0
 19 20  1  1
 21 22  2  0
 21 29  1  0
 22 23  1  0
 23 24  1  0
 24 25  2  0
 25 26  1  0
 27 26  2  0
 28 27  1  0
 29 28  2  0
 29 24  1  0
 30 31  1  0
 32 30  2  0
M  END
$$$$
