QIW.pdb
     RDKit          3D

 32 33  0  0  1  0  0  0  0  0999 V2000
    6.5502  -18.7823   25.2377 N   0  0  0  0  0  0  0  0  0  0  0  0
    6.3263  -19.9777   24.5144 C   0  0  0  0  0  0  0  0  0  0  0  0
    6.5815  -21.0544   25.0806 O   0  0  0  0  0  0  0  0  0  0  0  0
    5.8083  -19.9844   23.1304 C   0  0  0  0  0  0  0  0  0  0  0  0
    5.4993  -18.6556   22.5574 C   0  0  0  0  0  0  0  0  0  0  0  0
    5.9566  -18.3959   21.1647 C   0  0  2  0  0  0  0  0  0  0  0  0
    6.1303  -19.6395   20.4138 N   0  0  0  0  0  0  0  0  0  0  0  0
    7.1996  -17.6029   21.1447 C   0  0  0  0  0  0  0  0  0  0  0  0
    8.2379  -18.1270   20.6735 O   0  0  0  0  0  0  0  0  0  0  0  0
    6.7840  -12.3333   19.7608 C   0  0  0  0  0  0  0  0  0  0  0  0
    7.3300  -13.7152   19.8980 C   0  0  0  0  0  0  0  0  0  0  0  0
    8.0331  -13.9936   21.1880 C   0  0  2  0  0  0  0  0  0  0  0  0
    9.3227  -13.1918   21.2289 C   0  0  0  0  0  0  0  0  0  0  0  0
    8.4090  -15.4568   21.3712 C   0  0  2  0  0  0  0  0  0  0  0  0
    7.2501  -16.2617   21.6455 N   0  0  0  0  0  0  0  0  0  0  0  0
    9.2956  -15.4949   22.5609 C   0  0  0  0  0  0  0  0  0  0  0  0
   10.4142  -14.9071   22.5803 O   0  0  0  0  0  0  0  0  0  0  0  0
    8.8604  -16.2149   23.7002 N   0  0  0  0  0  0  0  0  0  0  0  0
    9.6612  -16.2489   24.9333 C   0  0  1  0  0  0  0  0  0  0  0  0
    8.6630  -16.5149   26.0231 C   0  0  0  0  0  0  0  0  0  0  0  0
    7.5519  -15.5627   26.0036 C   0  0  0  0  0  0  0  0  0  0  0  0
    6.2201  -15.8232   25.6275 C   0  0  0  0  0  0  0  0  0  0  0  0
    5.4913  -14.7130   25.6984 N   0  0  0  0  0  0  0  0  0  0  0  0
    6.2964  -13.7351   26.1079 C   0  0  0  0  0  0  0  0  0  0  0  0
    6.0340  -12.4119   26.3575 C   0  0  0  0  0  0  0  0  0  0  0  0
    7.0054  -11.5672   26.7983 C   0  0  0  0  0  0  0  0  0  0  0  0
    8.3008  -12.0325   27.0079 C   0  0  0  0  0  0  0  0  0  0  0  0
    8.5654  -13.3580   26.7574 C   0  0  0  0  0  0  0  0  0  0  0  0
    7.5884  -14.2281   26.3083 C   0  0  0  0  0  0  0  0  0  0  0  0
   10.7043  -17.2586   24.8102 C   0  0  0  0  0  0  0  0  0  0  0  0
   10.7569  -18.0876   23.7102 O   0  0  0  0  0  0  0  0  0  0  0  0
   11.5661  -17.3912   25.7070 O   0  0  0  0  0  0  0  0  0  0  0  0
  1  2  1  0
  2  3  2  0
  2  4  1  0
  4  5  1  0
  6  5  1  0
  6  7  1  1
  8  9  2  0
  8  6  1  0
 10 11  1  0
 11 12  1  0
 12 14  1  0
 12 13  1  6
 14 15  1  1
 15  8  1  0
 16 18  1  0
 16 14  1  0
 17 16  2  0
 19 30  1  0
 19 18  1  0
 20 21  1  0
 19 20  1  1
 21 22  2  0
 21 29  1  0
 22 23  1  0
 23 24  1  0
 24 25  2  0
 25 26  1  0
 27 26  2  0
 28 27  1  0
 29 28  2  0
 29 24  1  0
 30 31  1  0
 32 30  2  0
M  END
$$$$
