QIW.pdb
     RDKit          3D

 32 33  0  0  1  0  0  0  0  0999 V2000
    9.2057  -21.6009   22.0710 N   0  0  0  0  0  0  0  0  0  0  0  0
   10.3210  -21.1293   21.3389 C   0  0  0  0  0  0  0  0  0  0  0  0
   11.3971  -21.7387   21.4651 O   0  0  0  0  0  0  0  0  0  0  0  0
   10.2467  -19.9547   20.4454 C   0  0  0  0  0  0  0  0  0  0  0  0
    8.9167  -19.3147   20.3407 C   0  0  0  0  0  0  0  0  0  0  0  0
    8.7771  -18.1987   19.3654 C   0  0  2  0  0  0  0  0  0  0  0  0
    9.3207  -18.5570   18.0551 N   0  0  0  0  0  0  0  0  0  0  0  0
    9.4081  -16.9636   19.8659 C   0  0  0  0  0  0  0  0  0  0  0  0
   10.5492  -16.6587   19.4417 O   0  0  0  0  0  0  0  0  0  0  0  0
    7.0677  -12.3831   18.9708 C   0  0  0  0  0  0  0  0  0  0  0  0
    8.1631  -13.3363   19.3146 C   0  0  0  0  0  0  0  0  0  0  0  0
    8.2347  -13.7260   20.7564 C   0  0  2  0  0  0  0  0  0  0  0  0
    8.6033  -12.5035   21.5792 C   0  0  0  0  0  0  0  0  0  0  0  0
    9.2805  -14.7931   21.0458 C   0  0  2  0  0  0  0  0  0  0  0  0
    8.7565  -16.1116   20.8155 N   0  0  0  0  0  0  0  0  0  0  0  0
    9.5950  -14.6619   22.4904 C   0  0  0  0  0  0  0  0  0  0  0  0
    9.4313  -13.5751   23.1143 O   0  0  0  0  0  0  0  0  0  0  0  0
   10.0915  -15.7975   23.1755 N   0  0  0  0  0  0  0  0  0  0  0  0
    9.5471  -16.1994   24.4814 C   0  0  1  0  0  0  0  0  0  0  0  0
    8.0699  -16.3347   24.2478 C   0  0  0  0  0  0  0  0  0  0  0  0
    7.2859  -15.4754   25.1359 C   0  0  0  0  0  0  0  0  0  0  0  0
    6.0944  -15.8133   25.8060 C   0  0  0  0  0  0  0  0  0  0  0  0
    5.6396  -14.7731   26.4987 N   0  0  0  0  0  0  0  0  0  0  0  0
    6.4897  -13.7667   26.3078 C   0  0  0  0  0  0  0  0  0  0  0  0
    6.4859  -12.4906   26.8114 C   0  0  0  0  0  0  0  0  0  0  0  0
    7.4739  -11.6056   26.5080 C   0  0  0  0  0  0  0  0  0  0  0  0
    8.5216  -11.9799   25.6709 C   0  0  0  0  0  0  0  0  0  0  0  0
    8.5263  -13.2581   25.1649 C   0  0  0  0  0  0  0  0  0  0  0  0
    7.5285  -14.1682   25.4638 C   0  0  0  0  0  0  0  0  0  0  0  0
   10.2023  -17.4217   24.9281 C   0  0  0  0  0  0  0  0  0  0  0  0
   10.8017  -18.2716   24.0233 O   0  0  0  0  0  0  0  0  0  0  0  0
   10.2249  -17.7205   26.1425 O   0  0  0  0  0  0  0  0  0  0  0  0
  1  2  1  0
  2  3  2  0
  2  4  1  0
  4  5  1  0
  6  5  1  0
  6  7  1  6
  8  9  2  0
  8  6  1  0
 10 11  1  0
 11 12  1  0
 12 14  1  0
 12 13  1  1
 14 15  1  1
 15  8  1  0
 16 18  1  0
 16 14  1  0
 17 16  2  0
 19 30  1  0
 19 18  1  0
 20 21  1  0
 19 20  1  6
 21 22  2  0
 21 29  1  0
 22 23  1  0
 23 24  1  0
 24 25  2  0
 25 26  1  0
 27 26  2  0
 28 27  1  0
 29 28  2  0
 29 24  1  0
 30 31  1  0
 32 30  2  0
M  END
$$$$
