QIW.pdb
     RDKit          3D

 32 33  0  0  1  0  0  0  0  0999 V2000
    9.9524  -22.2750   22.3140 N   0  0  0  0  0  0  0  0  0  0  0  0
   10.2275  -22.3441   20.9276 C   0  0  0  0  0  0  0  0  0  0  0  0
   10.7422  -23.3875   20.4900 O   0  0  0  0  0  0  0  0  0  0  0  0
    9.9272  -21.2328   20.0011 C   0  0  0  0  0  0  0  0  0  0  0  0
    9.3365  -20.0261   20.6210 C   0  0  0  0  0  0  0  0  0  0  0  0
    8.9674  -18.9083   19.7096 C   0  0  2  0  0  0  0  0  0  0  0  0
    9.4340  -19.1500   18.3440 N   0  0  0  0  0  0  0  0  0  0  0  0
    9.4754  -17.6167   20.2077 C   0  0  0  0  0  0  0  0  0  0  0  0
   10.6284  -17.2550   19.8693 O   0  0  0  0  0  0  0  0  0  0  0  0
    6.4875  -13.2602   19.5680 C   0  0  0  0  0  0  0  0  0  0  0  0
    7.5587  -14.2789   19.7717 C   0  0  0  0  0  0  0  0  0  0  0  0
    8.0359  -14.4234   21.1814 C   0  0  2  0  0  0  0  0  0  0  0  0
    8.5761  -13.0860   21.6579 C   0  0  0  0  0  0  0  0  0  0  0  0
    9.1552  -15.4419   21.3421 C   0  0  2  0  0  0  0  0  0  0  0  0
    8.6921  -16.7731   21.0603 N   0  0  0  0  0  0  0  0  0  0  0  0
    9.5501  -15.3783   22.7715 C   0  0  0  0  0  0  0  0  0  0  0  0
   10.1527  -14.3780   23.2547 O   0  0  0  0  0  0  0  0  0  0  0  0
    9.2344  -16.4787   23.6052 N   0  0  0  0  0  0  0  0  0  0  0  0
    9.6961  -16.5362   25.0005 C   0  0  1  0  0  0  0  0  0  0  0  0
    8.4554  -16.8239   25.7959 C   0  0  0  0  0  0  0  0  0  0  0  0
    7.5160  -15.7018   25.7855 C   0  0  0  0  0  0  0  0  0  0  0  0
    6.2138  -15.6928   25.2495 C   0  0  0  0  0  0  0  0  0  0  0  0
    5.6632  -14.4899   25.3861 N   0  0  0  0  0  0  0  0  0  0  0  0
    6.5563  -13.7110   25.9925 C   0  0  0  0  0  0  0  0  0  0  0  0
    6.4751  -12.3970   26.3783 C   0  0  0  0  0  0  0  0  0  0  0  0
    7.5069  -11.7800   27.0155 C   0  0  0  0  0  0  0  0  0  0  0  0
    8.6803  -12.4763   27.2927 C   0  0  0  0  0  0  0  0  0  0  0  0
    8.7634  -13.7928   26.9059 C   0  0  0  0  0  0  0  0  0  0  0  0
    7.7232  -14.4329   26.2568 C   0  0  0  0  0  0  0  0  0  0  0  0
   10.7417  -17.5429   25.1274 C   0  0  0  0  0  0  0  0  0  0  0  0
   11.4314  -17.6979   26.3108 O   0  0  0  0  0  0  0  0  0  0  0  0
   11.0327  -18.2790   24.1589 O   0  0  0  0  0  0  0  0  0  0  0  0
  1  2  1  0
  2  3  2  0
  2  4  1  0
  4  5  1  0
  6  5  1  0
  6  7  1  6
  8  9  2  0
  8  6  1  0
 10 11  1  0
 11 12  1  0
 12 14  1  0
 12 13  1  6
 14 15  1  1
 15  8  1  0
 16 18  1  0
 16 14  1  0
 17 16  2  0
 19 30  1  0
 19 18  1  0
 20 21  1  0
 19 20  1  1
 21 22  2  0
 21 29  1  0
 22 23  1  0
 23 24  1  0
 24 25  2  0
 25 26  1  0
 27 26  2  0
 28 27  1  0
 29 28  2  0
 29 24  1  0
 30 31  1  0
 32 30  2  0
M  END
$$$$
