QIW.pdb
     RDKit          3D

 32 33  0  0  1  0  0  0  0  0999 V2000
    9.2321  -21.4907   23.8157 N   0  0  0  0  0  0  0  0  0  0  0  0
    8.1535  -20.6135   23.5516 C   0  0  0  0  0  0  0  0  0  0  0  0
    7.7750  -19.8670   24.4706 O   0  0  0  0  0  0  0  0  0  0  0  0
    7.4754  -20.5597   22.2398 C   0  0  0  0  0  0  0  0  0  0  0  0
    8.2393  -19.9101   21.1518 C   0  0  0  0  0  0  0  0  0  0  0  0
    7.5570  -18.8191   20.4031 C   0  0  2  0  0  0  0  0  0  0  0  0
    7.3325  -19.1842   19.0042 N   0  0  0  0  0  0  0  0  0  0  0  0
    8.3077  -17.5532   20.4923 C   0  0  0  0  0  0  0  0  0  0  0  0
    9.4241  -17.4766   19.9243 O   0  0  0  0  0  0  0  0  0  0  0  0
    6.7978  -12.6277   19.1385 C   0  0  0  0  0  0  0  0  0  0  0  0
    7.6191  -13.8148   19.5163 C   0  0  0  0  0  0  0  0  0  0  0  0
    7.8458  -13.9872   20.9842 C   0  0  2  0  0  0  0  0  0  0  0  0
    8.6525  -12.8078   21.4998 C   0  0  0  0  0  0  0  0  0  0  0  0
    8.6218  -15.2486   21.3347 C   0  0  2  0  0  0  0  0  0  0  0  0
    7.7984  -16.4195   21.2047 N   0  0  0  0  0  0  0  0  0  0  0  0
    9.0000  -15.1004   22.7623 C   0  0  0  0  0  0  0  0  0  0  0  0
    9.1445  -13.9666   23.3015 O   0  0  0  0  0  0  0  0  0  0  0  0
    9.2003  -16.2739   23.5294 N   0  0  0  0  0  0  0  0  0  0  0  0
    9.8027  -16.2159   24.8699 C   0  0  1  0  0  0  0  0  0  0  0  0
    8.6791  -16.5654   25.8029 C   0  0  0  0  0  0  0  0  0  0  0  0
    7.5942  -15.5843   25.7581 C   0  0  0  0  0  0  0  0  0  0  0  0
    6.2909  -15.7851   25.2639 C   0  0  0  0  0  0  0  0  0  0  0  0
    5.5833  -14.6623   25.3490 N   0  0  0  0  0  0  0  0  0  0  0  0
    6.3746  -13.7337   25.8815 C   0  0  0  0  0  0  0  0  0  0  0  0
    6.1223  -12.4220   26.1942 C   0  0  0  0  0  0  0  0  0  0  0  0
    7.0740  -11.6327   26.7622 C   0  0  0  0  0  0  0  0  0  0  0  0
    8.3383  -12.1446   27.0415 C   0  0  0  0  0  0  0  0  0  0  0  0
    8.5928  -13.4587   26.7280 C   0  0  0  0  0  0  0  0  0  0  0  0
    7.6357  -14.2726   26.1496 C   0  0  0  0  0  0  0  0  0  0  0  0
   10.9429  -17.1208   24.9322 C   0  0  0  0  0  0  0  0  0  0  0  0
   11.7729  -17.1347   26.0327 O   0  0  0  0  0  0  0  0  0  0  0  0
   11.1883  -17.8963   23.9819 O   0  0  0  0  0  0  0  0  0  0  0  0
  1  2  1  0
  2  3  2  0
  2  4  1  0
  4  5  1  0
  6  5  1  0
  6  7  1  6
  8  9  2  0
  8  6  1  0
 10 11  1  0
 11 12  1  0
 12 14  1  0
 12 13  1  6
 14 15  1  1
 15  8  1  0
 16 18  1  0
 16 14  1  0
 17 16  2  0
 19 30  1  0
 19 18  1  0
 20 21  1  0
 19 20  1  1
 21 22  2  0
 21 29  1  0
 22 23  1  0
 23 24  1  0
 24 25  2  0
 25 26  1  0
 27 26  2  0
 28 27  1  0
 29 28  2  0
 29 24  1  0
 30 31  1  0
 32 30  2  0
M  END
$$$$
