QIW.pdb
     RDKit          3D

 32 33  0  0  1  0  0  0  0  0999 V2000
   13.6442  -21.1644   19.2577 N   0  0  0  0  0  0  0  0  0  0  0  0
   14.2303  -20.0630   18.5901 C   0  0  0  0  0  0  0  0  0  0  0  0
   15.2151  -20.2823   17.8640 O   0  0  0  0  0  0  0  0  0  0  0  0
   13.7165  -18.6844   18.7283 C   0  0  0  0  0  0  0  0  0  0  0  0
   12.5491  -18.5243   19.6232 C   0  0  0  0  0  0  0  0  0  0  0  0
   11.4699  -17.6042   19.1704 C   0  0  2  0  0  0  0  0  0  0  0  0
   11.9108  -16.7628   18.0575 N   0  0  0  0  0  0  0  0  0  0  0  0
   10.9703  -16.7720   20.2804 C   0  0  0  0  0  0  0  0  0  0  0  0
   11.7924  -16.3450   21.1270 O   0  0  0  0  0  0  0  0  0  0  0  0
    6.8650  -13.2339   19.4681 C   0  0  0  0  0  0  0  0  0  0  0  0
    8.1087  -13.8908   19.9665 C   0  0  0  0  0  0  0  0  0  0  0  0
    7.9179  -14.8059   21.1336 C   0  0  2  0  0  0  0  0  0  0  0  0
    7.5393  -13.9795   22.3506 C   0  0  0  0  0  0  0  0  0  0  0  0
    9.1678  -15.5939   21.4980 C   0  0  2  0  0  0  0  0  0  0  0  0
    9.5827  -16.4424   20.4145 N   0  0  0  0  0  0  0  0  0  0  0  0
    8.7769  -16.4554   22.6417 C   0  0  0  0  0  0  0  0  0  0  0  0
    8.4282  -17.6597   22.4830 O   0  0  0  0  0  0  0  0  0  0  0  0
    8.8016  -15.8966   23.9428 N   0  0  0  0  0  0  0  0  0  0  0  0
    8.7446  -16.7484   25.1404 C   0  0  1  0  0  0  0  0  0  0  0  0
    8.7531  -15.7824   26.2901 C   0  0  0  0  0  0  0  0  0  0  0  0
    7.6027  -14.8782   26.2646 C   0  0  0  0  0  0  0  0  0  0  0  0
    6.2666  -15.2160   25.9751 C   0  0  0  0  0  0  0  0  0  0  0  0
    5.4953  -14.1331   26.0099 N   0  0  0  0  0  0  0  0  0  0  0  0
    6.2766  -13.0987   26.3124 C   0  0  0  0  0  0  0  0  0  0  0  0
    5.9703  -11.7730   26.4874 C   0  0  0  0  0  0  0  0  0  0  0  0
    6.9249  -10.8627   26.8214 C   0  0  0  0  0  0  0  0  0  0  0  0
    8.2477  -11.2612   26.9947 C   0  0  0  0  0  0  0  0  0  0  0  0
    8.5563  -12.5893   26.8189 C   0  0  0  0  0  0  0  0  0  0  0  0
    7.5968  -13.5256   26.4785 C   0  0  0  0  0  0  0  0  0  0  0  0
    7.5650  -17.6013   25.0770 C   0  0  0  0  0  0  0  0  0  0  0  0
    7.5021  -18.7728   25.8008 O   0  0  0  0  0  0  0  0  0  0  0  0
    6.5920  -17.2837   24.3580 O   0  0  0  0  0  0  0  0  0  0  0  0
  1  2  1  0
  2  3  2  0
  2  4  1  0
  4  5  1  0
  6  5  1  0
  6  7  1  6
  8  9  2  0
  8  6  1  0
 10 11  1  0
 11 12  1  0
 12 14  1  0
 12 13  1  1
 14 15  1  6
 15  8  1  0
 16 18  1  0
 16 14  1  0
 17 16  2  0
 19 30  1  0
 19 18  1  0
 20 21  1  0
 19 20  1  1
 21 22  2  0
 21 29  1  0
 22 23  1  0
 23 24  1  0
 24 25  2  0
 25 26  1  0
 27 26  2  0
 28 27  1  0
 29 28  2  0
 29 24  1  0
 30 31  1  0
 32 30  2  0
M  END
$$$$
