QIW.pdb
     RDKit          3D

 32 33  0  0  1  0  0  0  0  0999 V2000
   11.6325  -15.7705   14.6495 N   0  0  0  0  0  0  0  0  0  0  0  0
   11.9956  -17.0944   14.9927 C   0  0  0  0  0  0  0  0  0  0  0  0
   12.5908  -17.7724   14.1376 O   0  0  0  0  0  0  0  0  0  0  0  0
   11.6934  -17.6849   16.3131 C   0  0  0  0  0  0  0  0  0  0  0  0
   10.9586  -16.8085   17.2519 C   0  0  0  0  0  0  0  0  0  0  0  0
   10.6542  -17.3637   18.5992 C   0  0  2  0  0  0  0  0  0  0  0  0
    9.4477  -18.1913   18.5810 N   0  0  0  0  0  0  0  0  0  0  0  0
   10.5317  -16.2948   19.6075 C   0  0  0  0  0  0  0  0  0  0  0  0
   11.5245  -15.5583   19.8243 O   0  0  0  0  0  0  0  0  0  0  0  0
    7.0013  -12.5166   19.6062 C   0  0  0  0  0  0  0  0  0  0  0  0
    8.2035  -13.3474   19.9080 C   0  0  0  0  0  0  0  0  0  0  0  0
    8.1365  -14.1174   21.1881 C   0  0  2  0  0  0  0  0  0  0  0  0
    8.1740  -13.1419   22.3519 C   0  0  0  0  0  0  0  0  0  0  0  0
    9.2963  -15.0846   21.3763 C   0  0  2  0  0  0  0  0  0  0  0  0
    9.3188  -16.0787   20.3384 N   0  0  0  0  0  0  0  0  0  0  0  0
    9.0411  -15.7664   22.6697 C   0  0  0  0  0  0  0  0  0  0  0  0
    7.8949  -16.1954   22.9847 O   0  0  0  0  0  0  0  0  0  0  0  0
   10.1248  -15.9340   23.5659 N   0  0  0  0  0  0  0  0  0  0  0  0
    9.9401  -16.5794   24.8746 C   0  0  1  0  0  0  0  0  0  0  0  0
    9.6790  -15.4431   25.8210 C   0  0  0  0  0  0  0  0  0  0  0  0
    8.2638  -15.0732   25.8682 C   0  0  0  0  0  0  0  0  0  0  0  0
    7.1650  -15.8838   25.5240 C   0  0  0  0  0  0  0  0  0  0  0  0
    6.0282  -15.2061   25.6555 N   0  0  0  0  0  0  0  0  0  0  0  0
    6.3418  -13.9820   26.0739 C   0  0  0  0  0  0  0  0  0  0  0  0
    5.5387  -12.9119   26.3771 C   0  0  0  0  0  0  0  0  0  0  0  0
    6.0613  -11.7352   26.8172 C   0  0  0  0  0  0  0  0  0  0  0  0
    7.4374  -11.5900   26.9711 C   0  0  0  0  0  0  0  0  0  0  0  0
    8.2436  -12.6612   26.6669 C   0  0  0  0  0  0  0  0  0  0  0  0
    7.7267  -13.8630   26.2178 C   0  0  0  0  0  0  0  0  0  0  0  0
    8.8610  -17.5547   24.7899 C   0  0  0  0  0  0  0  0  0  0  0  0
    8.2768  -17.8565   23.5784 O   0  0  0  0  0  0  0  0  0  0  0  0
    8.4449  -18.1295   25.8199 O   0  0  0  0  0  0  0  0  0  0  0  0
  1  2  1  0
  2  3  2  0
  2  4  1  0
  4  5  1  0
  6  5  1  0
  6  7  1  6
  8  9  2  0
  8  6  1  0
 10 11  1  0
 11 12  1  0
 12 14  1  0
 12 13  1  1
 14 15  1  6
 15  8  1  0
 16 18  1  0
 16 14  1  0
 17 16  2  0
 19 30  1  0
 19 18  1  0
 20 21  1  0
 19 20  1  1
 21 22  2  0
 21 29  1  0
 22 23  1  0
 23 24  1  0
 24 25  2  0
 25 26  1  0
 27 26  2  0
 28 27  1  0
 29 28  2  0
 29 24  1  0
 30 31  1  0
 32 30  2  0
M  END
$$$$
