QIW.pdb
     RDKit          3D

 32 33  0  0  1  0  0  0  0  0999 V2000
   11.9395  -21.9681   19.2770 N   0  0  0  0  0  0  0  0  0  0  0  0
   10.8107  -22.1769   20.1044 C   0  0  0  0  0  0  0  0  0  0  0  0
   10.5990  -23.3305   20.5160 O   0  0  0  0  0  0  0  0  0  0  0  0
    9.8920  -21.0844   20.4865 C   0  0  0  0  0  0  0  0  0  0  0  0
   10.2333  -19.7468   19.9537 C   0  0  0  0  0  0  0  0  0  0  0  0
    9.1204  -18.7670   19.8202 C   0  0  2  0  0  0  0  0  0  0  0  0
    8.6041  -18.7211   18.4520 N   0  0  0  0  0  0  0  0  0  0  0  0
    9.5311  -17.4216   20.2624 C   0  0  0  0  0  0  0  0  0  0  0  0
   10.5187  -16.8829   19.7061 O   0  0  0  0  0  0  0  0  0  0  0  0
    6.4430  -13.3062   19.8612 C   0  0  0  0  0  0  0  0  0  0  0  0
    7.5910  -14.2411   20.0472 C   0  0  0  0  0  0  0  0  0  0  0  0
    8.0420  -14.4173   21.4619 C   0  0  2  0  0  0  0  0  0  0  0  0
    8.4851  -13.0711   22.0087 C   0  0  0  0  0  0  0  0  0  0  0  0
    9.2191  -15.3705   21.6097 C   0  0  2  0  0  0  0  0  0  0  0  0
    8.8369  -16.7214   21.3016 N   0  0  0  0  0  0  0  0  0  0  0  0
    9.6041  -15.3098   23.0419 C   0  0  0  0  0  0  0  0  0  0  0  0
   10.2323  -14.3249   23.5241 O   0  0  0  0  0  0  0  0  0  0  0  0
    9.2490  -16.3951   23.8795 N   0  0  0  0  0  0  0  0  0  0  0  0
    9.7109  -16.4657   25.2741 C   0  0  1  0  0  0  0  0  0  0  0  0
    8.4731  -16.7777   26.0651 C   0  0  0  0  0  0  0  0  0  0  0  0
    7.4611  -15.7267   25.9510 C   0  0  0  0  0  0  0  0  0  0  0  0
    6.1638  -15.8548   25.4184 C   0  0  0  0  0  0  0  0  0  0  0  0
    5.5337  -14.6838   25.4425 N   0  0  0  0  0  0  0  0  0  0  0  0
    6.3700  -13.7938   25.9720 C   0  0  0  0  0  0  0  0  0  0  0  0
    6.1996  -12.4579   26.2333 C   0  0  0  0  0  0  0  0  0  0  0  0
    7.1850  -11.7164   26.8085 C   0  0  0  0  0  0  0  0  0  0  0  0
    8.4008  -12.3038   27.1479 C   0  0  0  0  0  0  0  0  0  0  0  0
    8.5733  -13.6423   26.8860 C   0  0  0  0  0  0  0  0  0  0  0  0
    7.5811  -14.4083   26.3011 C   0  0  0  0  0  0  0  0  0  0  0  0
   10.7677  -17.4621   25.3884 C   0  0  0  0  0  0  0  0  0  0  0  0
   11.4239  -17.6600   26.5844 O   0  0  0  0  0  0  0  0  0  0  0  0
   11.0989  -18.1502   24.3977 O   0  0  0  0  0  0  0  0  0  0  0  0
  1  2  1  0
  2  3  2  0
  2  4  1  0
  4  5  1  0
  6  5  1  0
  6  7  1  6
  8  9  2  0
  8  6  1  0
 10 11  1  0
 11 12  1  0
 12 14  1  0
 12 13  1  6
 14 15  1  1
 15  8  1  0
 16 18  1  0
 16 14  1  0
 17 16  2  0
 19 30  1  0
 19 18  1  0
 20 21  1  0
 19 20  1  1
 21 22  2  0
 21 29  1  0
 22 23  1  0
 23 24  1  0
 24 25  2  0
 25 26  1  0
 27 26  2  0
 28 27  1  0
 29 28  2  0
 29 24  1  0
 30 31  1  0
 32 30  2  0
M  END
$$$$
