DHT.pdb
     RDKit          3D

 26 26  0  0  1  0  0  0  0  0999 V2000
   10.7654  -18.2491   17.9444 N   0  0  0  0  0  0  0  0  0  0  0  0
   11.9601  -17.6985   18.4999 C   0  0  1  0  0  0  0  0  0  0  0  0
   12.5835  -16.6296   17.6360 C   0  0  0  0  0  0  0  0  0  0  0  0
   12.8301  -17.0978   16.2550 C   0  0  0  0  0  0  0  0  0  0  0  0
   12.3141  -18.1811   15.9049 O   0  0  0  0  0  0  0  0  0  0  0  0
   11.6161  -17.0251   19.8078 C   0  0  0  0  0  0  0  0  0  0  0  0
   12.4919  -16.4061   20.4559 O   0  0  0  0  0  0  0  0  0  0  0  0
   13.6050  -16.3685   15.3713 O   0  0  0  0  0  0  0  0  0  0  0  0
   10.2998  -17.0855   20.3170 N   0  0  0  0  0  0  0  0  0  0  0  0
    9.8456  -16.5325   21.5466 C   0  0  1  0  0  0  0  0  0  0  0  0
    8.5438  -15.7487   21.4743 C   0  0  0  0  0  0  0  0  0  0  0  0
    8.6258  -14.5899   20.5689 C   0  0  0  0  0  0  0  0  0  0  0  0
    9.6196  -14.0361   19.8175 C   0  0  0  0  0  0  0  0  0  0  0  0
    9.1371  -12.9635   19.1513 N   0  0  0  0  0  0  0  0  0  0  0  0
    7.8516  -12.8241   19.4653 C   0  0  0  0  0  0  0  0  0  0  0  0
    7.5385  -13.8031   20.3203 N   0  0  0  0  0  0  0  0  0  0  0  0
    9.8674  -17.4325   22.7049 C   0  0  0  0  0  0  0  0  0  0  0  0
    8.8662  -18.1617   22.9099 O   0  0  0  0  0  0  0  0  0  0  0  0
   12.3079  -20.2223   25.8326 C   0  0  0  0  0  0  0  0  0  0  0  0
   12.3760  -19.1635   24.7533 C   0  0  1  0  0  0  0  0  0  0  0  0
   12.6588  -19.8251   23.5449 O   0  0  0  0  0  0  0  0  0  0  0  0
   11.0240  -18.4923   24.6913 C   0  0  2  0  0  0  0  0  0  0  0  0
   10.9517  -17.5297   23.6087 N   0  0  0  0  0  0  0  0  0  0  0  0
   10.7842  -17.8397   26.0065 C   0  0  0  0  0  0  0  0  0  0  0  0
   11.0229  -16.6215   26.1846 O   0  0  0  0  0  0  0  0  0  0  0  0
   10.2843  -18.5458   27.1027 O   0  0  0  0  0  0  0  0  0  0  0  0
  2  3  1  0
  2  1  1  6
  3  4  1  0
  4  5  2  0
  4  8  1  0
  6  7  2  0
  6  2  1  0
  9  6  1  0
 10  9  1  0
 10 11  1  6
 12 11  1  0
 12 13  2  0
 14 13  1  0
 15 16  2  0
 15 14  1  0
 16 12  1  0
 17 10  1  0
 17 23  1  0
 18 17  2  0
 20 19  1  1
 21 20  1  0
 22 20  1  0
 22 23  1  6
 24 22  1  0
 25 24  2  0
 26 24  1  0
M  END
$$$$
