DHT.pdb
     RDKit          3D

 26 26  0  0  1  0  0  0  0  0999 V2000
   12.3628  -18.1529   20.4635 N   0  0  0  0  0  0  0  0  0  0  0  0
   12.4426  -16.8394   21.0177 C   0  0  1  0  0  0  0  0  0  0  0  0
   12.4509  -15.7496   19.9737 C   0  0  0  0  0  0  0  0  0  0  0  0
   13.7309  -15.6902   19.2353 C   0  0  0  0  0  0  0  0  0  0  0  0
   14.6450  -16.4663   19.5881 O   0  0  0  0  0  0  0  0  0  0  0  0
   11.2114  -16.5971   21.8591 C   0  0  0  0  0  0  0  0  0  0  0  0
   10.1787  -16.1025   21.3502 O   0  0  0  0  0  0  0  0  0  0  0  0
   13.9210  -14.8082   18.1869 O   0  0  0  0  0  0  0  0  0  0  0  0
   11.2098  -16.9260   23.2329 N   0  0  0  0  0  0  0  0  0  0  0  0
   10.1356  -16.7308   24.1450 C   0  0  1  0  0  0  0  0  0  0  0  0
    9.4051  -17.9921   24.5807 C   0  0  0  0  0  0  0  0  0  0  0  0
    9.7064  -19.1504   23.7224 C   0  0  0  0  0  0  0  0  0  0  0  0
   10.4980  -19.3466   22.6298 C   0  0  0  0  0  0  0  0  0  0  0  0
   10.4100  -20.6362   22.2346 N   0  0  0  0  0  0  0  0  0  0  0  0
    9.5753  -21.2661   23.0575 C   0  0  0  0  0  0  0  0  0  0  0  0
    9.1482  -20.3738   23.9569 N   0  0  0  0  0  0  0  0  0  0  0  0
   10.4101  -15.8480   25.2842 C   0  0  0  0  0  0  0  0  0  0  0  0
   11.5871  -15.7836   25.7161 O   0  0  0  0  0  0  0  0  0  0  0  0
    8.5796  -12.2735   26.0933 C   0  0  0  0  0  0  0  0  0  0  0  0
    8.5805  -13.2045   27.2864 C   0  0  1  0  0  0  0  0  0  0  0  0
    7.3266  -13.8408   27.3130 O   0  0  0  0  0  0  0  0  0  0  0  0
    9.6864  -14.2115   27.0744 C   0  0  2  0  0  0  0  0  0  0  0  0
    9.4259  -15.0617   25.9284 N   0  0  0  0  0  0  0  0  0  0  0  0
    9.8102  -15.0141   28.3209 C   0  0  0  0  0  0  0  0  0  0  0  0
    9.6305  -16.2552   28.3193 O   0  0  0  0  0  0  0  0  0  0  0  0
   10.1307  -14.4301   29.5481 O   0  0  0  0  0  0  0  0  0  0  0  0
  2  3  1  0
  2  1  1  6
  3  4  1  0
  4  5  2  0
  4  8  1  0
  6  7  2  0
  6  2  1  0
  9  6  1  0
 10  9  1  0
 10 11  1  1
 12 11  1  0
 12 13  2  0
 14 13  1  0
 15 16  2  0
 15 14  1  0
 16 12  1  0
 17 10  1  0
 17 23  1  0
 18 17  2  0
 20 19  1  6
 21 20  1  0
 22 20  1  0
 22 23  1  6
 24 22  1  0
 25 24  2  0
 26 24  1  0
M  END
$$$$
