DHT.pdb
     RDKit          3D

 26 26  0  0  1  0  0  0  0  0999 V2000
   16.6934  -23.9835   15.8551 N   0  0  0  0  0  0  0  0  0  0  0  0
   17.8762  -23.1880   15.7704 C   0  0  1  0  0  0  0  0  0  0  0  0
   18.2162  -22.7709   14.3604 C   0  0  0  0  0  0  0  0  0  0  0  0
   18.7138  -23.9006   13.5461 C   0  0  0  0  0  0  0  0  0  0  0  0
   19.2638  -24.8519   14.1417 O   0  0  0  0  0  0  0  0  0  0  0  0
   17.6494  -21.9064   16.5378 C   0  0  0  0  0  0  0  0  0  0  0  0
   18.5308  -21.0162   16.5667 O   0  0  0  0  0  0  0  0  0  0  0  0
   18.5801  -23.9143   12.1694 O   0  0  0  0  0  0  0  0  0  0  0  0
   16.4382  -21.6960   17.2335 N   0  0  0  0  0  0  0  0  0  0  0  0
   16.0484  -20.5043   17.9056 C   0  0  1  0  0  0  0  0  0  0  0  0
   14.8733  -19.7575   17.2926 C   0  0  0  0  0  0  0  0  0  0  0  0
   15.1521  -19.2782   15.9281 C   0  0  0  0  0  0  0  0  0  0  0  0
   16.1305  -18.5106   15.3690 C   0  0  0  0  0  0  0  0  0  0  0  0
   15.9040  -18.3871   14.0422 N   0  0  0  0  0  0  0  0  0  0  0  0
   14.7971  -19.0635   13.7456 C   0  0  0  0  0  0  0  0  0  0  0  0
   14.3399  -19.6029   14.8803 N   0  0  0  0  0  0  0  0  0  0  0  0
   15.9229  -20.5990   19.3643 C   0  0  0  0  0  0  0  0  0  0  0  0
   14.7810  -20.7849   19.8518 O   0  0  0  0  0  0  0  0  0  0  0  0
   15.3411  -22.5682   21.4119 C   0  0  0  0  0  0  0  0  0  0  0  0
   16.6858  -22.1918   21.9953 C   0  0  1  0  0  0  0  0  0  0  0  0
   17.6494  -22.9960   21.3608 O   0  0  0  0  0  0  0  0  0  0  0  0
   16.9209  -20.7318   21.6866 C   0  0  2  0  0  0  0  0  0  0  0  0
   17.0140  -20.4932   20.2589 N   0  0  0  0  0  0  0  0  0  0  0  0
   18.1697  -20.3195   22.3821 C   0  0  0  0  0  0  0  0  0  0  0  0
   19.2184  -20.0624   21.7442 O   0  0  0  0  0  0  0  0  0  0  0  0
   18.2374  -20.1986   23.7716 O   0  0  0  0  0  0  0  0  0  0  0  0
  2  3  1  0
  2  1  1  6
  3  4  1  0
  4  5  2  0
  4  8  1  0
  6  7  2  0
  6  2  1  0
  9  6  1  0
 10  9  1  0
 10 11  1  6
 12 11  1  0
 12 13  2  0
 14 13  1  0
 15 16  2  0
 15 14  1  0
 16 12  1  0
 17 10  1  0
 17 23  1  0
 18 17  2  0
 20 19  1  6
 21 20  1  0
 22 20  1  0
 22 23  1  6
 24 22  1  0
 25 24  2  0
 26 24  1  0
M  END
$$$$
