DHT.pdb
     RDKit          3D

 26 26  0  0  1  0  0  0  0  0999 V2000
   12.4663  -17.5600   18.4811 N   0  0  0  0  0  0  0  0  0  0  0  0
   12.6842  -16.1836   18.1698 C   0  0  1  0  0  0  0  0  0  0  0  0
   11.9996  -15.7426   16.8992 C   0  0  0  0  0  0  0  0  0  0  0  0
   11.4046  -16.8769   16.1600 C   0  0  0  0  0  0  0  0  0  0  0  0
   11.5156  -18.0191   16.6554 O   0  0  0  0  0  0  0  0  0  0  0  0
   12.0896  -15.3411   19.2740 C   0  0  0  0  0  0  0  0  0  0  0  0
   12.6918  -14.3267   19.6966 O   0  0  0  0  0  0  0  0  0  0  0  0
   10.7446  -16.6912   14.9587 O   0  0  0  0  0  0  0  0  0  0  0  0
   10.8449  -15.6879   19.8447 N   0  0  0  0  0  0  0  0  0  0  0  0
   10.2316  -15.0689   20.9693 C   0  0  1  0  0  0  0  0  0  0  0  0
    8.7688  -14.6891   20.7948 C   0  0  0  0  0  0  0  0  0  0  0  0
    8.5406  -13.8226   19.6259 C   0  0  0  0  0  0  0  0  0  0  0  0
    9.3557  -13.2001   18.7275 C   0  0  0  0  0  0  0  0  0  0  0  0
    8.6046  -12.5236   17.8301 N   0  0  0  0  0  0  0  0  0  0  0  0
    7.3236  -12.7045   18.1413 C   0  0  0  0  0  0  0  0  0  0  0  0
    7.2799  -13.4876   19.2240 N   0  0  0  0  0  0  0  0  0  0  0  0
   10.4690  -15.7107   22.2670 C   0  0  0  0  0  0  0  0  0  0  0  0
    9.5051  -16.2832   22.8321 O   0  0  0  0  0  0  0  0  0  0  0  0
   10.4492  -18.2719   23.3149 C   0  0  0  0  0  0  0  0  0  0  0  0
   11.8931  -18.0409   23.7051 C   0  0  1  0  0  0  0  0  0  0  0  0
   12.6793  -18.3682   22.5859 O   0  0  0  0  0  0  0  0  0  0  0  0
   12.0400  -16.5780   24.0521 C   0  0  2  0  0  0  0  0  0  0  0  0
   11.7224  -15.7240   22.9235 N   0  0  0  0  0  0  0  0  0  0  0  0
   13.4384  -16.3620   24.5115 C   0  0  0  0  0  0  0  0  0  0  0  0
   14.2786  -15.7712   23.7920 O   0  0  0  0  0  0  0  0  0  0  0  0
   13.8838  -16.8033   25.7592 O   0  0  0  0  0  0  0  0  0  0  0  0
  2  3  1  0
  2  1  1  1
  3  4  1  0
  4  5  2  0
  4  8  1  0
  6  7  2  0
  6  2  1  0
  9  6  1  0
 10  9  1  0
 10 11  1  6
 12 11  1  0
 12 13  2  0
 14 13  1  0
 15 16  2  0
 15 14  1  0
 16 12  1  0
 17 10  1  0
 17 23  1  0
 18 17  2  0
 20 19  1  6
 21 20  1  0
 22 20  1  0
 22 23  1  6
 24 22  1  0
 25 24  2  0
 26 24  1  0
M  END
$$$$
