DHT.pdb
     RDKit          3D

 26 26  0  0  1  0  0  0  0  0999 V2000
   11.4055  -19.6219   17.6992 N   0  0  0  0  0  0  0  0  0  0  0  0
   11.0076  -18.4884   18.4711 C   0  0  1  0  0  0  0  0  0  0  0  0
    9.5236  -18.4407   18.7415 C   0  0  0  0  0  0  0  0  0  0  0  0
    8.7312  -18.3103   17.4997 C   0  0  0  0  0  0  0  0  0  0  0  0
    9.3515  -18.2114   16.4191 O   0  0  0  0  0  0  0  0  0  0  0  0
   11.6725  -18.5715   19.8251 C   0  0  0  0  0  0  0  0  0  0  0  0
   11.2829  -19.4042   20.6766 O   0  0  0  0  0  0  0  0  0  0  0  0
    7.3482  -18.2971   17.5219 O   0  0  0  0  0  0  0  0  0  0  0  0
   12.7440  -17.7095   20.1481 N   0  0  0  0  0  0  0  0  0  0  0  0
   13.4137  -17.6302   21.4007 C   0  0  1  0  0  0  0  0  0  0  0  0
   14.9059  -17.3421   21.3318 C   0  0  0  0  0  0  0  0  0  0  0  0
   15.6633  -18.4153   20.6656 C   0  0  0  0  0  0  0  0  0  0  0  0
   15.4734  -19.7556   20.5020 C   0  0  0  0  0  0  0  0  0  0  0  0
   16.4944  -20.2713   19.7819 N   0  0  0  0  0  0  0  0  0  0  0  0
   17.3326  -19.2818   19.4834 C   0  0  0  0  0  0  0  0  0  0  0  0
   16.8353  -18.1601   20.0144 N   0  0  0  0  0  0  0  0  0  0  0  0
   12.7570  -16.8196   22.4322 C   0  0  0  0  0  0  0  0  0  0  0  0
   13.2020  -15.6670   22.6551 O   0  0  0  0  0  0  0  0  0  0  0  0
    9.6754  -15.1080   22.6055 C   0  0  0  0  0  0  0  0  0  0  0  0
    9.5639  -16.0944   23.7478 C   0  0  1  0  0  0  0  0  0  0  0  0
    8.9003  -17.2293   23.2484 O   0  0  0  0  0  0  0  0  0  0  0  0
   10.9677  -16.4444   24.1827 C   0  0  2  0  0  0  0  0  0  0  0  0
   11.6486  -17.2587   23.1943 N   0  0  0  0  0  0  0  0  0  0  0  0
   10.8718  -17.1525   25.4875 C   0  0  0  0  0  0  0  0  0  0  0  0
   10.3706  -16.6000   26.4955 O   0  0  0  0  0  0  0  0  0  0  0  0
   11.3322  -18.4602   25.6552 O   0  0  0  0  0  0  0  0  0  0  0  0
  2  3  1  0
  2  1  1  6
  3  4  1  0
  4  5  2  0
  4  8  1  0
  6  7  2  0
  6  2  1  0
  9  6  1  0
 10  9  1  0
 10 11  1  6
 12 11  1  0
 12 13  2  0
 14 13  1  0
 15 16  2  0
 15 14  1  0
 16 12  1  0
 17 10  1  0
 17 23  1  0
 18 17  2  0
 20 19  1  6
 21 20  1  0
 22 20  1  0
 22 23  1  6
 24 22  1  0
 25 24  2  0
 26 24  1  0
M  END
$$$$
