DHT.pdb
     RDKit          3D

 26 26  0  0  1  0  0  0  0  0999 V2000
   10.0284  -16.4201   19.6873 N   0  0  0  0  0  0  0  0  0  0  0  0
    8.6817  -15.9479   19.6391 C   0  0  1  0  0  0  0  0  0  0  0  0
    7.7772  -16.8068   18.7895 C   0  0  0  0  0  0  0  0  0  0  0  0
    8.3336  -17.0430   17.4398 C   0  0  0  0  0  0  0  0  0  0  0  0
    9.5768  -17.0339   17.3111 O   0  0  0  0  0  0  0  0  0  0  0  0
    8.1057  -15.9949   21.0350 C   0  0  0  0  0  0  0  0  0  0  0  0
    6.9357  -15.6040   21.2554 O   0  0  0  0  0  0  0  0  0  0  0  0
    7.5139  -17.2677   16.3485 O   0  0  0  0  0  0  0  0  0  0  0  0
    8.8811  -16.4812   22.1110 N   0  0  0  0  0  0  0  0  0  0  0  0
    8.4948  -16.5172   23.4797 C   0  0  1  0  0  0  0  0  0  0  0  0
    8.8007  -17.8129   24.2158 C   0  0  0  0  0  0  0  0  0  0  0  0
   10.0488  -18.4472   23.7583 C   0  0  0  0  0  0  0  0  0  0  0  0
   10.9312  -18.1962   22.7496 C   0  0  0  0  0  0  0  0  0  0  0  0
   11.9328  -19.1028   22.7905 N   0  0  0  0  0  0  0  0  0  0  0  0
   11.7040  -19.9280   23.8090 C   0  0  0  0  0  0  0  0  0  0  0  0
   10.5683  -19.5364   24.3959 N   0  0  0  0  0  0  0  0  0  0  0  0
    8.8579  -15.3443   24.2826 C   0  0  0  0  0  0  0  0  0  0  0  0
    9.7388  -14.5687   23.8372 O   0  0  0  0  0  0  0  0  0  0  0  0
    6.7765  -11.6716   26.2452 C   0  0  0  0  0  0  0  0  0  0  0  0
    6.8499  -13.0383   25.5994 C   0  0  1  0  0  0  0  0  0  0  0  0
    6.8583  -12.8360   24.2077 O   0  0  0  0  0  0  0  0  0  0  0  0
    8.1375  -13.6852   26.0532 C   0  0  2  0  0  0  0  0  0  0  0  0
    8.2739  -15.0323   25.5331 N   0  0  0  0  0  0  0  0  0  0  0  0
    8.1439  -13.6812   27.5409 C   0  0  0  0  0  0  0  0  0  0  0  0
    7.9964  -14.7392   28.1977 O   0  0  0  0  0  0  0  0  0  0  0  0
    8.3132  -12.5066   28.2769 O   0  0  0  0  0  0  0  0  0  0  0  0
  2  3  1  0
  2  1  1  1
  3  4  1  0
  4  5  2  0
  4  8  1  0
  6  7  2  0
  6  2  1  0
  9  6  1  0
 10  9  1  0
 10 11  1  1
 12 11  1  0
 12 13  2  0
 14 13  1  0
 15 16  2  0
 15 14  1  0
 16 12  1  0
 17 10  1  0
 17 23  1  0
 18 17  2  0
 20 19  1  1
 21 20  1  0
 22 20  1  0
 22 23  1  1
 24 22  1  0
 25 24  2  0
 26 24  1  0
M  END
$$$$
