DHT.pdb
     RDKit          3D

 26 26  0  0  1  0  0  0  0  0999 V2000
    6.1428  -25.2256   28.8363 N   0  0  0  0  0  0  0  0  0  0  0  0
    7.1050  -26.2191   28.4814 C   0  0  1  0  0  0  0  0  0  0  0  0
    7.9120  -25.8594   27.2579 C   0  0  0  0  0  0  0  0  0  0  0  0
    7.0832  -25.8104   26.0340 C   0  0  0  0  0  0  0  0  0  0  0  0
    5.9700  -26.3781   26.0597 O   0  0  0  0  0  0  0  0  0  0  0  0
    8.1006  -26.3488   29.6104 C   0  0  0  0  0  0  0  0  0  0  0  0
    9.1436  -27.0282   29.4657 O   0  0  0  0  0  0  0  0  0  0  0  0
    7.5163  -25.1601   24.8926 O   0  0  0  0  0  0  0  0  0  0  0  0
    7.8670  -25.7043   30.8455 N   0  0  0  0  0  0  0  0  0  0  0  0
    8.7240  -25.7221   31.9808 C   0  0  1  0  0  0  0  0  0  0  0  0
    9.2854  -24.3726   32.4026 C   0  0  0  0  0  0  0  0  0  0  0  0
    9.9612  -23.6668   31.3006 C   0  0  0  0  0  0  0  0  0  0  0  0
   11.2122  -23.7186   30.7609 C   0  0  0  0  0  0  0  0  0  0  0  0
   11.2975  -22.8428   29.7349 N   0  0  0  0  0  0  0  0  0  0  0  0
   10.1212  -22.2332   29.6111 C   0  0  0  0  0  0  0  0  0  0  0  0
    9.3117  -22.7271   30.5535 N   0  0  0  0  0  0  0  0  0  0  0  0
    8.2471  -26.4906   33.1360 C   0  0  0  0  0  0  0  0  0  0  0  0
    7.1462  -26.1719   33.6483 O   0  0  0  0  0  0  0  0  0  0  0  0
    8.4099  -30.4799   36.0101 C   0  0  0  0  0  0  0  0  0  0  0  0
    9.0435  -29.7404   34.8517 C   0  0  1  0  0  0  0  0  0  0  0  0
    8.6755  -30.4218   33.6777 O   0  0  0  0  0  0  0  0  0  0  0  0
    8.4863  -28.3362   34.8515 C   0  0  2  0  0  0  0  0  0  0  0  0
    8.9545  -27.5730   33.7105 N   0  0  0  0  0  0  0  0  0  0  0  0
    8.8892  -27.6914   36.1302 C   0  0  0  0  0  0  0  0  0  0  0  0
    9.9791  -27.0808   36.2390 O   0  0  0  0  0  0  0  0  0  0  0  0
    8.0795  -27.7330   37.2672 O   0  0  0  0  0  0  0  0  0  0  0  0
  2  3  1  0
  2  1  1  1
  3  4  1  0
  4  5  2  0
  4  8  1  0
  6  7  2  0
  6  2  1  0
  9  6  1  0
 10  9  1  0
 10 11  1  1
 12 11  1  0
 12 13  2  0
 14 13  1  0
 15 16  2  0
 15 14  1  0
 16 12  1  0
 17 10  1  0
 17 23  1  0
 18 17  2  0
 20 19  1  1
 21 20  1  0
 22 20  1  0
 22 23  1  6
 24 22  1  0
 25 24  2  0
 26 24  1  0
M  END
$$$$
