DHT.pdb
     RDKit          3D

 26 26  0  0  1  0  0  0  0  0999 V2000
   12.0431  -17.0418   17.8133 N   0  0  0  0  0  0  0  0  0  0  0  0
   12.9541  -16.1948   18.5144 C   0  0  1  0  0  0  0  0  0  0  0  0
   13.2922  -14.9298   17.7640 C   0  0  0  0  0  0  0  0  0  0  0  0
   14.0797  -15.1968   16.5411 C   0  0  0  0  0  0  0  0  0  0  0  0
   13.6050  -15.9938   15.7034 O   0  0  0  0  0  0  0  0  0  0  0  0
   12.3023  -15.7500   19.8028 C   0  0  0  0  0  0  0  0  0  0  0  0
   12.9326  -15.0468   20.6265 O   0  0  0  0  0  0  0  0  0  0  0  0
   15.3029  -14.5896   16.3213 O   0  0  0  0  0  0  0  0  0  0  0  0
   10.9714  -16.1225   20.0950 N   0  0  0  0  0  0  0  0  0  0  0  0
   10.2480  -15.8059   21.2783 C   0  0  1  0  0  0  0  0  0  0  0  0
    8.8447  -15.2585   21.0649 C   0  0  0  0  0  0  0  0  0  0  0  0
    8.8131  -14.1199   20.1313 C   0  0  0  0  0  0  0  0  0  0  0  0
    9.7628  -13.4275   19.4401 C   0  0  0  0  0  0  0  0  0  0  0  0
    9.1703  -12.4605   18.7047 N   0  0  0  0  0  0  0  0  0  0  0  0
    7.8580  -12.5247   18.9152 C   0  0  0  0  0  0  0  0  0  0  0  0
    7.6376  -13.5244   19.7753 N   0  0  0  0  0  0  0  0  0  0  0  0
   10.2742  -16.8183   22.3398 C   0  0  0  0  0  0  0  0  0  0  0  0
    9.4398  -17.7549   22.2887 O   0  0  0  0  0  0  0  0  0  0  0  0
   12.8766  -19.1556   23.2134 C   0  0  0  0  0  0  0  0  0  0  0  0
   12.6180  -18.4558   24.5301 C   0  0  1  0  0  0  0  0  0  0  0  0
   13.6094  -17.4687   24.6733 O   0  0  0  0  0  0  0  0  0  0  0  0
   11.2465  -17.8277   24.4475 C   0  0  2  0  0  0  0  0  0  0  0  0
   11.1858  -16.8039   23.4219 N   0  0  0  0  0  0  0  0  0  0  0  0
   10.9272  -17.2649   25.7871 C   0  0  0  0  0  0  0  0  0  0  0  0
   10.8608  -16.0271   25.9768 O   0  0  0  0  0  0  0  0  0  0  0  0
   10.6866  -18.0811   26.8944 O   0  0  0  0  0  0  0  0  0  0  0  0
  2  3  1  0
  2  1  1  6
  3  4  1  0
  4  5  2  0
  4  8  1  0
  6  7  2  0
  6  2  1  0
  9  6  1  0
 10  9  1  0
 10 11  1  6
 12 11  1  0
 12 13  2  0
 14 13  1  0
 15 16  2  0
 15 14  1  0
 16 12  1  0
 17 10  1  0
 17 23  1  0
 18 17  2  0
 20 19  1  6
 21 20  1  0
 22 20  1  0
 22 23  1  6
 24 22  1  0
 25 24  2  0
 26 24  1  0
M  END
$$$$
