HWI.pdb
     RDKit          3D

 33 35  0  0  1  0  0  0  0  0999 V2000
   27.8989  -21.4865  -15.4955 N   0  0  0  0  0  0  0  0  0  0  0  0
   27.9350  -20.4525  -14.4957 C   0  0  1  0  0  0  0  0  0  0  0  0
   27.2697  -19.1842  -14.9541 C   0  0  0  0  0  0  0  0  0  0  0  0
   28.0707  -18.5685  -16.0133 C   0  0  0  0  0  0  0  0  0  0  0  0
   27.7558  -18.4860  -17.3363 C   0  0  0  0  0  0  0  0  0  0  0  0
   28.7952  -17.8377  -17.9250 N   0  0  0  0  0  0  0  0  0  0  0  0
   29.7243  -17.5220  -17.0317 C   0  0  0  0  0  0  0  0  0  0  0  0
   29.2781  -17.9717  -15.8561 N   0  0  0  0  0  0  0  0  0  0  0  0
   27.2455  -20.9032  -13.2846 C   0  0  0  0  0  0  0  0  0  0  0  0
   26.1844  -21.6038  -13.3353 O   0  0  0  0  0  0  0  0  0  0  0  0
   27.7675  -20.5535  -11.9992 N   0  0  0  0  0  0  0  0  0  0  0  0
   26.9967  -20.8207  -10.8114 C   0  0  1  0  0  0  0  0  0  0  0  0
   27.7004  -20.6397   -9.5299 C   0  0  0  0  0  0  0  0  0  0  0  0
   26.9573  -20.8310   -8.2965 C   0  0  0  0  0  0  0  0  0  0  0  0
   25.7519  -21.4256   -7.9977 C   0  0  0  0  0  0  0  0  0  0  0  0
   25.5114  -21.3411   -6.6579 N   0  0  0  0  0  0  0  0  0  0  0  0
   26.5416  -20.7062   -6.1131 C   0  0  0  0  0  0  0  0  0  0  0  0
   26.7806  -20.3676   -4.7777 C   0  0  0  0  0  0  0  0  0  0  0  0
   27.9341  -19.6958   -4.4098 C   0  0  0  0  0  0  0  0  0  0  0  0
   28.8466  -19.3624   -5.3707 C   0  0  0  0  0  0  0  0  0  0  0  0
   28.5950  -19.7029   -6.6769 C   0  0  0  0  0  0  0  0  0  0  0  0
   27.4561  -20.3718   -7.0750 C   0  0  0  0  0  0  0  0  0  0  0  0
   25.6633  -20.1409  -10.8750 C   0  0  0  0  0  0  0  0  0  0  0  0
   25.5604  -18.8991  -10.8753 O   0  0  0  0  0  0  0  0  0  0  0  0
   22.9760  -20.3271  -14.9938 C   0  0  0  0  0  0  0  0  0  0  0  0
   23.3895  -19.9504  -13.5838 C   0  0  0  0  0  0  0  0  0  0  0  0
   22.6381  -20.7440  -12.5443 C   0  0  2  0  0  0  0  0  0  0  0  0
   21.2103  -20.1650  -12.5516 C   0  0  0  0  0  0  0  0  0  0  0  0
   23.1739  -20.5075  -11.1320 C   0  0  2  0  0  0  0  0  0  0  0  0
   24.5183  -20.9563  -10.9330 N   0  0  0  0  0  0  0  0  0  0  0  0
   22.2377  -20.9636  -10.1196 C   0  0  0  0  0  0  0  0  0  0  0  0
   22.2760  -22.2017   -9.5020 O   0  0  0  0  0  0  0  0  0  0  0  0
   21.2718  -20.2067   -9.7193 O   0  0  0  0  0  0  0  0  0  0  0  0
  2  1  1  6
  2  3  1  0
  3  4  1  0
  4  8  1  0
  4  5  2  0
  5  6  1  0
  7  6  1  0
  8  7  2  0
  9  2  1  0
 10  9  2  0
 11  9  1  0
 12 13  1  1
 12 11  1  0
 13 14  1  0
 14 22  1  0
 14 15  2  0
 15 16  1  0
 17 16  1  0
 17 18  2  0
 19 18  1  0
 20 19  2  0
 21 22  2  0
 21 20  1  0
 22 17  1  0
 23 12  1  0
 24 23  2  0
 26 25  1  0
 27 26  1  0
 27 29  1  0
 27 28  1  1
 29 30  1  6
 30 23  1  0
 31 32  1  0
 31 29  1  0
 33 31  2  0
M  END
$$$$
