HWI.pdb
     RDKit          3D

 33 35  0  0  1  0  0  0  0  0999 V2000
   28.1180  -22.1466  -15.6552 N   0  0  0  0  0  0  0  0  0  0  0  0
   28.0651  -20.9785  -14.8169 C   0  0  1  0  0  0  0  0  0  0  0  0
   27.4681  -19.7911  -15.5203 C   0  0  0  0  0  0  0  0  0  0  0  0
   28.4456  -19.2379  -16.4590 C   0  0  0  0  0  0  0  0  0  0  0  0
   29.5342  -18.4770  -16.1551 C   0  0  0  0  0  0  0  0  0  0  0  0
   30.1347  -18.1983  -17.3420 N   0  0  0  0  0  0  0  0  0  0  0  0
   29.4700  -18.7483  -18.3504 C   0  0  0  0  0  0  0  0  0  0  0  0
   28.4313  -19.3875  -17.8065 N   0  0  0  0  0  0  0  0  0  0  0  0
   27.2483  -21.2497  -13.6317 C   0  0  0  0  0  0  0  0  0  0  0  0
   26.1920  -21.9570  -13.6895 O   0  0  0  0  0  0  0  0  0  0  0  0
   27.6359  -20.7104  -12.3645 N   0  0  0  0  0  0  0  0  0  0  0  0
   26.7854  -20.8887  -11.2149 C   0  0  1  0  0  0  0  0  0  0  0  0
   27.4018  -20.6122   -9.9057 C   0  0  0  0  0  0  0  0  0  0  0  0
   26.5461  -20.5571   -8.7331 C   0  0  0  0  0  0  0  0  0  0  0  0
   25.2100  -20.8126   -8.5210 C   0  0  0  0  0  0  0  0  0  0  0  0
   24.9018  -20.6146   -7.2072 N   0  0  0  0  0  0  0  0  0  0  0  0
   26.0177  -20.2409   -6.5939 C   0  0  0  0  0  0  0  0  0  0  0  0
   26.2373  -19.9197   -5.2509 C   0  0  0  0  0  0  0  0  0  0  0  0
   27.4945  -19.5491   -4.8046 C   0  0  0  0  0  0  0  0  0  0  0  0
   28.5299  -19.4987   -5.6948 C   0  0  0  0  0  0  0  0  0  0  0  0
   28.2956  -19.8174   -7.0097 C   0  0  0  0  0  0  0  0  0  0  0  0
   27.0554  -20.1902   -7.4851 C   0  0  0  0  0  0  0  0  0  0  0  0
   25.4624  -20.2163  -11.4191 C   0  0  0  0  0  0  0  0  0  0  0  0
   25.3598  -18.9758  -11.4754 O   0  0  0  0  0  0  0  0  0  0  0  0
   22.7250  -21.4562  -15.5955 C   0  0  0  0  0  0  0  0  0  0  0  0
   23.1960  -20.7430  -14.3423 C   0  0  0  0  0  0  0  0  0  0  0  0
   22.4125  -21.1650  -13.1245 C   0  0  2  0  0  0  0  0  0  0  0  0
   21.0308  -20.5028  -13.2865 C   0  0  0  0  0  0  0  0  0  0  0  0
   22.9958  -20.5956  -11.8311 C   0  0  2  0  0  0  0  0  0  0  0  0
   24.3267  -21.0371  -11.5447 N   0  0  0  0  0  0  0  0  0  0  0  0
   22.0709  -20.7321  -10.7197 C   0  0  0  0  0  0  0  0  0  0  0  0
   21.8197  -21.9084  -10.0347 O   0  0  0  0  0  0  0  0  0  0  0  0
   21.3988  -19.7187  -10.2868 O   0  0  0  0  0  0  0  0  0  0  0  0
  2  1  1  6
  2  3  1  0
  3  4  1  0
  4  8  1  0
  4  5  2  0
  5  6  1  0
  7  6  1  0
  8  7  2  0
  9  2  1  0
 10  9  2  0
 11  9  1  0
 12 13  1  1
 12 11  1  0
 13 14  1  0
 14 22  1  0
 14 15  2  0
 15 16  1  0
 17 16  1  0
 17 18  2  0
 19 18  1  0
 20 19  2  0
 21 22  2  0
 21 20  1  0
 22 17  1  0
 23 12  1  0
 24 23  2  0
 26 25  1  0
 27 26  1  0
 27 29  1  0
 27 28  1  6
 29 30  1  1
 30 23  1  0
 31 32  1  0
 31 29  1  0
 33 31  2  0
M  END
$$$$
