HWI.pdb
     RDKit          3D

 33 35  0  0  1  0  0  0  0  0999 V2000
   24.8192  -19.1686  -15.7579 N   0  0  0  0  0  0  0  0  0  0  0  0
   24.9161  -18.6318  -14.4265 C   0  0  1  0  0  0  0  0  0  0  0  0
   23.8058  -17.6678  -14.1117 C   0  0  0  0  0  0  0  0  0  0  0  0
   23.9701  -16.4553  -14.9150 C   0  0  0  0  0  0  0  0  0  0  0  0
   24.9654  -15.5308  -14.8096 C   0  0  0  0  0  0  0  0  0  0  0  0
   24.6985  -14.5896  -15.7530 N   0  0  0  0  0  0  0  0  0  0  0  0
   23.5953  -14.8919  -16.4256 C   0  0  0  0  0  0  0  0  0  0  0  0
   23.1478  -16.0395  -15.9097 N   0  0  0  0  0  0  0  0  0  0  0  0
   24.8548  -19.7163  -13.4440 C   0  0  0  0  0  0  0  0  0  0  0  0
   23.8318  -20.4647  -13.3303 O   0  0  0  0  0  0  0  0  0  0  0  0
   25.9694  -19.9540  -12.5791 N   0  0  0  0  0  0  0  0  0  0  0  0
   26.0288  -21.1620  -11.7956 C   0  0  1  0  0  0  0  0  0  0  0  0
   26.4685  -22.3739  -12.5086 C   0  0  0  0  0  0  0  0  0  0  0  0
   25.7698  -22.7570  -13.7231 C   0  0  0  0  0  0  0  0  0  0  0  0
   24.6685  -23.5437  -13.9759 C   0  0  0  0  0  0  0  0  0  0  0  0
   24.4151  -23.5719  -15.3158 N   0  0  0  0  0  0  0  0  0  0  0  0
   25.3352  -22.8190  -15.9054 C   0  0  0  0  0  0  0  0  0  0  0  0
   25.5164  -22.5225  -17.2598 C   0  0  0  0  0  0  0  0  0  0  0  0
   26.5523  -21.7035  -17.6762 C   0  0  0  0  0  0  0  0  0  0  0  0
   27.4052  -21.1818  -16.7448 C   0  0  0  0  0  0  0  0  0  0  0  0
   27.2120  -21.4840  -15.4194 C   0  0  0  0  0  0  0  0  0  0  0  0
   26.1900  -22.2961  -14.9731 C   0  0  0  0  0  0  0  0  0  0  0  0
   26.7431  -20.9248  -10.5004 C   0  0  0  0  0  0  0  0  0  0  0  0
   27.9317  -20.5525  -10.4665 O   0  0  0  0  0  0  0  0  0  0  0  0
   28.4725  -18.2748   -6.0403 C   0  0  0  0  0  0  0  0  0  0  0  0
   27.7702  -19.5946   -6.2973 C   0  0  0  0  0  0  0  0  0  0  0  0
   27.1744  -19.6567   -7.6816 C   0  0  2  0  0  0  0  0  0  0  0  0
   26.0122  -18.6453   -7.6643 C   0  0  0  0  0  0  0  0  0  0  0  0
   26.5380  -21.0142   -7.9809 C   0  0  2  0  0  0  0  0  0  0  0  0
   26.0236  -21.1392   -9.3106 N   0  0  0  0  0  0  0  0  0  0  0  0
   25.6043  -21.4100   -6.9413 C   0  0  0  0  0  0  0  0  0  0  0  0
   25.9571  -21.7781   -5.6545 O   0  0  0  0  0  0  0  0  0  0  0  0
   24.3339  -21.4435   -7.1674 O   0  0  0  0  0  0  0  0  0  0  0  0
  2  1  1  6
  2  3  1  0
  3  4  1  0
  4  8  1  0
  4  5  2  0
  5  6  1  0
  7  6  1  0
  8  7  2  0
  9  2  1  0
 10  9  2  0
 11  9  1  0
 12 13  1  6
 12 11  1  0
 13 14  1  0
 14 22  1  0
 14 15  2  0
 15 16  1  0
 17 16  1  0
 17 18  2  0
 19 18  1  0
 20 19  2  0
 21 22  2  0
 21 20  1  0
 22 17  1  0
 23 12  1  0
 24 23  2  0
 26 25  1  0
 27 26  1  0
 27 29  1  0
 27 28  1  1
 29 30  1  6
 30 23  1  0
 31 32  1  0
 31 29  1  0
 33 31  2  0
M  END
$$$$
