HWI.pdb
     RDKit          3D

 33 35  0  0  1  0  0  0  0  0999 V2000
   27.8551  -21.5098  -15.5236 N   0  0  0  0  0  0  0  0  0  0  0  0
   27.3849  -20.4340  -14.6920 C   0  0  1  0  0  0  0  0  0  0  0  0
   26.7237  -19.3402  -15.4841 C   0  0  0  0  0  0  0  0  0  0  0  0
   27.7304  -18.6396  -16.2831 C   0  0  0  0  0  0  0  0  0  0  0  0
   28.1637  -18.9730  -17.5311 C   0  0  0  0  0  0  0  0  0  0  0  0
   29.0967  -18.0414  -17.8607 N   0  0  0  0  0  0  0  0  0  0  0  0
   29.2539  -17.1604  -16.8809 C   0  0  0  0  0  0  0  0  0  0  0  0
   28.4132  -17.5289  -15.9109 N   0  0  0  0  0  0  0  0  0  0  0  0
   26.4050  -20.9386  -13.7275 C   0  0  0  0  0  0  0  0  0  0  0  0
   25.5694  -21.8493  -14.0306 O   0  0  0  0  0  0  0  0  0  0  0  0
   26.3731  -20.4019  -12.4016 N   0  0  0  0  0  0  0  0  0  0  0  0
   25.3604  -20.8356  -11.4727 C   0  0  1  0  0  0  0  0  0  0  0  0
   25.6889  -20.6903  -10.0440 C   0  0  0  0  0  0  0  0  0  0  0  0
   27.0513  -20.9541   -9.6144 C   0  0  0  0  0  0  0  0  0  0  0  0
   28.0830  -21.7011  -10.1372 C   0  0  0  0  0  0  0  0  0  0  0  0
   29.1800  -21.6058   -9.3325 N   0  0  0  0  0  0  0  0  0  0  0  0
   28.8554  -20.8145   -8.3178 C   0  0  0  0  0  0  0  0  0  0  0  0
   29.6220  -20.3998   -7.2245 C   0  0  0  0  0  0  0  0  0  0  0  0
   29.0904  -19.5598   -6.2607 C   0  0  0  0  0  0  0  0  0  0  0  0
   27.7980  -19.1344   -6.3867 C   0  0  0  0  0  0  0  0  0  0  0  0
   27.0602  -19.5520   -7.4669 C   0  0  0  0  0  0  0  0  0  0  0  0
   27.5609  -20.3881   -8.4433 C   0  0  0  0  0  0  0  0  0  0  0  0
   24.0191  -20.2844  -11.8480 C   0  0  0  0  0  0  0  0  0  0  0  0
   23.8670  -19.0882  -12.1623 O   0  0  0  0  0  0  0  0  0  0  0  0
   20.3581  -20.8558  -16.0931 C   0  0  0  0  0  0  0  0  0  0  0  0
   20.2949  -20.8971  -14.5781 C   0  0  0  0  0  0  0  0  0  0  0  0
   21.6455  -21.1686  -13.9640 C   0  0  2  0  0  0  0  0  0  0  0  0
   21.8810  -22.6782  -14.1632 C   0  0  0  0  0  0  0  0  0  0  0  0
   21.6531  -20.9441  -12.4518 C   0  0  2  0  0  0  0  0  0  0  0  0
   22.9241  -21.1675  -11.8330 N   0  0  0  0  0  0  0  0  0  0  0  0
   20.5466  -21.6250  -11.8026 C   0  0  0  0  0  0  0  0  0  0  0  0
   20.6745  -22.6578  -10.8900 O   0  0  0  0  0  0  0  0  0  0  0  0
   19.3245  -21.2918  -12.0506 O   0  0  0  0  0  0  0  0  0  0  0  0
  2  1  1  6
  2  3  1  0
  3  4  1  0
  4  8  1  0
  4  5  2  0
  5  6  1  0
  7  6  1  0
  8  7  2  0
  9  2  1  0
 10  9  2  0
 11  9  1  0
 12 13  1  1
 12 11  1  0
 13 14  1  0
 14 22  1  0
 14 15  2  0
 15 16  1  0
 17 16  1  0
 17 18  2  0
 19 18  1  0
 20 19  2  0
 21 22  2  0
 21 20  1  0
 22 17  1  0
 23 12  1  0
 24 23  2  0
 26 25  1  0
 27 26  1  0
 27 29  1  0
 27 28  1  1
 29 30  1  1
 30 23  1  0
 31 32  1  0
 31 29  1  0
 33 31  2  0
M  END
$$$$
