HWI.pdb
     RDKit          3D

 33 35  0  0  1  0  0  0  0  0999 V2000
   27.1676  -22.2208  -14.6218 N   0  0  0  0  0  0  0  0  0  0  0  0
   26.8767  -20.9989  -13.9201 C   0  0  1  0  0  0  0  0  0  0  0  0
   25.6979  -20.2677  -14.5008 C   0  0  0  0  0  0  0  0  0  0  0  0
   26.1447  -19.4277  -15.6132 C   0  0  0  0  0  0  0  0  0  0  0  0
   26.9898  -19.7834  -16.6209 C   0  0  0  0  0  0  0  0  0  0  0  0
   27.1113  -18.6826  -17.4087 N   0  0  0  0  0  0  0  0  0  0  0  0
   26.3861  -17.6776  -16.9343 C   0  0  0  0  0  0  0  0  0  0  0  0
   25.7918  -18.1366  -15.8300 N   0  0  0  0  0  0  0  0  0  0  0  0
   26.5728  -21.2879  -12.5168 C   0  0  0  0  0  0  0  0  0  0  0  0
   25.6731  -22.1228  -12.1809 O   0  0  0  0  0  0  0  0  0  0  0  0
   27.2998  -20.6198  -11.4813 N   0  0  0  0  0  0  0  0  0  0  0  0
   26.9624  -20.8511  -10.0995 C   0  0  1  0  0  0  0  0  0  0  0  0
   28.0228  -20.5627   -9.1183 C   0  0  0  0  0  0  0  0  0  0  0  0
   27.6510  -19.9535   -7.8530 C   0  0  0  0  0  0  0  0  0  0  0  0
   26.6222  -19.1248   -7.4652 C   0  0  0  0  0  0  0  0  0  0  0  0
   26.7277  -18.8442   -6.1347 N   0  0  0  0  0  0  0  0  0  0  0  0
   27.8011  -19.4806   -5.6830 C   0  0  0  0  0  0  0  0  0  0  0  0
   28.3431  -19.5197   -4.3947 C   0  0  0  0  0  0  0  0  0  0  0  0
   29.4856  -20.2542   -4.1257 C   0  0  0  0  0  0  0  0  0  0  0  0
   30.0860  -20.9478   -5.1384 C   0  0  0  0  0  0  0  0  0  0  0  0
   29.5397  -20.8976   -6.3972 C   0  0  0  0  0  0  0  0  0  0  0  0
   28.4031  -20.1755   -6.6969 C   0  0  0  0  0  0  0  0  0  0  0  0
   25.6380  -20.2376   -9.7626 C   0  0  0  0  0  0  0  0  0  0  0  0
   25.3089  -19.1141  -10.1892 O   0  0  0  0  0  0  0  0  0  0  0  0
   22.2867  -20.1024  -12.4649 C   0  0  0  0  0  0  0  0  0  0  0  0
   22.9277  -19.8472  -11.1140 C   0  0  0  0  0  0  0  0  0  0  0  0
   22.5780  -20.9188  -10.1118 C   0  0  2  0  0  0  0  0  0  0  0  0
   21.1027  -20.6627   -9.7484 C   0  0  0  0  0  0  0  0  0  0  0  0
   23.3583  -20.7710   -8.8054 C   0  0  2  0  0  0  0  0  0  0  0  0
   24.7684  -20.9760   -8.9392 N   0  0  0  0  0  0  0  0  0  0  0  0
   22.7463  -21.5265   -7.7265 C   0  0  0  0  0  0  0  0  0  0  0  0
   21.7602  -21.0480   -6.8811 O   0  0  0  0  0  0  0  0  0  0  0  0
   23.1028  -22.7427   -7.4820 O   0  0  0  0  0  0  0  0  0  0  0  0
  2  1  1  6
  2  3  1  0
  3  4  1  0
  4  8  1  0
  4  5  2  0
  5  6  1  0
  7  6  1  0
  8  7  2  0
  9  2  1  0
 10  9  2  0
 11  9  1  0
 12 13  1  1
 12 11  1  0
 13 14  1  0
 14 22  1  0
 14 15  2  0
 15 16  1  0
 17 16  1  0
 17 18  2  0
 19 18  1  0
 20 19  2  0
 21 22  2  0
 21 20  1  0
 22 17  1  0
 23 12  1  0
 24 23  2  0
 26 25  1  0
 27 26  1  0
 27 29  1  0
 27 28  1  1
 29 30  1  6
 30 23  1  0
 31 32  1  0
 31 29  1  0
 33 31  2  0
M  END
$$$$
