HWI.pdb
     RDKit          3D

 33 35  0  0  1  0  0  0  0  0999 V2000
   24.1396  -20.7034  -14.1590 N   0  0  0  0  0  0  0  0  0  0  0  0
   23.3440  -19.9889  -13.1965 C   0  0  1  0  0  0  0  0  0  0  0  0
   21.9324  -19.7685  -13.6656 C   0  0  0  0  0  0  0  0  0  0  0  0
   21.9124  -18.7028  -14.6688 C   0  0  0  0  0  0  0  0  0  0  0  0
   21.3218  -17.4803  -14.5542 C   0  0  0  0  0  0  0  0  0  0  0  0
   21.5626  -16.8407  -15.7291 N   0  0  0  0  0  0  0  0  0  0  0  0
   22.2672  -17.6082  -16.5509 C   0  0  0  0  0  0  0  0  0  0  0  0
   22.4821  -18.7532  -15.8982 N   0  0  0  0  0  0  0  0  0  0  0  0
   23.2826  -20.7408  -11.9411 C   0  0  0  0  0  0  0  0  0  0  0  0
   22.8826  -21.9481  -11.8983 O   0  0  0  0  0  0  0  0  0  0  0  0
   23.6803  -20.1135  -10.7182 N   0  0  0  0  0  0  0  0  0  0  0  0
   23.5962  -20.8387   -9.4758 C   0  0  1  0  0  0  0  0  0  0  0  0
   24.6031  -20.4943   -8.4570 C   0  0  0  0  0  0  0  0  0  0  0  0
   26.0038  -20.7387   -8.7545 C   0  0  0  0  0  0  0  0  0  0  0  0
   26.6564  -21.3991   -9.7712 C   0  0  0  0  0  0  0  0  0  0  0  0
   28.0051  -21.3271   -9.5817 N   0  0  0  0  0  0  0  0  0  0  0  0
   28.2089  -20.6352   -8.4678 C   0  0  0  0  0  0  0  0  0  0  0  0
   29.4069  -20.2819   -7.8393 C   0  0  0  0  0  0  0  0  0  0  0  0
   29.4047  -19.5454   -6.6668 C   0  0  0  0  0  0  0  0  0  0  0  0
   28.2114  -19.1623   -6.1224 C   0  0  0  0  0  0  0  0  0  0  0  0
   27.0450  -19.5184   -6.7534 C   0  0  0  0  0  0  0  0  0  0  0  0
   27.0140  -20.2511   -7.9218 C   0  0  0  0  0  0  0  0  0  0  0  0
   22.1898  -20.8553   -8.9604 C   0  0  0  0  0  0  0  0  0  0  0  0
   21.4597  -19.8471   -9.0160 O   0  0  0  0  0  0  0  0  0  0  0  0
   17.0845  -23.6640   -9.3400 C   0  0  0  0  0  0  0  0  0  0  0  0
   18.0678  -23.1602   -8.3006 C   0  0  0  0  0  0  0  0  0  0  0  0
   19.4434  -22.9473   -8.8814 C   0  0  2  0  0  0  0  0  0  0  0  0
   20.0038  -24.3632   -9.1162 C   0  0  0  0  0  0  0  0  0  0  0  0
   20.3979  -22.2831   -7.8889 C   0  0  2  0  0  0  0  0  0  0  0  0
   21.7138  -22.0566   -8.4040 N   0  0  0  0  0  0  0  0  0  0  0  0
   20.3700  -22.9418   -6.5948 C   0  0  0  0  0  0  0  0  0  0  0  0
   21.4522  -23.5633   -5.9960 O   0  0  0  0  0  0  0  0  0  0  0  0
   19.2854  -22.9884   -5.8966 O   0  0  0  0  0  0  0  0  0  0  0  0
  2  1  1  6
  2  3  1  0
  3  4  1  0
  4  8  1  0
  4  5  2  0
  5  6  1  0
  7  6  1  0
  8  7  2  0
  9  2  1  0
 10  9  2  0
 11  9  1  0
 12 13  1  1
 12 11  1  0
 13 14  1  0
 14 22  1  0
 14 15  2  0
 15 16  1  0
 17 16  1  0
 17 18  2  0
 19 18  1  0
 20 19  2  0
 21 22  2  0
 21 20  1  0
 22 17  1  0
 23 12  1  0
 24 23  2  0
 26 25  1  0
 27 26  1  0
 27 29  1  0
 27 28  1  1
 29 30  1  6
 30 23  1  0
 31 32  1  0
 31 29  1  0
 33 31  2  0
M  END
$$$$
