HWI.pdb
     RDKit          3D

 33 35  0  0  1  0  0  0  0  0999 V2000
   27.8537  -23.4971  -16.7176 N   0  0  0  0  0  0  0  0  0  0  0  0
   27.8004  -22.1646  -16.1777 C   0  0  1  0  0  0  0  0  0  0  0  0
   27.2048  -21.1757  -17.1414 C   0  0  0  0  0  0  0  0  0  0  0  0
   28.1868  -20.8521  -18.1774 C   0  0  0  0  0  0  0  0  0  0  0  0
   28.3025  -21.4295  -19.4061 C   0  0  0  0  0  0  0  0  0  0  0  0
   29.3508  -20.8098  -20.0096 N   0  0  0  0  0  0  0  0  0  0  0  0
   29.8783  -19.8876  -19.2144 C   0  0  0  0  0  0  0  0  0  0  0  0
   29.1619  -19.9141  -18.0878 N   0  0  0  0  0  0  0  0  0  0  0  0
   26.9821  -22.1492  -14.9630 C   0  0  0  0  0  0  0  0  0  0  0  0
   25.8203  -22.6671  -14.9274 O   0  0  0  0  0  0  0  0  0  0  0  0
   27.4896  -21.5375  -13.7733 N   0  0  0  0  0  0  0  0  0  0  0  0
   26.6976  -21.5363  -12.5694 C   0  0  1  0  0  0  0  0  0  0  0  0
   27.4366  -21.3423  -11.3098 C   0  0  0  0  0  0  0  0  0  0  0  0
   26.6926  -20.9737  -10.1179 C   0  0  0  0  0  0  0  0  0  0  0  0
   25.3533  -20.7957   -9.8529 C   0  0  0  0  0  0  0  0  0  0  0  0
   25.1799  -20.4533   -8.5441 N   0  0  0  0  0  0  0  0  0  0  0  0
   26.3831  -20.4139   -7.9857 C   0  0  0  0  0  0  0  0  0  0  0  0
   26.7506  -20.1155   -6.6701 C   0  0  0  0  0  0  0  0  0  0  0  0
   28.0797  -20.1299   -6.2822 C   0  0  0  0  0  0  0  0  0  0  0  0
   29.0397  -20.4408   -7.2035 C   0  0  0  0  0  0  0  0  0  0  0  0
   28.6602  -20.7310   -8.4908 C   0  0  0  0  0  0  0  0  0  0  0  0
   27.3453  -20.7252   -8.9080 C   0  0  0  0  0  0  0  0  0  0  0  0
   25.5017  -20.6464  -12.7169 C   0  0  0  0  0  0  0  0  0  0  0  0
   25.6147  -19.4107  -12.8303 O   0  0  0  0  0  0  0  0  0  0  0  0
   23.0571  -20.1888  -16.7868 C   0  0  0  0  0  0  0  0  0  0  0  0
   23.4886  -20.0256  -15.3417 C   0  0  0  0  0  0  0  0  0  0  0  0
   22.4939  -20.6319  -14.3837 C   0  0  2  0  0  0  0  0  0  0  0  0
   21.2673  -19.7009  -14.4358 C   0  0  0  0  0  0  0  0  0  0  0  0
   22.9824  -20.5931  -12.9355 C   0  0  2  0  0  0  0  0  0  0  0  0
   24.2333  -21.2549  -12.7216 N   0  0  0  0  0  0  0  0  0  0  0  0
   21.9364  -20.9816  -12.0058 C   0  0  0  0  0  0  0  0  0  0  0  0
   21.2302  -20.1100  -11.1948 O   0  0  0  0  0  0  0  0  0  0  0  0
   21.5891  -22.2179  -11.8757 O   0  0  0  0  0  0  0  0  0  0  0  0
  2  1  1  6
  2  3  1  0
  3  4  1  0
  4  8  1  0
  4  5  2  0
  5  6  1  0
  7  6  1  0
  8  7  2  0
  9  2  1  0
 10  9  2  0
 11  9  1  0
 12 13  1  1
 12 11  1  0
 13 14  1  0
 14 22  1  0
 14 15  2  0
 15 16  1  0
 17 16  1  0
 17 18  2  0
 19 18  1  0
 20 19  2  0
 21 22  2  0
 21 20  1  0
 22 17  1  0
 23 12  1  0
 24 23  2  0
 26 25  1  0
 27 26  1  0
 27 29  1  0
 27 28  1  1
 29 30  1  6
 30 23  1  0
 31 32  1  0
 31 29  1  0
 33 31  2  0
M  END
$$$$
