HWI.pdb
     RDKit          3D

 33 35  0  0  1  0  0  0  0  0999 V2000
   28.3892  -21.2501  -14.7590 N   0  0  0  0  0  0  0  0  0  0  0  0
   28.1047  -20.3611  -13.6641 C   0  0  1  0  0  0  0  0  0  0  0  0
   27.5418  -19.0442  -14.1224 C   0  0  0  0  0  0  0  0  0  0  0  0
   28.5113  -18.3752  -14.9914 C   0  0  0  0  0  0  0  0  0  0  0  0
   29.8509  -18.2463  -14.7783 C   0  0  0  0  0  0  0  0  0  0  0  0
   30.3308  -17.5532  -15.8444 N   0  0  0  0  0  0  0  0  0  0  0  0
   29.3557  -17.2540  -16.6934 C   0  0  0  0  0  0  0  0  0  0  0  0
   28.2370  -17.7599  -16.1682 N   0  0  0  0  0  0  0  0  0  0  0  0
   27.1252  -20.9736  -12.7637 C   0  0  0  0  0  0  0  0  0  0  0  0
   26.0959  -21.5808  -13.2013 O   0  0  0  0  0  0  0  0  0  0  0  0
   27.3167  -20.8955  -11.3480 N   0  0  0  0  0  0  0  0  0  0  0  0
   26.2778  -21.3417  -10.4546 C   0  0  1  0  0  0  0  0  0  0  0  0
   26.6786  -21.5563   -9.0533 C   0  0  0  0  0  0  0  0  0  0  0  0
   26.8143  -20.3998   -8.1849 C   0  0  0  0  0  0  0  0  0  0  0  0
   26.4379  -19.0801   -8.2968 C   0  0  0  0  0  0  0  0  0  0  0  0
   26.8011  -18.3964   -7.1740 N   0  0  0  0  0  0  0  0  0  0  0  0
   27.3966  -19.2615   -6.3627 C   0  0  0  0  0  0  0  0  0  0  0  0
   27.9481  -19.0650   -5.0929 C   0  0  0  0  0  0  0  0  0  0  0  0
   28.5313  -20.1130   -4.4008 C   0  0  0  0  0  0  0  0  0  0  0  0
   28.5646  -21.3533   -4.9733 C   0  0  0  0  0  0  0  0  0  0  0  0
   28.0182  -21.5274   -6.2209 C   0  0  0  0  0  0  0  0  0  0  0  0
   27.4304  -20.5041   -6.9354 C   0  0  0  0  0  0  0  0  0  0  0  0
   25.0420  -20.5102  -10.6138 C   0  0  0  0  0  0  0  0  0  0  0  0
   25.0757  -19.2666  -10.5439 O   0  0  0  0  0  0  0  0  0  0  0  0
   23.1419  -20.2375  -15.0442 C   0  0  0  0  0  0  0  0  0  0  0  0
   23.3894  -20.0496  -13.5594 C   0  0  0  0  0  0  0  0  0  0  0  0
   22.2893  -20.6538  -12.7229 C   0  0  2  0  0  0  0  0  0  0  0  0
   21.0664  -19.7446  -12.9503 C   0  0  0  0  0  0  0  0  0  0  0  0
   22.5887  -20.5788  -11.2255 C   0  0  2  0  0  0  0  0  0  0  0  0
   23.8288  -21.1838  -10.8453 N   0  0  0  0  0  0  0  0  0  0  0  0
   21.4505  -21.0021  -10.4289 C   0  0  0  0  0  0  0  0  0  0  0  0
   20.5198  -20.1513   -9.8578 O   0  0  0  0  0  0  0  0  0  0  0  0
   21.2309  -22.2526  -10.1964 O   0  0  0  0  0  0  0  0  0  0  0  0
  2  1  1  6
  2  3  1  0
  3  4  1  0
  4  8  1  0
  4  5  2  0
  5  6  1  0
  7  6  1  0
  8  7  2  0
  9  2  1  0
 10  9  2  0
 11  9  1  0
 12 13  1  1
 12 11  1  0
 13 14  1  0
 14 22  1  0
 14 15  2  0
 15 16  1  0
 17 16  1  0
 17 18  2  0
 19 18  1  0
 20 19  2  0
 21 22  2  0
 21 20  1  0
 22 17  1  0
 23 12  1  0
 24 23  2  0
 26 25  1  0
 27 26  1  0
 27 29  1  0
 27 28  1  1
 29 30  1  6
 30 23  1  0
 31 32  1  0
 31 29  1  0
 33 31  2  0
M  END
$$$$
