HWI.pdb
     RDKit          3D

 33 35  0  0  1  0  0  0  0  0999 V2000
   26.5728  -21.3152  -16.5419 N   0  0  0  0  0  0  0  0  0  0  0  0
   27.4839  -21.3807  -15.4304 C   0  0  1  0  0  0  0  0  0  0  0  0
   28.7926  -20.6978  -15.7171 C   0  0  0  0  0  0  0  0  0  0  0  0
   29.5030  -21.4265  -16.7692 C   0  0  0  0  0  0  0  0  0  0  0  0
   29.8530  -20.9562  -17.9991 C   0  0  0  0  0  0  0  0  0  0  0  0
   30.4865  -21.9843  -18.6226 N   0  0  0  0  0  0  0  0  0  0  0  0
   30.5402  -23.0536  -17.8385 C   0  0  0  0  0  0  0  0  0  0  0  0
   29.9351  -22.7098  -16.6987 N   0  0  0  0  0  0  0  0  0  0  0  0
   26.8914  -20.7315  -14.2587 C   0  0  0  0  0  0  0  0  0  0  0  0
   26.8785  -19.4661  -14.1248 O   0  0  0  0  0  0  0  0  0  0  0  0
   26.3063  -21.5297  -13.2255 N   0  0  0  0  0  0  0  0  0  0  0  0
   25.5514  -20.9023  -12.1705 C   0  0  1  0  0  0  0  0  0  0  0  0
   24.0881  -20.8906  -12.3417 C   0  0  0  0  0  0  0  0  0  0  0  0
   23.5168  -20.0475  -13.3774 C   0  0  0  0  0  0  0  0  0  0  0  0
   23.9926  -18.9741  -14.0964 C   0  0  0  0  0  0  0  0  0  0  0  0
   23.0395  -18.5410  -14.9706 N   0  0  0  0  0  0  0  0  0  0  0  0
   21.9781  -19.3217  -14.8130 C   0  0  0  0  0  0  0  0  0  0  0  0
   20.7424  -19.2963  -15.4669 C   0  0  0  0  0  0  0  0  0  0  0  0
   19.7525  -20.2119  -15.1527 C   0  0  0  0  0  0  0  0  0  0  0  0
   19.9938  -21.1502  -14.1891 C   0  0  0  0  0  0  0  0  0  0  0  0
   21.2130  -21.1600  -13.5575 C   0  0  0  0  0  0  0  0  0  0  0  0
   22.2190  -20.2618  -13.8478 C   0  0  0  0  0  0  0  0  0  0  0  0
   26.0033  -21.3883  -10.8276 C   0  0  0  0  0  0  0  0  0  0  0  0
   26.4547  -22.5382  -10.6649 O   0  0  0  0  0  0  0  0  0  0  0  0
   29.5052  -19.4656   -7.3785 C   0  0  0  0  0  0  0  0  0  0  0  0
   28.4705  -20.3117   -8.0957 C   0  0  0  0  0  0  0  0  0  0  0  0
   27.0727  -20.0325   -7.6025 C   0  0  2  0  0  0  0  0  0  0  0  0
   27.0446  -20.5606   -6.1553 C   0  0  0  0  0  0  0  0  0  0  0  0
   26.0167  -20.8391   -8.3585 C   0  0  2  0  0  0  0  0  0  0  0  0
   25.8997  -20.4976   -9.7435 N   0  0  0  0  0  0  0  0  0  0  0  0
   24.7527  -20.8710   -7.6440 C   0  0  0  0  0  0  0  0  0  0  0  0
   23.5972  -20.2223   -8.0440 O   0  0  0  0  0  0  0  0  0  0  0  0
   24.6279  -21.5357   -6.5447 O   0  0  0  0  0  0  0  0  0  0  0  0
  2  1  1  6
  2  3  1  0
  3  4  1  0
  4  8  1  0
  4  5  2  0
  5  6  1  0
  7  6  1  0
  8  7  2  0
  9  2  1  0
 10  9  2  0
 11  9  1  0
 12 13  1  6
 12 11  1  0
 13 14  1  0
 14 22  1  0
 14 15  2  0
 15 16  1  0
 17 16  1  0
 17 18  2  0
 19 18  1  0
 20 19  2  0
 21 22  2  0
 21 20  1  0
 22 17  1  0
 23 12  1  0
 24 23  2  0
 26 25  1  0
 27 26  1  0
 27 29  1  0
 27 28  1  1
 29 30  1  6
 30 23  1  0
 31 32  1  0
 31 29  1  0
 33 31  2  0
M  END
$$$$
