HWI.pdb
     RDKit          3D

 33 35  0  0  1  0  0  0  0  0999 V2000
   28.1086  -21.2854  -14.9365 N   0  0  0  0  0  0  0  0  0  0  0  0
   27.5386  -20.2727  -14.0883 C   0  0  1  0  0  0  0  0  0  0  0  0
   26.7818  -19.2303  -14.8640 C   0  0  0  0  0  0  0  0  0  0  0  0
   27.7288  -18.3283  -15.5215 C   0  0  0  0  0  0  0  0  0  0  0  0
   29.0880  -18.4234  -15.5191 C   0  0  0  0  0  0  0  0  0  0  0  0
   29.5346  -17.3699  -16.2524 N   0  0  0  0  0  0  0  0  0  0  0  0
   28.5208  -16.6400  -16.7001 C   0  0  0  0  0  0  0  0  0  0  0  0
   27.4104  -17.2301  -16.2502 N   0  0  0  0  0  0  0  0  0  0  0  0
   26.6063  -20.8828  -13.1376 C   0  0  0  0  0  0  0  0  0  0  0  0
   25.8944  -21.8916  -13.4459 O   0  0  0  0  0  0  0  0  0  0  0  0
   26.4805  -20.3402  -11.8197 N   0  0  0  0  0  0  0  0  0  0  0  0
   25.4508  -20.8253  -10.9359 C   0  0  1  0  0  0  0  0  0  0  0  0
   25.7162  -20.6815   -9.4939 C   0  0  0  0  0  0  0  0  0  0  0  0
   27.0521  -20.9695   -9.0016 C   0  0  0  0  0  0  0  0  0  0  0  0
   28.1102  -21.6965   -9.4991 C   0  0  0  0  0  0  0  0  0  0  0  0
   29.1610  -21.6414   -8.6313 N   0  0  0  0  0  0  0  0  0  0  0  0
   28.7814  -20.8948   -7.6019 C   0  0  0  0  0  0  0  0  0  0  0  0
   29.4866  -20.5323   -6.4502 C   0  0  0  0  0  0  0  0  0  0  0  0
   28.9033  -19.7339   -5.4809 C   0  0  0  0  0  0  0  0  0  0  0  0
   27.6205  -19.2983   -5.6593 C   0  0  0  0  0  0  0  0  0  0  0  0
   26.9434  -19.6645   -6.7964 C   0  0  0  0  0  0  0  0  0  0  0  0
   27.4965  -20.4582   -7.7799 C   0  0  0  0  0  0  0  0  0  0  0  0
   24.1035  -20.3263  -11.3597 C   0  0  0  0  0  0  0  0  0  0  0  0
   23.8861  -19.1155  -11.5582 O   0  0  0  0  0  0  0  0  0  0  0  0
   20.4272  -21.0268  -15.7376 C   0  0  0  0  0  0  0  0  0  0  0  0
   20.4029  -20.9768  -14.2217 C   0  0  0  0  0  0  0  0  0  0  0  0
   21.7470  -21.3104  -13.6243 C   0  0  2  0  0  0  0  0  0  0  0  0
   21.8874  -22.8370  -13.7785 C   0  0  0  0  0  0  0  0  0  0  0  0
   21.7991  -21.0393  -12.1206 C   0  0  2  0  0  0  0  0  0  0  0  0
   23.0796  -21.2764  -11.5268 N   0  0  0  0  0  0  0  0  0  0  0  0
   20.6929  -21.6708  -11.4229 C   0  0  0  0  0  0  0  0  0  0  0  0
   19.3824  -21.2257  -11.4436 O   0  0  0  0  0  0  0  0  0  0  0  0
   20.8759  -22.7315  -10.7104 O   0  0  0  0  0  0  0  0  0  0  0  0
  2  1  1  6
  2  3  1  0
  3  4  1  0
  4  8  1  0
  4  5  2  0
  5  6  1  0
  7  6  1  0
  8  7  2  0
  9  2  1  0
 10  9  2  0
 11  9  1  0
 12 13  1  1
 12 11  1  0
 13 14  1  0
 14 22  1  0
 14 15  2  0
 15 16  1  0
 17 16  1  0
 17 18  2  0
 19 18  1  0
 20 19  2  0
 21 22  2  0
 21 20  1  0
 22 17  1  0
 23 12  1  0
 24 23  2  0
 26 25  1  0
 27 26  1  0
 27 29  1  0
 27 28  1  1
 29 30  1  1
 30 23  1  0
 31 32  1  0
 31 29  1  0
 33 31  2  0
M  END
$$$$
