HWI.pdb
     RDKit          3D

 33 35  0  0  1  0  0  0  0  0999 V2000
   27.9417  -22.4300  -15.8913 N   0  0  0  0  0  0  0  0  0  0  0  0
   27.9537  -21.2332  -15.0929 C   0  0  1  0  0  0  0  0  0  0  0  0
   27.3549  -20.0555  -15.8110 C   0  0  0  0  0  0  0  0  0  0  0  0
   28.3909  -19.3868  -16.5998 C   0  0  0  0  0  0  0  0  0  0  0  0
   29.1494  -19.9355  -17.5898 C   0  0  0  0  0  0  0  0  0  0  0  0
   29.9686  -18.9415  -18.0232 N   0  0  0  0  0  0  0  0  0  0  0  0
   29.7491  -17.8189  -17.3504 C   0  0  0  0  0  0  0  0  0  0  0  0
   28.7786  -18.0935  -16.4752 N   0  0  0  0  0  0  0  0  0  0  0  0
   27.1836  -21.4432  -13.8649 C   0  0  0  0  0  0  0  0  0  0  0  0
   26.0391  -21.9996  -13.8747 O   0  0  0  0  0  0  0  0  0  0  0  0
   27.7199  -21.0155  -12.6093 N   0  0  0  0  0  0  0  0  0  0  0  0
   26.9121  -21.0887  -11.4182 C   0  0  1  0  0  0  0  0  0  0  0  0
   27.6234  -20.8989  -10.1421 C   0  0  0  0  0  0  0  0  0  0  0  0
   26.8474  -20.8496   -8.9151 C   0  0  0  0  0  0  0  0  0  0  0  0
   25.5296  -21.1124   -8.6150 C   0  0  0  0  0  0  0  0  0  0  0  0
   25.3084  -20.9174   -7.2833 N   0  0  0  0  0  0  0  0  0  0  0  0
   26.4607  -20.5384   -6.7451 C   0  0  0  0  0  0  0  0  0  0  0  0
   26.7674  -20.2173   -5.4192 C   0  0  0  0  0  0  0  0  0  0  0  0
   28.0494  -19.8403   -5.0570 C   0  0  0  0  0  0  0  0  0  0  0  0
   29.0231  -19.7835   -6.0140 C   0  0  0  0  0  0  0  0  0  0  0  0
   28.7036  -20.1021   -7.3109 C   0  0  0  0  0  0  0  0  0  0  0  0
   27.4365  -20.4812   -7.7032 C   0  0  0  0  0  0  0  0  0  0  0  0
   25.6774  -20.2520  -11.5571 C   0  0  0  0  0  0  0  0  0  0  0  0
   25.7277  -19.0070  -11.5700 O   0  0  0  0  0  0  0  0  0  0  0  0
   23.3538  -19.6384  -15.7014 C   0  0  0  0  0  0  0  0  0  0  0  0
   23.7032  -19.5213  -14.2300 C   0  0  0  0  0  0  0  0  0  0  0  0
   22.7356  -20.2816  -13.3578 C   0  0  2  0  0  0  0  0  0  0  0  0
   21.4333  -19.4587  -13.3908 C   0  0  0  0  0  0  0  0  0  0  0  0
   23.1710  -20.3096  -11.8926 C   0  0  2  0  0  0  0  0  0  0  0  0
   24.4457  -20.9220  -11.6721 N   0  0  0  0  0  0  0  0  0  0  0  0
   22.1145  -20.8055  -11.0282 C   0  0  0  0  0  0  0  0  0  0  0  0
   21.2251  -20.0118  -10.3247 O   0  0  0  0  0  0  0  0  0  0  0  0
   21.9357  -22.0724  -10.8579 O   0  0  0  0  0  0  0  0  0  0  0  0
  2  1  1  6
  2  3  1  0
  3  4  1  0
  4  8  1  0
  4  5  2  0
  5  6  1  0
  7  6  1  0
  8  7  2  0
  9  2  1  0
 10  9  2  0
 11  9  1  0
 12 13  1  1
 12 11  1  0
 13 14  1  0
 14 22  1  0
 14 15  2  0
 15 16  1  0
 17 16  1  0
 17 18  2  0
 19 18  1  0
 20 19  2  0
 21 22  2  0
 21 20  1  0
 22 17  1  0
 23 12  1  0
 24 23  2  0
 26 25  1  0
 27 26  1  0
 27 29  1  0
 27 28  1  1
 29 30  1  6
 30 23  1  0
 31 32  1  0
 31 29  1  0
 33 31  2  0
M  END
$$$$
