HWI.pdb
     RDKit          3D

 33 35  0  0  1  0  0  0  0  0999 V2000
   29.7164  -22.1482  -15.5595 N   0  0  0  0  0  0  0  0  0  0  0  0
   28.5444  -21.3433  -15.3396 C   0  0  1  0  0  0  0  0  0  0  0  0
   27.6933  -21.2157  -16.5727 C   0  0  0  0  0  0  0  0  0  0  0  0
   28.4737  -20.5902  -17.6415 C   0  0  0  0  0  0  0  0  0  0  0  0
   29.0143  -21.2062  -18.7299 C   0  0  0  0  0  0  0  0  0  0  0  0
   29.6463  -20.2296  -19.4327 N   0  0  0  0  0  0  0  0  0  0  0  0
   29.5193  -19.0540  -18.8304 C   0  0  0  0  0  0  0  0  0  0  0  0
   28.7979  -19.2765  -17.7288 N   0  0  0  0  0  0  0  0  0  0  0  0
   27.7171  -21.9405  -14.2887 C   0  0  0  0  0  0  0  0  0  0  0  0
   27.9365  -23.1123  -13.8436 O   0  0  0  0  0  0  0  0  0  0  0  0
   26.6263  -21.1975  -13.7363 N   0  0  0  0  0  0  0  0  0  0  0  0
   26.0177  -21.6219  -12.5009 C   0  0  1  0  0  0  0  0  0  0  0  0
   26.9317  -21.8077  -11.3606 C   0  0  0  0  0  0  0  0  0  0  0  0
   26.7962  -20.9292  -10.2117 C   0  0  0  0  0  0  0  0  0  0  0  0
   25.8028  -20.0797   -9.7791 C   0  0  0  0  0  0  0  0  0  0  0  0
   26.1779  -19.4821   -8.6118 N   0  0  0  0  0  0  0  0  0  0  0  0
   27.3850  -19.9408   -8.3060 C   0  0  0  0  0  0  0  0  0  0  0  0
   28.2061  -19.6433   -7.2140 C   0  0  0  0  0  0  0  0  0  0  0  0
   29.4488  -20.2380   -7.0755 C   0  0  0  0  0  0  0  0  0  0  0  0
   29.8717  -21.1269   -8.0233 C   0  0  0  0  0  0  0  0  0  0  0  0
   29.0520  -21.4068   -9.0888 C   0  0  0  0  0  0  0  0  0  0  0  0
   27.8094  -20.8312   -9.2549 C   0  0  0  0  0  0  0  0  0  0  0  0
   24.8120  -20.7907  -12.1855 C   0  0  0  0  0  0  0  0  0  0  0  0
   24.9051  -19.5783  -11.9137 O   0  0  0  0  0  0  0  0  0  0  0  0
   22.4207  -21.1082  -16.4333 C   0  0  0  0  0  0  0  0  0  0  0  0
   22.8544  -20.7200  -15.0325 C   0  0  0  0  0  0  0  0  0  0  0  0
   21.8531  -21.1536  -13.9912 C   0  0  2  0  0  0  0  0  0  0  0  0
   20.6099  -20.2782  -14.2404 C   0  0  0  0  0  0  0  0  0  0  0  0
   22.3123  -20.8262  -12.5702 C   0  0  2  0  0  0  0  0  0  0  0  0
   23.5581  -21.4282  -12.2041 N   0  0  0  0  0  0  0  0  0  0  0  0
   21.2475  -21.0253  -11.6028 C   0  0  0  0  0  0  0  0  0  0  0  0
   20.4701  -20.0178  -11.0581 O   0  0  0  0  0  0  0  0  0  0  0  0
   20.9510  -22.2066  -11.1754 O   0  0  0  0  0  0  0  0  0  0  0  0
  2  1  1  6
  2  3  1  0
  3  4  1  0
  4  8  1  0
  4  5  2  0
  5  6  1  0
  7  6  1  0
  8  7  2  0
  9  2  1  0
 10  9  2  0
 11  9  1  0
 12 13  1  1
 12 11  1  0
 13 14  1  0
 14 22  1  0
 14 15  2  0
 15 16  1  0
 17 16  1  0
 17 18  2  0
 19 18  1  0
 20 19  2  0
 21 22  2  0
 21 20  1  0
 22 17  1  0
 23 12  1  0
 24 23  2  0
 26 25  1  0
 27 26  1  0
 27 29  1  0
 27 28  1  6
 29 30  1  1
 30 23  1  0
 31 32  1  0
 31 29  1  0
 33 31  2  0
M  END
$$$$
