FSS.pdb
     RDKit          3D

 24 24  0  0  1  0  0  0  0  0999 V2000
    7.3207  -16.5650   26.4123 N   0  0  0  0  0  0  0  0  0  0  0  0
    6.6917  -16.6976   25.1352 C   0  0  1  0  0  0  0  0  0  0  0  0
    5.7389  -15.5532   24.8986 C   0  0  0  0  0  0  0  0  0  0  0  0
    6.3420  -14.3403   25.5480 C   0  0  0  0  0  0  0  0  0  0  0  0
    5.9596  -13.9827   26.8386 C   0  0  0  0  0  0  0  0  0  0  0  0
    6.5048  -12.8721   27.4342 C   0  0  0  0  0  0  0  0  0  0  0  0
    7.4312  -12.0800   26.8001 C   0  0  0  0  0  0  0  0  0  0  0  0
    7.8229  -12.4251   25.5097 C   0  0  0  0  0  0  0  0  0  0  0  0
    7.2696  -13.5429   24.9199 C   0  0  0  0  0  0  0  0  0  0  0  0
    7.6364  -16.8803   24.0138 C   0  0  0  0  0  0  0  0  0  0  0  0
    8.3076  -17.9553   23.8830 O   0  0  0  0  0  0  0  0  0  0  0  0
    8.3865  -13.8353   21.2126 O   0  0  0  0  0  0  0  0  0  0  0  0
    8.8458  -15.0972   20.8964 C   0  0  0  0  0  0  0  0  0  0  0  0
    9.0403  -15.9563   22.1404 C   0  0  2  0  0  0  0  0  0  0  0  0
    7.8781  -15.8973   23.0000 N   0  0  0  0  0  0  0  0  0  0  0  0
   10.2600  -15.4652   22.8116 C   0  0  0  0  0  0  0  0  0  0  0  0
   10.1782  -14.7982   23.9017 O   0  0  0  0  0  0  0  0  0  0  0  0
   13.3331  -17.8472   24.6446 O   0  0  0  0  0  0  0  0  0  0  0  0
   12.2781  -17.5460   23.7634 C   0  0  0  0  0  0  0  0  0  0  0  0
   12.6490  -16.1898   23.1612 C   0  0  2  0  0  0  0  0  0  0  0  0
   11.5836  -15.6743   22.3380 N   0  0  0  0  0  0  0  0  0  0  0  0
   13.9244  -16.3113   22.4551 C   0  0  0  0  0  0  0  0  0  0  0  0
   13.9686  -16.8378   21.3242 O   0  0  0  0  0  0  0  0  0  0  0  0
   15.0991  -15.8513   23.0157 O   0  0  0  0  0  0  0  0  0  0  0  0
  2  1  1  1
  2  3  1  0
  4  3  1  0
  5  4  2  0
  6  5  1  0
  7  6  2  0
  7  8  1  0
  8  9  2  0
  9  4  1  0
 10  2  1  0
 10 11  2  0
 12 13  1  0
 14 13  1  6
 14 15  1  0
 15 10  1  0
 16 14  1  0
 17 16  2  0
 18 19  1  0
 20 19  1  6
 20 21  1  0
 20 22  1  0
 21 16  1  0
 22 23  2  0
 22 24  1  0
M  END
$$$$
