FSS.pdb
     RDKit          3D

 24 24  0  0  1  0  0  0  0  0999 V2000
    9.2867  -16.8791   20.1961 N   0  0  0  0  0  0  0  0  0  0  0  0
   10.2405  -15.8178   20.1049 C   0  0  1  0  0  0  0  0  0  0  0  0
    9.9600  -14.7694   21.1516 C   0  0  0  0  0  0  0  0  0  0  0  0
    8.9527  -13.8226   20.5636 C   0  0  0  0  0  0  0  0  0  0  0  0
    7.6485  -13.8071   21.0521 C   0  0  0  0  0  0  0  0  0  0  0  0
    6.7233  -12.9467   20.5144 C   0  0  0  0  0  0  0  0  0  0  0  0
    7.0330  -12.0811   19.4934 C   0  0  0  0  0  0  0  0  0  0  0  0
    8.3328  -12.0855   18.9950 C   0  0  0  0  0  0  0  0  0  0  0  0
    9.2552  -12.9536   19.5419 C   0  0  0  0  0  0  0  0  0  0  0  0
   11.6477  -16.2680   20.1267 C   0  0  0  0  0  0  0  0  0  0  0  0
   11.9940  -17.3259   20.7464 O   0  0  0  0  0  0  0  0  0  0  0  0
   15.1197  -14.0114   18.7952 O   0  0  0  0  0  0  0  0  0  0  0  0
   14.9621  -15.3521   18.5110 C   0  0  0  0  0  0  0  0  0  0  0  0
   14.0867  -16.0503   19.5452 C   0  0  2  0  0  0  0  0  0  0  0  0
   12.7207  -15.5793   19.4733 N   0  0  0  0  0  0  0  0  0  0  0  0
   14.6991  -15.7958   20.8641 C   0  0  0  0  0  0  0  0  0  0  0  0
   14.4004  -14.7416   21.5269 O   0  0  0  0  0  0  0  0  0  0  0  0
   16.1263  -18.6669   23.1309 O   0  0  0  0  0  0  0  0  0  0  0  0
   15.8948  -17.4534   23.8048 C   0  0  0  0  0  0  0  0  0  0  0  0
   16.2330  -16.3688   22.7807 C   0  0  2  0  0  0  0  0  0  0  0  0
   15.6361  -16.6547   21.5000 N   0  0  0  0  0  0  0  0  0  0  0  0
   17.6850  -16.2004   22.7224 C   0  0  0  0  0  0  0  0  0  0  0  0
   18.3032  -16.4406   21.6650 O   0  0  0  0  0  0  0  0  0  0  0  0
   18.4008  -15.7758   23.8239 O   0  0  0  0  0  0  0  0  0  0  0  0
  2  1  1  1
  2  3  1  0
  4  3  1  0
  5  4  2  0
  6  5  1  0
  7  6  2  0
  7  8  1  0
  8  9  2  0
  9  4  1  0
 10  2  1  0
 10 11  2  0
 12 13  1  0
 14 13  1  6
 14 15  1  0
 15 10  1  0
 16 14  1  0
 17 16  2  0
 18 19  1  0
 20 19  1  1
 20 21  1  0
 20 22  1  0
 21 16  1  0
 22 23  2  0
 22 24  1  0
M  END
$$$$
