FSS.pdb
     RDKit          3D

 24 24  0  0  1  0  0  0  0  0999 V2000
    6.4781  -16.2424   25.9014 N   0  0  0  0  0  0  0  0  0  0  0  0
    7.0697  -15.4599   24.8612 C   0  0  1  0  0  0  0  0  0  0  0  0
    8.1089  -14.5285   25.4322 C   0  0  0  0  0  0  0  0  0  0  0  0
    7.3692  -13.4150   26.1175 C   0  0  0  0  0  0  0  0  0  0  0  0
    7.9139  -12.8154   27.2505 C   0  0  0  0  0  0  0  0  0  0  0  0
    7.2389  -11.8004   27.8827 C   0  0  0  0  0  0  0  0  0  0  0  0
    6.0234  -11.3396   27.4382 C   0  0  0  0  0  0  0  0  0  0  0  0
    5.4667  -11.9294   26.3069 C   0  0  0  0  0  0  0  0  0  0  0  0
    6.1526  -12.9484   25.6785 C   0  0  0  0  0  0  0  0  0  0  0  0
    7.5918  -16.2553   23.7307 C   0  0  0  0  0  0  0  0  0  0  0  0
    7.8605  -17.4938   23.8619 O   0  0  0  0  0  0  0  0  0  0  0  0
    9.1384  -14.4363   20.2172 O   0  0  0  0  0  0  0  0  0  0  0  0
    8.6298  -15.7137   20.1044 C   0  0  0  0  0  0  0  0  0  0  0  0
    8.6263  -16.4412   21.4438 C   0  0  2  0  0  0  0  0  0  0  0  0
    7.8366  -15.7255   22.4222 N   0  0  0  0  0  0  0  0  0  0  0  0
   10.0366  -16.5829   21.8561 C   0  0  0  0  0  0  0  0  0  0  0  0
   10.6034  -15.6730   22.5567 O   0  0  0  0  0  0  0  0  0  0  0  0
   11.6540  -19.6716   23.2163 O   0  0  0  0  0  0  0  0  0  0  0  0
   12.6059  -19.2566   22.2666 C   0  0  0  0  0  0  0  0  0  0  0  0
   12.2395  -17.8041   21.9572 C   0  0  2  0  0  0  0  0  0  0  0  0
   10.8665  -17.6904   21.5327 N   0  0  0  0  0  0  0  0  0  0  0  0
   13.1951  -17.2641   20.9900 C   0  0  0  0  0  0  0  0  0  0  0  0
   12.7979  -16.8340   19.8876 O   0  0  0  0  0  0  0  0  0  0  0  0
   14.5463  -17.2168   21.2693 O   0  0  0  0  0  0  0  0  0  0  0  0
  2  1  1  1
  2  3  1  0
  4  3  1  0
  5  4  2  0
  6  5  1  0
  7  6  2  0
  7  8  1  0
  8  9  2  0
  9  4  1  0
 10  2  1  0
 10 11  2  0
 12 13  1  0
 14 13  1  6
 14 15  1  0
 15 10  1  0
 16 14  1  0
 17 16  2  0
 18 19  1  0
 20 19  1  6
 20 21  1  0
 20 22  1  0
 21 16  1  0
 22 23  2  0
 22 24  1  0
M  END
$$$$
