FSS.pdb
     RDKit          3D

 24 24  0  0  1  0  0  0  0  0999 V2000
    6.0774  -13.8708   22.1307 N   0  0  0  0  0  0  0  0  0  0  0  0
    7.5023  -13.9842   22.1614 C   0  0  1  0  0  0  0  0  0  0  0  0
    8.1096  -12.7814   22.8381 C   0  0  0  0  0  0  0  0  0  0  0  0
    7.6187  -12.7839   24.2579 C   0  0  0  0  0  0  0  0  0  0  0  0
    8.3965  -13.3604   25.2592 C   0  0  0  0  0  0  0  0  0  0  0  0
    7.9496  -13.3691   26.5575 C   0  0  0  0  0  0  0  0  0  0  0  0
    6.7427  -12.8227   26.9214 C   0  0  0  0  0  0  0  0  0  0  0  0
    5.9545  -12.2430   25.9312 C   0  0  0  0  0  0  0  0  0  0  0  0
    6.4123  -12.2390   24.6297 C   0  0  0  0  0  0  0  0  0  0  0  0
    7.9940  -15.2553   22.7323 C   0  0  0  0  0  0  0  0  0  0  0  0
    7.2037  -16.0697   23.3113 O   0  0  0  0  0  0  0  0  0  0  0  0
   11.4958  -16.9727   21.4145 O   0  0  0  0  0  0  0  0  0  0  0  0
   10.4691  -17.7307   21.9386 C   0  0  0  0  0  0  0  0  0  0  0  0
    9.7623  -17.0118   23.0819 C   0  0  2  0  0  0  0  0  0  0  0  0
    9.3623  -15.6781   22.6892 N   0  0  0  0  0  0  0  0  0  0  0  0
   10.6978  -17.0034   24.2238 C   0  0  0  0  0  0  0  0  0  0  0  0
   11.6640  -16.1640   24.2664 O   0  0  0  0  0  0  0  0  0  0  0  0
   10.3588  -19.7108   27.1984 O   0  0  0  0  0  0  0  0  0  0  0  0
   11.0710  -18.5825   27.6454 C   0  0  0  0  0  0  0  0  0  0  0  0
   11.6253  -17.9422   26.3717 C   0  0  2  0  0  0  0  0  0  0  0  0
   10.6228  -17.8836   25.3372 N   0  0  0  0  0  0  0  0  0  0  0  0
   12.8391  -18.6516   25.9674 C   0  0  0  0  0  0  0  0  0  0  0  0
   12.9016  -19.2029   24.8493 O   0  0  0  0  0  0  0  0  0  0  0  0
   13.9350  -18.7282   26.8035 O   0  0  0  0  0  0  0  0  0  0  0  0
  2  1  1  1
  2  3  1  0
  4  3  1  0
  5  4  2  0
  6  5  1  0
  7  6  2  0
  7  8  1  0
  8  9  2  0
  9  4  1  0
 10  2  1  0
 10 11  2  0
 12 13  1  0
 14 13  1  6
 14 15  1  0
 15 10  1  0
 16 14  1  0
 17 16  2  0
 18 19  1  0
 20 19  1  1
 20 21  1  0
 20 22  1  0
 21 16  1  0
 22 23  2  0
 22 24  1  0
M  END
$$$$
