FSS.pdb
     RDKit          3D

 24 24  0  0  1  0  0  0  0  0999 V2000
    6.3789  -17.0314   26.0640 N   0  0  0  0  0  0  0  0  0  0  0  0
    7.1905  -16.2005   25.2302 C   0  0  1  0  0  0  0  0  0  0  0  0
    8.2597  -15.5216   26.0484 C   0  0  0  0  0  0  0  0  0  0  0  0
    7.7604  -14.1397   26.3606 C   0  0  0  0  0  0  0  0  0  0  0  0
    8.4746  -13.3263   27.2371 C   0  0  0  0  0  0  0  0  0  0  0  0
    8.0193  -12.0642   27.5290 C   0  0  0  0  0  0  0  0  0  0  0  0
    6.8652  -11.5563   26.9833 C   0  0  0  0  0  0  0  0  0  0  0  0
    6.1410  -12.3579   26.1055 C   0  0  0  0  0  0  0  0  0  0  0  0
    6.6066  -13.6245   25.8184 C   0  0  0  0  0  0  0  0  0  0  0  0
    7.7448  -16.8910   24.0473 C   0  0  0  0  0  0  0  0  0  0  0  0
    7.8006  -18.1626   23.9897 O   0  0  0  0  0  0  0  0  0  0  0  0
    9.8666  -15.0345   20.7525 O   0  0  0  0  0  0  0  0  0  0  0  0
    8.9413  -16.0367   20.5458 C   0  0  0  0  0  0  0  0  0  0  0  0
    8.8052  -16.9409   21.7654 C   0  0  2  0  0  0  0  0  0  0  0  0
    8.2550  -16.2170   22.8906 N   0  0  0  0  0  0  0  0  0  0  0  0
   10.1498  -17.4803   22.0487 C   0  0  0  0  0  0  0  0  0  0  0  0
   10.8894  -16.9441   22.9462 O   0  0  0  0  0  0  0  0  0  0  0  0
   11.7334  -20.4378   19.8038 O   0  0  0  0  0  0  0  0  0  0  0  0
   12.2552  -20.4969   21.1094 C   0  0  0  0  0  0  0  0  0  0  0  0
   12.0537  -19.0893   21.6731 C   0  0  2  0  0  0  0  0  0  0  0  0
   10.7300  -18.5957   21.3859 N   0  0  0  0  0  0  0  0  0  0  0  0
   13.1203  -18.2180   21.1801 C   0  0  0  0  0  0  0  0  0  0  0  0
   12.8413  -17.1904   20.5287 O   0  0  0  0  0  0  0  0  0  0  0  0
   14.4487  -18.5071   21.4204 O   0  0  0  0  0  0  0  0  0  0  0  0
  2  1  1  1
  2  3  1  0
  4  3  1  0
  5  4  2  0
  6  5  1  0
  7  6  2  0
  7  8  1  0
  8  9  2  0
  9  4  1  0
 10  2  1  0
 10 11  2  0
 12 13  1  0
 14 13  1  6
 14 15  1  0
 15 10  1  0
 16 14  1  0
 17 16  2  0
 18 19  1  0
 20 19  1  6
 20 21  1  0
 20 22  1  0
 21 16  1  0
 22 23  2  0
 22 24  1  0
M  END
$$$$
