FSS.pdb
     RDKit          3D

 24 24  0  0  1  0  0  0  0  0999 V2000
    6.5578  -17.0229   25.8295 N   0  0  0  0  0  0  0  0  0  0  0  0
    7.5324  -16.1123   25.3145 C   0  0  1  0  0  0  0  0  0  0  0  0
    8.0967  -15.2642   26.4261 C   0  0  0  0  0  0  0  0  0  0  0  0
    7.4133  -13.9287   26.3476 C   0  0  0  0  0  0  0  0  0  0  0  0
    7.9888  -12.8980   25.6085 C   0  0  0  0  0  0  0  0  0  0  0  0
    7.3700  -11.6743   25.5380 C   0  0  0  0  0  0  0  0  0  0  0  0
    6.1823  -11.4150   26.1780 C   0  0  0  0  0  0  0  0  0  0  0  0
    5.5954  -12.4357   26.9206 C   0  0  0  0  0  0  0  0  0  0  0  0
    6.2247  -13.6618   26.9853 C   0  0  0  0  0  0  0  0  0  0  0  0
    8.5909  -16.7544   24.5079 C   0  0  0  0  0  0  0  0  0  0  0  0
    9.1342  -17.8457   24.8782 O   0  0  0  0  0  0  0  0  0  0  0  0
   10.2540  -15.0104   21.0142 O   0  0  0  0  0  0  0  0  0  0  0  0
   10.2348  -16.3864   21.1128 C   0  0  0  0  0  0  0  0  0  0  0  0
   10.1874  -16.8486   22.5645 C   0  0  2  0  0  0  0  0  0  0  0  0
    9.0895  -16.2271   23.2725 N   0  0  0  0  0  0  0  0  0  0  0  0
   11.4973  -16.5190   23.1601 C   0  0  0  0  0  0  0  0  0  0  0  0
   11.6957  -15.3758   23.7020 O   0  0  0  0  0  0  0  0  0  0  0  0
   14.4338  -19.2672   23.3448 O   0  0  0  0  0  0  0  0  0  0  0  0
   14.5745  -18.3002   24.3574 C   0  0  0  0  0  0  0  0  0  0  0  0
   13.8732  -17.0567   23.8084 C   0  0  2  0  0  0  0  0  0  0  0  0
   12.6154  -17.3958   23.1909 N   0  0  0  0  0  0  0  0  0  0  0  0
   14.7878  -16.3453   22.9154 C   0  0  0  0  0  0  0  0  0  0  0  0
   14.4834  -16.1646   21.7185 O   0  0  0  0  0  0  0  0  0  0  0  0
   15.9983  -15.8607   23.3692 O   0  0  0  0  0  0  0  0  0  0  0  0
  2  1  1  1
  2  3  1  0
  4  3  1  0
  5  4  2  0
  6  5  1  0
  7  6  2  0
  7  8  1  0
  8  9  2  0
  9  4  1  0
 10  2  1  0
 10 11  2  0
 12 13  1  0
 14 13  1  6
 14 15  1  0
 15 10  1  0
 16 14  1  0
 17 16  2  0
 18 19  1  0
 20 19  1  6
 20 21  1  0
 20 22  1  0
 21 16  1  0
 22 23  2  0
 22 24  1  0
M  END
$$$$
