FSS.pdb
     RDKit          3D

 24 24  0  0  1  0  0  0  0  0999 V2000
    6.4187  -17.4230   25.9278 N   0  0  0  0  0  0  0  0  0  0  0  0
    7.3048  -16.3874   25.4960 C   0  0  1  0  0  0  0  0  0  0  0  0
    7.8730  -15.6540   26.6846 C   0  0  0  0  0  0  0  0  0  0  0  0
    7.3964  -14.2325   26.5904 C   0  0  0  0  0  0  0  0  0  0  0  0
    6.2889  -13.9234   25.8045 C   0  0  0  0  0  0  0  0  0  0  0  0
    5.8527  -12.6247   25.7118 C   0  0  0  0  0  0  0  0  0  0  0  0
    6.4735  -11.5935   26.3741 C   0  0  0  0  0  0  0  0  0  0  0  0
    7.5818  -11.8874   27.1634 C   0  0  0  0  0  0  0  0  0  0  0  0
    8.0123  -13.1953   27.2503 C   0  0  0  0  0  0  0  0  0  0  0  0
    8.3572  -16.8436   24.5644 C   0  0  0  0  0  0  0  0  0  0  0  0
    9.0413  -17.8919   24.8017 O   0  0  0  0  0  0  0  0  0  0  0  0
    9.6548  -14.5455   21.2860 O   0  0  0  0  0  0  0  0  0  0  0  0
    9.7607  -15.9146   21.1539 C   0  0  0  0  0  0  0  0  0  0  0  0
    9.7907  -16.6127   22.5087 C   0  0  2  0  0  0  0  0  0  0  0  0
    8.6959  -16.1716   23.3453 N   0  0  0  0  0  0  0  0  0  0  0  0
   11.1077  -16.3225   23.1090 C   0  0  0  0  0  0  0  0  0  0  0  0
   11.3739  -15.1532   23.5580 O   0  0  0  0  0  0  0  0  0  0  0  0
   13.2447  -18.6064   25.5099 O   0  0  0  0  0  0  0  0  0  0  0  0
   14.0758  -18.2253   24.4401 C   0  0  0  0  0  0  0  0  0  0  0  0
   13.4235  -16.9646   23.8704 C   0  0  2  0  0  0  0  0  0  0  0  0
   12.1613  -17.2670   23.2428 N   0  0  0  0  0  0  0  0  0  0  0  0
   14.3714  -16.2947   22.9800 C   0  0  0  0  0  0  0  0  0  0  0  0
   14.3212  -16.4895   21.7481 O   0  0  0  0  0  0  0  0  0  0  0  0
   15.3352  -15.4389   23.4746 O   0  0  0  0  0  0  0  0  0  0  0  0
  2  1  1  1
  2  3  1  0
  4  3  1  0
  5  4  2  0
  6  5  1  0
  7  6  2  0
  7  8  1  0
  8  9  2  0
  9  4  1  0
 10  2  1  0
 10 11  2  0
 12 13  1  0
 14 13  1  6
 14 15  1  0
 15 10  1  0
 16 14  1  0
 17 16  2  0
 18 19  1  0
 20 19  1  6
 20 21  1  0
 20 22  1  0
 21 16  1  0
 22 23  2  0
 22 24  1  0
M  END
$$$$
