SMM.pdb
     RDKit          3D

 23 22  0  0  1  0  0  0  0  0999 V2000
   27.0440  -18.2747  -14.5296 O   0  0  0  0  0  0  0  0  0  0  0  0
   27.7188  -19.2736  -15.2073 C   0  0  0  0  0  0  0  0  0  0  0  0
   28.1560  -20.3770  -14.2647 C   0  0  2  0  0  0  0  0  0  0  0  0
   28.8890  -21.4048  -14.9516 N   0  0  0  0  0  0  0  0  0  0  0  0
   27.0088  -20.9074  -13.4842 C   0  0  0  0  0  0  0  0  0  0  0  0
   26.2847  -21.7589  -14.0629 O   0  0  0  0  0  0  0  0  0  0  0  0
   27.4499  -19.2685   -7.2976 C   0  0  0  0  0  0  0  0  0  0  0  0
   26.6418  -20.8835   -7.4719 S   0  0  0  0  0  0  0  0  0  0  0  0
   26.6260  -21.3282   -9.2210 C   0  0  0  0  0  0  0  0  0  0  0  0
   25.6054  -20.5850  -10.0054 C   0  0  0  0  0  0  0  0  0  0  0  0
   25.5179  -20.9664  -11.4566 C   0  0  2  0  0  0  0  0  0  0  0  0
   26.6997  -20.5108  -12.1546 N   0  0  0  0  0  0  0  0  0  0  0  0
   24.2728  -20.4958  -12.1157 C   0  0  0  0  0  0  0  0  0  0  0  0
   24.1151  -19.2672  -12.3261 O   0  0  0  0  0  0  0  0  0  0  0  0
   21.9438  -23.2232  -17.1873 C   0  0  0  0  0  0  0  0  0  0  0  0
   20.3998  -22.4199  -16.6833 S   0  0  0  0  0  0  0  0  0  0  0  0
   20.6247  -21.3925  -15.2375 C   0  0  0  0  0  0  0  0  0  0  0  0
   21.8043  -21.6799  -14.3901 C   0  0  0  0  0  0  0  0  0  0  0  0
   22.0487  -20.8855  -13.1666 C   0  0  2  0  0  0  0  0  0  0  0  0
   23.2749  -21.3898  -12.5063 N   0  0  0  0  0  0  0  0  0  0  0  0
   20.9467  -20.8494  -12.2206 C   0  0  0  0  0  0  0  0  0  0  0  0
   19.9319  -20.1638  -12.4157 O   0  0  0  0  0  0  0  0  0  0  0  0
   20.9691  -21.5959  -11.0209 O   0  0  0  0  0  0  0  0  0  0  0  0
  2  1  1  0
  3  4  1  6
  3  2  1  0
  5  6  2  0
  5  3  1  0
  7  8  1  0
  9  8  1  0
  9 10  1  0
 11 10  1  1
 11 13  1  0
 11 12  1  0
 12  5  1  0
 13 20  1  0
 14 13  2  0
 16 15  1  0
 17 16  1  0
 19 18  1  6
 18 17  1  0
 19 21  1  0
 20 19  1  0
 21 22  2  0
 21 23  1  0
M  END
$$$$
