SMM.pdb
     RDKit          3D

 23 22  0  0  1  0  0  0  0  0999 V2000
   19.6113   -8.0034  -12.7533 O   0  0  0  0  0  0  0  0  0  0  0  0
   19.5407   -8.9459  -11.7438 C   0  0  0  0  0  0  0  0  0  0  0  0
   18.2384   -9.7186  -11.8049 C   0  0  2  0  0  0  0  0  0  0  0  0
   18.0858  -10.4068  -13.0574 N   0  0  0  0  0  0  0  0  0  0  0  0
   17.0788   -8.8504  -11.4764 C   0  0  0  0  0  0  0  0  0  0  0  0
   16.5368   -8.2521  -12.4422 O   0  0  0  0  0  0  0  0  0  0  0  0
   13.1483   -9.4733   -6.2188 C   0  0  0  0  0  0  0  0  0  0  0  0
   12.1257   -8.7773   -7.5461 S   0  0  0  0  0  0  0  0  0  0  0  0
   13.1997   -7.8716   -8.6791 C   0  0  0  0  0  0  0  0  0  0  0  0
   14.4936   -8.5573   -8.9342 C   0  0  0  0  0  0  0  0  0  0  0  0
   15.4176   -7.8395   -9.8777 C   0  0  2  0  0  0  0  0  0  0  0  0
   16.5675   -8.6691  -10.1625 N   0  0  0  0  0  0  0  0  0  0  0  0
   15.8159   -6.4906   -9.4002 C   0  0  0  0  0  0  0  0  0  0  0  0
   16.7325   -6.3861   -8.5472 O   0  0  0  0  0  0  0  0  0  0  0  0
   16.8330    1.0630  -11.2107 C   0  0  0  0  0  0  0  0  0  0  0  0
   16.3989   -0.6349  -11.6709 S   0  0  0  0  0  0  0  0  0  0  0  0
   16.1690   -1.6759  -10.2356 C   0  0  0  0  0  0  0  0  0  0  0  0
   15.7600   -3.0770  -10.4846 C   0  0  0  0  0  0  0  0  0  0  0  0
   15.5879   -4.0110   -9.3507 C   0  0  2  0  0  0  0  0  0  0  0  0
   15.1936   -5.3372   -9.8796 N   0  0  0  0  0  0  0  0  0  0  0  0
   14.6510   -3.5785   -8.3282 C   0  0  0  0  0  0  0  0  0  0  0  0
   13.5035   -4.0415   -8.2464 O   0  0  0  0  0  0  0  0  0  0  0  0
   14.9955   -2.6025   -7.3660 O   0  0  0  0  0  0  0  0  0  0  0  0
  2  1  1  0
  3  4  1  6
  3  2  1  0
  5  6  2  0
  5  3  1  0
  7  8  1  0
  9  8  1  0
  9 10  1  0
 11 10  1  1
 11 13  1  0
 11 12  1  0
 12  5  1  0
 13 20  1  0
 14 13  2  0
 16 15  1  0
 17 16  1  0
 19 18  1  6
 18 17  1  0
 19 21  1  0
 20 19  1  0
 21 22  2  0
 21 23  1  0
M  END
$$$$
