SMM.pdb
     RDKit          3D

 23 22  0  0  1  0  0  0  0  0999 V2000
   21.9652  -20.0092  -11.5691 O   0  0  0  0  0  0  0  0  0  0  0  0
   22.7623  -19.6861  -12.6520 C   0  0  0  0  0  0  0  0  0  0  0  0
   23.6005  -20.8709  -13.0889 C   0  0  2  0  0  0  0  0  0  0  0  0
   22.7846  -21.9511  -13.5717 N   0  0  0  0  0  0  0  0  0  0  0  0
   24.5426  -21.2901  -12.0197 C   0  0  0  0  0  0  0  0  0  0  0  0
   24.2062  -22.2948  -11.3402 O   0  0  0  0  0  0  0  0  0  0  0  0
   30.7301  -22.5071  -12.5453 C   0  0  0  0  0  0  0  0  0  0  0  0
   30.7919  -21.5514  -11.0042 S   0  0  0  0  0  0  0  0  0  0  0  0
   29.1350  -21.5130  -10.2895 C   0  0  0  0  0  0  0  0  0  0  0  0
   28.0904  -21.0809  -11.2546 C   0  0  0  0  0  0  0  0  0  0  0  0
   26.6869  -21.0875  -10.7166 C   0  0  2  0  0  0  0  0  0  0  0  0
   25.7694  -20.6303  -11.7367 N   0  0  0  0  0  0  0  0  0  0  0  0
   26.5359  -20.3187   -9.4547 C   0  0  0  0  0  0  0  0  0  0  0  0
   26.2058  -19.1076   -9.5084 O   0  0  0  0  0  0  0  0  0  0  0  0
   28.1822  -20.5312   -1.6369 C   0  0  0  0  0  0  0  0  0  0  0  0
   28.1271  -21.3670   -3.2436 S   0  0  0  0  0  0  0  0  0  0  0  0
   27.4848  -20.3010   -4.5272 C   0  0  0  0  0  0  0  0  0  0  0  0
   27.3039  -20.9029   -5.8677 C   0  0  0  0  0  0  0  0  0  0  0  0
   26.8169  -20.0745   -6.9921 C   0  0  2  0  0  0  0  0  0  0  0  0
   26.7525  -20.9136   -8.2111 N   0  0  0  0  0  0  0  0  0  0  0  0
   27.5845  -18.8688   -7.2515 C   0  0  0  0  0  0  0  0  0  0  0  0
   28.5420  -18.8530   -8.0395 O   0  0  0  0  0  0  0  0  0  0  0  0
   27.2826  -17.6420   -6.6185 O   0  0  0  0  0  0  0  0  0  0  0  0
  2  1  1  0
  3  4  1  1
  3  2  1  0
  5  6  2  0
  5  3  1  0
  7  8  1  0
  9  8  1  0
  9 10  1  0
 11 10  1  6
 11 13  1  0
 11 12  1  0
 12  5  1  0
 13 20  1  0
 14 13  2  0
 16 15  1  0
 17 16  1  0
 19 18  1  1
 18 17  1  0
 19 21  1  0
 20 19  1  0
 21 22  2  0
 21 23  1  0
M  END
$$$$
