SMM.pdb
     RDKit          3D

 23 22  0  0  1  0  0  0  0  0999 V2000
   26.6862  -18.9852  -15.8662 O   0  0  0  0  0  0  0  0  0  0  0  0
   27.4897  -19.6490  -14.9572 C   0  0  0  0  0  0  0  0  0  0  0  0
   27.0582  -21.0928  -14.7956 C   0  0  2  0  0  0  0  0  0  0  0  0
   27.2607  -21.8473  -16.0019 N   0  0  0  0  0  0  0  0  0  0  0  0
   25.6681  -21.1871  -14.2804 C   0  0  0  0  0  0  0  0  0  0  0  0
   24.8204  -21.7091  -15.0506 O   0  0  0  0  0  0  0  0  0  0  0  0
   26.2016  -19.7216   -9.3751 C   0  0  0  0  0  0  0  0  0  0  0  0
   25.8883  -21.5085   -9.4015 S   0  0  0  0  0  0  0  0  0  0  0  0
   24.3210  -21.8009  -10.2473 C   0  0  0  0  0  0  0  0  0  0  0  0
   23.8555  -20.6323  -11.0392 C   0  0  0  0  0  0  0  0  0  0  0  0
   23.8967  -20.8184  -12.5302 C   0  0  2  0  0  0  0  0  0  0  0  0
   25.2626  -20.7297  -12.9970 N   0  0  0  0  0  0  0  0  0  0  0  0
   23.0015  -19.8884  -13.2651 C   0  0  0  0  0  0  0  0  0  0  0  0
   23.4697  -18.8145  -13.7190 O   0  0  0  0  0  0  0  0  0  0  0  0
   23.3249  -17.8815  -18.2124 C   0  0  0  0  0  0  0  0  0  0  0  0
   21.6464  -18.5452  -18.3704 S   0  0  0  0  0  0  0  0  0  0  0  0
   20.7912  -18.5745  -16.8005 C   0  0  0  0  0  0  0  0  0  0  0  0
   21.4619  -19.2835  -15.6871 C   0  0  0  0  0  0  0  0  0  0  0  0
   20.8311  -19.3272  -14.3500 C   0  0  2  0  0  0  0  0  0  0  0  0
   21.6518  -20.1830  -13.4622 N   0  0  0  0  0  0  0  0  0  0  0  0
   19.4464  -19.7662  -14.3321 C   0  0  0  0  0  0  0  0  0  0  0  0
   19.1111  -20.8738  -13.8863 O   0  0  0  0  0  0  0  0  0  0  0  0
   18.4000  -18.9532  -14.8232 O   0  0  0  0  0  0  0  0  0  0  0  0
  2  1  1  0
  3  4  1  6
  3  2  1  0
  5  6  2  0
  5  3  1  0
  7  8  1  0
  9  8  1  0
  9 10  1  0
 11 10  1  1
 11 13  1  0
 11 12  1  0
 12  5  1  0
 13 20  1  0
 14 13  2  0
 16 15  1  0
 17 16  1  0
 19 18  1  6
 18 17  1  0
 19 21  1  0
 20 19  1  0
 21 22  2  0
 21 23  1  0
M  END
$$$$
