SMM.pdb
     RDKit          3D

 23 22  0  0  1  0  0  0  0  0999 V2000
   26.5954  -18.8154  -15.7081 O   0  0  0  0  0  0  0  0  0  0  0  0
   27.2093  -19.9337  -16.2421 C   0  0  0  0  0  0  0  0  0  0  0  0
   27.6989  -20.8643  -15.1507 C   0  0  2  0  0  0  0  0  0  0  0  0
   28.3392  -22.0310  -15.6934 N   0  0  0  0  0  0  0  0  0  0  0  0
   26.6121  -21.1932  -14.1930 C   0  0  0  0  0  0  0  0  0  0  0  0
   25.7772  -22.0565  -14.5695 O   0  0  0  0  0  0  0  0  0  0  0  0
   25.8218  -20.0530   -7.5610 C   0  0  0  0  0  0  0  0  0  0  0  0
   27.3540  -20.5387   -8.4028 S   0  0  0  0  0  0  0  0  0  0  0  0
   26.9346  -21.1292  -10.0560 C   0  0  0  0  0  0  0  0  0  0  0  0
   25.7225  -20.4796  -10.6202 C   0  0  0  0  0  0  0  0  0  0  0  0
   25.3733  -20.8955  -12.0218 C   0  0  2  0  0  0  0  0  0  0  0  0
   26.4751  -20.5971  -12.9098 N   0  0  0  0  0  0  0  0  0  0  0  0
   24.0982  -20.3104  -12.5097 C   0  0  0  0  0  0  0  0  0  0  0  0
   24.1273  -19.2581  -13.1955 O   0  0  0  0  0  0  0  0  0  0  0  0
   23.4249  -22.3138  -17.3738 C   0  0  0  0  0  0  0  0  0  0  0  0
   21.6464  -22.1674  -17.0602 S   0  0  0  0  0  0  0  0  0  0  0  0
   21.3032  -21.1400  -15.6377 C   0  0  0  0  0  0  0  0  0  0  0  0
   21.9602  -21.5180  -14.3659 C   0  0  0  0  0  0  0  0  0  0  0  0
   21.7247  -20.7183  -13.1442 C   0  0  2  0  0  0  0  0  0  0  0  0
   22.8690  -20.9054  -12.2225 N   0  0  0  0  0  0  0  0  0  0  0  0
   20.4748  -20.9915  -12.4560 C   0  0  0  0  0  0  0  0  0  0  0  0
   19.5624  -20.1544  -12.3879 O   0  0  0  0  0  0  0  0  0  0  0  0
   20.2274  -22.2306  -11.8231 O   0  0  0  0  0  0  0  0  0  0  0  0
  2  1  1  0
  3  4  1  6
  3  2  1  0
  5  6  2  0
  5  3  1  0
  7  8  1  0
  9  8  1  0
  9 10  1  0
 11 10  1  1
 11 13  1  0
 11 12  1  0
 12  5  1  0
 13 20  1  0
 14 13  2  0
 16 15  1  0
 17 16  1  0
 19 18  1  6
 18 17  1  0
 19 21  1  0
 20 19  1  0
 21 22  2  0
 21 23  1  0
M  END
$$$$
