DLK.pdb
     RDKit          3D

 26 25  0  0  1  0  0  0  0  0999 V2000
    9.7059  -15.9501   20.4164 N   0  0  0  0  0  0  0  0  0  0  0  0
    8.7016  -16.3351   21.4073 C   0  0  1  0  0  0  0  0  0  0  0  0
    8.9745  -17.7970   21.7304 C   0  0  0  0  0  0  0  0  0  0  0  0
    8.6602  -18.6275   20.5175 C   0  0  0  0  0  0  0  0  0  0  0  0
    8.3981  -18.1102   19.4099 O   0  0  0  0  0  0  0  0  0  0  0  0
    8.9615  -15.5413   22.6333 C   0  0  0  0  0  0  0  0  0  0  0  0
   10.1329  -15.1345   22.9385 O   0  0  0  0  0  0  0  0  0  0  0  0
    8.6616  -20.0047   20.6326 O   0  0  0  0  0  0  0  0  0  0  0  0
    5.7031  -12.6589   27.0700 C   0  0  0  0  0  0  0  0  0  0  0  0
    7.0967  -13.0926   26.6127 C   0  0  2  0  0  0  0  0  0  0  0  0
    7.9585  -11.8798   26.5520 C   0  0  0  0  0  0  0  0  0  0  0  0
    6.9106  -13.8055   25.2946 C   0  0  0  0  0  0  0  0  0  0  0  0
    8.1613  -14.4873   24.7969 C   0  0  2  0  0  0  0  0  0  0  0  0
    7.9332  -15.1806   23.5470 N   0  0  0  0  0  0  0  0  0  0  0  0
    8.8888  -15.2681   25.7900 C   0  0  0  0  0  0  0  0  0  0  0  0
    9.2809  -14.6908   26.8558 O   0  0  0  0  0  0  0  0  0  0  0  0
    9.1911  -16.6358   25.6532 N   0  0  0  0  0  0  0  0  0  0  0  0
    9.9623  -17.3802   26.7198 C   0  0  1  0  0  0  0  0  0  0  0  0
   11.2112  -17.8563   26.0594 C   0  0  0  0  0  0  0  0  0  0  0  0
   11.2058  -18.7063   24.8882 C   0  0  0  0  0  0  0  0  0  0  0  0
   12.4157  -19.2764   24.2870 C   0  0  0  0  0  0  0  0  0  0  0  0
   12.1003  -20.1557   23.0846 C   0  0  0  0  0  0  0  0  0  0  0  0
   13.3752  -20.7102   22.6255 N   0  0  0  0  0  0  0  0  0  0  0  0
   10.0495  -16.5174   27.8785 C   0  0  0  0  0  0  0  0  0  0  0  0
    9.5737  -15.2405   27.9453 O   0  0  0  0  0  0  0  0  0  0  0  0
   10.6183  -16.9324   28.9591 O   0  0  0  0  0  0  0  0  0  0  0  0
  2  1  1  6
  2  3  1  0
  3  4  1  0
  4  8  1  0
  5  4  2  0
  6  7  2  0
  6  2  1  0
 10 11  1  6
 10  9  1  0
 10 12  1  0
 13 12  1  1
 13 14  1  0
 14  6  1  0
 15 13  1  0
 16 15  2  0
 17 15  1  0
 18 17  1  0
 19 20  1  0
 18 19  1  6
 20 21  1  0
 21 22  1  0
 23 22  1  0
 24 18  1  0
 24 25  1  0
 26 24  2  0
M  END
$$$$
