DLK.pdb
     RDKit          3D

 26 25  0  0  1  0  0  0  0  0999 V2000
   11.7769  -17.3684   18.6263 N   0  0  0  0  0  0  0  0  0  0  0  0
   10.5298  -17.6483   19.3370 C   0  0  1  0  0  0  0  0  0  0  0  0
   10.7639  -18.9486   20.0922 C   0  0  0  0  0  0  0  0  0  0  0  0
   10.7392  -20.0884   19.1125 C   0  0  0  0  0  0  0  0  0  0  0  0
   10.6481  -19.9008   17.8797 O   0  0  0  0  0  0  0  0  0  0  0  0
   10.3376  -16.5690   20.3366 C   0  0  0  0  0  0  0  0  0  0  0  0
   11.3103  -16.0976   21.0166 O   0  0  0  0  0  0  0  0  0  0  0  0
   10.8198  -21.3823   19.5912 O   0  0  0  0  0  0  0  0  0  0  0  0
    8.8757  -12.5648   19.7497 C   0  0  0  0  0  0  0  0  0  0  0  0
    7.7104  -13.5544   19.7961 C   0  0  2  0  0  0  0  0  0  0  0  0
    6.4832  -12.8405   19.3469 C   0  0  0  0  0  0  0  0  0  0  0  0
    7.6556  -14.0828   21.2097 C   0  0  0  0  0  0  0  0  0  0  0  0
    8.8407  -14.9410   21.5780 C   0  0  2  0  0  0  0  0  0  0  0  0
    9.0675  -15.9886   20.6054 N   0  0  0  0  0  0  0  0  0  0  0  0
    8.8836  -15.3917   22.9638 C   0  0  0  0  0  0  0  0  0  0  0  0
    8.6931  -14.5394   23.8913 O   0  0  0  0  0  0  0  0  0  0  0  0
    9.1219  -16.7225   23.3549 N   0  0  0  0  0  0  0  0  0  0  0  0
    9.1972  -17.1106   24.8144 C   0  0  1  0  0  0  0  0  0  0  0  0
    8.7546  -18.5328   24.8792 C   0  0  0  0  0  0  0  0  0  0  0  0
    7.3911  -18.9437   24.6222 C   0  0  0  0  0  0  0  0  0  0  0  0
    6.9669  -20.3430   24.5100 C   0  0  0  0  0  0  0  0  0  0  0  0
    5.4907  -20.4695   24.1592 C   0  0  0  0  0  0  0  0  0  0  0  0
    5.1900  -21.9020   24.1247 N   0  0  0  0  0  0  0  0  0  0  0  0
   10.5131  -16.7479   25.2958 C   0  0  0  0  0  0  0  0  0  0  0  0
   11.5818  -16.4401   24.5055 O   0  0  0  0  0  0  0  0  0  0  0  0
   10.7548  -16.7032   26.5619 O   0  0  0  0  0  0  0  0  0  0  0  0
  2  1  1  6
  2  3  1  0
  3  4  1  0
  4  8  1  0
  5  4  2  0
  6  7  2  0
  6  2  1  0
 10 11  1  1
 10  9  1  0
 10 12  1  0
 13 12  1  6
 13 14  1  0
 14  6  1  0
 15 13  1  0
 16 15  2  0
 17 15  1  0
 18 17  1  0
 19 20  1  0
 18 19  1  6
 20 21  1  0
 21 22  1  0
 23 22  1  0
 24 18  1  0
 24 25  1  0
 26 24  2  0
M  END
$$$$
