DLK.pdb
     RDKit          3D

 26 25  0  0  1  0  0  0  0  0999 V2000
    9.2572  -17.5942   17.6252 N   0  0  0  0  0  0  0  0  0  0  0  0
   10.5972  -17.5728   18.2105 C   0  0  1  0  0  0  0  0  0  0  0  0
   11.5180  -17.0386   17.1230 C   0  0  0  0  0  0  0  0  0  0  0  0
   11.5161  -18.0034   15.9703 C   0  0  0  0  0  0  0  0  0  0  0  0
   11.3749  -19.2345   16.1367 O   0  0  0  0  0  0  0  0  0  0  0  0
   10.5811  -16.5868   19.3188 C   0  0  0  0  0  0  0  0  0  0  0  0
   11.6433  -16.2609   19.9481 O   0  0  0  0  0  0  0  0  0  0  0  0
   11.6754  -17.5124   14.6883 O   0  0  0  0  0  0  0  0  0  0  0  0
    9.0039  -12.5383   19.3782 C   0  0  0  0  0  0  0  0  0  0  0  0
    7.8787  -13.5593   19.5541 C   0  0  2  0  0  0  0  0  0  0  0  0
    6.5814  -12.8430   19.4080 C   0  0  0  0  0  0  0  0  0  0  0  0
    8.0975  -14.2076   20.9003 C   0  0  0  0  0  0  0  0  0  0  0  0
    9.3002  -15.1179   20.9418 C   0  0  2  0  0  0  0  0  0  0  0  0
    9.3915  -15.9407   19.7546 N   0  0  0  0  0  0  0  0  0  0  0  0
    9.4949  -15.8451   22.1902 C   0  0  0  0  0  0  0  0  0  0  0  0
    8.5817  -16.6413   22.5841 O   0  0  0  0  0  0  0  0  0  0  0  0
   10.6387  -15.7295   23.0021 N   0  0  0  0  0  0  0  0  0  0  0  0
   10.8823  -16.6766   24.1553 C   0  0  1  0  0  0  0  0  0  0  0  0
   11.0774  -18.0212   23.5417 C   0  0  0  0  0  0  0  0  0  0  0  0
   10.9780  -19.2515   24.2971 C   0  0  0  0  0  0  0  0  0  0  0  0
   11.0966  -20.5869   23.7028 C   0  0  0  0  0  0  0  0  0  0  0  0
   11.1716  -21.6811   24.7589 C   0  0  0  0  0  0  0  0  0  0  0  0
   11.0862  -22.9572   24.0462 N   0  0  0  0  0  0  0  0  0  0  0  0
   11.9288  -16.1058   24.9762 C   0  0  0  0  0  0  0  0  0  0  0  0
   12.8367  -15.1770   24.5585 O   0  0  0  0  0  0  0  0  0  0  0  0
   12.0666  -16.4722   26.2050 O   0  0  0  0  0  0  0  0  0  0  0  0
  2  1  1  6
  2  3  1  0
  3  4  1  0
  4  8  1  0
  5  4  2  0
  6  7  2  0
  6  2  1  0
 10 11  1  1
 10  9  1  0
 10 12  1  0
 13 12  1  1
 13 14  1  0
 14  6  1  0
 15 13  1  0
 16 15  2  0
 17 15  1  0
 18 17  1  0
 19 20  1  0
 18 19  1  6
 20 21  1  0
 21 22  1  0
 23 22  1  0
 24 18  1  0
 24 25  1  0
 26 24  2  0
M  END
$$$$
