DLK.pdb
     RDKit          3D

 26 25  0  0  1  0  0  0  0  0999 V2000
    9.4810  -15.1989   20.9138 N   0  0  0  0  0  0  0  0  0  0  0  0
    8.6013  -15.9473   21.8108 C   0  0  1  0  0  0  0  0  0  0  0  0
    8.8950  -17.4177   21.5508 C   0  0  0  0  0  0  0  0  0  0  0  0
    8.3583  -17.7862   20.1959 C   0  0  0  0  0  0  0  0  0  0  0  0
    7.6639  -16.9955   19.5207 O   0  0  0  0  0  0  0  0  0  0  0  0
    9.0185  -15.6381   23.2005 C   0  0  0  0  0  0  0  0  0  0  0  0
   10.2484  -15.5800   23.5390 O   0  0  0  0  0  0  0  0  0  0  0  0
    8.6424  -19.0375   19.6828 O   0  0  0  0  0  0  0  0  0  0  0  0
    7.8775  -12.1376   25.5675 C   0  0  0  0  0  0  0  0  0  0  0  0
    6.7683  -13.1902   25.6057 C   0  0  2  0  0  0  0  0  0  0  0  0
    5.5704  -12.5724   26.2385 C   0  0  0  0  0  0  0  0  0  0  0  0
    7.3341  -14.3795   26.3445 C   0  0  0  0  0  0  0  0  0  0  0  0
    8.4558  -15.0685   25.6070 C   0  0  2  0  0  0  0  0  0  0  0  0
    8.0860  -15.3868   24.2443 N   0  0  0  0  0  0  0  0  0  0  0  0
    9.0996  -16.1629   26.3233 C   0  0  0  0  0  0  0  0  0  0  0  0
    9.4618  -15.9758   27.5303 O   0  0  0  0  0  0  0  0  0  0  0  0
    9.3510  -17.4314   25.7677 N   0  0  0  0  0  0  0  0  0  0  0  0
   10.1381  -18.4779   26.5237 C   0  0  1  0  0  0  0  0  0  0  0  0
    9.8197  -19.7778   25.8669 C   0  0  0  0  0  0  0  0  0  0  0  0
    9.7437  -19.9343   24.4302 C   0  0  0  0  0  0  0  0  0  0  0  0
    9.4427  -21.2043   23.7616 C   0  0  0  0  0  0  0  0  0  0  0  0
    9.2884  -21.0385   22.2560 C   0  0  0  0  0  0  0  0  0  0  0  0
    9.0779  -22.3792   21.7066 N   0  0  0  0  0  0  0  0  0  0  0  0
   11.5119  -18.0276   26.5910 C   0  0  0  0  0  0  0  0  0  0  0  0
   12.0562  -17.0462   25.8151 O   0  0  0  0  0  0  0  0  0  0  0  0
   12.3344  -18.5657   27.4261 O   0  0  0  0  0  0  0  0  0  0  0  0
  2  1  1  6
  2  3  1  0
  3  4  1  0
  4  8  1  0
  5  4  2  0
  6  7  2  0
  6  2  1  0
 10 11  1  1
 10  9  1  0
 10 12  1  0
 13 12  1  1
 13 14  1  0
 14  6  1  0
 15 13  1  0
 16 15  2  0
 17 15  1  0
 18 17  1  0
 19 20  1  0
 18 19  1  6
 20 21  1  0
 21 22  1  0
 23 22  1  0
 24 18  1  0
 24 25  1  0
 26 24  2  0
M  END
$$$$
