DLK.pdb
     RDKit          3D

 26 25  0  0  1  0  0  0  0  0999 V2000
    9.5095  -16.7010   16.4765 N   0  0  0  0  0  0  0  0  0  0  0  0
   10.8369  -16.9324   17.0448 C   0  0  1  0  0  0  0  0  0  0  0  0
   11.8097  -16.1761   16.1517 C   0  0  0  0  0  0  0  0  0  0  0  0
   11.8467  -16.8410   14.8041 C   0  0  0  0  0  0  0  0  0  0  0  0
   11.1802  -17.8688   14.5538 O   0  0  0  0  0  0  0  0  0  0  0  0
   10.8617  -16.2980   18.3856 C   0  0  0  0  0  0  0  0  0  0  0  0
   11.9391  -16.1927   19.0629 O   0  0  0  0  0  0  0  0  0  0  0  0
   12.6421  -16.2980   13.8131 O   0  0  0  0  0  0  0  0  0  0  0  0
    9.1545  -12.3468   19.5874 C   0  0  0  0  0  0  0  0  0  0  0  0
    8.0938  -13.4454   19.5010 C   0  0  2  0  0  0  0  0  0  0  0  0
    6.7554  -12.8008   19.6031 C   0  0  0  0  0  0  0  0  0  0  0  0
    8.4094  -14.4305   20.6012 C   0  0  0  0  0  0  0  0  0  0  0  0
    9.6627  -15.2324   20.3501 C   0  0  2  0  0  0  0  0  0  0  0  0
    9.6972  -15.7670   19.0055 N   0  0  0  0  0  0  0  0  0  0  0  0
   10.0094  -16.1972   21.3866 C   0  0  0  0  0  0  0  0  0  0  0  0
    9.2962  -17.2454   21.5110 O   0  0  0  0  0  0  0  0  0  0  0  0
   11.0942  -16.0510   22.2713 N   0  0  0  0  0  0  0  0  0  0  0  0
   11.4129  -17.1080   23.3045 C   0  0  1  0  0  0  0  0  0  0  0  0
   12.7996  -17.5649   23.0028 C   0  0  0  0  0  0  0  0  0  0  0  0
   13.4393  -18.6536   23.7097 C   0  0  0  0  0  0  0  0  0  0  0  0
   14.7968  -19.1281   23.4227 C   0  0  0  0  0  0  0  0  0  0  0  0
   15.1547  -20.3683   24.2304 C   0  0  0  0  0  0  0  0  0  0  0  0
   16.4445  -20.8403   23.7230 N   0  0  0  0  0  0  0  0  0  0  0  0
   11.1096  -16.5524   24.6061 C   0  0  0  0  0  0  0  0  0  0  0  0
   10.7367  -15.2614   24.8421 O   0  0  0  0  0  0  0  0  0  0  0  0
   11.1889  -17.2870   25.6632 O   0  0  0  0  0  0  0  0  0  0  0  0
  2  1  1  6
  2  3  1  0
  3  4  1  0
  4  8  1  0
  5  4  2  0
  6  7  2  0
  6  2  1  0
 10 11  1  1
 10  9  1  0
 10 12  1  0
 13 12  1  1
 13 14  1  0
 14  6  1  0
 15 13  1  0
 16 15  2  0
 17 15  1  0
 18 17  1  0
 19 20  1  0
 18 19  1  1
 20 21  1  0
 21 22  1  0
 23 22  1  0
 24 18  1  0
 24 25  1  0
 26 24  2  0
M  END
$$$$
