CEC.pdb
     RDKit          3D

 22 21  0  0  1  0  0  0  0  0999 V2000
   18.2181   -9.8883  -15.3563 N   0  0  0  0  0  0  0  0  0  0  0  0
   17.7273  -10.6042  -14.1965 C   0  0  1  0  0  0  0  0  0  0  0  0
   18.3346  -11.9437  -14.1473 C   0  0  0  0  0  0  0  0  0  0  0  0
   17.6458  -13.0469  -15.3902 S   0  0  0  0  0  0  0  0  0  0  0  0
   17.8403   -9.7950  -12.9692 C   0  0  0  0  0  0  0  0  0  0  0  0
   17.4505  -10.3183  -11.9020 O   0  0  0  0  0  0  0  0  0  0  0  0
   18.3603   -8.4812  -12.9521 N   0  0  0  0  0  0  0  0  0  0  0  0
   18.4705   -7.5893  -11.8513 C   0  0  1  0  0  0  0  0  0  0  0  0
   19.4251   -6.4381  -12.0146 C   0  0  0  0  0  0  0  0  0  0  0  0
   20.8363   -6.8012  -12.3102 C   0  0  0  0  0  0  0  0  0  0  0  0
   21.7276   -5.6367  -12.4694 C   0  0  0  0  0  0  0  0  0  0  0  0
   22.3836   -5.2268  -11.4935 O   0  0  0  0  0  0  0  0  0  0  0  0
   17.2241   -7.1618  -11.2530 C   0  0  0  0  0  0  0  0  0  0  0  0
   16.2617   -6.7254  -11.9822 O   0  0  0  0  0  0  0  0  0  0  0  0
   21.8402   -5.0010  -13.6828 O   0  0  0  0  0  0  0  0  0  0  0  0
   16.9294   -7.1733   -9.8634 N   0  0  0  0  0  0  0  0  0  0  0  0
   15.6464   -6.7210   -9.3354 C   0  0  1  0  0  0  0  0  0  0  0  0
   15.3311   -7.2944   -7.9853 C   0  0  0  0  0  0  0  0  0  0  0  0
   13.6684   -6.8510   -7.4262 S   0  0  0  0  0  0  0  0  0  0  0  0
   15.6087   -5.2296   -9.3216 C   0  0  0  0  0  0  0  0  0  0  0  0
   14.5812   -4.5628   -9.5559 O   0  0  0  0  0  0  0  0  0  0  0  0
   16.7918   -4.5518   -9.0297 O   0  0  0  0  0  0  0  0  0  0  0  0
  2  1  1  6
  2  5  1  0
  2  3  1  0
  3  4  1  0
  5  7  1  0
  6  5  2  0
  7  8  1  0
  8 13  1  0
  9 10  1  0
  8  9  1  6
 10 11  1  0
 11 15  1  0
 11 12  2  0
 13 14  2  0
 13 16  1  0
 16 17  1  0
 17 18  1  1
 17 20  1  0
 19 18  1  0
 20 22  1  0
 21 20  2  0
M  END
$$$$
