CEC.pdb
     RDKit          3D

 22 21  0  0  1  0  0  0  0  0999 V2000
   25.2268  -11.8104  -18.0896 N   0  0  0  0  0  0  0  0  0  0  0  0
   24.5199  -11.8260  -16.8254 C   0  0  1  0  0  0  0  0  0  0  0  0
   25.4852  -11.7543  -15.7169 C   0  0  0  0  0  0  0  0  0  0  0  0
   26.4647  -13.2562  -15.5722 S   0  0  0  0  0  0  0  0  0  0  0  0
   23.4280  -10.8355  -16.7999 C   0  0  0  0  0  0  0  0  0  0  0  0
   23.5656   -9.8150  -17.5100 O   0  0  0  0  0  0  0  0  0  0  0  0
   22.2586  -10.9909  -16.0220 N   0  0  0  0  0  0  0  0  0  0  0  0
   21.1250  -10.1369  -15.9512 C   0  0  1  0  0  0  0  0  0  0  0  0
   19.7880  -10.8093  -15.7986 C   0  0  0  0  0  0  0  0  0  0  0  0
   18.6047   -9.9091  -15.7939 C   0  0  0  0  0  0  0  0  0  0  0  0
   17.3153  -10.6243  -15.7507 C   0  0  0  0  0  0  0  0  0  0  0  0
   16.6958  -10.7101  -14.6739 O   0  0  0  0  0  0  0  0  0  0  0  0
   21.2452   -8.9935  -15.0724 C   0  0  0  0  0  0  0  0  0  0  0  0
   21.4362   -9.1512  -13.8126 O   0  0  0  0  0  0  0  0  0  0  0  0
   16.7926  -11.1959  -16.8861 O   0  0  0  0  0  0  0  0  0  0  0  0
   21.1717   -7.6329  -15.4742 N   0  0  0  0  0  0  0  0  0  0  0  0
   21.3918   -6.5323  -14.5416 C   0  0  1  0  0  0  0  0  0  0  0  0
   22.6013   -5.7104  -14.8771 C   0  0  0  0  0  0  0  0  0  0  0  0
   22.7872   -4.2875  -13.7749 S   0  0  0  0  0  0  0  0  0  0  0  0
   20.1616   -5.6920  -14.4600 C   0  0  0  0  0  0  0  0  0  0  0  0
   19.8013   -5.0942  -13.4266 O   0  0  0  0  0  0  0  0  0  0  0  0
   19.3773   -5.5742  -15.6068 O   0  0  0  0  0  0  0  0  0  0  0  0
  2  1  1  6
  2  5  1  0
  2  3  1  0
  3  4  1  0
  5  7  1  0
  6  5  2  0
  7  8  1  0
  8 13  1  0
  9 10  1  0
  8  9  1  1
 10 11  1  0
 11 15  1  0
 11 12  2  0
 13 14  2  0
 13 16  1  0
 16 17  1  0
 17 18  1  6
 17 20  1  0
 19 18  1  0
 20 22  1  0
 21 20  2  0
M  END
$$$$
