CEC.pdb
     RDKit          3D

 22 21  0  0  1  0  0  0  0  0999 V2000
   14.1168  -11.2771  -11.2418 N   0  0  0  0  0  0  0  0  0  0  0  0
   15.5119  -11.0641  -10.9155 C   0  0  1  0  0  0  0  0  0  0  0  0
   16.3305  -12.1258  -11.5222 C   0  0  0  0  0  0  0  0  0  0  0  0
   16.1814  -13.6858  -10.6387 S   0  0  0  0  0  0  0  0  0  0  0  0
   15.9320   -9.6794  -11.1985 C   0  0  0  0  0  0  0  0  0  0  0  0
   15.6249   -9.2060  -12.3148 O   0  0  0  0  0  0  0  0  0  0  0  0
   16.6516   -8.8843  -10.2782 N   0  0  0  0  0  0  0  0  0  0  0  0
   17.1733   -7.5752  -10.4611 C   0  0  1  0  0  0  0  0  0  0  0  0
   16.8554   -6.5712   -9.3869 C   0  0  0  0  0  0  0  0  0  0  0  0
   15.4163   -6.2422   -9.2105 C   0  0  0  0  0  0  0  0  0  0  0  0
   15.1461   -5.3609   -8.0588 C   0  0  0  0  0  0  0  0  0  0  0  0
   13.9702   -5.0706   -7.7696 O   0  0  0  0  0  0  0  0  0  0  0  0
   18.5604   -7.4952  -10.8659 C   0  0  0  0  0  0  0  0  0  0  0  0
   19.4388   -8.2819  -10.3582 O   0  0  0  0  0  0  0  0  0  0  0  0
   16.1786   -4.8579   -7.3038 O   0  0  0  0  0  0  0  0  0  0  0  0
   19.0895   -6.5876  -11.8221 N   0  0  0  0  0  0  0  0  0  0  0  0
   20.4739   -6.6563  -12.2785 C   0  0  1  0  0  0  0  0  0  0  0  0
   20.7808   -7.9131  -13.0383 C   0  0  0  0  0  0  0  0  0  0  0  0
   22.4725   -7.9274  -13.6799 S   0  0  0  0  0  0  0  0  0  0  0  0
   20.7987   -5.4383  -13.0766 C   0  0  0  0  0  0  0  0  0  0  0  0
   19.9462   -4.7709  -13.6954 O   0  0  0  0  0  0  0  0  0  0  0  0
   22.1312   -5.0307  -13.1281 O   0  0  0  0  0  0  0  0  0  0  0  0
  2  1  1  6
  2  5  1  0
  2  3  1  0
  3  4  1  0
  5  7  1  0
  6  5  2  0
  7  8  1  0
  8 13  1  0
  9 10  1  0
  8  9  1  1
 10 11  1  0
 11 15  1  0
 11 12  2  0
 13 14  2  0
 13 16  1  0
 16 17  1  0
 17 18  1  6
 17 20  1  0
 19 18  1  0
 20 22  1  0
 21 20  2  0
M  END
$$$$
