CEC.pdb
     RDKit          3D

 22 21  0  0  1  0  0  0  0  0999 V2000
   20.0229  -13.1930  -17.1800 N   0  0  0  0  0  0  0  0  0  0  0  0
   20.1896  -12.3426  -16.0193 C   0  0  1  0  0  0  0  0  0  0  0  0
   21.3735  -12.7705  -15.2573 C   0  0  0  0  0  0  0  0  0  0  0  0
   22.9087  -12.2965  -16.0665 S   0  0  0  0  0  0  0  0  0  0  0  0
   20.1307  -10.9137  -16.3782 C   0  0  0  0  0  0  0  0  0  0  0  0
   20.3654  -10.6138  -17.5697 O   0  0  0  0  0  0  0  0  0  0  0  0
   19.8261   -9.8932  -15.4495 N   0  0  0  0  0  0  0  0  0  0  0  0
   19.6688   -8.5010  -15.6872 C   0  0  1  0  0  0  0  0  0  0  0  0
   18.3193   -7.9158  -15.3722 C   0  0  0  0  0  0  0  0  0  0  0  0
   18.1082   -6.5056  -15.7935 C   0  0  0  0  0  0  0  0  0  0  0  0
   16.7559   -5.9948  -15.4997 C   0  0  0  0  0  0  0  0  0  0  0  0
   15.7761   -6.4634  -16.1087 O   0  0  0  0  0  0  0  0  0  0  0  0
   20.7383   -7.6505  -15.2105 C   0  0  0  0  0  0  0  0  0  0  0  0
   21.2668   -7.8451  -14.0568 O   0  0  0  0  0  0  0  0  0  0  0  0
   16.5680   -5.0078  -14.5616 O   0  0  0  0  0  0  0  0  0  0  0  0
   21.3029   -6.5583  -15.9219 N   0  0  0  0  0  0  0  0  0  0  0  0
   22.3901   -5.7520  -15.3764 C   0  0  1  0  0  0  0  0  0  0  0  0
   23.2627   -5.1472  -16.4366 C   0  0  0  0  0  0  0  0  0  0  0  0
   24.5892   -4.1365  -15.7348 S   0  0  0  0  0  0  0  0  0  0  0  0
   21.8324   -4.7115  -14.4641 C   0  0  0  0  0  0  0  0  0  0  0  0
   20.8488   -3.9996  -14.7485 O   0  0  0  0  0  0  0  0  0  0  0  0
   22.4511   -4.5315  -13.2275 O   0  0  0  0  0  0  0  0  0  0  0  0
  2  1  1  6
  2  5  1  0
  2  3  1  0
  3  4  1  0
  5  7  1  0
  6  5  2  0
  7  8  1  0
  8 13  1  0
  9 10  1  0
  8  9  1  1
 10 11  1  0
 11 15  1  0
 11 12  2  0
 13 14  2  0
 13 16  1  0
 16 17  1  0
 17 18  1  6
 17 20  1  0
 19 18  1  0
 20 22  1  0
 21 20  2  0
M  END
$$$$
