CEC.pdb
     RDKit          3D

 22 21  0  0  1  0  0  0  0  0999 V2000
   17.1094  -14.3799  -16.7309 N   0  0  0  0  0  0  0  0  0  0  0  0
   16.5496  -13.1412  -16.2304 C   0  0  1  0  0  0  0  0  0  0  0  0
   16.2074  -13.2915  -14.8070 C   0  0  0  0  0  0  0  0  0  0  0  0
   15.0389  -14.6305  -14.5280 S   0  0  0  0  0  0  0  0  0  0  0  0
   17.3942  -11.9831  -16.5758 C   0  0  0  0  0  0  0  0  0  0  0  0
   18.6033  -12.2062  -16.8060 O   0  0  0  0  0  0  0  0  0  0  0  0
   16.9018  -10.6609  -16.6553 N   0  0  0  0  0  0  0  0  0  0  0  0
   17.6057   -9.4757  -17.0003 C   0  0  1  0  0  0  0  0  0  0  0  0
   16.8123   -8.4039  -17.6966 C   0  0  0  0  0  0  0  0  0  0  0  0
   16.2537   -8.7687  -19.0253 C   0  0  0  0  0  0  0  0  0  0  0  0
   15.4486   -7.6988  -19.6444 C   0  0  0  0  0  0  0  0  0  0  0  0
   14.2230   -7.8604  -19.7941 O   0  0  0  0  0  0  0  0  0  0  0  0
   18.4558   -8.9191  -15.9698 C   0  0  0  0  0  0  0  0  0  0  0  0
   18.0404   -8.8197  -14.7591 O   0  0  0  0  0  0  0  0  0  0  0  0
   16.0380   -6.5276  -20.0568 O   0  0  0  0  0  0  0  0  0  0  0  0
   19.7802   -8.4426  -16.1614 N   0  0  0  0  0  0  0  0  0  0  0  0
   20.5674   -7.8711  -15.0736 C   0  0  1  0  0  0  0  0  0  0  0  0
   21.4724   -8.8702  -14.4148 C   0  0  0  0  0  0  0  0  0  0  0  0
   22.3831   -8.1545  -13.0249 S   0  0  0  0  0  0  0  0  0  0  0  0
   21.3264   -6.6877  -15.5732 C   0  0  0  0  0  0  0  0  0  0  0  0
   21.7097   -6.5614  -16.7531 O   0  0  0  0  0  0  0  0  0  0  0  0
   21.6191   -5.6717  -14.6641 O   0  0  0  0  0  0  0  0  0  0  0  0
  2  1  1  1
  2  5  1  0
  2  3  1  0
  3  4  1  0
  5  7  1  0
  6  5  2  0
  7  8  1  0
  8 13  1  0
  9 10  1  0
  8  9  1  1
 10 11  1  0
 11 15  1  0
 11 12  2  0
 13 14  2  0
 13 16  1  0
 16 17  1  0
 17 18  1  6
 17 20  1  0
 19 18  1  0
 20 22  1  0
 21 20  2  0
M  END
$$$$
