CEC.pdb
     RDKit          3D

 22 21  0  0  1  0  0  0  0  0999 V2000
   18.1491  -11.9714  -15.7157 N   0  0  0  0  0  0  0  0  0  0  0  0
   19.0761  -11.3891  -16.6643 C   0  0  1  0  0  0  0  0  0  0  0  0
   18.9591  -12.0790  -17.9589 C   0  0  0  0  0  0  0  0  0  0  0  0
   18.9987  -13.8686  -17.7798 S   0  0  0  0  0  0  0  0  0  0  0  0
   18.9668   -9.9192  -16.7003 C   0  0  0  0  0  0  0  0  0  0  0  0
   19.7864   -9.3027  -17.4163 O   0  0  0  0  0  0  0  0  0  0  0  0
   17.9939   -9.1963  -15.9738 N   0  0  0  0  0  0  0  0  0  0  0  0
   17.8518   -7.7880  -15.8476 C   0  0  1  0  0  0  0  0  0  0  0  0
   16.4522   -7.2701  -15.6578 C   0  0  0  0  0  0  0  0  0  0  0  0
   16.3081   -5.7912  -15.6059 C   0  0  0  0  0  0  0  0  0  0  0  0
   14.9124   -5.3358  -15.4629 C   0  0  0  0  0  0  0  0  0  0  0  0
   14.2889   -4.9411  -16.4659 O   0  0  0  0  0  0  0  0  0  0  0  0
   18.7836   -7.1331  -14.9548 C   0  0  0  0  0  0  0  0  0  0  0  0
   19.0007   -7.5969  -13.7775 O   0  0  0  0  0  0  0  0  0  0  0  0
   14.2952   -5.3431  -14.2348 O   0  0  0  0  0  0  0  0  0  0  0  0
   19.5308   -5.9631  -15.2558 N   0  0  0  0  0  0  0  0  0  0  0  0
   20.5202   -5.4124  -14.3353 C   0  0  1  0  0  0  0  0  0  0  0  0
   21.8220   -6.1581  -14.3562 C   0  0  0  0  0  0  0  0  0  0  0  0
   23.1057   -5.3180  -13.3970 S   0  0  0  0  0  0  0  0  0  0  0  0
   20.7139   -3.9604  -14.6188 C   0  0  0  0  0  0  0  0  0  0  0  0
   20.3838   -3.4165  -15.6913 O   0  0  0  0  0  0  0  0  0  0  0  0
   21.2967   -3.1757  -13.6244 O   0  0  0  0  0  0  0  0  0  0  0  0
  2  1  1  1
  2  5  1  0
  2  3  1  0
  3  4  1  0
  5  7  1  0
  6  5  2  0
  7  8  1  0
  8 13  1  0
  9 10  1  0
  8  9  1  1
 10 11  1  0
 11 15  1  0
 11 12  2  0
 13 14  2  0
 13 16  1  0
 16 17  1  0
 17 18  1  6
 17 20  1  0
 19 18  1  0
 20 22  1  0
 21 20  2  0
M  END
$$$$
