CEC.pdb
     RDKit          3D

 22 21  0  0  1  0  0  0  0  0999 V2000
   18.7731  -11.8108  -17.0969 N   0  0  0  0  0  0  0  0  0  0  0  0
   18.0935  -10.7716  -16.3509 C   0  0  1  0  0  0  0  0  0  0  0  0
   17.7608  -11.2647  -15.0048 C   0  0  0  0  0  0  0  0  0  0  0  0
   16.5318  -12.5776  -15.0480 S   0  0  0  0  0  0  0  0  0  0  0  0
   18.8236   -9.4921  -16.4110 C   0  0  0  0  0  0  0  0  0  0  0  0
   20.0583   -9.5473  -16.6035 O   0  0  0  0  0  0  0  0  0  0  0  0
   18.1967   -8.2343  -16.2630 N   0  0  0  0  0  0  0  0  0  0  0  0
   18.7515   -6.9418  -16.4654 C   0  0  1  0  0  0  0  0  0  0  0  0
   17.8687   -5.9332  -17.1484 C   0  0  0  0  0  0  0  0  0  0  0  0
   18.5133   -4.6419  -17.5057 C   0  0  0  0  0  0  0  0  0  0  0  0
   17.6019   -3.6855  -18.1621 C   0  0  0  0  0  0  0  0  0  0  0  0
   16.9557   -4.0418  -19.1651 O   0  0  0  0  0  0  0  0  0  0  0  0
   19.4391   -6.3612  -15.3321 C   0  0  0  0  0  0  0  0  0  0  0  0
   18.8618   -6.2735  -14.1887 O   0  0  0  0  0  0  0  0  0  0  0  0
   17.4602   -2.4071  -17.6776 O   0  0  0  0  0  0  0  0  0  0  0  0
   20.7633   -5.8472  -15.3456 N   0  0  0  0  0  0  0  0  0  0  0  0
   21.4281   -5.3754  -14.1352 C   0  0  1  0  0  0  0  0  0  0  0  0
   22.6029   -6.2217  -13.7418 C   0  0  0  0  0  0  0  0  0  0  0  0
   22.0989   -7.8494  -13.1335 S   0  0  0  0  0  0  0  0  0  0  0  0
   21.8133   -3.9436  -14.3015 C   0  0  0  0  0  0  0  0  0  0  0  0
   21.7321   -3.3281  -15.3830 O   0  0  0  0  0  0  0  0  0  0  0  0
   22.2892   -3.2638  -13.1809 O   0  0  0  0  0  0  0  0  0  0  0  0
  2  1  1  1
  2  5  1  0
  2  3  1  0
  3  4  1  0
  5  7  1  0
  6  5  2  0
  7  8  1  0
  8 13  1  0
  9 10  1  0
  8  9  1  1
 10 11  1  0
 11 15  1  0
 11 12  2  0
 13 14  2  0
 13 16  1  0
 16 17  1  0
 17 18  1  6
 17 20  1  0
 19 18  1  0
 20 22  1  0
 21 20  2  0
M  END
$$$$
