CEC.pdb
     RDKit          3D

 22 21  0  0  1  0  0  0  0  0999 V2000
   27.4071  -22.4367  -15.7319 N   0  0  0  0  0  0  0  0  0  0  0  0
   25.9883  -22.7123  -15.6365 C   0  0  1  0  0  0  0  0  0  0  0  0
   25.7724  -23.9299  -14.8387 C   0  0  0  0  0  0  0  0  0  0  0  0
   25.7657  -23.5909  -13.0720 S   0  0  0  0  0  0  0  0  0  0  0  0
   25.2288  -21.5197  -15.2185 C   0  0  0  0  0  0  0  0  0  0  0  0
   25.7995  -20.7222  -14.4420 O   0  0  0  0  0  0  0  0  0  0  0  0
   23.9112  -21.2488  -15.6513 N   0  0  0  0  0  0  0  0  0  0  0  0
   23.0872  -20.1365  -15.3300 C   0  0  1  0  0  0  0  0  0  0  0  0
   22.5041  -19.3773  -16.4905 C   0  0  0  0  0  0  0  0  0  0  0  0
   21.7007  -18.1755  -16.1428 C   0  0  0  0  0  0  0  0  0  0  0  0
   21.1181  -17.4924  -17.3132 C   0  0  0  0  0  0  0  0  0  0  0  0
   21.3115  -16.2725  -17.4720 O   0  0  0  0  0  0  0  0  0  0  0  0
   22.1025  -20.3544  -14.2922 C   0  0  0  0  0  0  0  0  0  0  0  0
   21.3340  -21.3824  -14.3221 O   0  0  0  0  0  0  0  0  0  0  0  0
   20.3652  -18.1888  -18.2283 O   0  0  0  0  0  0  0  0  0  0  0  0
   21.8792  -19.5052  -13.1755 N   0  0  0  0  0  0  0  0  0  0  0  0
   20.9052  -19.8242  -12.1368 C   0  0  1  0  0  0  0  0  0  0  0  0
   21.1712  -19.1127  -10.8429 C   0  0  0  0  0  0  0  0  0  0  0  0
   19.9297  -19.4974   -9.5842 S   0  0  0  0  0  0  0  0  0  0  0  0
   19.5279  -19.5508  -12.6412 C   0  0  0  0  0  0  0  0  0  0  0  0
   19.2325  -18.5611  -13.3399 O   0  0  0  0  0  0  0  0  0  0  0  0
   18.5217  -20.4570  -12.3084 O   0  0  0  0  0  0  0  0  0  0  0  0
  2  1  1  1
  2  5  1  0
  2  3  1  0
  3  4  1  0
  5  7  1  0
  6  5  2  0
  7  8  1  0
  8 13  1  0
  9 10  1  0
  8  9  1  6
 10 11  1  0
 11 15  1  0
 11 12  2  0
 13 14  2  0
 13 16  1  0
 16 17  1  0
 17 18  1  1
 17 20  1  0
 19 18  1  0
 20 22  1  0
 21 20  2  0
M  END
$$$$
