CEC.pdb
     RDKit          3D

 22 21  0  0  1  0  0  0  0  0999 V2000
   15.7996  -12.2675  -14.6635 N   0  0  0  0  0  0  0  0  0  0  0  0
   16.1204  -11.2467  -13.6871 C   0  0  1  0  0  0  0  0  0  0  0  0
   16.6848  -11.8741  -12.4815 C   0  0  0  0  0  0  0  0  0  0  0  0
   15.4456  -12.7826  -11.5461 S   0  0  0  0  0  0  0  0  0  0  0  0
   16.9124  -10.1544  -14.2815 C   0  0  0  0  0  0  0  0  0  0  0  0
   17.6876  -10.4541  -15.2163 O   0  0  0  0  0  0  0  0  0  0  0  0
   16.8316   -8.8125  -13.8459 N   0  0  0  0  0  0  0  0  0  0  0  0
   17.4917   -7.6709  -14.3753 C   0  0  1  0  0  0  0  0  0  0  0  0
   16.6840   -6.4039  -14.4487 C   0  0  0  0  0  0  0  0  0  0  0  0
   17.3314   -5.2600  -15.1437 C   0  0  0  0  0  0  0  0  0  0  0  0
   16.4932   -4.0474  -15.1979 C   0  0  0  0  0  0  0  0  0  0  0  0
   15.3668   -4.0546  -14.6669 O   0  0  0  0  0  0  0  0  0  0  0  0
   18.8257   -7.4193  -13.8740 C   0  0  0  0  0  0  0  0  0  0  0  0
   19.0384   -7.2796  -12.6156 O   0  0  0  0  0  0  0  0  0  0  0  0
   16.9432   -2.9120  -15.8284 O   0  0  0  0  0  0  0  0  0  0  0  0
   19.9974   -7.3038  -14.6688 N   0  0  0  0  0  0  0  0  0  0  0  0
   21.3114   -7.0494  -14.0870 C   0  0  1  0  0  0  0  0  0  0  0  0
   22.4199   -7.7619  -14.8042 C   0  0  0  0  0  0  0  0  0  0  0  0
   22.2378   -9.5604  -14.7277 S   0  0  0  0  0  0  0  0  0  0  0  0
   21.5541   -5.5786  -14.0232 C   0  0  0  0  0  0  0  0  0  0  0  0
   22.5160   -5.0633  -13.4197 O   0  0  0  0  0  0  0  0  0  0  0  0
   20.6507   -4.7415  -14.6771 O   0  0  0  0  0  0  0  0  0  0  0  0
  2  1  1  6
  2  5  1  0
  2  3  1  0
  3  4  1  0
  5  7  1  0
  6  5  2  0
  7  8  1  0
  8 13  1  0
  9 10  1  0
  8  9  1  1
 10 11  1  0
 11 15  1  0
 11 12  2  0
 13 14  2  0
 13 16  1  0
 16 17  1  0
 17 18  1  6
 17 20  1  0
 19 18  1  0
 20 22  1  0
 21 20  2  0
M  END
$$$$
