CEC.pdb
     RDKit          3D

 22 21  0  0  1  0  0  0  0  0999 V2000
   15.8352  -11.4698  -17.0794 N   0  0  0  0  0  0  0  0  0  0  0  0
   16.7797  -10.9398  -16.1175 C   0  0  1  0  0  0  0  0  0  0  0  0
   17.8931  -11.8861  -15.9430 C   0  0  0  0  0  0  0  0  0  0  0  0
   17.3842  -13.3807  -15.0808 S   0  0  0  0  0  0  0  0  0  0  0  0
   17.1538   -9.5486  -16.4313 C   0  0  0  0  0  0  0  0  0  0  0  0
   16.6998   -9.0598  -17.4895 O   0  0  0  0  0  0  0  0  0  0  0  0
   17.9864   -8.7639  -15.6019 N   0  0  0  0  0  0  0  0  0  0  0  0
   18.3307   -7.3922  -15.7407 C   0  0  1  0  0  0  0  0  0  0  0  0
   17.1875   -6.4270  -15.8978 C   0  0  0  0  0  0  0  0  0  0  0  0
   17.5620   -4.9977  -16.0626 C   0  0  0  0  0  0  0  0  0  0  0  0
   16.4044   -4.0885  -16.1594 C   0  0  0  0  0  0  0  0  0  0  0  0
   15.8639   -3.8972  -17.2648 O   0  0  0  0  0  0  0  0  0  0  0  0
   19.3235   -6.8899  -14.8154 C   0  0  0  0  0  0  0  0  0  0  0  0
   19.0169   -6.6449  -13.5930 O   0  0  0  0  0  0  0  0  0  0  0  0
   15.9181   -3.4516  -15.0426 O   0  0  0  0  0  0  0  0  0  0  0  0
   20.6829   -6.6225  -15.1291 N   0  0  0  0  0  0  0  0  0  0  0  0
   21.6609   -6.2592  -14.1088 C   0  0  1  0  0  0  0  0  0  0  0  0
   22.9546   -7.0074  -14.2415 C   0  0  0  0  0  0  0  0  0  0  0  0
   22.7140   -8.8002  -14.2002 S   0  0  0  0  0  0  0  0  0  0  0  0
   21.8757   -4.7828  -14.1247 C   0  0  0  0  0  0  0  0  0  0  0  0
   21.5207   -4.0437  -15.0643 O   0  0  0  0  0  0  0  0  0  0  0  0
   22.5090   -4.2059  -13.0245 O   0  0  0  0  0  0  0  0  0  0  0  0
  2  1  1  6
  2  5  1  0
  2  3  1  0
  3  4  1  0
  5  7  1  0
  6  5  2  0
  7  8  1  0
  8 13  1  0
  9 10  1  0
  8  9  1  1
 10 11  1  0
 11 15  1  0
 11 12  2  0
 13 14  2  0
 13 16  1  0
 16 17  1  0
 17 18  1  6
 17 20  1  0
 19 18  1  0
 20 22  1  0
 21 20  2  0
M  END
$$$$
