CEC.pdb
     RDKit          3D

 22 21  0  0  1  0  0  0  0  0999 V2000
   20.1804  -11.9481  -18.0820 N   0  0  0  0  0  0  0  0  0  0  0  0
   20.6576  -11.9033  -16.7151 C   0  0  1  0  0  0  0  0  0  0  0  0
   21.4809  -13.0913  -16.4384 C   0  0  0  0  0  0  0  0  0  0  0  0
   20.5343  -14.6162  -16.5614 S   0  0  0  0  0  0  0  0  0  0  0  0
   21.2696  -10.6009  -16.3943 C   0  0  0  0  0  0  0  0  0  0  0  0
   21.6901  -10.4391  -15.2274 O   0  0  0  0  0  0  0  0  0  0  0  0
   21.3968   -9.5521  -17.3328 N   0  0  0  0  0  0  0  0  0  0  0  0
   21.9972   -8.2764  -17.1555 C   0  0  1  0  0  0  0  0  0  0  0  0
   22.4772   -7.5829  -18.4012 C   0  0  0  0  0  0  0  0  0  0  0  0
   23.1854   -6.2921  -18.1943 C   0  0  0  0  0  0  0  0  0  0  0  0
   23.0990   -5.3764  -19.3476 C   0  0  0  0  0  0  0  0  0  0  0  0
   22.5199   -5.7482  -20.3854 O   0  0  0  0  0  0  0  0  0  0  0  0
   21.2991   -7.3624  -16.2772 C   0  0  0  0  0  0  0  0  0  0  0  0
   20.0773   -7.0392  -16.5033 O   0  0  0  0  0  0  0  0  0  0  0  0
   23.6510   -4.1191  -19.2872 O   0  0  0  0  0  0  0  0  0  0  0  0
   21.8495   -6.7467  -15.1214 N   0  0  0  0  0  0  0  0  0  0  0  0
   21.0568   -5.8958  -14.2398 C   0  0  1  0  0  0  0  0  0  0  0  0
   21.1071   -6.3282  -12.8040 C   0  0  0  0  0  0  0  0  0  0  0  0
   20.4064   -7.9788  -12.5629 S   0  0  0  0  0  0  0  0  0  0  0  0
   21.4818   -4.4747  -14.4011 C   0  0  0  0  0  0  0  0  0  0  0  0
   20.9518   -3.5227  -13.7946 O   0  0  0  0  0  0  0  0  0  0  0  0
   22.5298   -4.2052  -15.2804 O   0  0  0  0  0  0  0  0  0  0  0  0
  2  1  1  6
  2  5  1  0
  2  3  1  0
  3  4  1  0
  5  7  1  0
  6  5  2  0
  7  8  1  0
  8 13  1  0
  9 10  1  0
  8  9  1  6
 10 11  1  0
 11 15  1  0
 11 12  2  0
 13 14  2  0
 13 16  1  0
 16 17  1  0
 17 18  1  1
 17 20  1  0
 19 18  1  0
 20 22  1  0
 21 20  2  0
M  END
$$$$
