CEC.pdb
     RDKit          3D

 22 21  0  0  1  0  0  0  0  0999 V2000
   14.5207  -12.2987  -13.3353 N   0  0  0  0  0  0  0  0  0  0  0  0
   15.0714  -12.5396  -12.0174 C   0  0  1  0  0  0  0  0  0  0  0  0
   15.9101  -13.7485  -12.0442 C   0  0  0  0  0  0  0  0  0  0  0  0
   14.9342  -15.2470  -12.2396 S   0  0  0  0  0  0  0  0  0  0  0  0
   15.6981  -11.3274  -11.4592 C   0  0  0  0  0  0  0  0  0  0  0  0
   16.1344  -11.3970  -10.2890 O   0  0  0  0  0  0  0  0  0  0  0  0
   15.8223  -10.1175  -12.1787 N   0  0  0  0  0  0  0  0  0  0  0  0
   16.4539   -8.9105  -11.7744 C   0  0  1  0  0  0  0  0  0  0  0  0
   17.2647   -8.1956  -12.8206 C   0  0  0  0  0  0  0  0  0  0  0  0
   18.4768   -8.9089  -13.3029 C   0  0  0  0  0  0  0  0  0  0  0  0
   19.2298   -8.1693  -14.3334 C   0  0  0  0  0  0  0  0  0  0  0  0
   18.8317   -7.0474  -14.6988 O   0  0  0  0  0  0  0  0  0  0  0  0
   15.6350   -7.9876  -11.0181 C   0  0  0  0  0  0  0  0  0  0  0  0
   14.4428   -7.7032  -11.4002 O   0  0  0  0  0  0  0  0  0  0  0  0
   20.3645   -8.7064  -14.8930 O   0  0  0  0  0  0  0  0  0  0  0  0
   16.0282   -7.3218   -9.8265 N   0  0  0  0  0  0  0  0  0  0  0  0
   15.1360   -6.4168   -9.1091 C   0  0  1  0  0  0  0  0  0  0  0  0
   15.2060   -6.5807   -7.6193 C   0  0  0  0  0  0  0  0  0  0  0  0
   14.8862   -8.2854   -7.1040 S   0  0  0  0  0  0  0  0  0  0  0  0
   15.4134   -5.0099   -9.5209 C   0  0  0  0  0  0  0  0  0  0  0  0
   16.3906   -4.6750  -10.2194 O   0  0  0  0  0  0  0  0  0  0  0  0
   14.5262   -4.0213   -9.0970 O   0  0  0  0  0  0  0  0  0  0  0  0
  2  1  1  6
  2  5  1  0
  2  3  1  0
  3  4  1  0
  5  7  1  0
  6  5  2  0
  7  8  1  0
  8 13  1  0
  9 10  1  0
  8  9  1  6
 10 11  1  0
 11 15  1  0
 11 12  2  0
 13 14  2  0
 13 16  1  0
 16 17  1  0
 17 18  1  1
 17 20  1  0
 19 18  1  0
 20 22  1  0
 21 20  2  0
M  END
$$$$
