SGD.pdb
     RDKit          3D

 19 18  0  0  1  0  0  0  0  0999 V2000
   -1.0787  -27.1985   27.9417 O   0  0  0  0  0  0  0  0  0  0  0  0
   -1.2335  -27.4092   29.3092 C   0  0  0  0  0  0  0  0  0  0  0  0
   -2.5953  -27.9726   29.5645 C   0  0  2  0  0  0  0  0  0  0  0  0
   -3.5749  -27.4868   28.6054 N   0  0  0  0  0  0  0  0  0  0  0  0
   -3.0260  -27.6481   30.9482 C   0  0  0  0  0  0  0  0  0  0  0  0
   -2.4145  -28.1919   31.8967 O   0  0  0  0  0  0  0  0  0  0  0  0
   -4.0949  -26.7504   31.1862 N   0  0  0  0  0  0  0  0  0  0  0  0
   -4.4653  -26.4219   32.5529 C   0  0  0  0  0  0  0  0  0  0  0  0
   -5.5458  -25.4287   32.5426 C   0  0  0  0  0  0  0  0  0  0  0  0
   -6.0933  -25.0207   33.6124 O   0  0  0  0  0  0  0  0  0  0  0  0
   -5.9944  -24.9086   31.3209 N   0  0  0  0  0  0  0  0  0  0  0  0
   -7.0487  -23.8648   31.2416 C   0  0  1  0  0  0  0  0  0  0  0  0
   -6.5285  -22.8048   30.3185 C   0  0  0  0  0  0  0  0  0  0  0  0
   -7.5182  -21.7439   30.1227 C   0  0  0  0  0  0  0  0  0  0  0  0
   -8.3533  -21.4700   30.9988 O   0  0  0  0  0  0  0  0  0  0  0  0
   -8.2488  -24.4955   30.6317 C   0  0  0  0  0  0  0  0  0  0  0  0
   -8.2276  -25.5826   30.0366 O   0  0  0  0  0  0  0  0  0  0  0  0
   -7.5410  -21.0126   28.9325 O   0  0  0  0  0  0  0  0  0  0  0  0
   -9.5015  -23.8458   30.7161 O   0  0  0  0  0  0  0  0  0  0  0  0
  2  1  1  0
  3  2  1  0
  3  4  1  6
  5  3  1  0
  6  5  2  0
  7  5  1  0
  8  7  1  0
  9  8  1  0
  9 10  2  0
 11  9  1  0
 12 11  1  0
 12 13  1  6
 14 13  1  0
 15 14  2  0
 16 12  1  0
 17 16  2  0
 18 14  1  0
 19 16  1  0
M  END
$$$$
