SGD.pdb
     RDKit          3D

 19 18  0  0  1  0  0  0  0  0999 V2000
    7.2486  -17.4867   15.9140 O   0  0  0  0  0  0  0  0  0  0  0  0
    8.5586  -17.7687   16.2915 C   0  0  0  0  0  0  0  0  0  0  0  0
    8.5630  -18.2679   17.7013 C   0  0  2  0  0  0  0  0  0  0  0  0
    7.2201  -18.3537   18.2535 N   0  0  0  0  0  0  0  0  0  0  0  0
    9.4111  -17.3894   18.5467 C   0  0  0  0  0  0  0  0  0  0  0  0
   10.5979  -17.2011   18.1926 O   0  0  0  0  0  0  0  0  0  0  0  0
    8.8920  -16.7833   19.7164 N   0  0  0  0  0  0  0  0  0  0  0  0
    9.7155  -15.8493   20.4664 C   0  0  0  0  0  0  0  0  0  0  0  0
   10.6664  -16.5944   21.2999 C   0  0  0  0  0  0  0  0  0  0  0  0
   10.5457  -17.8409   21.5061 O   0  0  0  0  0  0  0  0  0  0  0  0
   11.7434  -15.9197   21.8908 N   0  0  0  0  0  0  0  0  0  0  0  0
   12.7520  -16.6161   22.7306 C   0  0  1  0  0  0  0  0  0  0  0  0
   13.9700  -15.7426   22.7435 C   0  0  0  0  0  0  0  0  0  0  0  0
   15.0681  -16.3798   23.4724 C   0  0  0  0  0  0  0  0  0  0  0  0
   15.2566  -17.6050   23.4148 O   0  0  0  0  0  0  0  0  0  0  0  0
   12.1979  -16.6992   24.1076 C   0  0  0  0  0  0  0  0  0  0  0  0
   11.3155  -15.9445   24.5411 O   0  0  0  0  0  0  0  0  0  0  0  0
   15.9335  -15.6114   24.2552 O   0  0  0  0  0  0  0  0  0  0  0  0
   12.6824  -17.6828   24.9999 O   0  0  0  0  0  0  0  0  0  0  0  0
  2  1  1  0
  3  2  1  0
  3  4  1  1
  5  3  1  0
  6  5  2  0
  7  5  1  0
  8  7  1  0
  9  8  1  0
  9 10  2  0
 11  9  1  0
 12 11  1  0
 12 13  1  1
 14 13  1  0
 15 14  2  0
 16 12  1  0
 17 16  2  0
 18 14  1  0
 19 16  1  0
M  END
$$$$
