SGD.pdb
     RDKit          3D

 19 18  0  0  1  0  0  0  0  0999 V2000
    6.7312  -15.7500   15.9661 O   0  0  0  0  0  0  0  0  0  0  0  0
    7.3322  -15.6441   17.2174 C   0  0  0  0  0  0  0  0  0  0  0  0
    7.3560  -14.2057   17.6267 C   0  0  2  0  0  0  0  0  0  0  0  0
    7.8358  -13.3428   16.5586 N   0  0  0  0  0  0  0  0  0  0  0  0
    8.1967  -14.0384   18.8394 C   0  0  0  0  0  0  0  0  0  0  0  0
    9.4175  -13.8064   18.6807 O   0  0  0  0  0  0  0  0  0  0  0  0
    7.6336  -14.1377   20.1348 N   0  0  0  0  0  0  0  0  0  0  0  0
    8.4784  -13.9410   21.3014 C   0  0  0  0  0  0  0  0  0  0  0  0
    8.9174  -15.2445   21.8138 C   0  0  0  0  0  0  0  0  0  0  0  0
    8.4060  -16.3327   21.4075 O   0  0  0  0  0  0  0  0  0  0  0  0
    9.9305  -15.3011   22.7806 N   0  0  0  0  0  0  0  0  0  0  0  0
   10.3828  -16.5820   23.3825 C   0  0  1  0  0  0  0  0  0  0  0  0
   11.8344  -16.4072   23.7122 C   0  0  0  0  0  0  0  0  0  0  0  0
   12.6547  -16.4110   22.4996 C   0  0  0  0  0  0  0  0  0  0  0  0
   12.4832  -17.2552   21.6064 O   0  0  0  0  0  0  0  0  0  0  0  0
    9.6168  -16.7720   24.6424 C   0  0  0  0  0  0  0  0  0  0  0  0
    8.9021  -15.8969   25.1520 O   0  0  0  0  0  0  0  0  0  0  0  0
   13.6570  -15.4537   22.3242 O   0  0  0  0  0  0  0  0  0  0  0  0
    9.6848  -18.0084   25.3243 O   0  0  0  0  0  0  0  0  0  0  0  0
  2  1  1  0
  3  2  1  0
  3  4  1  6
  5  3  1  0
  6  5  2  0
  7  5  1  0
  8  7  1  0
  9  8  1  0
  9 10  2  0
 11  9  1  0
 12 11  1  0
 12 13  1  1
 14 13  1  0
 15 14  2  0
 16 12  1  0
 17 16  2  0
 18 14  1  0
 19 16  1  0
M  END
$$$$
