SGD.pdb
     RDKit          3D

 19 18  0  0  1  0  0  0  0  0999 V2000
    7.3610  -13.2754   17.3876 O   0  0  0  0  0  0  0  0  0  0  0  0
    7.6106  -13.1677   18.7530 C   0  0  0  0  0  0  0  0  0  0  0  0
    8.1184  -14.4797   19.2608 C   0  0  2  0  0  0  0  0  0  0  0  0
    7.1448  -15.5459   19.0853 N   0  0  0  0  0  0  0  0  0  0  0  0
    8.4940  -14.3571   20.6924 C   0  0  0  0  0  0  0  0  0  0  0  0
    9.4733  -13.6320   20.9829 O   0  0  0  0  0  0  0  0  0  0  0  0
    7.7656  -15.0394   21.6970 N   0  0  0  0  0  0  0  0  0  0  0  0
    8.1799  -14.9258   23.0857 C   0  0  0  0  0  0  0  0  0  0  0  0
    9.2122  -15.9289   23.3727 C   0  0  0  0  0  0  0  0  0  0  0  0
    8.9192  -17.1102   23.7323 O   0  0  0  0  0  0  0  0  0  0  0  0
   10.5647  -15.5829   23.2495 N   0  0  0  0  0  0  0  0  0  0  0  0
   11.6600  -16.5345   23.5697 C   0  0  1  0  0  0  0  0  0  0  0  0
   12.9357  -15.7502   23.5080 C   0  0  0  0  0  0  0  0  0  0  0  0
   14.0946  -16.6368   23.3893 C   0  0  0  0  0  0  0  0  0  0  0  0
   13.9697  -17.8710   23.4218 O   0  0  0  0  0  0  0  0  0  0  0  0
   11.4435  -17.0032   24.9638 C   0  0  0  0  0  0  0  0  0  0  0  0
   11.4677  -18.1958   25.3005 O   0  0  0  0  0  0  0  0  0  0  0  0
   15.3768  -16.1035   23.2359 O   0  0  0  0  0  0  0  0  0  0  0  0
   11.1929  -16.0623   25.9887 O   0  0  0  0  0  0  0  0  0  0  0  0
  2  1  1  0
  3  2  1  0
  3  4  1  1
  5  3  1  0
  6  5  2  0
  7  5  1  0
  8  7  1  0
  9  8  1  0
  9 10  2  0
 11  9  1  0
 12 11  1  0
 12 13  1  1
 14 13  1  0
 15 14  2  0
 16 12  1  0
 17 16  2  0
 18 14  1  0
 19 16  1  0
M  END
$$$$
