SGD.pdb
     RDKit          3D

 19 18  0  0  1  0  0  0  0  0999 V2000
    6.3685  -15.9990   18.1096 O   0  0  0  0  0  0  0  0  0  0  0  0
    7.6037  -15.3583   18.1548 C   0  0  0  0  0  0  0  0  0  0  0  0
    7.4628  -14.0812   18.9205 C   0  0  2  0  0  0  0  0  0  0  0  0
    7.7503  -12.9173   18.0970 N   0  0  0  0  0  0  0  0  0  0  0  0
    8.3534  -14.1028   20.1088 C   0  0  0  0  0  0  0  0  0  0  0  0
    9.5194  -13.6639   19.9772 O   0  0  0  0  0  0  0  0  0  0  0  0
    7.8965  -14.6037   21.3519 N   0  0  0  0  0  0  0  0  0  0  0  0
    8.7690  -14.5458   22.5132 C   0  0  0  0  0  0  0  0  0  0  0  0
    9.4285  -15.8442   22.6957 C   0  0  0  0  0  0  0  0  0  0  0  0
    8.9792  -16.9062   22.1656 O   0  0  0  0  0  0  0  0  0  0  0  0
   10.5895  -15.9256   23.4766 N   0  0  0  0  0  0  0  0  0  0  0  0
   11.2682  -17.2170   23.7580 C   0  0  1  0  0  0  0  0  0  0  0  0
   12.6853  -16.8834   24.1141 C   0  0  0  0  0  0  0  0  0  0  0  0
   13.4513  -16.5006   22.9266 C   0  0  0  0  0  0  0  0  0  0  0  0
   13.2956  -17.0831   21.8421 O   0  0  0  0  0  0  0  0  0  0  0  0
   10.5979  -17.8192   24.9404 C   0  0  0  0  0  0  0  0  0  0  0  0
    9.8643  -17.1853   25.7126 O   0  0  0  0  0  0  0  0  0  0  0  0
   14.3821  -15.4609   22.9938 O   0  0  0  0  0  0  0  0  0  0  0  0
   10.7862  -19.1899   25.2303 O   0  0  0  0  0  0  0  0  0  0  0  0
  2  1  1  0
  3  2  1  0
  3  4  1  6
  5  3  1  0
  6  5  2  0
  7  5  1  0
  8  7  1  0
  9  8  1  0
  9 10  2  0
 11  9  1  0
 12 11  1  0
 12 13  1  1
 14 13  1  0
 15 14  2  0
 16 12  1  0
 17 16  2  0
 18 14  1  0
 19 16  1  0
M  END
$$$$
