SGD.pdb
     RDKit          3D

 19 18  0  0  1  0  0  0  0  0999 V2000
    8.3589  -12.0379   19.6415 O   0  0  0  0  0  0  0  0  0  0  0  0
    8.6806  -13.3923   19.6235 C   0  0  0  0  0  0  0  0  0  0  0  0
    7.6663  -14.1450   20.4246 C   0  0  2  0  0  0  0  0  0  0  0  0
    7.5823  -13.6590   21.7929 N   0  0  0  0  0  0  0  0  0  0  0  0
    7.9870  -15.5951   20.4130 C   0  0  0  0  0  0  0  0  0  0  0  0
    7.9844  -16.1886   19.3098 O   0  0  0  0  0  0  0  0  0  0  0  0
    8.2870  -16.2838   21.6133 N   0  0  0  0  0  0  0  0  0  0  0  0
    8.5598  -17.7110   21.5726 C   0  0  0  0  0  0  0  0  0  0  0  0
    9.9080  -17.9672   22.0934 C   0  0  0  0  0  0  0  0  0  0  0  0
   10.3733  -19.1428   22.2032 O   0  0  0  0  0  0  0  0  0  0  0  0
   10.7140  -16.8893   22.4840 N   0  0  0  0  0  0  0  0  0  0  0  0
   12.0748  -17.0795   23.0494 C   0  0  1  0  0  0  0  0  0  0  0  0
   12.8532  -15.8452   22.7074 C   0  0  0  0  0  0  0  0  0  0  0  0
   14.2926  -16.0751   22.8432 C   0  0  0  0  0  0  0  0  0  0  0  0
   14.7425  -17.1899   23.1509 O   0  0  0  0  0  0  0  0  0  0  0  0
   11.9301  -17.1704   24.5262 C   0  0  0  0  0  0  0  0  0  0  0  0
   12.8476  -17.5076   25.2882 O   0  0  0  0  0  0  0  0  0  0  0  0
   15.1961  -15.0316   22.6267 O   0  0  0  0  0  0  0  0  0  0  0  0
   10.6893  -16.8619   25.1292 O   0  0  0  0  0  0  0  0  0  0  0  0
  2  1  1  0
  3  2  1  0
  3  4  1  1
  5  3  1  0
  6  5  2  0
  7  5  1  0
  8  7  1  0
  9  8  1  0
  9 10  2  0
 11  9  1  0
 12 11  1  0
 12 13  1  1
 14 13  1  0
 15 14  2  0
 16 12  1  0
 17 16  2  0
 18 14  1  0
 19 16  1  0
M  END
$$$$
