SGD.pdb
     RDKit          3D

 19 18  0  0  1  0  0  0  0  0999 V2000
    8.4676  -19.2086   17.0664 O   0  0  0  0  0  0  0  0  0  0  0  0
    8.6751  -18.7237   18.3548 C   0  0  0  0  0  0  0  0  0  0  0  0
    7.8618  -17.4831   18.5456 C   0  0  2  0  0  0  0  0  0  0  0  0
    7.6463  -16.7745   17.2938 N   0  0  0  0  0  0  0  0  0  0  0  0
    8.5221  -16.5921   19.5335 C   0  0  0  0  0  0  0  0  0  0  0  0
    9.0979  -15.5651   19.1056 O   0  0  0  0  0  0  0  0  0  0  0  0
    8.4997  -16.8955   20.9164 N   0  0  0  0  0  0  0  0  0  0  0  0
    9.1783  -16.0168   21.8548 C   0  0  0  0  0  0  0  0  0  0  0  0
   10.3219  -16.7212   22.4465 C   0  0  0  0  0  0  0  0  0  0  0  0
   10.5446  -17.9499   22.2194 O   0  0  0  0  0  0  0  0  0  0  0  0
   11.2005  -16.0265   23.2889 N   0  0  0  0  0  0  0  0  0  0  0  0
   12.4676  -16.6255   23.7822 C   0  0  1  0  0  0  0  0  0  0  0  0
   13.4668  -15.5103   23.8488 C   0  0  0  0  0  0  0  0  0  0  0  0
   14.8363  -16.0274   23.8275 C   0  0  0  0  0  0  0  0  0  0  0  0
   15.4521  -16.2684   24.8776 O   0  0  0  0  0  0  0  0  0  0  0  0
   12.2107  -17.1318   25.1561 C   0  0  0  0  0  0  0  0  0  0  0  0
   12.7908  -18.1101   25.6488 O   0  0  0  0  0  0  0  0  0  0  0  0
   15.4821  -16.2613   22.6109 O   0  0  0  0  0  0  0  0  0  0  0  0
   11.2568  -16.4848   25.9746 O   0  0  0  0  0  0  0  0  0  0  0  0
  2  1  1  0
  3  2  1  0
  3  4  1  6
  5  3  1  0
  6  5  2  0
  7  5  1  0
  8  7  1  0
  9  8  1  0
  9 10  2  0
 11  9  1  0
 12 11  1  0
 12 13  1  1
 14 13  1  0
 15 14  2  0
 16 12  1  0
 17 16  2  0
 18 14  1  0
 19 16  1  0
M  END
$$$$
