SGD.pdb
     RDKit          3D

 19 18  0  0  1  0  0  0  0  0999 V2000
    7.8451  -13.6454   17.3655 O   0  0  0  0  0  0  0  0  0  0  0  0
    7.6176  -12.7464   18.4039 C   0  0  0  0  0  0  0  0  0  0  0  0
    8.6928  -12.9059   19.4312 C   0  0  2  0  0  0  0  0  0  0  0  0
   10.0207  -12.8871   18.8380 N   0  0  0  0  0  0  0  0  0  0  0  0
    8.4861  -14.1665   20.1886 C   0  0  0  0  0  0  0  0  0  0  0  0
    7.4780  -14.2493   20.9278 O   0  0  0  0  0  0  0  0  0  0  0  0
    9.4012  -15.2413   20.0768 N   0  0  0  0  0  0  0  0  0  0  0  0
    9.1145  -16.5001   20.7448 C   0  0  0  0  0  0  0  0  0  0  0  0
   10.2960  -16.9344   21.4998 C   0  0  0  0  0  0  0  0  0  0  0  0
   10.4337  -18.1301   21.9023 O   0  0  0  0  0  0  0  0  0  0  0  0
   11.3082  -16.0097   21.7906 N   0  0  0  0  0  0  0  0  0  0  0  0
   12.5240  -16.3794   22.5605 C   0  0  1  0  0  0  0  0  0  0  0  0
   13.5139  -15.2743   22.3476 C   0  0  0  0  0  0  0  0  0  0  0  0
   14.0112  -15.2699   20.9706 C   0  0  0  0  0  0  0  0  0  0  0  0
   14.1946  -16.3268   20.3467 O   0  0  0  0  0  0  0  0  0  0  0  0
   12.1412  -16.4202   23.9965 C   0  0  0  0  0  0  0  0  0  0  0  0
   12.8320  -16.9513   24.8780 O   0  0  0  0  0  0  0  0  0  0  0  0
   14.2917  -14.0621   20.3269 O   0  0  0  0  0  0  0  0  0  0  0  0
   10.9270  -15.8298   24.4153 O   0  0  0  0  0  0  0  0  0  0  0  0
  2  1  1  0
  3  2  1  0
  3  4  1  6
  5  3  1  0
  6  5  2  0
  7  5  1  0
  8  7  1  0
  9  8  1  0
  9 10  2  0
 11  9  1  0
 12 11  1  0
 12 13  1  1
 14 13  1  0
 15 14  2  0
 16 12  1  0
 17 16  2  0
 18 14  1  0
 19 16  1  0
M  END
$$$$
