SGD.pdb
     RDKit          3D

 19 18  0  0  1  0  0  0  0  0999 V2000
    6.5886  -12.8707   18.5852 O   0  0  0  0  0  0  0  0  0  0  0  0
    7.8134  -12.2724   18.3020 C   0  0  0  0  0  0  0  0  0  0  0  0
    8.7952  -13.3317   17.9136 C   0  0  2  0  0  0  0  0  0  0  0  0
    8.2777  -14.1967   16.8650 N   0  0  0  0  0  0  0  0  0  0  0  0
    9.1698  -14.1357   19.1048 C   0  0  0  0  0  0  0  0  0  0  0  0
    8.7322  -15.3068   19.1846 O   0  0  0  0  0  0  0  0  0  0  0  0
    9.9973  -13.5936   20.1180 N   0  0  0  0  0  0  0  0  0  0  0  0
   10.3675  -14.4158   21.2582 C   0  0  0  0  0  0  0  0  0  0  0  0
   11.6747  -15.0358   21.0113 C   0  0  0  0  0  0  0  0  0  0  0  0
   12.1793  -15.0988   19.8485 O   0  0  0  0  0  0  0  0  0  0  0  0
   12.3958  -15.5778   22.0839 N   0  0  0  0  0  0  0  0  0  0  0  0
   13.7602  -16.1423   21.9188 C   0  0  1  0  0  0  0  0  0  0  0  0
   14.6608  -14.9889   21.5946 C   0  0  0  0  0  0  0  0  0  0  0  0
   16.0335  -15.4410   21.3610 C   0  0  0  0  0  0  0  0  0  0  0  0
   16.3370  -16.6427   21.4224 O   0  0  0  0  0  0  0  0  0  0  0  0
   14.1605  -16.7193   23.2291 C   0  0  0  0  0  0  0  0  0  0  0  0
   14.9180  -17.6929   23.3498 O   0  0  0  0  0  0  0  0  0  0  0  0
   17.0380  -14.5174   21.0616 O   0  0  0  0  0  0  0  0  0  0  0  0
   13.6675  -16.1501   24.4255 O   0  0  0  0  0  0  0  0  0  0  0  0
  2  1  1  0
  3  2  1  0
  3  4  1  6
  5  3  1  0
  6  5  2  0
  7  5  1  0
  8  7  1  0
  9  8  1  0
  9 10  2  0
 11  9  1  0
 12 11  1  0
 12 13  1  1
 14 13  1  0
 15 14  2  0
 16 12  1  0
 17 16  2  0
 18 14  1  0
 19 16  1  0
M  END
$$$$
