TWY.pdb
     RDKit          3D

 34 36  0  0  1  0  0  0  0  0999 V2000
    6.9921  -16.9491   18.0574 C   0  0  0  0  0  0  0  0  0  0  0  0
    7.8922  -16.8180   19.2659 C   0  0  1  0  0  0  0  0  0  0  0  0
    9.2151  -16.9017   18.8963 O   0  0  0  0  0  0  0  0  0  0  0  0
    7.5536  -15.5156   19.9505 C   0  0  2  0  0  0  0  0  0  0  0  0
    7.6631  -14.4558   18.9710 N   0  0  0  0  0  0  0  0  0  0  0  0
    8.3511  -15.2704   21.1533 C   0  0  0  0  0  0  0  0  0  0  0  0
    9.2901  -14.4105   21.1093 O   0  0  0  0  0  0  0  0  0  0  0  0
    8.1724  -15.9174   22.3967 N   0  0  0  0  0  0  0  0  0  0  0  0
    9.0852  -15.6577   23.5441 C   0  0  1  0  0  0  0  0  0  0  0  0
    8.4186  -16.0398   24.8105 C   0  0  0  0  0  0  0  0  0  0  0  0
    7.3395  -15.2020   25.2982 C   0  0  0  0  0  0  0  0  0  0  0  0
    5.9904  -15.4708   25.3739 C   0  0  0  0  0  0  0  0  0  0  0  0
    5.3446  -14.4046   25.8630 N   0  0  0  0  0  0  0  0  0  0  0  0
    6.2709  -13.4341   26.1089 C   0  0  0  0  0  0  0  0  0  0  0  0
    6.1413  -12.1557   26.6103 C   0  0  0  0  0  0  0  0  0  0  0  0
    7.2413  -11.3438   26.7730 C   0  0  0  0  0  0  0  0  0  0  0  0
    8.5026  -11.7962   26.4356 C   0  0  0  0  0  0  0  0  0  0  0  0
    8.6157  -13.0738   25.9366 C   0  0  0  0  0  0  0  0  0  0  0  0
    7.5328  -13.9041   25.7646 C   0  0  0  0  0  0  0  0  0  0  0  0
   10.3393  -16.3697   23.2652 C   0  0  0  0  0  0  0  0  0  0  0  0
   10.7317  -16.5613   22.0533 O   0  0  0  0  0  0  0  0  0  0  0  0
   13.1807  -15.2186   17.8106 O   0  0  0  0  0  0  0  0  0  0  0  0
   13.1610  -15.3382   19.2087 C   0  0  0  0  0  0  0  0  0  0  0  0
   14.0020  -16.2206   19.8657 C   0  0  0  0  0  0  0  0  0  0  0  0
   13.9736  -16.3296   21.2459 C   0  0  0  0  0  0  0  0  0  0  0  0
   13.1180  -15.5754   22.0255 C   0  0  0  0  0  0  0  0  0  0  0  0
   13.1195  -15.7268   23.4906 C   0  0  0  0  0  0  0  0  0  0  0  0
   12.6408  -17.0946   23.9572 C   0  0  2  0  0  0  0  0  0  0  0  0
   11.2160  -16.8932   24.2630 N   0  0  0  0  0  0  0  0  0  0  0  0
   13.3340  -17.5067   25.1737 C   0  0  0  0  0  0  0  0  0  0  0  0
   14.5405  -17.8774   25.1400 O   0  0  0  0  0  0  0  0  0  0  0  0
   12.2808  -14.6973   21.3705 C   0  0  0  0  0  0  0  0  0  0  0  0
   12.3061  -14.5841   19.9808 C   0  0  0  0  0  0  0  0  0  0  0  0
   12.6982  -17.5038   26.3917 O   0  0  0  0  0  0  0  0  0  0  0  0
  2  3  1  0
  2  1  1  6
  4  6  1  0
  4  2  1  0
  4  5  1  6
  6  7  2  0
  8  9  1  0
  8  6  1  0
  9 10  1  1
 11 12  2  0
 11 10  1  0
 13 12  1  0
 14 19  2  0
 14 13  1  0
 15 14  1  0
 16 17  1  0
 16 15  2  0
 17 18  2  0
 18 19  1  0
 19 11  1  0
 20  9  1  0
 21 20  2  0
 22 23  1  0
 23 33  2  0
 23 24  1  0
 24 25  2  0
 25 26  1  0
 26 27  1  0
 28 27  1  1
 28 29  1  0
 29 20  1  0
 30 28  1  0
 30 34  1  0
 31 30  2  0
 32 26  2  0
 33 32  1  0
M  END
$$$$
