TWY.pdb
     RDKit          3D

 34 36  0  0  1  0  0  0  0  0999 V2000
   11.1903  -16.9188   17.1048 C   0  0  0  0  0  0  0  0  0  0  0  0
   10.9884  -16.7052   18.5886 C   0  0  1  0  0  0  0  0  0  0  0  0
   12.1662  -16.9049   19.2717 O   0  0  0  0  0  0  0  0  0  0  0  0
   10.4253  -15.3173   18.7794 C   0  0  2  0  0  0  0  0  0  0  0  0
   11.3479  -14.3762   18.1815 N   0  0  0  0  0  0  0  0  0  0  0  0
   10.1131  -15.0073   20.1755 C   0  0  0  0  0  0  0  0  0  0  0  0
   10.8979  -14.2482   20.8320 O   0  0  0  0  0  0  0  0  0  0  0  0
    8.9889  -15.4851   20.8857 N   0  0  0  0  0  0  0  0  0  0  0  0
    8.8892  -15.3451   22.3648 C   0  0  1  0  0  0  0  0  0  0  0  0
    7.6681  -16.0279   22.8511 C   0  0  0  0  0  0  0  0  0  0  0  0
    6.9677  -15.4566   23.9858 C   0  0  0  0  0  0  0  0  0  0  0  0
    5.9496  -15.9919   24.7439 C   0  0  0  0  0  0  0  0  0  0  0  0
    5.5733  -15.1115   25.6802 N   0  0  0  0  0  0  0  0  0  0  0  0
    6.3455  -13.9963   25.5366 C   0  0  0  0  0  0  0  0  0  0  0  0
    6.3688  -12.8071   26.2350 C   0  0  0  0  0  0  0  0  0  0  0  0
    7.2539  -11.8069   25.9010 C   0  0  0  0  0  0  0  0  0  0  0  0
    8.1403  -11.9757   24.8546 C   0  0  0  0  0  0  0  0  0  0  0  0
    8.1049  -13.1677   24.1673 C   0  0  0  0  0  0  0  0  0  0  0  0
    7.2306  -14.1819   24.4813 C   0  0  0  0  0  0  0  0  0  0  0  0
   10.1475  -15.8499   22.9299 C   0  0  0  0  0  0  0  0  0  0  0  0
   11.2647  -15.2590   22.6805 O   0  0  0  0  0  0  0  0  0  0  0  0
   11.1552  -15.1240   31.3484 O   0  0  0  0  0  0  0  0  0  0  0  0
   10.8125  -15.3584   30.0078 C   0  0  0  0  0  0  0  0  0  0  0  0
   11.2267  -14.5029   29.0008 C   0  0  0  0  0  0  0  0  0  0  0  0
   10.8825  -14.7448   27.6815 C   0  0  0  0  0  0  0  0  0  0  0  0
   10.1202  -15.8349   27.3086 C   0  0  0  0  0  0  0  0  0  0  0  0
    9.7749  -16.0510   25.8932 C   0  0  0  0  0  0  0  0  0  0  0  0
   10.8224  -16.8507   25.1309 C   0  0  2  0  0  0  0  0  0  0  0  0
   10.2565  -16.9915   23.7803 N   0  0  0  0  0  0  0  0  0  0  0  0
   10.9967  -18.1775   25.7134 C   0  0  0  0  0  0  0  0  0  0  0  0
   11.9897  -18.4390   26.4481 O   0  0  0  0  0  0  0  0  0  0  0  0
    9.7080  -16.6860   28.3119 C   0  0  0  0  0  0  0  0  0  0  0  0
   10.0523  -16.4465   29.6419 C   0  0  0  0  0  0  0  0  0  0  0  0
   10.0879  -19.1818   25.4828 O   0  0  0  0  0  0  0  0  0  0  0  0
  2  3  1  0
  2  1  1  6
  4  6  1  0
  4  2  1  0
  4  5  1  1
  6  7  2  0
  8  9  1  0
  8  6  1  0
  9 10  1  1
 11 12  2  0
 11 10  1  0
 13 12  1  0
 14 19  2  0
 14 13  1  0
 15 14  1  0
 16 17  1  0
 16 15  2  0
 17 18  2  0
 18 19  1  0
 19 11  1  0
 20  9  1  0
 21 20  2  0
 22 23  1  0
 23 33  2  0
 23 24  1  0
 24 25  2  0
 25 26  1  0
 26 27  1  0
 28 27  1  1
 28 29  1  0
 29 20  1  0
 30 28  1  0
 30 34  1  0
 31 30  2  0
 32 26  2  0
 33 32  1  0
M  END
$$$$
