TWY.pdb
     RDKit          3D

 34 36  0  0  1  0  0  0  0  0999 V2000
   11.7276  -18.0034   17.8012 C   0  0  0  0  0  0  0  0  0  0  0  0
   11.3216  -17.6494   19.2146 C   0  0  1  0  0  0  0  0  0  0  0  0
   12.1459  -18.2696   20.1254 O   0  0  0  0  0  0  0  0  0  0  0  0
   11.3400  -16.1444   19.3334 C   0  0  2  0  0  0  0  0  0  0  0  0
   12.6777  -15.6891   19.0210 N   0  0  0  0  0  0  0  0  0  0  0  0
   10.8565  -15.6609   20.6278 C   0  0  0  0  0  0  0  0  0  0  0  0
   11.6999  -15.4055   21.5479 O   0  0  0  0  0  0  0  0  0  0  0  0
    9.5012  -15.4441   20.9634 N   0  0  0  0  0  0  0  0  0  0  0  0
    9.0385  -15.4736   22.3784 C   0  0  1  0  0  0  0  0  0  0  0  0
    7.5712  -15.2776   22.4295 C   0  0  0  0  0  0  0  0  0  0  0  0
    6.9542  -15.0443   23.7215 C   0  0  0  0  0  0  0  0  0  0  0  0
    6.3290  -15.9361   24.5650 C   0  0  0  0  0  0  0  0  0  0  0  0
    5.8744  -15.2912   25.6470 N   0  0  0  0  0  0  0  0  0  0  0  0
    6.2016  -13.9737   25.5137 C   0  0  0  0  0  0  0  0  0  0  0  0
    5.9718  -12.8895   26.3347 C   0  0  0  0  0  0  0  0  0  0  0  0
    6.4044  -11.6306   25.9831 C   0  0  0  0  0  0  0  0  0  0  0  0
    7.0804  -11.4280   24.7951 C   0  0  0  0  0  0  0  0  0  0  0  0
    7.3020  -12.5196   23.9867 C   0  0  0  0  0  0  0  0  0  0  0  0
    6.8801  -13.7867   24.3152 C   0  0  0  0  0  0  0  0  0  0  0  0
    9.5153  -16.7353   22.9601 C   0  0  0  0  0  0  0  0  0  0  0  0
   10.4695  -17.3976   22.4030 O   0  0  0  0  0  0  0  0  0  0  0  0
   11.9083  -14.9856   31.0171 O   0  0  0  0  0  0  0  0  0  0  0  0
   11.3926  -15.1854   29.7273 C   0  0  0  0  0  0  0  0  0  0  0  0
   11.6242  -16.3626   29.0358 C   0  0  0  0  0  0  0  0  0  0  0  0
   11.1098  -16.5483   27.7636 C   0  0  0  0  0  0  0  0  0  0  0  0
   10.3511  -15.5836   27.1293 C   0  0  0  0  0  0  0  0  0  0  0  0
    9.8269  -15.8229   25.7739 C   0  0  0  0  0  0  0  0  0  0  0  0
    9.7902  -17.2960   25.3914 C   0  0  2  0  0  0  0  0  0  0  0  0
    8.9984  -17.3274   24.1520 N   0  0  0  0  0  0  0  0  0  0  0  0
    9.1077  -18.0864   26.4111 C   0  0  0  0  0  0  0  0  0  0  0  0
    9.7587  -18.8069   27.2181 O   0  0  0  0  0  0  0  0  0  0  0  0
   10.1211  -14.4117   27.8184 C   0  0  0  0  0  0  0  0  0  0  0  0
   10.6371  -14.2203   29.0998 C   0  0  0  0  0  0  0  0  0  0  0  0
    7.7387  -18.0714   26.5261 O   0  0  0  0  0  0  0  0  0  0  0  0
  2  3  1  0
  2  1  1  6
  4  6  1  0
  4  2  1  0
  4  5  1  1
  6  7  2  0
  8  9  1  0
  8  6  1  0
  9 10  1  6
 11 12  2  0
 11 10  1  0
 13 12  1  0
 14 19  2  0
 14 13  1  0
 15 14  1  0
 16 17  1  0
 16 15  2  0
 17 18  2  0
 18 19  1  0
 19 11  1  0
 20  9  1  0
 21 20  2  0
 22 23  1  0
 23 33  2  0
 23 24  1  0
 24 25  2  0
 25 26  1  0
 26 27  1  0
 28 27  1  1
 28 29  1  0
 29 20  1  0
 30 28  1  0
 30 34  1  0
 31 30  2  0
 32 26  2  0
 33 32  1  0
M  END
$$$$
