TWY.pdb
     RDKit          3D

 34 36  0  0  1  0  0  0  0  0999 V2000
    7.1976  -15.2997   17.5795 C   0  0  0  0  0  0  0  0  0  0  0  0
    8.1049  -15.2738   18.7894 C   0  0  1  0  0  0  0  0  0  0  0  0
    9.3445  -14.7785   18.4552 O   0  0  0  0  0  0  0  0  0  0  0  0
    7.4165  -14.4632   19.8612 C   0  0  2  0  0  0  0  0  0  0  0  0
    7.1484  -13.1474   19.3214 N   0  0  0  0  0  0  0  0  0  0  0  0
    8.1574  -14.4261   21.1231 C   0  0  0  0  0  0  0  0  0  0  0  0
    8.8546  -13.3969   21.4022 O   0  0  0  0  0  0  0  0  0  0  0  0
    8.1730  -15.4557   22.0908 N   0  0  0  0  0  0  0  0  0  0  0  0
    9.0609  -15.3850   23.2840 C   0  0  1  0  0  0  0  0  0  0  0  0
    8.3496  -15.9168   24.4694 C   0  0  0  0  0  0  0  0  0  0  0  0
    7.2826  -15.1198   25.0445 C   0  0  0  0  0  0  0  0  0  0  0  0
    5.9930  -15.4855   25.3624 C   0  0  0  0  0  0  0  0  0  0  0  0
    5.3304  -14.4275   25.8473 N   0  0  0  0  0  0  0  0  0  0  0  0
    6.1864  -13.3655   25.8477 C   0  0  0  0  0  0  0  0  0  0  0  0
    6.0132  -12.0549   26.2412 C   0  0  0  0  0  0  0  0  0  0  0  0
    7.0423  -11.1452   26.1468 C   0  0  0  0  0  0  0  0  0  0  0  0
    8.2746  -11.5294   25.6537 C   0  0  0  0  0  0  0  0  0  0  0  0
    8.4318  -12.8404   25.2652 C   0  0  0  0  0  0  0  0  0  0  0  0
    7.4198  -13.7679   25.3495 C   0  0  0  0  0  0  0  0  0  0  0  0
   10.3019  -16.0906   22.9384 C   0  0  0  0  0  0  0  0  0  0  0  0
   10.2685  -17.1938   22.2741 O   0  0  0  0  0  0  0  0  0  0  0  0
   11.3807  -16.7945   30.9714 O   0  0  0  0  0  0  0  0  0  0  0  0
   11.3192  -16.3739   29.6340 C   0  0  0  0  0  0  0  0  0  0  0  0
   12.4028  -16.5207   28.7845 C   0  0  0  0  0  0  0  0  0  0  0  0
   12.3299  -16.1020   27.4666 C   0  0  0  0  0  0  0  0  0  0  0  0
   11.1901  -15.5254   26.9403 C   0  0  0  0  0  0  0  0  0  0  0  0
   11.1586  -15.0914   25.5332 C   0  0  0  0  0  0  0  0  0  0  0  0
   12.1293  -15.8553   24.6433 C   0  0  2  0  0  0  0  0  0  0  0  0
   11.6137  -15.6437   23.2818 N   0  0  0  0  0  0  0  0  0  0  0  0
   12.1048  -17.2833   24.9438 C   0  0  0  0  0  0  0  0  0  0  0  0
   13.1525  -17.8898   25.3024 O   0  0  0  0  0  0  0  0  0  0  0  0
   10.1117  -15.3793   27.7869 C   0  0  0  0  0  0  0  0  0  0  0  0
   10.1805  -15.7996   29.1149 C   0  0  0  0  0  0  0  0  0  0  0  0
   10.9438  -18.0117   24.8475 O   0  0  0  0  0  0  0  0  0  0  0  0
  2  3  1  0
  2  1  1  6
  4  6  1  0
  4  2  1  0
  4  5  1  6
  6  7  2  0
  8  9  1  0
  8  6  1  0
  9 10  1  1
 11 12  2  0
 11 10  1  0
 13 12  1  0
 14 19  2  0
 14 13  1  0
 15 14  1  0
 16 17  1  0
 16 15  2  0
 17 18  2  0
 18 19  1  0
 19 11  1  0
 20  9  1  0
 21 20  2  0
 22 23  1  0
 23 33  2  0
 23 24  1  0
 24 25  2  0
 25 26  1  0
 26 27  1  0
 28 27  1  1
 28 29  1  0
 29 20  1  0
 30 28  1  0
 30 34  1  0
 31 30  2  0
 32 26  2  0
 33 32  1  0
M  END
$$$$
