TWY.pdb
     RDKit          3D

 34 36  0  0  1  0  0  0  0  0999 V2000
    8.6188  -21.2068   21.7172 C   0  0  0  0  0  0  0  0  0  0  0  0
    9.0714  -19.7922   22.0033 C   0  0  1  0  0  0  0  0  0  0  0  0
   10.4434  -19.7303   22.0890 O   0  0  0  0  0  0  0  0  0  0  0  0
    8.5085  -18.9030   20.9207 C   0  0  2  0  0  0  0  0  0  0  0  0
    8.9047  -19.4527   19.6420 N   0  0  0  0  0  0  0  0  0  0  0  0
    8.8768  -17.4952   21.0795 C   0  0  0  0  0  0  0  0  0  0  0  0
    9.8424  -17.0263   20.3933 O   0  0  0  0  0  0  0  0  0  0  0  0
    8.2431  -16.5791   21.9488 N   0  0  0  0  0  0  0  0  0  0  0  0
    8.8010  -15.2183   22.1817 C   0  0  1  0  0  0  0  0  0  0  0  0
    7.7032  -14.2736   22.4923 C   0  0  0  0  0  0  0  0  0  0  0  0
    7.1998  -14.2292   23.8521 C   0  0  0  0  0  0  0  0  0  0  0  0
    6.6974  -15.2481   24.6315 C   0  0  0  0  0  0  0  0  0  0  0  0
    6.3171  -14.7617   25.8198 N   0  0  0  0  0  0  0  0  0  0  0  0
    6.5702  -13.4214   25.8207 C   0  0  0  0  0  0  0  0  0  0  0  0
    6.3692  -12.4560   26.7852 C   0  0  0  0  0  0  0  0  0  0  0  0
    6.7094  -11.1421   26.5539 C   0  0  0  0  0  0  0  0  0  0  0  0
    7.2613  -10.7633   25.3451 C   0  0  0  0  0  0  0  0  0  0  0  0
    7.4557  -11.7378   24.3929 C   0  0  0  0  0  0  0  0  0  0  0  0
    7.1244  -13.0566   24.5995 C   0  0  0  0  0  0  0  0  0  0  0  0
    9.8227  -15.3463   23.2291 C   0  0  0  0  0  0  0  0  0  0  0  0
    9.5330  -15.1147   24.4627 O   0  0  0  0  0  0  0  0  0  0  0  0
    9.1353  -15.5766   29.8568 O   0  0  0  0  0  0  0  0  0  0  0  0
    9.7705  -15.9046   28.6492 C   0  0  0  0  0  0  0  0  0  0  0  0
   10.0044  -17.2229   28.2958 C   0  0  0  0  0  0  0  0  0  0  0  0
   10.6319  -17.5340   27.1012 C   0  0  0  0  0  0  0  0  0  0  0  0
   11.0500  -16.5603   26.2150 C   0  0  0  0  0  0  0  0  0  0  0  0
   11.7167  -16.9372   24.9569 C   0  0  0  0  0  0  0  0  0  0  0  0
   12.1382  -15.7412   24.1144 C   0  0  2  0  0  0  0  0  0  0  0  0
   11.1788  -15.7294   22.9993 N   0  0  0  0  0  0  0  0  0  0  0  0
   13.4844  -15.9231   23.5807 C   0  0  0  0  0  0  0  0  0  0  0  0
   13.6701  -16.1666   22.3558 O   0  0  0  0  0  0  0  0  0  0  0  0
   10.8170  -15.2479   26.5677 C   0  0  0  0  0  0  0  0  0  0  0  0
   10.1854  -14.9298   27.7697 C   0  0  0  0  0  0  0  0  0  0  0  0
   14.5901  -15.8347   24.3914 O   0  0  0  0  0  0  0  0  0  0  0  0
  2  3  1  0
  2  1  1  6
  4  6  1  0
  4  2  1  0
  4  5  1  6
  6  7  2  0
  8  9  1  0
  8  6  1  0
  9 10  1  1
 11 12  2  0
 11 10  1  0
 13 12  1  0
 14 19  2  0
 14 13  1  0
 15 14  1  0
 16 17  1  0
 16 15  2  0
 17 18  2  0
 18 19  1  0
 19 11  1  0
 20  9  1  0
 21 20  2  0
 22 23  1  0
 23 33  2  0
 23 24  1  0
 24 25  2  0
 25 26  1  0
 26 27  1  0
 28 27  1  1
 28 29  1  0
 29 20  1  0
 30 28  1  0
 30 34  1  0
 31 30  2  0
 32 26  2  0
 33 32  1  0
M  END
$$$$
