DCC.pdb
     RDKit          3D

 21 20  0  0  1  0  0  0  0  0999 V2000
   21.8144  -19.0084  -15.4021 N   0  0  0  0  0  0  0  0  0  0  0  0
   22.4926  -20.2761  -15.2063 C   0  0  1  0  0  0  0  0  0  0  0  0
   23.9772  -20.0056  -15.2277 C   0  0  0  0  0  0  0  0  0  0  0  0
   24.4386  -19.6260  -16.5639 C   0  0  0  0  0  0  0  0  0  0  0  0
   23.7027  -19.5274  -17.5744 O   0  0  0  0  0  0  0  0  0  0  0  0
   22.0687  -20.8836  -13.9184 C   0  0  0  0  0  0  0  0  0  0  0  0
   22.6411  -21.9773  -13.5868 O   0  0  0  0  0  0  0  0  0  0  0  0
   25.7982  -19.3423  -16.7777 O   0  0  0  0  0  0  0  0  0  0  0  0
   21.0806  -20.3166  -13.0627 N   0  0  0  0  0  0  0  0  0  0  0  0
   20.7163  -21.0106  -11.8700 C   0  0  1  0  0  0  0  0  0  0  0  0
   20.3203  -19.9880  -10.7916 C   0  0  0  0  0  0  0  0  0  0  0  0
   21.8131  -19.7503   -9.7708 S   0  0  0  0  0  0  0  0  0  0  0  0
   19.5260  -21.8795  -12.0429 C   0  0  0  0  0  0  0  0  0  0  0  0
   18.5997  -21.4412  -12.7554 O   0  0  0  0  0  0  0  0  0  0  0  0
   19.4010  -23.1543  -11.4479 N   0  0  0  0  0  0  0  0  0  0  0  0
   18.2352  -23.9586  -11.5678 C   0  0  1  0  0  0  0  0  0  0  0  0
   18.2457  -25.1429  -10.6274 C   0  0  0  0  0  0  0  0  0  0  0  0
   16.8185  -26.2095  -10.8044 S   0  0  0  0  0  0  0  0  0  0  0  0
   16.9479  -23.2251  -11.5573 C   0  0  0  0  0  0  0  0  0  0  0  0
   16.6467  -22.3064  -10.5688 O   0  0  0  0  0  0  0  0  0  0  0  0
   16.1068  -23.4271  -12.4497 O   0  0  0  0  0  0  0  0  0  0  0  0
  2  3  1  0
  2  1  1  1
  3  4  1  0
  4  8  1  0
  4  5  2  0
  6  2  1  0
  7  6  2  0
  9  6  1  0
 10  9  1  0
 10 11  1  1
 12 11  1  0
 13 10  1  0
 13 15  1  0
 14 13  2  0
 16 15  1  0
 16 19  1  0
 16 17  1  1
 18 17  1  0
 19 21  2  0
 19 20  1  0
M  END
$$$$
