DCC.pdb
     RDKit          3D

 21 20  0  0  1  0  0  0  0  0999 V2000
   25.9725  -21.1670  -17.8499 N   0  0  0  0  0  0  0  0  0  0  0  0
   26.1395  -22.2242  -16.8702 C   0  0  1  0  0  0  0  0  0  0  0  0
   24.7663  -22.7487  -16.5286 C   0  0  0  0  0  0  0  0  0  0  0  0
   24.0065  -21.7914  -15.7233 C   0  0  0  0  0  0  0  0  0  0  0  0
   23.6268  -20.6641  -16.1201 O   0  0  0  0  0  0  0  0  0  0  0  0
   27.0088  -23.2946  -17.4234 C   0  0  0  0  0  0  0  0  0  0  0  0
   26.4574  -24.1184  -18.2304 O   0  0  0  0  0  0  0  0  0  0  0  0
   23.6540  -22.1162  -14.4023 O   0  0  0  0  0  0  0  0  0  0  0  0
   28.3895  -23.4384  -17.1022 N   0  0  0  0  0  0  0  0  0  0  0  0
   29.1173  -24.5371  -17.6497 C   0  0  1  0  0  0  0  0  0  0  0  0
   30.6245  -24.2580  -17.5230 C   0  0  0  0  0  0  0  0  0  0  0  0
   30.9227  -22.7359  -18.4827 S   0  0  0  0  0  0  0  0  0  0  0  0
   28.8906  -25.8078  -16.9179 C   0  0  0  0  0  0  0  0  0  0  0  0
   28.4716  -25.7226  -15.7453 O   0  0  0  0  0  0  0  0  0  0  0  0
   29.1240  -27.0818  -17.4812 N   0  0  0  0  0  0  0  0  0  0  0  0
   28.6161  -28.2856  -16.9213 C   0  0  1  0  0  0  0  0  0  0  0  0
   27.1421  -28.1992  -16.5946 C   0  0  0  0  0  0  0  0  0  0  0  0
   26.5491  -29.5636  -15.5984 S   0  0  0  0  0  0  0  0  0  0  0  0
   28.9751  -29.5285  -17.6434 C   0  0  0  0  0  0  0  0  0  0  0  0
   29.2447  -30.7050  -16.9689 O   0  0  0  0  0  0  0  0  0  0  0  0
   29.0405  -29.5330  -18.8845 O   0  0  0  0  0  0  0  0  0  0  0  0
  2  3  1  0
  2  1  1  6
  3  4  1  0
  4  8  1  0
  4  5  2  0
  6  2  1  0
  7  6  2  0
  9  6  1  0
 10  9  1  0
 10 11  1  1
 12 11  1  0
 13 10  1  0
 13 15  1  0
 14 13  2  0
 16 15  1  0
 16 19  1  0
 16 17  1  6
 18 17  1  0
 19 21  2  0
 19 20  1  0
M  END
$$$$
