DCC.pdb
     RDKit          3D

 21 20  0  0  1  0  0  0  0  0999 V2000
   24.9209  -12.5258  -19.5565 N   0  0  0  0  0  0  0  0  0  0  0  0
   23.6995  -11.7772  -19.3257 C   0  0  1  0  0  0  0  0  0  0  0  0
   22.5698  -12.7722  -19.2186 C   0  0  0  0  0  0  0  0  0  0  0  0
   22.3470  -13.4759  -20.4825 C   0  0  0  0  0  0  0  0  0  0  0  0
   21.7749  -14.5863  -20.5925 O   0  0  0  0  0  0  0  0  0  0  0  0
   23.8291  -10.9656  -18.0881 C   0  0  0  0  0  0  0  0  0  0  0  0
   22.7567  -10.7633  -17.4226 O   0  0  0  0  0  0  0  0  0  0  0  0
   22.7899  -12.9034  -21.6870 O   0  0  0  0  0  0  0  0  0  0  0  0
   25.0607  -10.4189  -17.6251 N   0  0  0  0  0  0  0  0  0  0  0  0
   25.0649   -9.6303  -16.4356 C   0  0  1  0  0  0  0  0  0  0  0  0
   26.5187   -9.3243  -16.0375 C   0  0  0  0  0  0  0  0  0  0  0  0
   27.2446  -10.9291  -15.5639 S   0  0  0  0  0  0  0  0  0  0  0  0
   24.4196   -8.3060  -16.6132 C   0  0  0  0  0  0  0  0  0  0  0  0
   24.5845   -7.7348  -17.7105 O   0  0  0  0  0  0  0  0  0  0  0  0
   23.6431   -7.6792  -15.6136 N   0  0  0  0  0  0  0  0  0  0  0  0
   22.8650   -6.5132  -15.8490 C   0  0  1  0  0  0  0  0  0  0  0  0
   21.9433   -6.6589  -17.0391 C   0  0  0  0  0  0  0  0  0  0  0  0
   20.8081   -5.2885  -17.2366 S   0  0  0  0  0  0  0  0  0  0  0  0
   22.1869   -5.9456  -14.6602 C   0  0  0  0  0  0  0  0  0  0  0  0
   21.6133   -4.6877  -14.6862 O   0  0  0  0  0  0  0  0  0  0  0  0
   22.1222   -6.6007  -13.6061 O   0  0  0  0  0  0  0  0  0  0  0  0
  2  3  1  0
  2  1  1  1
  3  4  1  0
  4  8  1  0
  4  5  2  0
  6  2  1  0
  7  6  2  0
  9  6  1  0
 10  9  1  0
 10 11  1  6
 12 11  1  0
 13 10  1  0
 13 15  1  0
 14 13  2  0
 16 15  1  0
 16 19  1  0
 16 17  1  6
 18 17  1  0
 19 21  2  0
 19 20  1  0
M  END
$$$$
