DCC.pdb
     RDKit          3D

 21 20  0  0  1  0  0  0  0  0999 V2000
   22.1177  -13.6174  -17.5253 N   0  0  0  0  0  0  0  0  0  0  0  0
   21.2911  -12.4386  -17.3444 C   0  0  1  0  0  0  0  0  0  0  0  0
   20.1364  -12.8254  -16.4531 C   0  0  0  0  0  0  0  0  0  0  0  0
   19.2931  -13.8482  -17.0734 C   0  0  0  0  0  0  0  0  0  0  0  0
   19.3354  -14.1736  -18.2837 O   0  0  0  0  0  0  0  0  0  0  0  0
   22.0964  -11.3422  -16.7470 C   0  0  0  0  0  0  0  0  0  0  0  0
   23.2061  -11.6767  -16.2081 O   0  0  0  0  0  0  0  0  0  0  0  0
   18.3522  -14.5429  -16.2945 O   0  0  0  0  0  0  0  0  0  0  0  0
   21.6964   -9.9747  -16.7484 N   0  0  0  0  0  0  0  0  0  0  0  0
   22.6092   -8.9855  -16.2739 C   0  0  1  0  0  0  0  0  0  0  0  0
   23.8305   -8.9359  -17.2074 C   0  0  0  0  0  0  0  0  0  0  0  0
   24.9252   -7.6526  -16.5136 S   0  0  0  0  0  0  0  0  0  0  0  0
   22.0434   -7.6139  -16.2947 C   0  0  0  0  0  0  0  0  0  0  0  0
   21.8173   -7.1082  -17.4131 O   0  0  0  0  0  0  0  0  0  0  0  0
   21.7561   -6.8736  -15.1267 N   0  0  0  0  0  0  0  0  0  0  0  0
   21.1322   -5.5966  -15.1481 C   0  0  1  0  0  0  0  0  0  0  0  0
   19.7455   -5.6159  -14.5451 C   0  0  0  0  0  0  0  0  0  0  0  0
   19.0284   -3.9872  -14.3482 S   0  0  0  0  0  0  0  0  0  0  0  0
   21.9603   -4.4716  -14.6544 C   0  0  0  0  0  0  0  0  0  0  0  0
   21.7825   -3.1826  -15.1221 O   0  0  0  0  0  0  0  0  0  0  0  0
   22.8403   -4.6718  -13.7998 O   0  0  0  0  0  0  0  0  0  0  0  0
  2  3  1  0
  2  1  1  1
  3  4  1  0
  4  8  1  0
  4  5  2  0
  6  2  1  0
  7  6  2  0
  9  6  1  0
 10  9  1  0
 10 11  1  6
 12 11  1  0
 13 10  1  0
 13 15  1  0
 14 13  2  0
 16 15  1  0
 16 19  1  0
 16 17  1  1
 18 17  1  0
 19 21  2  0
 19 20  1  0
M  END
$$$$
