DCC.pdb
     RDKit          3D

 21 20  0  0  1  0  0  0  0  0999 V2000
   19.2606  -13.0445  -16.2071 N   0  0  0  0  0  0  0  0  0  0  0  0
   19.2651  -11.7237  -16.8080 C   0  0  1  0  0  0  0  0  0  0  0  0
   17.8393  -11.2297  -16.8307 C   0  0  0  0  0  0  0  0  0  0  0  0
   17.0173  -11.9923  -17.7714 C   0  0  0  0  0  0  0  0  0  0  0  0
   17.4176  -12.4399  -18.8723 O   0  0  0  0  0  0  0  0  0  0  0  0
   20.1437  -10.8150  -16.0272 C   0  0  0  0  0  0  0  0  0  0  0  0
   19.7855  -10.5671  -14.8256 O   0  0  0  0  0  0  0  0  0  0  0  0
   15.6748  -12.2674  -17.4605 O   0  0  0  0  0  0  0  0  0  0  0  0
   21.3329  -10.2252  -16.5451 N   0  0  0  0  0  0  0  0  0  0  0  0
   22.1658   -9.4639  -15.6713 C   0  0  1  0  0  0  0  0  0  0  0  0
   23.6205   -9.5429  -16.1643 C   0  0  0  0  0  0  0  0  0  0  0  0
   24.2896  -11.0907  -15.4689 S   0  0  0  0  0  0  0  0  0  0  0  0
   21.8323   -8.0181  -15.6626 C   0  0  0  0  0  0  0  0  0  0  0  0
   21.5727   -7.4871  -16.7618 O   0  0  0  0  0  0  0  0  0  0  0  0
   21.7968   -7.2355  -14.4874 N   0  0  0  0  0  0  0  0  0  0  0  0
   21.5045   -5.8444  -14.4868 C   0  0  1  0  0  0  0  0  0  0  0  0
   20.0224   -5.5611  -14.3865 C   0  0  0  0  0  0  0  0  0  0  0  0
   19.6375   -3.8222  -14.2025 S   0  0  0  0  0  0  0  0  0  0  0  0
   22.3135   -5.0209  -13.5581 C   0  0  0  0  0  0  0  0  0  0  0  0
   22.6798   -5.4876  -12.3092 O   0  0  0  0  0  0  0  0  0  0  0  0
   22.6807   -3.8815  -13.8921 O   0  0  0  0  0  0  0  0  0  0  0  0
  2  3  1  0
  2  1  1  1
  3  4  1  0
  4  8  1  0
  4  5  2  0
  6  2  1  0
  7  6  2  0
  9  6  1  0
 10  9  1  0
 10 11  1  6
 12 11  1  0
 13 10  1  0
 13 15  1  0
 14 13  2  0
 16 15  1  0
 16 19  1  0
 16 17  1  1
 18 17  1  0
 19 21  2  0
 19 20  1  0
M  END
$$$$
