DCC.pdb
     RDKit          3D

 21 20  0  0  1  0  0  0  0  0999 V2000
   16.6380  -12.3662  -15.0516 N   0  0  0  0  0  0  0  0  0  0  0  0
   15.8780  -11.2495  -14.5215 C   0  0  1  0  0  0  0  0  0  0  0  0
   14.5007  -11.7604  -14.1756 C   0  0  0  0  0  0  0  0  0  0  0  0
   13.7434  -12.1278  -15.3730 C   0  0  0  0  0  0  0  0  0  0  0  0
   13.7044  -11.4543  -16.4301 O   0  0  0  0  0  0  0  0  0  0  0  0
   16.5657  -10.6889  -13.3298 C   0  0  0  0  0  0  0  0  0  0  0  0
   17.5557  -11.3571  -12.8745 O   0  0  0  0  0  0  0  0  0  0  0  0
   12.9898  -13.3137  -15.3850 O   0  0  0  0  0  0  0  0  0  0  0  0
   16.1804   -9.4748  -12.6915 N   0  0  0  0  0  0  0  0  0  0  0  0
   17.0106   -8.9400  -11.6612 C   0  0  1  0  0  0  0  0  0  0  0  0
   18.3358   -8.4614  -12.2778 C   0  0  0  0  0  0  0  0  0  0  0  0
   19.3026   -7.7778  -10.8905 S   0  0  0  0  0  0  0  0  0  0  0  0
   16.4274   -7.7429  -11.0065 C   0  0  0  0  0  0  0  0  0  0  0  0
   16.2724   -6.7261  -11.7134 O   0  0  0  0  0  0  0  0  0  0  0  0
   16.0485   -7.7077   -9.6463 N   0  0  0  0  0  0  0  0  0  0  0  0
   15.4403   -6.5769   -9.0366 C   0  0  1  0  0  0  0  0  0  0  0  0
   14.2990   -6.9539   -8.1188 C   0  0  0  0  0  0  0  0  0  0  0  0
   13.2594   -8.2586   -8.7689 S   0  0  0  0  0  0  0  0  0  0  0  0
   16.3724   -5.6001   -8.4267 C   0  0  0  0  0  0  0  0  0  0  0  0
   15.9667   -4.3190   -8.1007 O   0  0  0  0  0  0  0  0  0  0  0  0
   17.5505   -5.9214   -8.1954 O   0  0  0  0  0  0  0  0  0  0  0  0
  2  3  1  0
  2  1  1  1
  3  4  1  0
  4  8  1  0
  4  5  2  0
  6  2  1  0
  7  6  2  0
  9  6  1  0
 10  9  1  0
 10 11  1  6
 12 11  1  0
 13 10  1  0
 13 15  1  0
 14 13  2  0
 16 15  1  0
 16 19  1  0
 16 17  1  1
 18 17  1  0
 19 21  2  0
 19 20  1  0
M  END
$$$$
