DCC.pdb
     RDKit          3D

 21 20  0  0  1  0  0  0  0  0999 V2000
   17.3835  -14.9856  -17.4555 N   0  0  0  0  0  0  0  0  0  0  0  0
   17.8193  -14.1709  -16.3367 C   0  0  1  0  0  0  0  0  0  0  0  0
   18.8039  -14.9876  -15.5359 C   0  0  0  0  0  0  0  0  0  0  0  0
   18.1534  -16.1145  -14.8658 C   0  0  0  0  0  0  0  0  0  0  0  0
   18.7574  -17.0653  -14.3147 O   0  0  0  0  0  0  0  0  0  0  0  0
   18.4334  -12.9132  -16.8348 C   0  0  0  0  0  0  0  0  0  0  0  0
   19.1913  -13.0140  -17.8591 O   0  0  0  0  0  0  0  0  0  0  0  0
   16.7507  -16.1781  -14.8111 O   0  0  0  0  0  0  0  0  0  0  0  0
   18.2205  -11.6373  -16.2374 N   0  0  0  0  0  0  0  0  0  0  0  0
   18.7886  -10.4812  -16.8518 C   0  0  1  0  0  0  0  0  0  0  0  0
   17.6577   -9.5844  -17.3832 C   0  0  0  0  0  0  0  0  0  0  0  0
   16.4538   -9.4548  -16.0192 S   0  0  0  0  0  0  0  0  0  0  0  0
   19.5494   -9.6320  -15.9022 C   0  0  0  0  0  0  0  0  0  0  0  0
   19.2025   -9.6665  -14.7038 O   0  0  0  0  0  0  0  0  0  0  0  0
   20.6267   -8.8049  -16.2900 N   0  0  0  0  0  0  0  0  0  0  0  0
   21.3274   -7.9632  -15.3840 C   0  0  1  0  0  0  0  0  0  0  0  0
   22.6880   -7.5547  -15.9026 C   0  0  0  0  0  0  0  0  0  0  0  0
   23.7774   -8.9394  -16.2212 S   0  0  0  0  0  0  0  0  0  0  0  0
   20.5523   -6.8246  -14.8384 C   0  0  0  0  0  0  0  0  0  0  0  0
   20.8782   -6.2414  -13.6277 O   0  0  0  0  0  0  0  0  0  0  0  0
   19.5832   -6.3693  -15.4694 O   0  0  0  0  0  0  0  0  0  0  0  0
  2  3  1  0
  2  1  1  6
  3  4  1  0
  4  8  1  0
  4  5  2  0
  6  2  1  0
  7  6  2  0
  9  6  1  0
 10  9  1  0
 10 11  1  1
 12 11  1  0
 13 10  1  0
 13 15  1  0
 14 13  2  0
 16 15  1  0
 16 19  1  0
 16 17  1  6
 18 17  1  0
 19 21  2  0
 19 20  1  0
M  END
$$$$
