DCC.pdb
     RDKit          3D

 21 20  0  0  1  0  0  0  0  0999 V2000
   12.9243   -9.4049  -10.5167 N   0  0  0  0  0  0  0  0  0  0  0  0
   14.3043   -9.6338  -10.1311 C   0  0  1  0  0  0  0  0  0  0  0  0
   14.7838  -10.8620  -10.8653 C   0  0  0  0  0  0  0  0  0  0  0  0
   14.1230  -12.0746  -10.3803 C   0  0  0  0  0  0  0  0  0  0  0  0
   13.5920  -12.1979   -9.2510 O   0  0  0  0  0  0  0  0  0  0  0  0
   15.1278   -8.4434  -10.4659 C   0  0  0  0  0  0  0  0  0  0  0  0
   14.8268   -7.8251  -11.5434 O   0  0  0  0  0  0  0  0  0  0  0  0
   14.0543  -13.2093  -11.2064 O   0  0  0  0  0  0  0  0  0  0  0  0
   16.2069   -7.9755   -9.6617 N   0  0  0  0  0  0  0  0  0  0  0  0
   16.8736   -6.7688  -10.0309 C   0  0  1  0  0  0  0  0  0  0  0  0
   16.9533   -5.8409   -8.8070 C   0  0  0  0  0  0  0  0  0  0  0  0
   15.2437   -5.2818   -8.5045 S   0  0  0  0  0  0  0  0  0  0  0  0
   18.2800   -6.9861  -10.4510 C   0  0  0  0  0  0  0  0  0  0  0  0
   18.9712   -7.7539   -9.7506 O   0  0  0  0  0  0  0  0  0  0  0  0
   18.8559   -6.3737  -11.5859 N   0  0  0  0  0  0  0  0  0  0  0  0
   20.1280   -6.7375  -12.1057 C   0  0  1  0  0  0  0  0  0  0  0  0
   20.2606   -8.2270  -12.3308 C   0  0  0  0  0  0  0  0  0  0  0  0
   19.0069   -8.9006  -13.4171 S   0  0  0  0  0  0  0  0  0  0  0  0
   20.6016   -5.9355  -13.2579 C   0  0  0  0  0  0  0  0  0  0  0  0
   19.7578   -5.0756  -13.9365 O   0  0  0  0  0  0  0  0  0  0  0  0
   21.7815   -6.0245  -13.6379 O   0  0  0  0  0  0  0  0  0  0  0  0
  2  3  1  0
  2  1  1  6
  3  4  1  0
  4  8  1  0
  4  5  2  0
  6  2  1  0
  7  6  2  0
  9  6  1  0
 10  9  1  0
 10 11  1  1
 12 11  1  0
 13 10  1  0
 13 15  1  0
 14 13  2  0
 16 15  1  0
 16 19  1  0
 16 17  1  6
 18 17  1  0
 19 21  2  0
 19 20  1  0
M  END
$$$$
