RSM.pdb
     RDKit          3D

 26 25  0  0  1  0  0  0  0  0999 V2000
   26.9216  -26.0822  -16.7958 N   0  0  0  0  0  0  0  0  0  0  0  0
   27.2130  -25.3330  -17.9884 C   0  0  0  0  0  0  0  0  0  0  0  0
   26.5348  -25.5229  -19.0700 N   0  0  0  0  0  0  0  0  0  0  0  0
   28.2580  -24.3658  -17.9933 N   0  0  0  0  0  0  0  0  0  0  0  0
   28.9672  -24.0849  -16.7864 C   0  0  0  0  0  0  0  0  0  0  0  0
   28.8497  -22.6159  -16.4501 C   0  0  0  0  0  0  0  0  0  0  0  0
   28.0406  -22.3524  -15.2260 C   0  0  0  0  0  0  0  0  0  0  0  0
   26.8269  -21.4914  -15.4924 C   0  0  2  0  0  0  0  0  0  0  0  0
   26.9881  -20.6412  -16.6309 N   0  0  0  0  0  0  0  0  0  0  0  0
   26.5368  -20.6403  -14.2828 C   0  0  0  0  0  0  0  0  0  0  0  0
   27.0521  -19.5226  -14.1186 O   0  0  0  0  0  0  0  0  0  0  0  0
   26.7315  -25.0631  -19.9689 O   0  0  0  0  0  0  0  0  0  0  0  0
   23.1374  -21.4109  -12.2603 C   0  0  0  0  0  0  0  0  0  0  0  0
   23.7559  -20.1761  -12.1937 C   0  0  1  0  0  0  0  0  0  0  0  0
   25.2820  -20.3227  -12.1490 N   0  0  0  0  0  0  0  0  0  0  0  0
   25.6448  -21.1212  -13.2878 C   0  0  0  0  0  0  0  0  0  0  0  0
   25.6828  -21.0324  -10.9219 O   0  0  0  0  0  0  0  0  0  0  0  0
   25.7945  -22.2869  -10.8996 C   0  0  0  0  0  0  0  0  0  0  0  0
   27.8117  -17.6883   -5.9151 S   0  0  0  0  0  0  0  0  0  0  0  0
   28.1607  -19.3638   -5.2862 C   0  0  0  0  0  0  0  0  0  0  0  0
   27.1163  -20.5172   -6.2435 C   0  0  0  0  0  0  0  0  0  0  0  0
   27.0052  -20.0304   -7.6629 C   0  0  1  0  0  0  0  0  0  0  0  0
   26.1186  -20.9488   -8.4937 N   0  0  0  0  0  0  0  0  0  0  0  0
   25.9408  -20.2758   -9.7635 C   0  0  0  0  0  0  0  0  0  0  0  0
   24.7895  -21.1670   -7.9105 O   0  0  0  0  0  0  0  0  0  0  0  0
   24.5576  -22.0583   -6.8786 O   0  0  0  0  0  0  0  0  0  0  0  0
  2  1  1  0
  3  2  2  0
  4  2  1  0
  5  4  1  0
  6  5  1  0
  6  7  1  0
  8  7  1  0
  8  9  1  6
 10  8  1  0
 11 10  2  0
 12 13  1  0
 14 13  1  6
 14 15  1  0
 15 10  1  0
 16 14  1  0
 16 23  1  0
 17 16  2  0
 19 18  1  0
 20 19  1  0
 22 21  1  6
 21 20  1  0
 22 23  1  0
 22 24  1  0
 24 25  1  0
 26 24  2  0
M  END
$$$$
