RSM.pdb
     RDKit          3D

 26 25  0  0  1  0  0  0  0  0999 V2000
   29.6980  -27.9586  -16.5669 N   0  0  0  0  0  0  0  0  0  0  0  0
   31.0534  -27.6590  -16.9430 C   0  0  0  0  0  0  0  0  0  0  0  0
   31.8463  -28.5906  -17.3544 N   0  0  0  0  0  0  0  0  0  0  0  0
   31.5428  -26.3239  -16.8673 N   0  0  0  0  0  0  0  0  0  0  0  0
   30.7211  -25.3003  -16.3058 C   0  0  0  0  0  0  0  0  0  0  0  0
   30.3722  -24.2806  -17.3658 C   0  0  0  0  0  0  0  0  0  0  0  0
   29.4874  -23.1890  -16.8678 C   0  0  0  0  0  0  0  0  0  0  0  0
   28.1112  -23.6753  -16.4742 C   0  0  2  0  0  0  0  0  0  0  0  0
   27.4246  -24.3266  -17.5462 N   0  0  0  0  0  0  0  0  0  0  0  0
   27.2819  -22.5106  -15.9975 C   0  0  0  0  0  0  0  0  0  0  0  0
   27.6086  -21.8195  -15.0190 O   0  0  0  0  0  0  0  0  0  0  0  0
   32.8265  -28.4421  -17.6284 O   0  0  0  0  0  0  0  0  0  0  0  0
   23.4271  -22.1008  -17.5442 C   0  0  0  0  0  0  0  0  0  0  0  0
   24.1438  -20.9451  -17.2942 C   0  0  1  0  0  0  0  0  0  0  0  0
   25.1872  -21.1679  -16.1923 N   0  0  0  0  0  0  0  0  0  0  0  0
   26.0820  -22.1806  -16.6819 C   0  0  0  0  0  0  0  0  0  0  0  0
   24.5297  -21.6627  -14.9704 O   0  0  0  0  0  0  0  0  0  0  0  0
   24.8771  -22.7490  -14.4358 C   0  0  0  0  0  0  0  0  0  0  0  0
   26.3214  -20.2222  -10.4646 S   0  0  0  0  0  0  0  0  0  0  0  0
   25.0053  -21.1011   -9.5590 C   0  0  0  0  0  0  0  0  0  0  0  0
   23.5971  -21.2767  -10.7095 C   0  0  0  0  0  0  0  0  0  0  0  0
   24.0848  -21.1205  -12.1243 C   0  0  1  0  0  0  0  0  0  0  0  0
   22.9429  -21.2673  -13.1214 N   0  0  0  0  0  0  0  0  0  0  0  0
   23.4958  -20.8922  -14.4062 C   0  0  0  0  0  0  0  0  0  0  0  0
   21.8053  -20.3818  -12.8457 O   0  0  0  0  0  0  0  0  0  0  0  0
   20.7092  -20.7750  -12.0995 O   0  0  0  0  0  0  0  0  0  0  0  0
  2  1  1  0
  3  2  2  0
  4  2  1  0
  5  4  1  0
  6  5  1  0
  6  7  1  0
  8  7  1  0
  8  9  1  6
 10  8  1  0
 11 10  2  0
 12 13  1  0
 14 13  1  6
 14 15  1  0
 15 10  1  0
 16 14  1  0
 16 23  1  0
 17 16  2  0
 19 18  1  0
 20 19  1  0
 22 21  1  6
 21 20  1  0
 22 23  1  0
 22 24  1  0
 24 25  1  0
 26 24  2  0
M  END
$$$$
