RSM.pdb
     RDKit          3D

 26 25  0  0  1  0  0  0  0  0999 V2000
   16.0722  -13.9638  -19.6587 N   0  0  0  0  0  0  0  0  0  0  0  0
   15.8710  -14.4879  -18.3346 C   0  0  0  0  0  0  0  0  0  0  0  0
   14.6899  -14.8053  -17.9221 N   0  0  0  0  0  0  0  0  0  0  0  0
   16.9769  -14.6662  -17.4555 N   0  0  0  0  0  0  0  0  0  0  0  0
   17.6619  -13.5244  -16.9403 C   0  0  0  0  0  0  0  0  0  0  0  0
   18.5964  -12.9675  -17.9899 C   0  0  0  0  0  0  0  0  0  0  0  0
   19.3527  -11.7674  -17.5314 C   0  0  0  0  0  0  0  0  0  0  0  0
   20.8503  -11.9735  -17.5366 C   0  0  2  0  0  0  0  0  0  0  0  0
   21.2410  -13.2225  -16.9603 N   0  0  0  0  0  0  0  0  0  0  0  0
   21.5162  -10.8544  -16.7779 C   0  0  0  0  0  0  0  0  0  0  0  0
   21.6431  -10.8733  -15.5429 O   0  0  0  0  0  0  0  0  0  0  0  0
   14.4884  -15.2407  -17.0122 O   0  0  0  0  0  0  0  0  0  0  0  0
   22.6191   -7.3553  -18.8325 C   0  0  0  0  0  0  0  0  0  0  0  0
   23.4911   -7.9121  -17.9152 C   0  0  1  0  0  0  0  0  0  0  0  0
   22.7324   -8.6755  -16.8224 N   0  0  0  0  0  0  0  0  0  0  0  0
   22.0210   -9.7326  -17.4877 C   0  0  0  0  0  0  0  0  0  0  0  0
   21.7591   -7.7830  -16.1695 O   0  0  0  0  0  0  0  0  0  0  0  0
   20.6168   -7.5890  -16.6636 C   0  0  0  0  0  0  0  0  0  0  0  0
   20.0997   -8.3425  -10.4811 S   0  0  0  0  0  0  0  0  0  0  0  0
   18.8170   -7.2166  -11.1226 C   0  0  0  0  0  0  0  0  0  0  0  0
   19.6087   -6.1905  -12.4102 C   0  0  0  0  0  0  0  0  0  0  0  0
   20.4978   -7.0551  -13.2621 C   0  0  1  0  0  0  0  0  0  0  0  0
   21.2097   -6.2332  -14.3285 N   0  0  0  0  0  0  0  0  0  0  0  0
   22.1328   -7.1446  -14.9722 C   0  0  0  0  0  0  0  0  0  0  0  0
   21.9883   -5.1142  -13.7848 O   0  0  0  0  0  0  0  0  0  0  0  0
   21.4106   -3.9311  -13.3610 O   0  0  0  0  0  0  0  0  0  0  0  0
  2  1  1  0
  3  2  2  0
  4  2  1  0
  5  4  1  0
  6  5  1  0
  6  7  1  0
  8  7  1  0
  8  9  1  1
 10  8  1  0
 11 10  2  0
 12 13  1  0
 14 13  1  1
 14 15  1  0
 15 10  1  0
 16 14  1  0
 16 23  1  0
 17 16  2  0
 19 18  1  0
 20 19  1  0
 22 21  1  6
 21 20  1  0
 22 23  1  0
 22 24  1  0
 24 25  1  0
 26 24  2  0
M  END
$$$$
