RSM.pdb
     RDKit          3D

 26 25  0  0  1  0  0  0  0  0999 V2000
   13.0770  -23.0845    1.6571 N   0  0  0  0  0  0  0  0  0  0  0  0
   14.1524  -22.6402    0.8117 C   0  0  0  0  0  0  0  0  0  0  0  0
   14.0401  -22.6757   -0.4737 N   0  0  0  0  0  0  0  0  0  0  0  0
   15.3618  -22.1516    1.3826 N   0  0  0  0  0  0  0  0  0  0  0  0
   15.3310  -20.9999    2.2259 C   0  0  0  0  0  0  0  0  0  0  0  0
   14.8975  -19.7902    1.4298 C   0  0  0  0  0  0  0  0  0  0  0  0
   14.8916  -18.5296    2.2255 C   0  0  0  0  0  0  0  0  0  0  0  0
   14.0161  -18.6097    3.4553 C   0  0  2  0  0  0  0  0  0  0  0  0
   12.6210  -18.5397    3.1494 N   0  0  0  0  0  0  0  0  0  0  0  0
   14.3675  -17.4880    4.3987 C   0  0  0  0  0  0  0  0  0  0  0  0
   14.1045  -16.3012    4.1459 O   0  0  0  0  0  0  0  0  0  0  0  0
   14.7542  -22.3335   -1.1302 O   0  0  0  0  0  0  0  0  0  0  0  0
   13.3173  -17.4071    8.0604 C   0  0  0  0  0  0  0  0  0  0  0  0
   14.6952  -17.4550    7.9562 C   0  0  2  0  0  0  0  0  0  0  0  0
   15.1755  -16.7970    6.6566 N   0  0  0  0  0  0  0  0  0  0  0  0
   15.0228  -17.7844    5.6233 C   0  0  0  0  0  0  0  0  0  0  0  0
   16.6007  -16.4420    6.7702 O   0  0  0  0  0  0  0  0  0  0  0  0
   17.5037  -17.2367    6.3961 C   0  0  0  0  0  0  0  0  0  0  0  0
   21.4494  -10.3657    7.1540 S   0  0  0  0  0  0  0  0  0  0  0  0
   19.7207  -10.9403    7.0746 C   0  0  0  0  0  0  0  0  0  0  0  0
   19.7512  -12.7486    7.3325 C   0  0  0  0  0  0  0  0  0  0  0  0
   18.3634  -13.3024    7.1556 C   0  0  1  0  0  0  0  0  0  0  0  0
   18.3307  -14.8031    7.4135 N   0  0  0  0  0  0  0  0  0  0  0  0
   16.9382  -15.1868    7.3098 C   0  0  0  0  0  0  0  0  0  0  0  0
   18.8024  -15.1792    8.7515 O   0  0  0  0  0  0  0  0  0  0  0  0
   20.1107  -15.5435    9.0134 O   0  0  0  0  0  0  0  0  0  0  0  0
  2  1  1  0
  3  2  2  0
  4  2  1  0
  5  4  1  0
  6  5  1  0
  6  7  1  0
  8  7  1  0
  8  9  1  6
 10  8  1  0
 11 10  2  0
 12 13  1  0
 14 13  1  6
 14 15  1  0
 15 10  1  0
 16 14  1  0
 16 23  1  0
 17 16  2  0
 19 18  1  0
 20 19  1  0
 22 21  1  6
 21 20  1  0
 22 23  1  0
 22 24  1  0
 24 25  1  0
 26 24  2  0
M  END
$$$$
