RSM.pdb
     RDKit          3D

 26 25  0  0  1  0  0  0  0  0999 V2000
   32.5724  -24.4822  -14.2347 N   0  0  0  0  0  0  0  0  0  0  0  0
   32.8291  -24.8277  -15.6070 C   0  0  0  0  0  0  0  0  0  0  0  0
   33.8475  -25.5535  -15.9262 N   0  0  0  0  0  0  0  0  0  0  0  0
   31.9591  -24.3727  -16.6385 N   0  0  0  0  0  0  0  0  0  0  0  0
   30.5980  -24.0688  -16.3327 C   0  0  0  0  0  0  0  0  0  0  0  0
   30.3329  -22.5995  -16.5689 C   0  0  0  0  0  0  0  0  0  0  0  0
   29.8570  -21.8814  -15.3522 C   0  0  0  0  0  0  0  0  0  0  0  0
   28.5389  -22.4076  -14.8317 C   0  0  2  0  0  0  0  0  0  0  0  0
   27.5270  -22.4663  -15.8404 N   0  0  0  0  0  0  0  0  0  0  0  0
   28.0560  -21.5319  -13.7040 C   0  0  0  0  0  0  0  0  0  0  0  0
   28.8020  -21.1669  -12.7809 O   0  0  0  0  0  0  0  0  0  0  0  0
   34.0654  -25.8625  -16.8828 O   0  0  0  0  0  0  0  0  0  0  0  0
   24.0009  -21.0613  -13.1726 C   0  0  0  0  0  0  0  0  0  0  0  0
   24.7510  -19.9084  -13.0317 C   0  0  1  0  0  0  0  0  0  0  0  0
   26.2012  -20.2340  -12.6533 N   0  0  0  0  0  0  0  0  0  0  0  0
   26.7027  -21.1017  -13.6837 C   0  0  0  0  0  0  0  0  0  0  0  0
   26.2359  -20.9514  -11.3671 O   0  0  0  0  0  0  0  0  0  0  0  0
   26.0875  -22.2011  -11.3119 C   0  0  0  0  0  0  0  0  0  0  0  0
   28.5288  -18.0039   -6.3155 S   0  0  0  0  0  0  0  0  0  0  0  0
   28.1771  -19.5742   -5.4580 C   0  0  0  0  0  0  0  0  0  0  0  0
   27.0506  -20.5258   -6.5363 C   0  0  0  0  0  0  0  0  0  0  0  0
   27.2396  -20.0913   -7.9644 C   0  0  1  0  0  0  0  0  0  0  0  0
   26.3160  -20.8581   -8.9018 N   0  0  0  0  0  0  0  0  0  0  0  0
   26.4393  -20.2077  -10.1897 C   0  0  0  0  0  0  0  0  0  0  0  0
   24.9037  -20.8073   -8.5057 O   0  0  0  0  0  0  0  0  0  0  0  0
   24.3961  -21.5212   -7.4355 O   0  0  0  0  0  0  0  0  0  0  0  0
  2  1  1  0
  3  2  2  0
  4  2  1  0
  5  4  1  0
  6  5  1  0
  6  7  1  0
  8  7  1  0
  8  9  1  6
 10  8  1  0
 11 10  2  0
 12 13  1  0
 14 13  1  6
 14 15  1  0
 15 10  1  0
 16 14  1  0
 16 23  1  0
 17 16  2  0
 19 18  1  0
 20 19  1  0
 22 21  1  6
 21 20  1  0
 22 23  1  0
 22 24  1  0
 24 25  1  0
 26 24  2  0
M  END
$$$$
