RSM.pdb
     RDKit          3D

 26 25  0  0  1  0  0  0  0  0999 V2000
   18.8645  -20.3817  -10.9636 N   0  0  0  0  0  0  0  0  0  0  0  0
   19.2787  -21.1564  -12.1024 C   0  0  0  0  0  0  0  0  0  0  0  0
   20.2104  -20.7305  -12.8876 N   0  0  0  0  0  0  0  0  0  0  0  0
   18.6649  -22.4106  -12.3814 N   0  0  0  0  0  0  0  0  0  0  0  0
   17.6697  -22.9235  -11.4954 C   0  0  0  0  0  0  0  0  0  0  0  0
   18.2037  -24.1361  -10.7679 C   0  0  0  0  0  0  0  0  0  0  0  0
   18.0041  -24.0755   -9.2917 C   0  0  0  0  0  0  0  0  0  0  0  0
   18.5318  -25.2959   -8.5723 C   0  0  2  0  0  0  0  0  0  0  0  0
   18.6682  -26.4312   -9.4309 N   0  0  0  0  0  0  0  0  0  0  0  0
   17.6079  -25.6499   -7.4353 C   0  0  0  0  0  0  0  0  0  0  0  0
   16.3841  -25.7884   -7.5930 O   0  0  0  0  0  0  0  0  0  0  0  0
   20.4879  -21.1903  -13.7649 O   0  0  0  0  0  0  0  0  0  0  0  0
   19.2599  -25.5051   -3.7448 C   0  0  0  0  0  0  0  0  0  0  0  0
   18.2366  -26.4310   -3.8316 C   0  0  1  0  0  0  0  0  0  0  0  0
   17.2984  -26.1113   -5.0022 N   0  0  0  0  0  0  0  0  0  0  0  0
   18.1422  -25.8345   -6.1324 C   0  0  0  0  0  0  0  0  0  0  0  0
   16.5032  -24.9099   -4.6951 O   0  0  0  0  0  0  0  0  0  0  0  0
   16.8808  -23.7654   -5.0615 C   0  0  0  0  0  0  0  0  0  0  0  0
   10.5948  -24.6174   -5.7725 S   0  0  0  0  0  0  0  0  0  0  0  0
   10.4447  -23.5929   -4.2715 C   0  0  0  0  0  0  0  0  0  0  0  0
   12.1390  -23.1105   -3.7878 C   0  0  0  0  0  0  0  0  0  0  0  0
   13.0772  -24.2596   -4.0394 C   0  0  2  0  0  0  0  0  0  0  0  0
   14.5061  -23.9006   -3.6532 N   0  0  0  0  0  0  0  0  0  0  0  0
   15.3026  -25.0657   -3.9775 C   0  0  0  0  0  0  0  0  0  0  0  0
   14.6755  -23.6244   -2.2217 O   0  0  0  0  0  0  0  0  0  0  0  0
   14.4306  -22.3842   -1.6605 O   0  0  0  0  0  0  0  0  0  0  0  0
  2  1  1  0
  3  2  2  0
  4  2  1  0
  5  4  1  0
  6  5  1  0
  6  7  1  0
  8  7  1  0
  8  9  1  6
 10  8  1  0
 11 10  2  0
 12 13  1  0
 14 13  1  6
 14 15  1  0
 15 10  1  0
 16 14  1  0
 16 23  1  0
 17 16  2  0
 19 18  1  0
 20 19  1  0
 22 21  1  6
 21 20  1  0
 22 23  1  0
 22 24  1  0
 24 25  1  0
 26 24  2  0
M  END
$$$$
