RSM.pdb
     RDKit          3D

 26 25  0  0  1  0  0  0  0  0999 V2000
   31.0528  -25.9109  -15.9222 N   0  0  0  0  0  0  0  0  0  0  0  0
   31.0420  -25.6769  -17.3412 C   0  0  0  0  0  0  0  0  0  0  0  0
   31.0538  -26.6633  -18.1735 N   0  0  0  0  0  0  0  0  0  0  0  0
   31.0172  -24.3477  -17.8512 N   0  0  0  0  0  0  0  0  0  0  0  0
   30.6194  -23.2715  -17.0014 C   0  0  0  0  0  0  0  0  0  0  0  0
   29.3961  -23.6679  -16.2069 C   0  0  0  0  0  0  0  0  0  0  0  0
   28.9316  -22.6072  -15.2679 C   0  0  0  0  0  0  0  0  0  0  0  0
   27.8581  -21.7220  -15.8588 C   0  0  2  0  0  0  0  0  0  0  0  0
   28.3081  -20.9912  -17.0026 N   0  0  0  0  0  0  0  0  0  0  0  0
   27.3758  -20.7482  -14.8143 C   0  0  0  0  0  0  0  0  0  0  0  0
   27.7787  -19.5748  -14.7644 O   0  0  0  0  0  0  0  0  0  0  0  0
   31.0474  -26.5616  -19.1971 O   0  0  0  0  0  0  0  0  0  0  0  0
   23.7246  -20.9967  -13.1378 C   0  0  0  0  0  0  0  0  0  0  0  0
   24.5645  -19.8992  -13.0967 C   0  0  1  0  0  0  0  0  0  0  0  0
   26.0050  -20.3159  -12.7740 N   0  0  0  0  0  0  0  0  0  0  0  0
   26.4273  -21.1742  -13.8469 C   0  0  0  0  0  0  0  0  0  0  0  0
   26.0372  -21.0773  -11.5133 O   0  0  0  0  0  0  0  0  0  0  0  0
   25.9649  -22.3348  -11.5076 C   0  0  0  0  0  0  0  0  0  0  0  0
   27.4173  -17.9763   -6.1441 S   0  0  0  0  0  0  0  0  0  0  0  0
   27.4662  -19.6603   -5.4468 C   0  0  0  0  0  0  0  0  0  0  0  0
   26.5994  -20.7491   -6.6303 C   0  0  0  0  0  0  0  0  0  0  0  0
   26.7738  -20.2112   -8.0247 C   0  0  1  0  0  0  0  0  0  0  0  0
   26.0437  -21.0747   -9.0449 N   0  0  0  0  0  0  0  0  0  0  0  0
   26.1511  -20.3669  -10.3037 C   0  0  0  0  0  0  0  0  0  0  0  0
   24.6171  -21.2530   -8.7496 O   0  0  0  0  0  0  0  0  0  0  0  0
   24.1420  -22.2314   -7.8953 O   0  0  0  0  0  0  0  0  0  0  0  0
  2  1  1  0
  3  2  2  0
  4  2  1  0
  5  4  1  0
  6  5  1  0
  6  7  1  0
  8  7  1  0
  8  9  1  6
 10  8  1  0
 11 10  2  0
 12 13  1  0
 14 13  1  6
 14 15  1  0
 15 10  1  0
 16 14  1  0
 16 23  1  0
 17 16  2  0
 19 18  1  0
 20 19  1  0
 22 21  1  6
 21 20  1  0
 22 23  1  0
 22 24  1  0
 24 25  1  0
 26 24  2  0
M  END
$$$$
