IKI.pdb
     RDKit          3D

 26 25  0  0  1  0  0  0  0  0999 V2000
   26.6283  -20.4868   -7.3090 C   0  0  0  0  0  0  0  0  0  0  0  0
   25.9970  -21.1385   -8.5003 C   0  0  0  0  0  0  0  0  0  0  0  0
   26.0023  -20.1993   -9.7137 C   0  0  2  0  0  0  0  0  0  0  0  0
   25.2537  -18.9679   -9.3385 C   0  0  0  0  0  0  0  0  0  0  0  0
   25.4367  -20.9580  -10.8900 C   0  0  2  0  0  0  0  0  0  0  0  0
   26.3071  -22.1374  -11.0363 N   0  0  0  0  0  0  0  0  0  0  0  0
   25.4757  -20.1852  -12.1614 C   0  0  0  0  0  0  0  0  0  0  0  0
   24.6883  -19.2136  -12.3015 O   0  0  0  0  0  0  0  0  0  0  0  0
   26.3540  -20.4895  -13.2156 N   0  0  0  0  0  0  0  0  0  0  0  0
   26.4370  -19.9089  -14.5192 C   0  0  1  0  0  0  0  0  0  0  0  0
   27.7466  -20.2241  -15.2596 C   0  0  0  0  0  0  0  0  0  0  0  0
   27.7933  -19.5806  -16.6054 C   0  0  0  0  0  0  0  0  0  0  0  0
   28.0861  -18.1046  -16.4308 C   0  0  0  0  0  0  0  0  0  0  0  0
   28.2298  -17.3971  -17.7694 C   0  0  0  0  0  0  0  0  0  0  0  0
   28.5505  -16.0027  -17.5936 N   0  0  0  0  0  0  0  0  0  0  0  0
   25.3069  -20.1326  -15.4057 C   0  0  0  0  0  0  0  0  0  0  0  0
   25.0055  -21.3070  -15.7422 O   0  0  0  0  0  0  0  0  0  0  0  0
   19.5636  -18.4920  -15.8526 C   0  0  0  0  0  0  0  0  0  0  0  0
   20.7599  -19.0051  -16.5729 C   0  0  0  0  0  0  0  0  0  0  0  0
   22.0645  -18.8862  -15.8787 C   0  0  2  0  0  0  0  0  0  0  0  0
   22.2387  -17.6300  -15.0914 C   0  0  0  0  0  0  0  0  0  0  0  0
   23.2281  -19.3724  -16.6546 C   0  0  2  0  0  0  0  0  0  0  0  0
   24.4848  -19.0978  -15.9418 N   0  0  0  0  0  0  0  0  0  0  0  0
   23.4052  -18.9019  -18.0231 C   0  0  0  0  0  0  0  0  0  0  0  0
   22.7317  -19.3522  -19.1502 O   0  0  0  0  0  0  0  0  0  0  0  0
   24.2533  -17.9796  -18.3111 O   0  0  0  0  0  0  0  0  0  0  0  0
  2  1  1  0
  2  3  1  0
  3  4  1  1
  5  3  1  0
  5  6  1  6
  7  8  2  0
  7  5  1  0
  9  7  1  0
 10  9  1  0
 10 11  1  6
 12 13  1  0
 12 11  1  0
 13 14  1  0
 14 15  1  0
 16 23  1  0
 16 10  1  0
 17 16  2  0
 19 18  1  0
 19 20  1  0
 20 21  1  6
 20 22  1  0
 22 23  1  1
 22 24  1  0
 24 25  1  0
 26 24  2  0
M  END
$$$$
