IKI.pdb
     RDKit          3D

 26 25  0  0  1  0  0  0  0  0999 V2000
   18.4076  -21.4126  -10.9323 C   0  0  0  0  0  0  0  0  0  0  0  0
   19.7021  -21.7666  -10.2679 C   0  0  0  0  0  0  0  0  0  0  0  0
   20.8566  -20.9170  -10.8154 C   0  0  2  0  0  0  0  0  0  0  0  0
   20.8584  -21.0541  -12.2982 C   0  0  0  0  0  0  0  0  0  0  0  0
   22.1260  -21.3628  -10.1305 C   0  0  2  0  0  0  0  0  0  0  0  0
   21.9163  -21.0582   -8.7045 N   0  0  0  0  0  0  0  0  0  0  0  0
   23.3337  -20.6273  -10.5948 C   0  0  0  0  0  0  0  0  0  0  0  0
   23.3076  -19.3692  -10.6042 O   0  0  0  0  0  0  0  0  0  0  0  0
   24.5059  -21.2736  -11.0236 N   0  0  0  0  0  0  0  0  0  0  0  0
   25.6944  -20.7115  -11.5847 C   0  0  1  0  0  0  0  0  0  0  0  0
   26.9861  -21.4194  -11.1455 C   0  0  0  0  0  0  0  0  0  0  0  0
   28.2037  -20.7104  -11.6375 C   0  0  0  0  0  0  0  0  0  0  0  0
   29.4279  -21.5094  -11.2399 C   0  0  0  0  0  0  0  0  0  0  0  0
   30.7133  -20.8250  -11.6782 C   0  0  0  0  0  0  0  0  0  0  0  0
   31.8714  -21.6034  -11.3162 N   0  0  0  0  0  0  0  0  0  0  0  0
   25.7071  -20.5185  -13.0254 C   0  0  0  0  0  0  0  0  0  0  0  0
   25.2406  -21.4146  -13.7755 O   0  0  0  0  0  0  0  0  0  0  0  0
   23.7745  -17.4992  -17.1252 C   0  0  0  0  0  0  0  0  0  0  0  0
   25.1813  -17.3078  -16.6808 C   0  0  0  0  0  0  0  0  0  0  0  0
   25.5005  -17.6797  -15.2815 C   0  0  2  0  0  0  0  0  0  0  0  0
   26.1914  -16.6148  -14.4963 C   0  0  0  0  0  0  0  0  0  0  0  0
   25.9668  -19.0733  -15.0997 C   0  0  2  0  0  0  0  0  0  0  0  0
   26.2202  -19.3598  -13.6797 N   0  0  0  0  0  0  0  0  0  0  0  0
   27.1402  -19.5227  -15.8390 C   0  0  0  0  0  0  0  0  0  0  0  0
   27.1576  -20.0842  -17.1084 O   0  0  0  0  0  0  0  0  0  0  0  0
   28.3221  -19.4321  -15.3414 O   0  0  0  0  0  0  0  0  0  0  0  0
  2  1  1  0
  2  3  1  0
  3  4  1  6
  5  3  1  0
  5  6  1  1
  7  8  2  0
  7  5  1  0
  9  7  1  0
 10  9  1  0
 10 11  1  6
 12 13  1  0
 12 11  1  0
 13 14  1  0
 14 15  1  0
 16 23  1  0
 16 10  1  0
 17 16  2  0
 19 18  1  0
 19 20  1  0
 20 21  1  6
 20 22  1  0
 22 23  1  1
 22 24  1  0
 24 25  1  0
 26 24  2  0
M  END
$$$$
