IKI.pdb
     RDKit          3D

 26 25  0  0  1  0  0  0  0  0999 V2000
   27.4728  -19.6680   -6.5414 C   0  0  0  0  0  0  0  0  0  0  0  0
   27.6742  -20.5871   -7.7064 C   0  0  0  0  0  0  0  0  0  0  0  0
   26.6498  -20.3099   -8.8146 C   0  0  2  0  0  0  0  0  0  0  0  0
   25.2932  -20.5541   -8.2509 C   0  0  0  0  0  0  0  0  0  0  0  0
   27.0112  -21.1654  -10.0049 C   0  0  2  0  0  0  0  0  0  0  0  0
   28.3889  -20.7747  -10.3501 N   0  0  0  0  0  0  0  0  0  0  0  0
   26.1433  -20.9212  -11.1891 C   0  0  0  0  0  0  0  0  0  0  0  0
   26.3095  -19.8642  -11.8515 O   0  0  0  0  0  0  0  0  0  0  0  0
   25.1446  -21.8188  -11.6044 N   0  0  0  0  0  0  0  0  0  0  0  0
   24.2950  -21.7578  -12.7524 C   0  0  1  0  0  0  0  0  0  0  0  0
   24.2801  -23.0489  -13.5861 C   0  0  0  0  0  0  0  0  0  0  0  0
   25.3454  -23.0483  -14.6313 C   0  0  0  0  0  0  0  0  0  0  0  0
   25.3118  -24.3742  -15.3633 C   0  0  0  0  0  0  0  0  0  0  0  0
   26.4106  -24.4669  -16.4107 C   0  0  0  0  0  0  0  0  0  0  0  0
   26.3786  -25.7362  -17.0932 N   0  0  0  0  0  0  0  0  0  0  0  0
   22.9326  -21.3015  -12.5315 C   0  0  0  0  0  0  0  0  0  0  0  0
   22.3652  -21.5494  -11.4361 O   0  0  0  0  0  0  0  0  0  0  0  0
   19.4495  -17.0918  -12.0755 C   0  0  0  0  0  0  0  0  0  0  0  0
   19.4921  -17.8990  -13.3244 C   0  0  0  0  0  0  0  0  0  0  0  0
   20.7678  -18.5869  -13.6368 C   0  0  2  0  0  0  0  0  0  0  0  0
   21.3243  -18.2832  -14.9881 C   0  0  0  0  0  0  0  0  0  0  0  0
   20.8510  -19.9873  -13.1631 C   0  0  2  0  0  0  0  0  0  0  0  0
   22.1617  -20.5719  -13.4842 N   0  0  0  0  0  0  0  0  0  0  0  0
   19.8412  -20.9399  -13.6085 C   0  0  0  0  0  0  0  0  0  0  0  0
   18.5773  -21.1256  -13.0654 O   0  0  0  0  0  0  0  0  0  0  0  0
   20.0569  -21.7334  -14.5967 O   0  0  0  0  0  0  0  0  0  0  0  0
  2  1  1  0
  2  3  1  0
  3  4  1  1
  5  3  1  0
  5  6  1  6
  7  8  2  0
  7  5  1  0
  9  7  1  0
 10  9  1  0
 10 11  1  1
 12 13  1  0
 12 11  1  0
 13 14  1  0
 14 15  1  0
 16 23  1  0
 16 10  1  0
 17 16  2  0
 19 18  1  0
 19 20  1  0
 20 21  1  6
 20 22  1  0
 22 23  1  6
 22 24  1  0
 24 25  1  0
 26 24  2  0
M  END
$$$$
