IKI.pdb
     RDKit          3D

 26 25  0  0  1  0  0  0  0  0999 V2000
   28.4873  -19.6571   -3.7955 C   0  0  0  0  0  0  0  0  0  0  0  0
   27.9582  -18.9940   -5.0295 C   0  0  0  0  0  0  0  0  0  0  0  0
   27.4441  -20.0297   -6.0383 C   0  0  2  0  0  0  0  0  0  0  0  0
   28.5246  -21.0322   -6.2508 C   0  0  0  0  0  0  0  0  0  0  0  0
   27.0047  -19.2904   -7.2791 C   0  0  2  0  0  0  0  0  0  0  0  0
   25.9870  -18.3335   -6.8115 N   0  0  0  0  0  0  0  0  0  0  0  0
   26.3824  -20.1756   -8.3010 C   0  0  0  0  0  0  0  0  0  0  0  0
   27.0817  -21.0853   -8.8178 O   0  0  0  0  0  0  0  0  0  0  0  0
   25.0463  -20.0436   -8.7166 N   0  0  0  0  0  0  0  0  0  0  0  0
   24.3633  -20.7010   -9.7865 C   0  0  1  0  0  0  0  0  0  0  0  0
   22.8446  -20.8159   -9.5792 C   0  0  0  0  0  0  0  0  0  0  0  0
   22.5054  -21.7250   -8.4453 C   0  0  0  0  0  0  0  0  0  0  0  0
   20.9981  -21.8383   -8.3447 C   0  0  0  0  0  0  0  0  0  0  0  0
   20.5786  -22.8227   -7.2641 C   0  0  0  0  0  0  0  0  0  0  0  0
   19.1441  -22.8765   -7.1321 N   0  0  0  0  0  0  0  0  0  0  0  0
   24.6392  -20.2188  -11.1299 C   0  0  0  0  0  0  0  0  0  0  0  0
   24.5127  -18.9937  -11.3875 O   0  0  0  0  0  0  0  0  0  0  0  0
   29.1961  -20.9886  -13.3317 C   0  0  0  0  0  0  0  0  0  0  0  0
   27.8020  -20.6312  -12.9551 C   0  0  0  0  0  0  0  0  0  0  0  0
   26.7440  -20.9057  -13.9569 C   0  0  2  0  0  0  0  0  0  0  0  0
   27.1409  -20.6383  -15.3708 C   0  0  0  0  0  0  0  0  0  0  0  0
   25.3788  -20.5077  -13.5441 C   0  0  2  0  0  0  0  0  0  0  0  0
   25.0558  -21.0462  -12.2143 N   0  0  0  0  0  0  0  0  0  0  0  0
   24.2583  -20.8344  -14.4176 C   0  0  0  0  0  0  0  0  0  0  0  0
   23.7451  -20.0482  -15.4401 O   0  0  0  0  0  0  0  0  0  0  0  0
   23.6163  -21.9421  -14.2998 O   0  0  0  0  0  0  0  0  0  0  0  0
  2  1  1  0
  2  3  1  0
  3  4  1  6
  5  3  1  0
  5  6  1  1
  7  8  2  0
  7  5  1  0
  9  7  1  0
 10  9  1  0
 10 11  1  1
 12 13  1  0
 12 11  1  0
 13 14  1  0
 14 15  1  0
 16 23  1  0
 16 10  1  0
 17 16  2  0
 19 18  1  0
 19 20  1  0
 20 21  1  6
 20 22  1  0
 22 23  1  1
 22 24  1  0
 24 25  1  0
 26 24  2  0
M  END
$$$$
