IKI.pdb
     RDKit          3D

 26 25  0  0  1  0  0  0  0  0999 V2000
   30.0278  -22.3461  -10.0969 C   0  0  0  0  0  0  0  0  0  0  0  0
   28.6330  -21.8012  -10.1082 C   0  0  0  0  0  0  0  0  0  0  0  0
   28.2045  -21.4044  -11.5271 C   0  0  2  0  0  0  0  0  0  0  0  0
   29.2427  -20.4888  -12.0761 C   0  0  0  0  0  0  0  0  0  0  0  0
   26.8149  -20.8197  -11.4455 C   0  0  2  0  0  0  0  0  0  0  0  0
   25.9811  -21.8969  -10.8848 N   0  0  0  0  0  0  0  0  0  0  0  0
   26.2591  -20.4382  -12.7724 C   0  0  0  0  0  0  0  0  0  0  0  0
   26.6595  -19.3737  -13.3110 O   0  0  0  0  0  0  0  0  0  0  0  0
   25.3061  -21.2138  -13.4549 N   0  0  0  0  0  0  0  0  0  0  0  0
   24.7940  -21.0565  -14.7802 C   0  0  1  0  0  0  0  0  0  0  0  0
   24.2926  -22.3640  -15.4138 C   0  0  0  0  0  0  0  0  0  0  0  0
   25.3645  -23.0519  -16.1917 C   0  0  0  0  0  0  0  0  0  0  0  0
   24.8739  -24.4300  -16.5857 C   0  0  0  0  0  0  0  0  0  0  0  0
   25.9277  -25.2009  -17.3655 C   0  0  0  0  0  0  0  0  0  0  0  0
   27.1572  -25.3080  -16.6205 N   0  0  0  0  0  0  0  0  0  0  0  0
   23.8081  -20.0068  -14.9777 C   0  0  0  0  0  0  0  0  0  0  0  0
   22.8392  -19.9078  -14.1811 O   0  0  0  0  0  0  0  0  0  0  0  0
   25.5862  -15.1676  -15.3087 C   0  0  0  0  0  0  0  0  0  0  0  0
   24.6745  -16.3294  -15.1285 C   0  0  0  0  0  0  0  0  0  0  0  0
   23.7409  -16.6295  -16.2405 C   0  0  2  0  0  0  0  0  0  0  0  0
   23.0281  -15.4402  -16.7933 C   0  0  0  0  0  0  0  0  0  0  0  0
   22.9613  -17.8779  -16.0777 C   0  0  2  0  0  0  0  0  0  0  0  0
   23.8503  -19.0485  -16.0332 N   0  0  0  0  0  0  0  0  0  0  0  0
   21.9105  -18.1798  -17.0420 C   0  0  0  0  0  0  0  0  0  0  0  0
   21.9913  -19.0633  -18.1096 O   0  0  0  0  0  0  0  0  0  0  0  0
   20.7578  -17.6142  -16.9774 O   0  0  0  0  0  0  0  0  0  0  0  0
  2  1  1  0
  2  3  1  0
  3  4  1  1
  5  3  1  0
  5  6  1  6
  7  8  2  0
  7  5  1  0
  9  7  1  0
 10  9  1  0
 10 11  1  1
 12 13  1  0
 12 11  1  0
 13 14  1  0
 14 15  1  0
 16 23  1  0
 16 10  1  0
 17 16  2  0
 19 18  1  0
 19 20  1  0
 20 21  1  1
 20 22  1  0
 22 23  1  6
 22 24  1  0
 24 25  1  0
 26 24  2  0
M  END
$$$$
