IKI.pdb
     RDKit          3D

 26 25  0  0  1  0  0  0  0  0999 V2000
   12.1599  -12.7865  -15.1697 C   0  0  0  0  0  0  0  0  0  0  0  0
   13.6494  -12.6977  -15.2966 C   0  0  0  0  0  0  0  0  0  0  0  0
   14.2356  -11.7182  -14.2714 C   0  0  2  0  0  0  0  0  0  0  0  0
   13.5879  -10.3944  -14.4857 C   0  0  0  0  0  0  0  0  0  0  0  0
   15.7373  -11.7279  -14.4265 C   0  0  2  0  0  0  0  0  0  0  0  0
   16.1471  -13.0992  -14.0778 N   0  0  0  0  0  0  0  0  0  0  0  0
   16.4291  -10.7833  -13.5076 C   0  0  0  0  0  0  0  0  0  0  0  0
   16.4015  -11.0151  -12.2711 O   0  0  0  0  0  0  0  0  0  0  0  0
   17.1146   -9.6417  -13.9573 N   0  0  0  0  0  0  0  0  0  0  0  0
   17.7137   -8.5893  -13.1977 C   0  0  1  0  0  0  0  0  0  0  0  0
   18.8447   -7.8544  -13.9348 C   0  0  0  0  0  0  0  0  0  0  0  0
   19.5192   -6.8514  -13.0595 C   0  0  0  0  0  0  0  0  0  0  0  0
   20.5325   -6.0858  -13.8854 C   0  0  0  0  0  0  0  0  0  0  0  0
   21.3816   -5.1652  -13.0226 C   0  0  0  0  0  0  0  0  0  0  0  0
   22.2414   -4.3360  -13.8295 N   0  0  0  0  0  0  0  0  0  0  0  0
   16.8095   -7.6216  -12.5986 C   0  0  0  0  0  0  0  0  0  0  0  0
   15.9967   -6.9972  -13.3286 O   0  0  0  0  0  0  0  0  0  0  0  0
   13.1964   -6.8566   -7.7901 C   0  0  0  0  0  0  0  0  0  0  0  0
   14.0308   -6.2127   -8.8401 C   0  0  0  0  0  0  0  0  0  0  0  0
   15.0071   -7.0768   -9.5461 C   0  0  2  0  0  0  0  0  0  0  0  0
   15.7574   -8.0184   -8.6637 C   0  0  0  0  0  0  0  0  0  0  0  0
   15.7634   -6.4052  -10.6275 C   0  0  2  0  0  0  0  0  0  0  0  0
   16.7656   -7.3121  -11.2071 N   0  0  0  0  0  0  0  0  0  0  0  0
   16.4463   -5.1515  -10.3322 C   0  0  0  0  0  0  0  0  0  0  0  0
   17.8129   -4.9157  -10.3922 O   0  0  0  0  0  0  0  0  0  0  0  0
   15.7972   -4.1036   -9.9673 O   0  0  0  0  0  0  0  0  0  0  0  0
  2  1  1  0
  2  3  1  0
  3  4  1  6
  5  3  1  0
  5  6  1  1
  7  8  2  0
  7  5  1  0
  9  7  1  0
 10  9  1  0
 10 11  1  6
 12 13  1  0
 12 11  1  0
 13 14  1  0
 14 15  1  0
 16 23  1  0
 16 10  1  0
 17 16  2  0
 19 18  1  0
 19 20  1  0
 20 21  1  1
 20 22  1  0
 22 23  1  1
 22 24  1  0
 24 25  1  0
 26 24  2  0
M  END
$$$$
