IKI.pdb
     RDKit          3D

 26 25  0  0  1  0  0  0  0  0999 V2000
   20.3548  -15.6952  -17.8939 C   0  0  0  0  0  0  0  0  0  0  0  0
   20.3217  -17.1893  -17.9887 C   0  0  0  0  0  0  0  0  0  0  0  0
   21.1872  -17.8333  -16.8976 C   0  0  2  0  0  0  0  0  0  0  0  0
   22.5590  -17.2652  -17.0114 C   0  0  0  0  0  0  0  0  0  0  0  0
   21.1001  -19.3317  -17.0605 C   0  0  2  0  0  0  0  0  0  0  0  0
   19.6889  -19.6618  -16.7967 N   0  0  0  0  0  0  0  0  0  0  0  0
   21.9461  -20.0784  -16.0900 C   0  0  0  0  0  0  0  0  0  0  0  0
   21.7158  -19.9438  -14.8602 O   0  0  0  0  0  0  0  0  0  0  0  0
   22.9925  -20.9302  -16.4835 N   0  0  0  0  0  0  0  0  0  0  0  0
   23.9451  -21.6250  -15.6753 C   0  0  1  0  0  0  0  0  0  0  0  0
   24.7658  -22.6742  -16.4421 C   0  0  0  0  0  0  0  0  0  0  0  0
   25.5755  -23.5270  -15.5233 C   0  0  0  0  0  0  0  0  0  0  0  0
   24.7179  -24.6808  -15.0455 C   0  0  0  0  0  0  0  0  0  0  0  0
   24.3112  -25.5925  -16.1929 C   0  0  0  0  0  0  0  0  0  0  0  0
   23.5960  -26.7493  -15.7150 N   0  0  0  0  0  0  0  0  0  0  0  0
   24.8315  -20.8069  -14.8640 C   0  0  0  0  0  0  0  0  0  0  0  0
   25.3688  -19.7868  -15.3680 O   0  0  0  0  0  0  0  0  0  0  0  0
   25.8902  -20.8201   -8.8982 C   0  0  0  0  0  0  0  0  0  0  0  0
   26.2974  -20.9093  -10.3263 C   0  0  0  0  0  0  0  0  0  0  0  0
   25.5159  -20.1086  -11.2991 C   0  0  2  0  0  0  0  0  0  0  0  0
   24.0394  -20.1323  -11.0814 C   0  0  0  0  0  0  0  0  0  0  0  0
   26.0012  -20.1814  -12.6962 C   0  0  2  0  0  0  0  0  0  0  0  0
   25.1518  -21.0731  -13.5000 N   0  0  0  0  0  0  0  0  0  0  0  0
   27.3827  -20.5786  -12.9393 C   0  0  0  0  0  0  0  0  0  0  0  0
   28.5251  -19.8911  -12.5533 O   0  0  0  0  0  0  0  0  0  0  0  0
   27.6683  -21.6607  -13.5722 O   0  0  0  0  0  0  0  0  0  0  0  0
  2  1  1  0
  2  3  1  0
  3  4  1  6
  5  3  1  0
  5  6  1  1
  7  8  2  0
  7  5  1  0
  9  7  1  0
 10  9  1  0
 10 11  1  6
 12 13  1  0
 12 11  1  0
 13 14  1  0
 14 15  1  0
 16 23  1  0
 16 10  1  0
 17 16  2  0
 19 18  1  0
 19 20  1  0
 20 21  1  6
 20 22  1  0
 22 23  1  6
 22 24  1  0
 24 25  1  0
 26 24  2  0
M  END
$$$$
