IKI.pdb
     RDKit          3D

 26 25  0  0  1  0  0  0  0  0999 V2000
   20.1993  -17.6490  -18.1312 C   0  0  0  0  0  0  0  0  0  0  0  0
   21.5779  -18.1678  -18.4011 C   0  0  0  0  0  0  0  0  0  0  0  0
   22.1213  -18.9496  -17.1978 C   0  0  2  0  0  0  0  0  0  0  0  0
   21.9859  -18.0832  -15.9942 C   0  0  0  0  0  0  0  0  0  0  0  0
   23.5322  -19.3781  -17.5218 C   0  0  2  0  0  0  0  0  0  0  0  0
   23.4029  -20.2546  -18.6987 N   0  0  0  0  0  0  0  0  0  0  0  0
   24.1767  -20.1538  -16.4273 C   0  0  0  0  0  0  0  0  0  0  0  0
   23.4448  -20.6857  -15.5527 O   0  0  0  0  0  0  0  0  0  0  0  0
   25.5684  -20.3217  -16.3248 N   0  0  0  0  0  0  0  0  0  0  0  0
   26.3230  -21.0335  -15.3413 C   0  0  1  0  0  0  0  0  0  0  0  0
   27.7762  -21.3159  -15.7548 C   0  0  0  0  0  0  0  0  0  0  0  0
   27.8529  -22.0440  -17.0552 C   0  0  0  0  0  0  0  0  0  0  0  0
   29.1735  -21.7160  -17.7212 C   0  0  0  0  0  0  0  0  0  0  0  0
   29.3327  -22.4465  -19.0455 C   0  0  0  0  0  0  0  0  0  0  0  0
   30.5665  -22.0860  -19.6980 N   0  0  0  0  0  0  0  0  0  0  0  0
   26.2928  -20.5044  -13.9877 C   0  0  0  0  0  0  0  0  0  0  0  0
   26.5124  -19.2805  -13.7950 O   0  0  0  0  0  0  0  0  0  0  0  0
   22.3317  -20.2089  -10.9446 C   0  0  0  0  0  0  0  0  0  0  0  0
   23.6884  -20.1447  -11.5514 C   0  0  0  0  0  0  0  0  0  0  0  0
   24.7953  -20.7720  -10.7901 C   0  0  2  0  0  0  0  0  0  0  0  0
   24.7643  -20.5144   -9.3201 C   0  0  0  0  0  0  0  0  0  0  0  0
   26.1138  -20.7309  -11.4627 C   0  0  2  0  0  0  0  0  0  0  0  0
   26.0253  -21.2827  -12.8229 N   0  0  0  0  0  0  0  0  0  0  0  0
   27.2514  -21.3746  -10.8170 C   0  0  0  0  0  0  0  0  0  0  0  0
   27.9875  -20.8829   -9.7478 O   0  0  0  0  0  0  0  0  0  0  0  0
   27.6909  -22.5157  -11.2139 O   0  0  0  0  0  0  0  0  0  0  0  0
  2  1  1  0
  2  3  1  0
  3  4  1  1
  5  3  1  0
  5  6  1  6
  7  8  2  0
  7  5  1  0
  9  7  1  0
 10  9  1  0
 10 11  1  6
 12 13  1  0
 12 11  1  0
 13 14  1  0
 14 15  1  0
 16 23  1  0
 16 10  1  0
 17 16  2  0
 19 18  1  0
 19 20  1  0
 20 21  1  1
 20 22  1  0
 22 23  1  6
 22 24  1  0
 24 25  1  0
 26 24  2  0
M  END
$$$$
