IKI.pdb
     RDKit          3D

 26 25  0  0  1  0  0  0  0  0999 V2000
   20.9580  -19.6064   -9.9933 C   0  0  0  0  0  0  0  0  0  0  0  0
   20.7649  -21.0120  -10.4722 C   0  0  0  0  0  0  0  0  0  0  0  0
   19.8506  -21.7998   -9.5246 C   0  0  2  0  0  0  0  0  0  0  0  0
   20.4535  -21.7479   -8.1639 C   0  0  0  0  0  0  0  0  0  0  0  0
   19.6767  -23.1870  -10.0944 C   0  0  2  0  0  0  0  0  0  0  0  0
   19.1738  -22.9760  -11.4628 N   0  0  0  0  0  0  0  0  0  0  0  0
   18.6827  -24.0076   -9.3503 C   0  0  0  0  0  0  0  0  0  0  0  0
   17.4677  -23.6855   -9.4111 O   0  0  0  0  0  0  0  0  0  0  0  0
   19.0379  -25.1292   -8.5814 N   0  0  0  0  0  0  0  0  0  0  0  0
   18.2052  -25.9927   -7.8040 C   0  0  1  0  0  0  0  0  0  0  0  0
   18.5684  -27.4815   -7.9227 C   0  0  0  0  0  0  0  0  0  0  0  0
   17.5673  -28.3542   -7.2419 C   0  0  0  0  0  0  0  0  0  0  0  0
   17.9578  -29.8024   -7.4540 C   0  0  0  0  0  0  0  0  0  0  0  0
   16.8847  -30.7544   -6.9491 C   0  0  0  0  0  0  0  0  0  0  0  0
   17.2547  -32.1291   -7.1756 N   0  0  0  0  0  0  0  0  0  0  0  0
   18.0286  -25.6416   -6.4045 C   0  0  0  0  0  0  0  0  0  0  0  0
   19.0100  -25.2132   -5.7438 O   0  0  0  0  0  0  0  0  0  0  0  0
   14.0853  -22.8809   -2.6865 C   0  0  0  0  0  0  0  0  0  0  0  0
   15.1843  -23.8723   -2.8372 C   0  0  0  0  0  0  0  0  0  0  0  0
   15.5204  -24.2982   -4.2170 C   0  0  2  0  0  0  0  0  0  0  0  0
   14.3417  -24.5092   -5.1081 C   0  0  0  0  0  0  0  0  0  0  0  0
   16.6322  -25.2714   -4.3136 C   0  0  2  0  0  0  0  0  0  0  0  0
   16.7950  -25.7452   -5.6962 N   0  0  0  0  0  0  0  0  0  0  0  0
   16.6063  -26.4534   -3.4606 C   0  0  0  0  0  0  0  0  0  0  0  0
   16.5175  -27.7753   -3.8749 O   0  0  0  0  0  0  0  0  0  0  0  0
   16.6633  -26.3580   -2.1798 O   0  0  0  0  0  0  0  0  0  0  0  0
  2  1  1  0
  2  3  1  0
  3  4  1  1
  5  3  1  0
  5  6  1  6
  7  8  2  0
  7  5  1  0
  9  7  1  0
 10  9  1  0
 10 11  1  1
 12 13  1  0
 12 11  1  0
 13 14  1  0
 14 15  1  0
 16 23  1  0
 16 10  1  0
 17 16  2  0
 19 18  1  0
 19 20  1  0
 20 21  1  1
 20 22  1  0
 22 23  1  6
 22 24  1  0
 24 25  1  0
 26 24  2  0
M  END
$$$$
