IKI.pdb
     RDKit          3D

 26 25  0  0  1  0  0  0  0  0999 V2000
   27.4573  -19.2907   -6.5765 C   0  0  0  0  0  0  0  0  0  0  0  0
   26.5278  -20.2858   -7.1996 C   0  0  0  0  0  0  0  0  0  0  0  0
   26.5933  -20.2221   -8.7313 C   0  0  2  0  0  0  0  0  0  0  0  0
   27.4603  -19.0694   -9.1015 C   0  0  0  0  0  0  0  0  0  0  0  0
   25.1785  -20.1516   -9.2535 C   0  0  2  0  0  0  0  0  0  0  0  0
   24.5178  -21.3582   -8.7266 N   0  0  0  0  0  0  0  0  0  0  0  0
   25.0983  -20.1835  -10.7393 C   0  0  0  0  0  0  0  0  0  0  0  0
   25.4215  -19.1519  -11.3834 O   0  0  0  0  0  0  0  0  0  0  0  0
   24.6784  -21.3152  -11.4592 N   0  0  0  0  0  0  0  0  0  0  0  0
   24.5192  -21.4813  -12.8701 C   0  0  1  0  0  0  0  0  0  0  0  0
   24.8341  -22.9002  -13.3701 C   0  0  0  0  0  0  0  0  0  0  0  0
   24.8783  -22.9676  -14.8603 C   0  0  0  0  0  0  0  0  0  0  0  0
   25.2535  -24.3758  -15.2743 C   0  0  0  0  0  0  0  0  0  0  0  0
   25.4701  -24.4821  -16.7758 C   0  0  0  0  0  0  0  0  0  0  0  0
   25.9736  -25.7822  -17.1421 N   0  0  0  0  0  0  0  0  0  0  0  0
   23.2619  -21.0281  -13.4419 C   0  0  0  0  0  0  0  0  0  0  0  0
   22.1844  -21.2624  -12.8358 O   0  0  0  0  0  0  0  0  0  0  0  0
   21.7815  -18.0501  -18.3222 C   0  0  0  0  0  0  0  0  0  0  0  0
   22.6305  -18.6265  -17.2450 C   0  0  0  0  0  0  0  0  0  0  0  0
   22.1738  -18.4247  -15.8490 C   0  0  2  0  0  0  0  0  0  0  0  0
   22.8696  -17.3242  -15.1191 C   0  0  0  0  0  0  0  0  0  0  0  0
   21.8949  -19.6712  -15.0999 C   0  0  2  0  0  0  0  0  0  0  0  0
   23.1454  -20.3162  -14.6723 N   0  0  0  0  0  0  0  0  0  0  0  0
   21.0803  -20.7021  -15.7316 C   0  0  0  0  0  0  0  0  0  0  0  0
   19.7027  -20.6847  -15.9011 O   0  0  0  0  0  0  0  0  0  0  0  0
   21.6057  -21.7751  -16.2065 O   0  0  0  0  0  0  0  0  0  0  0  0
  2  1  1  0
  2  3  1  0
  3  4  1  1
  5  3  1  0
  5  6  1  1
  7  8  2  0
  7  5  1  0
  9  7  1  0
 10  9  1  0
 10 11  1  1
 12 13  1  0
 12 11  1  0
 13 14  1  0
 14 15  1  0
 16 23  1  0
 16 10  1  0
 17 16  2  0
 19 18  1  0
 19 20  1  0
 20 21  1  1
 20 22  1  0
 22 23  1  6
 22 24  1  0
 24 25  1  0
 26 24  2  0
M  END
$$$$
