IKI.pdb
     RDKit          3D

 26 25  0  0  1  0  0  0  0  0999 V2000
   27.1966  -19.6273  -19.1471 C   0  0  0  0  0  0  0  0  0  0  0  0
   27.1848  -20.5167  -17.9425 C   0  0  0  0  0  0  0  0  0  0  0  0
   28.5606  -20.5494  -17.2640 C   0  0  2  0  0  0  0  0  0  0  0  0
   29.5397  -21.0890  -18.2477 C   0  0  0  0  0  0  0  0  0  0  0  0
   28.4301  -21.3468  -15.9887 C   0  0  2  0  0  0  0  0  0  0  0  0
   27.8956  -22.6533  -16.4097 N   0  0  0  0  0  0  0  0  0  0  0  0
   27.4813  -20.7438  -15.0132 C   0  0  0  0  0  0  0  0  0  0  0  0
   27.8898  -19.8144  -14.2696 O   0  0  0  0  0  0  0  0  0  0  0  0
   26.1464  -21.1640  -14.8838 N   0  0  0  0  0  0  0  0  0  0  0  0
   25.1512  -20.7384  -13.9501 C   0  0  1  0  0  0  0  0  0  0  0  0
   23.7087  -20.9610  -14.4319 C   0  0  0  0  0  0  0  0  0  0  0  0
   22.7133  -20.3258  -13.5192 C   0  0  0  0  0  0  0  0  0  0  0  0
   21.3192  -20.6627  -14.0071 C   0  0  0  0  0  0  0  0  0  0  0  0
   20.8760  -19.7357  -15.1283 C   0  0  0  0  0  0  0  0  0  0  0  0
   19.5422  -20.0526  -15.5741 N   0  0  0  0  0  0  0  0  0  0  0  0
   25.2911  -21.2172  -12.5848 C   0  0  0  0  0  0  0  0  0  0  0  0
   25.5403  -22.4328  -12.3761 O   0  0  0  0  0  0  0  0  0  0  0  0
   27.9321  -19.8195   -7.3486 C   0  0  0  0  0  0  0  0  0  0  0  0
   26.9203  -20.6255   -8.0833 C   0  0  0  0  0  0  0  0  0  0  0  0
   26.5624  -20.1719   -9.4487 C   0  0  2  0  0  0  0  0  0  0  0  0
   26.6273  -18.6944   -9.6510 C   0  0  0  0  0  0  0  0  0  0  0  0
   25.4290  -20.8966  -10.0674 C   0  0  2  0  0  0  0  0  0  0  0  0
   25.1660  -20.3965  -11.4251 N   0  0  0  0  0  0  0  0  0  0  0  0
   24.1490  -20.9238   -9.3701 C   0  0  0  0  0  0  0  0  0  0  0  0
   23.8369  -21.6588   -8.2347 O   0  0  0  0  0  0  0  0  0  0  0  0
   23.1471  -20.2297   -9.7792 O   0  0  0  0  0  0  0  0  0  0  0  0
  2  1  1  0
  2  3  1  0
  3  4  1  6
  5  3  1  0
  5  6  1  6
  7  8  2  0
  7  5  1  0
  9  7  1  0
 10  9  1  0
 10 11  1  6
 12 13  1  0
 12 11  1  0
 13 14  1  0
 14 15  1  0
 16 23  1  0
 16 10  1  0
 17 16  2  0
 19 18  1  0
 19 20  1  0
 20 21  1  1
 20 22  1  0
 22 23  1  6
 22 24  1  0
 24 25  1  0
 26 24  2  0
M  END
$$$$
