IIT.pdb
     RDKit          3D

 24 23  0  0  1  0  0  0  0  0999 V2000
   21.2312  -14.2870  -18.9736 C   0  0  0  0  0  0  0  0  0  0  0  0
   21.2330  -13.4952  -17.6904 C   0  0  0  0  0  0  0  0  0  0  0  0
   20.7369  -12.0900  -17.8234 C   0  0  2  0  0  0  0  0  0  0  0  0
   21.3261  -11.3817  -19.0258 C   0  0  0  0  0  0  0  0  0  0  0  0
   20.5994  -11.2803  -16.6015 C   0  0  2  0  0  0  0  0  0  0  0  0
   19.9087  -12.1313  -15.6138 N   0  0  0  0  0  0  0  0  0  0  0  0
   19.9827   -9.9632  -16.6921 C   0  0  0  0  0  0  0  0  0  0  0  0
   20.3332   -9.1628  -17.6000 O   0  0  0  0  0  0  0  0  0  0  0  0
   14.7347   -9.2159  -15.9091 C   0  0  0  0  0  0  0  0  0  0  0  0
   16.1208   -8.9625  -16.4140 C   0  0  0  0  0  0  0  0  0  0  0  0
   16.9644   -8.1909  -15.4092 C   0  0  2  0  0  0  0  0  0  0  0  0
   16.3819   -6.8238  -15.1635 C   0  0  0  0  0  0  0  0  0  0  0  0
   18.4155   -8.1188  -15.8981 C   0  0  2  0  0  0  0  0  0  0  0  0
   18.9816   -9.4815  -15.8122 N   0  0  0  0  0  0  0  0  0  0  0  0
   19.2080   -7.3086  -14.9517 C   0  0  0  0  0  0  0  0  0  0  0  0
   19.2193   -7.6847  -13.7252 O   0  0  0  0  0  0  0  0  0  0  0  0
   22.6135   -5.6798  -15.7215 C   0  0  0  0  0  0  0  0  0  0  0  0
   22.1927   -5.8483  -14.2650 C   0  0  1  0  0  0  0  0  0  0  0  0
   22.9823   -5.0177  -13.4854 O   0  0  0  0  0  0  0  0  0  0  0  0
   20.7233   -5.4742  -14.1996 C   0  0  2  0  0  0  0  0  0  0  0  0
   19.9658   -6.1600  -15.2413 N   0  0  0  0  0  0  0  0  0  0  0  0
   20.6210   -4.0220  -14.4337 C   0  0  0  0  0  0  0  0  0  0  0  0
   20.0892   -3.5590  -15.4713 O   0  0  0  0  0  0  0  0  0  0  0  0
   21.1184   -3.0933  -13.4976 O   0  0  0  0  0  0  0  0  0  0  0  0
  1  2  1  0
  3  2  1  0
  3  4  1  6
  5  6  1  1
  5  3  1  0
  7  8  2  0
  7  5  1  0
 10  9  1  0
 11 12  1  6
 11 10  1  0
 13 14  1  1
 13 11  1  0
 14  7  1  0
 15 13  1  0
 16 15  2  0
 18 17  1  6
 18 19  1  0
 20 18  1  0
 20 21  1  6
 21 15  1  0
 22 20  1  0
 23 22  2  0
 24 22  1  0
M  END
$$$$
