IIT.pdb
     RDKit          3D

 24 23  0  0  1  0  0  0  0  0999 V2000
   19.0339  -21.0644  -16.6077 C   0  0  0  0  0  0  0  0  0  0  0  0
   19.6732  -21.4151  -15.2879 C   0  0  0  0  0  0  0  0  0  0  0  0
   21.0441  -20.8500  -15.0889 C   0  0  2  0  0  0  0  0  0  0  0  0
   21.9170  -21.0077  -16.3168 C   0  0  0  0  0  0  0  0  0  0  0  0
   21.7079  -21.0704  -13.7933 C   0  0  2  0  0  0  0  0  0  0  0  0
   20.7569  -20.6244  -12.7572 N   0  0  0  0  0  0  0  0  0  0  0  0
   23.0346  -20.5088  -13.5744 C   0  0  0  0  0  0  0  0  0  0  0  0
   23.1885  -19.2600  -13.5064 O   0  0  0  0  0  0  0  0  0  0  0  0
   25.6156  -21.1217   -9.4466 C   0  0  0  0  0  0  0  0  0  0  0  0
   25.1693  -20.6516  -10.7959 C   0  0  0  0  0  0  0  0  0  0  0  0
   26.1033  -21.1187  -11.9031 C   0  0  2  0  0  0  0  0  0  0  0  0
   27.5041  -20.6196  -11.6639 C   0  0  0  0  0  0  0  0  0  0  0  0
   25.5577  -20.6718  -13.2641 C   0  0  2  0  0  0  0  0  0  0  0  0
   24.2178  -21.2746  -13.4254 N   0  0  0  0  0  0  0  0  0  0  0  0
   26.3816  -21.2638  -14.3368 C   0  0  0  0  0  0  0  0  0  0  0  0
   26.8837  -22.4238  -14.1174 O   0  0  0  0  0  0  0  0  0  0  0  0
   25.8641  -23.1806  -17.0706 C   0  0  0  0  0  0  0  0  0  0  0  0
   26.5986  -21.9875  -17.6740 C   0  0  1  0  0  0  0  0  0  0  0  0
   25.6546  -21.0714  -18.1109 O   0  0  0  0  0  0  0  0  0  0  0  0
   27.4788  -21.4267  -16.5721 C   0  0  2  0  0  0  0  0  0  0  0  0
   26.6814  -20.6999  -15.5896 N   0  0  0  0  0  0  0  0  0  0  0  0
   28.4232  -20.4797  -17.1929 C   0  0  0  0  0  0  0  0  0  0  0  0
   28.3879  -19.2523  -16.9359 O   0  0  0  0  0  0  0  0  0  0  0  0
   29.4063  -20.9175  -18.1028 O   0  0  0  0  0  0  0  0  0  0  0  0
  1  2  1  0
  3  2  1  0
  3  4  1  6
  5  6  1  1
  5  3  1  0
  7  8  2  0
  7  5  1  0
 10  9  1  0
 11 12  1  1
 11 10  1  0
 13 14  1  6
 13 11  1  0
 14  7  1  0
 15 13  1  0
 16 15  2  0
 18 17  1  1
 18 19  1  0
 20 18  1  0
 20 21  1  1
 21 15  1  0
 22 20  1  0
 23 22  2  0
 24 22  1  0
M  END
$$$$
