IIT.pdb
     RDKit          3D

 24 23  0  0  1  0  0  0  0  0999 V2000
   29.1231  -17.7940  -16.2320 C   0  0  0  0  0  0  0  0  0  0  0  0
   28.7156  -19.1598  -16.7241 C   0  0  0  0  0  0  0  0  0  0  0  0
   27.6090  -19.7989  -15.9461 C   0  0  2  0  0  0  0  0  0  0  0  0
   26.3603  -18.9423  -15.9092 C   0  0  0  0  0  0  0  0  0  0  0  0
   27.9488  -20.4975  -14.6955 C   0  0  2  0  0  0  0  0  0  0  0  0
   28.9361  -21.5341  -15.0528 N   0  0  0  0  0  0  0  0  0  0  0  0
   26.8745  -21.0458  -13.8778 C   0  0  0  0  0  0  0  0  0  0  0  0
   26.2344  -22.0572  -14.2715 O   0  0  0  0  0  0  0  0  0  0  0  0
   27.0186  -20.4012   -8.4095 C   0  0  0  0  0  0  0  0  0  0  0  0
   26.7870  -21.0286   -9.7487 C   0  0  0  0  0  0  0  0  0  0  0  0
   25.5020  -20.5349  -10.3981 C   0  0  2  0  0  0  0  0  0  0  0  0
   24.3086  -20.8785   -9.5458 C   0  0  0  0  0  0  0  0  0  0  0  0
   25.3829  -21.1101  -11.8139 C   0  0  2  0  0  0  0  0  0  0  0  0
   26.4677  -20.5200  -12.6261 N   0  0  0  0  0  0  0  0  0  0  0  0
   24.1304  -20.6293  -12.4306 C   0  0  0  0  0  0  0  0  0  0  0  0
   24.0049  -19.3626  -12.5907 O   0  0  0  0  0  0  0  0  0  0  0  0
   22.5791  -21.0207  -15.7274 C   0  0  0  0  0  0  0  0  0  0  0  0
   21.4711  -21.4046  -14.7518 C   0  0  1  0  0  0  0  0  0  0  0  0
   21.4065  -22.7877  -14.6895 O   0  0  0  0  0  0  0  0  0  0  0  0
   21.8438  -20.7846  -13.4176 C   0  0  2  0  0  0  0  0  0  0  0  0
   23.0459  -21.4074  -12.8731 N   0  0  0  0  0  0  0  0  0  0  0  0
   20.7307  -21.0328  -12.4829 C   0  0  0  0  0  0  0  0  0  0  0  0
   20.8618  -21.7883  -11.4901 O   0  0  0  0  0  0  0  0  0  0  0  0
   19.4711  -20.4288  -12.6687 O   0  0  0  0  0  0  0  0  0  0  0  0
  1  2  1  0
  3  2  1  0
  3  4  1  1
  5  6  1  6
  5  3  1  0
  7  8  2  0
  7  5  1  0
 10  9  1  0
 11 12  1  1
 11 10  1  0
 13 14  1  6
 13 11  1  0
 14  7  1  0
 15 13  1  0
 16 15  2  0
 18 17  1  6
 18 19  1  0
 20 18  1  0
 20 21  1  1
 21 15  1  0
 22 20  1  0
 23 22  2  0
 24 22  1  0
M  END
$$$$
