IIT.pdb
     RDKit          3D

 24 23  0  0  1  0  0  0  0  0999 V2000
   34.4892  -28.0128  -17.8611 C   0  0  0  0  0  0  0  0  0  0  0  0
   33.4159  -27.2273  -17.1508 C   0  0  0  0  0  0  0  0  0  0  0  0
   33.8231  -25.8490  -16.7349 C   0  0  2  0  0  0  0  0  0  0  0  0
   35.1298  -25.8400  -15.9688 C   0  0  0  0  0  0  0  0  0  0  0  0
   32.7811  -24.9325  -16.2432 C   0  0  2  0  0  0  0  0  0  0  0  0
   32.4624  -25.3636  -14.8686 N   0  0  0  0  0  0  0  0  0  0  0  0
   31.5724  -24.7463  -17.0356 C   0  0  0  0  0  0  0  0  0  0  0  0
   31.6545  -24.5672  -18.2802 O   0  0  0  0  0  0  0  0  0  0  0  0
   27.0921  -27.5811  -16.0743 C   0  0  0  0  0  0  0  0  0  0  0  0
   28.1230  -26.7864  -16.8133 C   0  0  0  0  0  0  0  0  0  0  0  0
   27.8952  -25.2874  -16.6795 C   0  0  2  0  0  0  0  0  0  0  0  0
   26.5609  -24.8978  -17.2594 C   0  0  0  0  0  0  0  0  0  0  0  0
   29.0525  -24.5268  -17.3366 C   0  0  2  0  0  0  0  0  0  0  0  0
   30.2568  -24.7482  -16.5086 N   0  0  0  0  0  0  0  0  0  0  0  0
   28.7883  -23.0762  -17.2578 C   0  0  0  0  0  0  0  0  0  0  0  0
   28.6264  -22.5729  -16.0889 O   0  0  0  0  0  0  0  0  0  0  0  0
   29.4071  -20.2871  -20.2975 C   0  0  0  0  0  0  0  0  0  0  0  0
   29.5199  -19.9131  -18.8229 C   0  0  1  0  0  0  0  0  0  0  0  0
   29.2861  -18.5525  -18.7003 O   0  0  0  0  0  0  0  0  0  0  0  0
   28.4819  -20.7443  -18.0915 C   0  0  2  0  0  0  0  0  0  0  0  0
   28.6962  -22.1683  -18.3276 N   0  0  0  0  0  0  0  0  0  0  0  0
   27.1581  -20.3806  -18.6295 C   0  0  0  0  0  0  0  0  0  0  0  0
   26.4963  -21.1748  -19.3400 O   0  0  0  0  0  0  0  0  0  0  0  0
   26.5820  -19.1218  -18.3659 O   0  0  0  0  0  0  0  0  0  0  0  0
  1  2  1  0
  3  2  1  0
  3  4  1  1
  5  6  1  1
  5  3  1  0
  7  8  2  0
  7  5  1  0
 10  9  1  0
 11 12  1  6
 11 10  1  0
 13 14  1  1
 13 11  1  0
 14  7  1  0
 15 13  1  0
 16 15  2  0
 18 17  1  6
 18 19  1  0
 20 18  1  0
 20 21  1  6
 21 15  1  0
 22 20  1  0
 23 22  2  0
 24 22  1  0
M  END
$$$$
