IIT.pdb
     RDKit          3D

 24 23  0  0  1  0  0  0  0  0999 V2000
   19.2225  -22.6655  -15.8174 C   0  0  0  0  0  0  0  0  0  0  0  0
   19.6332  -22.3443  -14.4026 C   0  0  0  0  0  0  0  0  0  0  0  0
   20.9747  -21.6946  -14.2744 C   0  0  2  0  0  0  0  0  0  0  0  0
   22.0052  -22.3119  -15.1970 C   0  0  0  0  0  0  0  0  0  0  0  0
   21.4488  -21.3332  -12.9282 C   0  0  2  0  0  0  0  0  0  0  0  0
   20.3872  -20.5080  -12.3206 N   0  0  0  0  0  0  0  0  0  0  0  0
   22.7568  -20.7074  -12.7838 C   0  0  0  0  0  0  0  0  0  0  0  0
   22.9136  -19.4945  -13.0872 O   0  0  0  0  0  0  0  0  0  0  0  0
   25.6124  -20.9243   -8.4192 C   0  0  0  0  0  0  0  0  0  0  0  0
   25.0620  -20.5372   -9.7563 C   0  0  0  0  0  0  0  0  0  0  0  0
   25.8781  -21.1187  -10.9019 C   0  0  2  0  0  0  0  0  0  0  0  0
   27.3167  -20.6829  -10.8057 C   0  0  0  0  0  0  0  0  0  0  0  0
   25.2456  -20.7240  -12.2412 C   0  0  2  0  0  0  0  0  0  0  0  0
   23.9180  -21.3698  -12.3132 N   0  0  0  0  0  0  0  0  0  0  0  0
   26.0275  -21.3197  -13.3430 C   0  0  0  0  0  0  0  0  0  0  0  0
   26.3549  -22.5548  -13.2279 O   0  0  0  0  0  0  0  0  0  0  0  0
   26.7251  -22.7431  -17.6439 C   0  0  0  0  0  0  0  0  0  0  0  0
   25.9959  -22.1065  -16.4649 C   0  0  1  0  0  0  0  0  0  0  0  0
   25.3182  -23.1046  -15.7826 O   0  0  0  0  0  0  0  0  0  0  0  0
   27.0622  -21.4462  -15.6102 C   0  0  2  0  0  0  0  0  0  0  0  0
   26.4577  -20.6851  -14.5217 N   0  0  0  0  0  0  0  0  0  0  0  0
   27.8081  -20.5096  -16.4707 C   0  0  0  0  0  0  0  0  0  0  0  0
   27.3917  -19.3473  -16.6933 O   0  0  0  0  0  0  0  0  0  0  0  0
   29.0225  -20.8845  -17.0794 O   0  0  0  0  0  0  0  0  0  0  0  0
  1  2  1  0
  3  2  1  0
  3  4  1  1
  5  6  1  6
  5  3  1  0
  7  8  2  0
  7  5  1  0
 10  9  1  0
 11 12  1  6
 11 10  1  0
 13 14  1  1
 13 11  1  0
 14  7  1  0
 15 13  1  0
 16 15  2  0
 18 17  1  6
 18 19  1  0
 20 18  1  0
 20 21  1  1
 21 15  1  0
 22 20  1  0
 23 22  2  0
 24 22  1  0
M  END
$$$$
