IIT.pdb
     RDKit          3D

 24 23  0  0  1  0  0  0  0  0999 V2000
   17.4150  -24.5762   -8.9578 C   0  0  0  0  0  0  0  0  0  0  0  0
   18.6446  -24.0867   -8.2352 C   0  0  0  0  0  0  0  0  0  0  0  0
   19.3717  -22.9749   -8.9233 C   0  0  2  0  0  0  0  0  0  0  0  0
   19.3627  -23.1257  -10.4305 C   0  0  0  0  0  0  0  0  0  0  0  0
   20.6305  -22.4932   -8.3309 C   0  0  2  0  0  0  0  0  0  0  0  0
   20.3149  -22.1019   -6.9438 N   0  0  0  0  0  0  0  0  0  0  0  0
   21.3823  -21.4517   -9.0191 C   0  0  0  0  0  0  0  0  0  0  0  0
   20.9953  -20.2538   -8.9665 O   0  0  0  0  0  0  0  0  0  0  0  0
   26.3379  -20.5270   -7.9969 C   0  0  0  0  0  0  0  0  0  0  0  0
   24.9254  -20.4155   -8.4795 C   0  0  0  0  0  0  0  0  0  0  0  0
   24.7973  -20.7498   -9.9589 C   0  0  2  0  0  0  0  0  0  0  0  0
   25.7353  -19.9035  -10.7791 C   0  0  0  0  0  0  0  0  0  0  0  0
   23.3390  -20.5876  -10.4024 C   0  0  2  0  0  0  0  0  0  0  0  0
   22.5601  -21.6759   -9.7750 N   0  0  0  0  0  0  0  0  0  0  0  0
   23.2428  -20.8291  -11.8559 C   0  0  0  0  0  0  0  0  0  0  0  0
   23.7026  -21.9428  -12.2964 O   0  0  0  0  0  0  0  0  0  0  0  0
   20.8877  -20.6733  -16.0348 C   0  0  0  0  0  0  0  0  0  0  0  0
   20.9903  -20.3350  -14.5509 C   0  0  1  0  0  0  0  0  0  0  0  0
   20.2162  -21.2415  -13.8437 O   0  0  0  0  0  0  0  0  0  0  0  0
   22.4619  -20.4311  -14.1923 C   0  0  2  0  0  0  0  0  0  0  0  0
   22.6949  -19.9721  -12.8269 N   0  0  0  0  0  0  0  0  0  0  0  0
   23.2042  -19.5475  -15.1101 C   0  0  0  0  0  0  0  0  0  0  0  0
   23.6083  -18.4158  -14.7500 O   0  0  0  0  0  0  0  0  0  0  0  0
   23.4901  -19.9408  -16.4328 O   0  0  0  0  0  0  0  0  0  0  0  0
  1  2  1  0
  3  2  1  0
  3  4  1  6
  5  6  1  1
  5  3  1  0
  7  8  2  0
  7  5  1  0
 10  9  1  0
 11 12  1  6
 11 10  1  0
 13 14  1  1
 13 11  1  0
 14  7  1  0
 15 13  1  0
 16 15  2  0
 18 17  1  6
 18 19  1  0
 20 18  1  0
 20 21  1  1
 21 15  1  0
 22 20  1  0
 23 22  2  0
 24 22  1  0
M  END
$$$$
