IIT.pdb
     RDKit          3D

 24 23  0  0  1  0  0  0  0  0999 V2000
   28.7727  -18.4225  -16.9539 C   0  0  0  0  0  0  0  0  0  0  0  0
   29.2278  -19.1282  -15.7016 C   0  0  0  0  0  0  0  0  0  0  0  0
   28.1262  -19.7381  -14.8935 C   0  0  2  0  0  0  0  0  0  0  0  0
   26.9434  -18.8054  -14.7341 C   0  0  0  0  0  0  0  0  0  0  0  0
   28.4883  -20.5291  -13.7058 C   0  0  2  0  0  0  0  0  0  0  0  0
   29.3968  -21.5927  -14.1751 N   0  0  0  0  0  0  0  0  0  0  0  0
   27.4270  -21.0688  -12.8657 C   0  0  0  0  0  0  0  0  0  0  0  0
   26.8287  -22.1247  -13.2044 O   0  0  0  0  0  0  0  0  0  0  0  0
   27.3417  -19.9302   -7.4769 C   0  0  0  0  0  0  0  0  0  0  0  0
   27.1754  -20.7087   -8.7445 C   0  0  0  0  0  0  0  0  0  0  0  0
   25.9000  -20.3321   -9.4849 C   0  0  2  0  0  0  0  0  0  0  0  0
   24.6862  -20.6604   -8.6557 C   0  0  0  0  0  0  0  0  0  0  0  0
   25.8692  -21.0275  -10.8506 C   0  0  2  0  0  0  0  0  0  0  0  0
   26.9887  -20.4867  -11.6501 N   0  0  0  0  0  0  0  0  0  0  0  0
   24.6461  -20.6260  -11.5736 C   0  0  0  0  0  0  0  0  0  0  0  0
   24.4674  -19.3710  -11.7708 O   0  0  0  0  0  0  0  0  0  0  0  0
   23.5095  -21.3904  -14.9729 C   0  0  0  0  0  0  0  0  0  0  0  0
   22.2821  -21.6709  -14.1117 C   0  0  1  0  0  0  0  0  0  0  0  0
   22.1849  -23.0410  -13.9263 O   0  0  0  0  0  0  0  0  0  0  0  0
   22.4976  -20.9267  -12.8067 C   0  0  2  0  0  0  0  0  0  0  0  0
   23.6422  -21.4692  -12.0822 N   0  0  0  0  0  0  0  0  0  0  0  0
   21.2929  -21.1188  -11.9784 C   0  0  0  0  0  0  0  0  0  0  0  0
   21.3243  -21.7871  -10.9172 O   0  0  0  0  0  0  0  0  0  0  0  0
   20.0542  -20.5574  -12.3475 O   0  0  0  0  0  0  0  0  0  0  0  0
  1  2  1  0
  3  2  1  0
  3  4  1  1
  5  6  1  6
  5  3  1  0
  7  8  2  0
  7  5  1  0
 10  9  1  0
 11 12  1  1
 11 10  1  0
 13 14  1  6
 13 11  1  0
 14  7  1  0
 15 13  1  0
 16 15  2  0
 18 17  1  6
 18 19  1  0
 20 18  1  0
 20 21  1  1
 21 15  1  0
 22 20  1  0
 23 22  2  0
 24 22  1  0
M  END
$$$$
