IIT.pdb
     RDKit          3D

 24 23  0  0  1  0  0  0  0  0999 V2000
   20.1585  -15.3376  -20.4101 C   0  0  0  0  0  0  0  0  0  0  0  0
   21.5634  -15.3569  -19.8628 C   0  0  0  0  0  0  0  0  0  0  0  0
   21.8364  -14.3314  -18.8082 C   0  0  2  0  0  0  0  0  0  0  0  0
   21.2075  -12.9915  -19.1300 C   0  0  0  0  0  0  0  0  0  0  0  0
   23.1816  -14.2857  -18.2117 C   0  0  2  0  0  0  0  0  0  0  0  0
   23.4780  -15.6546  -17.7477 N   0  0  0  0  0  0  0  0  0  0  0  0
   23.4619  -13.3007  -17.1750 C   0  0  0  0  0  0  0  0  0  0  0  0
   22.9297  -13.4112  -16.0383 O   0  0  0  0  0  0  0  0  0  0  0  0
   28.3079  -11.7776  -15.8993 C   0  0  0  0  0  0  0  0  0  0  0  0
   26.8343  -12.0357  -15.8504 C   0  0  0  0  0  0  0  0  0  0  0  0
   26.0252  -10.8201  -16.2797 C   0  0  2  0  0  0  0  0  0  0  0  0
   26.3279   -9.6395  -15.3947 C   0  0  0  0  0  0  0  0  0  0  0  0
   24.5321  -11.1671  -16.2854 C   0  0  2  0  0  0  0  0  0  0  0  0
   24.3157  -12.1814  -17.3387 N   0  0  0  0  0  0  0  0  0  0  0  0
   23.7597   -9.9859  -16.7192 C   0  0  0  0  0  0  0  0  0  0  0  0
   24.1044   -9.4342  -17.8249 O   0  0  0  0  0  0  0  0  0  0  0  0
   20.3333   -9.5013  -17.8031 C   0  0  0  0  0  0  0  0  0  0  0  0
   20.5168   -8.4352  -16.7276 C   0  0  1  0  0  0  0  0  0  0  0  0
   19.9558   -8.9043  -15.5503 O   0  0  0  0  0  0  0  0  0  0  0  0
   22.0123   -8.2083  -16.6029 C   0  0  2  0  0  0  0  0  0  0  0  0
   22.6730   -9.3888  -16.0559 N   0  0  0  0  0  0  0  0  0  0  0  0
   22.2177   -7.0879  -15.6666 C   0  0  0  0  0  0  0  0  0  0  0  0
   22.7726   -7.2543  -14.5538 O   0  0  0  0  0  0  0  0  0  0  0  0
   21.7973   -5.7813  -15.9857 O   0  0  0  0  0  0  0  0  0  0  0  0
  1  2  1  0
  3  2  1  0
  3  4  1  6
  5  6  1  1
  5  3  1  0
  7  8  2  0
  7  5  1  0
 10  9  1  0
 11 12  1  1
 11 10  1  0
 13 14  1  6
 13 11  1  0
 14  7  1  0
 15 13  1  0
 16 15  2  0
 18 17  1  6
 18 19  1  0
 20 18  1  0
 20 21  1  1
 21 15  1  0
 22 20  1  0
 23 22  2  0
 24 22  1  0
M  END
$$$$
