IIT.pdb
     RDKit          3D

 24 23  0  0  1  0  0  0  0  0999 V2000
   15.9350  -13.1692  -14.8475 C   0  0  0  0  0  0  0  0  0  0  0  0
   16.6915  -12.9022  -16.1242 C   0  0  0  0  0  0  0  0  0  0  0  0
   17.8606  -11.9806  -15.9758 C   0  0  2  0  0  0  0  0  0  0  0  0
   17.5757  -10.8358  -15.0257 C   0  0  0  0  0  0  0  0  0  0  0  0
   18.6386  -11.6417  -17.1789 C   0  0  2  0  0  0  0  0  0  0  0  0
   19.0292  -12.9233  -17.7967 N   0  0  0  0  0  0  0  0  0  0  0  0
   19.7786  -10.7428  -17.0534 C   0  0  0  0  0  0  0  0  0  0  0  0
   20.8580  -11.1578  -16.5531 O   0  0  0  0  0  0  0  0  0  0  0  0
   21.4859   -7.8446  -21.0420 C   0  0  0  0  0  0  0  0  0  0  0  0
   21.4730   -8.5730  -19.7344 C   0  0  0  0  0  0  0  0  0  0  0  0
   21.0823   -7.6653  -18.5768 C   0  0  2  0  0  0  0  0  0  0  0  0
   22.0731   -6.5413  -18.4237 C   0  0  0  0  0  0  0  0  0  0  0  0
   20.9469   -8.4919  -17.2931 C   0  0  2  0  0  0  0  0  0  0  0  0
   19.7813   -9.3853  -17.4606 N   0  0  0  0  0  0  0  0  0  0  0  0
   20.5925   -7.5971  -16.1733 C   0  0  0  0  0  0  0  0  0  0  0  0
   19.4204   -7.0759  -16.1882 O   0  0  0  0  0  0  0  0  0  0  0  0
   20.3574   -6.3216  -11.5926 C   0  0  0  0  0  0  0  0  0  0  0  0
   20.8465   -7.2654  -12.6866 C   0  0  1  0  0  0  0  0  0  0  0  0
   19.9748   -8.3408  -12.7549 O   0  0  0  0  0  0  0  0  0  0  0  0
   20.8653   -6.4565  -13.9707 C   0  0  2  0  0  0  0  0  0  0  0  0
   21.3982   -7.2475  -15.0751 N   0  0  0  0  0  0  0  0  0  0  0  0
   21.7559   -5.3008  -13.7578 C   0  0  0  0  0  0  0  0  0  0  0  0
   22.9683   -5.3372  -14.0781 O   0  0  0  0  0  0  0  0  0  0  0  0
   21.2787   -4.1054  -13.1842 O   0  0  0  0  0  0  0  0  0  0  0  0
  1  2  1  0
  3  2  1  0
  3  4  1  6
  5  6  1  1
  5  3  1  0
  7  8  2  0
  7  5  1  0
 10  9  1  0
 11 12  1  1
 11 10  1  0
 13 14  1  6
 13 11  1  0
 14  7  1  0
 15 13  1  0
 16 15  2  0
 18 17  1  1
 18 19  1  0
 20 18  1  0
 20 21  1  6
 21 15  1  0
 22 20  1  0
 23 22  2  0
 24 22  1  0
M  END
$$$$
