PGE.pdb
     RDKit          3D

 21 21  0  0  1  0  0  0  0  0999 V2000
    7.9600  -14.5932   18.5867 N   0  0  0  0  0  0  0  0  0  0  0  0
    7.1827  -13.3376   18.4566 C   0  0  0  0  0  0  0  0  0  0  0  0
    7.3070  -12.8780   19.9174 C   0  0  0  0  0  0  0  0  0  0  0  0
    8.8075  -12.9543   20.0889 C   0  0  0  0  0  0  0  0  0  0  0  0
    9.1370  -14.2277   19.3034 C   0  0  1  0  0  0  0  0  0  0  0  0
    9.6697  -15.2035   20.2424 C   0  0  0  0  0  0  0  0  0  0  0  0
   10.8396  -14.9707   20.7012 O   0  0  0  0  0  0  0  0  0  0  0  0
    9.0137  -16.3801   20.6907 N   0  0  0  0  0  0  0  0  0  0  0  0
    9.7883  -17.4809   21.1453 C   0  0  0  0  0  0  0  0  0  0  0  0
    9.9655  -17.5640   22.6127 C   0  0  0  0  0  0  0  0  0  0  0  0
    8.9273  -17.6392   23.3664 O   0  0  0  0  0  0  0  0  0  0  0  0
   11.2084  -17.5686   23.2859 N   0  0  0  0  0  0  0  0  0  0  0  0
   11.3008  -18.0079   24.6922 C   0  0  1  0  0  0  0  0  0  0  0  0
   12.3128  -19.0920   24.8166 C   0  0  0  0  0  0  0  0  0  0  0  0
   12.5025  -19.5439   26.2269 C   0  0  0  0  0  0  0  0  0  0  0  0
   13.5678  -20.5518   26.3908 C   0  0  0  0  0  0  0  0  0  0  0  0
   13.5490  -21.6764   25.8894 O   0  0  0  0  0  0  0  0  0  0  0  0
   11.6631  -16.8118   25.4846 C   0  0  0  0  0  0  0  0  0  0  0  0
   11.3500  -16.7007   26.6823 O   0  0  0  0  0  0  0  0  0  0  0  0
   14.6630  -20.1862   27.1712 O   0  0  0  0  0  0  0  0  0  0  0  0
   12.3757  -15.7730   24.8824 O   0  0  0  0  0  0  0  0  0  0  0  0
  2  1  1  0
  3  4  1  0
  3  2  1  0
  4  5  1  0
  5  1  1  0
  6  8  1  0
  5  6  1  1
  7  6  2  0
  9 10  1  0
  9  8  1  0
 10 11  2  0
 12 13  1  0
 12 10  1  0
 13 14  1  6
 14 15  1  0
 16 15  1  0
 16 20  1  0
 17 16  2  0
 18 21  1  0
 18 13  1  0
 19 18  2  0
M  END
$$$$
