PGE.pdb
     RDKit          3D

 21 21  0  0  1  0  0  0  0  0999 V2000
    7.6612  -14.1288   19.7784 N   0  0  0  0  0  0  0  0  0  0  0  0
    7.4078  -12.7711   20.3169 C   0  0  0  0  0  0  0  0  0  0  0  0
    8.8739  -12.3773   20.5533 C   0  0  0  0  0  0  0  0  0  0  0  0
    9.4481  -12.6738   19.1861 C   0  0  0  0  0  0  0  0  0  0  0  0
    8.6989  -13.9578   18.8158 C   0  0  1  0  0  0  0  0  0  0  0  0
    9.6793  -15.0272   18.7027 C   0  0  0  0  0  0  0  0  0  0  0  0
   10.5385  -14.9134   17.7634 O   0  0  0  0  0  0  0  0  0  0  0  0
    9.7668  -16.1753   19.5333 N   0  0  0  0  0  0  0  0  0  0  0  0
   10.6921  -17.2031   19.2081 C   0  0  0  0  0  0  0  0  0  0  0  0
   11.9930  -17.1258   19.9103 C   0  0  0  0  0  0  0  0  0  0  0  0
   12.8213  -18.1027   19.8053 O   0  0  0  0  0  0  0  0  0  0  0  0
   12.4251  -16.0443   20.7116 N   0  0  0  0  0  0  0  0  0  0  0  0
   13.7909  -16.0213   21.2715 C   0  0  1  0  0  0  0  0  0  0  0  0
   14.5103  -14.8081   20.7969 C   0  0  0  0  0  0  0  0  0  0  0  0
   15.9455  -15.0750   20.4842 C   0  0  0  0  0  0  0  0  0  0  0  0
   16.6852  -13.8849   20.0215 C   0  0  0  0  0  0  0  0  0  0  0  0
   17.0260  -12.9487   20.7454 O   0  0  0  0  0  0  0  0  0  0  0  0
   13.6433  -16.0432   22.7438 C   0  0  0  0  0  0  0  0  0  0  0  0
   12.5370  -15.9034   23.2928 O   0  0  0  0  0  0  0  0  0  0  0  0
   17.0113  -13.8357   18.6675 O   0  0  0  0  0  0  0  0  0  0  0  0
   14.7693  -16.2250   23.5492 O   0  0  0  0  0  0  0  0  0  0  0  0
  2  1  1  0
  3  4  1  0
  3  2  1  0
  4  5  1  0
  5  1  1  0
  6  8  1  0
  5  6  1  1
  7  6  2  0
  9 10  1  0
  9  8  1  0
 10 11  2  0
 12 13  1  0
 12 10  1  0
 13 14  1  1
 14 15  1  0
 16 15  1  0
 16 20  1  0
 17 16  2  0
 18 21  1  0
 18 13  1  0
 19 18  2  0
M  END
$$$$
