PGE.pdb
     RDKit          3D

 21 21  0  0  1  0  0  0  0  0999 V2000
    7.7518  -15.3257   18.3264 N   0  0  0  0  0  0  0  0  0  0  0  0
    7.5948  -14.7358   16.9756 C   0  0  0  0  0  0  0  0  0  0  0  0
    7.3714  -13.2825   17.4212 C   0  0  0  0  0  0  0  0  0  0  0  0
    8.5773  -13.0943   18.3140 C   0  0  0  0  0  0  0  0  0  0  0  0
    8.6563  -14.4585   19.0066 C   0  0  1  0  0  0  0  0  0  0  0  0
    8.4288  -14.2487   20.4285 C   0  0  0  0  0  0  0  0  0  0  0  0
    9.4058  -13.7639   21.0948 O   0  0  0  0  0  0  0  0  0  0  0  0
    7.2310  -14.5314   21.1363 N   0  0  0  0  0  0  0  0  0  0  0  0
    7.1609  -14.2550   22.5281 C   0  0  0  0  0  0  0  0  0  0  0  0
    7.7642  -15.2829   23.4062 C   0  0  0  0  0  0  0  0  0  0  0  0
    6.9955  -16.0743   24.0651 O   0  0  0  0  0  0  0  0  0  0  0  0
    9.1507  -15.4834   23.5952 N   0  0  0  0  0  0  0  0  0  0  0  0
    9.6418  -16.5588   24.4793 C   0  0  1  0  0  0  0  0  0  0  0  0
   10.9567  -17.0539   23.9889 C   0  0  0  0  0  0  0  0  0  0  0  0
   10.9009  -17.5344   22.5764 C   0  0  0  0  0  0  0  0  0  0  0  0
   12.1907  -18.0399   22.0682 C   0  0  0  0  0  0  0  0  0  0  0  0
   12.5352  -18.0126   20.8861 O   0  0  0  0  0  0  0  0  0  0  0  0
    9.7346  -15.9785   25.8375 C   0  0  0  0  0  0  0  0  0  0  0  0
    9.9630  -16.6828   26.8358 O   0  0  0  0  0  0  0  0  0  0  0  0
   13.0661  -18.5825   23.0070 O   0  0  0  0  0  0  0  0  0  0  0  0
    9.5627  -14.6044   26.0158 O   0  0  0  0  0  0  0  0  0  0  0  0
  2  1  1  0
  3  4  1  0
  3  2  1  0
  4  5  1  0
  5  1  1  0
  6  8  1  0
  5  6  1  1
  7  6  2  0
  9 10  1  0
  9  8  1  0
 10 11  2  0
 12 13  1  0
 12 10  1  0
 13 14  1  6
 14 15  1  0
 16 15  1  0
 16 20  1  0
 17 16  2  0
 18 21  1  0
 18 13  1  0
 19 18  2  0
M  END
$$$$
