PGE.pdb
     RDKit          3D

 21 21  0  0  1  0  0  0  0  0999 V2000
    7.5643  -15.0056   18.7881 N   0  0  0  0  0  0  0  0  0  0  0  0
    6.9710  -14.0918   17.7829 C   0  0  0  0  0  0  0  0  0  0  0  0
    6.8847  -12.8458   18.6776 C   0  0  0  0  0  0  0  0  0  0  0  0
    8.3121  -12.7799   19.1727 C   0  0  0  0  0  0  0  0  0  0  0  0
    8.6288  -14.2644   19.3800 C   0  0  1  0  0  0  0  0  0  0  0  0
    8.8708  -14.4731   20.7997 C   0  0  0  0  0  0  0  0  0  0  0  0
    9.9439  -13.9658   21.2737 O   0  0  0  0  0  0  0  0  0  0  0  0
    8.0309  -15.1828   21.6977 N   0  0  0  0  0  0  0  0  0  0  0  0
    8.4238  -15.3261   23.0554 C   0  0  0  0  0  0  0  0  0  0  0  0
    9.4959  -16.3171   23.3004 C   0  0  0  0  0  0  0  0  0  0  0  0
    9.5719  -17.3572   22.5494 O   0  0  0  0  0  0  0  0  0  0  0  0
   10.4761  -16.2254   24.3148 N   0  0  0  0  0  0  0  0  0  0  0  0
   11.6502  -17.1204   24.3098 C   0  0  1  0  0  0  0  0  0  0  0  0
   12.8923  -16.3219   24.1241 C   0  0  0  0  0  0  0  0  0  0  0  0
   14.1302  -17.1503   24.2263 C   0  0  0  0  0  0  0  0  0  0  0  0
   15.3424  -16.4730   23.7271 C   0  0  0  0  0  0  0  0  0  0  0  0
   16.3475  -16.2509   24.4033 O   0  0  0  0  0  0  0  0  0  0  0  0
   11.6369  -17.8405   25.6025 C   0  0  0  0  0  0  0  0  0  0  0  0
   12.3561  -18.8335   25.8058 O   0  0  0  0  0  0  0  0  0  0  0  0
   15.3293  -16.0637   22.3950 O   0  0  0  0  0  0  0  0  0  0  0  0
   10.7983  -17.4027   26.6295 O   0  0  0  0  0  0  0  0  0  0  0  0
  2  1  1  0
  3  4  1  0
  3  2  1  0
  4  5  1  0
  5  1  1  0
  6  8  1  0
  5  6  1  1
  7  6  2  0
  9 10  1  0
  9  8  1  0
 10 11  2  0
 12 13  1  0
 12 10  1  0
 13 14  1  1
 14 15  1  0
 16 15  1  0
 16 20  1  0
 17 16  2  0
 18 21  1  0
 18 13  1  0
 19 18  2  0
M  END
$$$$
