PGE.pdb
     RDKit          3D

 21 21  0  0  1  0  0  0  0  0999 V2000
    6.2809  -18.0384   20.4073 N   0  0  0  0  0  0  0  0  0  0  0  0
    5.4625  -19.0449   21.1247 C   0  0  0  0  0  0  0  0  0  0  0  0
    5.9277  -18.6977   22.5473 C   0  0  0  0  0  0  0  0  0  0  0  0
    5.6682  -17.2079   22.5511 C   0  0  0  0  0  0  0  0  0  0  0  0
    6.0917  -16.8239   21.1297 C   0  0  1  0  0  0  0  0  0  0  0  0
    7.2357  -15.9304   21.2331 C   0  0  0  0  0  0  0  0  0  0  0  0
    7.0527  -14.8461   21.8845 O   0  0  0  0  0  0  0  0  0  0  0  0
    8.5246  -16.1518   20.6808 N   0  0  0  0  0  0  0  0  0  0  0  0
    9.5623  -15.2148   20.9328 C   0  0  0  0  0  0  0  0  0  0  0  0
   10.3642  -15.4741   22.1499 C   0  0  0  0  0  0  0  0  0  0  0  0
   11.5883  -15.0847   22.1891 O   0  0  0  0  0  0  0  0  0  0  0  0
    9.8964  -16.1307   23.3110 N   0  0  0  0  0  0  0  0  0  0  0  0
   10.7980  -16.3687   24.4556 C   0  0  1  0  0  0  0  0  0  0  0  0
   10.0266  -16.3062   25.7268 C   0  0  0  0  0  0  0  0  0  0  0  0
    9.1459  -17.4954   25.9251 C   0  0  0  0  0  0  0  0  0  0  0  0
    9.2262  -18.0763   27.2792 C   0  0  0  0  0  0  0  0  0  0  0  0
   10.0800  -17.7819   28.1165 O   0  0  0  0  0  0  0  0  0  0  0  0
   11.4120  -17.6976   24.2394 C   0  0  0  0  0  0  0  0  0  0  0  0
   12.3504  -18.1074   24.9439 O   0  0  0  0  0  0  0  0  0  0  0  0
    8.2594  -19.0223   27.6147 O   0  0  0  0  0  0  0  0  0  0  0  0
   10.9335  -18.5230   23.2199 O   0  0  0  0  0  0  0  0  0  0  0  0
  2  1  1  0
  3  4  1  0
  3  2  1  0
  4  5  1  0
  5  1  1  0
  6  8  1  0
  5  6  1  1
  7  6  2  0
  9 10  1  0
  9  8  1  0
 10 11  2  0
 12 13  1  0
 12 10  1  0
 13 14  1  1
 14 15  1  0
 16 15  1  0
 16 20  1  0
 17 16  2  0
 18 21  1  0
 18 13  1  0
 19 18  2  0
M  END
$$$$
