PGE.pdb
     RDKit          3D

 21 21  0  0  1  0  0  0  0  0999 V2000
    7.6584  -14.4621   19.0958 N   0  0  0  0  0  0  0  0  0  0  0  0
    7.1348  -13.0768   19.0298 C   0  0  0  0  0  0  0  0  0  0  0  0
    7.8710  -12.5301   20.2626 C   0  0  0  0  0  0  0  0  0  0  0  0
    9.2872  -12.9383   19.9239 C   0  0  0  0  0  0  0  0  0  0  0  0
    9.0623  -14.3184   19.2980 C   0  0  1  0  0  0  0  0  0  0  0  0
    9.7126  -15.3035   20.1491 C   0  0  0  0  0  0  0  0  0  0  0  0
   10.9794  -15.1947   20.2787 O   0  0  0  0  0  0  0  0  0  0  0  0
    9.0732  -16.3649   20.8419 N   0  0  0  0  0  0  0  0  0  0  0  0
    9.8579  -17.2819   21.5914 C   0  0  0  0  0  0  0  0  0  0  0  0
   10.5335  -16.7105   22.7783 C   0  0  0  0  0  0  0  0  0  0  0  0
   11.7125  -16.2153   22.6509 O   0  0  0  0  0  0  0  0  0  0  0  0
    9.9875  -16.6559   24.0810 N   0  0  0  0  0  0  0  0  0  0  0  0
   10.7993  -16.1782   25.2178 C   0  0  1  0  0  0  0  0  0  0  0  0
    9.9389  -15.4269   26.1717 C   0  0  0  0  0  0  0  0  0  0  0  0
   10.6897  -14.9470   27.3695 C   0  0  0  0  0  0  0  0  0  0  0  0
    9.8447  -14.2617   28.3665 C   0  0  0  0  0  0  0  0  0  0  0  0
    8.6308  -14.0879   28.2526 O   0  0  0  0  0  0  0  0  0  0  0  0
   11.4048  -17.3781   25.8371 C   0  0  0  0  0  0  0  0  0  0  0  0
   10.8748  -18.4988   25.7476 O   0  0  0  0  0  0  0  0  0  0  0  0
   10.4837  -13.7851   29.5096 O   0  0  0  0  0  0  0  0  0  0  0  0
   12.6033  -17.2616   26.5439 O   0  0  0  0  0  0  0  0  0  0  0  0
  2  1  1  0
  3  4  1  0
  3  2  1  0
  4  5  1  0
  5  1  1  0
  6  8  1  0
  5  6  1  1
  7  6  2  0
  9 10  1  0
  9  8  1  0
 10 11  2  0
 12 13  1  0
 12 10  1  0
 13 14  1  1
 14 15  1  0
 16 15  1  0
 16 20  1  0
 17 16  2  0
 18 21  1  0
 18 13  1  0
 19 18  2  0
M  END
$$$$
