PGE.pdb
     RDKit          3D

 21 21  0  0  1  0  0  0  0  0999 V2000
    8.2357  -15.4598   19.9398 N   0  0  0  0  0  0  0  0  0  0  0  0
    7.3301  -16.1962   19.0260 C   0  0  0  0  0  0  0  0  0  0  0  0
    6.4490  -16.8452   20.1045 C   0  0  0  0  0  0  0  0  0  0  0  0
    6.0655  -15.6188   20.9018 C   0  0  0  0  0  0  0  0  0  0  0  0
    7.3748  -14.8237   20.8815 C   0  0  1  0  0  0  0  0  0  0  0  0
    7.8536  -14.7212   22.2519 C   0  0  0  0  0  0  0  0  0  0  0  0
    7.0116  -14.3043   23.1183 O   0  0  0  0  0  0  0  0  0  0  0  0
    9.1595  -15.0392   22.7093 N   0  0  0  0  0  0  0  0  0  0  0  0
    9.4559  -14.9436   24.0955 C   0  0  0  0  0  0  0  0  0  0  0  0
    9.6261  -16.2374   24.7945 C   0  0  0  0  0  0  0  0  0  0  0  0
    8.5858  -16.8666   25.2111 O   0  0  0  0  0  0  0  0  0  0  0  0
   10.8642  -16.8673   25.0560 N   0  0  0  0  0  0  0  0  0  0  0  0
   10.9143  -18.1692   25.7503 C   0  0  1  0  0  0  0  0  0  0  0  0
   12.1715  -18.8821   25.3954 C   0  0  0  0  0  0  0  0  0  0  0  0
   12.0017  -19.8064   24.2352 C   0  0  0  0  0  0  0  0  0  0  0  0
   11.1240  -20.9588   24.5158 C   0  0  0  0  0  0  0  0  0  0  0  0
    9.9848  -21.0950   24.0681 O   0  0  0  0  0  0  0  0  0  0  0  0
   10.8267  -17.8783   27.1986 C   0  0  0  0  0  0  0  0  0  0  0  0
   10.8073  -16.7137   27.6321 O   0  0  0  0  0  0  0  0  0  0  0  0
   11.6382  -21.9517   25.3475 O   0  0  0  0  0  0  0  0  0  0  0  0
   10.7635  -18.9316   28.1131 O   0  0  0  0  0  0  0  0  0  0  0  0
  2  1  1  0
  3  4  1  0
  3  2  1  0
  4  5  1  0
  5  1  1  0
  6  8  1  0
  5  6  1  1
  7  6  2  0
  9 10  1  0
  9  8  1  0
 10 11  2  0
 12 13  1  0
 12 10  1  0
 13 14  1  1
 14 15  1  0
 16 15  1  0
 16 20  1  0
 17 16  2  0
 18 21  1  0
 18 13  1  0
 19 18  2  0
M  END
$$$$
