PGE.pdb
     RDKit          3D

 21 21  0  0  1  0  0  0  0  0999 V2000
    7.9984  -14.1947   18.4827 N   0  0  0  0  0  0  0  0  0  0  0  0
    7.1960  -12.9555   18.6174 C   0  0  0  0  0  0  0  0  0  0  0  0
    7.9109  -12.3929   19.8555 C   0  0  0  0  0  0  0  0  0  0  0  0
    9.3446  -12.4490   19.3778 C   0  0  0  0  0  0  0  0  0  0  0  0
    9.3547  -13.7732   18.6075 C   0  0  1  0  0  0  0  0  0  0  0  0
   10.2684  -14.6772   19.2899 C   0  0  0  0  0  0  0  0  0  0  0  0
   11.5126  -14.3975   19.2061 O   0  0  0  0  0  0  0  0  0  0  0  0
    9.9062  -15.8313   20.0331 N   0  0  0  0  0  0  0  0  0  0  0  0
   10.9227  -16.7025   20.5089 C   0  0  0  0  0  0  0  0  0  0  0  0
   11.7104  -16.1875   21.6517 C   0  0  0  0  0  0  0  0  0  0  0  0
   11.2270  -15.2371   22.3689 O   0  0  0  0  0  0  0  0  0  0  0  0
   12.9853  -16.6570   22.0418 N   0  0  0  0  0  0  0  0  0  0  0  0
   13.5832  -16.2338   23.3236 C   0  0  1  0  0  0  0  0  0  0  0  0
   13.5078  -17.3479   24.3075 C   0  0  0  0  0  0  0  0  0  0  0  0
   12.4442  -17.1387   25.3341 C   0  0  0  0  0  0  0  0  0  0  0  0
   12.3735  -18.2113   26.3451 C   0  0  0  0  0  0  0  0  0  0  0  0
   11.7488  -18.1340   27.4036 O   0  0  0  0  0  0  0  0  0  0  0  0
   14.9795  -15.8423   23.0287 C   0  0  0  0  0  0  0  0  0  0  0  0
   15.6927  -15.2756   23.8742 O   0  0  0  0  0  0  0  0  0  0  0  0
   13.0691  -19.3857   26.0639 O   0  0  0  0  0  0  0  0  0  0  0  0
   15.5221  -16.1111   21.7706 O   0  0  0  0  0  0  0  0  0  0  0  0
  2  1  1  0
  3  4  1  0
  3  2  1  0
  4  5  1  0
  5  1  1  0
  6  8  1  0
  5  6  1  1
  7  6  2  0
  9 10  1  0
  9  8  1  0
 10 11  2  0
 12 13  1  0
 12 10  1  0
 13 14  1  1
 14 15  1  0
 16 15  1  0
 16 20  1  0
 17 16  2  0
 18 21  1  0
 18 13  1  0
 19 18  2  0
M  END
$$$$
