PGE.pdb
     RDKit          3D

 21 21  0  0  1  0  0  0  0  0999 V2000
    8.1119  -15.1864   19.4437 N   0  0  0  0  0  0  0  0  0  0  0  0
    7.9470  -14.2163   18.3349 C   0  0  0  0  0  0  0  0  0  0  0  0
    7.0913  -13.1922   19.0962 C   0  0  0  0  0  0  0  0  0  0  0  0
    7.9624  -12.9769   20.3135 C   0  0  0  0  0  0  0  0  0  0  0  0
    8.4720  -14.3977   20.5755 C   0  0  1  0  0  0  0  0  0  0  0  0
    7.9576  -14.8227   21.8688 C   0  0  0  0  0  0  0  0  0  0  0  0
    8.3615  -14.1623   22.8857 O   0  0  0  0  0  0  0  0  0  0  0  0
    7.0564  -15.8948   22.1010 N   0  0  0  0  0  0  0  0  0  0  0  0
    6.5809  -16.1339   23.4183 C   0  0  0  0  0  0  0  0  0  0  0  0
    7.5544  -16.7698   24.3344 C   0  0  0  0  0  0  0  0  0  0  0  0
    8.6644  -17.2121   23.8611 O   0  0  0  0  0  0  0  0  0  0  0  0
    7.3736  -16.9427   25.7256 N   0  0  0  0  0  0  0  0  0  0  0  0
    8.4399  -17.5387   26.5547 C   0  0  1  0  0  0  0  0  0  0  0  0
    8.8047  -16.6052   27.6548 C   0  0  0  0  0  0  0  0  0  0  0  0
    9.4344  -15.3463   27.1569 C   0  0  0  0  0  0  0  0  0  0  0  0
    9.9302  -14.4637   28.2306 C   0  0  0  0  0  0  0  0  0  0  0  0
    9.8324  -14.7047   29.4343 O   0  0  0  0  0  0  0  0  0  0  0  0
    7.9096  -18.8228   27.0644 C   0  0  0  0  0  0  0  0  0  0  0  0
    6.7057  -19.1172   26.9701 O   0  0  0  0  0  0  0  0  0  0  0  0
   10.5490  -13.2797   27.8342 O   0  0  0  0  0  0  0  0  0  0  0  0
    8.7744  -19.7368   27.6697 O   0  0  0  0  0  0  0  0  0  0  0  0
  2  1  1  0
  3  4  1  0
  3  2  1  0
  4  5  1  0
  5  1  1  0
  6  8  1  0
  5  6  1  1
  7  6  2  0
  9 10  1  0
  9  8  1  0
 10 11  2  0
 12 13  1  0
 12 10  1  0
 13 14  1  1
 14 15  1  0
 16 15  1  0
 16 20  1  0
 17 16  2  0
 18 21  1  0
 18 13  1  0
 19 18  2  0
M  END
$$$$
