PGE.pdb
     RDKit          3D

 21 21  0  0  1  0  0  0  0  0999 V2000
    8.4174  -15.0502   18.8619 N   0  0  0  0  0  0  0  0  0  0  0  0
    7.0607  -14.4615   18.9635 C   0  0  0  0  0  0  0  0  0  0  0  0
    7.4612  -13.1713   19.6953 C   0  0  0  0  0  0  0  0  0  0  0  0
    8.5537  -12.6765   18.7741 C   0  0  0  0  0  0  0  0  0  0  0  0
    9.2479  -13.9889   18.3965 C   0  0  1  0  0  0  0  0  0  0  0  0
   10.6073  -13.9371   18.9133 C   0  0  0  0  0  0  0  0  0  0  0  0
   11.3293  -12.9601   18.5163 O   0  0  0  0  0  0  0  0  0  0  0  0
   11.1989  -14.8653   19.8100 N   0  0  0  0  0  0  0  0  0  0  0  0
   12.5377  -14.6635   20.2406 C   0  0  0  0  0  0  0  0  0  0  0  0
   13.0303  -15.6340   21.2441 C   0  0  0  0  0  0  0  0  0  0  0  0
   12.5120  -16.8091   21.2871 O   0  0  0  0  0  0  0  0  0  0  0  0
   14.0499  -15.3830   22.1905 N   0  0  0  0  0  0  0  0  0  0  0  0
   14.5281  -16.4566   23.0839 C   0  0  1  0  0  0  0  0  0  0  0  0
   15.8874  -16.1235   23.5901 C   0  0  0  0  0  0  0  0  0  0  0  0
   16.8686  -15.8834   22.4908 C   0  0  0  0  0  0  0  0  0  0  0  0
   18.2353  -15.5933   22.9656 C   0  0  0  0  0  0  0  0  0  0  0  0
   18.7045  -14.4621   23.0960 O   0  0  0  0  0  0  0  0  0  0  0  0
   13.5367  -16.5685   24.1768 C   0  0  0  0  0  0  0  0  0  0  0  0
   13.5851  -17.4870   25.0127 O   0  0  0  0  0  0  0  0  0  0  0  0
   19.0352  -16.6893   23.2835 O   0  0  0  0  0  0  0  0  0  0  0  0
   12.5146  -15.6233   24.2829 O   0  0  0  0  0  0  0  0  0  0  0  0
  2  1  1  0
  3  4  1  0
  3  2  1  0
  4  5  1  0
  5  1  1  0
  6  8  1  0
  5  6  1  1
  7  6  2  0
  9 10  1  0
  9  8  1  0
 10 11  2  0
 12 13  1  0
 12 10  1  0
 13 14  1  1
 14 15  1  0
 16 15  1  0
 16 20  1  0
 17 16  2  0
 18 21  1  0
 18 13  1  0
 19 18  2  0
M  END
$$$$
