PGE.pdb
     RDKit          3D

 21 21  0  0  1  0  0  0  0  0999 V2000
    7.1638  -15.3709   19.4279 N   0  0  0  0  0  0  0  0  0  0  0  0
    7.1829  -14.9788   17.9984 C   0  0  0  0  0  0  0  0  0  0  0  0
    7.4220  -13.4761   18.2106 C   0  0  0  0  0  0  0  0  0  0  0  0
    8.6359  -13.5288   19.1108 C   0  0  0  0  0  0  0  0  0  0  0  0
    8.2978  -14.7268   20.0039 C   0  0  1  0  0  0  0  0  0  0  0  0
    8.1598  -14.2390   21.3680 C   0  0  0  0  0  0  0  0  0  0  0  0
    9.2413  -14.1044   22.0355 O   0  0  0  0  0  0  0  0  0  0  0  0
    6.9436  -13.9025   22.0187 N   0  0  0  0  0  0  0  0  0  0  0  0
    6.9832  -13.3141   23.3112 C   0  0  0  0  0  0  0  0  0  0  0  0
    7.3937  -14.2230   24.4054 C   0  0  0  0  0  0  0  0  0  0  0  0
    7.5151  -13.7557   25.5964 O   0  0  0  0  0  0  0  0  0  0  0  0
    7.6741  -15.6008   24.2602 N   0  0  0  0  0  0  0  0  0  0  0  0
    7.8543  -16.4611   25.4464 C   0  0  1  0  0  0  0  0  0  0  0  0
    7.2615  -17.8021   25.1916 C   0  0  0  0  0  0  0  0  0  0  0  0
    7.4875  -18.7553   26.3183 C   0  0  0  0  0  0  0  0  0  0  0  0
    6.9299  -20.1007   26.0807 C   0  0  0  0  0  0  0  0  0  0  0  0
    6.1635  -20.3870   25.1602 O   0  0  0  0  0  0  0  0  0  0  0  0
    9.3108  -16.5326   25.6980 C   0  0  0  0  0  0  0  0  0  0  0  0
   10.1416  -16.3054   24.8019 O   0  0  0  0  0  0  0  0  0  0  0  0
    7.3089  -21.1035   26.9711 O   0  0  0  0  0  0  0  0  0  0  0  0
    9.7772  -16.8633   26.9718 O   0  0  0  0  0  0  0  0  0  0  0  0
  2  1  1  0
  3  4  1  0
  3  2  1  0
  4  5  1  0
  5  1  1  0
  6  8  1  0
  5  6  1  1
  7  6  2  0
  9 10  1  0
  9  8  1  0
 10 11  2  0
 12 13  1  0
 12 10  1  0
 13 14  1  6
 14 15  1  0
 16 15  1  0
 16 20  1  0
 17 16  2  0
 18 21  1  0
 18 13  1  0
 19 18  2  0
M  END
$$$$
