YPD.pdb
     RDKit          3D

 28 29  0  0  1  0  0  0  0  0999 V2000
    5.4945  -10.2138   27.4082 O   0  0  0  0  0  0  0  0  0  0  0  0
    6.1331  -11.3822   26.9448 C   0  0  0  0  0  0  0  0  0  0  0  0
    7.0508  -11.3290   25.9192 C   0  0  0  0  0  0  0  0  0  0  0  0
    7.6550  -12.4763   25.4891 C   0  0  0  0  0  0  0  0  0  0  0  0
    7.3867  -13.7150   26.0424 C   0  0  0  0  0  0  0  0  0  0  0  0
    8.1087  -14.8883   25.4973 C   0  0  0  0  0  0  0  0  0  0  0  0
    7.1231  -15.7434   24.7352 C   0  0  2  0  0  0  0  0  0  0  0  0
    6.4608  -16.6527   25.6016 N   0  0  0  0  0  0  0  0  0  0  0  0
    7.7002  -16.3667   23.5282 C   0  0  0  0  0  0  0  0  0  0  0  0
    7.7341  -17.6422   23.5388 O   0  0  0  0  0  0  0  0  0  0  0  0
    6.4701  -13.7659   27.0668 C   0  0  0  0  0  0  0  0  0  0  0  0
    5.8592  -12.6107   27.5026 C   0  0  0  0  0  0  0  0  0  0  0  0
    8.2036  -15.6941   22.3978 N   0  0  0  0  0  0  0  0  0  0  0  0
    8.4492  -14.2876   22.1821 C   0  0  0  0  0  0  0  0  0  0  0  0
    8.4713  -14.0860   20.6770 C   0  0  0  0  0  0  0  0  0  0  0  0
    7.9844  -15.4350   20.1305 C   0  0  0  0  0  0  0  0  0  0  0  0
    8.5971  -16.3508   21.1663 C   0  0  1  0  0  0  0  0  0  0  0  0
   10.1002  -16.3104   21.1133 C   0  0  0  0  0  0  0  0  0  0  0  0
   10.7306  -16.7412   20.1055 O   0  0  0  0  0  0  0  0  0  0  0  0
   10.8318  -15.7842   22.2025 N   0  0  0  0  0  0  0  0  0  0  0  0
   11.9674  -16.5666   22.7187 C   0  0  1  0  0  0  0  0  0  0  0  0
   11.4967  -17.9653   23.0591 C   0  0  0  0  0  0  0  0  0  0  0  0
   12.2050  -18.5957   24.1731 C   0  0  0  0  0  0  0  0  0  0  0  0
   13.1977  -18.0089   24.7319 O   0  0  0  0  0  0  0  0  0  0  0  0
   13.0217  -16.5568   21.6738 C   0  0  0  0  0  0  0  0  0  0  0  0
   12.9181  -17.1909   20.4528 O   0  0  0  0  0  0  0  0  0  0  0  0
   11.8250  -19.8297   24.6433 O   0  0  0  0  0  0  0  0  0  0  0  0
   14.0850  -15.9324   21.9052 O   0  0  0  0  0  0  0  0  0  0  0  0
  2 12  2  0
  2  1  1  0
  3  2  1  0
  4  5  1  0
  4  3  2  0
  5 11  2  0
  6  7  1  0
  6  5  1  0
  7  8  1  1
  9  7  1  0
  9 13  1  0
 10  9  2  0
 11 12  1  0
 13 14  1  0
 14 15  1  0
 16 15  1  0
 17 13  1  0
 17 16  1  0
 18 19  2  0
 17 18  1  6
 20 18  1  0
 21 20  1  0
 21 25  1  0
 21 22  1  6
 23 22  1  0
 23 24  2  0
 25 26  1  0
 27 23  1  0
 28 25  2  0
M  END
$$$$
