YPD.pdb
     RDKit          3D

 28 29  0  0  1  0  0  0  0  0999 V2000
    9.7037  -13.7382   24.7963 O   0  0  0  0  0  0  0  0  0  0  0  0
    8.8817  -14.5268   23.9654 C   0  0  0  0  0  0  0  0  0  0  0  0
    9.3846  -15.6300   23.3123 C   0  0  0  0  0  0  0  0  0  0  0  0
    8.5664  -16.3768   22.5128 C   0  0  0  0  0  0  0  0  0  0  0  0
    7.2304  -16.0754   22.3215 C   0  0  0  0  0  0  0  0  0  0  0  0
    6.4399  -16.9623   21.4363 C   0  0  0  0  0  0  0  0  0  0  0  0
    6.4039  -16.3494   20.0555 C   0  0  2  0  0  0  0  0  0  0  0  0
    5.5678  -17.0994   19.1868 N   0  0  0  0  0  0  0  0  0  0  0  0
    7.7439  -16.0610   19.5083 C   0  0  0  0  0  0  0  0  0  0  0  0
    8.2817  -17.0170   18.8563 O   0  0  0  0  0  0  0  0  0  0  0  0
    6.7300  -14.9733   22.9750 C   0  0  0  0  0  0  0  0  0  0  0  0
    7.5526  -14.2182   23.7817 C   0  0  0  0  0  0  0  0  0  0  0  0
    8.4608  -14.8560   19.6406 N   0  0  0  0  0  0  0  0  0  0  0  0
    8.2441  -13.7342   20.5236 C   0  0  0  0  0  0  0  0  0  0  0  0
    8.9480  -12.5491   19.8858 C   0  0  0  0  0  0  0  0  0  0  0  0
    9.3403  -13.0737   18.4978 C   0  0  0  0  0  0  0  0  0  0  0  0
    9.6318  -14.5135   18.8571 C   0  0  1  0  0  0  0  0  0  0  0  0
   10.8171  -14.6196   19.7779 C   0  0  0  0  0  0  0  0  0  0  0  0
   10.7739  -14.1592   20.9546 O   0  0  0  0  0  0  0  0  0  0  0  0
   12.0050  -15.2426   19.3317 N   0  0  0  0  0  0  0  0  0  0  0  0
   13.1494  -15.2977   20.2566 C   0  0  1  0  0  0  0  0  0  0  0  0
   13.6743  -16.7171   20.3178 C   0  0  0  0  0  0  0  0  0  0  0  0
   12.6658  -17.7300   20.6295 C   0  0  0  0  0  0  0  0  0  0  0  0
   11.4572  -17.3910   20.8870 O   0  0  0  0  0  0  0  0  0  0  0  0
   14.1641  -14.3340   19.7616 C   0  0  0  0  0  0  0  0  0  0  0  0
   14.0487  -13.6082   18.5938 O   0  0  0  0  0  0  0  0  0  0  0  0
   12.9908  -19.0649   20.6558 O   0  0  0  0  0  0  0  0  0  0  0  0
   15.2027  -14.1586   20.4431 O   0  0  0  0  0  0  0  0  0  0  0  0
  2 12  2  0
  2  1  1  0
  3  2  1  0
  4  5  1  0
  4  3  2  0
  5 11  2  0
  6  7  1  0
  6  5  1  0
  7  8  1  6
  9  7  1  0
  9 13  1  0
 10  9  2  0
 11 12  1  0
 13 14  1  0
 14 15  1  0
 16 15  1  0
 17 13  1  0
 17 16  1  0
 18 19  2  0
 17 18  1  1
 20 18  1  0
 21 20  1  0
 21 25  1  0
 21 22  1  6
 23 22  1  0
 23 24  2  0
 25 26  1  0
 27 23  1  0
 28 25  2  0
M  END
$$$$
