YPD.pdb
     RDKit          3D

 28 29  0  0  1  0  0  0  0  0999 V2000
   10.0486  -16.5746   26.9801 O   0  0  0  0  0  0  0  0  0  0  0  0
    9.0877  -16.1649   26.0332 C   0  0  0  0  0  0  0  0  0  0  0  0
    8.0087  -16.9641   25.7270 C   0  0  0  0  0  0  0  0  0  0  0  0
    7.0922  -16.5431   24.8055 C   0  0  0  0  0  0  0  0  0  0  0  0
    7.1945  -15.3297   24.1501 C   0  0  0  0  0  0  0  0  0  0  0  0
    6.1359  -14.9775   23.1752 C   0  0  0  0  0  0  0  0  0  0  0  0
    6.0675  -16.0671   22.1304 C   0  0  2  0  0  0  0  0  0  0  0  0
    5.8047  -17.3288   22.7266 N   0  0  0  0  0  0  0  0  0  0  0  0
    7.2161  -16.0617   21.2034 C   0  0  0  0  0  0  0  0  0  0  0  0
    7.5163  -17.1968   20.7038 O   0  0  0  0  0  0  0  0  0  0  0  0
    8.2727  -14.5329   24.4575 C   0  0  0  0  0  0  0  0  0  0  0  0
    9.1985  -14.9546   25.3863 C   0  0  0  0  0  0  0  0  0  0  0  0
    7.9883  -14.9435   20.8337 N   0  0  0  0  0  0  0  0  0  0  0  0
    7.9485  -13.5825   21.3147 C   0  0  0  0  0  0  0  0  0  0  0  0
    8.5911  -12.7308   20.2337 C   0  0  0  0  0  0  0  0  0  0  0  0
    8.7502  -13.7069   19.0599 C   0  0  0  0  0  0  0  0  0  0  0  0
    9.0396  -14.9725   19.8355 C   0  0  1  0  0  0  0  0  0  0  0  0
   10.3454  -14.8748   20.5766 C   0  0  0  0  0  0  0  0  0  0  0  0
   10.4436  -14.2011   21.6420 O   0  0  0  0  0  0  0  0  0  0  0  0
   11.4894  -15.5432   20.0838 N   0  0  0  0  0  0  0  0  0  0  0  0
   12.6289  -15.7342   20.9966 C   0  0  1  0  0  0  0  0  0  0  0  0
   12.7550  -17.2045   21.3374 C   0  0  0  0  0  0  0  0  0  0  0  0
   12.9909  -18.0810   20.1902 C   0  0  0  0  0  0  0  0  0  0  0  0
   12.0682  -18.2880   19.3255 O   0  0  0  0  0  0  0  0  0  0  0  0
   13.8347  -15.1999   20.3156 C   0  0  0  0  0  0  0  0  0  0  0  0
   13.8336  -14.6236   19.0620 O   0  0  0  0  0  0  0  0  0  0  0  0
   14.2035  -18.7032   20.0149 O   0  0  0  0  0  0  0  0  0  0  0  0
   14.9368  -15.2715   20.9107 O   0  0  0  0  0  0  0  0  0  0  0  0
  2 12  2  0
  2  1  1  0
  3  2  1  0
  4  5  1  0
  4  3  2  0
  5 11  2  0
  6  7  1  0
  6  5  1  0
  7  8  1  1
  9  7  1  0
  9 13  1  0
 10  9  2  0
 11 12  1  0
 13 14  1  0
 14 15  1  0
 16 15  1  0
 17 13  1  0
 17 16  1  0
 18 19  2  0
 17 18  1  1
 20 18  1  0
 21 20  1  0
 21 25  1  0
 21 22  1  6
 23 22  1  0
 23 24  2  0
 25 26  1  0
 27 23  1  0
 28 25  2  0
M  END
$$$$
