YPD.pdb
     RDKit          3D

 28 29  0  0  1  0  0  0  0  0999 V2000
    7.6238  -13.2076   16.2999 O   0  0  0  0  0  0  0  0  0  0  0  0
    7.6206  -13.4791   17.6834 C   0  0  0  0  0  0  0  0  0  0  0  0
    7.3317  -14.7394   18.1576 C   0  0  0  0  0  0  0  0  0  0  0  0
    7.3352  -14.9754   19.5032 C   0  0  0  0  0  0  0  0  0  0  0  0
    7.6200  -13.9928   20.4336 C   0  0  0  0  0  0  0  0  0  0  0  0
    7.5998  -14.3687   21.8666 C   0  0  0  0  0  0  0  0  0  0  0  0
    9.0192  -14.3513   22.3847 C   0  0  2  0  0  0  0  0  0  0  0  0
    9.8872  -15.0651   21.5167 N   0  0  0  0  0  0  0  0  0  0  0  0
    9.1285  -14.7387   23.8047 C   0  0  0  0  0  0  0  0  0  0  0  0
   10.0664  -15.5613   24.0727 O   0  0  0  0  0  0  0  0  0  0  0  0
    7.9085  -12.7348   19.9579 C   0  0  0  0  0  0  0  0  0  0  0  0
    7.9056  -12.4937   18.6017 C   0  0  0  0  0  0  0  0  0  0  0  0
    8.3094  -14.2921   24.8597 N   0  0  0  0  0  0  0  0  0  0  0  0
    6.9850  -13.7171   24.8330 C   0  0  0  0  0  0  0  0  0  0  0  0
    6.8244  -12.9592   26.1393 C   0  0  0  0  0  0  0  0  0  0  0  0
    8.2373  -12.9801   26.7384 C   0  0  0  0  0  0  0  0  0  0  0  0
    8.6825  -14.3439   26.2600 C   0  0  1  0  0  0  0  0  0  0  0  0
    7.8640  -15.4393   26.8877 C   0  0  0  0  0  0  0  0  0  0  0  0
    6.7449  -15.7770   26.4059 O   0  0  0  0  0  0  0  0  0  0  0  0
    8.3434  -16.1102   28.0359 N   0  0  0  0  0  0  0  0  0  0  0  0
    8.8367  -17.4887   27.8791 C   0  0  1  0  0  0  0  0  0  0  0  0
    9.5659  -17.6110   26.5572 C   0  0  0  0  0  0  0  0  0  0  0  0
   10.2774  -18.8746   26.3649 C   0  0  0  0  0  0  0  0  0  0  0  0
   10.2253  -19.7957   27.2543 O   0  0  0  0  0  0  0  0  0  0  0  0
    9.7105  -17.7802   29.0430 C   0  0  0  0  0  0  0  0  0  0  0  0
    9.5869  -18.8889   29.8550 O   0  0  0  0  0  0  0  0  0  0  0  0
   11.0184  -19.1019   25.2302 O   0  0  0  0  0  0  0  0  0  0  0  0
   10.6282  -16.9701   29.3177 O   0  0  0  0  0  0  0  0  0  0  0  0
  2 12  2  0
  2  1  1  0
  3  2  1  0
  4  5  1  0
  4  3  2  0
  5 11  2  0
  6  7  1  0
  6  5  1  0
  7  8  1  6
  9  7  1  0
  9 13  1  0
 10  9  2  0
 11 12  1  0
 13 14  1  0
 14 15  1  0
 16 15  1  0
 17 13  1  0
 17 16  1  0
 18 19  2  0
 17 18  1  1
 20 18  1  0
 21 20  1  0
 21 25  1  0
 21 22  1  6
 23 22  1  0
 23 24  2  0
 25 26  1  0
 27 23  1  0
 28 25  2  0
M  END
$$$$
