YPD.pdb
     RDKit          3D

 28 29  0  0  1  0  0  0  0  0999 V2000
    5.9730  -11.8441   28.5658 O   0  0  0  0  0  0  0  0  0  0  0  0
    6.5115  -12.3660   27.3718 C   0  0  0  0  0  0  0  0  0  0  0  0
    7.6054  -13.2024   27.3938 C   0  0  0  0  0  0  0  0  0  0  0  0
    8.1073  -13.6940   26.2222 C   0  0  0  0  0  0  0  0  0  0  0  0
    7.5619  -13.3883   24.9888 C   0  0  0  0  0  0  0  0  0  0  0  0
    8.1885  -13.9864   23.7867 C   0  0  0  0  0  0  0  0  0  0  0  0
    7.2023  -14.9458   23.1617 C   0  0  2  0  0  0  0  0  0  0  0  0
    6.9208  -16.0286   24.0361 N   0  0  0  0  0  0  0  0  0  0  0  0
    7.5700  -15.3525   21.7914 C   0  0  0  0  0  0  0  0  0  0  0  0
    7.2237  -16.5364   21.4648 O   0  0  0  0  0  0  0  0  0  0  0  0
    6.4693  -12.5529   24.9690 C   0  0  0  0  0  0  0  0  0  0  0  0
    5.9609  -12.0556   26.1487 C   0  0  0  0  0  0  0  0  0  0  0  0
    8.2519  -14.5692   20.8402 N   0  0  0  0  0  0  0  0  0  0  0  0
    8.9947  -13.3416   21.0028 C   0  0  0  0  0  0  0  0  0  0  0  0
    9.0439  -12.6899   19.6319 C   0  0  0  0  0  0  0  0  0  0  0  0
    8.0751  -13.5405   18.7990 C   0  0  0  0  0  0  0  0  0  0  0  0
    8.3361  -14.8904   19.4287 C   0  0  1  0  0  0  0  0  0  0  0  0
    9.7448  -15.3523   19.1713 C   0  0  0  0  0  0  0  0  0  0  0  0
   10.0838  -15.8214   18.0472 O   0  0  0  0  0  0  0  0  0  0  0  0
   10.7152  -15.2655   20.1956 N   0  0  0  0  0  0  0  0  0  0  0  0
   11.9520  -16.0509   20.0484 C   0  0  1  0  0  0  0  0  0  0  0  0
   13.1471  -15.1460   20.2649 C   0  0  0  0  0  0  0  0  0  0  0  0
   13.5960  -14.4284   19.0719 C   0  0  0  0  0  0  0  0  0  0  0  0
   13.4027  -14.9180   17.9035 O   0  0  0  0  0  0  0  0  0  0  0  0
   11.8898  -17.1609   21.0319 C   0  0  0  0  0  0  0  0  0  0  0  0
   11.3844  -17.0452   22.3105 O   0  0  0  0  0  0  0  0  0  0  0  0
   14.2360  -13.2169   19.1760 O   0  0  0  0  0  0  0  0  0  0  0  0
   12.3239  -18.2869   20.6887 O   0  0  0  0  0  0  0  0  0  0  0  0
  2 12  2  0
  2  1  1  0
  3  2  1  0
  4  5  1  0
  4  3  2  0
  5 11  2  0
  6  7  1  0
  6  5  1  0
  7  8  1  1
  9  7  1  0
  9 13  1  0
 10  9  2  0
 11 12  1  0
 13 14  1  0
 14 15  1  0
 16 15  1  0
 17 13  1  0
 17 16  1  0
 18 19  2  0
 17 18  1  1
 20 18  1  0
 21 20  1  0
 21 25  1  0
 21 22  1  1
 23 22  1  0
 23 24  2  0
 25 26  1  0
 27 23  1  0
 28 25  2  0
M  END
$$$$
