QGF.pdb
     RDKit          3D

 25 25  0  0  1  0  0  0  0  0999 V2000
    8.9297  -12.6809   18.1254 N   0  0  0  0  0  0  0  0  0  0  0  0
    8.1267  -13.8033   17.8229 C   0  0  0  0  0  0  0  0  0  0  0  0
    8.0710  -14.1518   16.6169 O   0  0  0  0  0  0  0  0  0  0  0  0
    7.3668  -14.5729   18.8126 C   0  0  0  0  0  0  0  0  0  0  0  0
    7.3974  -16.0380   18.6782 C   0  0  0  0  0  0  0  0  0  0  0  0
    7.5800  -16.8154   19.9496 C   0  0  2  0  0  0  0  0  0  0  0  0
    6.6588  -16.2280   20.9543 N   0  0  0  0  0  0  0  0  0  0  0  0
    8.9541  -16.8029   20.4900 C   0  0  0  0  0  0  0  0  0  0  0  0
    9.8868  -17.4208   19.8716 O   0  0  0  0  0  0  0  0  0  0  0  0
    9.3719  -16.1461   21.6769 N   0  0  0  0  0  0  0  0  0  0  0  0
   10.7082  -15.6439   21.8497 C   0  0  0  0  0  0  0  0  0  0  0  0
   11.4238  -16.1876   23.0095 C   0  0  0  0  0  0  0  0  0  0  0  0
   12.6656  -15.9185   23.0965 O   0  0  0  0  0  0  0  0  0  0  0  0
   10.8772  -16.9726   24.0294 N   0  0  0  0  0  0  0  0  0  0  0  0
   10.9845  -16.5246   25.4232 C   0  0  1  0  0  0  0  0  0  0  0  0
    9.6532  -15.8558   25.7914 C   0  0  0  0  0  0  0  0  0  0  0  0
    9.7636  -15.2869   27.1688 C   0  0  0  0  0  0  0  0  0  0  0  0
    9.4662  -13.9665   27.4188 C   0  0  0  0  0  0  0  0  0  0  0  0
    9.5605  -13.4148   28.6864 C   0  0  0  0  0  0  0  0  0  0  0  0
    9.9648  -14.2129   29.7302 C   0  0  0  0  0  0  0  0  0  0  0  0
   10.2600  -15.5325   29.4695 C   0  0  0  0  0  0  0  0  0  0  0  0
   10.1624  -16.0654   28.2106 C   0  0  0  0  0  0  0  0  0  0  0  0
   11.1970  -17.6761   26.3046 C   0  0  0  0  0  0  0  0  0  0  0  0
   11.9327  -17.5617   27.3047 O   0  0  0  0  0  0  0  0  0  0  0  0
   10.5764  -18.8805   26.0149 O   0  0  0  0  0  0  0  0  0  0  0  0
  2  4  1  0
  2  1  1  0
  3  2  2  0
  5  4  1  0
  6  8  1  0
  6  5  1  0
  6  7  1  1
  8 10  1  0
  9  8  2  0
 10 11  1  0
 11 12  1  0
 12 13  2  0
 12 14  1  0
 14 15  1  0
 15 23  1  0
 15 16  1  1
 17 16  1  0
 18 17  2  0
 19 18  1  0
 20 19  2  0
 20 21  1  0
 21 22  2  0
 22 17  1  0
 23 24  2  0
 23 25  1  0
M  END
$$$$
