QGF.pdb
     RDKit          3D

 25 25  0  0  1  0  0  0  0  0999 V2000
    8.9404  -13.8778   17.0383 N   0  0  0  0  0  0  0  0  0  0  0  0
    8.4817  -13.3919   18.2831 C   0  0  0  0  0  0  0  0  0  0  0  0
    8.9267  -12.2773   18.6553 O   0  0  0  0  0  0  0  0  0  0  0  0
    7.5348  -14.0964   19.1527 C   0  0  0  0  0  0  0  0  0  0  0  0
    7.8353  -15.5047   19.4559 C   0  0  0  0  0  0  0  0  0  0  0  0
    7.3847  -16.0032   20.7985 C   0  0  2  0  0  0  0  0  0  0  0  0
    7.0525  -14.8099   21.6161 N   0  0  0  0  0  0  0  0  0  0  0  0
    8.3801  -16.8204   21.5207 C   0  0  0  0  0  0  0  0  0  0  0  0
    8.8400  -17.8853   20.9831 O   0  0  0  0  0  0  0  0  0  0  0  0
    8.9087  -16.5373   22.8072 N   0  0  0  0  0  0  0  0  0  0  0  0
    9.9449  -17.3339   23.4067 C   0  0  0  0  0  0  0  0  0  0  0  0
   10.3317  -16.9211   24.7605 C   0  0  0  0  0  0  0  0  0  0  0  0
   11.2106  -17.6308   25.3486 O   0  0  0  0  0  0  0  0  0  0  0  0
    9.8306  -15.8250   25.4695 N   0  0  0  0  0  0  0  0  0  0  0  0
   10.4951  -15.3991   26.7072 C   0  0  1  0  0  0  0  0  0  0  0  0
   10.2547  -13.8910   26.8587 C   0  0  0  0  0  0  0  0  0  0  0  0
    8.8161  -13.6010   26.5770 C   0  0  0  0  0  0  0  0  0  0  0  0
    7.9156  -13.4099   27.6002 C   0  0  0  0  0  0  0  0  0  0  0  0
    6.5768  -13.1399   27.3658 C   0  0  0  0  0  0  0  0  0  0  0  0
    6.1324  -13.0599   26.0674 C   0  0  0  0  0  0  0  0  0  0  0  0
    7.0413  -13.2527   25.0509 C   0  0  0  0  0  0  0  0  0  0  0  0
    8.3630  -13.5192   25.2969 C   0  0  0  0  0  0  0  0  0  0  0  0
    9.9055  -16.0917   27.8564 C   0  0  0  0  0  0  0  0  0  0  0  0
    8.9496  -16.8731   27.6835 O   0  0  0  0  0  0  0  0  0  0  0  0
   10.4190  -15.8690   29.1238 O   0  0  0  0  0  0  0  0  0  0  0  0
  2  4  1  0
  2  1  1  0
  3  2  2  0
  5  4  1  0
  6  8  1  0
  6  5  1  0
  6  7  1  1
  8 10  1  0
  9  8  2  0
 10 11  1  0
 11 12  1  0
 12 13  2  0
 12 14  1  0
 14 15  1  0
 15 23  1  0
 15 16  1  1
 17 16  1  0
 18 17  2  0
 19 18  1  0
 20 19  2  0
 20 21  1  0
 21 22  2  0
 22 17  1  0
 23 24  2  0
 23 25  1  0
M  END
$$$$
