QGF.pdb
     RDKit          3D

 25 25  0  0  1  0  0  0  0  0999 V2000
    8.1790  -20.6951   16.2374 N   0  0  0  0  0  0  0  0  0  0  0  0
    7.1602  -19.9886   16.9150 C   0  0  0  0  0  0  0  0  0  0  0  0
    6.1455  -20.6461   17.2567 O   0  0  0  0  0  0  0  0  0  0  0  0
    7.2131  -18.5596   17.2379 C   0  0  0  0  0  0  0  0  0  0  0  0
    8.4085  -18.0858   17.9537 C   0  0  0  0  0  0  0  0  0  0  0  0
    8.3238  -18.0815   19.4527 C   0  0  2  0  0  0  0  0  0  0  0  0
    6.9622  -18.5502   19.8124 N   0  0  0  0  0  0  0  0  0  0  0  0
    8.5631  -16.7673   20.0818 C   0  0  0  0  0  0  0  0  0  0  0  0
    8.6888  -15.7256   19.3515 O   0  0  0  0  0  0  0  0  0  0  0  0
    8.6718  -16.5232   21.4758 N   0  0  0  0  0  0  0  0  0  0  0  0
    9.5182  -15.4926   22.0137 C   0  0  0  0  0  0  0  0  0  0  0  0
    9.5946  -15.4627   23.4786 C   0  0  0  0  0  0  0  0  0  0  0  0
   10.4920  -14.7190   23.9922 O   0  0  0  0  0  0  0  0  0  0  0  0
    8.7793  -16.1702   24.3673 N   0  0  0  0  0  0  0  0  0  0  0  0
    9.0323  -16.0783   25.8105 C   0  0  1  0  0  0  0  0  0  0  0  0
    7.6993  -15.7291   26.4862 C   0  0  0  0  0  0  0  0  0  0  0  0
    7.4967  -14.2502   26.4183 C   0  0  0  0  0  0  0  0  0  0  0  0
    7.7154  -13.4513   27.5175 C   0  0  0  0  0  0  0  0  0  0  0  0
    7.5349  -12.0779   27.4809 C   0  0  0  0  0  0  0  0  0  0  0  0
    7.1234  -11.4928   26.3069 C   0  0  0  0  0  0  0  0  0  0  0  0
    6.9073  -12.3009   25.2129 C   0  0  0  0  0  0  0  0  0  0  0  0
    7.0897  -13.6583   25.2631 C   0  0  0  0  0  0  0  0  0  0  0  0
    9.4991  -17.3705   26.3207 C   0  0  0  0  0  0  0  0  0  0  0  0
    9.7932  -17.4894   27.5264 O   0  0  0  0  0  0  0  0  0  0  0  0
    9.6081  -18.4464   25.4547 O   0  0  0  0  0  0  0  0  0  0  0  0
  2  4  1  0
  2  1  1  0
  3  2  2  0
  5  4  1  0
  6  8  1  0
  6  5  1  0
  6  7  1  6
  8 10  1  0
  9  8  2  0
 10 11  1  0
 11 12  1  0
 12 13  2  0
 12 14  1  0
 14 15  1  0
 15 23  1  0
 15 16  1  1
 17 16  1  0
 18 17  2  0
 19 18  1  0
 20 19  2  0
 20 21  1  0
 21 22  2  0
 22 17  1  0
 23 24  2  0
 23 25  1  0
M  END
$$$$
