QGF.pdb
     RDKit          3D

 25 25  0  0  1  0  0  0  0  0999 V2000
    8.9144  -12.2935   18.2377 N   0  0  0  0  0  0  0  0  0  0  0  0
    8.3727  -13.4549   17.6429 C   0  0  0  0  0  0  0  0  0  0  0  0
    8.9075  -13.8473   16.5757 O   0  0  0  0  0  0  0  0  0  0  0  0
    7.2437  -14.2171   18.1848 C   0  0  0  0  0  0  0  0  0  0  0  0
    7.0562  -14.1764   19.6438 C   0  0  0  0  0  0  0  0  0  0  0  0
    8.2085  -14.6648   20.4729 C   0  0  2  0  0  0  0  0  0  0  0  0
    8.9027  -15.7096   19.6796 N   0  0  0  0  0  0  0  0  0  0  0  0
    7.8317  -15.2269   21.7853 C   0  0  0  0  0  0  0  0  0  0  0  0
    7.1323  -14.5311   22.5985 O   0  0  0  0  0  0  0  0  0  0  0  0
    8.1763  -16.5179   22.2639 N   0  0  0  0  0  0  0  0  0  0  0  0
    7.8723  -16.9502   23.6012 C   0  0  0  0  0  0  0  0  0  0  0  0
    8.7077  -16.3481   24.6464 C   0  0  0  0  0  0  0  0  0  0  0  0
    9.7876  -15.7889   24.2677 O   0  0  0  0  0  0  0  0  0  0  0  0
    8.4357  -16.3274   26.0177 N   0  0  0  0  0  0  0  0  0  0  0  0
    9.4121  -15.7348   26.9399 C   0  0  1  0  0  0  0  0  0  0  0  0
    8.6318  -14.8607   27.9310 C   0  0  0  0  0  0  0  0  0  0  0  0
    7.9673  -13.7537   27.1787 C   0  0  0  0  0  0  0  0  0  0  0  0
    6.6866  -13.8919   26.6939 C   0  0  0  0  0  0  0  0  0  0  0  0
    6.0483  -12.8809   25.9935 C   0  0  0  0  0  0  0  0  0  0  0  0
    6.7164  -11.6995   25.7751 C   0  0  0  0  0  0  0  0  0  0  0  0
    7.9973  -11.5712   26.2642 C   0  0  0  0  0  0  0  0  0  0  0  0
    8.6169  -12.5795   26.9555 C   0  0  0  0  0  0  0  0  0  0  0  0
   10.1055  -16.7913   27.6823 C   0  0  0  0  0  0  0  0  0  0  0  0
    9.7328  -17.9752   27.5660 O   0  0  0  0  0  0  0  0  0  0  0  0
   11.1691  -16.4603   28.5062 O   0  0  0  0  0  0  0  0  0  0  0  0
  2  4  1  0
  2  1  1  0
  3  2  2  0
  5  4  1  0
  6  8  1  0
  6  5  1  0
  6  7  1  6
  8 10  1  0
  9  8  2  0
 10 11  1  0
 11 12  1  0
 12 13  2  0
 12 14  1  0
 14 15  1  0
 15 23  1  0
 15 16  1  1
 17 16  1  0
 18 17  2  0
 19 18  1  0
 20 19  2  0
 20 21  1  0
 21 22  2  0
 22 17  1  0
 23 24  2  0
 23 25  1  0
M  END
$$$$
