QGF.pdb
     RDKit          3D

 25 25  0  0  1  0  0  0  0  0999 V2000
    7.1204  -13.3396   18.0714 N   0  0  0  0  0  0  0  0  0  0  0  0
    8.3803  -13.5624   17.4723 C   0  0  0  0  0  0  0  0  0  0  0  0
    8.4089  -13.6207   16.2175 O   0  0  0  0  0  0  0  0  0  0  0  0
    9.6351  -13.7273   18.2122 C   0  0  0  0  0  0  0  0  0  0  0  0
    9.5314  -14.2454   19.5857 C   0  0  0  0  0  0  0  0  0  0  0  0
    9.4746  -15.7389   19.7270 C   0  0  2  0  0  0  0  0  0  0  0  0
    8.2466  -16.1952   19.0294 N   0  0  0  0  0  0  0  0  0  0  0  0
    9.4474  -16.2277   21.1201 C   0  0  0  0  0  0  0  0  0  0  0  0
   10.4936  -16.1320   21.8486 O   0  0  0  0  0  0  0  0  0  0  0  0
    8.3321  -16.8183   21.7696 N   0  0  0  0  0  0  0  0  0  0  0  0
    8.4189  -17.3812   23.0900 C   0  0  0  0  0  0  0  0  0  0  0  0
    9.3452  -16.6892   23.9933 C   0  0  0  0  0  0  0  0  0  0  0  0
   10.5873  -16.7899   23.7301 O   0  0  0  0  0  0  0  0  0  0  0  0
    8.9993  -15.9297   25.1151 N   0  0  0  0  0  0  0  0  0  0  0  0
   10.0429  -15.5272   26.0659 C   0  0  1  0  0  0  0  0  0  0  0  0
   10.0916  -13.9933   26.0679 C   0  0  0  0  0  0  0  0  0  0  0  0
    8.7106  -13.4670   26.2892 C   0  0  0  0  0  0  0  0  0  0  0  0
    7.8166  -13.3563   25.2486 C   0  0  0  0  0  0  0  0  0  0  0  0
    6.5308  -12.8716   25.4273 C   0  0  0  0  0  0  0  0  0  0  0  0
    6.1341  -12.4881   26.6864 C   0  0  0  0  0  0  0  0  0  0  0  0
    7.0361  -12.6028   27.7207 C   0  0  0  0  0  0  0  0  0  0  0  0
    8.3051  -13.0840   27.5299 C   0  0  0  0  0  0  0  0  0  0  0  0
    9.7005  -15.9931   27.4126 C   0  0  0  0  0  0  0  0  0  0  0  0
    8.6017  -16.5465   27.6146 O   0  0  0  0  0  0  0  0  0  0  0  0
   10.6043  -15.8124   28.4471 O   0  0  0  0  0  0  0  0  0  0  0  0
  2  4  1  0
  2  1  1  0
  3  2  2  0
  5  4  1  0
  6  8  1  0
  6  5  1  0
  6  7  1  6
  8 10  1  0
  9  8  2  0
 10 11  1  0
 11 12  1  0
 12 13  2  0
 12 14  1  0
 14 15  1  0
 15 23  1  0
 15 16  1  1
 17 16  1  0
 18 17  2  0
 19 18  1  0
 20 19  2  0
 20 21  1  0
 21 22  2  0
 22 17  1  0
 23 24  2  0
 23 25  1  0
M  END
$$$$
