QGF.pdb
     RDKit          3D

 25 25  0  0  1  0  0  0  0  0999 V2000
    8.8454  -16.8136   15.8066 N   0  0  0  0  0  0  0  0  0  0  0  0
    8.2310  -18.0448   16.1272 C   0  0  0  0  0  0  0  0  0  0  0  0
    8.2380  -18.9306   15.2360 O   0  0  0  0  0  0  0  0  0  0  0  0
    7.5962  -18.3472   17.4135 C   0  0  0  0  0  0  0  0  0  0  0  0
    7.6042  -17.2774   18.4240 C   0  0  0  0  0  0  0  0  0  0  0  0
    8.1451  -17.6471   19.7748 C   0  0  2  0  0  0  0  0  0  0  0  0
    6.9849  -18.0299   20.6177 N   0  0  0  0  0  0  0  0  0  0  0  0
    8.9007  -16.5750   20.4530 C   0  0  0  0  0  0  0  0  0  0  0  0
    9.5165  -15.6944   19.7604 O   0  0  0  0  0  0  0  0  0  0  0  0
    9.0215  -16.4069   21.8572 N   0  0  0  0  0  0  0  0  0  0  0  0
    9.9581  -15.4878   22.4452 C   0  0  0  0  0  0  0  0  0  0  0  0
    9.9761  -15.4834   23.9123 C   0  0  0  0  0  0  0  0  0  0  0  0
   10.8745  -14.7765   24.4739 O   0  0  0  0  0  0  0  0  0  0  0  0
    9.1042  -16.1788   24.7556 N   0  0  0  0  0  0  0  0  0  0  0  0
    9.3607  -16.2022   26.2008 C   0  0  1  0  0  0  0  0  0  0  0  0
    8.0237  -15.9372   26.9060 C   0  0  0  0  0  0  0  0  0  0  0  0
    7.6481  -14.5048   26.7058 C   0  0  0  0  0  0  0  0  0  0  0  0
    8.1188  -13.5219   27.5465 C   0  0  0  0  0  0  0  0  0  0  0  0
    7.7857  -12.1870   27.3826 C   0  0  0  0  0  0  0  0  0  0  0  0
    6.9569  -11.8314   26.3450 C   0  0  0  0  0  0  0  0  0  0  0  0
    6.4913  -12.8222   25.5095 C   0  0  0  0  0  0  0  0  0  0  0  0
    6.8288  -14.1391   25.6832 C   0  0  0  0  0  0  0  0  0  0  0  0
    9.8549  -17.5228   26.6007 C   0  0  0  0  0  0  0  0  0  0  0  0
    9.9658  -18.4256   25.7481 O   0  0  0  0  0  0  0  0  0  0  0  0
   10.1935  -17.7520   27.9245 O   0  0  0  0  0  0  0  0  0  0  0  0
  2  4  1  0
  2  1  1  0
  3  2  2  0
  5  4  1  0
  6  8  1  0
  6  5  1  0
  6  7  1  1
  8 10  1  0
  9  8  2  0
 10 11  1  0
 11 12  1  0
 12 13  2  0
 12 14  1  0
 14 15  1  0
 15 23  1  0
 15 16  1  1
 17 16  1  0
 18 17  2  0
 19 18  1  0
 20 19  2  0
 20 21  1  0
 21 22  2  0
 22 17  1  0
 23 24  2  0
 23 25  1  0
M  END
$$$$
