QGF.pdb
     RDKit          3D

 25 25  0  0  1  0  0  0  0  0999 V2000
    9.4004  -12.8378   18.3860 N   0  0  0  0  0  0  0  0  0  0  0  0
    8.3949  -13.3501   17.5360 C   0  0  0  0  0  0  0  0  0  0  0  0
    8.6502  -13.3731   16.3058 O   0  0  0  0  0  0  0  0  0  0  0  0
    7.0938  -13.8476   17.9930 C   0  0  0  0  0  0  0  0  0  0  0  0
    6.9448  -14.0829   19.4380 C   0  0  0  0  0  0  0  0  0  0  0  0
    7.6852  -15.2637   19.9960 C   0  0  2  0  0  0  0  0  0  0  0  0
    7.3875  -16.4198   19.1141 N   0  0  0  0  0  0  0  0  0  0  0  0
    7.3321  -15.6144   21.3862 C   0  0  0  0  0  0  0  0  0  0  0  0
    7.5815  -14.7922   22.3329 O   0  0  0  0  0  0  0  0  0  0  0  0
    6.7144  -16.8217   21.8051 N   0  0  0  0  0  0  0  0  0  0  0  0
    6.5383  -17.1557   23.1926 C   0  0  0  0  0  0  0  0  0  0  0  0
    7.7334  -16.9756   24.0245 C   0  0  0  0  0  0  0  0  0  0  0  0
    8.8372  -17.3889   23.5417 O   0  0  0  0  0  0  0  0  0  0  0  0
    7.7807  -16.3948   25.2955 N   0  0  0  0  0  0  0  0  0  0  0  0
    9.0702  -16.2690   25.9857 C   0  0  1  0  0  0  0  0  0  0  0  0
    9.4859  -14.7936   25.9107 C   0  0  0  0  0  0  0  0  0  0  0  0
    8.3629  -13.9494   26.4197 C   0  0  0  0  0  0  0  0  0  0  0  0
    7.2603  -13.6866   25.6389 C   0  0  0  0  0  0  0  0  0  0  0  0
    6.2060  -12.9072   26.0871 C   0  0  0  0  0  0  0  0  0  0  0  0
    6.2626  -12.3780   27.3547 C   0  0  0  0  0  0  0  0  0  0  0  0
    7.3700  -12.6468   28.1278 C   0  0  0  0  0  0  0  0  0  0  0  0
    8.4061  -13.4195   27.6719 C   0  0  0  0  0  0  0  0  0  0  0  0
    8.9244  -16.6503   27.3933 C   0  0  0  0  0  0  0  0  0  0  0  0
    7.8117  -17.0119   27.8238 O   0  0  0  0  0  0  0  0  0  0  0  0
   10.0277  -16.6041   28.2301 O   0  0  0  0  0  0  0  0  0  0  0  0
  2  4  1  0
  2  1  1  0
  3  2  2  0
  5  4  1  0
  6  8  1  0
  6  5  1  0
  6  7  1  6
  8 10  1  0
  9  8  2  0
 10 11  1  0
 11 12  1  0
 12 13  2  0
 12 14  1  0
 14 15  1  0
 15 23  1  0
 15 16  1  1
 17 16  1  0
 18 17  2  0
 19 18  1  0
 20 19  2  0
 20 21  1  0
 21 22  2  0
 22 17  1  0
 23 24  2  0
 23 25  1  0
M  END
$$$$
