QGF.pdb
     RDKit          3D

 25 25  0  0  1  0  0  0  0  0999 V2000
    7.6413  -12.7540   16.1189 N   0  0  0  0  0  0  0  0  0  0  0  0
    7.5164  -14.1357   15.8517 C   0  0  0  0  0  0  0  0  0  0  0  0
    6.6909  -14.4691   14.9650 O   0  0  0  0  0  0  0  0  0  0  0  0
    8.2774  -15.1865   16.5342 C   0  0  0  0  0  0  0  0  0  0  0  0
    9.2470  -14.7485   17.5509 C   0  0  0  0  0  0  0  0  0  0  0  0
    9.6027  -15.7575   18.6041 C   0  0  2  0  0  0  0  0  0  0  0  0
    9.2420  -17.0929   18.0661 N   0  0  0  0  0  0  0  0  0  0  0  0
    8.9258  -15.5618   19.9018 C   0  0  0  0  0  0  0  0  0  0  0  0
    9.1525  -14.5052   20.5848 O   0  0  0  0  0  0  0  0  0  0  0  0
    8.0052  -16.4611   20.5004 N   0  0  0  0  0  0  0  0  0  0  0  0
    7.3472  -16.1740   21.7463 C   0  0  0  0  0  0  0  0  0  0  0  0
    8.2133  -16.2423   22.9286 C   0  0  0  0  0  0  0  0  0  0  0  0
    9.3348  -16.8289   22.7862 O   0  0  0  0  0  0  0  0  0  0  0  0
    7.9293  -15.7270   24.1970 N   0  0  0  0  0  0  0  0  0  0  0  0
    8.8608  -15.9759   25.3040 C   0  0  1  0  0  0  0  0  0  0  0  0
    9.3677  -14.6111   25.7895 C   0  0  0  0  0  0  0  0  0  0  0  0
    8.1963  -13.7061   25.9939 C   0  0  0  0  0  0  0  0  0  0  0  0
    7.6002  -13.5823   27.2283 C   0  0  0  0  0  0  0  0  0  0  0  0
    6.5133  -12.7504   27.4443 C   0  0  0  0  0  0  0  0  0  0  0  0
    6.0129  -12.0237   26.3900 C   0  0  0  0  0  0  0  0  0  0  0  0
    6.6164  -12.1546   25.1591 C   0  0  0  0  0  0  0  0  0  0  0  0
    7.6911  -12.9813   24.9595 C   0  0  0  0  0  0  0  0  0  0  0  0
    8.1622  -16.6425   26.4065 C   0  0  0  0  0  0  0  0  0  0  0  0
    8.7849  -16.9344   27.4464 O   0  0  0  0  0  0  0  0  0  0  0  0
    6.8152  -16.9408   26.2792 O   0  0  0  0  0  0  0  0  0  0  0  0
  2  4  1  0
  2  1  1  0
  3  2  2  0
  5  4  1  0
  6  8  1  0
  6  5  1  0
  6  7  1  6
  8 10  1  0
  9  8  2  0
 10 11  1  0
 11 12  1  0
 12 13  2  0
 12 14  1  0
 14 15  1  0
 15 23  1  0
 15 16  1  1
 17 16  1  0
 18 17  2  0
 19 18  1  0
 20 19  2  0
 20 21  1  0
 21 22  2  0
 22 17  1  0
 23 24  2  0
 23 25  1  0
M  END
$$$$
