QGF.pdb
     RDKit          3D

 25 25  0  0  1  0  0  0  0  0999 V2000
    9.6872  -12.9704   16.8520 N   0  0  0  0  0  0  0  0  0  0  0  0
    8.4410  -13.4245   17.3386 C   0  0  0  0  0  0  0  0  0  0  0  0
    7.8074  -14.2291   16.6106 O   0  0  0  0  0  0  0  0  0  0  0  0
    7.8514  -13.0211   18.6188 C   0  0  0  0  0  0  0  0  0  0  0  0
    8.3067  -13.7460   19.8158 C   0  0  0  0  0  0  0  0  0  0  0  0
    7.7820  -15.1427   19.9831 C   0  0  2  0  0  0  0  0  0  0  0  0
    6.3025  -15.0648   19.8925 N   0  0  0  0  0  0  0  0  0  0  0  0
    8.1534  -15.7946   21.2548 C   0  0  0  0  0  0  0  0  0  0  0  0
    9.3841  -16.0156   21.5210 O   0  0  0  0  0  0  0  0  0  0  0  0
    7.2494  -16.2209   22.2626 N   0  0  0  0  0  0  0  0  0  0  0  0
    7.6267  -17.1506   23.2927 C   0  0  0  0  0  0  0  0  0  0  0  0
    8.3768  -16.5612   24.4076 C   0  0  0  0  0  0  0  0  0  0  0  0
    9.3550  -15.8037   24.1053 O   0  0  0  0  0  0  0  0  0  0  0  0
    8.1239  -16.7490   25.7699 N   0  0  0  0  0  0  0  0  0  0  0  0
    9.0201  -16.1428   26.7621 C   0  0  1  0  0  0  0  0  0  0  0  0
    8.1460  -15.3464   27.7403 C   0  0  0  0  0  0  0  0  0  0  0  0
    7.6631  -14.1080   27.0576 C   0  0  0  0  0  0  0  0  0  0  0  0
    6.3731  -14.0120   26.5874 C   0  0  0  0  0  0  0  0  0  0  0  0
    5.9009  -12.8753   25.9511 C   0  0  0  0  0  0  0  0  0  0  0  0
    6.7493  -11.8066   25.7834 C   0  0  0  0  0  0  0  0  0  0  0  0
    8.0380  -11.9127   26.2574 C   0  0  0  0  0  0  0  0  0  0  0  0
    8.4921  -13.0432   26.8851 C   0  0  0  0  0  0  0  0  0  0  0  0
    9.7288  -17.1901   27.5031 C   0  0  0  0  0  0  0  0  0  0  0  0
    9.4158  -18.3852   27.3361 O   0  0  0  0  0  0  0  0  0  0  0  0
   10.7402  -16.8380   28.3821 O   0  0  0  0  0  0  0  0  0  0  0  0
  2  4  1  0
  2  1  1  0
  3  2  2  0
  5  4  1  0
  6  8  1  0
  6  5  1  0
  6  7  1  1
  8 10  1  0
  9  8  2  0
 10 11  1  0
 11 12  1  0
 12 13  2  0
 12 14  1  0
 14 15  1  0
 15 23  1  0
 15 16  1  1
 17 16  1  0
 18 17  2  0
 19 18  1  0
 20 19  2  0
 20 21  1  0
 21 22  2  0
 22 17  1  0
 23 24  2  0
 23 25  1  0
M  END
$$$$
