QGF.pdb
     RDKit          3D

 25 25  0  0  1  0  0  0  0  0999 V2000
    8.0710  -12.6850   17.0759 N   0  0  0  0  0  0  0  0  0  0  0  0
    7.9458  -14.0915   17.0289 C   0  0  0  0  0  0  0  0  0  0  0  0
    7.5725  -14.5911   15.9380 O   0  0  0  0  0  0  0  0  0  0  0  0
    8.2196  -14.9886   18.1555 C   0  0  0  0  0  0  0  0  0  0  0  0
    8.0114  -14.4400   19.5051 C   0  0  0  0  0  0  0  0  0  0  0  0
    9.0354  -14.8151   20.5370 C   0  0  2  0  0  0  0  0  0  0  0  0
    9.7898  -15.9747   19.9993 N   0  0  0  0  0  0  0  0  0  0  0  0
    8.4803  -15.1717   21.8579 C   0  0  0  0  0  0  0  0  0  0  0  0
    7.8070  -14.3094   22.5192 O   0  0  0  0  0  0  0  0  0  0  0  0
    8.6179  -16.4286   22.5029 N   0  0  0  0  0  0  0  0  0  0  0  0
    8.1316  -16.6684   23.8347 C   0  0  0  0  0  0  0  0  0  0  0  0
    8.9352  -16.0601   24.9010 C   0  0  0  0  0  0  0  0  0  0  0  0
   10.0843  -15.6188   24.5739 O   0  0  0  0  0  0  0  0  0  0  0  0
    8.5643  -15.9168   26.2415 N   0  0  0  0  0  0  0  0  0  0  0  0
    9.4986  -15.2952   27.1880 C   0  0  1  0  0  0  0  0  0  0  0  0
    8.6689  -14.4314   28.1476 C   0  0  0  0  0  0  0  0  0  0  0  0
    7.8906  -13.4358   27.3501 C   0  0  0  0  0  0  0  0  0  0  0  0
    8.4768  -12.2786   26.8901 C   0  0  0  0  0  0  0  0  0  0  0  0
    7.7773  -11.3398   26.1489 C   0  0  0  0  0  0  0  0  0  0  0  0
    6.4528  -11.5714   25.8629 C   0  0  0  0  0  0  0  0  0  0  0  0
    5.8757  -12.7322   26.3278 C   0  0  0  0  0  0  0  0  0  0  0  0
    6.5793  -13.6526   27.0600 C   0  0  0  0  0  0  0  0  0  0  0  0
   10.1924  -16.3300   27.9599 C   0  0  0  0  0  0  0  0  0  0  0  0
   11.0602  -16.0024   28.7929 O   0  0  0  0  0  0  0  0  0  0  0  0
    9.8744  -17.6627   27.7540 O   0  0  0  0  0  0  0  0  0  0  0  0
  2  4  1  0
  2  1  1  0
  3  2  2  0
  5  4  1  0
  6  8  1  0
  6  5  1  0
  6  7  1  6
  8 10  1  0
  9  8  2  0
 10 11  1  0
 11 12  1  0
 12 13  2  0
 12 14  1  0
 14 15  1  0
 15 23  1  0
 15 16  1  1
 17 16  1  0
 18 17  2  0
 19 18  1  0
 20 19  2  0
 20 21  1  0
 21 22  2  0
 22 17  1  0
 23 24  2  0
 23 25  1  0
M  END
$$$$
