KIY.pdb
     RDKit          3D

 30 30  0  0  1  0  0  0  0  0999 V2000
   24.9738  -20.3882  -19.9201 N   0  0  0  0  0  0  0  0  0  0  0  0
   24.9047  -21.5479  -19.0890 C   0  0  1  0  0  0  0  0  0  0  0  0
   25.2620  -22.7665  -19.8804 C   0  0  0  0  0  0  0  0  0  0  0  0
   24.4466  -23.0228  -21.0899 C   0  0  0  0  0  0  0  0  0  0  0  0
   22.9681  -23.0128  -20.9193 C   0  0  0  0  0  0  0  0  0  0  0  0
   22.2002  -23.3429  -22.1689 C   0  0  0  0  0  0  0  0  0  0  0  0
   20.7574  -23.2636  -21.9071 N   0  0  0  0  0  0  0  0  0  0  0  0
   25.7636  -21.3741  -17.8916 C   0  0  0  0  0  0  0  0  0  0  0  0
   26.4351  -22.3557  -17.4999 O   0  0  0  0  0  0  0  0  0  0  0  0
   29.0273  -17.3337  -17.0341 C   0  0  0  0  0  0  0  0  0  0  0  0
   28.3931  -18.7348  -17.1364 C   0  0  0  0  0  0  0  0  0  0  0  0
   27.4491  -18.8471  -15.9781 C   0  0  2  0  0  0  0  0  0  0  0  0
   28.1421  -18.5099  -14.6765 C   0  0  0  0  0  0  0  0  0  0  0  0
   26.6437  -20.0979  -15.9065 C   0  0  2  0  0  0  0  0  0  0  0  0
   25.8787  -20.1659  -17.1539 N   0  0  0  0  0  0  0  0  0  0  0  0
   25.7925  -20.2851  -14.7392 C   0  0  0  0  0  0  0  0  0  0  0  0
   24.9768  -19.3384  -14.4228 O   0  0  0  0  0  0  0  0  0  0  0  0
   22.5495  -20.9982   -6.8161 O   0  0  0  0  0  0  0  0  0  0  0  0
   23.2771  -20.9124   -8.0124 C   0  0  0  0  0  0  0  0  0  0  0  0
   22.8102  -20.2115   -9.0962 C   0  0  0  0  0  0  0  0  0  0  0  0
   23.5544  -20.1515  -10.2512 C   0  0  0  0  0  0  0  0  0  0  0  0
   24.7868  -20.8052  -10.3198 C   0  0  0  0  0  0  0  0  0  0  0  0
   25.5596  -20.7500  -11.5632 C   0  0  0  0  0  0  0  0  0  0  0  0
   24.8978  -21.4519  -12.7005 C   0  0  2  0  0  0  0  0  0  0  0  0
   25.7633  -21.4266  -13.8981 N   0  0  0  0  0  0  0  0  0  0  0  0
   23.6164  -20.8038  -13.0323 C   0  0  0  0  0  0  0  0  0  0  0  0
   22.3800  -21.3590  -12.7063 O   0  0  0  0  0  0  0  0  0  0  0  0
   25.2230  -21.4962   -9.2194 C   0  0  0  0  0  0  0  0  0  0  0  0
   24.4766  -21.5608   -8.0496 C   0  0  0  0  0  0  0  0  0  0  0  0
   23.5754  -19.7025  -13.6342 O   0  0  0  0  0  0  0  0  0  0  0  0
  2  3  1  0
  2  1  1  6
  3  4  1  0
  4  5  1  0
  5  6  1  0
  7  6  1  0
  8  9  2  0
  8  2  1  0
 10 11  1  0
 11 12  1  0
 12 14  1  0
 12 13  1  1
 14 15  1  6
 15  8  1  0
 16 14  1  0
 16 17  2  0
 18 19  1  0
 19 29  2  0
 20 21  2  0
 20 19  1  0
 21 22  1  0
 22 23  1  0
 22 28  2  0
 24 25  1  0
 24 23  1  1
 25 16  1  0
 26 24  1  0
 27 26  1  0
 29 28  1  0
 30 26  2  0
M  END
$$$$
