KIY.pdb
     RDKit          3D

 30 30  0  0  1  0  0  0  0  0999 V2000
   18.1900  -13.0794  -16.6935 N   0  0  0  0  0  0  0  0  0  0  0  0
   18.9393  -11.9509  -17.1467 C   0  0  1  0  0  0  0  0  0  0  0  0
   18.0107  -10.8499  -17.5527 C   0  0  0  0  0  0  0  0  0  0  0  0
   17.0061  -11.1899  -18.5864 C   0  0  0  0  0  0  0  0  0  0  0  0
   15.8319  -11.9913  -18.1458 C   0  0  0  0  0  0  0  0  0  0  0  0
   14.8264  -12.2609  -19.2305 C   0  0  0  0  0  0  0  0  0  0  0  0
   13.8075  -13.2019  -18.7478 N   0  0  0  0  0  0  0  0  0  0  0  0
   19.9074  -11.5250  -16.1060 C   0  0  0  0  0  0  0  0  0  0  0  0
   19.5215  -11.5031  -14.9151 O   0  0  0  0  0  0  0  0  0  0  0  0
   24.7852  -13.4168  -16.0686 C   0  0  0  0  0  0  0  0  0  0  0  0
   23.3683  -12.9486  -15.6824 C   0  0  0  0  0  0  0  0  0  0  0  0
   23.4458  -11.4575  -15.5549 C   0  0  2  0  0  0  0  0  0  0  0  0
   24.5564  -11.0489  -14.6127 C   0  0  0  0  0  0  0  0  0  0  0  0
   22.1608  -10.7538  -15.2867 C   0  0  2  0  0  0  0  0  0  0  0  0
   21.2489  -11.1381  -16.3668 N   0  0  0  0  0  0  0  0  0  0  0  0
   22.2087   -9.3089  -15.1076 C   0  0  0  0  0  0  0  0  0  0  0  0
   22.6941   -8.8481  -14.0058 O   0  0  0  0  0  0  0  0  0  0  0  0
   21.0896   -0.5605  -15.7249 O   0  0  0  0  0  0  0  0  0  0  0  0
   21.1751   -1.9334  -16.0003 C   0  0  0  0  0  0  0  0  0  0  0  0
   22.3620   -2.5314  -16.3430 C   0  0  0  0  0  0  0  0  0  0  0  0
   22.4036   -3.8809  -16.6054 C   0  0  0  0  0  0  0  0  0  0  0  0
   21.2357   -4.6423  -16.5225 C   0  0  0  0  0  0  0  0  0  0  0  0
   21.2905   -6.0748  -16.8245 C   0  0  0  0  0  0  0  0  0  0  0  0
   21.7397   -6.9043  -15.6692 C   0  0  2  0  0  0  0  0  0  0  0  0
   21.7718   -8.3343  -16.0406 N   0  0  0  0  0  0  0  0  0  0  0  0
   20.8254   -6.7355  -14.5257 C   0  0  0  0  0  0  0  0  0  0  0  0
   21.1236   -5.9257  -13.4308 O   0  0  0  0  0  0  0  0  0  0  0  0
   20.0677   -4.0133  -16.1779 C   0  0  0  0  0  0  0  0  0  0  0  0
   20.0185   -2.6509  -15.9114 C   0  0  0  0  0  0  0  0  0  0  0  0
   19.7161   -7.3220  -14.4812 O   0  0  0  0  0  0  0  0  0  0  0  0
  2  3  1  0
  2  1  1  1
  3  4  1  0
  4  5  1  0
  5  6  1  0
  7  6  1  0
  8  9  2  0
  8  2  1  0
 10 11  1  0
 11 12  1  0
 12 14  1  0
 12 13  1  1
 14 15  1  6
 15  8  1  0
 16 14  1  0
 16 17  2  0
 18 19  1  0
 19 29  2  0
 20 21  2  0
 20 19  1  0
 21 22  1  0
 22 23  1  0
 22 28  2  0
 24 25  1  0
 24 23  1  6
 25 16  1  0
 26 24  1  0
 27 26  1  0
 29 28  1  0
 30 26  2  0
M  END
$$$$
