KIY.pdb
     RDKit          3D

 30 30  0  0  1  0  0  0  0  0999 V2000
   22.9556  -18.6077  -15.3645 N   0  0  0  0  0  0  0  0  0  0  0  0
   22.9398  -20.0203  -15.5757 C   0  0  1  0  0  0  0  0  0  0  0  0
   22.5796  -20.3210  -16.9966 C   0  0  0  0  0  0  0  0  0  0  0  0
   21.3664  -19.6512  -17.5193 C   0  0  0  0  0  0  0  0  0  0  0  0
   20.0639  -20.3258  -17.2676 C   0  0  0  0  0  0  0  0  0  0  0  0
   18.9724  -19.9377  -18.2259 C   0  0  0  0  0  0  0  0  0  0  0  0
   17.7295  -20.6405  -17.8822 N   0  0  0  0  0  0  0  0  0  0  0  0
   24.2408  -20.6140  -15.1799 C   0  0  0  0  0  0  0  0  0  0  0  0
   24.3702  -21.8568  -15.2584 O   0  0  0  0  0  0  0  0  0  0  0  0
   28.8402  -19.3379  -17.0833 C   0  0  0  0  0  0  0  0  0  0  0  0
   27.6210  -20.0889  -16.5129 C   0  0  0  0  0  0  0  0  0  0  0  0
   27.6989  -19.9339  -15.0245 C   0  0  2  0  0  0  0  0  0  0  0  0
   29.0621  -20.3355  -14.5062 C   0  0  0  0  0  0  0  0  0  0  0  0
   26.5771  -20.5252  -14.2432 C   0  0  2  0  0  0  0  0  0  0  0  0
   25.3564  -19.8675  -14.7155 N   0  0  0  0  0  0  0  0  0  0  0  0
   26.6796  -20.4966  -12.7904 C   0  0  0  0  0  0  0  0  0  0  0  0
   27.2277  -19.4682  -12.2391 O   0  0  0  0  0  0  0  0  0  0  0  0
   27.1845  -18.8918   -4.6175 O   0  0  0  0  0  0  0  0  0  0  0  0
   27.2788  -19.3154   -5.9515 C   0  0  0  0  0  0  0  0  0  0  0  0
   28.3442  -18.9745   -6.7468 C   0  0  0  0  0  0  0  0  0  0  0  0
   28.3992  -19.4104   -8.0501 C   0  0  0  0  0  0  0  0  0  0  0  0
   27.3686  -20.2010   -8.5635 C   0  0  0  0  0  0  0  0  0  0  0  0
   27.4299  -20.6413   -9.9594 C   0  0  0  0  0  0  0  0  0  0  0  0
   26.1520  -21.2362  -10.4468 C   0  0  2  0  0  0  0  0  0  0  0  0
   26.2255  -21.5016  -11.8987 N   0  0  0  0  0  0  0  0  0  0  0  0
   25.0257  -20.3204  -10.1923 C   0  0  0  0  0  0  0  0  0  0  0  0
   24.1223  -20.5033   -9.1464 O   0  0  0  0  0  0  0  0  0  0  0  0
   26.3195  -20.5226   -7.7422 C   0  0  0  0  0  0  0  0  0  0  0  0
   26.2577  -20.0858   -6.4250 C   0  0  0  0  0  0  0  0  0  0  0  0
   24.8217  -19.3151  -10.9165 O   0  0  0  0  0  0  0  0  0  0  0  0
  2  3  1  0
  2  1  1  6
  3  4  1  0
  4  5  1  0
  5  6  1  0
  7  6  1  0
  8  9  2  0
  8  2  1  0
 10 11  1  0
 11 12  1  0
 12 14  1  0
 12 13  1  1
 14 15  1  1
 15  8  1  0
 16 14  1  0
 16 17  2  0
 18 19  1  0
 19 29  2  0
 20 21  2  0
 20 19  1  0
 21 22  1  0
 22 23  1  0
 22 28  2  0
 24 25  1  0
 24 23  1  6
 25 16  1  0
 26 24  1  0
 27 26  1  0
 29 28  1  0
 30 26  2  0
M  END
$$$$
