KIY.pdb
     RDKit          3D

 30 30  0  0  1  0  0  0  0  0999 V2000
   19.0025  -12.5998  -20.1852 N   0  0  0  0  0  0  0  0  0  0  0  0
   20.2191  -11.8762  -19.9941 C   0  0  1  0  0  0  0  0  0  0  0  0
   20.1408  -10.5520  -20.6866 C   0  0  0  0  0  0  0  0  0  0  0  0
   20.3822  -10.5631  -22.1478 C   0  0  0  0  0  0  0  0  0  0  0  0
   21.6849  -11.1142  -22.6105 C   0  0  0  0  0  0  0  0  0  0  0  0
   21.9321  -10.9589  -24.0853 C   0  0  0  0  0  0  0  0  0  0  0  0
   22.0511   -9.5356  -24.4271 N   0  0  0  0  0  0  0  0  0  0  0  0
   20.5174  -11.7453  -18.5465 C   0  0  0  0  0  0  0  0  0  0  0  0
   19.5557  -11.6147  -17.7555 O   0  0  0  0  0  0  0  0  0  0  0  0
   24.5024  -13.6064  -14.5021 C   0  0  0  0  0  0  0  0  0  0  0  0
   23.4830  -12.4663  -14.6941 C   0  0  0  0  0  0  0  0  0  0  0  0
   23.1080  -12.4866  -16.1447 C   0  0  2  0  0  0  0  0  0  0  0  0
   24.3373  -12.4470  -17.0253 C   0  0  0  0  0  0  0  0  0  0  0  0
   22.0550  -11.5204  -16.5643 C   0  0  2  0  0  0  0  0  0  0  0  0
   21.8247  -11.7580  -17.9913 N   0  0  0  0  0  0  0  0  0  0  0  0
   22.2834  -10.1099  -16.2807 C   0  0  0  0  0  0  0  0  0  0  0  0
   23.0435   -9.4437  -17.0807 O   0  0  0  0  0  0  0  0  0  0  0  0
   21.7886   -1.6174  -16.0685 O   0  0  0  0  0  0  0  0  0  0  0  0
   21.7243   -3.0177  -16.1227 C   0  0  0  0  0  0  0  0  0  0  0  0
   22.8498   -3.7901  -16.2657 C   0  0  0  0  0  0  0  0  0  0  0  0
   22.7439   -5.1605  -16.3144 C   0  0  0  0  0  0  0  0  0  0  0  0
   21.4888   -5.7655  -16.2180 C   0  0  0  0  0  0  0  0  0  0  0  0
   21.3886   -7.2252  -16.2919 C   0  0  0  0  0  0  0  0  0  0  0  0
   21.9554   -7.9164  -15.0981 C   0  0  2  0  0  0  0  0  0  0  0  0
   21.7417   -9.3754  -15.1951 N   0  0  0  0  0  0  0  0  0  0  0  0
   21.3131   -7.4277  -13.8649 C   0  0  0  0  0  0  0  0  0  0  0  0
   21.7811   -6.3241  -13.1533 O   0  0  0  0  0  0  0  0  0  0  0  0
   20.3856   -4.9645  -16.0763 C   0  0  0  0  0  0  0  0  0  0  0  0
   20.4853   -3.5798  -16.0262 C   0  0  0  0  0  0  0  0  0  0  0  0
   20.2972   -7.9905  -13.3876 O   0  0  0  0  0  0  0  0  0  0  0  0
  2  3  1  0
  2  1  1  1
  3  4  1  0
  4  5  1  0
  5  6  1  0
  7  6  1  0
  8  9  2  0
  8  2  1  0
 10 11  1  0
 11 12  1  0
 12 14  1  0
 12 13  1  6
 14 15  1  6
 15  8  1  0
 16 14  1  0
 16 17  2  0
 18 19  1  0
 19 29  2  0
 20 21  2  0
 20 19  1  0
 21 22  1  0
 22 23  1  0
 22 28  2  0
 24 25  1  0
 24 23  1  6
 25 16  1  0
 26 24  1  0
 27 26  1  0
 29 28  1  0
 30 26  2  0
M  END
$$$$
