KIY.pdb
     RDKit          3D

 30 30  0  0  1  0  0  0  0  0999 V2000
   28.3360  -22.0971  -16.3828 N   0  0  0  0  0  0  0  0  0  0  0  0
   27.7545  -20.9465  -15.7677 C   0  0  1  0  0  0  0  0  0  0  0  0
   27.0133  -20.1408  -16.7877 C   0  0  0  0  0  0  0  0  0  0  0  0
   27.8433  -19.4145  -17.7762 C   0  0  0  0  0  0  0  0  0  0  0  0
   28.8725  -18.4845  -17.2370 C   0  0  0  0  0  0  0  0  0  0  0  0
   29.4436  -17.5379  -18.2558 C   0  0  0  0  0  0  0  0  0  0  0  0
   28.7195  -17.6715  -19.5265 N   0  0  0  0  0  0  0  0  0  0  0  0
   26.8954  -21.3519  -14.6278 C   0  0  0  0  0  0  0  0  0  0  0  0
   26.1401  -22.3388  -14.7802 O   0  0  0  0  0  0  0  0  0  0  0  0
   28.5612  -20.9008   -9.5455 C   0  0  0  0  0  0  0  0  0  0  0  0
   27.9578  -21.5057  -10.8284 C   0  0  0  0  0  0  0  0  0  0  0  0
   26.6334  -20.8314  -11.0203 C   0  0  2  0  0  0  0  0  0  0  0  0
   25.7426  -21.0280   -9.8137 C   0  0  0  0  0  0  0  0  0  0  0  0
   25.9403  -21.1010  -12.3108 C   0  0  2  0  0  0  0  0  0  0  0  0
   26.8692  -20.6956  -13.3684 N   0  0  0  0  0  0  0  0  0  0  0  0
   24.6182  -20.5190  -12.4997 C   0  0  0  0  0  0  0  0  0  0  0  0
   24.5353  -19.2474  -12.6942 O   0  0  0  0  0  0  0  0  0  0  0  0
   17.0245  -18.3895  -15.9861 O   0  0  0  0  0  0  0  0  0  0  0  0
   18.2435  -18.9598  -15.5903 C   0  0  0  0  0  0  0  0  0  0  0  0
   18.4380  -20.3184  -15.5774 C   0  0  0  0  0  0  0  0  0  0  0  0
   19.6487  -20.8379  -15.1826 C   0  0  0  0  0  0  0  0  0  0  0  0
   20.6807  -19.9805  -14.7946 C   0  0  0  0  0  0  0  0  0  0  0  0
   21.9583  -20.5482  -14.3569 C   0  0  0  0  0  0  0  0  0  0  0  0
   22.1330  -20.5349  -12.8758 C   0  0  2  0  0  0  0  0  0  0  0  0
   23.3858  -21.2208  -12.4965 N   0  0  0  0  0  0  0  0  0  0  0  0
   21.0050  -21.2168  -12.2165 C   0  0  0  0  0  0  0  0  0  0  0  0
   20.9879  -22.5892  -11.9721 O   0  0  0  0  0  0  0  0  0  0  0  0
   20.4526  -18.6293  -14.8190 C   0  0  0  0  0  0  0  0  0  0  0  0
   19.2324  -18.0977  -15.2168 C   0  0  0  0  0  0  0  0  0  0  0  0
   19.9885  -20.5850  -11.8369 O   0  0  0  0  0  0  0  0  0  0  0  0
  2  3  1  0
  2  1  1  6
  3  4  1  0
  4  5  1  0
  5  6  1  0
  7  6  1  0
  8  9  2  0
  8  2  1  0
 10 11  1  0
 11 12  1  0
 12 14  1  0
 12 13  1  1
 14 15  1  6
 15  8  1  0
 16 14  1  0
 16 17  2  0
 18 19  1  0
 19 29  2  0
 20 21  2  0
 20 19  1  0
 21 22  1  0
 22 23  1  0
 22 28  2  0
 24 25  1  0
 24 23  1  6
 25 16  1  0
 26 24  1  0
 27 26  1  0
 29 28  1  0
 30 26  2  0
M  END
$$$$
