KIY.pdb
     RDKit          3D

 30 30  0  0  1  0  0  0  0  0999 V2000
   19.1038   -1.9109  -17.5693 N   0  0  0  0  0  0  0  0  0  0  0  0
   18.9689   -1.1832  -16.3477 C   0  0  1  0  0  0  0  0  0  0  0  0
   18.5466   -2.1049  -15.2471 C   0  0  0  0  0  0  0  0  0  0  0  0
   17.1811   -2.6685  -15.3542 C   0  0  0  0  0  0  0  0  0  0  0  0
   16.1703   -2.1728  -14.3808 C   0  0  0  0  0  0  0  0  0  0  0  0
   14.8007   -2.7675  -14.5564 C   0  0  0  0  0  0  0  0  0  0  0  0
   14.3464   -2.5815  -15.9404 N   0  0  0  0  0  0  0  0  0  0  0  0
   20.2285   -0.4634  -16.0363 C   0  0  0  0  0  0  0  0  0  0  0  0
   21.3119   -1.0622  -16.2243 O   0  0  0  0  0  0  0  0  0  0  0  0
   21.8549    3.7596  -18.3056 C   0  0  0  0  0  0  0  0  0  0  0  0
   21.8543    2.3938  -17.5910 C   0  0  0  0  0  0  0  0  0  0  0  0
   21.6713    2.6898  -16.1335 C   0  0  2  0  0  0  0  0  0  0  0  0
   22.6712    3.7203  -15.6576 C   0  0  0  0  0  0  0  0  0  0  0  0
   21.5721    1.5090  -15.2312 C   0  0  2  0  0  0  0  0  0  0  0  0
   20.2926    0.8647  -15.5370 N   0  0  0  0  0  0  0  0  0  0  0  0
   21.7343    1.7380  -13.8017 C   0  0  0  0  0  0  0  0  0  0  0  0
   20.7862    2.3419  -13.1707 O   0  0  0  0  0  0  0  0  0  0  0  0
   24.4197    2.1463   -5.4228 O   0  0  0  0  0  0  0  0  0  0  0  0
   24.3088    1.8164   -6.7817 C   0  0  0  0  0  0  0  0  0  0  0  0
   25.3373    2.0283   -7.6655 C   0  0  0  0  0  0  0  0  0  0  0  0
   25.1886    1.6907   -8.9904 C   0  0  0  0  0  0  0  0  0  0  0  0
   23.9887    1.1315   -9.4356 C   0  0  0  0  0  0  0  0  0  0  0  0
   23.8365    0.7956  -10.8534 C   0  0  0  0  0  0  0  0  0  0  0  0
   22.9101    1.7109  -11.5803 C   0  0  2  0  0  0  0  0  0  0  0  0
   22.8487    1.3540  -13.0130 N   0  0  0  0  0  0  0  0  0  0  0  0
   23.3659    3.1075  -11.4624 C   0  0  0  0  0  0  0  0  0  0  0  0
   22.7986    4.0166  -10.5707 O   0  0  0  0  0  0  0  0  0  0  0  0
   22.9820    0.9337   -8.5267 C   0  0  0  0  0  0  0  0  0  0  0  0
   23.1256    1.2722   -7.1870 C   0  0  0  0  0  0  0  0  0  0  0  0
   24.3020    3.5535  -12.1705 O   0  0  0  0  0  0  0  0  0  0  0  0
  2  3  1  0
  2  1  1  6
  3  4  1  0
  4  5  1  0
  5  6  1  0
  7  6  1  0
  8  9  2  0
  8  2  1  0
 10 11  1  0
 11 12  1  0
 12 14  1  0
 12 13  1  1
 14 15  1  1
 15  8  1  0
 16 14  1  0
 16 17  2  0
 18 19  1  0
 19 29  2  0
 20 21  2  0
 20 19  1  0
 21 22  1  0
 22 23  1  0
 22 28  2  0
 24 25  1  0
 24 23  1  1
 25 16  1  0
 26 24  1  0
 27 26  1  0
 29 28  1  0
 30 26  2  0
M  END
$$$$
