KIY.pdb
     RDKit          3D

 30 30  0  0  1  0  0  0  0  0999 V2000
   26.3309  -19.6918  -15.2779 N   0  0  0  0  0  0  0  0  0  0  0  0
   25.9373  -21.0486  -15.4890 C   0  0  1  0  0  0  0  0  0  0  0  0
   27.1056  -21.8516  -15.9681 C   0  0  0  0  0  0  0  0  0  0  0  0
   27.7453  -21.3911  -17.2219 C   0  0  0  0  0  0  0  0  0  0  0  0
   28.9015  -22.1856  -17.7187 C   0  0  0  0  0  0  0  0  0  0  0  0
   29.6048  -21.5792  -18.9011 C   0  0  0  0  0  0  0  0  0  0  0  0
   30.1659  -20.2723  -18.5353 N   0  0  0  0  0  0  0  0  0  0  0  0
   25.3305  -21.6058  -14.2549 C   0  0  0  0  0  0  0  0  0  0  0  0
   24.8747  -22.7713  -14.2961 O   0  0  0  0  0  0  0  0  0  0  0  0
   26.3210  -20.3521   -8.7200 C   0  0  0  0  0  0  0  0  0  0  0  0
   25.4946  -20.0919   -9.9948 C   0  0  0  0  0  0  0  0  0  0  0  0
   25.4296  -21.4015  -10.7201 C   0  0  2  0  0  0  0  0  0  0  0  0
   26.8157  -21.9162  -11.0394 C   0  0  0  0  0  0  0  0  0  0  0  0
   24.4993  -21.4634  -11.8816 C   0  0  2  0  0  0  0  0  0  0  0  0
   25.2297  -20.9065  -13.0228 N   0  0  0  0  0  0  0  0  0  0  0  0
   23.1874  -20.8493  -11.7273 C   0  0  0  0  0  0  0  0  0  0  0  0
   23.0734  -19.8526  -10.9178 O   0  0  0  0  0  0  0  0  0  0  0  0
   17.6255  -15.1496  -14.5233 O   0  0  0  0  0  0  0  0  0  0  0  0
   18.5980  -16.1287  -14.2709 C   0  0  0  0  0  0  0  0  0  0  0  0
   19.1490  -16.8799  -15.2788 C   0  0  0  0  0  0  0  0  0  0  0  0
   20.1002  -17.8302  -14.9895 C   0  0  0  0  0  0  0  0  0  0  0  0
   20.5050  -18.0299  -13.6678 C   0  0  0  0  0  0  0  0  0  0  0  0
   21.5042  -19.0595  -13.3715 C   0  0  0  0  0  0  0  0  0  0  0  0
   20.9367  -20.2476  -12.6710 C   0  0  2  0  0  0  0  0  0  0  0  0
   21.9968  -21.2388  -12.3922 N   0  0  0  0  0  0  0  0  0  0  0  0
   19.8992  -20.8884  -13.4986 C   0  0  0  0  0  0  0  0  0  0  0  0
   20.1971  -21.7216  -14.5758 O   0  0  0  0  0  0  0  0  0  0  0  0
   19.9342  -17.2628  -12.6858 C   0  0  0  0  0  0  0  0  0  0  0  0
   18.9731  -16.3011  -12.9709 C   0  0  0  0  0  0  0  0  0  0  0  0
   18.6771  -20.7123  -13.2702 O   0  0  0  0  0  0  0  0  0  0  0  0
  2  3  1  0
  2  1  1  1
  3  4  1  0
  4  5  1  0
  5  6  1  0
  7  6  1  0
  8  9  2  0
  8  2  1  0
 10 11  1  0
 11 12  1  0
 12 14  1  0
 12 13  1  6
 14 15  1  6
 15  8  1  0
 16 14  1  0
 16 17  2  0
 18 19  1  0
 19 29  2  0
 20 21  2  0
 20 19  1  0
 21 22  1  0
 22 23  1  0
 22 28  2  0
 24 25  1  0
 24 23  1  6
 25 16  1  0
 26 24  1  0
 27 26  1  0
 29 28  1  0
 30 26  2  0
M  END
$$$$
