KIY.pdb
     RDKit          3D

 30 30  0  0  1  0  0  0  0  0999 V2000
   17.4037  -10.4350  -18.5931 N   0  0  0  0  0  0  0  0  0  0  0  0
   16.8224   -9.5310  -17.6523 C   0  0  1  0  0  0  0  0  0  0  0  0
   16.5622  -10.2365  -16.3585 C   0  0  0  0  0  0  0  0  0  0  0  0
   15.6306  -11.3863  -16.4168 C   0  0  0  0  0  0  0  0  0  0  0  0
   15.3974  -12.1285  -15.1481 C   0  0  0  0  0  0  0  0  0  0  0  0
   14.3377  -13.1910  -15.2402 C   0  0  0  0  0  0  0  0  0  0  0  0
   14.1833  -13.8598  -13.9419 N   0  0  0  0  0  0  0  0  0  0  0  0
   17.6865   -8.3362  -17.4859 C   0  0  0  0  0  0  0  0  0  0  0  0
   18.8824   -8.4183  -17.8476 O   0  0  0  0  0  0  0  0  0  0  0  0
   15.9564   -3.4501  -18.6831 C   0  0  0  0  0  0  0  0  0  0  0  0
   16.9163   -4.6540  -18.6122 C   0  0  0  0  0  0  0  0  0  0  0  0
   17.3551   -4.7495  -17.1825 C   0  0  2  0  0  0  0  0  0  0  0  0
   17.9846   -3.4545  -16.7188 C   0  0  0  0  0  0  0  0  0  0  0  0
   18.1546   -5.9527  -16.8200 C   0  0  2  0  0  0  0  0  0  0  0  0
   17.2504   -7.0987  -16.9423 N   0  0  0  0  0  0  0  0  0  0  0  0
   18.8437   -5.9420  -15.5367 C   0  0  0  0  0  0  0  0  0  0  0  0
   18.1306   -5.9095  -14.4633 O   0  0  0  0  0  0  0  0  0  0  0  0
   23.8184  -11.0878  -16.0126 O   0  0  0  0  0  0  0  0  0  0  0  0
   23.0336  -10.1258  -15.3594 C   0  0  0  0  0  0  0  0  0  0  0  0
   21.8146   -9.7298  -15.8503 C   0  0  0  0  0  0  0  0  0  0  0  0
   21.0756   -8.7835  -15.1796 C   0  0  0  0  0  0  0  0  0  0  0  0
   21.5676   -8.2256  -13.9975 C   0  0  0  0  0  0  0  0  0  0  0  0
   20.7792   -7.2038  -13.3042 C   0  0  0  0  0  0  0  0  0  0  0  0
   20.8146   -5.8738  -13.9782 C   0  0  2  0  0  0  0  0  0  0  0  0
   20.2480   -5.9685  -15.3397 N   0  0  0  0  0  0  0  0  0  0  0  0
   22.2004   -5.3822  -14.0783 C   0  0  0  0  0  0  0  0  0  0  0  0
   23.0004   -5.1394  -12.9628 O   0  0  0  0  0  0  0  0  0  0  0  0
   22.7885   -8.6434  -13.5355 C   0  0  0  0  0  0  0  0  0  0  0  0
   23.5401   -9.5989  -14.2078 C   0  0  0  0  0  0  0  0  0  0  0  0
   22.7363   -5.1544  -15.1908 O   0  0  0  0  0  0  0  0  0  0  0  0
  2  3  1  0
  2  1  1  6
  3  4  1  0
  4  5  1  0
  5  6  1  0
  7  6  1  0
  8  9  2  0
  8  2  1  0
 10 11  1  0
 11 12  1  0
 12 14  1  0
 12 13  1  6
 14 15  1  1
 15  8  1  0
 16 14  1  0
 16 17  2  0
 18 19  1  0
 19 29  2  0
 20 21  2  0
 20 19  1  0
 21 22  1  0
 22 23  1  0
 22 28  2  0
 24 25  1  0
 24 23  1  6
 25 16  1  0
 26 24  1  0
 27 26  1  0
 29 28  1  0
 30 26  2  0
M  END
$$$$
