KIY.pdb
     RDKit          3D

 30 30  0  0  1  0  0  0  0  0999 V2000
   28.1801  -20.1532  -16.0591 N   0  0  0  0  0  0  0  0  0  0  0  0
   27.5585  -21.4308  -16.2067 C   0  0  1  0  0  0  0  0  0  0  0  0
   28.5863  -22.4631  -16.5491 C   0  0  0  0  0  0  0  0  0  0  0  0
   29.3620  -22.2274  -17.7886 C   0  0  0  0  0  0  0  0  0  0  0  0
   29.8695  -23.4299  -18.5037 C   0  0  0  0  0  0  0  0  0  0  0  0
   30.8372  -23.1256  -19.6134 C   0  0  0  0  0  0  0  0  0  0  0  0
   31.3077  -24.3747  -20.2256 N   0  0  0  0  0  0  0  0  0  0  0  0
   26.7918  -21.7739  -14.9836 C   0  0  0  0  0  0  0  0  0  0  0  0
   26.1594  -22.8544  -14.9676 O   0  0  0  0  0  0  0  0  0  0  0  0
   28.4924  -20.9197  -10.0309 C   0  0  0  0  0  0  0  0  0  0  0  0
   27.8890  -21.5475  -11.3028 C   0  0  0  0  0  0  0  0  0  0  0  0
   26.5342  -20.9285  -11.4667 C   0  0  2  0  0  0  0  0  0  0  0  0
   25.6946  -21.1192  -10.2230 C   0  0  0  0  0  0  0  0  0  0  0  0
   25.8067  -21.2640  -12.7223 C   0  0  2  0  0  0  0  0  0  0  0  0
   26.7241  -20.9584  -13.8227 N   0  0  0  0  0  0  0  0  0  0  0  0
   24.4978  -20.6575  -12.9251 C   0  0  0  0  0  0  0  0  0  0  0  0
   24.4042  -19.3739  -12.8529 O   0  0  0  0  0  0  0  0  0  0  0  0
   16.9307  -17.8130  -16.0429 O   0  0  0  0  0  0  0  0  0  0  0  0
   18.1569  -18.4253  -15.7437 C   0  0  0  0  0  0  0  0  0  0  0  0
   19.2826  -17.6932  -15.4597 C   0  0  0  0  0  0  0  0  0  0  0  0
   20.4659  -18.3319  -15.1712 C   0  0  0  0  0  0  0  0  0  0  0  0
   20.5206  -19.7275  -15.1676 C   0  0  0  0  0  0  0  0  0  0  0  0
   21.7925  -20.3947  -14.8786 C   0  0  0  0  0  0  0  0  0  0  0  0
   22.0344  -20.5970  -13.4209 C   0  0  2  0  0  0  0  0  0  0  0  0
   23.2897  -21.3461  -13.2040 N   0  0  0  0  0  0  0  0  0  0  0  0
   20.9246  -21.3526  -12.8131 C   0  0  0  0  0  0  0  0  0  0  0  0
   19.8305  -20.7360  -12.2080 O   0  0  0  0  0  0  0  0  0  0  0  0
   19.3782  -20.4277  -15.4557 C   0  0  0  0  0  0  0  0  0  0  0  0
   18.1796  -19.7891  -15.7479 C   0  0  0  0  0  0  0  0  0  0  0  0
   20.9103  -22.6082  -12.8105 O   0  0  0  0  0  0  0  0  0  0  0  0
  2  3  1  0
  2  1  1  1
  3  4  1  0
  4  5  1  0
  5  6  1  0
  7  6  1  0
  8  9  2  0
  8  2  1  0
 10 11  1  0
 11 12  1  0
 12 14  1  0
 12 13  1  1
 14 15  1  6
 15  8  1  0
 16 14  1  0
 16 17  2  0
 18 19  1  0
 19 29  2  0
 20 21  2  0
 20 19  1  0
 21 22  1  0
 22 23  1  0
 22 28  2  0
 24 25  1  0
 24 23  1  6
 25 16  1  0
 26 24  1  0
 27 26  1  0
 29 28  1  0
 30 26  2  0
M  END
$$$$
