EQW.pdb
     RDKit          3D

 33 34  0  0  1  0  0  0  0  0999 V2000
   11.0910  -16.7147   18.8925 N   0  0  0  0  0  0  0  0  0  0  0  0
   10.1822  -15.9261   19.6467 C   0  0  1  0  0  0  0  0  0  0  0  0
    9.0263  -15.3418   18.9086 C   0  0  0  0  0  0  0  0  0  0  0  0
    9.3499  -14.5035   17.7265 C   0  0  0  0  0  0  0  0  0  0  0  0
    8.2363  -13.8753   17.0266 C   0  0  0  0  0  0  0  0  0  0  0  0
    7.0495  -14.0916   17.3173 O   0  0  0  0  0  0  0  0  0  0  0  0
    9.5882  -16.7658   20.7584 C   0  0  0  0  0  0  0  0  0  0  0  0
    8.8508  -17.7159   20.4585 O   0  0  0  0  0  0  0  0  0  0  0  0
    8.4958  -12.9839   15.9731 O   0  0  0  0  0  0  0  0  0  0  0  0
   12.5964  -20.8372   22.5725 N   0  0  0  0  0  0  0  0  0  0  0  0
   11.8811  -20.6645   23.8160 C   0  0  0  0  0  0  0  0  0  0  0  0
   12.0475  -21.5242   24.6904 O   0  0  0  0  0  0  0  0  0  0  0  0
   11.0071  -19.5130   24.0067 C   0  0  0  0  0  0  0  0  0  0  0  0
   10.9109  -18.5592   22.8773 C   0  0  0  0  0  0  0  0  0  0  0  0
   10.0116  -17.3703   23.1809 C   0  0  2  0  0  0  0  0  0  0  0  0
    9.8983  -16.4349   22.0999 N   0  0  0  0  0  0  0  0  0  0  0  0
   10.2995  -16.7607   24.4785 C   0  0  0  0  0  0  0  0  0  0  0  0
   11.3402  -16.0256   24.6202 O   0  0  0  0  0  0  0  0  0  0  0  0
    9.5093  -16.9094   25.6389 N   0  0  0  0  0  0  0  0  0  0  0  0
    9.8253  -16.3205   26.9348 C   0  0  1  0  0  0  0  0  0  0  0  0
    8.6032  -15.8798   27.6510 C   0  0  0  0  0  0  0  0  0  0  0  0
    7.6724  -15.1478   26.7758 C   0  0  0  0  0  0  0  0  0  0  0  0
    6.6333  -15.6977   26.0108 C   0  0  0  0  0  0  0  0  0  0  0  0
    6.0226  -14.7291   25.3112 N   0  0  0  0  0  0  0  0  0  0  0  0
    6.6010  -13.5467   25.5689 C   0  0  0  0  0  0  0  0  0  0  0  0
    6.3163  -12.2619   25.1048 C   0  0  0  0  0  0  0  0  0  0  0  0
    7.0909  -11.2372   25.5816 C   0  0  0  0  0  0  0  0  0  0  0  0
    8.1300  -11.4443   26.4962 C   0  0  0  0  0  0  0  0  0  0  0  0
    8.3661  -12.7191   26.9164 C   0  0  0  0  0  0  0  0  0  0  0  0
    7.6189  -13.7941   26.4704 C   0  0  0  0  0  0  0  0  0  0  0  0
   10.7773  -17.0843   27.7000 C   0  0  0  0  0  0  0  0  0  0  0  0
   11.3591  -16.6663   28.9013 O   0  0  0  0  0  0  0  0  0  0  0  0
   11.1769  -18.2417   27.3166 O   0  0  0  0  0  0  0  0  0  0  0  0
  2  3  1  0
  2  1  1  6
  3  4  1  0
  4  5  1  0
  5  9  1  0
  6  5  2  0
  7  8  2  0
  7  2  1  0
 10 11  1  0
 11 13  1  0
 12 11  2  0
 13 14  1  0
 15 14  1  6
 15 16  1  0
 16  7  1  0
 17 15  1  0
 17 19  1  0
 18 17  2  0
 20 19  1  0
 20 31  1  0
 20 21  1  1
 22 21  1  0
 23 22  2  0
 24 25  1  0
 24 23  1  0
 25 30  2  0
 26 25  1  0
 26 27  2  0
 27 28  1  0
 28 29  2  0
 30 22  1  0
 30 29  1  0
 31 32  1  0
 33 31  2  0
M  END
$$$$
