EQW.pdb
     RDKit          3D

 33 34  0  0  1  0  0  0  0  0999 V2000
    6.9472  -20.2566   20.8620 N   0  0  0  0  0  0  0  0  0  0  0  0
    7.2780  -19.4162   21.9579 C   0  0  1  0  0  0  0  0  0  0  0  0
    7.4970  -20.0821   23.2735 C   0  0  0  0  0  0  0  0  0  0  0  0
    6.5257  -21.1399   23.6509 C   0  0  0  0  0  0  0  0  0  0  0  0
    6.7720  -21.8623   24.8927 C   0  0  0  0  0  0  0  0  0  0  0  0
    6.3321  -21.4854   25.9901 O   0  0  0  0  0  0  0  0  0  0  0  0
    8.5572  -18.6661   21.6498 C   0  0  0  0  0  0  0  0  0  0  0  0
    9.5727  -19.3145   21.3586 O   0  0  0  0  0  0  0  0  0  0  0  0
    7.5393  -23.0381   24.8687 O   0  0  0  0  0  0  0  0  0  0  0  0
    9.2046  -12.8119   19.1034 N   0  0  0  0  0  0  0  0  0  0  0  0
   10.4195  -13.0306   19.8542 C   0  0  0  0  0  0  0  0  0  0  0  0
   11.2936  -12.1574   19.7861 O   0  0  0  0  0  0  0  0  0  0  0  0
   10.5813  -14.2393   20.6537 C   0  0  0  0  0  0  0  0  0  0  0  0
    9.4271  -15.1672   20.6939 C   0  0  0  0  0  0  0  0  0  0  0  0
    9.6907  -16.4043   21.5392 C   0  0  2  0  0  0  0  0  0  0  0  0
    8.5454  -17.2511   21.7050 N   0  0  0  0  0  0  0  0  0  0  0  0
   10.4005  -16.0996   22.7808 C   0  0  0  0  0  0  0  0  0  0  0  0
   11.6156  -15.6933   22.7367 O   0  0  0  0  0  0  0  0  0  0  0  0
    9.8546  -16.2145   24.0777 N   0  0  0  0  0  0  0  0  0  0  0  0
   10.6287  -16.1308   25.3104 C   0  0  1  0  0  0  0  0  0  0  0  0
   10.2703  -14.9297   26.1040 C   0  0  0  0  0  0  0  0  0  0  0  0
    8.8342  -14.6135   26.0270 C   0  0  0  0  0  0  0  0  0  0  0  0
    7.7816  -15.5281   25.8757 C   0  0  0  0  0  0  0  0  0  0  0  0
    6.6142  -14.8699   25.8079 N   0  0  0  0  0  0  0  0  0  0  0  0
    6.8287  -13.5496   25.9077 C   0  0  0  0  0  0  0  0  0  0  0  0
    5.9440  -12.4706   25.9088 C   0  0  0  0  0  0  0  0  0  0  0  0
    6.4822  -11.2188   26.0526 C   0  0  0  0  0  0  0  0  0  0  0  0
    7.8581  -11.0048   26.1941 C   0  0  0  0  0  0  0  0  0  0  0  0
    8.6778  -12.0936   26.1855 C   0  0  0  0  0  0  0  0  0  0  0  0
    8.1938  -13.3814   26.0431 C   0  0  0  0  0  0  0  0  0  0  0  0
   10.7053  -17.3762   26.0304 C   0  0  0  0  0  0  0  0  0  0  0  0
   10.0179  -18.5445   25.6854 O   0  0  0  0  0  0  0  0  0  0  0  0
   11.4318  -17.5043   27.0802 O   0  0  0  0  0  0  0  0  0  0  0  0
  2  3  1  0
  2  1  1  6
  3  4  1  0
  4  5  1  0
  5  9  1  0
  6  5  2  0
  7  8  2  0
  7  2  1  0
 10 11  1  0
 11 13  1  0
 12 11  2  0
 13 14  1  0
 15 14  1  1
 15 16  1  0
 16  7  1  0
 17 15  1  0
 17 19  1  0
 18 17  2  0
 20 19  1  0
 20 31  1  0
 20 21  1  1
 22 21  1  0
 23 22  2  0
 24 25  1  0
 24 23  1  0
 25 30  2  0
 26 25  1  0
 26 27  2  0
 27 28  1  0
 28 29  2  0
 30 22  1  0
 30 29  1  0
 31 32  1  0
 33 31  2  0
M  END
$$$$
