EQW.pdb
     RDKit          3D

 33 34  0  0  1  0  0  0  0  0999 V2000
    7.4110  -13.6633   17.8800 N   0  0  0  0  0  0  0  0  0  0  0  0
    7.9324  -14.9469   18.1914 C   0  0  1  0  0  0  0  0  0  0  0  0
    9.3664  -15.1877   17.8632 C   0  0  0  0  0  0  0  0  0  0  0  0
    9.7175  -15.2355   16.4213 C   0  0  0  0  0  0  0  0  0  0  0  0
   11.0994  -15.5483   16.0790 C   0  0  0  0  0  0  0  0  0  0  0  0
   11.5247  -15.5334   14.9133 O   0  0  0  0  0  0  0  0  0  0  0  0
    7.7946  -15.1999   19.6783 C   0  0  0  0  0  0  0  0  0  0  0  0
    7.8684  -14.2374   20.4558 O   0  0  0  0  0  0  0  0  0  0  0  0
   12.0053  -15.8852   17.0976 O   0  0  0  0  0  0  0  0  0  0  0  0
    5.6177  -20.8491   22.2126 N   0  0  0  0  0  0  0  0  0  0  0  0
    6.0752  -20.0353   23.3155 C   0  0  0  0  0  0  0  0  0  0  0  0
    5.9087  -20.4820   24.4574 O   0  0  0  0  0  0  0  0  0  0  0  0
    6.7064  -18.7452   23.0640 C   0  0  0  0  0  0  0  0  0  0  0  0
    6.7961  -18.3154   21.6490 C   0  0  0  0  0  0  0  0  0  0  0  0
    7.3857  -16.9222   21.4893 C   0  0  2  0  0  0  0  0  0  0  0  0
    7.5856  -16.5273   20.1253 N   0  0  0  0  0  0  0  0  0  0  0  0
    8.5390  -16.6934   22.3588 C   0  0  0  0  0  0  0  0  0  0  0  0
    9.6876  -17.1572   22.0286 O   0  0  0  0  0  0  0  0  0  0  0  0
    8.5088  -15.9815   23.5776 N   0  0  0  0  0  0  0  0  0  0  0  0
    9.6439  -15.8437   24.4823 C   0  0  1  0  0  0  0  0  0  0  0  0
    9.6175  -14.5476   25.2036 C   0  0  0  0  0  0  0  0  0  0  0  0
    8.2543  -14.1479   25.5910 C   0  0  0  0  0  0  0  0  0  0  0  0
    7.1359  -14.9864   25.7060 C   0  0  0  0  0  0  0  0  0  0  0  0
    6.0578  -14.2621   26.0435 N   0  0  0  0  0  0  0  0  0  0  0  0
    6.3963  -12.9698   26.1635 C   0  0  0  0  0  0  0  0  0  0  0  0
    5.6410  -11.8486   26.5090 C   0  0  0  0  0  0  0  0  0  0  0  0
    6.2949  -10.6459   26.5672 C   0  0  0  0  0  0  0  0  0  0  0  0
    7.6622  -10.5208   26.2959 C   0  0  0  0  0  0  0  0  0  0  0  0
    8.3526  -11.6476   25.9624 C   0  0  0  0  0  0  0  0  0  0  0  0
    7.7479  -12.8891   25.8866 C   0  0  0  0  0  0  0  0  0  0  0  0
    9.8929  -17.0171   25.2799 C   0  0  0  0  0  0  0  0  0  0  0  0
   11.0449  -17.2380   26.0419 O   0  0  0  0  0  0  0  0  0  0  0  0
    9.0469  -17.9795   25.3456 O   0  0  0  0  0  0  0  0  0  0  0  0
  2  3  1  0
  2  1  1  1
  3  4  1  0
  4  5  1  0
  5  9  1  0
  6  5  2  0
  7  8  2  0
  7  2  1  0
 10 11  1  0
 11 13  1  0
 12 11  2  0
 13 14  1  0
 15 14  1  6
 15 16  1  0
 16  7  1  0
 17 15  1  0
 17 19  1  0
 18 17  2  0
 20 19  1  0
 20 31  1  0
 20 21  1  1
 22 21  1  0
 23 22  2  0
 24 25  1  0
 24 23  1  0
 25 30  2  0
 26 25  1  0
 26 27  2  0
 27 28  1  0
 28 29  2  0
 30 22  1  0
 30 29  1  0
 31 32  1  0
 33 31  2  0
M  END
$$$$
