EQW.pdb
     RDKit          3D

 33 34  0  0  1  0  0  0  0  0999 V2000
   10.4325  -15.7287   20.8530 N   0  0  0  0  0  0  0  0  0  0  0  0
    9.0394  -15.9408   20.6775 C   0  0  1  0  0  0  0  0  0  0  0  0
    8.5928  -16.3927   19.3290 C   0  0  0  0  0  0  0  0  0  0  0  0
    9.6073  -17.0804   18.4908 C   0  0  0  0  0  0  0  0  0  0  0  0
    9.2189  -17.4443   17.1337 C   0  0  0  0  0  0  0  0  0  0  0  0
    8.0952  -17.2015   16.6666 O   0  0  0  0  0  0  0  0  0  0  0  0
    8.5636  -16.9976   21.6525 C   0  0  0  0  0  0  0  0  0  0  0  0
    7.3662  -17.3179   21.6465 O   0  0  0  0  0  0  0  0  0  0  0  0
   10.1411  -18.1000   16.3025 O   0  0  0  0  0  0  0  0  0  0  0  0
   11.4670  -22.1848   23.6428 N   0  0  0  0  0  0  0  0  0  0  0  0
   10.2156  -22.1219   24.3622 C   0  0  0  0  0  0  0  0  0  0  0  0
    9.9499  -23.0619   25.1218 O   0  0  0  0  0  0  0  0  0  0  0  0
    9.3219  -20.9837   24.1833 C   0  0  0  0  0  0  0  0  0  0  0  0
    9.7451  -19.9558   23.2040 C   0  0  0  0  0  0  0  0  0  0  0  0
    9.2080  -18.5703   23.5299 C   0  0  2  0  0  0  0  0  0  0  0  0
    9.5051  -17.5816   22.5345 N   0  0  0  0  0  0  0  0  0  0  0  0
    9.5073  -18.1560   24.8999 C   0  0  0  0  0  0  0  0  0  0  0  0
    9.5306  -19.0287   25.8387 O   0  0  0  0  0  0  0  0  0  0  0  0
    9.7847  -16.8326   25.3060 N   0  0  0  0  0  0  0  0  0  0  0  0
    9.9999  -16.4203   26.6879 C   0  0  1  0  0  0  0  0  0  0  0  0
    8.7264  -16.0620   27.3591 C   0  0  0  0  0  0  0  0  0  0  0  0
    7.8126  -15.3225   26.4723 C   0  0  0  0  0  0  0  0  0  0  0  0
    6.8744  -15.8740   25.5876 C   0  0  0  0  0  0  0  0  0  0  0  0
    6.2493  -14.8929   24.9187 N   0  0  0  0  0  0  0  0  0  0  0  0
    6.7216  -13.7006   25.3118 C   0  0  0  0  0  0  0  0  0  0  0  0
    6.3811  -12.4032   24.9271 C   0  0  0  0  0  0  0  0  0  0  0  0
    7.0436  -11.3730   25.5412 C   0  0  0  0  0  0  0  0  0  0  0  0
    8.0247  -11.5867   26.5162 C   0  0  0  0  0  0  0  0  0  0  0  0
    8.3195  -12.8736   26.8541 C   0  0  0  0  0  0  0  0  0  0  0  0
    7.6855  -13.9546   26.2690 C   0  0  0  0  0  0  0  0  0  0  0  0
   10.8881  -17.2880   27.4182 C   0  0  0  0  0  0  0  0  0  0  0  0
   11.4951  -18.4352   26.8970 O   0  0  0  0  0  0  0  0  0  0  0  0
   11.1917  -17.0640   28.6446 O   0  0  0  0  0  0  0  0  0  0  0  0
  2  3  1  0
  2  1  1  6
  3  4  1  0
  4  5  1  0
  5  9  1  0
  6  5  2  0
  7  8  2  0
  7  2  1  0
 10 11  1  0
 11 13  1  0
 12 11  2  0
 13 14  1  0
 15 14  1  6
 15 16  1  0
 16  7  1  0
 17 15  1  0
 17 19  1  0
 18 17  2  0
 20 19  1  0
 20 31  1  0
 20 21  1  1
 22 21  1  0
 23 22  2  0
 24 25  1  0
 24 23  1  0
 25 30  2  0
 26 25  1  0
 26 27  2  0
 27 28  1  0
 28 29  2  0
 30 22  1  0
 30 29  1  0
 31 32  1  0
 33 31  2  0
M  END
$$$$
