EQW.pdb
     RDKit          3D

 33 34  0  0  1  0  0  0  0  0999 V2000
   11.7435  -18.8040   18.3038 N   0  0  0  0  0  0  0  0  0  0  0  0
   11.2199  -17.6690   18.9777 C   0  0  1  0  0  0  0  0  0  0  0  0
    9.7635  -17.3998   18.8092 C   0  0  0  0  0  0  0  0  0  0  0  0
    9.2558  -17.3486   17.4148 C   0  0  0  0  0  0  0  0  0  0  0  0
    7.8341  -17.0859   17.2294 C   0  0  0  0  0  0  0  0  0  0  0  0
    7.0674  -16.8318   18.1714 O   0  0  0  0  0  0  0  0  0  0  0  0
   11.4491  -17.8170   20.4675 C   0  0  0  0  0  0  0  0  0  0  0  0
   10.9223  -18.7701   21.0595 O   0  0  0  0  0  0  0  0  0  0  0  0
    7.2874  -17.1180   15.9364 O   0  0  0  0  0  0  0  0  0  0  0  0
   16.7752  -16.4931   23.8037 N   0  0  0  0  0  0  0  0  0  0  0  0
   16.3782  -16.7617   22.4407 C   0  0  0  0  0  0  0  0  0  0  0  0
   17.2535  -16.6852   21.5692 O   0  0  0  0  0  0  0  0  0  0  0  0
   14.9959  -17.1091   22.1331 C   0  0  0  0  0  0  0  0  0  0  0  0
   13.9462  -16.3742   22.8766 C   0  0  0  0  0  0  0  0  0  0  0  0
   12.5399  -16.8428   22.5349 C   0  0  2  0  0  0  0  0  0  0  0  0
   12.2578  -16.8611   21.1290 N   0  0  0  0  0  0  0  0  0  0  0  0
   11.5138  -16.1909   23.3476 C   0  0  0  0  0  0  0  0  0  0  0  0
   10.9999  -15.0834   22.9567 O   0  0  0  0  0  0  0  0  0  0  0  0
   11.0133  -16.6836   24.5723 N   0  0  0  0  0  0  0  0  0  0  0  0
    9.9237  -16.0735   25.3249 C   0  0  1  0  0  0  0  0  0  0  0  0
    8.7558  -15.7778   24.4592 C   0  0  0  0  0  0  0  0  0  0  0  0
    7.6588  -15.1303   25.1977 C   0  0  0  0  0  0  0  0  0  0  0  0
    6.5010  -15.7492   25.6916 C   0  0  0  0  0  0  0  0  0  0  0  0
    5.7117  -14.8353   26.2768 N   0  0  0  0  0  0  0  0  0  0  0  0
    6.2838  -13.6244   26.2025 C   0  0  0  0  0  0  0  0  0  0  0  0
    5.8670  -12.3788   26.6737 C   0  0  0  0  0  0  0  0  0  0  0  0
    6.7017  -11.3145   26.4548 C   0  0  0  0  0  0  0  0  0  0  0  0
    7.9259  -11.4449   25.7892 C   0  0  0  0  0  0  0  0  0  0  0  0
    8.2844  -12.6838   25.3488 C   0  0  0  0  0  0  0  0  0  0  0  0
    7.4841  -13.7956   25.5392 C   0  0  0  0  0  0  0  0  0  0  0  0
    9.6451  -16.7323   26.5753 C   0  0  0  0  0  0  0  0  0  0  0  0
    9.8288  -18.0972   26.8199 O   0  0  0  0  0  0  0  0  0  0  0  0
    9.1870  -16.0909   27.5878 O   0  0  0  0  0  0  0  0  0  0  0  0
  2  3  1  0
  2  1  1  6
  3  4  1  0
  4  5  1  0
  5  9  1  0
  6  5  2  0
  7  8  2  0
  7  2  1  0
 10 11  1  0
 11 13  1  0
 12 11  2  0
 13 14  1  0
 15 14  1  6
 15 16  1  0
 16  7  1  0
 17 15  1  0
 17 19  1  0
 18 17  2  0
 20 19  1  0
 20 31  1  0
 20 21  1  6
 22 21  1  0
 23 22  2  0
 24 25  1  0
 24 23  1  0
 25 30  2  0
 26 25  1  0
 26 27  2  0
 27 28  1  0
 28 29  2  0
 30 22  1  0
 30 29  1  0
 31 32  1  0
 33 31  2  0
M  END
$$$$
