EQW.pdb
     RDKit          3D

 33 34  0  0  1  0  0  0  0  0999 V2000
    7.0720  -21.1415   23.0203 N   0  0  0  0  0  0  0  0  0  0  0  0
    6.8165  -19.7805   23.3352 C   0  0  1  0  0  0  0  0  0  0  0  0
    6.9589  -19.3831   24.7649 C   0  0  0  0  0  0  0  0  0  0  0  0
    7.5511  -20.3933   25.6778 C   0  0  0  0  0  0  0  0  0  0  0  0
    7.7855  -19.9911   27.0592 C   0  0  0  0  0  0  0  0  0  0  0  0
    8.8529  -19.4876   27.4424 O   0  0  0  0  0  0  0  0  0  0  0  0
    7.7686  -18.8958   22.5575 C   0  0  0  0  0  0  0  0  0  0  0  0
    8.8915  -19.3358   22.2715 O   0  0  0  0  0  0  0  0  0  0  0  0
    6.7727  -20.1740   28.0144 O   0  0  0  0  0  0  0  0  0  0  0  0
    6.9103  -12.5585   19.8164 N   0  0  0  0  0  0  0  0  0  0  0  0
    7.7083  -13.6154   19.2386 C   0  0  0  0  0  0  0  0  0  0  0  0
    7.8260  -13.6287   18.0068 O   0  0  0  0  0  0  0  0  0  0  0  0
    8.3402  -14.6112   20.0961 C   0  0  0  0  0  0  0  0  0  0  0  0
    7.4343  -15.5274   20.8273 C   0  0  0  0  0  0  0  0  0  0  0  0
    8.1808  -16.5690   21.6471 C   0  0  2  0  0  0  0  0  0  0  0  0
    7.3400  -17.5986   22.1851 N   0  0  0  0  0  0  0  0  0  0  0  0
    9.0999  -15.9732   22.6159 C   0  0  0  0  0  0  0  0  0  0  0  0
    9.9867  -15.1358   22.2211 O   0  0  0  0  0  0  0  0  0  0  0  0
    9.1057  -16.2421   24.0018 N   0  0  0  0  0  0  0  0  0  0  0  0
   10.1162  -15.7558   24.9337 C   0  0  1  0  0  0  0  0  0  0  0  0
    9.5376  -15.4621   26.2677 C   0  0  0  0  0  0  0  0  0  0  0  0
    8.2122  -14.8270   26.1778 C   0  0  0  0  0  0  0  0  0  0  0  0
    6.9922  -15.4672   25.9149 C   0  0  0  0  0  0  0  0  0  0  0  0
    6.0035  -14.5610   25.8724 N   0  0  0  0  0  0  0  0  0  0  0  0
    6.4991  -13.3348   26.0959 C   0  0  0  0  0  0  0  0  0  0  0  0
    5.8753  -12.0887   26.1677 C   0  0  0  0  0  0  0  0  0  0  0  0
    6.6690  -11.0050   26.4382 C   0  0  0  0  0  0  0  0  0  0  0  0
    8.0497  -11.1169   26.6380 C   0  0  0  0  0  0  0  0  0  0  0  0
    8.6083  -12.3573   26.5559 C   0  0  0  0  0  0  0  0  0  0  0  0
    7.8595  -13.4881   26.2852 C   0  0  0  0  0  0  0  0  0  0  0  0
   11.3346  -16.5242   24.9177 C   0  0  0  0  0  0  0  0  0  0  0  0
   11.5672  -17.6403   24.1073 O   0  0  0  0  0  0  0  0  0  0  0  0
   12.3262  -16.2313   25.6775 O   0  0  0  0  0  0  0  0  0  0  0  0
  2  3  1  0
  2  1  1  1
  3  4  1  0
  4  5  1  0
  5  9  1  0
  6  5  2  0
  7  8  2  0
  7  2  1  0
 10 11  1  0
 11 13  1  0
 12 11  2  0
 13 14  1  0
 15 14  1  1
 15 16  1  0
 16  7  1  0
 17 15  1  0
 17 19  1  0
 18 17  2  0
 20 19  1  0
 20 31  1  0
 20 21  1  1
 22 21  1  0
 23 22  2  0
 24 25  1  0
 24 23  1  0
 25 30  2  0
 26 25  1  0
 26 27  2  0
 27 28  1  0
 28 29  2  0
 30 22  1  0
 30 29  1  0
 31 32  1  0
 33 31  2  0
M  END
$$$$
