EQW.pdb
     RDKit          3D

 33 34  0  0  1  0  0  0  0  0999 V2000
   10.1054  -13.0320   19.0418 N   0  0  0  0  0  0  0  0  0  0  0  0
    8.7584  -13.4705   19.1408 C   0  0  1  0  0  0  0  0  0  0  0  0
    8.0517  -13.7655   17.8619 C   0  0  0  0  0  0  0  0  0  0  0  0
    8.7656  -14.6387   16.8962 C   0  0  0  0  0  0  0  0  0  0  0  0
    8.0446  -15.0356   15.6931 C   0  0  0  0  0  0  0  0  0  0  0  0
    6.8942  -14.6469   15.4379 O   0  0  0  0  0  0  0  0  0  0  0  0
    8.7021  -14.7466   19.9546 C   0  0  0  0  0  0  0  0  0  0  0  0
    7.5939  -15.2113   20.2583 O   0  0  0  0  0  0  0  0  0  0  0  0
    8.6601  -15.8962   14.7699 O   0  0  0  0  0  0  0  0  0  0  0  0
   12.3934  -19.8275   19.4291 N   0  0  0  0  0  0  0  0  0  0  0  0
   11.7527  -19.9729   20.7160 C   0  0  0  0  0  0  0  0  0  0  0  0
   11.8879  -21.0566   21.2979 O   0  0  0  0  0  0  0  0  0  0  0  0
   10.9859  -18.8701   21.2836 C   0  0  0  0  0  0  0  0  0  0  0  0
   10.8420  -17.6599   20.4413 C   0  0  0  0  0  0  0  0  0  0  0  0
   10.0328  -16.5620   21.1152 C   0  0  2  0  0  0  0  0  0  0  0  0
    9.9184  -15.3623   20.3379 N   0  0  0  0  0  0  0  0  0  0  0  0
   10.4250  -16.3440   22.5069 C   0  0  0  0  0  0  0  0  0  0  0  0
   11.6106  -15.9389   22.7786 O   0  0  0  0  0  0  0  0  0  0  0  0
    9.5897  -16.5447   23.6272 N   0  0  0  0  0  0  0  0  0  0  0  0
    9.9978  -16.3320   25.0107 C   0  0  1  0  0  0  0  0  0  0  0  0
    9.7361  -14.9404   25.4532 C   0  0  0  0  0  0  0  0  0  0  0  0
    8.3084  -14.6933   25.7153 C   0  0  0  0  0  0  0  0  0  0  0  0
    7.2533  -15.5986   25.5295 C   0  0  0  0  0  0  0  0  0  0  0  0
    6.0885  -15.0082   25.8383 N   0  0  0  0  0  0  0  0  0  0  0  0
    6.3075  -13.7430   26.2262 C   0  0  0  0  0  0  0  0  0  0  0  0
    5.4299  -12.7468   26.6556 C   0  0  0  0  0  0  0  0  0  0  0  0
    5.9755  -11.5410   27.0106 C   0  0  0  0  0  0  0  0  0  0  0  0
    7.3520  -11.2940   26.9535 C   0  0  0  0  0  0  0  0  0  0  0  0
    8.1643  -12.3014   26.5260 C   0  0  0  0  0  0  0  0  0  0  0  0
    7.6724  -13.5393   26.1538 C   0  0  0  0  0  0  0  0  0  0  0  0
    9.5762  -17.3796   25.9051 C   0  0  0  0  0  0  0  0  0  0  0  0
    9.9427  -17.4793   27.2512 O   0  0  0  0  0  0  0  0  0  0  0  0
    8.8113  -18.3327   25.5140 O   0  0  0  0  0  0  0  0  0  0  0  0
  2  3  1  0
  2  1  1  6
  3  4  1  0
  4  5  1  0
  5  9  1  0
  6  5  2  0
  7  8  2  0
  7  2  1  0
 10 11  1  0
 11 13  1  0
 12 11  2  0
 13 14  1  0
 15 14  1  6
 15 16  1  0
 16  7  1  0
 17 15  1  0
 17 19  1  0
 18 17  2  0
 20 19  1  0
 20 31  1  0
 20 21  1  1
 22 21  1  0
 23 22  2  0
 24 25  1  0
 24 23  1  0
 25 30  2  0
 26 25  1  0
 26 27  2  0
 27 28  1  0
 28 29  2  0
 30 22  1  0
 30 29  1  0
 31 32  1  0
 33 31  2  0
M  END
$$$$
