KSG.pdb
     RDKit          3D

 20 19  0  0  1  0  0  0  0  0999 V2000
    7.9398  -16.9289   17.7020 N   0  0  0  0  0  0  0  0  0  0  0  0
    7.2901  -16.7069   18.9670 C   0  0  1  0  0  0  0  0  0  0  0  0
    6.8690  -18.0465   19.5270 C   0  0  0  0  0  0  0  0  0  0  0  0
    5.9514  -18.7009   18.5395 C   0  0  0  0  0  0  0  0  0  0  0  0
    5.4675  -20.0478   18.9617 C   0  0  0  0  0  0  0  0  0  0  0  0
    4.5848  -20.6595   17.8916 C   0  0  0  0  0  0  0  0  0  0  0  0
    4.0381  -21.9310   18.3122 N   0  0  0  0  0  0  0  0  0  0  0  0
    8.2168  -15.9927   19.8710 C   0  0  0  0  0  0  0  0  0  0  0  0
    9.4574  -15.8830   19.6252 O   0  0  0  0  0  0  0  0  0  0  0  0
    6.8984  -14.3302   23.5475 O   0  0  0  0  0  0  0  0  0  0  0  0
    7.8353  -13.6557   22.7832 C   0  0  0  0  0  0  0  0  0  0  0  0
    8.6302  -14.6780   21.9932 C   0  0  2  0  0  0  0  0  0  0  0  0
    7.7422  -15.3933   21.0686 N   0  0  0  0  0  0  0  0  0  0  0  0
    9.3160  -15.6325   22.8930 C   0  0  0  0  0  0  0  0  0  0  0  0
    8.6201  -16.5324   23.4364 O   0  0  0  0  0  0  0  0  0  0  0  0
   10.6961  -15.6276   23.2009 N   0  0  0  0  0  0  0  0  0  0  0  0
   11.2838  -16.6217   24.1076 C   0  0  0  0  0  0  0  0  0  0  0  0
   12.7579  -16.4335   24.1453 C   0  0  0  0  0  0  0  0  0  0  0  0
   13.5877  -17.1744   24.9517 O   0  0  0  0  0  0  0  0  0  0  0  0
   13.3004  -15.5605   23.4139 O   0  0  0  0  0  0  0  0  0  0  0  0
  2  1  1  6
  3  2  1  0
  4  3  1  0
  5  4  1  0
  6  5  1  0
  7  6  1  0
  8 13  1  0
  8  2  1  0
  9  8  2  0
 10 11  1  0
 12 11  1  1
 12 13  1  0
 14 12  1  0
 14 15  2  0
 16 14  1  0
 17 16  1  0
 18 17  1  0
 19 18  1  0
 20 18  2  0
M  END
$$$$
