KSG.pdb
     RDKit          3D

 20 19  0  0  1  0  0  0  0  0999 V2000
   11.3109  -21.5373   24.4698 N   0  0  0  0  0  0  0  0  0  0  0  0
   11.3848  -20.1838   24.9540 C   0  0  1  0  0  0  0  0  0  0  0  0
   12.1772  -20.1818   26.2415 C   0  0  0  0  0  0  0  0  0  0  0  0
   11.3721  -20.8882   27.2896 C   0  0  0  0  0  0  0  0  0  0  0  0
   12.0927  -21.0769   28.5826 C   0  0  0  0  0  0  0  0  0  0  0  0
   11.2852  -21.9499   29.5231 C   0  0  0  0  0  0  0  0  0  0  0  0
   12.0309  -22.2807   30.7177 N   0  0  0  0  0  0  0  0  0  0  0  0
   12.0045  -19.3299   23.9183 C   0  0  0  0  0  0  0  0  0  0  0  0
   12.9297  -19.7479   23.1561 O   0  0  0  0  0  0  0  0  0  0  0  0
   10.6530  -15.4208   23.3464 O   0  0  0  0  0  0  0  0  0  0  0  0
   11.1549  -16.0971   22.2474 C   0  0  0  0  0  0  0  0  0  0  0  0
   12.1830  -17.1004   22.7348 C   0  0  2  0  0  0  0  0  0  0  0  0
   11.5782  -17.9868   23.7366 N   0  0  0  0  0  0  0  0  0  0  0  0
   13.3697  -16.4183   23.2979 C   0  0  0  0  0  0  0  0  0  0  0  0
   13.3510  -16.1204   24.5228 O   0  0  0  0  0  0  0  0  0  0  0  0
   14.5360  -16.0675   22.5794 N   0  0  0  0  0  0  0  0  0  0  0  0
   15.6501  -15.3597   23.2225 C   0  0  0  0  0  0  0  0  0  0  0  0
   16.7176  -15.1181   22.2167 C   0  0  0  0  0  0  0  0  0  0  0  0
   16.6456  -15.5742   20.9227 O   0  0  0  0  0  0  0  0  0  0  0  0
   17.7495  -14.4669   22.5374 O   0  0  0  0  0  0  0  0  0  0  0  0
  2  1  1  6
  3  2  1  0
  4  3  1  0
  5  4  1  0
  6  5  1  0
  7  6  1  0
  8 13  1  0
  8  2  1  0
  9  8  2  0
 10 11  1  0
 12 11  1  1
 12 13  1  0
 14 12  1  0
 14 15  2  0
 16 14  1  0
 17 16  1  0
 18 17  1  0
 19 18  1  0
 20 18  2  0
M  END
$$$$
