KSG.pdb
     RDKit          3D

 20 19  0  0  1  0  0  0  0  0999 V2000
    2.0747  -20.6053   21.5021 N   0  0  0  0  0  0  0  0  0  0  0  0
    2.4453  -19.3260   22.0479 C   0  0  1  0  0  0  0  0  0  0  0  0
    1.4920  -18.9947   23.1734 C   0  0  0  0  0  0  0  0  0  0  0  0
    0.1005  -19.3179   22.7207 C   0  0  0  0  0  0  0  0  0  0  0  0
   -0.4412  -20.5882   23.2858 C   0  0  0  0  0  0  0  0  0  0  0  0
   -1.9265  -20.7079   23.0069 C   0  0  0  0  0  0  0  0  0  0  0  0
   -2.4561  -21.9735   23.4656 N   0  0  0  0  0  0  0  0  0  0  0  0
    3.8498  -19.3815   22.5068 C   0  0  0  0  0  0  0  0  0  0  0  0
    4.3485  -20.4164   23.0469 O   0  0  0  0  0  0  0  0  0  0  0  0
    6.2827  -16.0448   22.0662 O   0  0  0  0  0  0  0  0  0  0  0  0
    6.9027  -17.2758   21.9349 C   0  0  0  0  0  0  0  0  0  0  0  0
    6.1207  -18.2914   22.7463 C   0  0  2  0  0  0  0  0  0  0  0  0
    4.7058  -18.2576   22.3565 N   0  0  0  0  0  0  0  0  0  0  0  0
    6.2628  -18.0389   24.1978 C   0  0  0  0  0  0  0  0  0  0  0  0
    5.3901  -17.3224   24.7585 O   0  0  0  0  0  0  0  0  0  0  0  0
    7.2992  -18.5346   25.0222 N   0  0  0  0  0  0  0  0  0  0  0  0
    7.3169  -18.2821   26.4684 C   0  0  0  0  0  0  0  0  0  0  0  0
    8.5290  -18.9101   27.0567 C   0  0  0  0  0  0  0  0  0  0  0  0
    8.8284  -18.8519   28.3963 O   0  0  0  0  0  0  0  0  0  0  0  0
    9.3387  -19.5323   26.3158 O   0  0  0  0  0  0  0  0  0  0  0  0
  2  1  1  1
  3  2  1  0
  4  3  1  0
  5  4  1  0
  6  5  1  0
  7  6  1  0
  8 13  1  0
  8  2  1  0
  9  8  2  0
 10 11  1  0
 12 11  1  6
 12 13  1  0
 14 12  1  0
 14 15  2  0
 16 14  1  0
 17 16  1  0
 18 17  1  0
 19 18  1  0
 20 18  2  0
M  END
$$$$
