KSG.pdb
     RDKit          3D

 20 19  0  0  1  0  0  0  0  0999 V2000
    7.7539  -13.0246   17.1182 N   0  0  0  0  0  0  0  0  0  0  0  0
    7.6833  -14.1872   17.9640 C   0  0  1  0  0  0  0  0  0  0  0  0
    8.2561  -15.3628   17.2055 C   0  0  0  0  0  0  0  0  0  0  0  0
    7.3997  -15.6064   16.0002 C   0  0  0  0  0  0  0  0  0  0  0  0
    7.9159  -16.6751   15.0958 C   0  0  0  0  0  0  0  0  0  0  0  0
    7.0706  -16.7689   13.8407 C   0  0  0  0  0  0  0  0  0  0  0  0
    7.6565  -17.6645   12.8675 N   0  0  0  0  0  0  0  0  0  0  0  0
    8.4204  -13.9219   19.2179 C   0  0  0  0  0  0  0  0  0  0  0  0
    9.4929  -13.2435   19.2460 O   0  0  0  0  0  0  0  0  0  0  0  0
    6.7775  -14.8695   22.9285 O   0  0  0  0  0  0  0  0  0  0  0  0
    7.7556  -13.8941   22.8348 C   0  0  0  0  0  0  0  0  0  0  0  0
    8.6986  -14.2725   21.7084 C   0  0  2  0  0  0  0  0  0  0  0  0
    7.9450  -14.4265   20.4581 N   0  0  0  0  0  0  0  0  0  0  0  0
    9.4353  -15.5168   22.0241 C   0  0  0  0  0  0  0  0  0  0  0  0
    8.8335  -16.6132   21.8653 O   0  0  0  0  0  0  0  0  0  0  0  0
   10.7680  -15.5887   22.4916 N   0  0  0  0  0  0  0  0  0  0  0  0
   11.3416  -16.8470   22.9849 C   0  0  0  0  0  0  0  0  0  0  0  0
   12.7550  -16.6141   23.3819 C   0  0  0  0  0  0  0  0  0  0  0  0
   13.4056  -15.4221   23.1730 O   0  0  0  0  0  0  0  0  0  0  0  0
   13.4130  -17.5354   23.9385 O   0  0  0  0  0  0  0  0  0  0  0  0
  2  1  1  6
  3  2  1  0
  4  3  1  0
  5  4  1  0
  6  5  1  0
  7  6  1  0
  8 13  1  0
  8  2  1  0
  9  8  2  0
 10 11  1  0
 12 11  1  1
 12 13  1  0
 14 12  1  0
 14 15  2  0
 16 14  1  0
 17 16  1  0
 18 17  1  0
 19 18  1  0
 20 18  2  0
M  END
$$$$
