KSG.pdb
     RDKit          3D

 20 19  0  0  1  0  0  0  0  0999 V2000
   12.0528  -18.1039   18.3157 N   0  0  0  0  0  0  0  0  0  0  0  0
   11.0923  -18.3349   19.3625 C   0  0  1  0  0  0  0  0  0  0  0  0
   10.6981  -19.7941   19.3328 C   0  0  0  0  0  0  0  0  0  0  0  0
   10.4274  -20.1786   17.9100 C   0  0  0  0  0  0  0  0  0  0  0  0
   10.1006  -21.6226   17.7240 C   0  0  0  0  0  0  0  0  0  0  0  0
    9.9105  -21.9436   16.2545 C   0  0  0  0  0  0  0  0  0  0  0  0
    9.6768  -23.3552   16.0418 N   0  0  0  0  0  0  0  0  0  0  0  0
   11.6840  -17.9450   20.6602 C   0  0  0  0  0  0  0  0  0  0  0  0
   12.9373  -17.9370   20.8614 O   0  0  0  0  0  0  0  0  0  0  0  0
    9.3032  -16.2636   23.6417 O   0  0  0  0  0  0  0  0  0  0  0  0
   10.6436  -15.9281   23.5543 C   0  0  0  0  0  0  0  0  0  0  0  0
   11.4042  -17.1362   23.0415 C   0  0  2  0  0  0  0  0  0  0  0  0
   10.8548  -17.5584   21.7473 N   0  0  0  0  0  0  0  0  0  0  0  0
   11.3525  -18.2516   24.0131 C   0  0  0  0  0  0  0  0  0  0  0  0
   10.4316  -19.1028   23.8832 O   0  0  0  0  0  0  0  0  0  0  0  0
   12.2528  -18.4524   25.0849 N   0  0  0  0  0  0  0  0  0  0  0  0
   12.1320  -19.6079   25.9827 C   0  0  0  0  0  0  0  0  0  0  0  0
   13.1797  -19.5185   27.0335 C   0  0  0  0  0  0  0  0  0  0  0  0
   14.1164  -18.5142   27.0746 O   0  0  0  0  0  0  0  0  0  0  0  0
   13.2359  -20.3911   27.9428 O   0  0  0  0  0  0  0  0  0  0  0  0
  2  1  1  6
  3  2  1  0
  4  3  1  0
  5  4  1  0
  6  5  1  0
  7  6  1  0
  8 13  1  0
  8  2  1  0
  9  8  2  0
 10 11  1  0
 12 11  1  1
 12 13  1  0
 14 12  1  0
 14 15  2  0
 16 14  1  0
 17 16  1  0
 18 17  1  0
 19 18  1  0
 20 18  2  0
M  END
$$$$
