KSG.pdb
     RDKit          3D

 20 19  0  0  1  0  0  0  0  0999 V2000
    9.2319  -17.6983   18.5357 N   0  0  0  0  0  0  0  0  0  0  0  0
    9.7941  -18.3390   19.6956 C   0  0  1  0  0  0  0  0  0  0  0  0
   10.5404  -19.5732   19.2424 C   0  0  0  0  0  0  0  0  0  0  0  0
    9.8748  -20.0971   18.0063 C   0  0  0  0  0  0  0  0  0  0  0  0
   10.5767  -21.2586   17.3858 C   0  0  0  0  0  0  0  0  0  0  0  0
    9.8982  -21.6657   16.0926 C   0  0  0  0  0  0  0  0  0  0  0  0
   10.6546  -22.6773   15.3876 N   0  0  0  0  0  0  0  0  0  0  0  0
   10.6755  -17.3834   20.3999 C   0  0  0  0  0  0  0  0  0  0  0  0
   11.6207  -16.7710   19.8143 O   0  0  0  0  0  0  0  0  0  0  0  0
   10.1560  -16.7163   24.4753 O   0  0  0  0  0  0  0  0  0  0  0  0
   10.6332  -15.6491   23.7336 C   0  0  0  0  0  0  0  0  0  0  0  0
   11.3684  -16.1995   22.5262 C   0  0  2  0  0  0  0  0  0  0  0  0
   10.4917  -17.1123   21.7825 N   0  0  0  0  0  0  0  0  0  0  0  0
   12.6129  -16.8923   22.9290 C   0  0  0  0  0  0  0  0  0  0  0  0
   12.5706  -18.1447   23.0672 O   0  0  0  0  0  0  0  0  0  0  0  0
   13.8590  -16.2706   23.1743 N   0  0  0  0  0  0  0  0  0  0  0  0
   15.1099  -17.0390   23.1925 C   0  0  0  0  0  0  0  0  0  0  0  0
   16.2433  -16.1161   23.4634 C   0  0  0  0  0  0  0  0  0  0  0  0
   17.5306  -16.5500   23.6692 O   0  0  0  0  0  0  0  0  0  0  0  0
   16.0442  -14.8713   23.5124 O   0  0  0  0  0  0  0  0  0  0  0  0
  2  1  1  6
  3  2  1  0
  4  3  1  0
  5  4  1  0
  6  5  1  0
  7  6  1  0
  8 13  1  0
  8  2  1  0
  9  8  2  0
 10 11  1  0
 12 11  1  1
 12 13  1  0
 14 12  1  0
 14 15  2  0
 16 14  1  0
 17 16  1  0
 18 17  1  0
 19 18  1  0
 20 18  2  0
M  END
$$$$
