KSG.pdb
     RDKit          3D

 20 19  0  0  1  0  0  0  0  0999 V2000
   10.0514  -17.8771   17.3646 N   0  0  0  0  0  0  0  0  0  0  0  0
   11.4791  -17.8623   17.1817 C   0  0  1  0  0  0  0  0  0  0  0  0
   11.7723  -17.4355   15.7614 C   0  0  0  0  0  0  0  0  0  0  0  0
   10.8108  -18.1383   14.8519 C   0  0  0  0  0  0  0  0  0  0  0  0
   10.9379  -17.7480   13.4172 C   0  0  0  0  0  0  0  0  0  0  0  0
    9.9228  -18.4885   12.5689 C   0  0  0  0  0  0  0  0  0  0  0  0
   10.0594  -18.1628   11.1661 N   0  0  0  0  0  0  0  0  0  0  0  0
   12.0871  -16.9496   18.1734 C   0  0  0  0  0  0  0  0  0  0  0  0
   13.3305  -16.6943   18.1903 O   0  0  0  0  0  0  0  0  0  0  0  0
    9.8879  -15.3549   21.4551 O   0  0  0  0  0  0  0  0  0  0  0  0
   10.7488  -14.5352   20.7453 C   0  0  0  0  0  0  0  0  0  0  0  0
   11.8501  -15.3970   20.1574 C   0  0  2  0  0  0  0  0  0  0  0  0
   11.2859  -16.3148   19.1602 N   0  0  0  0  0  0  0  0  0  0  0  0
   12.5575  -16.1541   21.2144 C   0  0  0  0  0  0  0  0  0  0  0  0
   11.8957  -16.9990   21.8759 O   0  0  0  0  0  0  0  0  0  0  0  0
   13.9234  -16.0153   21.5528 N   0  0  0  0  0  0  0  0  0  0  0  0
   14.3653  -15.9539   22.9516 C   0  0  0  0  0  0  0  0  0  0  0  0
   15.8324  -15.7172   22.9878 C   0  0  0  0  0  0  0  0  0  0  0  0
   16.6004  -15.5960   21.8550 O   0  0  0  0  0  0  0  0  0  0  0  0
   16.4274  -15.6186   24.0958 O   0  0  0  0  0  0  0  0  0  0  0  0
  2  1  1  6
  3  2  1  0
  4  3  1  0
  5  4  1  0
  6  5  1  0
  7  6  1  0
  8 13  1  0
  8  2  1  0
  9  8  2  0
 10 11  1  0
 12 11  1  1
 12 13  1  0
 14 12  1  0
 14 15  2  0
 16 14  1  0
 17 16  1  0
 18 17  1  0
 19 18  1  0
 20 18  2  0
M  END
$$$$
