MWD.pdb
     RDKit          3D

 31 32  0  0  1  0  0  0  0  0999 V2000
   30.1736  -21.7066  -18.4734 C   0  0  0  0  0  0  0  0  0  0  0  0
   29.2638  -22.1048  -16.9699 S   0  0  0  0  0  0  0  0  0  0  0  0
   30.1116  -21.5732  -15.4830 C   0  0  0  0  0  0  0  0  0  0  0  0
   29.3321  -21.9626  -14.2283 C   0  0  0  0  0  0  0  0  0  0  0  0
   28.0312  -21.1958  -14.2848 C   0  0  2  0  0  0  0  0  0  0  0  0
   28.3234  -19.7904  -14.3361 N   0  0  0  0  0  0  0  0  0  0  0  0
   27.1384  -21.4679  -13.1502 C   0  0  0  0  0  0  0  0  0  0  0  0
   26.7276  -22.6361  -12.9655 O   0  0  0  0  0  0  0  0  0  0  0  0
   26.6999  -20.4699  -12.2271 N   0  0  0  0  0  0  0  0  0  0  0  0
   25.7765  -20.7237  -11.1551 C   0  0  1  0  0  0  0  0  0  0  0  0
   26.1000  -20.0266   -9.8602 C   0  0  0  0  0  0  0  0  0  0  0  0
   27.2836  -20.5343   -9.1559 C   0  0  0  0  0  0  0  0  0  0  0  0
   28.2831  -21.3210   -9.6882 C   0  0  0  0  0  0  0  0  0  0  0  0
   29.1866  -21.5991   -8.7360 N   0  0  0  0  0  0  0  0  0  0  0  0
   28.8199  -21.0194   -7.5792 C   0  0  0  0  0  0  0  0  0  0  0  0
   29.4008  -20.9918   -6.3088 C   0  0  0  0  0  0  0  0  0  0  0  0
   28.8124  -20.3018   -5.2728 C   0  0  0  0  0  0  0  0  0  0  0  0
   27.6344  -19.6387   -5.5221 C   0  0  0  0  0  0  0  0  0  0  0  0
   27.0623  -19.6659   -6.7731 C   0  0  0  0  0  0  0  0  0  0  0  0
   27.6285  -20.3519   -7.8404 C   0  0  0  0  0  0  0  0  0  0  0  0
   24.3655  -20.4652  -11.5744 C   0  0  0  0  0  0  0  0  0  0  0  0
   23.9394  -19.3024  -11.7938 O   0  0  0  0  0  0  0  0  0  0  0  0
   23.4355  -21.5489  -11.7432 N   0  0  0  0  0  0  0  0  0  0  0  0
   22.0860  -21.2600  -12.1903 C   0  0  1  0  0  0  0  0  0  0  0  0
   21.3994  -22.4735  -12.7289 C   0  0  0  0  0  0  0  0  0  0  0  0
   19.9939  -22.2820  -13.0550 C   0  0  0  0  0  0  0  0  0  0  0  0
   19.6283  -21.3255  -13.7687 O   0  0  0  0  0  0  0  0  0  0  0  0
   21.2985  -20.6009  -11.1053 C   0  0  0  0  0  0  0  0  0  0  0  0
   20.4871  -19.6740  -11.3431 O   0  0  0  0  0  0  0  0  0  0  0  0
   19.0414  -23.1568  -12.5796 O   0  0  0  0  0  0  0  0  0  0  0  0
   21.4419  -20.9982   -9.7861 O   0  0  0  0  0  0  0  0  0  0  0  0
  2  1  1  0
  3  2  1  0
  4  3  1  0
  5  4  1  0
  5  6  1  1
  7  5  1  0
  8  7  2  0
  9  7  1  0
 10  9  1  0
 11 12  1  0
 10 11  1  1
 12 20  1  0
 12 13  2  0
 13 14  1  0
 15 14  1  0
 15 16  2  0
 17 16  1  0
 18 17  2  0
 19 20  2  0
 19 18  1  0
 20 15  1  0
 21 22  2  0
 21 10  1  0
 23 21  1  0
 24 23  1  0
 24 25  1  1
 26 25  1  0
 27 26  2  0
 28 24  1  0
 29 28  2  0
 30 26  1  0
 31 28  1  0
M  END
$$$$
