MWD.pdb
     RDKit          3D

 31 32  0  0  1  0  0  0  0  0999 V2000
   38.5235  -32.2930  -19.4322 C   0  0  0  0  0  0  0  0  0  0  0  0
   36.9560  -32.0477  -18.5782 S   0  0  0  0  0  0  0  0  0  0  0  0
   35.5689  -32.7773  -19.4476 C   0  0  0  0  0  0  0  0  0  0  0  0
   34.3093  -32.7801  -18.5834 C   0  0  0  0  0  0  0  0  0  0  0  0
   33.7827  -31.3638  -18.6004 C   0  0  2  0  0  0  0  0  0  0  0  0
   34.2804  -30.6704  -17.4452 N   0  0  0  0  0  0  0  0  0  0  0  0
   32.3161  -31.2819  -18.6251 C   0  0  0  0  0  0  0  0  0  0  0  0
   31.6800  -31.4326  -17.5572 O   0  0  0  0  0  0  0  0  0  0  0  0
   31.5537  -31.0373  -19.8080 N   0  0  0  0  0  0  0  0  0  0  0  0
   30.1170  -31.0545  -19.8504 C   0  0  1  0  0  0  0  0  0  0  0  0
   29.5146  -30.5905  -21.1501 C   0  0  0  0  0  0  0  0  0  0  0  0
   28.0527  -30.4581  -21.1493 C   0  0  0  0  0  0  0  0  0  0  0  0
   27.3107  -29.5358  -20.4421 C   0  0  0  0  0  0  0  0  0  0  0  0
   26.0055  -29.7360  -20.6809 N   0  0  0  0  0  0  0  0  0  0  0  0
   25.8525  -30.7677  -21.5299 C   0  0  0  0  0  0  0  0  0  0  0  0
   24.7249  -31.3700  -22.0937 C   0  0  0  0  0  0  0  0  0  0  0  0
   24.8451  -32.4329  -22.9605 C   0  0  0  0  0  0  0  0  0  0  0  0
   26.1078  -32.8874  -23.2577 C   0  0  0  0  0  0  0  0  0  0  0  0
   27.2182  -32.2943  -22.7025 C   0  0  0  0  0  0  0  0  0  0  0  0
   27.1336  -31.2210  -21.8246 C   0  0  0  0  0  0  0  0  0  0  0  0
   29.5725  -32.3853  -19.4429 C   0  0  0  0  0  0  0  0  0  0  0  0
   29.9928  -33.4583  -19.9467 O   0  0  0  0  0  0  0  0  0  0  0  0
   28.5375  -32.4866  -18.4498 N   0  0  0  0  0  0  0  0  0  0  0  0
   27.9591  -33.7850  -18.1605 C   0  0  1  0  0  0  0  0  0  0  0  0
   28.7785  -34.5607  -17.1800 C   0  0  0  0  0  0  0  0  0  0  0  0
   28.9992  -35.9535  -17.5399 C   0  0  0  0  0  0  0  0  0  0  0  0
   28.4738  -36.4401  -18.5623 O   0  0  0  0  0  0  0  0  0  0  0  0
   26.5376  -33.6459  -17.7227 C   0  0  0  0  0  0  0  0  0  0  0  0
   25.7791  -34.6382  -17.6042 O   0  0  0  0  0  0  0  0  0  0  0  0
   29.7945  -36.7598  -16.7552 O   0  0  0  0  0  0  0  0  0  0  0  0
   26.0064  -32.4004  -17.4304 O   0  0  0  0  0  0  0  0  0  0  0  0
  2  1  1  0
  3  2  1  0
  4  3  1  0
  5  4  1  0
  5  6  1  1
  7  5  1  0
  8  7  2  0
  9  7  1  0
 10  9  1  0
 11 12  1  0
 10 11  1  6
 12 20  1  0
 12 13  2  0
 13 14  1  0
 15 14  1  0
 15 16  2  0
 17 16  1  0
 18 17  2  0
 19 20  2  0
 19 18  1  0
 20 15  1  0
 21 22  2  0
 21 10  1  0
 23 21  1  0
 24 23  1  0
 24 25  1  1
 26 25  1  0
 27 26  2  0
 28 24  1  0
 29 28  2  0
 30 26  1  0
 31 28  1  0
M  END
$$$$
