MWD.pdb
     RDKit          3D

 31 32  0  0  1  0  0  0  0  0999 V2000
   26.5450  -16.9454  -17.2946 C   0  0  0  0  0  0  0  0  0  0  0  0
   28.1947  -16.7731  -16.5906 S   0  0  0  0  0  0  0  0  0  0  0  0
   28.6989  -18.2075  -15.6416 C   0  0  0  0  0  0  0  0  0  0  0  0
   27.5142  -18.8356  -14.9099 C   0  0  0  0  0  0  0  0  0  0  0  0
   28.0372  -20.0991  -14.2668 C   0  0  2  0  0  0  0  0  0  0  0  0
   28.4161  -21.0223  -15.2999 N   0  0  0  0  0  0  0  0  0  0  0  0
   27.0720  -20.7433  -13.3659 C   0  0  0  0  0  0  0  0  0  0  0  0
   26.5504  -21.8288  -13.7083 O   0  0  0  0  0  0  0  0  0  0  0  0
   26.6821  -20.2036  -12.1021 N   0  0  0  0  0  0  0  0  0  0  0  0
   25.6716  -20.7863  -11.2620 C   0  0  1  0  0  0  0  0  0  0  0  0
   25.7602  -20.4084   -9.8071 C   0  0  0  0  0  0  0  0  0  0  0  0
   27.0592  -20.6639   -9.1731 C   0  0  0  0  0  0  0  0  0  0  0  0
   28.1091  -21.3800   -9.7082 C   0  0  0  0  0  0  0  0  0  0  0  0
   29.1212  -21.4128   -8.8278 N   0  0  0  0  0  0  0  0  0  0  0  0
   28.7782  -20.7372   -7.7166 C   0  0  0  0  0  0  0  0  0  0  0  0
   29.4568  -20.4686   -6.5253 C   0  0  0  0  0  0  0  0  0  0  0  0
   28.8694  -19.7288   -5.5237 C   0  0  0  0  0  0  0  0  0  0  0  0
   27.5935  -19.2599   -5.7274 C   0  0  0  0  0  0  0  0  0  0  0  0
   26.9251  -19.5244   -6.9006 C   0  0  0  0  0  0  0  0  0  0  0  0
   27.4873  -20.2672   -7.9313 C   0  0  0  0  0  0  0  0  0  0  0  0
   24.3005  -20.5432  -11.8047 C   0  0  0  0  0  0  0  0  0  0  0  0
   23.8391  -19.3823  -11.9501 O   0  0  0  0  0  0  0  0  0  0  0  0
   23.4515  -21.6402  -12.1835 N   0  0  0  0  0  0  0  0  0  0  0  0
   22.1711  -21.3618  -12.8058 C   0  0  1  0  0  0  0  0  0  0  0  0
   21.8186  -22.3751  -13.8467 C   0  0  0  0  0  0  0  0  0  0  0  0
   21.5545  -21.8231  -15.1672 C   0  0  0  0  0  0  0  0  0  0  0  0
   21.5055  -20.5887  -15.3455 O   0  0  0  0  0  0  0  0  0  0  0  0
   21.1008  -21.2175  -11.7735 C   0  0  0  0  0  0  0  0  0  0  0  0
   19.9263  -20.8957  -12.0752 O   0  0  0  0  0  0  0  0  0  0  0  0
   21.3540  -22.6574  -16.2453 O   0  0  0  0  0  0  0  0  0  0  0  0
   21.3762  -21.4376  -10.4339 O   0  0  0  0  0  0  0  0  0  0  0  0
  2  1  1  0
  3  2  1  0
  4  3  1  0
  5  4  1  0
  5  6  1  6
  7  5  1  0
  8  7  2  0
  9  7  1  0
 10  9  1  0
 11 12  1  0
 10 11  1  1
 12 20  1  0
 12 13  2  0
 13 14  1  0
 15 14  1  0
 15 16  2  0
 17 16  1  0
 18 17  2  0
 19 20  2  0
 19 18  1  0
 20 15  1  0
 21 22  2  0
 21 10  1  0
 23 21  1  0
 24 23  1  0
 24 25  1  6
 26 25  1  0
 27 26  2  0
 28 24  1  0
 29 28  2  0
 30 26  1  0
 31 28  1  0
M  END
$$$$
