MWD.pdb
     RDKit          3D

 31 32  0  0  1  0  0  0  0  0999 V2000
   10.2616  -11.0239  -10.1461 C   0  0  0  0  0  0  0  0  0  0  0  0
   11.6253  -10.1683   -9.3368 S   0  0  0  0  0  0  0  0  0  0  0  0
   13.1902  -10.4022  -10.1786 C   0  0  0  0  0  0  0  0  0  0  0  0
   14.3183   -9.6485   -9.4764 C   0  0  0  0  0  0  0  0  0  0  0  0
   15.5504   -9.8430  -10.3294 C   0  0  2  0  0  0  0  0  0  0  0  0
   16.1128  -11.1334  -10.0440 N   0  0  0  0  0  0  0  0  0  0  0  0
   16.5742   -8.8086  -10.1281 C   0  0  0  0  0  0  0  0  0  0  0  0
   17.2825   -8.8459   -9.0964 O   0  0  0  0  0  0  0  0  0  0  0  0
   16.8194   -7.7439  -11.0482 N   0  0  0  0  0  0  0  0  0  0  0  0
   17.8401   -6.7484  -10.8644 C   0  0  1  0  0  0  0  0  0  0  0  0
   18.8850   -6.7031  -11.9477 C   0  0  0  0  0  0  0  0  0  0  0  0
   19.8874   -7.7741  -11.8942 C   0  0  0  0  0  0  0  0  0  0  0  0
   20.0865   -8.7621  -12.8352 C   0  0  0  0  0  0  0  0  0  0  0  0
   21.0799   -9.5687  -12.4315 N   0  0  0  0  0  0  0  0  0  0  0  0
   21.5528   -9.1476  -11.2450 C   0  0  0  0  0  0  0  0  0  0  0  0
   22.5684   -9.6196  -10.4097 C   0  0  0  0  0  0  0  0  0  0  0  0
   22.8651   -8.9866   -9.2236 C   0  0  0  0  0  0  0  0  0  0  0  0
   22.1334   -7.8744   -8.8818 C   0  0  0  0  0  0  0  0  0  0  0  0
   21.1332   -7.4095   -9.7044 C   0  0  0  0  0  0  0  0  0  0  0  0
   20.8073   -8.0235  -10.9072 C   0  0  0  0  0  0  0  0  0  0  0  0
   17.2502   -5.3971  -10.6207 C   0  0  0  0  0  0  0  0  0  0  0  0
   16.3668   -4.9116  -11.3729 O   0  0  0  0  0  0  0  0  0  0  0  0
   17.6768   -4.5958   -9.5055 N   0  0  0  0  0  0  0  0  0  0  0  0
   17.1436   -3.2555   -9.3522 C   0  0  1  0  0  0  0  0  0  0  0  0
   17.4218   -2.6904   -7.9966 C   0  0  0  0  0  0  0  0  0  0  0  0
   16.9401   -1.3320   -7.7940 C   0  0  0  0  0  0  0  0  0  0  0  0
   16.2647   -0.7561   -8.6717 O   0  0  0  0  0  0  0  0  0  0  0  0
   17.6315   -2.3632  -10.4466 C   0  0  0  0  0  0  0  0  0  0  0  0
   16.9096   -1.4649  -10.9424 O   0  0  0  0  0  0  0  0  0  0  0  0
   17.2227   -0.6580   -6.6260 O   0  0  0  0  0  0  0  0  0  0  0  0
   18.9129   -2.5022  -10.9540 O   0  0  0  0  0  0  0  0  0  0  0  0
  2  1  1  0
  3  2  1  0
  4  3  1  0
  5  4  1  0
  5  6  1  1
  7  5  1  0
  8  7  2  0
  9  7  1  0
 10  9  1  0
 11 12  1  0
 10 11  1  6
 12 20  1  0
 12 13  2  0
 13 14  1  0
 15 14  1  0
 15 16  2  0
 17 16  1  0
 18 17  2  0
 19 20  2  0
 19 18  1  0
 20 15  1  0
 21 22  2  0
 21 10  1  0
 23 21  1  0
 24 23  1  0
 24 25  1  1
 26 25  1  0
 27 26  2  0
 28 24  1  0
 29 28  2  0
 30 26  1  0
 31 28  1  0
M  END
$$$$
