MWD.pdb
     RDKit          3D

 31 32  0  0  1  0  0  0  0  0999 V2000
   25.1039  -24.8548  -19.8249 C   0  0  0  0  0  0  0  0  0  0  0  0
   26.5312  -23.9278  -20.4164 S   0  0  0  0  0  0  0  0  0  0  0  0
   27.8446  -23.8233  -19.2013 C   0  0  0  0  0  0  0  0  0  0  0  0
   27.3023  -23.9727  -17.7811 C   0  0  0  0  0  0  0  0  0  0  0  0
   27.0743  -22.5702  -17.2668 C   0  0  2  0  0  0  0  0  0  0  0  0
   28.2998  -21.8297  -17.3810 N   0  0  0  0  0  0  0  0  0  0  0  0
   26.6030  -22.5231  -15.8761 C   0  0  0  0  0  0  0  0  0  0  0  0
   25.9592  -23.4945  -15.4184 O   0  0  0  0  0  0  0  0  0  0  0  0
   26.8349  -21.4226  -14.9955 N   0  0  0  0  0  0  0  0  0  0  0  0
   26.2757  -21.3247  -13.6748 C   0  0  1  0  0  0  0  0  0  0  0  0
   26.9788  -20.3591  -12.7578 C   0  0  0  0  0  0  0  0  0  0  0  0
   26.5342  -20.3891  -11.3592 C   0  0  0  0  0  0  0  0  0  0  0  0
   25.2752  -20.0799  -10.8894 C   0  0  0  0  0  0  0  0  0  0  0  0
   25.2543  -20.2057   -9.5536 N   0  0  0  0  0  0  0  0  0  0  0  0
   26.4657  -20.5916   -9.1151 C   0  0  0  0  0  0  0  0  0  0  0  0
   26.9674  -20.8655   -7.8402 C   0  0  0  0  0  0  0  0  0  0  0  0
   28.2742  -21.2597   -7.6600 C   0  0  0  0  0  0  0  0  0  0  0  0
   29.0749  -21.3770   -8.7711 C   0  0  0  0  0  0  0  0  0  0  0  0
   28.5809  -21.1072  -10.0266 C   0  0  0  0  0  0  0  0  0  0  0  0
   27.2684  -20.7073  -10.2446 C   0  0  0  0  0  0  0  0  0  0  0  0
   24.8056  -21.0596  -13.7202 C   0  0  0  0  0  0  0  0  0  0  0  0
   24.3299  -20.0474  -14.2955 O   0  0  0  0  0  0  0  0  0  0  0  0
   23.8735  -21.9623  -13.1007 N   0  0  0  0  0  0  0  0  0  0  0  0
   22.4539  -21.7915  -13.3455 C   0  0  1  0  0  0  0  0  0  0  0  0
   21.8171  -23.0412  -13.8622 C   0  0  0  0  0  0  0  0  0  0  0  0
   20.3744  -22.9610  -14.0363 C   0  0  0  0  0  0  0  0  0  0  0  0
   19.8321  -21.8941  -14.3907 O   0  0  0  0  0  0  0  0  0  0  0  0
   21.7654  -21.2697  -12.1267 C   0  0  0  0  0  0  0  0  0  0  0  0
   20.5385  -21.0077  -12.1180 O   0  0  0  0  0  0  0  0  0  0  0  0
   19.5816  -24.0654  -13.8121 O   0  0  0  0  0  0  0  0  0  0  0  0
   22.4699  -21.0564  -10.9532 O   0  0  0  0  0  0  0  0  0  0  0  0
  2  1  1  0
  3  2  1  0
  4  3  1  0
  5  4  1  0
  5  6  1  1
  7  5  1  0
  8  7  2  0
  9  7  1  0
 10  9  1  0
 11 12  1  0
 10 11  1  1
 12 20  1  0
 12 13  2  0
 13 14  1  0
 15 14  1  0
 15 16  2  0
 17 16  1  0
 18 17  2  0
 19 20  2  0
 19 18  1  0
 20 15  1  0
 21 22  2  0
 21 10  1  0
 23 21  1  0
 24 23  1  0
 24 25  1  1
 26 25  1  0
 27 26  2  0
 28 24  1  0
 29 28  2  0
 30 26  1  0
 31 28  1  0
M  END
$$$$
