MWD.pdb
     RDKit          3D

 31 32  0  0  1  0  0  0  0  0999 V2000
   27.3059  -19.1278  -16.0579 C   0  0  0  0  0  0  0  0  0  0  0  0
   29.0557  -18.9934  -15.6493 S   0  0  0  0  0  0  0  0  0  0  0  0
   29.7744  -20.5567  -15.1473 C   0  0  0  0  0  0  0  0  0  0  0  0
   28.8245  -21.3420  -14.2448 C   0  0  0  0  0  0  0  0  0  0  0  0
   28.5764  -20.4717  -13.0346 C   0  0  2  0  0  0  0  0  0  0  0  0
   29.7582  -20.4651  -12.2183 N   0  0  0  0  0  0  0  0  0  0  0  0
   27.4271  -20.9016  -12.2267 C   0  0  0  0  0  0  0  0  0  0  0  0
   26.7965  -21.9293  -12.5640 O   0  0  0  0  0  0  0  0  0  0  0  0
   26.9732  -20.2124  -11.0608 N   0  0  0  0  0  0  0  0  0  0  0  0
   25.8251  -20.6113  -10.2932 C   0  0  1  0  0  0  0  0  0  0  0  0
   25.6538  -19.8868   -8.9843 C   0  0  0  0  0  0  0  0  0  0  0  0
   26.8796  -19.7285   -8.1925 C   0  0  0  0  0  0  0  0  0  0  0  0
   27.9669  -18.9414   -8.5081 C   0  0  0  0  0  0  0  0  0  0  0  0
   28.9011  -19.0677   -7.5533 N   0  0  0  0  0  0  0  0  0  0  0  0
   28.4691  -19.9182   -6.6053 C   0  0  0  0  0  0  0  0  0  0  0  0
   29.0414  -20.3818   -5.4180 C   0  0  0  0  0  0  0  0  0  0  0  0
   28.3700  -21.2649   -4.6026 C   0  0  0  0  0  0  0  0  0  0  0  0
   27.1177  -21.6799   -4.9886 C   0  0  0  0  0  0  0  0  0  0  0  0
   26.5542  -21.2234   -6.1579 C   0  0  0  0  0  0  0  0  0  0  0  0
   27.2031  -20.3328   -7.0039 C   0  0  0  0  0  0  0  0  0  0  0  0
   24.5749  -20.5611  -11.1105 C   0  0  0  0  0  0  0  0  0  0  0  0
   24.2062  -19.5119  -11.6981 O   0  0  0  0  0  0  0  0  0  0  0  0
   23.7406  -21.7233  -11.2551 N   0  0  0  0  0  0  0  0  0  0  0  0
   22.5569  -21.6451  -12.0901 C   0  0  1  0  0  0  0  0  0  0  0  0
   22.0654  -22.9965  -12.4981 C   0  0  0  0  0  0  0  0  0  0  0  0
   20.7913  -22.9928  -13.2016 C   0  0  0  0  0  0  0  0  0  0  0  0
   19.7179  -22.8592  -12.5785 O   0  0  0  0  0  0  0  0  0  0  0  0
   21.4926  -20.8345  -11.4254 C   0  0  0  0  0  0  0  0  0  0  0  0
   20.7638  -20.0408  -12.0680 O   0  0  0  0  0  0  0  0  0  0  0  0
   20.7495  -23.1368  -14.5712 O   0  0  0  0  0  0  0  0  0  0  0  0
   21.2749  -20.9357  -10.0612 O   0  0  0  0  0  0  0  0  0  0  0  0
  2  1  1  0
  3  2  1  0
  4  3  1  0
  5  4  1  0
  5  6  1  1
  7  5  1  0
  8  7  2  0
  9  7  1  0
 10  9  1  0
 11 12  1  0
 10 11  1  1
 12 20  1  0
 12 13  2  0
 13 14  1  0
 15 14  1  0
 15 16  2  0
 17 16  1  0
 18 17  2  0
 19 20  2  0
 19 18  1  0
 20 15  1  0
 21 22  2  0
 21 10  1  0
 23 21  1  0
 24 23  1  0
 24 25  1  1
 26 25  1  0
 27 26  2  0
 28 24  1  0
 29 28  2  0
 30 26  1  0
 31 28  1  0
M  END
$$$$
