MWD.pdb
     RDKit          3D

 31 32  0  0  1  0  0  0  0  0999 V2000
   18.7397  -14.4260  -20.8383 C   0  0  0  0  0  0  0  0  0  0  0  0
   19.0379  -12.8449  -20.0271 S   0  0  0  0  0  0  0  0  0  0  0  0
   18.7948  -12.9171  -18.2528 C   0  0  0  0  0  0  0  0  0  0  0  0
   18.9414  -11.5372  -17.6141 C   0  0  0  0  0  0  0  0  0  0  0  0
   20.4065  -11.3813  -17.2783 C   0  0  2  0  0  0  0  0  0  0  0  0
   20.8194  -12.4984  -16.4753 N   0  0  0  0  0  0  0  0  0  0  0  0
   20.7182  -10.1309  -16.5727 C   0  0  0  0  0  0  0  0  0  0  0  0
   20.2153   -9.9270  -15.4444 O   0  0  0  0  0  0  0  0  0  0  0  0
   21.5727   -9.1140  -17.0982 N   0  0  0  0  0  0  0  0  0  0  0  0
   21.8468   -7.8741  -16.4245 C   0  0  1  0  0  0  0  0  0  0  0  0
   23.3082   -7.5598  -16.2431 C   0  0  0  0  0  0  0  0  0  0  0  0
   24.0873   -8.5908  -15.5467 C   0  0  0  0  0  0  0  0  0  0  0  0
   23.6989   -9.3021  -14.4311 C   0  0  0  0  0  0  0  0  0  0  0  0
   24.6824  -10.1415  -14.0727 N   0  0  0  0  0  0  0  0  0  0  0  0
   25.7200  -10.0125  -14.9185 C   0  0  0  0  0  0  0  0  0  0  0  0
   26.9638  -10.6445  -14.9935 C   0  0  0  0  0  0  0  0  0  0  0  0
   27.8637  -10.3272  -15.9860 C   0  0  0  0  0  0  0  0  0  0  0  0
   27.5051   -9.3690  -16.9040 C   0  0  0  0  0  0  0  0  0  0  0  0
   26.2803   -8.7466  -16.8301 C   0  0  0  0  0  0  0  0  0  0  0  0
   25.3489   -9.0420  -15.8425 C   0  0  0  0  0  0  0  0  0  0  0  0
   21.1197   -6.7330  -17.0592 C   0  0  0  0  0  0  0  0  0  0  0  0
   21.3214   -6.3985  -18.2547 O   0  0  0  0  0  0  0  0  0  0  0  0
   20.1537   -5.9691  -16.3169 N   0  0  0  0  0  0  0  0  0  0  0  0
   19.4364   -4.8980  -16.9820 C   0  0  1  0  0  0  0  0  0  0  0  0
   18.2230   -4.4741  -16.2190 C   0  0  0  0  0  0  0  0  0  0  0  0
   17.4594   -3.4013  -16.8389 C   0  0  0  0  0  0  0  0  0  0  0  0
   17.4397   -2.2586  -16.3369 O   0  0  0  0  0  0  0  0  0  0  0  0
   20.3485   -3.7514  -17.2739 C   0  0  0  0  0  0  0  0  0  0  0  0
   21.3968   -3.5521  -16.6141 O   0  0  0  0  0  0  0  0  0  0  0  0
   16.7439   -3.6306  -17.9938 O   0  0  0  0  0  0  0  0  0  0  0  0
   20.0609   -2.8613  -18.2956 O   0  0  0  0  0  0  0  0  0  0  0  0
  2  1  1  0
  3  2  1  0
  4  3  1  0
  5  4  1  0
  5  6  1  1
  7  5  1  0
  8  7  2  0
  9  7  1  0
 10  9  1  0
 11 12  1  0
 10 11  1  6
 12 20  1  0
 12 13  2  0
 13 14  1  0
 15 14  1  0
 15 16  2  0
 17 16  1  0
 18 17  2  0
 19 20  2  0
 19 18  1  0
 20 15  1  0
 21 22  2  0
 21 10  1  0
 23 21  1  0
 24 23  1  0
 24 25  1  1
 26 25  1  0
 27 26  2  0
 28 24  1  0
 29 28  2  0
 30 26  1  0
 31 28  1  0
M  END
$$$$
