MWD.pdb
     RDKit          3D

 31 32  0  0  1  0  0  0  0  0999 V2000
   25.5630  -21.8129  -20.4474 C   0  0  0  0  0  0  0  0  0  0  0  0
   27.2645  -21.2201  -20.4373 S   0  0  0  0  0  0  0  0  0  0  0  0
   28.1237  -21.5991  -18.9107 C   0  0  0  0  0  0  0  0  0  0  0  0
   27.1425  -21.9096  -17.7819 C   0  0  0  0  0  0  0  0  0  0  0  0
   27.9776  -22.0960  -16.5364 C   0  0  2  0  0  0  0  0  0  0  0  0
   28.6586  -23.3580  -16.6195 N   0  0  0  0  0  0  0  0  0  0  0  0
   27.1981  -22.0426  -15.2922 C   0  0  0  0  0  0  0  0  0  0  0  0
   26.9033  -23.1124  -14.7123 O   0  0  0  0  0  0  0  0  0  0  0  0
   26.7459  -20.8291  -14.6894 N   0  0  0  0  0  0  0  0  0  0  0  0
   25.9725  -20.7783  -13.4788 C   0  0  1  0  0  0  0  0  0  0  0  0
   26.4052  -19.7257  -12.4928 C   0  0  0  0  0  0  0  0  0  0  0  0
   27.3784  -20.1724  -11.4887 C   0  0  0  0  0  0  0  0  0  0  0  0
   28.6566  -20.6305  -11.7289 C   0  0  0  0  0  0  0  0  0  0  0  0
   29.2371  -20.9630  -10.5657 N   0  0  0  0  0  0  0  0  0  0  0  0
   28.3824  -20.7395   -9.5517 C   0  0  0  0  0  0  0  0  0  0  0  0
   28.4898  -20.9085   -8.1690 C   0  0  0  0  0  0  0  0  0  0  0  0
   27.4454  -20.5894   -7.3305 C   0  0  0  0  0  0  0  0  0  0  0  0
   26.2905  -20.0986   -7.8915 C   0  0  0  0  0  0  0  0  0  0  0  0
   26.1847  -19.9323   -9.2532 C   0  0  0  0  0  0  0  0  0  0  0  0
   27.2179  -20.2441  -10.1279 C   0  0  0  0  0  0  0  0  0  0  0  0
   24.5090  -20.6850  -13.7669 C   0  0  0  0  0  0  0  0  0  0  0  0
   24.0386  -19.8166  -14.5457 O   0  0  0  0  0  0  0  0  0  0  0  0
   23.5772  -21.5946  -13.1569 N   0  0  0  0  0  0  0  0  0  0  0  0
   22.1542  -21.3627  -13.3167 C   0  0  1  0  0  0  0  0  0  0  0  0
   21.3411  -22.5488  -12.9089 C   0  0  0  0  0  0  0  0  0  0  0  0
   19.9027  -22.3769  -13.0495 C   0  0  0  0  0  0  0  0  0  0  0  0
   19.4317  -21.6347  -13.9358 O   0  0  0  0  0  0  0  0  0  0  0  0
   21.7368  -20.1195  -12.6012 C   0  0  0  0  0  0  0  0  0  0  0  0
   22.2363  -19.7880  -11.4991 O   0  0  0  0  0  0  0  0  0  0  0  0
   19.0352  -23.0330  -12.2038 O   0  0  0  0  0  0  0  0  0  0  0  0
   20.7726  -19.2834  -13.1399 O   0  0  0  0  0  0  0  0  0  0  0  0
  2  1  1  0
  3  2  1  0
  4  3  1  0
  5  4  1  0
  5  6  1  6
  7  5  1  0
  8  7  2  0
  9  7  1  0
 10  9  1  0
 11 12  1  0
 10 11  1  6
 12 20  1  0
 12 13  2  0
 13 14  1  0
 15 14  1  0
 15 16  2  0
 17 16  1  0
 18 17  2  0
 19 20  2  0
 19 18  1  0
 20 15  1  0
 21 22  2  0
 21 10  1  0
 23 21  1  0
 24 23  1  0
 24 25  1  1
 26 25  1  0
 27 26  2  0
 28 24  1  0
 29 28  2  0
 30 26  1  0
 31 28  1  0
M  END
$$$$
