MWD.pdb
     RDKit          3D

 31 32  0  0  1  0  0  0  0  0999 V2000
   13.7630  -23.3499    3.3505 C   0  0  0  0  0  0  0  0  0  0  0  0
   15.2920  -22.5114    3.8038 S   0  0  0  0  0  0  0  0  0  0  0  0
   15.1452  -20.7257    3.7593 C   0  0  0  0  0  0  0  0  0  0  0  0
   16.4529  -20.0493    4.1666 C   0  0  0  0  0  0  0  0  0  0  0  0
   16.2021  -18.5614    4.0830 C   0  0  2  0  0  0  0  0  0  0  0  0
   16.1593  -18.1755    2.7001 N   0  0  0  0  0  0  0  0  0  0  0  0
   17.2102  -17.7549    4.7843 C   0  0  0  0  0  0  0  0  0  0  0  0
   18.3874  -17.7469    4.3581 O   0  0  0  0  0  0  0  0  0  0  0  0
   16.9311  -16.9647    5.9411 N   0  0  0  0  0  0  0  0  0  0  0  0
   17.9402  -16.2853    6.7069 C   0  0  1  0  0  0  0  0  0  0  0  0
   17.5913  -14.8766    7.1085 C   0  0  0  0  0  0  0  0  0  0  0  0
   18.2207  -13.8231    6.3030 C   0  0  0  0  0  0  0  0  0  0  0  0
   17.7032  -13.2356    5.1679 C   0  0  0  0  0  0  0  0  0  0  0  0
   18.5730  -12.3275    4.6997 N   0  0  0  0  0  0  0  0  0  0  0  0
   19.6598  -12.2899    5.4908 C   0  0  0  0  0  0  0  0  0  0  0  0
   20.8319  -11.5304    5.4530 C   0  0  0  0  0  0  0  0  0  0  0  0
   21.8094  -11.6834    6.4104 C   0  0  0  0  0  0  0  0  0  0  0  0
   21.6012  -12.6061    7.4077 C   0  0  0  0  0  0  0  0  0  0  0  0
   20.4469  -13.3540    7.4450 C   0  0  0  0  0  0  0  0  0  0  0  0
   19.4408  -13.2257    6.4957 C   0  0  0  0  0  0  0  0  0  0  0  0
   18.3721  -17.0959    7.8858 C   0  0  0  0  0  0  0  0  0  0  0  0
   17.5479  -17.5385    8.7264 O   0  0  0  0  0  0  0  0  0  0  0  0
   19.7604  -17.4013    8.1028 N   0  0  0  0  0  0  0  0  0  0  0  0
   20.1366  -18.2098    9.2470 C   0  0  1  0  0  0  0  0  0  0  0  0
   21.1715  -19.2307    8.8993 C   0  0  0  0  0  0  0  0  0  0  0  0
   21.3628  -20.2680    9.9021 C   0  0  0  0  0  0  0  0  0  0  0  0
   20.6090  -20.3443   10.8941 O   0  0  0  0  0  0  0  0  0  0  0  0
   20.5582  -17.3456   10.3904 C   0  0  0  0  0  0  0  0  0  0  0  0
   21.3981  -16.4240   10.2517 O   0  0  0  0  0  0  0  0  0  0  0  0
   22.3824  -21.1855    9.7719 O   0  0  0  0  0  0  0  0  0  0  0  0
   20.0278  -17.5380   11.6554 O   0  0  0  0  0  0  0  0  0  0  0  0
  2  1  1  0
  3  2  1  0
  4  3  1  0
  5  4  1  0
  5  6  1  6
  7  5  1  0
  8  7  2  0
  9  7  1  0
 10  9  1  0
 11 12  1  0
 10 11  1  1
 12 20  1  0
 12 13  2  0
 13 14  1  0
 15 14  1  0
 15 16  2  0
 17 16  1  0
 18 17  2  0
 19 20  2  0
 19 18  1  0
 20 15  1  0
 21 22  2  0
 21 10  1  0
 23 21  1  0
 24 23  1  0
 24 25  1  6
 26 25  1  0
 27 26  2  0
 28 24  1  0
 29 28  2  0
 30 26  1  0
 31 28  1  0
M  END
$$$$
