MWD.pdb
     RDKit          3D

 31 32  0  0  1  0  0  0  0  0999 V2000
   27.3297  -23.8008  -17.1716 C   0  0  0  0  0  0  0  0  0  0  0  0
   28.7312  -22.8089  -17.7181 S   0  0  0  0  0  0  0  0  0  0  0  0
   29.4709  -21.8594  -16.3901 C   0  0  0  0  0  0  0  0  0  0  0  0
   28.8341  -22.1964  -15.0431 C   0  0  0  0  0  0  0  0  0  0  0  0
   27.7275  -21.1885  -14.8356 C   0  0  2  0  0  0  0  0  0  0  0  0
   28.3053  -19.8760  -14.7535 N   0  0  0  0  0  0  0  0  0  0  0  0
   26.9185  -21.4419  -13.6357 C   0  0  0  0  0  0  0  0  0  0  0  0
   26.3394  -22.5453  -13.5140 O   0  0  0  0  0  0  0  0  0  0  0  0
   26.7457  -20.4958  -12.5796 N   0  0  0  0  0  0  0  0  0  0  0  0
   25.8659  -20.6989  -11.4611 C   0  0  1  0  0  0  0  0  0  0  0  0
   26.2482  -19.9545  -10.2093 C   0  0  0  0  0  0  0  0  0  0  0  0
   27.4664  -20.4333   -9.5449 C   0  0  0  0  0  0  0  0  0  0  0  0
   28.4349  -21.2489  -10.0910 C   0  0  0  0  0  0  0  0  0  0  0  0
   29.3870  -21.4853   -9.1755 N   0  0  0  0  0  0  0  0  0  0  0  0
   29.0831  -20.8494   -8.0300 C   0  0  0  0  0  0  0  0  0  0  0  0
   29.7305  -20.7638   -6.7949 C   0  0  0  0  0  0  0  0  0  0  0  0
   29.1990  -20.0226   -5.7636 C   0  0  0  0  0  0  0  0  0  0  0  0
   28.0109  -19.3668   -5.9818 C   0  0  0  0  0  0  0  0  0  0  0  0
   27.3733  -19.4512   -7.1982 C   0  0  0  0  0  0  0  0  0  0  0  0
   27.8808  -20.1898   -8.2597 C   0  0  0  0  0  0  0  0  0  0  0  0
   24.4406  -20.4443  -11.8316 C   0  0  0  0  0  0  0  0  0  0  0  0
   24.0717  -19.3588  -12.3487 O   0  0  0  0  0  0  0  0  0  0  0  0
   23.4301  -21.4424  -11.6070 N   0  0  0  0  0  0  0  0  0  0  0  0
   22.0970  -21.2316  -12.1386 C   0  0  1  0  0  0  0  0  0  0  0  0
   21.6430  -22.3736  -12.9896 C   0  0  0  0  0  0  0  0  0  0  0  0
   20.2974  -22.2340  -13.5263 C   0  0  0  0  0  0  0  0  0  0  0  0
   19.6006  -21.2353  -13.2522 O   0  0  0  0  0  0  0  0  0  0  0  0
   21.1310  -20.9273  -11.0404 C   0  0  0  0  0  0  0  0  0  0  0  0
   20.0365  -20.3542  -11.2586 O   0  0  0  0  0  0  0  0  0  0  0  0
   19.7695  -23.2053  -14.3488 O   0  0  0  0  0  0  0  0  0  0  0  0
   21.4180  -21.2732   -9.7301 O   0  0  0  0  0  0  0  0  0  0  0  0
  2  1  1  0
  3  2  1  0
  4  3  1  0
  5  4  1  0
  5  6  1  1
  7  5  1  0
  8  7  2  0
  9  7  1  0
 10  9  1  0
 11 12  1  0
 10 11  1  1
 12 20  1  0
 12 13  2  0
 13 14  1  0
 15 14  1  0
 15 16  2  0
 17 16  1  0
 18 17  2  0
 19 20  2  0
 19 18  1  0
 20 15  1  0
 21 22  2  0
 21 10  1  0
 23 21  1  0
 24 23  1  0
 24 25  1  1
 26 25  1  0
 27 26  2  0
 28 24  1  0
 29 28  2  0
 30 26  1  0
 31 28  1  0
M  END
$$$$
