MWD.pdb
     RDKit          3D

 31 32  0  0  1  0  0  0  0  0999 V2000
   26.1406  -16.2159  -15.9521 C   0  0  0  0  0  0  0  0  0  0  0  0
   27.8947  -16.5226  -16.2273 S   0  0  0  0  0  0  0  0  0  0  0  0
   28.4551  -18.0592  -15.4946 C   0  0  0  0  0  0  0  0  0  0  0  0
   27.3256  -18.7630  -14.7447 C   0  0  0  0  0  0  0  0  0  0  0  0
   27.9636  -19.9184  -14.0088 C   0  0  2  0  0  0  0  0  0  0  0  0
   28.4596  -20.8632  -14.9703 N   0  0  0  0  0  0  0  0  0  0  0  0
   27.0514  -20.5998  -13.0802 C   0  0  0  0  0  0  0  0  0  0  0  0
   26.3845  -21.5772  -13.4895 O   0  0  0  0  0  0  0  0  0  0  0  0
   26.8716  -20.2140  -11.7167 N   0  0  0  0  0  0  0  0  0  0  0  0
   25.8605  -20.7660  -10.8569 C   0  0  1  0  0  0  0  0  0  0  0  0
   26.0012  -20.4089   -9.4009 C   0  0  0  0  0  0  0  0  0  0  0  0
   27.3134  -20.6990   -8.8102 C   0  0  0  0  0  0  0  0  0  0  0  0
   28.2964  -21.5044   -9.3453 C   0  0  0  0  0  0  0  0  0  0  0  0
   29.3461  -21.5414   -8.5103 N   0  0  0  0  0  0  0  0  0  0  0  0
   29.0935  -20.7818   -7.4297 C   0  0  0  0  0  0  0  0  0  0  0  0
   29.8417  -20.4808   -6.2888 C   0  0  0  0  0  0  0  0  0  0  0  0
   29.3434  -19.6498   -5.3106 C   0  0  0  0  0  0  0  0  0  0  0  0
   28.0863  -19.1224   -5.4866 C   0  0  0  0  0  0  0  0  0  0  0  0
   27.3495  -19.4188   -6.6102 C   0  0  0  0  0  0  0  0  0  0  0  0
   27.8210  -20.2531   -7.6160 C   0  0  0  0  0  0  0  0  0  0  0  0
   24.4868  -20.4626  -11.3612 C   0  0  0  0  0  0  0  0  0  0  0  0
   24.1391  -19.2978  -11.6839 O   0  0  0  0  0  0  0  0  0  0  0  0
   23.5036  -21.5033  -11.4963 N   0  0  0  0  0  0  0  0  0  0  0  0
   22.2533  -21.2121  -12.1717 C   0  0  1  0  0  0  0  0  0  0  0  0
   21.9584  -22.1947  -13.2588 C   0  0  0  0  0  0  0  0  0  0  0  0
   20.6999  -21.9714  -13.9548 C   0  0  0  0  0  0  0  0  0  0  0  0
   20.4197  -20.8491  -14.4240 O   0  0  0  0  0  0  0  0  0  0  0  0
   21.1332  -21.1045  -11.1891 C   0  0  0  0  0  0  0  0  0  0  0  0
   19.9722  -20.7819  -11.5384 O   0  0  0  0  0  0  0  0  0  0  0  0
   19.7947  -22.9989  -14.1076 O   0  0  0  0  0  0  0  0  0  0  0  0
   21.3449  -21.3612   -9.8445 O   0  0  0  0  0  0  0  0  0  0  0  0
  2  1  1  0
  3  2  1  0
  4  3  1  0
  5  4  1  0
  5  6  1  6
  7  5  1  0
  8  7  2  0
  9  7  1  0
 10  9  1  0
 11 12  1  0
 10 11  1  1
 12 20  1  0
 12 13  2  0
 13 14  1  0
 15 14  1  0
 15 16  2  0
 17 16  1  0
 18 17  2  0
 19 20  2  0
 19 18  1  0
 20 15  1  0
 21 22  2  0
 21 10  1  0
 23 21  1  0
 24 23  1  0
 24 25  1  6
 26 25  1  0
 27 26  2  0
 28 24  1  0
 29 28  2  0
 30 26  1  0
 31 28  1  0
M  END
$$$$
