RME.pdb
     RDKit          3D

 29 28  0  0  1  0  0  0  0  0999 V2000
    8.9259  -12.1864   18.6651 N   0  0  0  0  0  0  0  0  0  0  0  0
    8.7558  -13.1938   17.6782 C   0  0  0  0  0  0  0  0  0  0  0  0
    9.3609  -13.0477   16.5656 N   0  0  0  0  0  0  0  0  0  0  0  0
    7.9582  -14.3375   17.8693 N   0  0  0  0  0  0  0  0  0  0  0  0
    6.9795  -14.3673   18.9046 C   0  0  0  0  0  0  0  0  0  0  0  0
    6.8787  -15.8232   19.3799 C   0  0  0  0  0  0  0  0  0  0  0  0
    8.1683  -16.2978   19.9601 C   0  0  0  0  0  0  0  0  0  0  0  0
    8.0193  -16.8699   21.3272 C   0  0  2  0  0  0  0  0  0  0  0  0
    6.6037  -16.8805   21.7170 N   0  0  0  0  0  0  0  0  0  0  0  0
    8.8249  -16.1939   22.3764 C   0  0  0  0  0  0  0  0  0  0  0  0
   10.0551  -16.1242   22.2672 O   0  0  0  0  0  0  0  0  0  0  0  0
    9.3341  -13.6079   15.7204 C   0  0  0  0  0  0  0  0  0  0  0  0
    5.1116  -12.1776   27.1734 S   0  0  0  0  0  0  0  0  0  0  0  0
    6.8743  -12.3840   26.7290 C   0  0  0  0  0  0  0  0  0  0  0  0
    7.0016  -13.5302   25.3022 C   0  0  0  0  0  0  0  0  0  0  0  0
    8.4686  -13.6084   24.9537 C   0  0  1  0  0  0  0  0  0  0  0  0
    8.9114  -15.0132   24.6237 N   0  0  0  0  0  0  0  0  0  0  0  0
    8.1973  -15.6088   23.5363 C   0  0  0  0  0  0  0  0  0  0  0  0
    8.8071  -15.8914   25.8135 O   0  0  0  0  0  0  0  0  0  0  0  0
    7.7634  -16.5272   26.0476 N   0  0  0  0  0  0  0  0  0  0  0  0
    9.9025  -15.9992   26.6759 C   0  0  1  0  0  0  0  0  0  0  0  0
   10.3910  -17.2539   27.2271 C   0  0  0  0  0  0  0  0  0  0  0  0
   11.3403  -17.8158   26.2188 C   0  0  0  0  0  0  0  0  0  0  0  0
   12.0230  -19.0825   26.6099 C   0  0  0  0  0  0  0  0  0  0  0  0
   12.9325  -19.5283   25.5092 O   0  0  0  0  0  0  0  0  0  0  0  0
   13.9469  -18.8913   25.1438 C   0  0  0  0  0  0  0  0  0  0  0  0
   11.0024  -16.9583   28.5444 O   0  0  0  0  0  0  0  0  0  0  0  0
   11.1978  -17.8805   29.3727 O   0  0  0  0  0  0  0  0  0  0  0  0
   12.6306  -20.7139   24.8617 O   0  0  0  0  0  0  0  0  0  0  0  0
  2  3  2  0
  2  1  1  0
  4  2  1  0
  5  4  1  0
  6  5  1  0
  7  6  1  0
  8  7  1  0
  8  9  1  1
 10  8  1  0
 10 17  1  0
 11 10  2  0
 12 13  1  0
 13 14  1  0
 16 15  1  6
 15 14  1  0
 16 17  1  0
 18 16  1  0
 19 18  2  0
 20 18  1  0
 21 20  1  0
 21 26  1  0
 21 22  1  1
 23 22  1  0
 24 25  2  0
 24 23  1  0
 26 29  1  0
 27 26  2  0
 28 24  1  0
M  END
$$$$
