RME.pdb
     RDKit          3D

 29 28  0  0  1  0  0  0  0  0999 V2000
    8.5257  -12.2718   17.4694 N   0  0  0  0  0  0  0  0  0  0  0  0
    7.9561  -13.3196   16.6977 C   0  0  0  0  0  0  0  0  0  0  0  0
    7.1910  -12.9997   15.7294 N   0  0  0  0  0  0  0  0  0  0  0  0
    8.1954  -14.6836   16.9488 N   0  0  0  0  0  0  0  0  0  0  0  0
    9.2159  -15.0790   17.8613 C   0  0  0  0  0  0  0  0  0  0  0  0
    8.5171  -15.7833   19.0324 C   0  0  0  0  0  0  0  0  0  0  0  0
    9.5037  -16.3033   20.0229 C   0  0  0  0  0  0  0  0  0  0  0  0
    8.8634  -16.9346   21.2103 C   0  0  2  0  0  0  0  0  0  0  0  0
    7.4016  -16.8780   21.0836 N   0  0  0  0  0  0  0  0  0  0  0  0
    9.2773  -16.3643   22.5180 C   0  0  0  0  0  0  0  0  0  0  0  0
   10.4747  -16.3187   22.8253 O   0  0  0  0  0  0  0  0  0  0  0  0
    6.6144  -13.5752   15.1250 C   0  0  0  0  0  0  0  0  0  0  0  0
    5.7970  -12.4656   26.8580 S   0  0  0  0  0  0  0  0  0  0  0  0
    7.0878  -11.7919   25.7502 C   0  0  0  0  0  0  0  0  0  0  0  0
    7.5728  -13.0838   24.5413 C   0  0  0  0  0  0  0  0  0  0  0  0
    7.6019  -14.3861   25.3048 C   0  0  2  0  0  0  0  0  0  0  0  0
    8.6181  -15.3573   24.7548 N   0  0  0  0  0  0  0  0  0  0  0  0
    8.3019  -15.8554   23.4514 C   0  0  0  0  0  0  0  0  0  0  0  0
    8.8085  -16.5003   25.6796 O   0  0  0  0  0  0  0  0  0  0  0  0
    7.8959  -17.3241   25.8718 N   0  0  0  0  0  0  0  0  0  0  0  0
   10.0337  -16.6443   26.3377 C   0  0  1  0  0  0  0  0  0  0  0  0
   10.4187  -17.8192   27.1045 C   0  0  0  0  0  0  0  0  0  0  0  0
   11.6301  -18.3816   26.4338 C   0  0  0  0  0  0  0  0  0  0  0  0
   12.2845  -19.5240   27.1341 C   0  0  0  0  0  0  0  0  0  0  0  0
   13.4557  -20.0031   26.3364 O   0  0  0  0  0  0  0  0  0  0  0  0
   13.7659  -21.2100   26.2119 C   0  0  0  0  0  0  0  0  0  0  0  0
   10.6396  -17.3891   28.5055 O   0  0  0  0  0  0  0  0  0  0  0  0
   10.9644  -16.2040   28.7600 O   0  0  0  0  0  0  0  0  0  0  0  0
   14.2371  -19.0532   25.7014 O   0  0  0  0  0  0  0  0  0  0  0  0
  2  3  2  0
  2  1  1  0
  4  2  1  0
  5  4  1  0
  6  5  1  0
  7  6  1  0
  8  7  1  0
  8  9  1  6
 10  8  1  0
 10 17  1  0
 11 10  2  0
 12 13  1  0
 13 14  1  0
 16 15  1  6
 15 14  1  0
 16 17  1  0
 18 16  1  0
 19 18  2  0
 20 18  1  0
 21 20  1  0
 21 26  1  0
 21 22  1  1
 23 22  1  0
 24 25  2  0
 24 23  1  0
 26 29  1  0
 27 26  2  0
 28 24  1  0
M  END
$$$$
