RME.pdb
     RDKit          3D

 29 28  0  0  1  0  0  0  0  0999 V2000
    7.8466  -11.7163   19.3390 N   0  0  0  0  0  0  0  0  0  0  0  0
    8.2579  -12.9161   18.6994 C   0  0  0  0  0  0  0  0  0  0  0  0
    8.1252  -12.9935   17.4337 N   0  0  0  0  0  0  0  0  0  0  0  0
    8.8018  -14.0145   19.3910 N   0  0  0  0  0  0  0  0  0  0  0  0
    8.0008  -14.7563   20.3068 C   0  0  0  0  0  0  0  0  0  0  0  0
    7.6168  -16.0651   19.6030 C   0  0  0  0  0  0  0  0  0  0  0  0
    8.4833  -17.1961   20.0446 C   0  0  0  0  0  0  0  0  0  0  0  0
    8.0521  -17.7926   21.3394 C   0  0  2  0  0  0  0  0  0  0  0  0
    6.5881  -17.8971   21.3829 N   0  0  0  0  0  0  0  0  0  0  0  0
    8.5414  -17.0796   22.5473 C   0  0  0  0  0  0  0  0  0  0  0  0
    9.7560  -16.9588   22.7484 O   0  0  0  0  0  0  0  0  0  0  0  0
    8.3682  -13.7373   16.7883 C   0  0  0  0  0  0  0  0  0  0  0  0
    7.1550  -11.2847   27.6251 S   0  0  0  0  0  0  0  0  0  0  0  0
    6.5270  -12.3869   26.3068 C   0  0  0  0  0  0  0  0  0  0  0  0
    7.5440  -13.9134   26.2680 C   0  0  0  0  0  0  0  0  0  0  0  0
    7.0423  -14.7246   25.0976 C   0  0  2  0  0  0  0  0  0  0  0  0
    8.0168  -15.7975   24.6764 N   0  0  0  0  0  0  0  0  0  0  0  0
    7.6205  -16.5171   23.5049 C   0  0  0  0  0  0  0  0  0  0  0  0
    8.2525  -16.7579   25.7809 O   0  0  0  0  0  0  0  0  0  0  0  0
    7.3365  -17.4911   26.1951 N   0  0  0  0  0  0  0  0  0  0  0  0
    9.5249  -16.8321   26.3560 C   0  0  1  0  0  0  0  0  0  0  0  0
    9.9745  -17.9182   27.2133 C   0  0  0  0  0  0  0  0  0  0  0  0
   10.9669  -18.7011   26.4159 C   0  0  0  0  0  0  0  0  0  0  0  0
   11.6382  -19.8193   27.1386 C   0  0  0  0  0  0  0  0  0  0  0  0
   12.6230  -20.4886   26.2331 O   0  0  0  0  0  0  0  0  0  0  0  0
   13.4285  -19.8688   25.5014 C   0  0  0  0  0  0  0  0  0  0  0  0
   10.5233  -17.3159   28.4513 O   0  0  0  0  0  0  0  0  0  0  0  0
   10.8610  -16.1075   28.4714 O   0  0  0  0  0  0  0  0  0  0  0  0
   12.6405  -21.8725   26.2075 O   0  0  0  0  0  0  0  0  0  0  0  0
  2  3  2  0
  2  1  1  0
  4  2  1  0
  5  4  1  0
  6  5  1  0
  7  6  1  0
  8  7  1  0
  8  9  1  6
 10  8  1  0
 10 17  1  0
 11 10  2  0
 12 13  1  0
 13 14  1  0
 16 15  1  6
 15 14  1  0
 16 17  1  0
 18 16  1  0
 19 18  2  0
 20 18  1  0
 21 20  1  0
 21 26  1  0
 21 22  1  1
 23 22  1  0
 24 25  2  0
 24 23  1  0
 26 29  1  0
 27 26  2  0
 28 24  1  0
M  END
$$$$
