RME.pdb
     RDKit          3D

 29 28  0  0  1  0  0  0  0  0999 V2000
    8.1372  -13.4882   17.0460 N   0  0  0  0  0  0  0  0  0  0  0  0
    8.2160  -13.1424   18.4215 C   0  0  0  0  0  0  0  0  0  0  0  0
    8.7064  -12.0051   18.7239 N   0  0  0  0  0  0  0  0  0  0  0  0
    7.7806  -13.9886   19.4583 N   0  0  0  0  0  0  0  0  0  0  0  0
    7.6059  -15.3832   19.2233 C   0  0  0  0  0  0  0  0  0  0  0  0
    8.9561  -15.9244   18.7336 C   0  0  0  0  0  0  0  0  0  0  0  0
    9.8387  -16.3020   19.8752 C   0  0  0  0  0  0  0  0  0  0  0  0
    9.1011  -16.9489   20.9959 C   0  0  2  0  0  0  0  0  0  0  0  0
    7.6580  -16.9310   20.7255 N   0  0  0  0  0  0  0  0  0  0  0  0
    9.3690  -16.3667   22.3361 C   0  0  0  0  0  0  0  0  0  0  0  0
   10.5067  -16.4159   22.8191 O   0  0  0  0  0  0  0  0  0  0  0  0
    8.8175  -11.5519   19.6245 C   0  0  0  0  0  0  0  0  0  0  0  0
    6.6926  -11.3455   27.8475 S   0  0  0  0  0  0  0  0  0  0  0  0
    6.2427  -12.4643   26.4716 C   0  0  0  0  0  0  0  0  0  0  0  0
    7.6118  -13.6539   26.1956 C   0  0  0  0  0  0  0  0  0  0  0  0
    7.3675  -14.2706   24.8392 C   0  0  2  0  0  0  0  0  0  0  0  0
    8.4967  -15.1710   24.4004 N   0  0  0  0  0  0  0  0  0  0  0  0
    8.3184  -15.7366   23.0984 C   0  0  0  0  0  0  0  0  0  0  0  0
    8.7108  -16.2628   25.3802 O   0  0  0  0  0  0  0  0  0  0  0  0
    7.8316  -17.1197   25.5825 N   0  0  0  0  0  0  0  0  0  0  0  0
    9.9205  -16.3203   26.0790 C   0  0  1  0  0  0  0  0  0  0  0  0
   10.3213  -17.4275   26.9334 C   0  0  0  0  0  0  0  0  0  0  0  0
   11.6049  -17.9489   26.3731 C   0  0  0  0  0  0  0  0  0  0  0  0
   12.2871  -18.9957   27.1869 C   0  0  0  0  0  0  0  0  0  0  0  0
   13.5738  -19.3875   26.5323 O   0  0  0  0  0  0  0  0  0  0  0  0
   14.3393  -18.5769   25.9619 C   0  0  0  0  0  0  0  0  0  0  0  0
   10.4237  -16.9117   28.3191 O   0  0  0  0  0  0  0  0  0  0  0  0
   10.3684  -15.6778   28.5408 O   0  0  0  0  0  0  0  0  0  0  0  0
   13.9337  -20.7238   26.5626 O   0  0  0  0  0  0  0  0  0  0  0  0
  2  3  2  0
  2  1  1  0
  4  2  1  0
  5  4  1  0
  6  5  1  0
  7  6  1  0
  8  7  1  0
  8  9  1  6
 10  8  1  0
 10 17  1  0
 11 10  2  0
 12 13  1  0
 13 14  1  0
 16 15  1  6
 15 14  1  0
 16 17  1  0
 18 16  1  0
 19 18  2  0
 20 18  1  0
 21 20  1  0
 21 26  1  0
 21 22  1  1
 23 22  1  0
 24 25  2  0
 24 23  1  0
 26 29  1  0
 27 26  2  0
 28 24  1  0
M  END
$$$$
