RME.pdb
     RDKit          3D

 29 28  0  0  1  0  0  0  0  0999 V2000
    8.7935  -11.2831   18.5387 N   0  0  0  0  0  0  0  0  0  0  0  0
    8.4520  -12.6427   18.3097 C   0  0  0  0  0  0  0  0  0  0  0  0
    8.7275  -13.1436   17.1701 N   0  0  0  0  0  0  0  0  0  0  0  0
    7.8297  -13.4572   19.2741 N   0  0  0  0  0  0  0  0  0  0  0  0
    7.4305  -14.7850   18.9450 C   0  0  0  0  0  0  0  0  0  0  0  0
    7.7502  -15.6608   20.1642 C   0  0  0  0  0  0  0  0  0  0  0  0
    9.2192  -15.7351   20.4120 C   0  0  0  0  0  0  0  0  0  0  0  0
    9.5741  -16.6014   21.5704 C   0  0  2  0  0  0  0  0  0  0  0  0
    8.7399  -17.8098   21.5696 N   0  0  0  0  0  0  0  0  0  0  0  0
    9.4918  -15.9344   22.8952 C   0  0  0  0  0  0  0  0  0  0  0  0
   10.2646  -15.0098   23.1748 O   0  0  0  0  0  0  0  0  0  0  0  0
    8.4989  -14.0488   16.7736 C   0  0  0  0  0  0  0  0  0  0  0  0
    6.9355  -11.2496   25.9548 S   0  0  0  0  0  0  0  0  0  0  0  0
    6.1110  -12.7398   26.6231 C   0  0  0  0  0  0  0  0  0  0  0  0
    7.3278  -14.1102   26.7067 C   0  0  0  0  0  0  0  0  0  0  0  0
    7.3294  -14.7565   25.3421 C   0  0  2  0  0  0  0  0  0  0  0  0
    8.4180  -15.7914   25.1927 N   0  0  0  0  0  0  0  0  0  0  0  0
    8.5183  -16.3456   23.8775 C   0  0  0  0  0  0  0  0  0  0  0  0
    8.2378  -16.8903   26.1714 O   0  0  0  0  0  0  0  0  0  0  0  0
    7.2270  -17.6152   26.1377 N   0  0  0  0  0  0  0  0  0  0  0  0
    9.2236  -17.1056   27.1394 C   0  0  1  0  0  0  0  0  0  0  0  0
    9.9901  -18.3353   27.2687 C   0  0  0  0  0  0  0  0  0  0  0  0
   10.6485  -18.5623   25.9464 C   0  0  0  0  0  0  0  0  0  0  0  0
   11.5611  -19.7393   25.8727 C   0  0  0  0  0  0  0  0  0  0  0  0
   12.1432  -19.8435   24.4987 O   0  0  0  0  0  0  0  0  0  0  0  0
   12.3884  -20.9307   23.9275 C   0  0  0  0  0  0  0  0  0  0  0  0
   10.9325  -18.1607   28.3992 O   0  0  0  0  0  0  0  0  0  0  0  0
   11.6490  -19.1182   28.7796 O   0  0  0  0  0  0  0  0  0  0  0  0
   12.4243  -18.6674   23.8250 O   0  0  0  0  0  0  0  0  0  0  0  0
  2  3  2  0
  2  1  1  0
  4  2  1  0
  5  4  1  0
  6  5  1  0
  7  6  1  0
  8  7  1  0
  8  9  1  1
 10  8  1  0
 10 17  1  0
 11 10  2  0
 12 13  1  0
 13 14  1  0
 16 15  1  6
 15 14  1  0
 16 17  1  0
 18 16  1  0
 19 18  2  0
 20 18  1  0
 21 20  1  0
 21 26  1  0
 21 22  1  1
 23 22  1  0
 24 25  2  0
 24 23  1  0
 26 29  1  0
 27 26  2  0
 28 24  1  0
M  END
$$$$
