RME.pdb
     RDKit          3D

 29 28  0  0  1  0  0  0  0  0999 V2000
    8.4684  -13.1499   17.0701 N   0  0  0  0  0  0  0  0  0  0  0  0
    7.7605  -12.9019   18.2764 C   0  0  0  0  0  0  0  0  0  0  0  0
    7.7730  -11.7155   18.7428 N   0  0  0  0  0  0  0  0  0  0  0  0
    7.0504  -13.8960   18.9752 N   0  0  0  0  0  0  0  0  0  0  0  0
    7.0317  -15.2380   18.4962 C   0  0  0  0  0  0  0  0  0  0  0  0
    7.6212  -16.1158   19.6086 C   0  0  0  0  0  0  0  0  0  0  0  0
    9.0318  -15.7377   19.9118 C   0  0  0  0  0  0  0  0  0  0  0  0
    9.6050  -16.4902   21.0622 C   0  0  2  0  0  0  0  0  0  0  0  0
    8.8938  -17.7631   21.2357 N   0  0  0  0  0  0  0  0  0  0  0  0
    9.6230  -15.7450   22.3472 C   0  0  0  0  0  0  0  0  0  0  0  0
    9.9885  -14.5635   22.3755 O   0  0  0  0  0  0  0  0  0  0  0  0
    7.3311  -11.3254   19.5684 C   0  0  0  0  0  0  0  0  0  0  0  0
    6.8885  -11.1791   27.1249 S   0  0  0  0  0  0  0  0  0  0  0  0
    7.0236  -12.2013   25.6136 C   0  0  0  0  0  0  0  0  0  0  0  0
    8.0267  -13.6914   25.9867 C   0  0  0  0  0  0  0  0  0  0  0  0
    8.1189  -14.4712   24.6971 C   0  0  2  0  0  0  0  0  0  0  0  0
    9.0178  -15.6783   24.8132 N   0  0  0  0  0  0  0  0  0  0  0  0
    9.2187  -16.3757   23.5802 C   0  0  0  0  0  0  0  0  0  0  0  0
    8.4993  -16.6253   25.8291 O   0  0  0  0  0  0  0  0  0  0  0  0
    7.3815  -17.1552   25.6954 N   0  0  0  0  0  0  0  0  0  0  0  0
    9.2860  -16.9195   26.9470 C   0  0  1  0  0  0  0  0  0  0  0  0
    9.5081  -18.2618   27.4622 C   0  0  0  0  0  0  0  0  0  0  0  0
   10.1759  -19.0284   26.3668 C   0  0  0  0  0  0  0  0  0  0  0  0
   11.6337  -18.7681   26.1919 C   0  0  0  0  0  0  0  0  0  0  0  0
   12.1853  -19.6683   25.1323 O   0  0  0  0  0  0  0  0  0  0  0  0
   12.8829  -19.2674   24.1726 C   0  0  0  0  0  0  0  0  0  0  0  0
   10.3118  -18.1403   28.7015 O   0  0  0  0  0  0  0  0  0  0  0  0
   10.5437  -19.1518   29.4072 O   0  0  0  0  0  0  0  0  0  0  0  0
   11.9057  -21.0210   25.2236 O   0  0  0  0  0  0  0  0  0  0  0  0
  2  3  2  0
  2  1  1  0
  4  2  1  0
  5  4  1  0
  6  5  1  0
  7  6  1  0
  8  7  1  0
  8  9  1  1
 10  8  1  0
 10 17  1  0
 11 10  2  0
 12 13  1  0
 13 14  1  0
 16 15  1  6
 15 14  1  0
 16 17  1  0
 18 16  1  0
 19 18  2  0
 20 18  1  0
 21 20  1  0
 21 26  1  0
 21 22  1  1
 23 22  1  0
 24 25  2  0
 24 23  1  0
 26 29  1  0
 27 26  2  0
 28 24  1  0
M  END
$$$$
