RME.pdb
     RDKit          3D

 29 28  0  0  1  0  0  0  0  0999 V2000
    8.4374  -15.8788   15.8197 N   0  0  0  0  0  0  0  0  0  0  0  0
    8.3418  -14.5737   15.2672 C   0  0  0  0  0  0  0  0  0  0  0  0
    8.2099  -14.4686   14.0035 N   0  0  0  0  0  0  0  0  0  0  0  0
    8.3843  -13.4001   16.0428 N   0  0  0  0  0  0  0  0  0  0  0  0
    8.6407  -13.4717   17.4427 C   0  0  0  0  0  0  0  0  0  0  0  0
    7.2862  -13.6832   18.1328 C   0  0  0  0  0  0  0  0  0  0  0  0
    7.4119  -13.6023   19.6169 C   0  0  0  0  0  0  0  0  0  0  0  0
    8.2119  -14.7162   20.1979 C   0  0  2  0  0  0  0  0  0  0  0  0
    7.4445  -15.9670   20.1472 N   0  0  0  0  0  0  0  0  0  0  0  0
    8.6963  -14.4792   21.5821 C   0  0  0  0  0  0  0  0  0  0  0  0
    9.7780  -13.9104   21.7733 O   0  0  0  0  0  0  0  0  0  0  0  0
    8.0621  -13.6520   13.4203 C   0  0  0  0  0  0  0  0  0  0  0  0
    6.6439  -12.0198   28.6429 S   0  0  0  0  0  0  0  0  0  0  0  0
    6.1831  -12.5944   26.9683 C   0  0  0  0  0  0  0  0  0  0  0  0
    7.5881  -13.5291   26.2486 C   0  0  0  0  0  0  0  0  0  0  0  0
    7.1564  -13.9367   24.8603 C   0  0  2  0  0  0  0  0  0  0  0  0
    8.2641  -14.6043   24.0820 N   0  0  0  0  0  0  0  0  0  0  0  0
    7.9240  -14.9031   22.7248 C   0  0  0  0  0  0  0  0  0  0  0  0
    8.7072  -15.8473   24.7576 O   0  0  0  0  0  0  0  0  0  0  0  0
    7.9262  -16.8040   24.9095 N   0  0  0  0  0  0  0  0  0  0  0  0
   10.0222  -15.9341   25.2250 C   0  0  1  0  0  0  0  0  0  0  0  0
   10.6244  -17.1471   25.7565 C   0  0  0  0  0  0  0  0  0  0  0  0
   12.0741  -17.0900   25.3977 C   0  0  0  0  0  0  0  0  0  0  0  0
   12.3771  -16.6765   23.9974 C   0  0  0  0  0  0  0  0  0  0  0  0
   13.8552  -16.7065   23.7692 O   0  0  0  0  0  0  0  0  0  0  0  0
   14.5767  -15.6832   23.7460 C   0  0  0  0  0  0  0  0  0  0  0  0
   10.3560  -17.1811   27.2136 O   0  0  0  0  0  0  0  0  0  0  0  0
   10.7218  -18.1645   27.9019 O   0  0  0  0  0  0  0  0  0  0  0  0
   14.4539  -17.9392   23.5736 O   0  0  0  0  0  0  0  0  0  0  0  0
  2  3  2  0
  2  1  1  0
  4  2  1  0
  5  4  1  0
  6  5  1  0
  7  6  1  0
  8  7  1  0
  8  9  1  1
 10  8  1  0
 10 17  1  0
 11 10  2  0
 12 13  1  0
 13 14  1  0
 16 15  1  6
 15 14  1  0
 16 17  1  0
 18 16  1  0
 19 18  2  0
 20 18  1  0
 21 20  1  0
 21 26  1  0
 21 22  1  1
 23 22  1  0
 24 25  2  0
 24 23  1  0
 26 29  1  0
 27 26  2  0
 28 24  1  0
M  END
$$$$
