IAN.pdb
     RDKit          3D

 22 21  0  0  1  0  0  0  0  0999 V2000
   15.2299  -12.6558  -17.9292 C   0  0  0  0  0  0  0  0  0  0  0  0
   16.5701  -12.0631  -17.4578 C   0  0  0  0  0  0  0  0  0  0  0  0
   16.2445  -11.1881  -16.2995 C   0  0  2  0  0  0  0  0  0  0  0  0
   15.1238  -10.2620  -16.6436 C   0  0  0  0  0  0  0  0  0  0  0  0
   17.4194  -10.5036  -15.6498 C   0  0  2  0  0  0  0  0  0  0  0  0
   18.2584  -11.6119  -15.1535 N   0  0  0  0  0  0  0  0  0  0  0  0
   17.0587   -9.7017  -14.4635 C   0  0  0  0  0  0  0  0  0  0  0  0
   16.3371   -8.6577  -14.5144 O   0  0  0  0  0  0  0  0  0  0  0  0
   17.3682  -10.1191  -10.7547 C   0  0  0  0  0  0  0  0  0  0  0  0
   17.1994   -9.2592  -11.9926 C   0  0  2  0  0  0  0  0  0  0  0  0
   17.5191  -10.0796  -13.1743 N   0  0  0  0  0  0  0  0  0  0  0  0
   18.0510   -8.0589  -11.9431 C   0  0  0  0  0  0  0  0  0  0  0  0
   17.8999   -7.2072  -11.0205 O   0  0  0  0  0  0  0  0  0  0  0  0
   23.0212   -5.4061  -14.3973 N   0  0  0  0  0  0  0  0  0  0  0  0
   21.9892   -5.5609  -13.4166 C   0  0  0  0  0  0  0  0  0  0  0  0
   21.7722   -4.6189  -12.6368 O   0  0  0  0  0  0  0  0  0  0  0  0
   21.2219   -6.8022  -13.3499 C   0  0  0  0  0  0  0  0  0  0  0  0
   19.8158   -6.5459  -12.9345 C   0  0  2  0  0  0  0  0  0  0  0  0
   19.0476   -7.8012  -12.8882 N   0  0  0  0  0  0  0  0  0  0  0  0
   19.1344   -5.7044  -13.9229 C   0  0  0  0  0  0  0  0  0  0  0  0
   18.8136   -6.2037  -15.0509 O   0  0  0  0  0  0  0  0  0  0  0  0
   18.8056   -4.3970  -13.7321 O   0  0  0  0  0  0  0  0  0  0  0  0
  1  2  1  0
  2  3  1  0
  3  4  1  6
  5  3  1  0
  5  6  1  1
  7  5  1  0
  7 11  1  0
  8  7  2  0
 10 11  1  0
 10 12  1  0
 10  9  1  1
 12 19  1  0
 13 12  2  0
 15 14  1  0
 16 15  2  0
 17 15  1  0
 18 17  1  6
 19 18  1  0
 20 22  1  0
 20 18  1  0
 21 20  2  0
M  END
$$$$
