IAN.pdb
     RDKit          3D

 22 21  0  0  1  0  0  0  0  0999 V2000
   26.4400  -19.7072   -7.6252 C   0  0  0  0  0  0  0  0  0  0  0  0
   25.5663  -20.9268   -7.9702 C   0  0  0  0  0  0  0  0  0  0  0  0
   25.7301  -21.1454   -9.4326 C   0  0  2  0  0  0  0  0  0  0  0  0
   27.1563  -21.4478   -9.7589 C   0  0  0  0  0  0  0  0  0  0  0  0
   25.1139  -20.0957  -10.3211 C   0  0  2  0  0  0  0  0  0  0  0  0
   23.6650  -20.2024  -10.0611 N   0  0  0  0  0  0  0  0  0  0  0  0
   25.2903  -20.3592  -11.7633 C   0  0  0  0  0  0  0  0  0  0  0  0
   26.4128  -20.3038  -12.3552 O   0  0  0  0  0  0  0  0  0  0  0  0
   23.0867  -21.5618  -14.5606 C   0  0  0  0  0  0  0  0  0  0  0  0
   24.3271  -20.8701  -14.0287 C   0  0  2  0  0  0  0  0  0  0  0  0
   24.1741  -20.6980  -12.5732 N   0  0  0  0  0  0  0  0  0  0  0  0
   24.5535  -19.5730  -14.6881 C   0  0  0  0  0  0  0  0  0  0  0  0
   23.8280  -18.5772  -14.4029 O   0  0  0  0  0  0  0  0  0  0  0  0
   28.5862  -16.3826  -17.6332 N   0  0  0  0  0  0  0  0  0  0  0  0
   27.5841  -16.3940  -16.6103 C   0  0  0  0  0  0  0  0  0  0  0  0
   27.0226  -15.3238  -16.3245 O   0  0  0  0  0  0  0  0  0  0  0  0
   27.2445  -17.6419  -15.9310 C   0  0  0  0  0  0  0  0  0  0  0  0
   25.8534  -18.0668  -16.2464 C   0  0  2  0  0  0  0  0  0  0  0  0
   25.5568  -19.3757  -15.6406 N   0  0  0  0  0  0  0  0  0  0  0  0
   25.6901  -18.2562  -17.6909 C   0  0  0  0  0  0  0  0  0  0  0  0
   26.2094  -19.2783  -18.2479 O   0  0  0  0  0  0  0  0  0  0  0  0
   25.0107  -17.4083  -18.5115 O   0  0  0  0  0  0  0  0  0  0  0  0
  1  2  1  0
  2  3  1  0
  3  4  1  1
  5  3  1  0
  5  6  1  6
  7  5  1  0
  7 11  1  0
  8  7  2  0
 10 11  1  0
 10 12  1  0
 10  9  1  6
 12 19  1  0
 13 12  2  0
 15 14  1  0
 16 15  2  0
 17 15  1  0
 18 17  1  6
 19 18  1  0
 20 22  1  0
 20 18  1  0
 21 20  2  0
M  END
$$$$
