IAN.pdb
     RDKit          3D

 22 21  0  0  1  0  0  0  0  0999 V2000
   19.1579  -15.4030  -19.3222 C   0  0  0  0  0  0  0  0  0  0  0  0
   20.4183  -14.9784  -20.0973 C   0  0  0  0  0  0  0  0  0  0  0  0
   20.8309  -13.6707  -19.5203 C   0  0  2  0  0  0  0  0  0  0  0  0
   19.6739  -12.7262  -19.4873 C   0  0  0  0  0  0  0  0  0  0  0  0
   22.0871  -13.0712  -20.0980 C   0  0  2  0  0  0  0  0  0  0  0  0
   23.1361  -14.0659  -19.8006 N   0  0  0  0  0  0  0  0  0  0  0  0
   22.5093  -11.8216  -19.4342 C   0  0  0  0  0  0  0  0  0  0  0  0
   22.9268  -11.7694  -18.2357 O   0  0  0  0  0  0  0  0  0  0  0  0
   23.0927   -8.2826  -20.5538 C   0  0  0  0  0  0  0  0  0  0  0  0
   22.9012   -9.3387  -19.4823 C   0  0  2  0  0  0  0  0  0  0  0  0
   22.4651  -10.5865  -20.1336 N   0  0  0  0  0  0  0  0  0  0  0  0
   21.9270   -8.9119  -18.4638 C   0  0  0  0  0  0  0  0  0  0  0  0
   20.6930   -9.1341  -18.6287 O   0  0  0  0  0  0  0  0  0  0  0  0
   19.7816   -7.3251  -14.0701 N   0  0  0  0  0  0  0  0  0  0  0  0
   21.0015   -8.0233  -13.7961 C   0  0  0  0  0  0  0  0  0  0  0  0
   21.2717   -8.2944  -12.6146 O   0  0  0  0  0  0  0  0  0  0  0  0
   21.8929   -8.3986  -14.8908 C   0  0  0  0  0  0  0  0  0  0  0  0
   21.3616   -7.9363  -16.2021 C   0  0  2  0  0  0  0  0  0  0  0  0
   22.3025   -8.2551  -17.2888 N   0  0  0  0  0  0  0  0  0  0  0  0
   21.2265   -6.4766  -16.2148 C   0  0  0  0  0  0  0  0  0  0  0  0
   22.0194   -5.7837  -16.9328 O   0  0  0  0  0  0  0  0  0  0  0  0
   20.2985   -5.7783  -15.5039 O   0  0  0  0  0  0  0  0  0  0  0  0
  1  2  1  0
  2  3  1  0
  3  4  1  6
  5  3  1  0
  5  6  1  1
  7  5  1  0
  7 11  1  0
  8  7  2  0
 10 11  1  0
 10 12  1  0
 10  9  1  6
 12 19  1  0
 13 12  2  0
 15 14  1  0
 16 15  2  0
 17 15  1  0
 18 17  1  1
 19 18  1  0
 20 22  1  0
 20 18  1  0
 21 20  2  0
M  END
$$$$
