IAN.pdb
     RDKit          3D

 22 21  0  0  1  0  0  0  0  0999 V2000
   28.3871  -19.0312  -13.8546 C   0  0  0  0  0  0  0  0  0  0  0  0
   27.1330  -19.9188  -13.9496 C   0  0  0  0  0  0  0  0  0  0  0  0
   26.7684  -20.2613  -12.5485 C   0  0  2  0  0  0  0  0  0  0  0  0
   27.9263  -20.8933  -11.8472 C   0  0  0  0  0  0  0  0  0  0  0  0
   25.4726  -21.0115  -12.3776 C   0  0  2  0  0  0  0  0  0  0  0  0
   25.6444  -22.2274  -13.1964 N   0  0  0  0  0  0  0  0  0  0  0  0
   24.3000  -20.3071  -12.9337 C   0  0  0  0  0  0  0  0  0  0  0  0
   23.7281  -19.3310  -12.3562 O   0  0  0  0  0  0  0  0  0  0  0  0
   22.9144  -19.6648  -16.2046 C   0  0  0  0  0  0  0  0  0  0  0  0
   22.5985  -19.9849  -14.7562 C   0  0  2  0  0  0  0  0  0  0  0  0
   23.7470  -20.7058  -14.1794 N   0  0  0  0  0  0  0  0  0  0  0  0
   21.3650  -20.7792  -14.6296 C   0  0  0  0  0  0  0  0  0  0  0  0
   20.2769  -20.3485  -15.1090 O   0  0  0  0  0  0  0  0  0  0  0  0
   17.8840  -23.4899  -11.2339 N   0  0  0  0  0  0  0  0  0  0  0  0
   18.0305  -22.5875  -12.3361 C   0  0  0  0  0  0  0  0  0  0  0  0
   17.0363  -22.3561  -13.0435 O   0  0  0  0  0  0  0  0  0  0  0  0
   19.3240  -21.9646  -12.6063 C   0  0  0  0  0  0  0  0  0  0  0  0
   20.0801  -22.7189  -13.6430 C   0  0  2  0  0  0  0  0  0  0  0  0
   21.3294  -22.0210  -13.9897 N   0  0  0  0  0  0  0  0  0  0  0  0
   19.3108  -22.7898  -14.8888 C   0  0  0  0  0  0  0  0  0  0  0  0
   18.9149  -23.9247  -15.3130 O   0  0  0  0  0  0  0  0  0  0  0  0
   18.9733  -21.7147  -15.6532 O   0  0  0  0  0  0  0  0  0  0  0  0
  1  2  1  0
  2  3  1  0
  3  4  1  6
  5  3  1  0
  5  6  1  6
  7  5  1  0
  7 11  1  0
  8  7  2  0
 10 11  1  0
 10 12  1  0
 10  9  1  6
 12 19  1  0
 13 12  2  0
 15 14  1  0
 16 15  2  0
 17 15  1  0
 18 17  1  1
 19 18  1  0
 20 22  1  0
 20 18  1  0
 21 20  2  0
M  END
$$$$
