IAN.pdb
     RDKit          3D

 22 21  0  0  1  0  0  0  0  0999 V2000
   17.2779  -10.0557  -19.4837 C   0  0  0  0  0  0  0  0  0  0  0  0
   18.4544  -10.9460  -19.0442 C   0  0  0  0  0  0  0  0  0  0  0  0
   18.9611  -10.3558  -17.7760 C   0  0  2  0  0  0  0  0  0  0  0  0
   19.2926   -8.9118  -17.9680 C   0  0  0  0  0  0  0  0  0  0  0  0
   20.0439  -11.1395  -17.0800 C   0  0  2  0  0  0  0  0  0  0  0  0
   19.5028  -12.5098  -16.9915 N   0  0  0  0  0  0  0  0  0  0  0  0
   20.2904  -10.7073  -15.6897 C   0  0  0  0  0  0  0  0  0  0  0  0
   19.3655  -10.5004  -14.8441 O   0  0  0  0  0  0  0  0  0  0  0  0
   23.2163  -10.5770  -13.4062 C   0  0  0  0  0  0  0  0  0  0  0  0
   21.8680  -10.0418  -13.8488 C   0  0  2  0  0  0  0  0  0  0  0  0
   21.6167  -10.4999  -15.2267 N   0  0  0  0  0  0  0  0  0  0  0  0
   21.8108   -8.5727  -13.7671 C   0  0  0  0  0  0  0  0  0  0  0  0
   21.8641   -7.9936  -12.6441 O   0  0  0  0  0  0  0  0  0  0  0  0
   22.5809   -3.4528  -17.0926 N   0  0  0  0  0  0  0  0  0  0  0  0
   22.2852   -4.2133  -15.9158 C   0  0  0  0  0  0  0  0  0  0  0  0
   21.9308   -3.6026  -14.8941 O   0  0  0  0  0  0  0  0  0  0  0  0
   22.4034   -5.6692  -15.9351 C   0  0  0  0  0  0  0  0  0  0  0  0
   21.6189   -6.2890  -14.8325 C   0  0  2  0  0  0  0  0  0  0  0  0
   21.6977   -7.7579  -14.8969 N   0  0  0  0  0  0  0  0  0  0  0  0
   20.1958   -5.9654  -14.9708 C   0  0  0  0  0  0  0  0  0  0  0  0
   19.7825   -4.8113  -14.6217 O   0  0  0  0  0  0  0  0  0  0  0  0
   19.2509   -6.8179  -15.4549 O   0  0  0  0  0  0  0  0  0  0  0  0
  1  2  1  0
  2  3  1  0
  3  4  1  6
  5  3  1  0
  5  6  1  1
  7  5  1  0
  7 11  1  0
  8  7  2  0
 10 11  1  0
 10 12  1  0
 10  9  1  6
 12 19  1  0
 13 12  2  0
 15 14  1  0
 16 15  2  0
 17 15  1  0
 18 17  1  6
 19 18  1  0
 20 22  1  0
 20 18  1  0
 21 20  2  0
M  END
$$$$
