IAN.pdb
     RDKit          3D

 22 21  0  0  1  0  0  0  0  0999 V2000
   11.9421  -10.2263   -8.9881 C   0  0  0  0  0  0  0  0  0  0  0  0
   12.4096  -11.2265  -10.0609 C   0  0  0  0  0  0  0  0  0  0  0  0
   13.8119  -10.8505  -10.3857 C   0  0  2  0  0  0  0  0  0  0  0  0
   13.9146   -9.3808  -10.6328 C   0  0  0  0  0  0  0  0  0  0  0  0
   14.4840  -11.6915  -11.4403 C   0  0  2  0  0  0  0  0  0  0  0  0
   14.6597  -13.0091  -10.7989 N   0  0  0  0  0  0  0  0  0  0  0  0
   15.8396  -11.2268  -11.7965 C   0  0  0  0  0  0  0  0  0  0  0  0
   16.7847  -11.1080  -10.9563 O   0  0  0  0  0  0  0  0  0  0  0  0
   17.7125  -10.5428  -14.9624 C   0  0  0  0  0  0  0  0  0  0  0  0
   17.4677  -10.3175  -13.4827 C   0  0  2  0  0  0  0  0  0  0  0  0
   16.1514  -10.8837  -13.1388 N   0  0  0  0  0  0  0  0  0  0  0  0
   17.5311   -8.8891  -13.1306 C   0  0  0  0  0  0  0  0  0  0  0  0
   16.5526   -8.1271  -13.3778 O   0  0  0  0  0  0  0  0  0  0  0  0
   16.7701   -5.7911  -10.7661 N   0  0  0  0  0  0  0  0  0  0  0  0
   18.0100   -6.0542  -10.0995 C   0  0  0  0  0  0  0  0  0  0  0  0
   18.0932   -5.7954   -8.8877 O   0  0  0  0  0  0  0  0  0  0  0  0
   19.1372   -6.6125  -10.8422 C   0  0  0  0  0  0  0  0  0  0  0  0
   18.7743   -6.8670  -12.2631 C   0  0  2  0  0  0  0  0  0  0  0  0
   18.6472   -8.3114  -12.5193 N   0  0  0  0  0  0  0  0  0  0  0  0
   19.8402   -6.4019  -13.1558 C   0  0  0  0  0  0  0  0  0  0  0  0
   20.8488   -7.1523  -13.3656 O   0  0  0  0  0  0  0  0  0  0  0  0
   19.8437   -5.2015  -13.7984 O   0  0  0  0  0  0  0  0  0  0  0  0
  1  2  1  0
  2  3  1  0
  3  4  1  6
  5  3  1  0
  5  6  1  1
  7  5  1  0
  7 11  1  0
  8  7  2  0
 10 11  1  0
 10 12  1  0
 10  9  1  6
 12 19  1  0
 13 12  2  0
 15 14  1  0
 16 15  2  0
 17 15  1  0
 18 17  1  1
 19 18  1  0
 20 22  1  0
 20 18  1  0
 21 20  2  0
M  END
$$$$
