IAN.pdb
     RDKit          3D

 22 21  0  0  1  0  0  0  0  0999 V2000
   19.8918  -15.7182  -17.8658 C   0  0  0  0  0  0  0  0  0  0  0  0
   20.7672  -14.6064  -18.4718 C   0  0  0  0  0  0  0  0  0  0  0  0
   20.8653  -13.5501  -17.4287 C   0  0  2  0  0  0  0  0  0  0  0  0
   19.5144  -13.2397  -16.8713 C   0  0  0  0  0  0  0  0  0  0  0  0
   21.6588  -12.3277  -17.8123 C   0  0  2  0  0  0  0  0  0  0  0  0
   22.9342  -12.8665  -18.3239 N   0  0  0  0  0  0  0  0  0  0  0  0
   22.0104  -11.4638  -16.6676 C   0  0  0  0  0  0  0  0  0  0  0  0
   21.1498  -10.9137  -15.9125 O   0  0  0  0  0  0  0  0  0  0  0  0
   25.2288  -10.2812  -15.0998 C   0  0  0  0  0  0  0  0  0  0  0  0
   23.7293  -10.2200  -15.3190 C   0  0  2  0  0  0  0  0  0  0  0  0
   23.3712  -11.2058  -16.3539 N   0  0  0  0  0  0  0  0  0  0  0  0
   23.2897   -8.8695  -15.7082 C   0  0  0  0  0  0  0  0  0  0  0  0
   23.4047   -8.4819  -16.9064 O   0  0  0  0  0  0  0  0  0  0  0  0
   19.7417   -5.1216  -17.3186 N   0  0  0  0  0  0  0  0  0  0  0  0
   20.3996   -5.3400  -16.0656 C   0  0  0  0  0  0  0  0  0  0  0  0
   20.5436   -4.3728  -15.3000 O   0  0  0  0  0  0  0  0  0  0  0  0
   20.8826   -6.6731  -15.7141 C   0  0  0  0  0  0  0  0  0  0  0  0
   22.2689   -6.6200  -15.1748 C   0  0  2  0  0  0  0  0  0  0  0  0
   22.7351   -7.9651  -14.7986 N   0  0  0  0  0  0  0  0  0  0  0  0
   22.3089   -5.8306  -13.9402 C   0  0  0  0  0  0  0  0  0  0  0  0
   22.1166   -6.4120  -12.8224 O   0  0  0  0  0  0  0  0  0  0  0  0
   22.5412   -4.4901  -13.8850 O   0  0  0  0  0  0  0  0  0  0  0  0
  1  2  1  0
  2  3  1  0
  3  4  1  6
  5  3  1  0
  5  6  1  1
  7  5  1  0
  7 11  1  0
  8  7  2  0
 10 11  1  0
 10 12  1  0
 10  9  1  6
 12 19  1  0
 13 12  2  0
 15 14  1  0
 16 15  2  0
 17 15  1  0
 18 17  1  1
 19 18  1  0
 20 22  1  0
 20 18  1  0
 21 20  2  0
M  END
$$$$
