IAN.pdb
     RDKit          3D

 22 21  0  0  1  0  0  0  0  0999 V2000
   25.6868  -15.7242  -18.9858 C   0  0  0  0  0  0  0  0  0  0  0  0
   25.9644  -14.7832  -17.7996 C   0  0  0  0  0  0  0  0  0  0  0  0
   25.1123  -13.5841  -18.0220 C   0  0  2  0  0  0  0  0  0  0  0  0
   25.3447  -13.0243  -19.3875 C   0  0  0  0  0  0  0  0  0  0  0  0
   25.1470  -12.5484  -16.9278 C   0  0  2  0  0  0  0  0  0  0  0  0
   24.7158  -13.2791  -15.7201 N   0  0  0  0  0  0  0  0  0  0  0  0
   24.1722  -11.4548  -17.1132 C   0  0  0  0  0  0  0  0  0  0  0  0
   24.3009  -10.5394  -17.9842 O   0  0  0  0  0  0  0  0  0  0  0  0
   20.6303  -10.9272  -16.2810 C   0  0  0  0  0  0  0  0  0  0  0  0
   22.0037  -10.3298  -16.5196 C   0  0  2  0  0  0  0  0  0  0  0  0
   23.0119  -11.3814  -16.2978 N   0  0  0  0  0  0  0  0  0  0  0  0
   22.2542   -9.1719  -15.6450 C   0  0  0  0  0  0  0  0  0  0  0  0
   22.9345   -9.3066  -14.5875 O   0  0  0  0  0  0  0  0  0  0  0  0
   22.3855   -4.4561  -13.6068 N   0  0  0  0  0  0  0  0  0  0  0  0
   22.2634   -4.3029  -15.0254 C   0  0  0  0  0  0  0  0  0  0  0  0
   22.3427   -3.1591  -15.5027 O   0  0  0  0  0  0  0  0  0  0  0  0
   22.0509   -5.4733  -15.8733 C   0  0  0  0  0  0  0  0  0  0  0  0
   22.0106   -6.7237  -15.0670 C   0  0  2  0  0  0  0  0  0  0  0  0
   21.7670   -7.8930  -15.9281 N   0  0  0  0  0  0  0  0  0  0  0  0
   20.8889   -6.6897  -14.1237 C   0  0  0  0  0  0  0  0  0  0  0  0
   19.7038   -6.8664  -14.5583 O   0  0  0  0  0  0  0  0  0  0  0  0
   21.0096   -6.4795  -12.7839 O   0  0  0  0  0  0  0  0  0  0  0  0
  1  2  1  0
  2  3  1  0
  3  4  1  6
  5  3  1  0
  5  6  1  1
  7  5  1  0
  7 11  1  0
  8  7  2  0
 10 11  1  0
 10 12  1  0
 10  9  1  1
 12 19  1  0
 13 12  2  0
 15 14  1  0
 16 15  2  0
 17 15  1  0
 18 17  1  6
 19 18  1  0
 20 22  1  0
 20 18  1  0
 21 20  2  0
M  END
$$$$
