SDQ.pdb
     RDKit          3D

 24 23  0  0  1  0  0  0  0  0999 V2000
   15.5574  -10.6960  -14.8258 O   0  0  0  0  0  0  0  0  0  0  0  0
   16.3852  -10.4497  -15.8925 C   0  0  0  0  0  0  0  0  0  0  0  0
   17.8359  -10.6858  -15.6268 C   0  0  2  0  0  0  0  0  0  0  0  0
   18.0008  -12.1116  -15.3520 N   0  0  0  0  0  0  0  0  0  0  0  0
   18.4066   -9.9032  -14.5297 C   0  0  0  0  0  0  0  0  0  0  0  0
   18.6590  -10.4850  -13.4358 O   0  0  0  0  0  0  0  0  0  0  0  0
   18.7070   -8.5352  -14.5842 N   0  0  0  0  0  0  0  0  0  0  0  0
   19.2593   -7.8226  -13.4276 C   0  0  1  0  0  0  0  0  0  0  0  0
   20.2814   -6.8343  -13.8742 C   0  0  0  0  0  0  0  0  0  0  0  0
   20.9409   -6.1274  -12.7881 C   0  0  0  0  0  0  0  0  0  0  0  0
   20.7608   -6.4234  -11.5982 O   0  0  0  0  0  0  0  0  0  0  0  0
   18.0911   -7.2716  -12.7297 C   0  0  0  0  0  0  0  0  0  0  0  0
   17.1439   -6.7876  -13.3749 O   0  0  0  0  0  0  0  0  0  0  0  0
   21.8050   -5.0818  -13.0857 O   0  0  0  0  0  0  0  0  0  0  0  0
   14.4468   -8.8788   -8.5708 N   0  0  0  0  0  0  0  0  0  0  0  0
   14.3012   -7.5134   -8.2352 C   0  0  0  0  0  0  0  0  0  0  0  0
   13.2502   -7.1223   -7.6912 O   0  0  0  0  0  0  0  0  0  0  0  0
   15.3944   -6.5781   -8.5362 C   0  0  0  0  0  0  0  0  0  0  0  0
   16.5472   -7.1709   -9.2945 C   0  0  0  0  0  0  0  0  0  0  0  0
   16.7181   -6.6553  -10.6910 C   0  0  2  0  0  0  0  0  0  0  0  0
   17.9294   -7.2360  -11.3055 N   0  0  0  0  0  0  0  0  0  0  0  0
   16.7678   -5.1790  -10.7732 C   0  0  0  0  0  0  0  0  0  0  0  0
   15.5722   -4.4717  -10.6851 O   0  0  0  0  0  0  0  0  0  0  0  0
   17.8119   -4.5004  -10.9177 O   0  0  0  0  0  0  0  0  0  0  0  0
  2  3  1  0
  2  1  1  0
  3  4  1  1
  5  3  1  0
  6  5  2  0
  7  5  1  0
  8 12  1  0
  8  7  1  0
  8  9  1  6
 10  9  1  0
 10 11  2  0
 12 21  1  0
 13 12  2  0
 14 10  1  0
 16 18  1  0
 16 15  1  0
 17 16  2  0
 20 19  1  1
 19 18  1  0
 20 22  1  0
 21 20  1  0
 22 24  2  0
 22 23  1  0
M  END
$$$$
