SDQ.pdb
     RDKit          3D

 24 23  0  0  1  0  0  0  0  0999 V2000
   17.6420  -12.2708  -14.3240 O   0  0  0  0  0  0  0  0  0  0  0  0
   18.0902  -11.0568  -14.7814 C   0  0  0  0  0  0  0  0  0  0  0  0
   17.0568  -10.2270  -15.4701 C   0  0  2  0  0  0  0  0  0  0  0  0
   16.8383  -10.8131  -16.7909 N   0  0  0  0  0  0  0  0  0  0  0  0
   17.3846   -8.8075  -15.6090 C   0  0  0  0  0  0  0  0  0  0  0  0
   18.0887   -8.4402  -16.5929 O   0  0  0  0  0  0  0  0  0  0  0  0
   16.9775   -7.7947  -14.7298 N   0  0  0  0  0  0  0  0  0  0  0  0
   17.3476   -6.3925  -14.9479 C   0  0  1  0  0  0  0  0  0  0  0  0
   16.3630   -5.4927  -14.2834 C   0  0  0  0  0  0  0  0  0  0  0  0
   16.6748   -4.0774  -14.4020 C   0  0  0  0  0  0  0  0  0  0  0  0
   17.2387   -3.4444  -13.4981 O   0  0  0  0  0  0  0  0  0  0  0  0
   18.7347   -6.2900  -14.4780 C   0  0  0  0  0  0  0  0  0  0  0  0
   19.1094   -6.9315  -13.4800 O   0  0  0  0  0  0  0  0  0  0  0  0
   16.3320   -3.4030  -15.5666 O   0  0  0  0  0  0  0  0  0  0  0  0
   23.7424   -7.2330  -17.6212 N   0  0  0  0  0  0  0  0  0  0  0  0
   24.3377   -6.7500  -16.4335 C   0  0  0  0  0  0  0  0  0  0  0  0
   25.5764   -6.7965  -16.3031 O   0  0  0  0  0  0  0  0  0  0  0  0
   23.4821   -6.2020  -15.3713 C   0  0  0  0  0  0  0  0  0  0  0  0
   22.0217   -6.1181  -15.7116 C   0  0  0  0  0  0  0  0  0  0  0  0
   21.1524   -5.5470  -14.6330 C   0  0  2  0  0  0  0  0  0  0  0  0
   19.7489   -5.4814  -15.0890 N   0  0  0  0  0  0  0  0  0  0  0  0
   21.5937   -4.2156  -14.1623 C   0  0  0  0  0  0  0  0  0  0  0  0
   22.6740   -4.1490  -13.2871 O   0  0  0  0  0  0  0  0  0  0  0  0
   21.0689   -3.1254  -14.4900 O   0  0  0  0  0  0  0  0  0  0  0  0
  2  3  1  0
  2  1  1  0
  3  4  1  6
  5  3  1  0
  6  5  2  0
  7  5  1  0
  8 12  1  0
  8  7  1  0
  8  9  1  1
 10  9  1  0
 10 11  2  0
 12 21  1  0
 13 12  2  0
 14 10  1  0
 16 18  1  0
 16 15  1  0
 17 16  2  0
 20 19  1  6
 19 18  1  0
 20 22  1  0
 21 20  1  0
 22 24  2  0
 22 23  1  0
M  END
$$$$
