SDQ.pdb
     RDKit          3D

 24 23  0  0  1  0  0  0  0  0999 V2000
   16.4136  -10.4290  -12.9017 O   0  0  0  0  0  0  0  0  0  0  0  0
   15.3486   -9.8872  -13.5769 C   0  0  0  0  0  0  0  0  0  0  0  0
   15.6341   -9.5038  -14.9920 C   0  0  2  0  0  0  0  0  0  0  0  0
   16.1433  -10.6938  -15.6703 N   0  0  0  0  0  0  0  0  0  0  0  0
   16.5772   -8.3978  -15.1627 C   0  0  0  0  0  0  0  0  0  0  0  0
   17.6249   -8.5926  -15.8432 O   0  0  0  0  0  0  0  0  0  0  0  0
   16.4190   -7.1116  -14.6285 N   0  0  0  0  0  0  0  0  0  0  0  0
   17.2539   -5.9887  -15.0675 C   0  0  1  0  0  0  0  0  0  0  0  0
   16.4563   -4.7300  -15.0782 C   0  0  0  0  0  0  0  0  0  0  0  0
   15.4937   -4.6439  -16.1646 C   0  0  0  0  0  0  0  0  0  0  0  0
   14.2723   -4.5798  -15.9649 O   0  0  0  0  0  0  0  0  0  0  0  0
   18.4162   -6.0083  -14.1707 C   0  0  0  0  0  0  0  0  0  0  0  0
   18.2579   -6.0416  -12.9372 O   0  0  0  0  0  0  0  0  0  0  0  0
   15.9506   -4.6327  -17.4759 O   0  0  0  0  0  0  0  0  0  0  0  0
   23.4887   -9.4103  -14.5509 N   0  0  0  0  0  0  0  0  0  0  0  0
   23.1985   -8.4962  -15.5895 C   0  0  0  0  0  0  0  0  0  0  0  0
   23.7307   -8.6452  -16.7067 O   0  0  0  0  0  0  0  0  0  0  0  0
   22.2733   -7.3838  -15.3311 C   0  0  0  0  0  0  0  0  0  0  0  0
   21.7110   -7.3351  -13.9392 C   0  0  0  0  0  0  0  0  0  0  0  0
   20.8895   -6.1206  -13.6308 C   0  0  2  0  0  0  0  0  0  0  0  0
   19.7836   -5.9917  -14.6017 N   0  0  0  0  0  0  0  0  0  0  0  0
   21.6774   -4.8689  -13.5932 C   0  0  0  0  0  0  0  0  0  0  0  0
   22.6282   -4.7168  -12.5881 O   0  0  0  0  0  0  0  0  0  0  0  0
   21.5593   -3.9189  -14.4025 O   0  0  0  0  0  0  0  0  0  0  0  0
  2  3  1  0
  2  1  1  0
  3  4  1  6
  5  3  1  0
  6  5  2  0
  7  5  1  0
  8 12  1  0
  8  7  1  0
  8  9  1  1
 10  9  1  0
 10 11  2  0
 12 21  1  0
 13 12  2  0
 14 10  1  0
 16 18  1  0
 16 15  1  0
 17 16  2  0
 20 19  1  6
 19 18  1  0
 20 22  1  0
 21 20  1  0
 22 24  2  0
 22 23  1  0
M  END
$$$$
