SDQ.pdb
     RDKit          3D

 24 23  0  0  1  0  0  0  0  0999 V2000
   16.0287  -10.8568  -13.8967 O   0  0  0  0  0  0  0  0  0  0  0  0
   15.5962  -11.6323  -14.9432 C   0  0  0  0  0  0  0  0  0  0  0  0
   16.6234  -11.8928  -15.9957 C   0  0  2  0  0  0  0  0  0  0  0  0
   17.6823  -12.6908  -15.3813 N   0  0  0  0  0  0  0  0  0  0  0  0
   17.2017  -10.6995  -16.6148 C   0  0  0  0  0  0  0  0  0  0  0  0
   18.4604  -10.6009  -16.6845 O   0  0  0  0  0  0  0  0  0  0  0  0
   16.4688   -9.6319  -17.1511 N   0  0  0  0  0  0  0  0  0  0  0  0
   17.1235   -8.5344  -17.8705 C   0  0  1  0  0  0  0  0  0  0  0  0
   16.2245   -8.0127  -18.9384 C   0  0  0  0  0  0  0  0  0  0  0  0
   16.7975   -6.9313  -19.7236 C   0  0  0  0  0  0  0  0  0  0  0  0
   17.7131   -6.2140  -19.2958 O   0  0  0  0  0  0  0  0  0  0  0  0
   17.5101   -7.5760  -16.8277 C   0  0  0  0  0  0  0  0  0  0  0  0
   16.7511   -7.3513  -15.8679 O   0  0  0  0  0  0  0  0  0  0  0  0
   16.3071   -6.6863  -20.9995 O   0  0  0  0  0  0  0  0  0  0  0  0
   22.7655   -7.0351  -13.7732 N   0  0  0  0  0  0  0  0  0  0  0  0
   22.1866   -5.7957  -13.4169 C   0  0  0  0  0  0  0  0  0  0  0  0
   22.7546   -5.0700  -12.5776 O   0  0  0  0  0  0  0  0  0  0  0  0
   20.9218   -5.3857  -14.0435 C   0  0  0  0  0  0  0  0  0  0  0  0
   20.4145   -6.3089  -15.1141 C   0  0  0  0  0  0  0  0  0  0  0  0
   19.0748   -5.9470  -15.6789 C   0  0  2  0  0  0  0  0  0  0  0  0
   18.7390   -6.8377  -16.8087 N   0  0  0  0  0  0  0  0  0  0  0  0
   18.9754   -4.5332  -16.1033 C   0  0  0  0  0  0  0  0  0  0  0  0
   19.1459   -4.2347  -17.4521 O   0  0  0  0  0  0  0  0  0  0  0  0
   18.7471   -3.5661  -15.3390 O   0  0  0  0  0  0  0  0  0  0  0  0
  2  3  1  0
  2  1  1  0
  3  4  1  1
  5  3  1  0
  6  5  2  0
  7  5  1  0
  8 12  1  0
  8  7  1  0
  8  9  1  6
 10  9  1  0
 10 11  2  0
 12 21  1  0
 13 12  2  0
 14 10  1  0
 16 18  1  0
 16 15  1  0
 17 16  2  0
 20 19  1  6
 19 18  1  0
 20 22  1  0
 21 20  1  0
 22 24  2  0
 22 23  1  0
M  END
$$$$
