SDQ.pdb
     RDKit          3D

 24 23  0  0  1  0  0  0  0  0999 V2000
   26.2703  -23.1504  -16.9181 O   0  0  0  0  0  0  0  0  0  0  0  0
   26.9805  -22.0587  -17.3513 C   0  0  0  0  0  0  0  0  0  0  0  0
   27.3158  -21.0671  -16.2858 C   0  0  2  0  0  0  0  0  0  0  0  0
   27.6893  -21.8220  -15.0916 N   0  0  0  0  0  0  0  0  0  0  0  0
   26.2511  -20.1186  -15.9563 C   0  0  0  0  0  0  0  0  0  0  0  0
   26.2071  -19.6369  -14.7880 O   0  0  0  0  0  0  0  0  0  0  0  0
   25.2535  -19.6849  -16.8402 N   0  0  0  0  0  0  0  0  0  0  0  0
   24.2450  -18.6993  -16.4375 C   0  0  1  0  0  0  0  0  0  0  0  0
   23.7582  -17.9476  -17.6286 C   0  0  0  0  0  0  0  0  0  0  0  0
   22.6835  -17.0106  -17.3433 C   0  0  0  0  0  0  0  0  0  0  0  0
   22.6901  -16.2783  -16.3435 O   0  0  0  0  0  0  0  0  0  0  0  0
   23.2338  -19.4708  -15.7043 C   0  0  0  0  0  0  0  0  0  0  0  0
   22.7833  -20.5285  -16.1798 O   0  0  0  0  0  0  0  0  0  0  0  0
   21.6073  -16.9267  -18.2170 O   0  0  0  0  0  0  0  0  0  0  0  0
   21.4679  -19.1520   -9.5496 N   0  0  0  0  0  0  0  0  0  0  0  0
   20.6343  -20.1716  -10.0632 C   0  0  0  0  0  0  0  0  0  0  0  0
   19.8463  -20.7643   -9.3008 O   0  0  0  0  0  0  0  0  0  0  0  0
   20.7138  -20.5153  -11.4901 C   0  0  0  0  0  0  0  0  0  0  0  0
   21.7261  -19.7328  -12.2767 C   0  0  0  0  0  0  0  0  0  0  0  0
   21.6844  -19.9537  -13.7581 C   0  0  2  0  0  0  0  0  0  0  0  0
   22.6887  -19.1039  -14.4299 N   0  0  0  0  0  0  0  0  0  0  0  0
   20.3490  -19.7235  -14.3519 C   0  0  0  0  0  0  0  0  0  0  0  0
   20.0334  -18.4407  -14.7908 O   0  0  0  0  0  0  0  0  0  0  0  0
   19.4639  -20.5994  -14.4956 O   0  0  0  0  0  0  0  0  0  0  0  0
  2  3  1  0
  2  1  1  0
  3  4  1  1
  5  3  1  0
  6  5  2  0
  7  5  1  0
  8 12  1  0
  8  7  1  0
  8  9  1  6
 10  9  1  0
 10 11  2  0
 12 21  1  0
 13 12  2  0
 14 10  1  0
 16 18  1  0
 16 15  1  0
 17 16  2  0
 20 19  1  1
 19 18  1  0
 20 22  1  0
 21 20  1  0
 22 24  2  0
 22 23  1  0
M  END
$$$$
