SDQ.pdb
     RDKit          3D

 24 23  0  0  1  0  0  0  0  0999 V2000
   15.8060  -11.3688  -17.5578 O   0  0  0  0  0  0  0  0  0  0  0  0
   17.1690  -11.4922  -17.6624 C   0  0  0  0  0  0  0  0  0  0  0  0
   17.9504  -10.5357  -16.8226 C   0  0  2  0  0  0  0  0  0  0  0  0
   17.1109  -10.1717  -15.6832 N   0  0  0  0  0  0  0  0  0  0  0  0
   18.4019   -9.3246  -17.5089 C   0  0  0  0  0  0  0  0  0  0  0  0
   19.6071   -9.2527  -17.8845 O   0  0  0  0  0  0  0  0  0  0  0  0
   17.5993   -8.2117  -17.7954 N   0  0  0  0  0  0  0  0  0  0  0  0
   18.1469   -7.0149  -18.4423 C   0  0  1  0  0  0  0  0  0  0  0  0
   17.0445   -6.1905  -19.0130 C   0  0  0  0  0  0  0  0  0  0  0  0
   17.4734   -4.9043  -19.5386 C   0  0  0  0  0  0  0  0  0  0  0  0
   18.5486   -4.7575  -20.1370 O   0  0  0  0  0  0  0  0  0  0  0  0
   18.9675   -6.3691  -17.4103 C   0  0  0  0  0  0  0  0  0  0  0  0
   18.5598   -6.2966  -16.2371 O   0  0  0  0  0  0  0  0  0  0  0  0
   16.6549   -3.7954  -19.3683 O   0  0  0  0  0  0  0  0  0  0  0  0
   21.0759   -6.6686  -13.2424 N   0  0  0  0  0  0  0  0  0  0  0  0
   22.2670   -5.9279  -13.4181 C   0  0  0  0  0  0  0  0  0  0  0  0
   22.8657   -5.4800  -12.4209 O   0  0  0  0  0  0  0  0  0  0  0  0
   22.7775   -5.6982  -14.7772 C   0  0  0  0  0  0  0  0  0  0  0  0
   21.8992   -6.2131  -15.8814 C   0  0  0  0  0  0  0  0  0  0  0  0
   21.0248   -5.1820  -16.5273 C   0  0  2  0  0  0  0  0  0  0  0  0
   20.2573   -5.7850  -17.6362 N   0  0  0  0  0  0  0  0  0  0  0  0
   21.7677   -3.9980  -17.0122 C   0  0  0  0  0  0  0  0  0  0  0  0
   22.0608   -3.9124  -18.3703 O   0  0  0  0  0  0  0  0  0  0  0  0
   22.1619   -3.0504  -16.2923 O   0  0  0  0  0  0  0  0  0  0  0  0
  2  3  1  0
  2  1  1  0
  3  4  1  1
  5  3  1  0
  6  5  2  0
  7  5  1  0
  8 12  1  0
  8  7  1  0
  8  9  1  1
 10  9  1  0
 10 11  2  0
 12 21  1  0
 13 12  2  0
 14 10  1  0
 16 18  1  0
 16 15  1  0
 17 16  2  0
 20 19  1  6
 19 18  1  0
 20 22  1  0
 21 20  1  0
 22 24  2  0
 22 23  1  0
M  END
$$$$
