SDQ.pdb
     RDKit          3D

 24 23  0  0  1  0  0  0  0  0999 V2000
   16.6104  -13.0644  -11.2891 O   0  0  0  0  0  0  0  0  0  0  0  0
   16.6698  -11.7029  -11.4519 C   0  0  0  0  0  0  0  0  0  0  0  0
   15.4385  -10.9681  -11.0338 C   0  0  2  0  0  0  0  0  0  0  0  0
   14.3870  -11.3018  -11.9922 N   0  0  0  0  0  0  0  0  0  0  0  0
   15.5781   -9.5143  -10.9418 C   0  0  0  0  0  0  0  0  0  0  0  0
   15.3310   -8.8144  -11.9655 O   0  0  0  0  0  0  0  0  0  0  0  0
   15.9687   -8.8113   -9.7938 N   0  0  0  0  0  0  0  0  0  0  0  0
   15.9935   -7.3454   -9.7610 C   0  0  1  0  0  0  0  0  0  0  0  0
   15.6822   -6.8577   -8.3877 C   0  0  0  0  0  0  0  0  0  0  0  0
   14.2620   -6.8150   -8.0785 C   0  0  0  0  0  0  0  0  0  0  0  0
   13.6826   -7.7408   -7.4928 O   0  0  0  0  0  0  0  0  0  0  0  0
   17.3115   -6.9774  -10.2928 C   0  0  0  0  0  0  0  0  0  0  0  0
   18.3350   -7.5640   -9.8976 O   0  0  0  0  0  0  0  0  0  0  0  0
   13.5206   -5.7007   -8.4491 O   0  0  0  0  0  0  0  0  0  0  0  0
   20.3175   -9.4858  -13.5713 N   0  0  0  0  0  0  0  0  0  0  0  0
   21.1308   -8.3376  -13.7070 C   0  0  0  0  0  0  0  0  0  0  0  0
   22.2595   -8.4409  -14.2253 O   0  0  0  0  0  0  0  0  0  0  0  0
   20.6290   -7.0404  -13.2317 C   0  0  0  0  0  0  0  0  0  0  0  0
   19.3090   -7.0928  -12.5171 C   0  0  0  0  0  0  0  0  0  0  0  0
   18.8677   -5.7972  -11.9074 C   0  0  2  0  0  0  0  0  0  0  0  0
   17.5435   -5.9562  -11.2722 N   0  0  0  0  0  0  0  0  0  0  0  0
   18.8354   -4.6730  -12.8687 C   0  0  0  0  0  0  0  0  0  0  0  0
   20.0405   -4.0765  -13.2285 O   0  0  0  0  0  0  0  0  0  0  0  0
   17.7984   -4.2049  -13.3949 O   0  0  0  0  0  0  0  0  0  0  0  0
  2  3  1  0
  2  1  1  0
  3  4  1  6
  5  3  1  0
  6  5  2  0
  7  5  1  0
  8 12  1  0
  8  7  1  0
  8  9  1  1
 10  9  1  0
 10 11  2  0
 12 21  1  0
 13 12  2  0
 14 10  1  0
 16 18  1  0
 16 15  1  0
 17 16  2  0
 20 19  1  6
 19 18  1  0
 20 22  1  0
 21 20  1  0
 22 24  2  0
 22 23  1  0
M  END
$$$$
