SDQ.pdb
     RDKit          3D

 24 23  0  0  1  0  0  0  0  0999 V2000
   15.0943  -13.5772  -11.1641 O   0  0  0  0  0  0  0  0  0  0  0  0
   15.8209  -12.5131  -10.6914 C   0  0  0  0  0  0  0  0  0  0  0  0
   15.1555  -11.1844  -10.8420 C   0  0  2  0  0  0  0  0  0  0  0  0
   14.6325  -11.1124  -12.2047 N   0  0  0  0  0  0  0  0  0  0  0  0
   16.0078  -10.0242  -10.5794 C   0  0  0  0  0  0  0  0  0  0  0  0
   16.4738   -9.8640   -9.4149 O   0  0  0  0  0  0  0  0  0  0  0  0
   16.3636   -9.0526  -11.5249 N   0  0  0  0  0  0  0  0  0  0  0  0
   17.2849   -7.9601  -11.1956 C   0  0  1  0  0  0  0  0  0  0  0  0
   18.3319   -7.8370  -12.2488 C   0  0  0  0  0  0  0  0  0  0  0  0
   19.2828   -6.7609  -12.0203 C   0  0  0  0  0  0  0  0  0  0  0  0
   19.8446   -6.1638  -12.9497 O   0  0  0  0  0  0  0  0  0  0  0  0
   16.4250   -6.7862  -11.0004 C   0  0  0  0  0  0  0  0  0  0  0  0
   15.6767   -6.3962  -11.9145 O   0  0  0  0  0  0  0  0  0  0  0  0
   19.5780   -6.3823  -10.7172 O   0  0  0  0  0  0  0  0  0  0  0  0
   13.6361   -4.5667   -5.8889 N   0  0  0  0  0  0  0  0  0  0  0  0
   12.9609   -5.2561   -6.9218 C   0  0  0  0  0  0  0  0  0  0  0  0
   11.8693   -5.8079   -6.6820 O   0  0  0  0  0  0  0  0  0  0  0  0
   13.5612   -5.3106   -8.2624 C   0  0  0  0  0  0  0  0  0  0  0  0
   14.9057   -4.6524   -8.3838 C   0  0  0  0  0  0  0  0  0  0  0  0
   15.5510   -4.7751   -9.7305 C   0  0  2  0  0  0  0  0  0  0  0  0
   16.3623   -6.0077   -9.7980 N   0  0  0  0  0  0  0  0  0  0  0  0
   16.3784   -3.6048  -10.0974 C   0  0  0  0  0  0  0  0  0  0  0  0
   17.7402   -3.7992  -10.3105 O   0  0  0  0  0  0  0  0  0  0  0  0
   15.9504   -2.4346  -10.2348 O   0  0  0  0  0  0  0  0  0  0  0  0
  2  3  1  0
  2  1  1  0
  3  4  1  6
  5  3  1  0
  6  5  2  0
  7  5  1  0
  8 12  1  0
  8  7  1  0
  8  9  1  6
 10  9  1  0
 10 11  2  0
 12 21  1  0
 13 12  2  0
 14 10  1  0
 16 18  1  0
 16 15  1  0
 17 16  2  0
 20 19  1  1
 19 18  1  0
 20 22  1  0
 21 20  1  0
 22 24  2  0
 22 23  1  0
M  END
$$$$
