IDP.pdb
     RDKit          3D

 24 24  0  0  1  0  0  0  0  0999 V2000
   27.9119  -11.4092  -15.6694 C   0  0  0  0  0  0  0  0  0  0  0  0
   26.4576  -11.6297  -15.2741 C   0  0  0  0  0  0  0  0  0  0  0  0
   25.5460  -10.7530  -16.0977 C   0  0  2  0  0  0  0  0  0  0  0  0
   25.9733   -9.3271  -15.9068 C   0  0  0  0  0  0  0  0  0  0  0  0
   24.1295  -11.0558  -15.7866 C   0  0  2  0  0  0  0  0  0  0  0  0
   23.8400  -12.4794  -15.7838 N   0  0  0  0  0  0  0  0  0  0  0  0
   23.1187  -10.3426  -16.5897 C   0  0  0  0  0  0  0  0  0  0  0  0
   22.7487  -10.7252  -17.7373 O   0  0  0  0  0  0  0  0  0  0  0  0
   22.5104   -9.1589  -16.0729 N   0  0  0  0  0  0  0  0  0  0  0  0
   21.5470   -8.3751  -16.9001 C   0  0  1  0  0  0  0  0  0  0  0  0
   20.3205   -9.2920  -17.0057 C   0  0  0  0  0  0  0  0  0  0  0  0
   19.6453   -9.5254  -15.7408 C   0  0  0  0  0  0  0  0  0  0  0  0
   20.1998  -10.1497  -14.7707 O   0  0  0  0  0  0  0  0  0  0  0  0
   21.2206   -7.1663  -16.1212 C   0  0  0  0  0  0  0  0  0  0  0  0
   21.3649   -7.2863  -14.8393 O   0  0  0  0  0  0  0  0  0  0  0  0
   18.3516   -9.0661  -15.5436 O   0  0  0  0  0  0  0  0  0  0  0  0
   20.7841   -5.9258  -16.6265 N   0  0  0  0  0  0  0  0  0  0  0  0
   20.3876   -5.6647  -18.0014 C   0  0  0  0  0  0  0  0  0  0  0  0
   20.3493   -4.1557  -18.1621 C   0  0  0  0  0  0  0  0  0  0  0  0
   21.1720   -3.6884  -16.9510 C   0  0  0  0  0  0  0  0  0  0  0  0
   20.6365   -4.6918  -15.9193 C   0  0  1  0  0  0  0  0  0  0  0  0
   19.1598   -4.3487  -15.8125 C   0  0  0  0  0  0  0  0  0  0  0  0
   18.3100   -5.0197  -16.4463 O   0  0  0  0  0  0  0  0  0  0  0  0
   18.7164   -3.3030  -15.0249 O   0  0  0  0  0  0  0  0  0  0  0  0
  2  1  1  0
  3  2  1  0
  3  4  1  1
  5  3  1  0
  5  6  1  6
  7  5  1  0
  7  8  2  0
  9  7  1  0
 10  9  1  0
 10 11  1  1
 12 11  1  0
 13 12  2  0
 14 10  1  0
 15 14  2  0
 16 12  1  0
 17 14  1  0
 17 21  1  0
 18 17  1  0
 18 19  1  0
 19 20  1  0
 21 20  1  0
 22 24  1  0
 21 22  1  6
 23 22  2  0
M  END
$$$$
