IDP.pdb
     RDKit          3D

 24 24  0  0  1  0  0  0  0  0999 V2000
   22.6834  -30.1127  -21.3875 C   0  0  0  0  0  0  0  0  0  0  0  0
   23.0904  -30.0662  -19.9205 C   0  0  0  0  0  0  0  0  0  0  0  0
   24.5684  -29.7899  -19.7893 C   0  0  2  0  0  0  0  0  0  0  0  0
   25.3051  -30.7784  -20.6451 C   0  0  0  0  0  0  0  0  0  0  0  0
   24.9550  -29.7506  -18.3597 C   0  0  2  0  0  0  0  0  0  0  0  0
   24.2585  -28.7187  -17.6107 N   0  0  0  0  0  0  0  0  0  0  0  0
   26.4008  -29.6825  -18.0767 C   0  0  0  0  0  0  0  0  0  0  0  0
   27.0193  -28.5960  -17.8837 O   0  0  0  0  0  0  0  0  0  0  0  0
   27.1668  -30.8856  -18.0115 N   0  0  0  0  0  0  0  0  0  0  0  0
   28.6030  -30.8523  -17.6075 C   0  0  1  0  0  0  0  0  0  0  0  0
   28.7803  -32.1270  -16.7709 C   0  0  0  0  0  0  0  0  0  0  0  0
   28.4289  -31.9693  -15.3701 C   0  0  0  0  0  0  0  0  0  0  0  0
   28.1082  -30.8376  -14.8653 O   0  0  0  0  0  0  0  0  0  0  0  0
   29.3857  -30.9414  -18.8540 C   0  0  0  0  0  0  0  0  0  0  0  0
   28.7373  -31.4061  -19.8748 O   0  0  0  0  0  0  0  0  0  0  0  0
   28.4293  -33.0662  -14.5214 O   0  0  0  0  0  0  0  0  0  0  0  0
   30.7334  -30.5736  -19.0355 N   0  0  0  0  0  0  0  0  0  0  0  0
   31.6470  -30.1610  -17.9815 C   0  0  0  0  0  0  0  0  0  0  0  0
   32.8429  -29.5268  -18.6683 C   0  0  0  0  0  0  0  0  0  0  0  0
   32.2850  -29.2386  -20.0711 C   0  0  0  0  0  0  0  0  0  0  0  0
   31.4755  -30.5302  -20.2570 C   0  0  1  0  0  0  0  0  0  0  0  0
   32.5303  -31.6244  -20.2417 C   0  0  0  0  0  0  0  0  0  0  0  0
   33.2327  -31.8361  -21.2594 O   0  0  0  0  0  0  0  0  0  0  0  0
   32.7436  -32.4064  -19.1220 O   0  0  0  0  0  0  0  0  0  0  0  0
  2  1  1  0
  3  2  1  0
  3  4  1  6
  5  3  1  0
  5  6  1  6
  7  5  1  0
  7  8  2  0
  9  7  1  0
 10  9  1  0
 10 11  1  1
 12 11  1  0
 13 12  2  0
 14 10  1  0
 15 14  2  0
 16 12  1  0
 17 14  1  0
 17 21  1  0
 18 17  1  0
 18 19  1  0
 19 20  1  0
 21 20  1  0
 22 24  1  0
 21 22  1  1
 23 22  2  0
M  END
$$$$
