IDP.pdb
     RDKit          3D

 24 24  0  0  1  0  0  0  0  0999 V2000
   14.1770  -17.8818    2.6694 C   0  0  0  0  0  0  0  0  0  0  0  0
   14.4293  -19.1589    1.8788 C   0  0  0  0  0  0  0  0  0  0  0  0
   14.7592  -20.3011    2.8087 C   0  0  2  0  0  0  0  0  0  0  0  0
   15.9895  -19.9304    3.5840 C   0  0  0  0  0  0  0  0  0  0  0  0
   14.8250  -21.5726    2.0512 C   0  0  2  0  0  0  0  0  0  0  0  0
   13.6313  -21.8274    1.2633 N   0  0  0  0  0  0  0  0  0  0  0  0
   15.1768  -22.7765    2.8273 C   0  0  0  0  0  0  0  0  0  0  0  0
   14.3542  -23.3894    3.5674 O   0  0  0  0  0  0  0  0  0  0  0  0
   16.5037  -23.2991    2.7603 N   0  0  0  0  0  0  0  0  0  0  0  0
   16.8940  -24.4906    3.5696 C   0  0  1  0  0  0  0  0  0  0  0  0
   17.9293  -25.2088    2.6929 C   0  0  0  0  0  0  0  0  0  0  0  0
   17.3536  -26.1510    1.7487 C   0  0  0  0  0  0  0  0  0  0  0  0
   17.6722  -26.1629    0.5090 O   0  0  0  0  0  0  0  0  0  0  0  0
   17.5292  -23.9691    4.7940 C   0  0  0  0  0  0  0  0  0  0  0  0
   18.0917  -22.8091    4.6667 O   0  0  0  0  0  0  0  0  0  0  0  0
   16.4225  -27.0866    2.1741 O   0  0  0  0  0  0  0  0  0  0  0  0
   17.5755  -24.5941    6.0557 N   0  0  0  0  0  0  0  0  0  0  0  0
   17.0351  -25.9076    6.3695 C   0  0  0  0  0  0  0  0  0  0  0  0
   16.9878  -26.0063    7.8835 C   0  0  0  0  0  0  0  0  0  0  0  0
   17.1037  -24.5314    8.2996 C   0  0  0  0  0  0  0  0  0  0  0  0
   18.1493  -24.0909    7.2649 C   0  0  1  0  0  0  0  0  0  0  0  0
   19.3773  -24.9141    7.6175 C   0  0  0  0  0  0  0  0  0  0  0  0
   19.6599  -25.9398    6.9527 O   0  0  0  0  0  0  0  0  0  0  0  0
   20.2067  -24.5614    8.6655 O   0  0  0  0  0  0  0  0  0  0  0  0
  2  1  1  0
  3  2  1  0
  3  4  1  6
  5  3  1  0
  5  6  1  1
  7  5  1  0
  7  8  2  0
  9  7  1  0
 10  9  1  0
 10 11  1  6
 12 11  1  0
 13 12  2  0
 14 10  1  0
 15 14  2  0
 16 12  1  0
 17 14  1  0
 17 21  1  0
 18 17  1  0
 18 19  1  0
 19 20  1  0
 21 20  1  0
 22 24  1  0
 21 22  1  1
 23 22  2  0
M  END
$$$$
