IDP.pdb
     RDKit          3D

 24 24  0  0  1  0  0  0  0  0999 V2000
   14.0337   -6.8493   -7.2488 C   0  0  0  0  0  0  0  0  0  0  0  0
   13.6476   -7.5679   -8.5350 C   0  0  0  0  0  0  0  0  0  0  0  0
   14.8490   -8.2519   -9.1408 C   0  0  2  0  0  0  0  0  0  0  0  0
   15.9258   -7.2235   -9.3275 C   0  0  0  0  0  0  0  0  0  0  0  0
   14.4499   -9.0047  -10.3527 C   0  0  2  0  0  0  0  0  0  0  0  0
   13.4877  -10.0576  -10.0767 N   0  0  0  0  0  0  0  0  0  0  0  0
   15.5483   -9.5372  -11.1807 C   0  0  0  0  0  0  0  0  0  0  0  0
   16.0760  -10.6705  -10.9873 O   0  0  0  0  0  0  0  0  0  0  0  0
   16.0624   -8.7579  -12.2608 N   0  0  0  0  0  0  0  0  0  0  0  0
   17.1979   -9.2603  -13.0886 C   0  0  1  0  0  0  0  0  0  0  0  0
   16.5308   -9.7092  -14.3961 C   0  0  0  0  0  0  0  0  0  0  0  0
   17.4481  -10.2967  -15.3573 C   0  0  0  0  0  0  0  0  0  0  0  0
   18.3044  -11.1909  -15.0321 O   0  0  0  0  0  0  0  0  0  0  0  0
   18.0777   -8.1019  -13.3306 C   0  0  0  0  0  0  0  0  0  0  0  0
   17.5109   -6.9456  -13.1887 O   0  0  0  0  0  0  0  0  0  0  0  0
   17.4201   -9.8973  -16.6851 O   0  0  0  0  0  0  0  0  0  0  0  0
   19.4404   -8.1337  -13.6865 N   0  0  0  0  0  0  0  0  0  0  0  0
   20.2111   -9.3325  -13.9772 C   0  0  0  0  0  0  0  0  0  0  0  0
   21.6731   -8.9249  -13.9501 C   0  0  0  0  0  0  0  0  0  0  0  0
   21.6137   -7.5865  -13.1971 C   0  0  0  0  0  0  0  0  0  0  0  0
   20.3349   -7.0284  -13.8382 C   0  0  1  0  0  0  0  0  0  0  0  0
   20.7011   -6.8777  -15.3056 C   0  0  0  0  0  0  0  0  0  0  0  0
   20.3089   -7.7259  -16.1427 O   0  0  0  0  0  0  0  0  0  0  0  0
   21.4653   -5.8169  -15.7540 O   0  0  0  0  0  0  0  0  0  0  0  0
  2  1  1  0
  3  2  1  0
  3  4  1  6
  5  3  1  0
  5  6  1  1
  7  5  1  0
  7  8  2  0
  9  7  1  0
 10  9  1  0
 10 11  1  6
 12 11  1  0
 13 12  2  0
 14 10  1  0
 15 14  2  0
 16 12  1  0
 17 14  1  0
 17 21  1  0
 18 17  1  0
 18 19  1  0
 19 20  1  0
 21 20  1  0
 22 24  1  0
 21 22  1  6
 23 22  2  0
M  END
$$$$
