IDP.pdb
     RDKit          3D

 24 24  0  0  1  0  0  0  0  0999 V2000
   22.9242  -32.8202  -12.6831 C   0  0  0  0  0  0  0  0  0  0  0  0
   24.2331  -32.9152  -11.9101 C   0  0  0  0  0  0  0  0  0  0  0  0
   23.9688  -32.9662  -10.4250 C   0  0  2  0  0  0  0  0  0  0  0  0
   23.2183  -31.7242  -10.0422 C   0  0  0  0  0  0  0  0  0  0  0  0
   25.2308  -33.2172   -9.6907 C   0  0  2  0  0  0  0  0  0  0  0  0
   26.1008  -34.1664  -10.3636 N   0  0  0  0  0  0  0  0  0  0  0  0
   25.0958  -33.5852   -8.2689 C   0  0  0  0  0  0  0  0  0  0  0  0
   24.4966  -32.8641   -7.4197 O   0  0  0  0  0  0  0  0  0  0  0  0
   25.6591  -34.8097   -7.7981 N   0  0  0  0  0  0  0  0  0  0  0  0
   25.5852  -35.1755   -6.3533 C   0  0  1  0  0  0  0  0  0  0  0  0
   25.0863  -36.6271   -6.3654 C   0  0  0  0  0  0  0  0  0  0  0  0
   25.0702  -37.2584   -5.0570 C   0  0  0  0  0  0  0  0  0  0  0  0
   25.2627  -38.5138   -4.8973 O   0  0  0  0  0  0  0  0  0  0  0  0
   26.9655  -35.1097   -5.8386 C   0  0  0  0  0  0  0  0  0  0  0  0
   27.8542  -35.6907   -6.5809 O   0  0  0  0  0  0  0  0  0  0  0  0
   24.8425  -36.5008   -3.9179 O   0  0  0  0  0  0  0  0  0  0  0  0
   27.3974  -34.4869   -4.6511 N   0  0  0  0  0  0  0  0  0  0  0  0
   26.5413  -33.8014   -3.6957 C   0  0  0  0  0  0  0  0  0  0  0  0
   27.4578  -32.9955   -2.7929 C   0  0  0  0  0  0  0  0  0  0  0  0
   28.7554  -32.9554   -3.6156 C   0  0  0  0  0  0  0  0  0  0  0  0
   28.7299  -34.3985   -4.1397 C   0  0  1  0  0  0  0  0  0  0  0  0
   28.8409  -35.2433   -2.8812 C   0  0  0  0  0  0  0  0  0  0  0  0
   27.8161  -35.7680   -2.3826 O   0  0  0  0  0  0  0  0  0  0  0  0
   30.0566  -35.4556   -2.2587 O   0  0  0  0  0  0  0  0  0  0  0  0
  2  1  1  0
  3  2  1  0
  3  4  1  1
  5  3  1  0
  5  6  1  6
  7  5  1  0
  7  8  2  0
  9  7  1  0
 10  9  1  0
 10 11  1  6
 12 11  1  0
 13 12  2  0
 14 10  1  0
 15 14  2  0
 16 12  1  0
 17 14  1  0
 17 21  1  0
 18 17  1  0
 18 19  1  0
 19 20  1  0
 21 20  1  0
 22 24  1  0
 21 22  1  1
 23 22  2  0
M  END
$$$$
