IDP.pdb
     RDKit          3D

 24 24  0  0  1  0  0  0  0  0999 V2000
   25.7607  -14.7341  -15.1741 C   0  0  0  0  0  0  0  0  0  0  0  0
   24.2996  -14.5778  -15.5748 C   0  0  0  0  0  0  0  0  0  0  0  0
   23.9922  -13.1377  -15.9061 C   0  0  2  0  0  0  0  0  0  0  0  0
   24.2664  -12.3099  -14.6847 C   0  0  0  0  0  0  0  0  0  0  0  0
   22.6297  -13.0253  -16.4768 C   0  0  2  0  0  0  0  0  0  0  0  0
   22.3807  -13.9777  -17.5453 N   0  0  0  0  0  0  0  0  0  0  0  0
   22.2102  -11.6770  -16.9025 C   0  0  0  0  0  0  0  0  0  0  0  0
   22.6463  -11.1126  -17.9472 O   0  0  0  0  0  0  0  0  0  0  0  0
   21.2669  -10.9482  -16.1168 N   0  0  0  0  0  0  0  0  0  0  0  0
   20.8579   -9.5669  -16.5064 C   0  0  1  0  0  0  0  0  0  0  0  0
   19.3349   -9.5654  -16.3149 C   0  0  0  0  0  0  0  0  0  0  0  0
   18.7073   -8.2807  -16.5722 C   0  0  0  0  0  0  0  0  0  0  0  0
   18.6836   -7.7482  -17.7360 O   0  0  0  0  0  0  0  0  0  0  0  0
   21.4994   -8.6571  -15.5393 C   0  0  0  0  0  0  0  0  0  0  0  0
   21.6816   -9.1555  -14.3575 O   0  0  0  0  0  0  0  0  0  0  0  0
   18.1008   -7.5797  -15.5406 O   0  0  0  0  0  0  0  0  0  0  0  0
   21.9260   -7.3353  -15.7750 N   0  0  0  0  0  0  0  0  0  0  0  0
   21.7843   -6.6115  -17.0286 C   0  0  0  0  0  0  0  0  0  0  0  0
   22.6878   -5.3955  -16.9314 C   0  0  0  0  0  0  0  0  0  0  0  0
   23.6158   -5.7841  -15.7696 C   0  0  0  0  0  0  0  0  0  0  0  0
   22.5684   -6.4432  -14.8605 C   0  0  1  0  0  0  0  0  0  0  0  0
   21.6189   -5.3069  -14.5184 C   0  0  0  0  0  0  0  0  0  0  0  0
   21.9193   -4.4841  -13.6201 O   0  0  0  0  0  0  0  0  0  0  0  0
   20.4144   -5.1488  -15.1778 O   0  0  0  0  0  0  0  0  0  0  0  0
  2  1  1  0
  3  2  1  0
  3  4  1  1
  5  3  1  0
  5  6  1  6
  7  5  1  0
  7  8  2  0
  9  7  1  0
 10  9  1  0
 10 11  1  1
 12 11  1  0
 13 12  2  0
 14 10  1  0
 15 14  2  0
 16 12  1  0
 17 14  1  0
 17 21  1  0
 18 17  1  0
 18 19  1  0
 19 20  1  0
 21 20  1  0
 22 24  1  0
 21 22  1  6
 23 22  2  0
M  END
$$$$
