RLE.pdb
     RDKit          3D

 29 28  0  0  1  0  0  0  0  0999 V2000
    8.7154  -15.1304   16.2038 N   0  0  0  0  0  0  0  0  0  0  0  0
    8.5916  -13.7234   16.2688 C   0  0  0  0  0  0  0  0  0  0  0  0
    8.6356  -13.0397   15.1771 N   0  0  0  0  0  0  0  0  0  0  0  0
    8.4204  -13.0652   17.5164 N   0  0  0  0  0  0  0  0  0  0  0  0
    8.7398  -13.7351   18.7568 C   0  0  0  0  0  0  0  0  0  0  0  0
    7.4770  -14.3853   19.3087 C   0  0  0  0  0  0  0  0  0  0  0  0
    7.4266  -14.2487   20.8100 C   0  0  0  0  0  0  0  0  0  0  0  0
    8.2377  -15.3771   21.4257 C   0  0  2  0  0  0  0  0  0  0  0  0
    7.4451  -16.5740   21.5864 N   0  0  0  0  0  0  0  0  0  0  0  0
    8.7162  -14.8600   22.7480 C   0  0  0  0  0  0  0  0  0  0  0  0
    9.8529  -14.3203   22.7930 O   0  0  0  0  0  0  0  0  0  0  0  0
    8.5384  -12.0162   15.1794 C   0  0  0  0  0  0  0  0  0  0  0  0
    5.2998  -12.5037   26.4702 C   0  0  1  0  0  0  0  0  0  0  0  0
    6.5085  -12.8163   25.6702 C   0  0  0  0  0  0  0  0  0  0  0  0
    7.3919  -11.5717   25.5394 C   0  0  0  0  0  0  0  0  0  0  0  0
    7.3045  -13.9913   26.0585 C   0  0  2  0  0  0  0  0  0  0  0  0
    8.3768  -14.4698   25.1564 N   0  0  0  0  0  0  0  0  0  0  0  0
    7.9029  -14.9820   23.9051 C   0  0  0  0  0  0  0  0  0  0  0  0
    9.3914  -15.3529   25.7876 O   0  0  0  0  0  0  0  0  0  0  0  0
    9.8931  -14.9566   26.8775 N   0  0  0  0  0  0  0  0  0  0  0  0
    9.8220  -16.5748   25.2696 C   0  0  1  0  0  0  0  0  0  0  0  0
   10.9486  -17.3367   25.9061 C   0  0  0  0  0  0  0  0  0  0  0  0
   10.2459  -18.5316   26.4782 C   0  0  0  0  0  0  0  0  0  0  0  0
   10.5410  -18.9836   27.8424 C   0  0  0  0  0  0  0  0  0  0  0  0
    9.8927  -20.1864   28.3563 O   0  0  0  0  0  0  0  0  0  0  0  0
    9.0674  -20.8139   27.6547 C   0  0  0  0  0  0  0  0  0  0  0  0
   11.8653  -17.7447   24.8263 O   0  0  0  0  0  0  0  0  0  0  0  0
   11.6460  -17.6780   23.6009 O   0  0  0  0  0  0  0  0  0  0  0  0
   10.1803  -20.6529   29.6226 O   0  0  0  0  0  0  0  0  0  0  0  0
  2  1  1  0
  2  3  2  0
  4  2  1  0
  5  4  1  0
  6  5  1  0
  7  6  1  0
  8  7  1  0
  8  9  1  1
 10 17  1  0
 10  8  1  0
 11 10  2  0
 13 12  1  6
 14 13  1  0
 15 13  1  0
 16 15  1  6
 16 17  1  0
 18 16  1  0
 18 19  2  0
 20 18  1  0
 21 20  1  0
 21 26  1  0
 21 22  1  1
 23 22  1  0
 24 23  1  0
 25 24  2  0
 26 29  1  0
 27 26  2  0
 28 24  1  0
M  END
$$$$
