RLE.pdb
     RDKit          3D

 29 28  0  0  1  0  0  0  0  0999 V2000
    8.6753  -12.8100   15.9743 N   0  0  0  0  0  0  0  0  0  0  0  0
    8.6465  -14.2236   15.9751 C   0  0  0  0  0  0  0  0  0  0  0  0
    8.2783  -14.8432   14.9066 N   0  0  0  0  0  0  0  0  0  0  0  0
    9.0174  -14.9580   17.1336 N   0  0  0  0  0  0  0  0  0  0  0  0
    9.2649  -14.2852   18.3888 C   0  0  0  0  0  0  0  0  0  0  0  0
    8.0152  -13.5121   18.7919 C   0  0  0  0  0  0  0  0  0  0  0  0
    7.9454  -13.3677   20.2917 C   0  0  0  0  0  0  0  0  0  0  0  0
    7.7499  -14.7461   20.9017 C   0  0  2  0  0  0  0  0  0  0  0  0
    6.3620  -15.1457   20.8761 N   0  0  0  0  0  0  0  0  0  0  0  0
    8.2612  -14.6460   22.3064 C   0  0  0  0  0  0  0  0  0  0  0  0
    9.5069  -14.5754   22.4762 O   0  0  0  0  0  0  0  0  0  0  0  0
    8.2007  -15.8680   14.8789 C   0  0  0  0  0  0  0  0  0  0  0  0
    5.5424  -12.0425   26.3782 C   0  0  1  0  0  0  0  0  0  0  0  0
    6.6871  -12.5811   25.6048 C   0  0  0  0  0  0  0  0  0  0  0  0
    7.9357  -11.7269   25.8453 C   0  0  0  0  0  0  0  0  0  0  0  0
    6.9931  -14.0141   25.7385 C   0  0  2  0  0  0  0  0  0  0  0  0
    7.8715  -14.6634   24.7386 N   0  0  0  0  0  0  0  0  0  0  0  0
    7.3580  -14.6324   23.4015 C   0  0  0  0  0  0  0  0  0  0  0  0
    8.3883  -16.0029   25.1211 O   0  0  0  0  0  0  0  0  0  0  0  0
    7.9556  -16.9903   24.4620 N   0  0  0  0  0  0  0  0  0  0  0  0
    9.3081  -16.2441   26.1422 C   0  0  1  0  0  0  0  0  0  0  0  0
   10.0237  -17.5598   26.2507 C   0  0  0  0  0  0  0  0  0  0  0  0
   10.9454  -17.5230   25.0683 C   0  0  0  0  0  0  0  0  0  0  0  0
   11.9723  -18.5563   24.8951 C   0  0  0  0  0  0  0  0  0  0  0  0
   12.8394  -18.5174   23.7213 O   0  0  0  0  0  0  0  0  0  0  0  0
   12.8193  -19.4478   22.8840 C   0  0  0  0  0  0  0  0  0  0  0  0
   10.7942  -17.5359   27.5071 O   0  0  0  0  0  0  0  0  0  0  0  0
   11.0445  -16.5344   28.2060 O   0  0  0  0  0  0  0  0  0  0  0  0
   13.6937  -17.4538   23.5140 O   0  0  0  0  0  0  0  0  0  0  0  0
  2  1  1  0
  2  3  2  0
  4  2  1  0
  5  4  1  0
  6  5  1  0
  7  6  1  0
  8  7  1  0
  8  9  1  1
 10 17  1  0
 10  8  1  0
 11 10  2  0
 13 12  1  6
 14 13  1  0
 15 13  1  0
 16 15  1  6
 16 17  1  0
 18 16  1  0
 18 19  2  0
 20 18  1  0
 21 20  1  0
 21 26  1  0
 21 22  1  1
 23 22  1  0
 24 23  1  0
 25 24  2  0
 26 29  1  0
 27 26  2  0
 28 24  1  0
M  END
$$$$
