RLE.pdb
     RDKit          3D

 29 28  0  0  1  0  0  0  0  0999 V2000
    8.5350  -12.2114   17.2088 N   0  0  0  0  0  0  0  0  0  0  0  0
    8.3015  -13.4559   16.5799 C   0  0  0  0  0  0  0  0  0  0  0  0
    8.7735  -13.6588   15.3979 N   0  0  0  0  0  0  0  0  0  0  0  0
    7.5581  -14.4741   17.2356 N   0  0  0  0  0  0  0  0  0  0  0  0
    7.0382  -14.2691   18.5686 C   0  0  0  0  0  0  0  0  0  0  0  0
    8.1465  -14.5359   19.5797 C   0  0  0  0  0  0  0  0  0  0  0  0
    7.6014  -14.4847   20.9853 C   0  0  0  0  0  0  0  0  0  0  0  0
    8.0937  -15.7090   21.7397 C   0  0  2  0  0  0  0  0  0  0  0  0
    7.0469  -16.6917   21.8973 N   0  0  0  0  0  0  0  0  0  0  0  0
    8.5705  -15.2045   23.0674 C   0  0  0  0  0  0  0  0  0  0  0  0
    9.6775  -14.6057   23.1071 O   0  0  0  0  0  0  0  0  0  0  0  0
    8.6978  -14.5754   14.9386 C   0  0  0  0  0  0  0  0  0  0  0  0
    5.4629  -12.5097   26.4407 C   0  0  1  0  0  0  0  0  0  0  0  0
    6.6867  -13.0182   25.7754 C   0  0  0  0  0  0  0  0  0  0  0  0
    7.7097  -11.8890   25.6171 C   0  0  0  0  0  0  0  0  0  0  0  0
    7.3160  -14.2284   26.3269 C   0  0  2  0  0  0  0  0  0  0  0  0
    8.2961  -14.9738   25.5045 N   0  0  0  0  0  0  0  0  0  0  0  0
    7.7884  -15.4028   24.2354 C   0  0  0  0  0  0  0  0  0  0  0  0
    9.0366  -16.0477   26.2160 O   0  0  0  0  0  0  0  0  0  0  0  0
    9.1208  -15.9458   27.4726 N   0  0  0  0  0  0  0  0  0  0  0  0
    9.6357  -17.1484   25.6023 C   0  0  2  0  0  0  0  0  0  0  0  0
   10.3576  -18.1909   26.4066 C   0  0  0  0  0  0  0  0  0  0  0  0
   10.8949  -19.1021   25.3436 C   0  0  0  0  0  0  0  0  0  0  0  0
   11.8054  -20.1973   25.6954 C   0  0  0  0  0  0  0  0  0  0  0  0
   12.3157  -21.0725   24.6444 O   0  0  0  0  0  0  0  0  0  0  0  0
   13.2186  -20.6795   23.8714 C   0  0  0  0  0  0  0  0  0  0  0  0
   11.4604  -17.5129   27.1115 O   0  0  0  0  0  0  0  0  0  0  0  0
   11.8229  -17.7106   28.2877 O   0  0  0  0  0  0  0  0  0  0  0  0
   11.8133  -22.3479   24.4867 O   0  0  0  0  0  0  0  0  0  0  0  0
  2  1  1  0
  2  3  2  0
  4  2  1  0
  5  4  1  0
  6  5  1  0
  7  6  1  0
  8  7  1  0
  8  9  1  1
 10 17  1  0
 10  8  1  0
 11 10  2  0
 13 12  1  6
 14 13  1  0
 15 13  1  0
 16 15  1  6
 16 17  1  0
 18 16  1  0
 18 19  2  0
 20 18  1  0
 21 20  1  0
 21 26  1  0
 21 22  1  6
 23 22  1  0
 24 23  1  0
 25 24  2  0
 26 29  1  0
 27 26  2  0
 28 24  1  0
M  END
$$$$
