RLE.pdb
     RDKit          3D

 29 28  0  0  1  0  0  0  0  0999 V2000
    7.7433  -12.3183   17.0350 N   0  0  0  0  0  0  0  0  0  0  0  0
    7.8904  -13.5576   16.3705 C   0  0  0  0  0  0  0  0  0  0  0  0
    7.3563  -13.7120   15.2077 N   0  0  0  0  0  0  0  0  0  0  0  0
    8.6158  -14.6226   16.9694 N   0  0  0  0  0  0  0  0  0  0  0  0
    9.2155  -14.4672   18.2754 C   0  0  0  0  0  0  0  0  0  0  0  0
    8.1514  -14.7009   19.3408 C   0  0  0  0  0  0  0  0  0  0  0  0
    8.7438  -14.5497   20.7197 C   0  0  0  0  0  0  0  0  0  0  0  0
    8.3763  -15.7748   21.5409 C   0  0  2  0  0  0  0  0  0  0  0  0
    6.9717  -16.0905   21.4234 N   0  0  0  0  0  0  0  0  0  0  0  0
    8.7424  -15.4418   22.9551 C   0  0  0  0  0  0  0  0  0  0  0  0
    9.9463  -15.1684   23.2031 O   0  0  0  0  0  0  0  0  0  0  0  0
    7.4180  -14.6050   14.7019 C   0  0  0  0  0  0  0  0  0  0  0  0
    5.8463  -12.3851   26.5017 C   0  0  1  0  0  0  0  0  0  0  0  0
    7.0022  -13.0684   25.8727 C   0  0  0  0  0  0  0  0  0  0  0  0
    8.2883  -12.2776   26.1321 C   0  0  0  0  0  0  0  0  0  0  0  0
    7.1940  -14.4987   26.1593 C   0  0  2  0  0  0  0  0  0  0  0  0
    8.1490  -15.2797   25.3403 N   0  0  0  0  0  0  0  0  0  0  0  0
    7.7527  -15.4387   23.9728 C   0  0  0  0  0  0  0  0  0  0  0  0
    8.6184  -16.5506   25.9504 O   0  0  0  0  0  0  0  0  0  0  0  0
    7.7449  -17.4393   26.1594 N   0  0  0  0  0  0  0  0  0  0  0  0
    9.9396  -16.8294   26.3019 C   0  0  1  0  0  0  0  0  0  0  0  0
   10.3283  -18.1622   26.8744 C   0  0  0  0  0  0  0  0  0  0  0  0
   11.5448  -18.5146   26.0713 C   0  0  0  0  0  0  0  0  0  0  0  0
   12.3692  -19.6703   26.4412 C   0  0  0  0  0  0  0  0  0  0  0  0
   13.5281  -20.0168   25.6238 O   0  0  0  0  0  0  0  0  0  0  0  0
   13.8724  -19.2878   24.6662 C   0  0  0  0  0  0  0  0  0  0  0  0
   10.6877  -17.9430   28.2870 O   0  0  0  0  0  0  0  0  0  0  0  0
   10.8877  -16.8441   28.8406 O   0  0  0  0  0  0  0  0  0  0  0  0
   14.2643  -21.1521   25.8941 O   0  0  0  0  0  0  0  0  0  0  0  0
  2  1  1  0
  2  3  2  0
  4  2  1  0
  5  4  1  0
  6  5  1  0
  7  6  1  0
  8  7  1  0
  8  9  1  1
 10 17  1  0
 10  8  1  0
 11 10  2  0
 13 12  1  6
 14 13  1  0
 15 13  1  0
 16 15  1  6
 16 17  1  0
 18 16  1  0
 18 19  2  0
 20 18  1  0
 21 20  1  0
 21 26  1  0
 21 22  1  1
 23 22  1  0
 24 23  1  0
 25 24  2  0
 26 29  1  0
 27 26  2  0
 28 24  1  0
M  END
$$$$
