RLE.pdb
     RDKit          3D

 29 28  0  0  1  0  0  0  0  0999 V2000
    8.1662  -14.5113   14.7077 N   0  0  0  0  0  0  0  0  0  0  0  0
    8.4279  -14.1349   16.0452 C   0  0  0  0  0  0  0  0  0  0  0  0
    9.6275  -14.2450   16.5036 N   0  0  0  0  0  0  0  0  0  0  0  0
    7.3884  -13.6407   16.8785 N   0  0  0  0  0  0  0  0  0  0  0  0
    7.6634  -13.2181   18.2332 C   0  0  0  0  0  0  0  0  0  0  0  0
    7.8088  -14.4506   19.1173 C   0  0  0  0  0  0  0  0  0  0  0  0
    8.0881  -14.0465   20.5435 C   0  0  0  0  0  0  0  0  0  0  0  0
    8.3248  -15.3033   21.3648 C   0  0  2  0  0  0  0  0  0  0  0  0
    7.1213  -16.0930   21.4852 N   0  0  0  0  0  0  0  0  0  0  0  0
    8.8015  -14.8307   22.7042 C   0  0  0  0  0  0  0  0  0  0  0  0
    9.9163  -14.2480   22.7606 O   0  0  0  0  0  0  0  0  0  0  0  0
    9.8416  -14.0785   17.4953 C   0  0  0  0  0  0  0  0  0  0  0  0
    5.3588  -12.6662   26.3235 C   0  0  1  0  0  0  0  0  0  0  0  0
    6.6305  -12.9247   25.6062 C   0  0  0  0  0  0  0  0  0  0  0  0
    7.4742  -11.6474   25.5499 C   0  0  0  0  0  0  0  0  0  0  0  0
    7.4407  -14.0750   26.0369 C   0  0  2  0  0  0  0  0  0  0  0  0
    8.4952  -14.5954   25.1370 N   0  0  0  0  0  0  0  0  0  0  0  0
    8.0107  -15.0403   23.8643 C   0  0  0  0  0  0  0  0  0  0  0  0
    9.4409  -15.5594   25.7568 O   0  0  0  0  0  0  0  0  0  0  0  0
    9.8996  -15.2564   26.8945 N   0  0  0  0  0  0  0  0  0  0  0  0
    9.8510  -16.7617   25.1797 C   0  0  1  0  0  0  0  0  0  0  0  0
   10.8499  -17.6518   25.8614 C   0  0  0  0  0  0  0  0  0  0  0  0
   10.0234  -18.8527   26.2128 C   0  0  0  0  0  0  0  0  0  0  0  0
    9.8442  -19.2461   27.6147 C   0  0  0  0  0  0  0  0  0  0  0  0
    8.5169  -19.6246   28.0903 O   0  0  0  0  0  0  0  0  0  0  0  0
    7.5557  -19.7108   27.2930 C   0  0  0  0  0  0  0  0  0  0  0  0
   11.8745  -18.0045   24.8621 O   0  0  0  0  0  0  0  0  0  0  0  0
   11.8505  -17.7325   23.6458 O   0  0  0  0  0  0  0  0  0  0  0  0
    8.3002  -19.8958   29.4258 O   0  0  0  0  0  0  0  0  0  0  0  0
  2  1  1  0
  2  3  2  0
  4  2  1  0
  5  4  1  0
  6  5  1  0
  7  6  1  0
  8  7  1  0
  8  9  1  1
 10 17  1  0
 10  8  1  0
 11 10  2  0
 13 12  1  6
 14 13  1  0
 15 13  1  0
 16 15  1  6
 16 17  1  0
 18 16  1  0
 18 19  2  0
 20 18  1  0
 21 20  1  0
 21 26  1  0
 21 22  1  1
 23 22  1  0
 24 23  1  0
 25 24  2  0
 26 29  1  0
 27 26  2  0
 28 24  1  0
M  END
$$$$
