RLE.pdb
     RDKit          3D

 29 28  0  0  1  0  0  0  0  0999 V2000
    8.4477  -19.9116   17.8435 N   0  0  0  0  0  0  0  0  0  0  0  0
    7.9001  -18.8791   17.0478 C   0  0  0  0  0  0  0  0  0  0  0  0
    8.4596  -18.5916   15.9229 N   0  0  0  0  0  0  0  0  0  0  0  0
    6.7490  -18.1641   17.4753 N   0  0  0  0  0  0  0  0  0  0  0  0
    6.6126  -17.7337   18.8485 C   0  0  0  0  0  0  0  0  0  0  0  0
    7.9995  -17.5051   19.4367 C   0  0  0  0  0  0  0  0  0  0  0  0
    7.8941  -16.9618   20.8400 C   0  0  0  0  0  0  0  0  0  0  0  0
    8.0642  -15.4523   20.7881 C   0  0  2  0  0  0  0  0  0  0  0  0
    9.0763  -15.0649   19.8331 N   0  0  0  0  0  0  0  0  0  0  0  0
    8.4403  -15.0370   22.1777 C   0  0  0  0  0  0  0  0  0  0  0  0
    9.5830  -15.3565   22.5990 O   0  0  0  0  0  0  0  0  0  0  0  0
    8.1128  -17.8268   15.3298 C   0  0  0  0  0  0  0  0  0  0  0  0
    8.2735  -11.9774   26.8317 C   0  0  2  0  0  0  0  0  0  0  0  0
    7.1022  -12.8023   26.4495 C   0  0  0  0  0  0  0  0  0  0  0  0
    5.8242  -12.2207   27.0618 C   0  0  0  0  0  0  0  0  0  0  0  0
    6.9133  -13.1078   25.0226 C   0  0  1  0  0  0  0  0  0  0  0  0
    7.8592  -14.0252   24.3471 N   0  0  0  0  0  0  0  0  0  0  0  0
    7.5266  -14.3070   22.9824 C   0  0  0  0  0  0  0  0  0  0  0  0
    8.2149  -15.2480   25.1125 O   0  0  0  0  0  0  0  0  0  0  0  0
    7.3219  -16.1360   25.2152 N   0  0  0  0  0  0  0  0  0  0  0  0
    9.4508  -15.4832   25.7159 C   0  0  1  0  0  0  0  0  0  0  0  0
    9.7980  -16.8309   26.2799 C   0  0  0  0  0  0  0  0  0  0  0  0
   10.9284  -17.2676   25.3965 C   0  0  0  0  0  0  0  0  0  0  0  0
   11.7374  -18.4390   25.7507 C   0  0  0  0  0  0  0  0  0  0  0  0
   12.7914  -18.8846   24.8442 O   0  0  0  0  0  0  0  0  0  0  0  0
   13.7168  -18.1089   24.5137 C   0  0  0  0  0  0  0  0  0  0  0  0
   10.2729  -16.6183   27.6591 O   0  0  0  0  0  0  0  0  0  0  0  0
   10.5982  -15.5303   28.1732 O   0  0  0  0  0  0  0  0  0  0  0  0
   12.7865  -20.1683   24.3382 O   0  0  0  0  0  0  0  0  0  0  0  0
  2  1  1  0
  2  3  2  0
  4  2  1  0
  5  4  1  0
  6  5  1  0
  7  6  1  0
  8  7  1  0
  8  9  1  6
 10 17  1  0
 10  8  1  0
 11 10  2  0
 13 12  1  1
 14 13  1  0
 15 13  1  0
 16 15  1  6
 16 17  1  0
 18 16  1  0
 18 19  2  0
 20 18  1  0
 21 20  1  0
 21 26  1  0
 21 22  1  1
 23 22  1  0
 24 23  1  0
 25 24  2  0
 26 29  1  0
 27 26  2  0
 28 24  1  0
M  END
$$$$
