SLK.pdb
     RDKit          3D

 24 23  0  0  1  0  0  0  0  0999 V2000
    7.0626  -17.9909   20.1762 O   0  0  0  0  0  0  0  0  0  0  0  0
    7.7159  -17.4141   21.2638 C   0  0  0  0  0  0  0  0  0  0  0  0
    8.0712  -15.9529   20.9578 C   0  0  2  0  0  0  0  0  0  0  0  0
    9.1245  -15.8659   19.9924 N   0  0  0  0  0  0  0  0  0  0  0  0
    8.4487  -15.3457   22.2743 C   0  0  0  0  0  0  0  0  0  0  0  0
    9.7112  -15.2322   22.4512 O   0  0  0  0  0  0  0  0  0  0  0  0
    5.9445  -11.7673   26.5441 C   0  0  0  0  0  0  0  0  0  0  0  0
    7.2196  -12.3018   25.9384 C   0  0  1  0  0  0  0  0  0  0  0  0
    7.8290  -13.2126   27.0165 C   0  0  0  0  0  0  0  0  0  0  0  0
    6.9449  -13.1347   24.7583 C   0  0  0  0  0  0  0  0  0  0  0  0
    7.9242  -14.1866   24.3797 C   0  0  2  0  0  0  0  0  0  0  0  0
    7.5082  -14.9378   23.2279 N   0  0  0  0  0  0  0  0  0  0  0  0
    8.3583  -15.0958   25.4608 C   0  0  0  0  0  0  0  0  0  0  0  0
    8.7970  -14.5833   26.5493 O   0  0  0  0  0  0  0  0  0  0  0  0
    8.3401  -16.5022   25.4255 N   0  0  0  0  0  0  0  0  0  0  0  0
    9.3090  -17.3598   26.0425 C   0  0  1  0  0  0  0  0  0  0  0  0
   10.3334  -17.7590   24.9962 C   0  0  0  0  0  0  0  0  0  0  0  0
   11.4742  -18.5348   25.5998 C   0  0  0  0  0  0  0  0  0  0  0  0
   12.5030  -18.9388   24.5722 C   0  0  0  0  0  0  0  0  0  0  0  0
   13.6938  -19.6338   25.1758 C   0  0  0  0  0  0  0  0  0  0  0  0
   14.5562  -20.0424   24.0804 N   0  0  0  0  0  0  0  0  0  0  0  0
    9.9240  -16.8533   27.2677 C   0  0  0  0  0  0  0  0  0  0  0  0
   10.6775  -15.6872   27.1664 O   0  0  0  0  0  0  0  0  0  0  0  0
    9.8446  -17.3626   28.4135 O   0  0  0  0  0  0  0  0  0  0  0  0
  2  1  1  0
  3  2  1  0
  3  4  1  6
  5  6  2  0
  5  3  1  0
  8  7  1  1
  8 10  1  0
  8  9  1  0
 11 10  1  1
 11 12  1  0
 12  5  1  0
 13 11  1  0
 14 13  2  0
 15 13  1  0
 16 17  1  6
 16 15  1  0
 18 17  1  0
 19 18  1  0
 20 19  1  0
 20 21  1  0
 22 23  1  0
 22 16  1  0
 24 22  2  0
M  END
$$$$
