SLK.pdb
     RDKit          3D

 24 23  0  0  1  0  0  0  0  0999 V2000
    6.7438  -17.7251   20.0143 O   0  0  0  0  0  0  0  0  0  0  0  0
    7.4221  -17.1812   21.1036 C   0  0  0  0  0  0  0  0  0  0  0  0
    7.7582  -15.7072   20.8396 C   0  0  2  0  0  0  0  0  0  0  0  0
    8.7474  -15.5761   19.8133 N   0  0  0  0  0  0  0  0  0  0  0  0
    8.2201  -15.1575   22.1545 C   0  0  0  0  0  0  0  0  0  0  0  0
    9.4906  -15.0360   22.2494 O   0  0  0  0  0  0  0  0  0  0  0  0
    8.2321  -11.7566   26.2729 C   0  0  0  0  0  0  0  0  0  0  0  0
    7.1894  -12.8373   26.4248 C   0  0  1  0  0  0  0  0  0  0  0  0
    5.9402  -12.1215   26.9635 C   0  0  0  0  0  0  0  0  0  0  0  0
    6.8359  -13.4281   25.1256 C   0  0  0  0  0  0  0  0  0  0  0  0
    7.8522  -14.2406   24.4074 C   0  0  2  0  0  0  0  0  0  0  0  0
    7.3439  -14.8069   23.1889 N   0  0  0  0  0  0  0  0  0  0  0  0
    8.5491  -15.2708   25.2052 C   0  0  0  0  0  0  0  0  0  0  0  0
    9.1272  -14.9140   26.2907 O   0  0  0  0  0  0  0  0  0  0  0  0
    8.6483  -16.6397   24.8957 N   0  0  0  0  0  0  0  0  0  0  0  0
    9.3770  -17.6114   25.6572 C   0  0  1  0  0  0  0  0  0  0  0  0
   10.5625  -18.0782   24.8324 C   0  0  0  0  0  0  0  0  0  0  0  0
   11.4125  -19.0661   25.5867 C   0  0  0  0  0  0  0  0  0  0  0  0
   12.5971  -19.5398   24.7805 C   0  0  0  0  0  0  0  0  0  0  0  0
   13.4709  -20.5066   25.5337 C   0  0  0  0  0  0  0  0  0  0  0  0
   14.5033  -20.9594   24.6175 N   0  0  0  0  0  0  0  0  0  0  0  0
    9.7559  -17.2108   27.0107 C   0  0  0  0  0  0  0  0  0  0  0  0
    9.4184  -18.0755   28.0481 O   0  0  0  0  0  0  0  0  0  0  0  0
   10.3593  -16.1596   27.3412 O   0  0  0  0  0  0  0  0  0  0  0  0
  2  1  1  0
  3  2  1  0
  3  4  1  6
  5  6  2  0
  5  3  1  0
  8  7  1  6
  8 10  1  0
  8  9  1  0
 11 10  1  1
 11 12  1  0
 12  5  1  0
 13 11  1  0
 14 13  2  0
 15 13  1  0
 16 17  1  6
 16 15  1  0
 18 17  1  0
 19 18  1  0
 20 19  1  0
 20 21  1  0
 22 23  1  0
 22 16  1  0
 24 22  2  0
M  END
$$$$
