SLK.pdb
     RDKit          3D

 24 23  0  0  1  0  0  0  0  0999 V2000
    7.6173  -17.9514   21.4193 O   0  0  0  0  0  0  0  0  0  0  0  0
    6.6084  -16.9899   21.4118 C   0  0  0  0  0  0  0  0  0  0  0  0
    7.2098  -15.5883   21.2420 C   0  0  2  0  0  0  0  0  0  0  0  0
    8.1511  -15.5543   20.1642 N   0  0  0  0  0  0  0  0  0  0  0  0
    7.8370  -15.2563   22.5614 C   0  0  0  0  0  0  0  0  0  0  0  0
    9.1142  -15.3394   22.5651 O   0  0  0  0  0  0  0  0  0  0  0  0
    5.5734  -11.8560   26.4045 C   0  0  0  0  0  0  0  0  0  0  0  0
    6.5589  -12.4751   25.4433 C   0  0  1  0  0  0  0  0  0  0  0  0
    7.8095  -11.5842   25.5160 C   0  0  0  0  0  0  0  0  0  0  0  0
    6.9513  -13.8254   25.8729 C   0  0  0  0  0  0  0  0  0  0  0  0
    7.7553  -14.6665   24.9482 C   0  0  2  0  0  0  0  0  0  0  0  0
    7.0963  -14.8879   23.6910 N   0  0  0  0  0  0  0  0  0  0  0  0
    8.2629  -15.9411   25.4974 C   0  0  0  0  0  0  0  0  0  0  0  0
    7.6298  -17.0194   25.2211 O   0  0  0  0  0  0  0  0  0  0  0  0
    9.3985  -16.1051   26.3117 N   0  0  0  0  0  0  0  0  0  0  0  0
   10.1199  -17.3307   26.4916 C   0  0  1  0  0  0  0  0  0  0  0  0
   10.7928  -17.6898   25.1793 C   0  0  0  0  0  0  0  0  0  0  0  0
   10.3577  -19.0426   24.6812 C   0  0  0  0  0  0  0  0  0  0  0  0
   11.0552  -19.4367   23.4021 C   0  0  0  0  0  0  0  0  0  0  0  0
   10.4958  -20.6937   22.7919 C   0  0  0  0  0  0  0  0  0  0  0  0
   11.2633  -20.9684   21.5894 N   0  0  0  0  0  0  0  0  0  0  0  0
   11.0408  -17.3708   27.6257 C   0  0  0  0  0  0  0  0  0  0  0  0
   11.5643  -18.6120   27.9766 O   0  0  0  0  0  0  0  0  0  0  0  0
   11.4141  -16.3957   28.3244 O   0  0  0  0  0  0  0  0  0  0  0  0
  2  1  1  0
  3  2  1  0
  3  4  1  6
  5  6  2  0
  5  3  1  0
  8  7  1  1
  8 10  1  0
  8  9  1  0
 11 10  1  1
 11 12  1  0
 12  5  1  0
 13 11  1  0
 14 13  2  0
 15 13  1  0
 16 17  1  6
 16 15  1  0
 18 17  1  0
 19 18  1  0
 20 19  1  0
 20 21  1  0
 22 23  1  0
 22 16  1  0
 24 22  2  0
M  END
$$$$
