SLK.pdb
     RDKit          3D

 24 23  0  0  1  0  0  0  0  0999 V2000
    9.8009  -19.9885   18.5863 O   0  0  0  0  0  0  0  0  0  0  0  0
    8.8633  -19.1616   17.9703 C   0  0  0  0  0  0  0  0  0  0  0  0
    9.5261  -17.8567   17.5085 C   0  0  2  0  0  0  0  0  0  0  0  0
   10.7160  -18.1165   16.7567 N   0  0  0  0  0  0  0  0  0  0  0  0
    9.7969  -17.0777   18.7592 C   0  0  0  0  0  0  0  0  0  0  0  0
   11.0125  -17.1367   19.1551 O   0  0  0  0  0  0  0  0  0  0  0  0
    6.3497  -12.9798   20.2383 C   0  0  0  0  0  0  0  0  0  0  0  0
    7.6491  -13.6464   19.8570 C   0  0  1  0  0  0  0  0  0  0  0  0
    8.6697  -12.5034   19.7345 C   0  0  0  0  0  0  0  0  0  0  0  0
    8.1202  -14.5493   20.9175 C   0  0  0  0  0  0  0  0  0  0  0  0
    9.1566  -15.5625   20.5883 C   0  0  2  0  0  0  0  0  0  0  0  0
    8.8116  -16.3494   19.4369 N   0  0  0  0  0  0  0  0  0  0  0  0
    9.5949  -16.4344   21.6980 C   0  0  0  0  0  0  0  0  0  0  0  0
    9.1579  -17.6375   21.7375 O   0  0  0  0  0  0  0  0  0  0  0  0
   10.4658  -16.0787   22.7442 N   0  0  0  0  0  0  0  0  0  0  0  0
   11.2812  -16.9912   23.4908 C   0  0  1  0  0  0  0  0  0  0  0  0
   12.0999  -17.8147   22.5134 C   0  0  0  0  0  0  0  0  0  0  0  0
   12.9037  -18.8771   23.2155 C   0  0  0  0  0  0  0  0  0  0  0  0
   13.7334  -19.6977   22.2584 C   0  0  0  0  0  0  0  0  0  0  0  0
   14.5707  -20.7388   22.9516 C   0  0  0  0  0  0  0  0  0  0  0  0
   15.3431  -21.4227   21.9287 N   0  0  0  0  0  0  0  0  0  0  0  0
   12.0964  -16.4011   24.5505 C   0  0  0  0  0  0  0  0  0  0  0  0
   12.1897  -15.0126   24.5830 O   0  0  0  0  0  0  0  0  0  0  0  0
   12.7281  -17.0188   25.4438 O   0  0  0  0  0  0  0  0  0  0  0  0
  2  1  1  0
  3  2  1  0
  3  4  1  1
  5  6  2  0
  5  3  1  0
  8  7  1  1
  8 10  1  0
  8  9  1  0
 11 10  1  1
 11 12  1  0
 12  5  1  0
 13 11  1  0
 14 13  2  0
 15 13  1  0
 16 17  1  6
 16 15  1  0
 18 17  1  0
 19 18  1  0
 20 19  1  0
 20 21  1  0
 22 23  1  0
 22 16  1  0
 24 22  2  0
M  END
$$$$
