SLK.pdb
     RDKit          3D

 24 23  0  0  1  0  0  0  0  0999 V2000
    7.9368  -17.9663   20.5167 O   0  0  0  0  0  0  0  0  0  0  0  0
    8.4125  -17.4488   21.7201 C   0  0  0  0  0  0  0  0  0  0  0  0
    8.3827  -15.9147   21.6888 C   0  0  2  0  0  0  0  0  0  0  0  0
    9.2889  -15.3976   20.7089 N   0  0  0  0  0  0  0  0  0  0  0  0
    8.7301  -15.4764   23.0787 C   0  0  0  0  0  0  0  0  0  0  0  0
    9.9612  -15.6465   23.3846 O   0  0  0  0  0  0  0  0  0  0  0  0
    5.6787  -11.8529   26.2249 C   0  0  0  0  0  0  0  0  0  0  0  0
    6.8101  -12.4977   25.4619 C   0  0  1  0  0  0  0  0  0  0  0  0
    8.0173  -11.5681   25.6656 C   0  0  0  0  0  0  0  0  0  0  0  0
    7.1602  -13.8088   26.0279 C   0  0  0  0  0  0  0  0  0  0  0  0
    8.1659  -14.6476   25.3251 C   0  0  2  0  0  0  0  0  0  0  0  0
    7.7952  -14.9296   23.9660 N   0  0  0  0  0  0  0  0  0  0  0  0
    8.5820  -15.8862   26.0152 C   0  0  0  0  0  0  0  0  0  0  0  0
    7.7437  -16.8511   26.0948 O   0  0  0  0  0  0  0  0  0  0  0  0
    9.8339  -16.1299   26.6093 N   0  0  0  0  0  0  0  0  0  0  0  0
   10.1929  -17.3156   27.3304 C   0  0  1  0  0  0  0  0  0  0  0  0
   11.2868  -18.0336   26.5612 C   0  0  0  0  0  0  0  0  0  0  0  0
   11.7136  -19.3021   27.2512 C   0  0  0  0  0  0  0  0  0  0  0  0
   12.8151  -20.0186   26.5090 C   0  0  0  0  0  0  0  0  0  0  0  0
   13.2406  -21.2966   27.1807 C   0  0  0  0  0  0  0  0  0  0  0  0
   14.1590  -21.9724   26.2805 N   0  0  0  0  0  0  0  0  0  0  0  0
   10.5257  -17.1306   28.7414 C   0  0  0  0  0  0  0  0  0  0  0  0
   10.5643  -15.8239   29.2199 O   0  0  0  0  0  0  0  0  0  0  0  0
   10.7832  -18.0331   29.5766 O   0  0  0  0  0  0  0  0  0  0  0  0
  2  1  1  0
  3  2  1  0
  3  4  1  6
  5  6  2  0
  5  3  1  0
  8  7  1  1
  8 10  1  0
  8  9  1  0
 11 10  1  1
 11 12  1  0
 12  5  1  0
 13 11  1  0
 14 13  2  0
 15 13  1  0
 16 17  1  6
 16 15  1  0
 18 17  1  0
 19 18  1  0
 20 19  1  0
 20 21  1  0
 22 23  1  0
 22 16  1  0
 24 22  2  0
M  END
$$$$
