SLK.pdb
     RDKit          3D

 24 23  0  0  1  0  0  0  0  0999 V2000
    8.0595  -18.0999   23.5876 O   0  0  0  0  0  0  0  0  0  0  0  0
    8.8999  -17.9581   22.4849 C   0  0  0  0  0  0  0  0  0  0  0  0
    8.7762  -16.5448   21.8995 C   0  0  2  0  0  0  0  0  0  0  0  0
    9.7351  -16.3281   20.8591 N   0  0  0  0  0  0  0  0  0  0  0  0
    8.9648  -15.6115   23.0562 C   0  0  0  0  0  0  0  0  0  0  0  0
   10.1766  -15.2387   23.2307 O   0  0  0  0  0  0  0  0  0  0  0  0
    5.6852  -11.8026   26.5510 C   0  0  0  0  0  0  0  0  0  0  0  0
    6.9584  -12.0504   25.7792 C   0  0  1  0  0  0  0  0  0  0  0  0
    8.0461  -12.2522   26.8466 C   0  0  0  0  0  0  0  0  0  0  0  0
    6.8756  -13.2892   24.9914 C   0  0  0  0  0  0  0  0  0  0  0  0
    8.1073  -14.0975   24.7951 C   0  0  2  0  0  0  0  0  0  0  0  0
    7.9127  -15.1835   23.8749 N   0  0  0  0  0  0  0  0  0  0  0  0
    8.7799  -14.5733   26.0218 C   0  0  0  0  0  0  0  0  0  0  0  0
    8.9685  -13.7405   26.9761 O   0  0  0  0  0  0  0  0  0  0  0  0
    9.2470  -15.8781   26.2643 N   0  0  0  0  0  0  0  0  0  0  0  0
    9.8714  -16.3237   27.4753 C   0  0  1  0  0  0  0  0  0  0  0  0
   11.1219  -17.1038   27.1128 C   0  0  0  0  0  0  0  0  0  0  0  0
   10.8041  -18.5304   26.7506 C   0  0  0  0  0  0  0  0  0  0  0  0
   11.9008  -19.1764   25.9395 C   0  0  0  0  0  0  0  0  0  0  0  0
   11.5896  -20.5992   25.5599 C   0  0  0  0  0  0  0  0  0  0  0  0
   12.6462  -21.0496   24.6705 N   0  0  0  0  0  0  0  0  0  0  0  0
   10.1222  -15.2946   28.4822 C   0  0  0  0  0  0  0  0  0  0  0  0
   10.2479  -15.7145   29.8035 O   0  0  0  0  0  0  0  0  0  0  0  0
   10.2376  -14.0599   28.2811 O   0  0  0  0  0  0  0  0  0  0  0  0
  2  1  1  0
  3  2  1  0
  3  4  1  6
  5  6  2  0
  5  3  1  0
  8  7  1  1
  8 10  1  0
  8  9  1  0
 11 10  1  1
 11 12  1  0
 12  5  1  0
 13 11  1  0
 14 13  2  0
 15 13  1  0
 16 17  1  6
 16 15  1  0
 18 17  1  0
 19 18  1  0
 20 19  1  0
 20 21  1  0
 22 23  1  0
 22 16  1  0
 24 22  2  0
M  END
$$$$
