HWP.pdb
     RDKit          3D

 32 35  0  0  1  0  0  0  0  0999 V2000
    8.9954  -16.4488   21.3054 N   0  0  0  0  0  0  0  0  0  0  0  0
    9.2872  -15.0357   21.4669 C   0  0  1  0  0  0  0  0  0  0  0  0
    8.2154  -14.1842   20.8694 C   0  0  0  0  0  0  0  0  0  0  0  0
    8.2215  -14.3382   19.3920 C   0  0  0  0  0  0  0  0  0  0  0  0
    8.7646  -13.4708   18.4845 C   0  0  0  0  0  0  0  0  0  0  0  0
    8.5429  -14.0020   17.2669 N   0  0  0  0  0  0  0  0  0  0  0  0
    7.8775  -15.1708   17.4313 C   0  0  0  0  0  0  0  0  0  0  0  0
    7.6866  -15.3649   18.7428 N   0  0  0  0  0  0  0  0  0  0  0  0
    9.3548  -14.7469   22.9285 C   0  0  0  0  0  0  0  0  0  0  0  0
    9.6393  -13.5794   23.3532 O   0  0  0  0  0  0  0  0  0  0  0  0
    9.1138  -15.7249   23.9150 N   0  0  0  0  0  0  0  0  0  0  0  0
    9.2280  -15.3705   25.3611 C   0  0  1  0  0  0  0  0  0  0  0  0
    7.8679  -15.7782   25.8872 C   0  0  0  0  0  0  0  0  0  0  0  0
    6.7578  -14.8900   25.7005 C   0  0  0  0  0  0  0  0  0  0  0  0
    5.4525  -15.1814   25.3245 C   0  0  0  0  0  0  0  0  0  0  0  0
    4.7292  -14.0547   25.2605 N   0  0  0  0  0  0  0  0  0  0  0  0
    5.5256  -13.0267   25.5852 C   0  0  0  0  0  0  0  0  0  0  0  0
    5.3172  -11.6647   25.6825 C   0  0  0  0  0  0  0  0  0  0  0  0
    6.3304  -10.8050   26.0447 C   0  0  0  0  0  0  0  0  0  0  0  0
    7.5724  -11.2817   26.3180 C   0  0  0  0  0  0  0  0  0  0  0  0
    7.7920  -12.6346   26.2247 C   0  0  0  0  0  0  0  0  0  0  0  0
    6.7716  -13.5159   25.8582 C   0  0  0  0  0  0  0  0  0  0  0  0
   10.2608  -16.3260   25.8798 C   0  0  0  0  0  0  0  0  0  0  0  0
   10.4587  -17.3835   25.2142 O   0  0  0  0  0  0  0  0  0  0  0  0
   10.9541  -16.0156   27.0566 N   0  0  0  0  0  0  0  0  0  0  0  0
   11.2916  -14.6333   27.4672 C   0  0  0  0  0  0  0  0  0  0  0  0
   11.1149  -14.6427   28.9687 C   0  0  0  0  0  0  0  0  0  0  0  0
   10.9289  -16.1011   29.3266 C   0  0  0  0  0  0  0  0  0  0  0  0
   11.5853  -16.7691   28.1021 C   0  0  1  0  0  0  0  0  0  0  0  0
   11.4617  -18.1999   28.1234 C   0  0  0  0  0  0  0  0  0  0  0  0
   12.4348  -18.9017   28.8864 O   0  0  0  0  0  0  0  0  0  0  0  0
   10.6336  -18.9279   27.5768 O   0  0  0  0  0  0  0  0  0  0  0  0
  2  1  1  1
  2  3  1  0
  3  4  1  0
  4  8  1  0
  5  4  2  0
  5  6  1  0
  6  7  1  0
  8  7  2  0
  9 10  2  0
  9  2  1  0
 11  9  1  0
 12 11  1  0
 12 13  1  1
 13 14  1  0
 14 15  2  0
 14 22  1  0
 15 16  1  0
 16 17  1  0
 17 18  2  0
 19 18  1  0
 20 19  2  0
 21 22  2  0
 21 20  1  0
 22 17  1  0
 23 12  1  0
 24 23  2  0
 25 29  1  0
 25 23  1  0
 26 25  1  0
 27 28  1  0
 27 26  1  0
 28 29  1  0
 29 30  1  6
 30 32  2  0
 30 31  1  0
M  END
$$$$
