HWP.pdb
     RDKit          3D

 32 35  0  0  1  0  0  0  0  0999 V2000
    9.2471  -17.3790   20.4916 N   0  0  0  0  0  0  0  0  0  0  0  0
   10.4180  -16.7690   21.0959 C   0  0  1  0  0  0  0  0  0  0  0  0
   11.0473  -15.7695   20.1817 C   0  0  0  0  0  0  0  0  0  0  0  0
   11.5911  -16.4611   18.9848 C   0  0  0  0  0  0  0  0  0  0  0  0
   12.8680  -16.9229   18.8205 C   0  0  0  0  0  0  0  0  0  0  0  0
   12.9198  -17.4773   17.5942 N   0  0  0  0  0  0  0  0  0  0  0  0
   11.6970  -17.3548   17.0237 C   0  0  0  0  0  0  0  0  0  0  0  0
   10.8899  -16.7281   17.8899 N   0  0  0  0  0  0  0  0  0  0  0  0
    9.9779  -16.0610   22.3326 C   0  0  0  0  0  0  0  0  0  0  0  0
    9.9545  -14.7879   22.3855 O   0  0  0  0  0  0  0  0  0  0  0  0
    9.5678  -16.7387   23.4990 N   0  0  0  0  0  0  0  0  0  0  0  0
    9.2698  -15.9693   24.7436 C   0  0  1  0  0  0  0  0  0  0  0  0
    7.8613  -16.4267   25.0596 C   0  0  0  0  0  0  0  0  0  0  0  0
    6.8525  -15.4397   25.3129 C   0  0  0  0  0  0  0  0  0  0  0  0
    5.5017  -15.6138   25.5874 C   0  0  0  0  0  0  0  0  0  0  0  0
    4.9089  -14.4235   25.7563 N   0  0  0  0  0  0  0  0  0  0  0  0
    5.8358  -13.4680   25.6000 C   0  0  0  0  0  0  0  0  0  0  0  0
    5.7901  -12.0889   25.6617 C   0  0  0  0  0  0  0  0  0  0  0  0
    6.9149  -11.3210   25.4564 C   0  0  0  0  0  0  0  0  0  0  0  0
    8.1090  -11.9084   25.1854 C   0  0  0  0  0  0  0  0  0  0  0  0
    8.1671  -13.2795   25.1215 C   0  0  0  0  0  0  0  0  0  0  0  0
    7.0325  -14.0684   25.3280 C   0  0  0  0  0  0  0  0  0  0  0  0
   10.2125  -16.5511   25.7542 C   0  0  0  0  0  0  0  0  0  0  0  0
   10.6180  -17.7330   25.5561 O   0  0  0  0  0  0  0  0  0  0  0  0
   10.6014  -15.7779   26.8555 N   0  0  0  0  0  0  0  0  0  0  0  0
   10.8066  -14.3124   26.7950 C   0  0  0  0  0  0  0  0  0  0  0  0
   10.2795  -13.8128   28.1209 C   0  0  0  0  0  0  0  0  0  0  0  0
   10.0409  -15.0639   28.9379 C   0  0  0  0  0  0  0  0  0  0  0  0
   10.9808  -16.0475   28.2130 C   0  0  1  0  0  0  0  0  0  0  0  0
   10.8820  -17.3844   28.7282 C   0  0  0  0  0  0  0  0  0  0  0  0
   11.8582  -17.7583   29.6920 O   0  0  0  0  0  0  0  0  0  0  0  0
   10.0733  -18.2736   28.4638 O   0  0  0  0  0  0  0  0  0  0  0  0
  2  1  1  6
  2  3  1  0
  3  4  1  0
  4  8  1  0
  5  4  2  0
  5  6  1  0
  6  7  1  0
  8  7  2  0
  9 10  2  0
  9  2  1  0
 11  9  1  0
 12 11  1  0
 12 13  1  1
 13 14  1  0
 14 15  2  0
 14 22  1  0
 15 16  1  0
 16 17  1  0
 17 18  2  0
 19 18  1  0
 20 19  2  0
 21 22  2  0
 21 20  1  0
 22 17  1  0
 23 12  1  0
 24 23  2  0
 25 29  1  0
 25 23  1  0
 26 25  1  0
 27 28  1  0
 27 26  1  0
 28 29  1  0
 29 30  1  1
 30 32  2  0
 30 31  1  0
M  END
$$$$
