HWP.pdb
     RDKit          3D

 32 35  0  0  1  0  0  0  0  0999 V2000
    9.3148  -16.4931   20.6700 N   0  0  0  0  0  0  0  0  0  0  0  0
   10.4096  -16.8270   21.5634 C   0  0  1  0  0  0  0  0  0  0  0  0
   11.7207  -16.3625   21.0191 C   0  0  0  0  0  0  0  0  0  0  0  0
   12.0534  -17.1334   19.7937 C   0  0  0  0  0  0  0  0  0  0  0  0
   12.3539  -18.4660   19.7258 C   0  0  0  0  0  0  0  0  0  0  0  0
   12.5877  -18.7402   18.4282 N   0  0  0  0  0  0  0  0  0  0  0  0
   12.4320  -17.5954   17.7203 C   0  0  0  0  0  0  0  0  0  0  0  0
   12.1037  -16.6156   18.5725 N   0  0  0  0  0  0  0  0  0  0  0  0
   10.1687  -16.1329   22.8612 C   0  0  0  0  0  0  0  0  0  0  0  0
   10.2917  -14.8682   22.9606 O   0  0  0  0  0  0  0  0  0  0  0  0
    9.7972  -16.8150   24.0379 N   0  0  0  0  0  0  0  0  0  0  0  0
    9.5512  -16.0514   25.2974 C   0  0  1  0  0  0  0  0  0  0  0  0
    8.0576  -16.2243   25.4766 C   0  0  0  0  0  0  0  0  0  0  0  0
    7.1749  -15.2355   24.9295 C   0  0  0  0  0  0  0  0  0  0  0  0
    6.3306  -15.3231   23.8296 C   0  0  0  0  0  0  0  0  0  0  0  0
    5.6796  -14.1644   23.6553 N   0  0  0  0  0  0  0  0  0  0  0  0
    6.0738  -13.3142   24.6137 C   0  0  0  0  0  0  0  0  0  0  0  0
    5.7390  -12.0081   24.9135 C   0  0  0  0  0  0  0  0  0  0  0  0
    6.3046  -11.3464   25.9808 C   0  0  0  0  0  0  0  0  0  0  0  0
    7.2151  -11.9696   26.7726 C   0  0  0  0  0  0  0  0  0  0  0  0
    7.5561  -13.2688   26.4845 C   0  0  0  0  0  0  0  0  0  0  0  0
    6.9888  -13.9498   25.4044 C   0  0  0  0  0  0  0  0  0  0  0  0
   10.2665  -16.8531   26.3434 C   0  0  0  0  0  0  0  0  0  0  0  0
   10.3042  -18.1080   26.1871 O   0  0  0  0  0  0  0  0  0  0  0  0
   10.8553  -16.1943   27.4302 N   0  0  0  0  0  0  0  0  0  0  0  0
   11.3455  -14.7980   27.3729 C   0  0  0  0  0  0  0  0  0  0  0  0
   10.9941  -14.2295   28.7290 C   0  0  0  0  0  0  0  0  0  0  0  0
   10.5509  -15.4240   29.5455 C   0  0  0  0  0  0  0  0  0  0  0  0
   11.2391  -16.5604   28.7636 C   0  0  1  0  0  0  0  0  0  0  0  0
   10.9009  -17.8608   29.2707 C   0  0  0  0  0  0  0  0  0  0  0  0
   11.6868  -18.3337   30.3572 O   0  0  0  0  0  0  0  0  0  0  0  0
   10.0243  -18.6449   28.9084 O   0  0  0  0  0  0  0  0  0  0  0  0
  2  1  1  6
  2  3  1  0
  3  4  1  0
  4  8  1  0
  5  4  2  0
  5  6  1  0
  6  7  1  0
  8  7  2  0
  9 10  2  0
  9  2  1  0
 11  9  1  0
 12 11  1  0
 12 13  1  1
 13 14  1  0
 14 15  2  0
 14 22  1  0
 15 16  1  0
 16 17  1  0
 17 18  2  0
 19 18  1  0
 20 19  2  0
 21 22  2  0
 21 20  1  0
 22 17  1  0
 23 12  1  0
 24 23  2  0
 25 29  1  0
 25 23  1  0
 26 25  1  0
 27 28  1  0
 27 26  1  0
 28 29  1  0
 29 30  1  1
 30 32  2  0
 30 31  1  0
M  END
$$$$
