HWP.pdb
     RDKit          3D

 32 35  0  0  1  0  0  0  0  0999 V2000
    9.8471  -17.7366   21.2195 N   0  0  0  0  0  0  0  0  0  0  0  0
   10.1083  -16.3127   21.1071 C   0  0  1  0  0  0  0  0  0  0  0  0
    9.2390  -15.6773   20.0720 C   0  0  0  0  0  0  0  0  0  0  0  0
    9.6005  -16.1984   18.7288 C   0  0  0  0  0  0  0  0  0  0  0  0
   10.5245  -17.1684   18.4526 C   0  0  0  0  0  0  0  0  0  0  0  0
   10.5274  -17.3246   17.1149 N   0  0  0  0  0  0  0  0  0  0  0  0
    9.6218  -16.4655   16.5877 C   0  0  0  0  0  0  0  0  0  0  0  0
    9.0596  -15.7794   17.5914 N   0  0  0  0  0  0  0  0  0  0  0  0
    9.8016  -15.6863   22.4254 C   0  0  0  0  0  0  0  0  0  0  0  0
    9.8832  -14.4246   22.5860 O   0  0  0  0  0  0  0  0  0  0  0  0
    9.4099  -16.4322   23.5559 N   0  0  0  0  0  0  0  0  0  0  0  0
    9.2692  -15.7597   24.8818 C   0  0  1  0  0  0  0  0  0  0  0  0
    7.9171  -16.2632   25.3414 C   0  0  0  0  0  0  0  0  0  0  0  0
    6.8429  -15.3253   25.4919 C   0  0  0  0  0  0  0  0  0  0  0  0
    5.4910  -15.5641   25.7054 C   0  0  0  0  0  0  0  0  0  0  0  0
    4.8249  -14.4035   25.7827 N   0  0  0  0  0  0  0  0  0  0  0  0
    5.7045  -13.4045   25.6254 C   0  0  0  0  0  0  0  0  0  0  0  0
    5.5792  -12.0290   25.6142 C   0  0  0  0  0  0  0  0  0  0  0  0
    6.6691  -11.2078   25.4278 C   0  0  0  0  0  0  0  0  0  0  0  0
    7.9069  -11.7373   25.2487 C   0  0  0  0  0  0  0  0  0  0  0  0
    8.0442  -13.1042   25.2580 C   0  0  0  0  0  0  0  0  0  0  0  0
    6.9456  -13.9467   25.4461 C   0  0  0  0  0  0  0  0  0  0  0  0
   10.3393  -16.3963   25.7174 C   0  0  0  0  0  0  0  0  0  0  0  0
   10.7955  -17.5095   25.3259 O   0  0  0  0  0  0  0  0  0  0  0  0
   10.7848  -15.7456   26.8750 N   0  0  0  0  0  0  0  0  0  0  0  0
   10.8926  -14.2735   26.9962 C   0  0  0  0  0  0  0  0  0  0  0  0
   10.4668  -13.9900   28.4188 C   0  0  0  0  0  0  0  0  0  0  0  0
   10.3859  -15.3506   29.0762 C   0  0  0  0  0  0  0  0  0  0  0  0
   11.3099  -16.1599   28.1446 C   0  0  1  0  0  0  0  0  0  0  0  0
   11.3440  -17.5559   28.4803 C   0  0  0  0  0  0  0  0  0  0  0  0
   10.3128  -18.3600   27.9219 O   0  0  0  0  0  0  0  0  0  0  0  0
   12.1369  -18.1779   29.1864 O   0  0  0  0  0  0  0  0  0  0  0  0
  2  1  1  1
  2  3  1  0
  3  4  1  0
  4  8  1  0
  5  4  2  0
  5  6  1  0
  6  7  1  0
  8  7  2  0
  9 10  2  0
  9  2  1  0
 11  9  1  0
 12 11  1  0
 12 13  1  1
 13 14  1  0
 14 15  2  0
 14 22  1  0
 15 16  1  0
 16 17  1  0
 17 18  2  0
 19 18  1  0
 20 19  2  0
 21 22  2  0
 21 20  1  0
 22 17  1  0
 23 12  1  0
 24 23  2  0
 25 29  1  0
 25 23  1  0
 26 25  1  0
 27 28  1  0
 27 26  1  0
 28 29  1  0
 29 30  1  1
 30 32  2  0
 30 31  1  0
M  END
$$$$
