HWP.pdb
     RDKit          3D

 32 35  0  0  1  0  0  0  0  0999 V2000
   10.5429  -16.6759   19.6789 N   0  0  0  0  0  0  0  0  0  0  0  0
   11.0960  -17.1957   20.9167 C   0  0  1  0  0  0  0  0  0  0  0  0
   12.5887  -17.2283   20.8774 C   0  0  0  0  0  0  0  0  0  0  0  0
   13.0397  -18.0145   19.7006 C   0  0  0  0  0  0  0  0  0  0  0  0
   13.6833  -17.5301   18.5951 C   0  0  0  0  0  0  0  0  0  0  0  0
   13.9010  -18.5846   17.7860 N   0  0  0  0  0  0  0  0  0  0  0  0
   13.3990  -19.6895   18.3886 C   0  0  0  0  0  0  0  0  0  0  0  0
   12.8725  -19.3242   19.5649 N   0  0  0  0  0  0  0  0  0  0  0  0
   10.6760  -16.2870   22.0223 C   0  0  0  0  0  0  0  0  0  0  0  0
   11.0139  -15.0582   22.0244 O   0  0  0  0  0  0  0  0  0  0  0  0
    9.8948  -16.7182   23.1139 N   0  0  0  0  0  0  0  0  0  0  0  0
    9.5213  -15.7543   24.1915 C   0  0  1  0  0  0  0  0  0  0  0  0
    8.0218  -15.6516   24.0078 C   0  0  0  0  0  0  0  0  0  0  0  0
    7.2423  -15.0020   25.0210 C   0  0  0  0  0  0  0  0  0  0  0  0
    6.5237  -15.5609   26.0705 C   0  0  0  0  0  0  0  0  0  0  0  0
    5.9287  -14.5964   26.7864 N   0  0  0  0  0  0  0  0  0  0  0  0
    6.2373  -13.4145   26.2348 C   0  0  0  0  0  0  0  0  0  0  0  0
    5.9070  -12.1106   26.5491 C   0  0  0  0  0  0  0  0  0  0  0  0
    6.3675  -11.0503   25.8003 C   0  0  0  0  0  0  0  0  0  0  0  0
    7.1665  -11.2643   24.7231 C   0  0  0  0  0  0  0  0  0  0  0  0
    7.5020  -12.5568   24.4005 C   0  0  0  0  0  0  0  0  0  0  0  0
    7.0406  -13.6400   25.1529 C   0  0  0  0  0  0  0  0  0  0  0  0
    9.8099  -16.5069   25.4559 C   0  0  0  0  0  0  0  0  0  0  0  0
    9.4002  -17.7018   25.5260 O   0  0  0  0  0  0  0  0  0  0  0  0
   10.5099  -15.8710   26.4891 N   0  0  0  0  0  0  0  0  0  0  0  0
   11.2154  -14.5791   26.3254 C   0  0  0  0  0  0  0  0  0  0  0  0
   10.9764  -13.8617   27.6346 C   0  0  0  0  0  0  0  0  0  0  0  0
   10.3592  -14.9054   28.5399 C   0  0  0  0  0  0  0  0  0  0  0  0
   10.8476  -16.1926   27.8463 C   0  0  1  0  0  0  0  0  0  0  0  0
   10.3132  -17.3806   28.4510 C   0  0  0  0  0  0  0  0  0  0  0  0
   11.2066  -18.1222   29.2718 O   0  0  0  0  0  0  0  0  0  0  0  0
    9.1859  -17.8676   28.3706 O   0  0  0  0  0  0  0  0  0  0  0  0
  2  1  1  6
  2  3  1  0
  3  4  1  0
  4  8  1  0
  5  4  2  0
  5  6  1  0
  6  7  1  0
  8  7  2  0
  9 10  2  0
  9  2  1  0
 11  9  1  0
 12 11  1  0
 12 13  1  6
 13 14  1  0
 14 15  2  0
 14 22  1  0
 15 16  1  0
 16 17  1  0
 17 18  2  0
 19 18  1  0
 20 19  2  0
 21 22  2  0
 21 20  1  0
 22 17  1  0
 23 12  1  0
 24 23  2  0
 25 29  1  0
 25 23  1  0
 26 25  1  0
 27 28  1  0
 27 26  1  0
 28 29  1  0
 29 30  1  1
 30 32  2  0
 30 31  1  0
M  END
$$$$
