HWP.pdb
     RDKit          3D

 32 35  0  0  1  0  0  0  0  0999 V2000
   10.0377  -17.9454   21.6049 N   0  0  0  0  0  0  0  0  0  0  0  0
   10.5693  -16.5943   21.5902 C   0  0  1  0  0  0  0  0  0  0  0  0
    9.9703  -15.7830   20.4885 C   0  0  0  0  0  0  0  0  0  0  0  0
   10.2627  -16.4243   19.1809 C   0  0  0  0  0  0  0  0  0  0  0  0
   11.4687  -16.4469   18.5360 C   0  0  0  0  0  0  0  0  0  0  0  0
   11.2783  -17.1314   17.3919 N   0  0  0  0  0  0  0  0  0  0  0  0
    9.9805  -17.5178   17.3424 C   0  0  0  0  0  0  0  0  0  0  0  0
    9.3680  -17.0762   18.4487 N   0  0  0  0  0  0  0  0  0  0  0  0
   10.2193  -15.9511   22.8895 C   0  0  0  0  0  0  0  0  0  0  0  0
   10.4350  -14.7104   23.0854 O   0  0  0  0  0  0  0  0  0  0  0  0
    9.6396  -16.6578   23.9630 N   0  0  0  0  0  0  0  0  0  0  0  0
    9.4410  -15.9831   25.2803 C   0  0  1  0  0  0  0  0  0  0  0  0
    8.0065  -16.3470   25.6004 C   0  0  0  0  0  0  0  0  0  0  0  0
    6.9626  -15.4316   25.2417 C   0  0  0  0  0  0  0  0  0  0  0  0
    5.8394  -15.6449   24.4523 C   0  0  0  0  0  0  0  0  0  0  0  0
    5.1184  -14.5184   24.3632 N   0  0  0  0  0  0  0  0  0  0  0  0
    5.7386  -13.5668   25.0749 C   0  0  0  0  0  0  0  0  0  0  0  0
    5.4517  -12.2399   25.3294 C   0  0  0  0  0  0  0  0  0  0  0  0
    6.2751  -11.4622   26.1129 C   0  0  0  0  0  0  0  0  0  0  0  0
    7.4016  -11.9878   26.6601 C   0  0  0  0  0  0  0  0  0  0  0  0
    7.6977  -13.3065   26.4143 C   0  0  0  0  0  0  0  0  0  0  0  0
    6.8695  -14.1047   25.6209 C   0  0  0  0  0  0  0  0  0  0  0  0
   10.3546  -16.7323   26.2036 C   0  0  0  0  0  0  0  0  0  0  0  0
   10.6047  -17.9393   25.9185 O   0  0  0  0  0  0  0  0  0  0  0  0
   10.8866  -16.0791   27.3226 N   0  0  0  0  0  0  0  0  0  0  0  0
   11.0578  -14.6105   27.4083 C   0  0  0  0  0  0  0  0  0  0  0  0
   10.7203  -14.2847   28.8455 C   0  0  0  0  0  0  0  0  0  0  0  0
   10.6223  -15.6289   29.5335 C   0  0  0  0  0  0  0  0  0  0  0  0
   11.4627  -16.4910   28.5707 C   0  0  1  0  0  0  0  0  0  0  0  0
   11.4607  -17.8810   28.9320 C   0  0  0  0  0  0  0  0  0  0  0  0
   10.2573  -18.5935   28.6752 O   0  0  0  0  0  0  0  0  0  0  0  0
   12.3497  -18.5656   29.4375 O   0  0  0  0  0  0  0  0  0  0  0  0
  2  1  1  1
  2  3  1  0
  3  4  1  0
  4  8  1  0
  5  4  2  0
  5  6  1  0
  6  7  1  0
  8  7  2  0
  9 10  2  0
  9  2  1  0
 11  9  1  0
 12 11  1  0
 12 13  1  1
 13 14  1  0
 14 15  2  0
 14 22  1  0
 15 16  1  0
 16 17  1  0
 17 18  2  0
 19 18  1  0
 20 19  2  0
 21 22  2  0
 21 20  1  0
 22 17  1  0
 23 12  1  0
 24 23  2  0
 25 29  1  0
 25 23  1  0
 26 25  1  0
 27 28  1  0
 27 26  1  0
 28 29  1  0
 29 30  1  1
 30 32  2  0
 30 31  1  0
M  END
$$$$
