HWP.pdb
     RDKit          3D

 32 35  0  0  1  0  0  0  0  0999 V2000
    9.7119  -17.8710   20.7826 N   0  0  0  0  0  0  0  0  0  0  0  0
   10.3659  -16.5782   20.8781 C   0  0  1  0  0  0  0  0  0  0  0  0
   10.0350  -15.7102   19.7085 C   0  0  0  0  0  0  0  0  0  0  0  0
   10.6064  -16.3011   18.4712 C   0  0  0  0  0  0  0  0  0  0  0  0
   11.9161  -16.2614   18.0788 C   0  0  0  0  0  0  0  0  0  0  0  0
   11.9841  -16.9175   16.9047 N   0  0  0  0  0  0  0  0  0  0  0  0
   10.7387  -17.3482   16.5893 C   0  0  0  0  0  0  0  0  0  0  0  0
    9.9018  -16.9621   17.5612 N   0  0  0  0  0  0  0  0  0  0  0  0
    9.8724  -15.9064   22.1148 C   0  0  0  0  0  0  0  0  0  0  0  0
    9.0987  -14.8959   22.0471 O   0  0  0  0  0  0  0  0  0  0  0  0
   10.2217  -16.3354   23.4116 N   0  0  0  0  0  0  0  0  0  0  0  0
    9.5653  -15.7202   24.6035 C   0  0  1  0  0  0  0  0  0  0  0  0
    8.1331  -16.1841   24.4410 C   0  0  0  0  0  0  0  0  0  0  0  0
    7.0790  -15.3872   24.9979 C   0  0  0  0  0  0  0  0  0  0  0  0
    5.8035  -15.7695   25.3941 C   0  0  0  0  0  0  0  0  0  0  0  0
    5.1279  -14.7087   25.8576 N   0  0  0  0  0  0  0  0  0  0  0  0
    5.9266  -13.6354   25.7768 C   0  0  0  0  0  0  0  0  0  0  0  0
    5.7568  -12.3048   26.1064 C   0  0  0  0  0  0  0  0  0  0  0  0
    6.7618  -11.3821   25.9182 C   0  0  0  0  0  0  0  0  0  0  0  0
    7.9573  -11.7632   25.3984 C   0  0  0  0  0  0  0  0  0  0  0  0
    8.1383  -13.0840   25.0668 C   0  0  0  0  0  0  0  0  0  0  0  0
    7.1257  -14.0286   25.2533 C   0  0  0  0  0  0  0  0  0  0  0  0
   10.1860  -16.4421   25.7620 C   0  0  0  0  0  0  0  0  0  0  0  0
   10.3372  -17.6933   25.6520 O   0  0  0  0  0  0  0  0  0  0  0  0
   10.5687  -15.7171   26.8977 N   0  0  0  0  0  0  0  0  0  0  0  0
   10.8221  -14.2579   26.8900 C   0  0  0  0  0  0  0  0  0  0  0  0
   10.2745  -13.7832   28.2169 C   0  0  0  0  0  0  0  0  0  0  0  0
    9.9736  -15.0509   28.9864 C   0  0  0  0  0  0  0  0  0  0  0  0
   10.9014  -16.0414   28.2554 C   0  0  1  0  0  0  0  0  0  0  0  0
   10.7458  -17.3900   28.7243 C   0  0  0  0  0  0  0  0  0  0  0  0
   11.7853  -17.8877   29.5571 O   0  0  0  0  0  0  0  0  0  0  0  0
    9.8407  -18.1974   28.5166 O   0  0  0  0  0  0  0  0  0  0  0  0
  2  1  1  6
  2  3  1  0
  3  4  1  0
  4  8  1  0
  5  4  2  0
  5  6  1  0
  6  7  1  0
  8  7  2  0
  9 10  2  0
  9  2  1  0
 11  9  1  0
 12 11  1  0
 12 13  1  6
 13 14  1  0
 14 15  2  0
 14 22  1  0
 15 16  1  0
 16 17  1  0
 17 18  2  0
 19 18  1  0
 20 19  2  0
 21 22  2  0
 21 20  1  0
 22 17  1  0
 23 12  1  0
 24 23  2  0
 25 29  1  0
 25 23  1  0
 26 25  1  0
 27 28  1  0
 27 26  1  0
 28 29  1  0
 29 30  1  1
 30 32  2  0
 30 31  1  0
M  END
$$$$
