HWP.pdb
     RDKit          3D

 32 35  0  0  1  0  0  0  0  0999 V2000
    9.5021  -17.7971   21.3457 N   0  0  0  0  0  0  0  0  0  0  0  0
   10.4458  -16.7192   21.5819 C   0  0  1  0  0  0  0  0  0  0  0  0
   10.4036  -15.7055   20.4858 C   0  0  0  0  0  0  0  0  0  0  0  0
   10.6976  -16.3629   19.1866 C   0  0  0  0  0  0  0  0  0  0  0  0
   11.8400  -17.0381   18.8550 C   0  0  0  0  0  0  0  0  0  0  0  0
   11.6779  -17.4659   17.5883 N   0  0  0  0  0  0  0  0  0  0  0  0
   10.4595  -17.0584   17.1579 C   0  0  0  0  0  0  0  0  0  0  0  0
    9.8678  -16.3814   18.1508 N   0  0  0  0  0  0  0  0  0  0  0  0
   10.0625  -16.0471   22.8569 C   0  0  0  0  0  0  0  0  0  0  0  0
    9.9861  -14.7771   22.9307 O   0  0  0  0  0  0  0  0  0  0  0  0
    9.7660  -16.7569   24.0385 N   0  0  0  0  0  0  0  0  0  0  0  0
    9.5737  -16.0204   25.3233 C   0  0  1  0  0  0  0  0  0  0  0  0
    8.1573  -16.4082   25.6924 C   0  0  0  0  0  0  0  0  0  0  0  0
    7.0806  -15.5384   25.3176 C   0  0  0  0  0  0  0  0  0  0  0  0
    5.9134  -15.8331   24.6240 C   0  0  0  0  0  0  0  0  0  0  0  0
    5.1728  -14.7255   24.4772 N   0  0  0  0  0  0  0  0  0  0  0  0
    5.8231  -13.7070   25.0572 C   0  0  0  0  0  0  0  0  0  0  0  0
    5.5343  -12.3644   25.2058 C   0  0  0  0  0  0  0  0  0  0  0  0
    6.3943  -11.5107   25.8604 C   0  0  0  0  0  0  0  0  0  0  0  0
    7.5598  -11.9742   26.3813 C   0  0  0  0  0  0  0  0  0  0  0  0
    7.8581  -13.3077   26.2400 C   0  0  0  0  0  0  0  0  0  0  0  0
    6.9931  -14.1828   25.5778 C   0  0  0  0  0  0  0  0  0  0  0  0
   10.5274  -16.6941   26.2641 C   0  0  0  0  0  0  0  0  0  0  0  0
   10.8264  -17.8994   26.0223 O   0  0  0  0  0  0  0  0  0  0  0  0
   11.0416  -15.9764   27.3514 N   0  0  0  0  0  0  0  0  0  0  0  0
   11.2673  -14.5128   27.3328 C   0  0  0  0  0  0  0  0  0  0  0  0
   10.8882  -14.0650   28.7261 C   0  0  0  0  0  0  0  0  0  0  0  0
   10.7107  -15.3476   29.5091 C   0  0  0  0  0  0  0  0  0  0  0  0
   11.5526  -16.3115   28.6499 C   0  0  1  0  0  0  0  0  0  0  0  0
   11.4817  -17.6684   29.1150 C   0  0  0  0  0  0  0  0  0  0  0  0
   10.2561  -18.3490   28.8774 O   0  0  0  0  0  0  0  0  0  0  0  0
   12.3271  -18.3478   29.6965 O   0  0  0  0  0  0  0  0  0  0  0  0
  2  1  1  6
  2  3  1  0
  3  4  1  0
  4  8  1  0
  5  4  2  0
  5  6  1  0
  6  7  1  0
  8  7  2  0
  9 10  2  0
  9  2  1  0
 11  9  1  0
 12 11  1  0
 12 13  1  1
 13 14  1  0
 14 15  2  0
 14 22  1  0
 15 16  1  0
 16 17  1  0
 17 18  2  0
 19 18  1  0
 20 19  2  0
 21 22  2  0
 21 20  1  0
 22 17  1  0
 23 12  1  0
 24 23  2  0
 25 29  1  0
 25 23  1  0
 26 25  1  0
 27 28  1  0
 27 26  1  0
 28 29  1  0
 29 30  1  1
 30 32  2  0
 30 31  1  0
M  END
$$$$
