NSM.pdb
     RDKit          3D

 23 22  0  0  1  0  0  0  0  0999 V2000
    0.8986  -19.0197   22.0587 N   0  0  0  0  0  0  0  0  0  0  0  0
    2.0953  -19.1419   21.3216 C   0  0  0  0  0  0  0  0  0  0  0  0
    2.0214  -19.2571   20.0779 O   0  0  0  0  0  0  0  0  0  0  0  0
    3.3762  -19.1301   22.0304 C   0  0  0  0  0  0  0  0  0  0  0  0
    4.1251  -17.8155   21.8487 C   0  0  2  0  0  0  0  0  0  0  0  0
    4.2598  -17.5577   20.4291 N   0  0  0  0  0  0  0  0  0  0  0  0
    5.5165  -17.9448   22.3944 C   0  0  0  0  0  0  0  0  0  0  0  0
    5.7126  -18.3672   23.5456 O   0  0  0  0  0  0  0  0  0  0  0  0
    8.7684  -16.2405   20.2389 O   0  0  0  0  0  0  0  0  0  0  0  0
    9.0241  -17.4330   20.9337 C   0  0  0  0  0  0  0  0  0  0  0  0
    8.0092  -17.6137   22.0379 C   0  0  2  0  0  0  0  0  0  0  0  0
    6.6521  -17.5824   21.5961 N   0  0  0  0  0  0  0  0  0  0  0  0
    8.3315  -16.6363   23.1114 C   0  0  0  0  0  0  0  0  0  0  0  0
    8.3087  -15.4063   22.8752 O   0  0  0  0  0  0  0  0  0  0  0  0
    6.1269  -11.4371   26.0110 C   0  0  0  0  0  0  0  0  0  0  0  0
    6.2189  -13.2142   26.3817 S   0  0  0  0  0  0  0  0  0  0  0  0
    7.7520  -13.9160   25.6526 C   0  0  0  0  0  0  0  0  0  0  0  0
    7.8427  -15.3818   25.9267 C   0  0  0  0  0  0  0  0  0  0  0  0
    9.1034  -16.0401   25.4392 C   0  0  2  0  0  0  0  0  0  0  0  0
    8.6742  -17.0270   24.4287 N   0  0  0  0  0  0  0  0  0  0  0  0
    9.7598  -16.7390   26.5740 C   0  0  0  0  0  0  0  0  0  0  0  0
    9.6077  -17.9855   26.6902 O   0  0  0  0  0  0  0  0  0  0  0  0
   10.5400  -16.1207   27.5310 O   0  0  0  0  0  0  0  0  0  0  0  0
  2  1  1  0
  3  2  2  0
  4  2  1  0
  4  5  1  0
  5  6  1  6
  7  5  1  0
  7 12  1  0
  8  7  2  0
 11 10  1  6
 10  9  1  0
 11 12  1  0
 11 13  1  0
 13 20  1  0
 14 13  2  0
 15 16  1  0
 17 16  1  0
 18 17  1  0
 19 18  1  1
 20 19  1  0
 21 19  1  0
 21 23  1  0
 22 21  2  0
M  END
$$$$
