NSM.pdb
     RDKit          3D

 23 22  0  0  1  0  0  0  0  0999 V2000
    9.8369  -22.4601   19.4286 N   0  0  0  0  0  0  0  0  0  0  0  0
    9.2739  -21.6202   20.4124 C   0  0  0  0  0  0  0  0  0  0  0  0
    8.5940  -22.1412   21.3244 O   0  0  0  0  0  0  0  0  0  0  0  0
    9.5016  -20.1761   20.3352 C   0  0  0  0  0  0  0  0  0  0  0  0
    8.8913  -19.4309   21.5160 C   0  0  2  0  0  0  0  0  0  0  0  0
    7.4488  -19.4651   21.3827 N   0  0  0  0  0  0  0  0  0  0  0  0
    9.2919  -17.9861   21.4658 C   0  0  0  0  0  0  0  0  0  0  0  0
   10.4864  -17.6534   21.5347 O   0  0  0  0  0  0  0  0  0  0  0  0
    6.2549  -14.9964   21.3802 O   0  0  0  0  0  0  0  0  0  0  0  0
    7.4592  -14.7225   20.7134 C   0  0  0  0  0  0  0  0  0  0  0  0
    8.5742  -15.5555   21.3007 C   0  0  2  0  0  0  0  0  0  0  0  0
    8.3015  -16.9562   21.3369 N   0  0  0  0  0  0  0  0  0  0  0  0
    8.9355  -14.9628   22.6160 C   0  0  0  0  0  0  0  0  0  0  0  0
    9.1687  -13.7359   22.7147 O   0  0  0  0  0  0  0  0  0  0  0  0
    6.5852  -11.0042   26.4920 C   0  0  0  0  0  0  0  0  0  0  0  0
    6.2060  -12.7500   26.8269 S   0  0  0  0  0  0  0  0  0  0  0  0
    7.7464  -13.7453   26.7208 C   0  0  0  0  0  0  0  0  0  0  0  0
    7.8662  -14.3890   25.3779 C   0  0  0  0  0  0  0  0  0  0  0  0
    9.1731  -15.0882   25.1255 C   0  0  2  0  0  0  0  0  0  0  0  0
    9.0349  -15.7289   23.8027 N   0  0  0  0  0  0  0  0  0  0  0  0
    9.3796  -16.1282   26.1661 C   0  0  0  0  0  0  0  0  0  0  0  0
    9.6196  -15.7648   27.3496 O   0  0  0  0  0  0  0  0  0  0  0  0
    9.3277  -17.4890   25.9369 O   0  0  0  0  0  0  0  0  0  0  0  0
  2  1  1  0
  3  2  2  0
  4  2  1  0
  4  5  1  0
  5  6  1  6
  7  5  1  0
  7 12  1  0
  8  7  2  0
 11 10  1  1
 10  9  1  0
 11 12  1  0
 11 13  1  0
 13 20  1  0
 14 13  2  0
 15 16  1  0
 17 16  1  0
 18 17  1  0
 19 18  1  1
 20 19  1  0
 21 19  1  0
 21 23  1  0
 22 21  2  0
M  END
$$$$
