NSM.pdb
     RDKit          3D

 23 22  0  0  1  0  0  0  0  0999 V2000
   15.6313  -13.8824   18.8591 N   0  0  0  0  0  0  0  0  0  0  0  0
   14.6207  -14.8623   18.7654 C   0  0  0  0  0  0  0  0  0  0  0  0
   14.9144  -15.9788   18.2829 O   0  0  0  0  0  0  0  0  0  0  0  0
   13.2703  -14.5438   19.2325 C   0  0  0  0  0  0  0  0  0  0  0  0
   12.2792  -15.6644   18.9425 C   0  0  2  0  0  0  0  0  0  0  0  0
   11.8454  -15.5468   17.5650 N   0  0  0  0  0  0  0  0  0  0  0  0
   11.0556  -15.4919   19.7931 C   0  0  0  0  0  0  0  0  0  0  0  0
   10.3439  -14.4797   19.6877 O   0  0  0  0  0  0  0  0  0  0  0  0
    9.6631  -18.6988   22.2962 O   0  0  0  0  0  0  0  0  0  0  0  0
    8.8065  -17.7007   21.8063 C   0  0  0  0  0  0  0  0  0  0  0  0
    9.5671  -16.4067   21.6365 C   0  0  2  0  0  0  0  0  0  0  0  0
   10.6809  -16.4949   20.7480 N   0  0  0  0  0  0  0  0  0  0  0  0
    9.8990  -15.8970   22.9936 C   0  0  0  0  0  0  0  0  0  0  0  0
   11.0479  -16.0575   23.4665 O   0  0  0  0  0  0  0  0  0  0  0  0
    5.0584  -12.3838   27.7431 C   0  0  0  0  0  0  0  0  0  0  0  0
    6.4333  -12.1174   26.5844 S   0  0  0  0  0  0  0  0  0  0  0  0
    7.3552  -13.6893   26.3523 C   0  0  0  0  0  0  0  0  0  0  0  0
    8.4753  -13.5046   25.3810 C   0  0  0  0  0  0  0  0  0  0  0  0
    9.3235  -14.7250   25.1535 C   0  0  2  0  0  0  0  0  0  0  0  0
    8.9618  -15.2185   23.8100 N   0  0  0  0  0  0  0  0  0  0  0  0
    8.9846  -15.7521   26.1719 C   0  0  0  0  0  0  0  0  0  0  0  0
    8.1402  -16.6421   25.8802 O   0  0  0  0  0  0  0  0  0  0  0  0
    9.5321  -15.8122   27.4383 O   0  0  0  0  0  0  0  0  0  0  0  0
  2  1  1  0
  3  2  2  0
  4  2  1  0
  4  5  1  0
  5  6  1  6
  7  5  1  0
  7 12  1  0
  8  7  2  0
 11 10  1  1
 10  9  1  0
 11 12  1  0
 11 13  1  0
 13 20  1  0
 14 13  2  0
 15 16  1  0
 17 16  1  0
 18 17  1  0
 19 18  1  1
 20 19  1  0
 21 19  1  0
 21 23  1  0
 22 21  2  0
M  END
$$$$
