NSM.pdb
     RDKit          3D

 23 22  0  0  1  0  0  0  0  0999 V2000
   13.5768  -18.4438   18.2118 N   0  0  0  0  0  0  0  0  0  0  0  0
   12.6359  -17.8448   17.3479 C   0  0  0  0  0  0  0  0  0  0  0  0
   12.9555  -17.6608   16.1523 O   0  0  0  0  0  0  0  0  0  0  0  0
   11.3250  -17.4605   17.8743 C   0  0  0  0  0  0  0  0  0  0  0  0
   11.1702  -17.8084   19.3498 C   0  0  2  0  0  0  0  0  0  0  0  0
   10.6623  -19.1617   19.4502 N   0  0  0  0  0  0  0  0  0  0  0  0
   10.1391  -16.9164   19.9757 C   0  0  0  0  0  0  0  0  0  0  0  0
   10.2726  -15.6818   19.9634 O   0  0  0  0  0  0  0  0  0  0  0  0
    7.0039  -18.6238   22.3613 O   0  0  0  0  0  0  0  0  0  0  0  0
    6.7128  -17.4889   21.5886 C   0  0  0  0  0  0  0  0  0  0  0  0
    7.9819  -16.7213   21.3020 C   0  0  2  0  0  0  0  0  0  0  0  0
    8.9745  -17.4721   20.6028 N   0  0  0  0  0  0  0  0  0  0  0  0
    8.4472  -16.1246   22.5822 C   0  0  0  0  0  0  0  0  0  0  0  0
    9.5008  -16.5315   23.1241 O   0  0  0  0  0  0  0  0  0  0  0  0
    6.3063  -11.0256   28.3371 C   0  0  0  0  0  0  0  0  0  0  0  0
    5.9855  -11.7991   26.7239 S   0  0  0  0  0  0  0  0  0  0  0  0
    7.3323  -12.9853   26.3319 C   0  0  0  0  0  0  0  0  0  0  0  0
    7.0921  -13.6368   25.0091 C   0  0  0  0  0  0  0  0  0  0  0  0
    8.1378  -14.6350   24.5960 C   0  0  2  0  0  0  0  0  0  0  0  0
    7.7462  -15.0894   23.2471 N   0  0  0  0  0  0  0  0  0  0  0  0
    8.1151  -15.7841   25.5373 C   0  0  0  0  0  0  0  0  0  0  0  0
    7.2436  -16.6819   25.3798 O   0  0  0  0  0  0  0  0  0  0  0  0
    8.9903  -15.9520   26.5922 O   0  0  0  0  0  0  0  0  0  0  0  0
  2  1  1  0
  3  2  2  0
  4  2  1  0
  4  5  1  0
  5  6  1  6
  7  5  1  0
  7 12  1  0
  8  7  2  0
 11 10  1  1
 10  9  1  0
 11 12  1  0
 11 13  1  0
 13 20  1  0
 14 13  2  0
 15 16  1  0
 17 16  1  0
 18 17  1  0
 19 18  1  1
 20 19  1  0
 21 19  1  0
 21 23  1  0
 22 21  2  0
M  END
$$$$
