NSM.pdb
     RDKit          3D

 23 22  0  0  1  0  0  0  0  0999 V2000
   12.4668  -18.0118   17.2315 N   0  0  0  0  0  0  0  0  0  0  0  0
   11.2490  -17.5663   16.6758 C   0  0  0  0  0  0  0  0  0  0  0  0
   11.2273  -17.2414   15.4677 O   0  0  0  0  0  0  0  0  0  0  0  0
   10.0580  -17.4990   17.5244 C   0  0  0  0  0  0  0  0  0  0  0  0
   10.3358  -17.9655   18.9482 C   0  0  2  0  0  0  0  0  0  0  0  0
   10.1233  -19.3975   19.0104 N   0  0  0  0  0  0  0  0  0  0  0  0
    9.3450  -17.3444   19.8879 C   0  0  0  0  0  0  0  0  0  0  0  0
    9.0066  -16.1561   19.7627 O   0  0  0  0  0  0  0  0  0  0  0  0
    7.9560  -19.4755   23.3950 O   0  0  0  0  0  0  0  0  0  0  0  0
    7.0663  -18.6910   22.6448 C   0  0  0  0  0  0  0  0  0  0  0  0
    7.8259  -17.6149   21.9053 C   0  0  2  0  0  0  0  0  0  0  0  0
    8.7663  -18.1117   20.9531 N   0  0  0  0  0  0  0  0  0  0  0  0
    8.4028  -16.6922   22.9189 C   0  0  0  0  0  0  0  0  0  0  0  0
    9.6303  -16.7133   23.1682 O   0  0  0  0  0  0  0  0  0  0  0  0
    6.6029  -10.6718   27.8352 C   0  0  0  0  0  0  0  0  0  0  0  0
    6.0785  -11.9093   26.6115 S   0  0  0  0  0  0  0  0  0  0  0  0
    7.5100  -12.9647   26.1516 C   0  0  0  0  0  0  0  0  0  0  0  0
    7.1165  -13.9623   25.1114 C   0  0  0  0  0  0  0  0  0  0  0  0
    8.2162  -14.8908   24.6768 C   0  0  2  0  0  0  0  0  0  0  0  0
    7.6204  -15.7602   23.6431 N   0  0  0  0  0  0  0  0  0  0  0  0
    8.6466  -15.7144   25.8359 C   0  0  0  0  0  0  0  0  0  0  0  0
    7.9915  -16.7539   26.1198 O   0  0  0  0  0  0  0  0  0  0  0  0
    9.7295  -15.4276   26.6435 O   0  0  0  0  0  0  0  0  0  0  0  0
  2  1  1  0
  3  2  2  0
  4  2  1  0
  4  5  1  0
  5  6  1  6
  7  5  1  0
  7 12  1  0
  8  7  2  0
 11 10  1  1
 10  9  1  0
 11 12  1  0
 11 13  1  0
 13 20  1  0
 14 13  2  0
 15 16  1  0
 17 16  1  0
 18 17  1  0
 19 18  1  1
 20 19  1  0
 21 19  1  0
 21 23  1  0
 22 21  2  0
M  END
$$$$
