NSM.pdb
     RDKit          3D

 23 22  0  0  1  0  0  0  0  0999 V2000
    8.3074  -12.4314   16.4246 N   0  0  0  0  0  0  0  0  0  0  0  0
    8.0592  -13.8112   16.5825 C   0  0  0  0  0  0  0  0  0  0  0  0
    8.2460  -14.5674   15.6033 O   0  0  0  0  0  0  0  0  0  0  0  0
    7.5944  -14.3106   17.8778 C   0  0  0  0  0  0  0  0  0  0  0  0
    8.7430  -14.5541   18.8492 C   0  0  2  0  0  0  0  0  0  0  0  0
    9.5842  -15.6033   18.3096 N   0  0  0  0  0  0  0  0  0  0  0  0
    8.2049  -15.0646   20.1531 C   0  0  0  0  0  0  0  0  0  0  0  0
    7.4171  -14.3820   20.8282 O   0  0  0  0  0  0  0  0  0  0  0  0
    9.8013  -18.6721   21.7941 O   0  0  0  0  0  0  0  0  0  0  0  0
    8.4546  -18.3762   22.0568 C   0  0  0  0  0  0  0  0  0  0  0  0
    8.2169  -16.8909   21.9180 C   0  0  2  0  0  0  0  0  0  0  0  0
    8.5897  -16.3548   20.6486 N   0  0  0  0  0  0  0  0  0  0  0  0
    8.8549  -16.2211   23.0824 C   0  0  0  0  0  0  0  0  0  0  0  0
   10.0448  -15.8350   23.0167 O   0  0  0  0  0  0  0  0  0  0  0  0
    6.3080  -10.6453   26.6993 C   0  0  0  0  0  0  0  0  0  0  0  0
    6.2731  -12.4545   26.8706 S   0  0  0  0  0  0  0  0  0  0  0  0
    7.7640  -13.1764   26.0764 C   0  0  0  0  0  0  0  0  0  0  0  0
    7.7774  -14.6621   26.2333 C   0  0  0  0  0  0  0  0  0  0  0  0
    8.8537  -15.3707   25.4587 C   0  0  2  0  0  0  0  0  0  0  0  0
    8.1742  -15.9864   24.3017 N   0  0  0  0  0  0  0  0  0  0  0  0
    9.4511  -16.4309   26.3106 C   0  0  0  0  0  0  0  0  0  0  0  0
   10.1745  -16.0914   27.2862 O   0  0  0  0  0  0  0  0  0  0  0  0
    9.2735  -17.7867   26.1166 O   0  0  0  0  0  0  0  0  0  0  0  0
  2  1  1  0
  3  2  2  0
  4  2  1  0
  4  5  1  0
  5  6  1  6
  7  5  1  0
  7 12  1  0
  8  7  2  0
 11 10  1  6
 10  9  1  0
 11 12  1  0
 11 13  1  0
 13 20  1  0
 14 13  2  0
 15 16  1  0
 17 16  1  0
 18 17  1  0
 19 18  1  1
 20 19  1  0
 21 19  1  0
 21 23  1  0
 22 21  2  0
M  END
$$$$
