NSM.pdb
     RDKit          3D

 23 22  0  0  1  0  0  0  0  0999 V2000
   12.9318  -21.3102   18.6585 N   0  0  0  0  0  0  0  0  0  0  0  0
   11.8339  -20.4623   18.4021 C   0  0  0  0  0  0  0  0  0  0  0  0
   11.2620  -20.5449   17.2922 O   0  0  0  0  0  0  0  0  0  0  0  0
   11.4017  -19.5195   19.4353 C   0  0  0  0  0  0  0  0  0  0  0  0
   11.2665  -18.0987   18.9012 C   0  0  2  0  0  0  0  0  0  0  0  0
   12.5941  -17.5775   18.6456 N   0  0  0  0  0  0  0  0  0  0  0  0
   10.6555  -17.2183   19.9509 C   0  0  0  0  0  0  0  0  0  0  0  0
   11.2668  -16.2297   20.3881 O   0  0  0  0  0  0  0  0  0  0  0  0
    6.9965  -18.4262   21.7715 O   0  0  0  0  0  0  0  0  0  0  0  0
    7.2395  -17.0476   21.6694 C   0  0  0  0  0  0  0  0  0  0  0  0
    8.7234  -16.7940   21.5439 C   0  0  2  0  0  0  0  0  0  0  0  0
    9.3492  -17.5003   20.4728 N   0  0  0  0  0  0  0  0  0  0  0  0
    9.3357  -17.0282   22.8788 C   0  0  0  0  0  0  0  0  0  0  0  0
   10.0722  -18.0230   23.0715 O   0  0  0  0  0  0  0  0  0  0  0  0
   11.1302  -12.5875   28.1902 C   0  0  0  0  0  0  0  0  0  0  0  0
    9.7010  -13.6900   28.4040 S   0  0  0  0  0  0  0  0  0  0  0  0
   10.0084  -15.2730   27.5242 C   0  0  0  0  0  0  0  0  0  0  0  0
    9.4661  -15.2167   26.1332 C   0  0  0  0  0  0  0  0  0  0  0  0
    9.7246  -16.4431   25.3029 C   0  0  2  0  0  0  0  0  0  0  0  0
    9.1282  -16.1644   23.9815 N   0  0  0  0  0  0  0  0  0  0  0  0
    9.0417  -17.6067   25.9246 C   0  0  0  0  0  0  0  0  0  0  0  0
    7.8426  -17.8448   25.6150 O   0  0  0  0  0  0  0  0  0  0  0  0
    9.6270  -18.4671   26.8326 O   0  0  0  0  0  0  0  0  0  0  0  0
  2  1  1  0
  3  2  2  0
  4  2  1  0
  4  5  1  0
  5  6  1  1
  7  5  1  0
  7 12  1  0
  8  7  2  0
 11 10  1  1
 10  9  1  0
 11 12  1  0
 11 13  1  0
 13 20  1  0
 14 13  2  0
 15 16  1  0
 17 16  1  0
 18 17  1  0
 19 18  1  1
 20 19  1  0
 21 19  1  0
 21 23  1  0
 22 21  2  0
M  END
$$$$
