NSM.pdb
     RDKit          3D

 23 22  0  0  1  0  0  0  0  0999 V2000
   10.4052  -12.8880   19.6926 N   0  0  0  0  0  0  0  0  0  0  0  0
   11.0053  -14.0124   19.0877 C   0  0  0  0  0  0  0  0  0  0  0  0
   12.2417  -14.1646   19.2048 O   0  0  0  0  0  0  0  0  0  0  0  0
   10.1682  -14.9583   18.3476 C   0  0  0  0  0  0  0  0  0  0  0  0
    8.6998  -14.5510   18.3449 C   0  0  2  0  0  0  0  0  0  0  0  0
    8.6141  -13.1496   17.9865 N   0  0  0  0  0  0  0  0  0  0  0  0
    8.1367  -14.6741   19.7299 C   0  0  0  0  0  0  0  0  0  0  0  0
    7.9989  -13.6739   20.4529 O   0  0  0  0  0  0  0  0  0  0  0  0
    7.7148  -18.4915   21.6210 O   0  0  0  0  0  0  0  0  0  0  0  0
    6.6551  -17.5802   21.7499 C   0  0  0  0  0  0  0  0  0  0  0  0
    7.1571  -16.1722   21.5317 C   0  0  2  0  0  0  0  0  0  0  0  0
    7.7446  -15.9527   20.2493 N   0  0  0  0  0  0  0  0  0  0  0  0
    8.0343  -15.8228   22.6805 C   0  0  0  0  0  0  0  0  0  0  0  0
    9.2780  -15.7802   22.5372 O   0  0  0  0  0  0  0  0  0  0  0  0
    6.1553  -10.6741   27.2521 C   0  0  0  0  0  0  0  0  0  0  0  0
    6.0279  -12.4720   27.0174 S   0  0  0  0  0  0  0  0  0  0  0  0
    7.5613  -13.0988   26.2235 C   0  0  0  0  0  0  0  0  0  0  0  0
    7.5464  -14.5911   26.1536 C   0  0  0  0  0  0  0  0  0  0  0  0
    8.4285  -15.1838   25.0902 C   0  0  2  0  0  0  0  0  0  0  0  0
    7.5299  -15.5257   23.9699 N   0  0  0  0  0  0  0  0  0  0  0  0
    9.0650  -16.4189   25.6159 C   0  0  0  0  0  0  0  0  0  0  0  0
    8.5087  -17.5295   25.3984 O   0  0  0  0  0  0  0  0  0  0  0  0
   10.2419  -16.4491   26.3378 O   0  0  0  0  0  0  0  0  0  0  0  0
  2  1  1  0
  3  2  2  0
  4  2  1  0
  4  5  1  0
  5  6  1  1
  7  5  1  0
  7 12  1  0
  8  7  2  0
 11 10  1  1
 10  9  1  0
 11 12  1  0
 11 13  1  0
 13 20  1  0
 14 13  2  0
 15 16  1  0
 17 16  1  0
 18 17  1  0
 19 18  1  1
 20 19  1  0
 21 19  1  0
 21 23  1  0
 22 21  2  0
M  END
$$$$
