SLN.pdb
     RDKit          3D

 23 22  0  0  1  0  0  0  0  0999 V2000
    8.8464  -18.1256   22.6691 O   0  0  0  0  0  0  0  0  0  0  0  0
    7.5799  -17.8448   22.1455 C   0  0  0  0  0  0  0  0  0  0  0  0
    7.5956  -16.4809   21.4636 C   0  0  2  0  0  0  0  0  0  0  0  0
    8.4392  -16.5130   20.2935 N   0  0  0  0  0  0  0  0  0  0  0  0
    8.0355  -15.4952   22.4653 C   0  0  0  0  0  0  0  0  0  0  0  0
    9.1794  -14.9909   22.3357 O   0  0  0  0  0  0  0  0  0  0  0  0
    7.5851  -11.2902   25.7555 C   0  0  0  0  0  0  0  0  0  0  0  0
    7.1220  -12.5781   26.4557 C   0  0  1  0  0  0  0  0  0  0  0  0
    5.9116  -12.1491   27.2949 C   0  0  0  0  0  0  0  0  0  0  0  0
    6.6510  -13.4877   25.3687 C   0  0  0  0  0  0  0  0  0  0  0  0
    7.7316  -14.1392   24.5770 C   0  0  2  0  0  0  0  0  0  0  0  0
    7.2643  -15.0642   23.5768 N   0  0  0  0  0  0  0  0  0  0  0  0
    8.5911  -14.8918   25.5253 C   0  0  0  0  0  0  0  0  0  0  0  0
    9.0903  -14.3055   26.5117 O   0  0  0  0  0  0  0  0  0  0  0  0
   11.0725  -18.3870   27.9695 N   0  0  0  0  0  0  0  0  0  0  0  0
    9.7918  -18.9485   27.6440 C   0  0  0  0  0  0  0  0  0  0  0  0
    9.4896  -20.0414   28.1547 O   0  0  0  0  0  0  0  0  0  0  0  0
    8.9232  -18.1872   26.7246 C   0  0  0  0  0  0  0  0  0  0  0  0
    9.6606  -16.9792   26.2307 C   0  0  2  0  0  0  0  0  0  0  0  0
    8.8324  -16.2749   25.2924 N   0  0  0  0  0  0  0  0  0  0  0  0
   10.9562  -17.3159   25.5840 C   0  0  0  0  0  0  0  0  0  0  0  0
   11.8697  -17.9404   26.1982 O   0  0  0  0  0  0  0  0  0  0  0  0
   11.2282  -16.9603   24.2694 O   0  0  0  0  0  0  0  0  0  0  0  0
  2  1  1  0
  3  4  1  6
  3  2  1  0
  5  3  1  0
  6  5  2  0
  8  7  1  6
  8 10  1  0
  9  8  1  0
 11 10  1  1
 11 12  1  0
 11 13  1  0
 12  5  1  0
 13 20  1  0
 14 13  2  0
 16 18  1  0
 16 15  1  0
 17 16  2  0
 19 21  1  0
 19 18  1  6
 20 19  1  0
 21 23  1  0
 22 21  2  0
M  END
$$$$
