SLN.pdb
     RDKit          3D

 23 22  0  0  1  0  0  0  0  0999 V2000
   10.3765  -19.2265   19.9489 O   0  0  0  0  0  0  0  0  0  0  0  0
    9.5762  -19.0846   18.8102 C   0  0  0  0  0  0  0  0  0  0  0  0
   10.0543  -17.8910   17.9905 C   0  0  2  0  0  0  0  0  0  0  0  0
   11.2079  -18.2516   17.2023 N   0  0  0  0  0  0  0  0  0  0  0  0
   10.3200  -16.7907   18.9324 C   0  0  0  0  0  0  0  0  0  0  0  0
   11.4849  -16.3211   18.9794 O   0  0  0  0  0  0  0  0  0  0  0  0
    6.4037  -13.0898   20.4368 C   0  0  0  0  0  0  0  0  0  0  0  0
    7.7417  -13.6107   19.8875 C   0  0  1  0  0  0  0  0  0  0  0  0
    8.5364  -12.3457   19.5391 C   0  0  0  0  0  0  0  0  0  0  0  0
    8.4139  -14.2966   21.0315 C   0  0  0  0  0  0  0  0  0  0  0  0
    9.6192  -15.0941   20.6704 C   0  0  2  0  0  0  0  0  0  0  0  0
    9.3571  -16.2117   19.8004 N   0  0  0  0  0  0  0  0  0  0  0  0
   10.1996  -15.6253   21.9296 C   0  0  0  0  0  0  0  0  0  0  0  0
   10.5470  -14.8352   22.8358 O   0  0  0  0  0  0  0  0  0  0  0  0
   11.8065  -18.5450   25.5771 N   0  0  0  0  0  0  0  0  0  0  0  0
   11.3273  -19.5120   24.6303 C   0  0  0  0  0  0  0  0  0  0  0  0
   11.3647  -20.7117   24.9555 O   0  0  0  0  0  0  0  0  0  0  0  0
   10.8234  -19.0126   23.3357 C   0  0  0  0  0  0  0  0  0  0  0  0
   10.9181  -17.5168   23.3095 C   0  0  2  0  0  0  0  0  0  0  0  0
   10.3507  -17.0321   22.0825 N   0  0  0  0  0  0  0  0  0  0  0  0
   12.3150  -17.0229   23.4318 C   0  0  0  0  0  0  0  0  0  0  0  0
   12.8421  -16.7741   24.5552 O   0  0  0  0  0  0  0  0  0  0  0  0
   13.1125  -16.8095   22.3151 O   0  0  0  0  0  0  0  0  0  0  0  0
  2  1  1  0
  3  4  1  1
  3  2  1  0
  5  3  1  0
  6  5  2  0
  8  7  1  1
  8 10  1  0
  9  8  1  0
 11 10  1  1
 11 12  1  0
 11 13  1  0
 12  5  1  0
 13 20  1  0
 14 13  2  0
 16 18  1  0
 16 15  1  0
 17 16  2  0
 19 21  1  0
 19 18  1  6
 20 19  1  0
 21 23  1  0
 22 21  2  0
M  END
$$$$
