SLN.pdb
     RDKit          3D

 23 22  0  0  1  0  0  0  0  0999 V2000
    7.4881  -17.8521   22.4080 O   0  0  0  0  0  0  0  0  0  0  0  0
    8.0592  -17.4814   21.1858 C   0  0  0  0  0  0  0  0  0  0  0  0
    7.8284  -15.9942   20.9399 C   0  0  2  0  0  0  0  0  0  0  0  0
    8.5036  -15.5725   19.7365 N   0  0  0  0  0  0  0  0  0  0  0  0
    8.2863  -15.2752   22.1406 C   0  0  0  0  0  0  0  0  0  0  0  0
    9.4695  -14.8519   22.1609 O   0  0  0  0  0  0  0  0  0  0  0  0
    7.9530  -11.3989   25.7411 C   0  0  0  0  0  0  0  0  0  0  0  0
    7.2553  -12.6629   26.2691 C   0  0  1  0  0  0  0  0  0  0  0  0
    5.9970  -12.1440   26.9768 C   0  0  0  0  0  0  0  0  0  0  0  0
    6.8389  -13.4352   25.0604 C   0  0  0  0  0  0  0  0  0  0  0  0
    7.9218  -14.2259   24.4114 C   0  0  2  0  0  0  0  0  0  0  0  0
    7.4914  -15.0190   23.2889 N   0  0  0  0  0  0  0  0  0  0  0  0
    8.4775  -15.1489   25.4331 C   0  0  0  0  0  0  0  0  0  0  0  0
    9.0518  -14.6848   26.4435 O   0  0  0  0  0  0  0  0  0  0  0  0
   12.1874  -18.8489   24.2003 N   0  0  0  0  0  0  0  0  0  0  0  0
   11.8380  -17.7006   24.9880 C   0  0  0  0  0  0  0  0  0  0  0  0
   12.5834  -17.3977   25.9362 O   0  0  0  0  0  0  0  0  0  0  0  0
   10.6165  -16.9597   24.6157 C   0  0  0  0  0  0  0  0  0  0  0  0
    9.4897  -17.3776   25.5116 C   0  0  2  0  0  0  0  0  0  0  0  0
    8.3453  -16.5529   25.2421 N   0  0  0  0  0  0  0  0  0  0  0  0
    9.8322  -17.2834   26.9552 C   0  0  0  0  0  0  0  0  0  0  0  0
    9.2552  -16.4650   27.7291 O   0  0  0  0  0  0  0  0  0  0  0  0
   10.8059  -18.0919   27.5270 O   0  0  0  0  0  0  0  0  0  0  0  0
  2  1  1  0
  3  4  1  6
  3  2  1  0
  5  3  1  0
  6  5  2  0
  8  7  1  6
  8 10  1  0
  9  8  1  0
 11 10  1  1
 11 12  1  0
 11 13  1  0
 12  5  1  0
 13 20  1  0
 14 13  2  0
 16 18  1  0
 16 15  1  0
 17 16  2  0
 19 21  1  0
 19 18  1  6
 20 19  1  0
 21 23  1  0
 22 21  2  0
M  END
$$$$
