SLN.pdb
     RDKit          3D

 23 22  0  0  1  0  0  0  0  0999 V2000
    9.3053  -19.1109   21.7155 O   0  0  0  0  0  0  0  0  0  0  0  0
    9.2262  -19.1831   20.3206 C   0  0  0  0  0  0  0  0  0  0  0  0
   10.0258  -18.0426   19.7000 C   0  0  2  0  0  0  0  0  0  0  0  0
   11.3502  -18.4917   19.3448 N   0  0  0  0  0  0  0  0  0  0  0  0
   10.0330  -16.9342   20.6694 C   0  0  0  0  0  0  0  0  0  0  0  0
   11.1415  -16.5514   21.1215 O   0  0  0  0  0  0  0  0  0  0  0  0
    6.2055  -12.9415   20.2515 C   0  0  0  0  0  0  0  0  0  0  0  0
    7.5304  -13.7210   20.2652 C   0  0  1  0  0  0  0  0  0  0  0  0
    8.5952  -12.6820   19.8910 C   0  0  0  0  0  0  0  0  0  0  0  0
    7.7461  -14.1358   21.6838 C   0  0  0  0  0  0  0  0  0  0  0  0
    8.9094  -15.0388   21.9085 C   0  0  2  0  0  0  0  0  0  0  0  0
    8.8774  -16.2563   21.1396 N   0  0  0  0  0  0  0  0  0  0  0  0
    8.9183  -15.4098   23.3461 C   0  0  0  0  0  0  0  0  0  0  0  0
    8.9782  -14.5149   24.2188 O   0  0  0  0  0  0  0  0  0  0  0  0
    5.8159  -16.8759   24.8504 N   0  0  0  0  0  0  0  0  0  0  0  0
    6.7002  -17.9579   24.5209 C   0  0  0  0  0  0  0  0  0  0  0  0
    6.4248  -18.6510   23.5258 O   0  0  0  0  0  0  0  0  0  0  0  0
    7.8755  -18.1712   25.3884 C   0  0  0  0  0  0  0  0  0  0  0  0
    8.9014  -17.1160   25.1030 C   0  0  2  0  0  0  0  0  0  0  0  0
    8.8584  -16.7853   23.7062 N   0  0  0  0  0  0  0  0  0  0  0  0
   10.2807  -17.5366   25.4646 C   0  0  0  0  0  0  0  0  0  0  0  0
   10.5893  -17.8813   26.6426 O   0  0  0  0  0  0  0  0  0  0  0  0
   11.3016  -17.5718   24.5238 O   0  0  0  0  0  0  0  0  0  0  0  0
  2  1  1  0
  3  4  1  1
  3  2  1  0
  5  3  1  0
  6  5  2  0
  8  7  1  1
  8 10  1  0
  9  8  1  0
 11 10  1  1
 11 12  1  0
 11 13  1  0
 12  5  1  0
 13 20  1  0
 14 13  2  0
 16 18  1  0
 16 15  1  0
 17 16  2  0
 19 21  1  0
 19 18  1  6
 20 19  1  0
 21 23  1  0
 22 21  2  0
M  END
$$$$
