SLN.pdb
     RDKit          3D

 23 22  0  0  1  0  0  0  0  0999 V2000
    8.0547  -17.0851   20.8509 O   0  0  0  0  0  0  0  0  0  0  0  0
    6.8563  -16.3943   21.0601 C   0  0  0  0  0  0  0  0  0  0  0  0
    7.1316  -14.8961   21.1319 C   0  0  2  0  0  0  0  0  0  0  0  0
    7.8245  -14.4544   19.9459 N   0  0  0  0  0  0  0  0  0  0  0  0
    7.8905  -14.6489   22.3694 C   0  0  0  0  0  0  0  0  0  0  0  0
    9.1433  -14.5840   22.2916 O   0  0  0  0  0  0  0  0  0  0  0  0
    5.8783  -12.1895   27.0911 C   0  0  0  0  0  0  0  0  0  0  0  0
    6.7203  -12.4711   25.8360 C   0  0  1  0  0  0  0  0  0  0  0  0
    7.8511  -11.4358   25.8877 C   0  0  0  0  0  0  0  0  0  0  0  0
    7.3078  -13.8299   26.0342 C   0  0  0  0  0  0  0  0  0  0  0  0
    8.0762  -14.3617   24.8741 C   0  0  2  0  0  0  0  0  0  0  0  0
    7.3158  -14.4763   23.6562 N   0  0  0  0  0  0  0  0  0  0  0  0
    8.5572  -15.7183   25.2383 C   0  0  0  0  0  0  0  0  0  0  0  0
    7.7543  -16.6780   25.2591 O   0  0  0  0  0  0  0  0  0  0  0  0
   10.3754  -18.0034   23.3351 N   0  0  0  0  0  0  0  0  0  0  0  0
   11.5987  -17.5190   23.9099 C   0  0  0  0  0  0  0  0  0  0  0  0
   12.4972  -17.1463   23.1351 O   0  0  0  0  0  0  0  0  0  0  0  0
   11.7032  -17.4979   25.3823 C   0  0  0  0  0  0  0  0  0  0  0  0
   10.3551  -17.2109   25.9718 C   0  0  2  0  0  0  0  0  0  0  0  0
    9.9315  -15.9022   25.5591 N   0  0  0  0  0  0  0  0  0  0  0  0
   10.3452  -17.2833   27.4567 C   0  0  0  0  0  0  0  0  0  0  0  0
   10.5557  -18.3665   28.0764 O   0  0  0  0  0  0  0  0  0  0  0  0
   10.1035  -16.1616   28.2390 O   0  0  0  0  0  0  0  0  0  0  0  0
  2  1  1  0
  3  4  1  6
  3  2  1  0
  5  3  1  0
  6  5  2  0
  8  7  1  1
  8 10  1  0
  9  8  1  0
 11 10  1  1
 11 12  1  0
 11 13  1  0
 12  5  1  0
 13 20  1  0
 14 13  2  0
 16 18  1  0
 16 15  1  0
 17 16  2  0
 19 21  1  0
 19 18  1  1
 20 19  1  0
 21 23  1  0
 22 21  2  0
M  END
$$$$
