SLN.pdb
     RDKit          3D

 23 22  0  0  1  0  0  0  0  0999 V2000
   10.1714  -19.7302   20.1724 O   0  0  0  0  0  0  0  0  0  0  0  0
    9.0775  -19.3284   19.3983 C   0  0  0  0  0  0  0  0  0  0  0  0
    9.4576  -18.1105   18.5630 C   0  0  2  0  0  0  0  0  0  0  0  0
   10.4445  -18.4677   17.5729 N   0  0  0  0  0  0  0  0  0  0  0  0
    9.9245  -17.0693   19.4937 C   0  0  0  0  0  0  0  0  0  0  0  0
   11.0963  -16.6359   19.3563 O   0  0  0  0  0  0  0  0  0  0  0  0
    6.3637  -13.2326   21.2261 C   0  0  0  0  0  0  0  0  0  0  0  0
    7.5900  -13.8957   20.5780 C   0  0  1  0  0  0  0  0  0  0  0  0
    8.3815  -12.7326   19.9664 C   0  0  0  0  0  0  0  0  0  0  0  0
    8.3842  -14.4743   21.7028 C   0  0  0  0  0  0  0  0  0  0  0  0
    9.5266  -15.3374   21.2916 C   0  0  2  0  0  0  0  0  0  0  0  0
    9.1505  -16.5097   20.5442 N   0  0  0  0  0  0  0  0  0  0  0  0
   10.2158  -15.7882   22.5270 C   0  0  0  0  0  0  0  0  0  0  0  0
   10.6960  -14.9428   23.3149 O   0  0  0  0  0  0  0  0  0  0  0  0
   13.8221  -16.9364   21.9401 N   0  0  0  0  0  0  0  0  0  0  0  0
   13.3306  -17.6117   23.1079 C   0  0  0  0  0  0  0  0  0  0  0  0
   13.7359  -18.7673   23.3247 O   0  0  0  0  0  0  0  0  0  0  0  0
   12.3775  -16.8851   23.9698 C   0  0  0  0  0  0  0  0  0  0  0  0
   11.0557  -17.5922   23.9548 C   0  0  2  0  0  0  0  0  0  0  0  0
   10.3177  -17.1826   22.7930 N   0  0  0  0  0  0  0  0  0  0  0  0
   10.2427  -17.3257   25.1706 C   0  0  0  0  0  0  0  0  0  0  0  0
   10.6789  -17.5648   26.3344 O   0  0  0  0  0  0  0  0  0  0  0  0
    8.9602  -16.7996   25.0883 O   0  0  0  0  0  0  0  0  0  0  0  0
  2  1  1  0
  3  4  1  6
  3  2  1  0
  5  3  1  0
  6  5  2  0
  8  7  1  1
  8 10  1  0
  9  8  1  0
 11 10  1  1
 11 12  1  0
 11 13  1  0
 12  5  1  0
 13 20  1  0
 14 13  2  0
 16 18  1  0
 16 15  1  0
 17 16  2  0
 19 21  1  0
 19 18  1  1
 20 19  1  0
 21 23  1  0
 22 21  2  0
M  END
$$$$
