SLN.pdb
     RDKit          3D

 23 22  0  0  1  0  0  0  0  0999 V2000
    8.8072  -17.0549   22.0000 O   0  0  0  0  0  0  0  0  0  0  0  0
    7.4371  -16.7986   21.8807 C   0  0  0  0  0  0  0  0  0  0  0  0
    7.2122  -15.3134   21.6185 C   0  0  2  0  0  0  0  0  0  0  0  0
    7.6753  -14.9597   20.2985 N   0  0  0  0  0  0  0  0  0  0  0  0
    7.8983  -14.5706   22.6890 C   0  0  0  0  0  0  0  0  0  0  0  0
    8.9458  -13.9415   22.3944 O   0  0  0  0  0  0  0  0  0  0  0  0
    5.5727  -11.8918   27.1113 C   0  0  0  0  0  0  0  0  0  0  0  0
    6.3709  -12.2006   25.8342 C   0  0  1  0  0  0  0  0  0  0  0  0
    7.2009  -10.9356   25.5807 C   0  0  0  0  0  0  0  0  0  0  0  0
    7.2979  -13.3160   26.1912 C   0  0  0  0  0  0  0  0  0  0  0  0
    8.1666  -13.7961   25.0803 C   0  0  2  0  0  0  0  0  0  0  0  0
    7.4680  -14.5070   24.0406 N   0  0  0  0  0  0  0  0  0  0  0  0
    9.1728  -14.7187   25.6641 C   0  0  0  0  0  0  0  0  0  0  0  0
    9.5349  -14.5721   26.8530 O   0  0  0  0  0  0  0  0  0  0  0  0
   10.9770  -18.5132   28.0002 N   0  0  0  0  0  0  0  0  0  0  0  0
   10.0128  -18.7664   26.9670 C   0  0  0  0  0  0  0  0  0  0  0  0
    9.7843  -19.9504   26.6628 O   0  0  0  0  0  0  0  0  0  0  0  0
    9.3598  -17.6013   26.3381 C   0  0  0  0  0  0  0  0  0  0  0  0
   10.3649  -16.8530   25.5152 C   0  0  2  0  0  0  0  0  0  0  0  0
    9.7096  -15.7590   24.8548 N   0  0  0  0  0  0  0  0  0  0  0  0
   11.0339  -17.7082   24.4998 C   0  0  0  0  0  0  0  0  0  0  0  0
   11.7700  -18.6847   24.8258 O   0  0  0  0  0  0  0  0  0  0  0  0
   10.8832  -17.4764   23.1389 O   0  0  0  0  0  0  0  0  0  0  0  0
  2  1  1  0
  3  4  1  6
  3  2  1  0
  5  3  1  0
  6  5  2  0
  8  7  1  1
  8 10  1  0
  9  8  1  0
 11 10  1  1
 11 12  1  0
 11 13  1  0
 12  5  1  0
 13 20  1  0
 14 13  2  0
 16 18  1  0
 16 15  1  0
 17 16  2  0
 19 21  1  0
 19 18  1  6
 20 19  1  0
 21 23  1  0
 22 21  2  0
M  END
$$$$
