SLN.pdb
     RDKit          3D

 23 22  0  0  1  0  0  0  0  0999 V2000
    6.6396  -18.0074   16.8151 O   0  0  0  0  0  0  0  0  0  0  0  0
    6.4900  -18.3556   18.1618 C   0  0  0  0  0  0  0  0  0  0  0  0
    7.8555  -18.6553   18.7708 C   0  0  2  0  0  0  0  0  0  0  0  0
    7.7044  -19.3214   20.0418 N   0  0  0  0  0  0  0  0  0  0  0  0
    8.5804  -17.3775   18.8716 C   0  0  0  0  0  0  0  0  0  0  0  0
    9.1919  -16.9630   17.8547 O   0  0  0  0  0  0  0  0  0  0  0  0
    6.9004  -13.1565   21.9463 C   0  0  0  0  0  0  0  0  0  0  0  0
    7.4222  -13.9055   20.7093 C   0  0  1  0  0  0  0  0  0  0  0  0
    7.4819  -12.8397   19.6076 C   0  0  0  0  0  0  0  0  0  0  0  0
    8.8161  -14.3254   21.0434 C   0  0  0  0  0  0  0  0  0  0  0  0
    9.4039  -15.3473   20.1327 C   0  0  2  0  0  0  0  0  0  0  0  0
    8.6453  -16.5679   20.0361 N   0  0  0  0  0  0  0  0  0  0  0  0
   10.7514  -15.6902   20.6533 C   0  0  0  0  0  0  0  0  0  0  0  0
   11.6466  -14.8162   20.6850 O   0  0  0  0  0  0  0  0  0  0  0  0
   14.3541  -15.4334   23.7378 N   0  0  0  0  0  0  0  0  0  0  0  0
   13.4710  -16.5634   23.8048 C   0  0  0  0  0  0  0  0  0  0  0  0
   13.8548  -17.5644   24.4351 O   0  0  0  0  0  0  0  0  0  0  0  0
   12.1677  -16.4566   23.1196 C   0  0  0  0  0  0  0  0  0  0  0  0
   12.2070  -17.2541   21.8508 C   0  0  2  0  0  0  0  0  0  0  0  0
   11.0007  -17.0152   21.1090 N   0  0  0  0  0  0  0  0  0  0  0  0
   12.3545  -18.7141   22.0889 C   0  0  0  0  0  0  0  0  0  0  0  0
   11.3569  -19.4923   22.1208 O   0  0  0  0  0  0  0  0  0  0  0  0
   13.5988  -19.2974   22.2888 O   0  0  0  0  0  0  0  0  0  0  0  0
  2  1  1  0
  3  4  1  1
  3  2  1  0
  5  3  1  0
  6  5  2  0
  8  7  1  1
  8 10  1  0
  9  8  1  0
 11 10  1  1
 11 12  1  0
 11 13  1  0
 12  5  1  0
 13 20  1  0
 14 13  2  0
 16 18  1  0
 16 15  1  0
 17 16  2  0
 19 21  1  0
 19 18  1  1
 20 19  1  0
 21 23  1  0
 22 21  2  0
M  END
$$$$
