NMN.pdb
     RDKit          3D

 25 24  0  0  1  0  0  0  0  0999 V2000
    9.1712  -13.2599   16.9934 N   0  0  0  0  0  0  0  0  0  0  0  0
    8.1156  -13.6244   17.8627 C   0  0  0  0  0  0  0  0  0  0  0  0
    7.0107  -14.0731   17.4012 O   0  0  0  0  0  0  0  0  0  0  0  0
    8.2943  -13.4832   19.3361 C   0  0  0  0  0  0  0  0  0  0  0  0
    8.4298  -14.8637   19.9938 C   0  0  2  0  0  0  0  0  0  0  0  0
    7.1689  -15.5579   19.9461 N   0  0  0  0  0  0  0  0  0  0  0  0
    8.8068  -14.6172   21.4150 C   0  0  0  0  0  0  0  0  0  0  0  0
    9.9668  -14.1985   21.6663 O   0  0  0  0  0  0  0  0  0  0  0  0
    6.5473  -11.0498   26.4502 C   0  0  0  0  0  0  0  0  0  0  0  0
    6.0683  -12.7532   26.7439 S   0  0  0  0  0  0  0  0  0  0  0  0
    7.3798  -13.8690   26.1055 C   0  0  0  0  0  0  0  0  0  0  0  0
    7.1734  -13.9737   24.6288 C   0  0  0  0  0  0  0  0  0  0  0  0
    8.2650  -14.6881   23.8865 C   0  0  2  0  0  0  0  0  0  0  0  0
    7.9351  -14.8268   22.4986 N   0  0  0  0  0  0  0  0  0  0  0  0
    8.7173  -15.9437   24.5378 C   0  0  0  0  0  0  0  0  0  0  0  0
    7.8372  -16.8320   24.6768 O   0  0  0  0  0  0  0  0  0  0  0  0
   12.9228  -17.0420   23.0495 N   0  0  0  0  0  0  0  0  0  0  0  0
   12.0200  -17.8433   23.7586 C   0  0  0  0  0  0  0  0  0  0  0  0
   11.3355  -18.7123   23.1078 O   0  0  0  0  0  0  0  0  0  0  0  0
   11.8586  -17.6991   25.2127 C   0  0  0  0  0  0  0  0  0  0  0  0
   10.4451  -17.4230   25.5938 C   0  0  2  0  0  0  0  0  0  0  0  0
   10.0169  -16.1725   24.9847 N   0  0  0  0  0  0  0  0  0  0  0  0
   10.3185  -17.2582   27.0636 C   0  0  0  0  0  0  0  0  0  0  0  0
    9.9827  -16.0003   27.5858 O   0  0  0  0  0  0  0  0  0  0  0  0
   10.4882  -18.1687   27.9095 O   0  0  0  0  0  0  0  0  0  0  0  0
  1  2  1  0
  2  3  2  0
  4  2  1  0
  5  4  1  0
  5  6  1  1
  7  8  2  0
  7  5  1  0
  9 10  1  0
 10 11  1  0
 11 12  1  0
 13 12  1  1
 13 14  1  0
 14  7  1  0
 15 13  1  0
 15 22  1  0
 16 15  2  0
 18 17  1  0
 18 20  1  0
 19 18  2  0
 21 22  1  0
 21 20  1  1
 23 21  1  0
 24 23  1  0
 25 23  2  0
M  END
$$$$
