NMN.pdb
     RDKit          3D

 25 24  0  0  1  0  0  0  0  0999 V2000
    7.2637  -12.6559   17.8017 N   0  0  0  0  0  0  0  0  0  0  0  0
    8.0305  -13.6707   18.4220 C   0  0  0  0  0  0  0  0  0  0  0  0
    8.4026  -14.7045   17.7678 O   0  0  0  0  0  0  0  0  0  0  0  0
    8.4094  -13.5326   19.8574 C   0  0  0  0  0  0  0  0  0  0  0  0
    8.3166  -14.8898   20.5687 C   0  0  2  0  0  0  0  0  0  0  0  0
    6.9584  -15.3679   20.5424 N   0  0  0  0  0  0  0  0  0  0  0  0
    8.7321  -14.6537   21.9809 C   0  0  0  0  0  0  0  0  0  0  0  0
    9.8431  -14.1037   22.1977 O   0  0  0  0  0  0  0  0  0  0  0  0
    7.1979  -11.6284   27.3961 C   0  0  0  0  0  0  0  0  0  0  0  0
    5.9063  -12.2916   26.3430 S   0  0  0  0  0  0  0  0  0  0  0  0
    6.6705  -13.0711   24.8663 C   0  0  0  0  0  0  0  0  0  0  0  0
    7.2232  -14.3863   25.3123 C   0  0  0  0  0  0  0  0  0  0  0  0
    8.3427  -14.9213   24.4676 C   0  0  2  0  0  0  0  0  0  0  0  0
    7.9488  -15.0124   23.0925 N   0  0  0  0  0  0  0  0  0  0  0  0
    8.9722  -16.1530   25.0081 C   0  0  0  0  0  0  0  0  0  0  0  0
    8.2214  -17.1597   25.0832 O   0  0  0  0  0  0  0  0  0  0  0  0
   13.1773  -16.2030   23.6208 N   0  0  0  0  0  0  0  0  0  0  0  0
   12.5353  -17.3375   24.1316 C   0  0  0  0  0  0  0  0  0  0  0  0
   12.1262  -18.2300   23.3051 O   0  0  0  0  0  0  0  0  0  0  0  0
   12.3352  -17.5084   25.5780 C   0  0  0  0  0  0  0  0  0  0  0  0
   10.8944  -17.4572   25.9531 C   0  0  2  0  0  0  0  0  0  0  0  0
   10.3003  -16.2402   25.4200 N   0  0  0  0  0  0  0  0  0  0  0  0
   10.7356  -17.4101   27.4283 C   0  0  0  0  0  0  0  0  0  0  0  0
   11.1681  -18.4993   28.1993 O   0  0  0  0  0  0  0  0  0  0  0  0
   10.2354  -16.4558   28.0705 O   0  0  0  0  0  0  0  0  0  0  0  0
  1  2  1  0
  2  3  2  0
  4  2  1  0
  5  4  1  0
  5  6  1  1
  7  8  2  0
  7  5  1  0
  9 10  1  0
 10 11  1  0
 11 12  1  0
 13 12  1  1
 13 14  1  0
 14  7  1  0
 15 13  1  0
 15 22  1  0
 16 15  2  0
 18 17  1  0
 18 20  1  0
 19 18  2  0
 21 22  1  0
 21 20  1  1
 23 21  1  0
 24 23  1  0
 25 23  2  0
M  END
$$$$
