NMN.pdb
     RDKit          3D

 25 24  0  0  1  0  0  0  0  0999 V2000
    7.2208  -12.3313   17.9377 N   0  0  0  0  0  0  0  0  0  0  0  0
    8.0311  -13.4155   18.3506 C   0  0  0  0  0  0  0  0  0  0  0  0
    8.3599  -14.3390   17.5295 O   0  0  0  0  0  0  0  0  0  0  0  0
    8.5076  -13.4819   19.7617 C   0  0  0  0  0  0  0  0  0  0  0  0
    8.2874  -14.8885   20.3357 C   0  0  2  0  0  0  0  0  0  0  0  0
    6.8854  -15.2163   20.3118 N   0  0  0  0  0  0  0  0  0  0  0  0
    8.7626  -14.8454   21.7483 C   0  0  0  0  0  0  0  0  0  0  0  0
    9.9771  -14.5989   21.9677 O   0  0  0  0  0  0  0  0  0  0  0  0
    6.0503  -10.8270   26.5812 C   0  0  0  0  0  0  0  0  0  0  0  0
    6.4362  -12.5766   26.6655 S   0  0  0  0  0  0  0  0  0  0  0  0
    6.9536  -13.1627   25.0038 C   0  0  0  0  0  0  0  0  0  0  0  0
    7.2593  -14.6197   25.1382 C   0  0  0  0  0  0  0  0  0  0  0  0
    8.3404  -15.1258   24.2282 C   0  0  2  0  0  0  0  0  0  0  0  0
    7.9263  -15.0656   22.8573 N   0  0  0  0  0  0  0  0  0  0  0  0
    8.9133  -16.4329   24.6388 C   0  0  0  0  0  0  0  0  0  0  0  0
    8.1254  -17.4124   24.5877 O   0  0  0  0  0  0  0  0  0  0  0  0
   13.1008  -17.2410   22.9616 N   0  0  0  0  0  0  0  0  0  0  0  0
   12.3089  -18.1452   23.6795 C   0  0  0  0  0  0  0  0  0  0  0  0
   11.7106  -19.0782   23.0324 O   0  0  0  0  0  0  0  0  0  0  0  0
   12.1656  -18.0351   25.1385 C   0  0  0  0  0  0  0  0  0  0  0  0
   10.7418  -17.8868   25.5508 C   0  0  2  0  0  0  0  0  0  0  0  0
   10.2281  -16.6158   25.0620 N   0  0  0  0  0  0  0  0  0  0  0  0
   10.6214  -17.8659   27.0303 C   0  0  0  0  0  0  0  0  0  0  0  0
   10.0996  -16.7260   27.6595 O   0  0  0  0  0  0  0  0  0  0  0  0
   10.9526  -18.8036   27.7948 O   0  0  0  0  0  0  0  0  0  0  0  0
  1  2  1  0
  2  3  2  0
  4  2  1  0
  5  4  1  0
  5  6  1  1
  7  8  2  0
  7  5  1  0
  9 10  1  0
 10 11  1  0
 11 12  1  0
 13 12  1  1
 13 14  1  0
 14  7  1  0
 15 13  1  0
 15 22  1  0
 16 15  2  0
 18 17  1  0
 18 20  1  0
 19 18  2  0
 21 22  1  0
 21 20  1  1
 23 21  1  0
 24 23  1  0
 25 23  2  0
M  END
$$$$
