NMN.pdb
     RDKit          3D

 25 24  0  0  1  0  0  0  0  0999 V2000
   11.0663  -18.2484   14.6103 N   0  0  0  0  0  0  0  0  0  0  0  0
   10.9818  -16.8411   14.7339 C   0  0  0  0  0  0  0  0  0  0  0  0
   11.1463  -16.0822   13.7180 O   0  0  0  0  0  0  0  0  0  0  0  0
   10.6974  -16.2356   16.0662 C   0  0  0  0  0  0  0  0  0  0  0  0
   10.5597  -17.3303   17.1336 C   0  0  2  0  0  0  0  0  0  0  0  0
    9.2474  -17.9197   17.0683 N   0  0  0  0  0  0  0  0  0  0  0  0
   10.7359  -16.6567   18.4520 C   0  0  0  0  0  0  0  0  0  0  0  0
   11.8809  -16.2399   18.7669 O   0  0  0  0  0  0  0  0  0  0  0  0
    7.1503  -11.2932   19.6857 C   0  0  0  0  0  0  0  0  0  0  0  0
    7.2773  -12.7537   20.7191 S   0  0  0  0  0  0  0  0  0  0  0  0
    8.7112  -13.7608   20.1695 C   0  0  0  0  0  0  0  0  0  0  0  0
    8.7327  -14.9830   21.0296 C   0  0  0  0  0  0  0  0  0  0  0  0
    9.8230  -15.9636   20.7087 C   0  0  2  0  0  0  0  0  0  0  0  0
    9.6893  -16.4586   19.3702 N   0  0  0  0  0  0  0  0  0  0  0  0
   10.0089  -17.0187   21.7370 C   0  0  0  0  0  0  0  0  0  0  0  0
    9.5106  -18.1406   21.4617 O   0  0  0  0  0  0  0  0  0  0  0  0
   13.6960  -20.5093   23.1133 N   0  0  0  0  0  0  0  0  0  0  0  0
   12.6110  -19.7857   22.6042 C   0  0  0  0  0  0  0  0  0  0  0  0
   11.6638  -20.4324   22.0283 O   0  0  0  0  0  0  0  0  0  0  0  0
   12.5518  -18.3218   22.7265 C   0  0  0  0  0  0  0  0  0  0  0  0
   11.4371  -17.8791   23.6101 C   0  0  2  0  0  0  0  0  0  0  0  0
   10.6805  -16.8301   22.9431 N   0  0  0  0  0  0  0  0  0  0  0  0
   11.9632  -17.3021   24.8726 C   0  0  0  0  0  0  0  0  0  0  0  0
   12.4068  -15.9714   24.8855 O   0  0  0  0  0  0  0  0  0  0  0  0
   12.0499  -17.9130   25.9647 O   0  0  0  0  0  0  0  0  0  0  0  0
  1  2  1  0
  2  3  2  0
  4  2  1  0
  5  4  1  0
  5  6  1  1
  7  8  2  0
  7  5  1  0
  9 10  1  0
 10 11  1  0
 11 12  1  0
 13 12  1  1
 13 14  1  0
 14  7  1  0
 15 13  1  0
 15 22  1  0
 16 15  2  0
 18 17  1  0
 18 20  1  0
 19 18  2  0
 21 22  1  0
 21 20  1  6
 23 21  1  0
 24 23  1  0
 25 23  2  0
M  END
$$$$
