NMN.pdb
     RDKit          3D

 25 24  0  0  1  0  0  0  0  0999 V2000
    8.1207  -17.0513   17.6388 N   0  0  0  0  0  0  0  0  0  0  0  0
    8.2303  -15.6569   17.8540 C   0  0  0  0  0  0  0  0  0  0  0  0
    7.9579  -14.8256   16.9214 O   0  0  0  0  0  0  0  0  0  0  0  0
    8.6692  -15.1507   19.1858 C   0  0  0  0  0  0  0  0  0  0  0  0
    8.2082  -16.1020   20.2989 C   0  0  2  0  0  0  0  0  0  0  0  0
    6.7695  -16.1463   20.3445 N   0  0  0  0  0  0  0  0  0  0  0  0
    8.7278  -15.5370   21.5770 C   0  0  0  0  0  0  0  0  0  0  0  0
    9.9713  -15.3971   21.7120 O   0  0  0  0  0  0  0  0  0  0  0  0
    6.3706  -12.5129   26.9392 C   0  0  0  0  0  0  0  0  0  0  0  0
    6.7752  -11.5165   25.5038 S   0  0  0  0  0  0  0  0  0  0  0  0
    7.4419  -12.6029   24.1818 C   0  0  0  0  0  0  0  0  0  0  0  0
    7.4143  -13.9981   24.7176 C   0  0  0  0  0  0  0  0  0  0  0  0
    8.3158  -14.9662   24.0083 C   0  0  2  0  0  0  0  0  0  0  0  0
    7.9031  -15.1484   22.6478 N   0  0  0  0  0  0  0  0  0  0  0  0
    8.5507  -16.2297   24.7524 C   0  0  0  0  0  0  0  0  0  0  0  0
    7.6184  -17.0729   24.7006 O   0  0  0  0  0  0  0  0  0  0  0  0
   11.3934  -20.3583   25.6987 N   0  0  0  0  0  0  0  0  0  0  0  0
   11.5128  -19.6208   24.5147 C   0  0  0  0  0  0  0  0  0  0  0  0
   12.1432  -20.1484   23.5291 O   0  0  0  0  0  0  0  0  0  0  0  0
   10.9297  -18.2763   24.3972 C   0  0  0  0  0  0  0  0  0  0  0  0
   10.2368  -17.8561   25.6472 C   0  0  2  0  0  0  0  0  0  0  0  0
    9.7073  -16.5113   25.4763 N   0  0  0  0  0  0  0  0  0  0  0  0
   11.1877  -17.8091   26.7861 C   0  0  0  0  0  0  0  0  0  0  0  0
   12.2288  -16.8691   26.7714 O   0  0  0  0  0  0  0  0  0  0  0  0
   11.1449  -18.5551   27.7936 O   0  0  0  0  0  0  0  0  0  0  0  0
  1  2  1  0
  2  3  2  0
  4  2  1  0
  5  4  1  0
  5  6  1  1
  7  8  2  0
  7  5  1  0
  9 10  1  0
 10 11  1  0
 11 12  1  0
 13 12  1  1
 13 14  1  0
 14  7  1  0
 15 13  1  0
 15 22  1  0
 16 15  2  0
 18 17  1  0
 18 20  1  0
 19 18  2  0
 21 22  1  0
 21 20  1  6
 23 21  1  0
 24 23  1  0
 25 23  2  0
M  END
$$$$
