NMN.pdb
     RDKit          3D

 25 24  0  0  1  0  0  0  0  0999 V2000
    8.8757  -12.8015   17.4361 N   0  0  0  0  0  0  0  0  0  0  0  0
    8.1958  -13.6797   18.3131 C   0  0  0  0  0  0  0  0  0  0  0  0
    7.5087  -14.6581   17.8596 O   0  0  0  0  0  0  0  0  0  0  0  0
    8.2820  -13.4611   19.7854 C   0  0  0  0  0  0  0  0  0  0  0  0
    8.8951  -14.6885   20.4740 C   0  0  2  0  0  0  0  0  0  0  0  0
    8.0369  -15.8315   20.2990 N   0  0  0  0  0  0  0  0  0  0  0  0
    8.9873  -14.3548   21.9242 C   0  0  0  0  0  0  0  0  0  0  0  0
    9.8316  -13.4971   22.2922 O   0  0  0  0  0  0  0  0  0  0  0  0
    7.5008  -11.6286   28.0945 C   0  0  0  0  0  0  0  0  0  0  0  0
    7.5878  -12.2026   26.3974 S   0  0  0  0  0  0  0  0  0  0  0  0
    6.8805  -13.8942   26.2939 C   0  0  0  0  0  0  0  0  0  0  0  0
    6.8976  -14.2794   24.8497 C   0  0  0  0  0  0  0  0  0  0  0  0
    8.2412  -14.6880   24.3198 C   0  0  2  0  0  0  0  0  0  0  0  0
    8.1795  -14.9469   22.9114 N   0  0  0  0  0  0  0  0  0  0  0  0
    8.9038  -15.7557   25.1112 C   0  0  0  0  0  0  0  0  0  0  0  0
    9.0157  -15.5294   26.3437 O   0  0  0  0  0  0  0  0  0  0  0  0
    9.6477  -19.5982   22.2066 N   0  0  0  0  0  0  0  0  0  0  0  0
    9.5097  -19.5875   23.5997 C   0  0  0  0  0  0  0  0  0  0  0  0
    8.4366  -20.0733   24.1094 O   0  0  0  0  0  0  0  0  0  0  0  0
   10.5659  -19.0377   24.4619 C   0  0  0  0  0  0  0  0  0  0  0  0
   10.0513  -17.9710   25.3656 C   0  0  2  0  0  0  0  0  0  0  0  0
    9.3884  -16.9460   24.5731 N   0  0  0  0  0  0  0  0  0  0  0  0
   11.1666  -17.3100   26.0887 C   0  0  0  0  0  0  0  0  0  0  0  0
   11.4190  -17.6575   27.4240 O   0  0  0  0  0  0  0  0  0  0  0  0
   11.9297  -16.4423   25.6007 O   0  0  0  0  0  0  0  0  0  0  0  0
  1  2  1  0
  2  3  2  0
  4  2  1  0
  5  4  1  0
  5  6  1  1
  7  8  2  0
  7  5  1  0
  9 10  1  0
 10 11  1  0
 11 12  1  0
 13 12  1  1
 13 14  1  0
 14  7  1  0
 15 13  1  0
 15 22  1  0
 16 15  2  0
 18 17  1  0
 18 20  1  0
 19 18  2  0
 21 22  1  0
 21 20  1  6
 23 21  1  0
 24 23  1  0
 25 23  2  0
M  END
$$$$
