NMN.pdb
     RDKit          3D

 25 24  0  0  1  0  0  0  0  0999 V2000
    8.8627  -12.9221   16.8097 N   0  0  0  0  0  0  0  0  0  0  0  0
    8.0945  -13.6704   17.7331 C   0  0  0  0  0  0  0  0  0  0  0  0
    7.2461  -14.5379   17.3299 O   0  0  0  0  0  0  0  0  0  0  0  0
    8.2770  -13.4440   19.1954 C   0  0  0  0  0  0  0  0  0  0  0  0
    8.7502  -14.7329   19.8819 C   0  0  2  0  0  0  0  0  0  0  0  0
    7.7564  -15.7642   19.7323 N   0  0  0  0  0  0  0  0  0  0  0  0
    8.9109  -14.4048   21.3274 C   0  0  0  0  0  0  0  0  0  0  0  0
    9.9910  -13.8842   21.7101 O   0  0  0  0  0  0  0  0  0  0  0  0
    6.8503  -11.3530   27.8686 C   0  0  0  0  0  0  0  0  0  0  0  0
    6.6358  -11.6986   26.1217 S   0  0  0  0  0  0  0  0  0  0  0  0
    7.1362  -13.4326   25.7822 C   0  0  0  0  0  0  0  0  0  0  0  0
    7.0395  -13.6259   24.3031 C   0  0  0  0  0  0  0  0  0  0  0  0
    8.0793  -14.5344   23.7145 C   0  0  2  0  0  0  0  0  0  0  0  0
    7.9185  -14.6450   22.2944 N   0  0  0  0  0  0  0  0  0  0  0  0
    8.2148  -15.8345   24.4193 C   0  0  0  0  0  0  0  0  0  0  0  0
    7.3250  -16.6867   24.1648 O   0  0  0  0  0  0  0  0  0  0  0  0
   12.6257  -19.2556   24.0155 N   0  0  0  0  0  0  0  0  0  0  0  0
   11.2676  -19.0964   24.3155 C   0  0  0  0  0  0  0  0  0  0  0  0
   10.5971  -20.1310   24.6724 O   0  0  0  0  0  0  0  0  0  0  0  0
   10.6215  -17.7787   24.2286 C   0  0  0  0  0  0  0  0  0  0  0  0
    9.8172  -17.4691   25.4437 C   0  0  2  0  0  0  0  0  0  0  0  0
    9.2388  -16.1400   25.3133 N   0  0  0  0  0  0  0  0  0  0  0  0
   10.6764  -17.4541   26.6542 C   0  0  0  0  0  0  0  0  0  0  0  0
   11.2994  -16.2572   27.0378 O   0  0  0  0  0  0  0  0  0  0  0  0
   10.9036  -18.4438   27.3905 O   0  0  0  0  0  0  0  0  0  0  0  0
  1  2  1  0
  2  3  2  0
  4  2  1  0
  5  4  1  0
  5  6  1  1
  7  8  2  0
  7  5  1  0
  9 10  1  0
 10 11  1  0
 11 12  1  0
 13 12  1  1
 13 14  1  0
 14  7  1  0
 15 13  1  0
 15 22  1  0
 16 15  2  0
 18 17  1  0
 18 20  1  0
 19 18  2  0
 21 22  1  0
 21 20  1  6
 23 21  1  0
 24 23  1  0
 25 23  2  0
M  END
$$$$
