NMN.pdb
     RDKit          3D

 25 24  0  0  1  0  0  0  0  0999 V2000
   11.4160  -18.3139   19.2549 N   0  0  0  0  0  0  0  0  0  0  0  0
   10.8314  -17.0260   19.3022 C   0  0  0  0  0  0  0  0  0  0  0  0
   10.2968  -16.5094   18.2618 O   0  0  0  0  0  0  0  0  0  0  0  0
   10.8391  -16.2615   20.5821 C   0  0  0  0  0  0  0  0  0  0  0  0
    9.7927  -16.8292   21.5513 C   0  0  2  0  0  0  0  0  0  0  0  0
    8.4690  -16.6232   21.0230 N   0  0  0  0  0  0  0  0  0  0  0  0
    9.9425  -16.0684   22.8247 C   0  0  0  0  0  0  0  0  0  0  0  0
   11.0971  -15.9124   23.3006 O   0  0  0  0  0  0  0  0  0  0  0  0
    6.7384  -11.0474   25.6100 C   0  0  0  0  0  0  0  0  0  0  0  0
    6.2702  -12.4414   26.6369 S   0  0  0  0  0  0  0  0  0  0  0  0
    7.6067  -13.7001   26.5940 C   0  0  0  0  0  0  0  0  0  0  0  0
    7.7051  -14.1741   25.1799 C   0  0  0  0  0  0  0  0  0  0  0  0
    8.8823  -15.0591   24.8897 C   0  0  2  0  0  0  0  0  0  0  0  0
    8.8607  -15.5111   23.5296 N   0  0  0  0  0  0  0  0  0  0  0  0
    9.0899  -16.1362   25.8906 C   0  0  0  0  0  0  0  0  0  0  0  0
    8.1664  -16.9865   25.9744 O   0  0  0  0  0  0  0  0  0  0  0  0
   12.8223  -16.1659   26.9929 N   0  0  0  0  0  0  0  0  0  0  0  0
   12.6951  -17.5447   26.7861 C   0  0  0  0  0  0  0  0  0  0  0  0
   13.6899  -18.1794   26.2813 O   0  0  0  0  0  0  0  0  0  0  0  0
   11.4564  -18.2531   27.1397 C   0  0  0  0  0  0  0  0  0  0  0  0
   10.4112  -17.3269   27.6585 C   0  0  2  0  0  0  0  0  0  0  0  0
   10.2131  -16.2426   26.7082 N   0  0  0  0  0  0  0  0  0  0  0  0
   10.8415  -16.7115   28.9390 C   0  0  0  0  0  0  0  0  0  0  0  0
   10.8863  -15.3136   29.0467 O   0  0  0  0  0  0  0  0  0  0  0  0
   11.1786  -17.3456   29.9675 O   0  0  0  0  0  0  0  0  0  0  0  0
  1  2  1  0
  2  3  2  0
  4  2  1  0
  5  4  1  0
  5  6  1  6
  7  8  2  0
  7  5  1  0
  9 10  1  0
 10 11  1  0
 11 12  1  0
 13 12  1  1
 13 14  1  0
 14  7  1  0
 15 13  1  0
 15 22  1  0
 16 15  2  0
 18 17  1  0
 18 20  1  0
 19 18  2  0
 21 22  1  0
 21 20  1  6
 23 21  1  0
 24 23  1  0
 25 23  2  0
M  END
$$$$
