NMN.pdb
     RDKit          3D

 25 24  0  0  1  0  0  0  0  0999 V2000
    7.7816  -15.2723   17.4049 N   0  0  0  0  0  0  0  0  0  0  0  0
    7.9344  -13.9502   17.8861 C   0  0  0  0  0  0  0  0  0  0  0  0
    7.8552  -12.9501   17.0934 O   0  0  0  0  0  0  0  0  0  0  0  0
    8.1913  -13.7208   19.3367 C   0  0  0  0  0  0  0  0  0  0  0  0
    8.2122  -15.0556   20.0946 C   0  0  2  0  0  0  0  0  0  0  0  0
    6.8871  -15.6177   20.1390 N   0  0  0  0  0  0  0  0  0  0  0  0
    8.6660  -14.7453   21.4805 C   0  0  0  0  0  0  0  0  0  0  0  0
    9.8511  -14.3586   21.6535 O   0  0  0  0  0  0  0  0  0  0  0  0
    6.7739  -11.1161   26.6753 C   0  0  0  0  0  0  0  0  0  0  0  0
    6.2670  -12.8084   26.9852 S   0  0  0  0  0  0  0  0  0  0  0  0
    7.5061  -13.9535   26.2601 C   0  0  0  0  0  0  0  0  0  0  0  0
    7.2109  -14.0356   24.7971 C   0  0  0  0  0  0  0  0  0  0  0  0
    8.2581  -14.7328   23.9785 C   0  0  2  0  0  0  0  0  0  0  0  0
    7.8406  -14.8602   22.6132 N   0  0  0  0  0  0  0  0  0  0  0  0
    8.7613  -15.9911   24.5858 C   0  0  0  0  0  0  0  0  0  0  0  0
    7.9274  -16.9300   24.6618 O   0  0  0  0  0  0  0  0  0  0  0  0
   11.6021  -18.3037   23.0402 N   0  0  0  0  0  0  0  0  0  0  0  0
   12.2792  -17.5007   23.9658 C   0  0  0  0  0  0  0  0  0  0  0  0
   13.1723  -16.6888   23.5297 O   0  0  0  0  0  0  0  0  0  0  0  0
   11.9761  -17.5795   25.4022 C   0  0  0  0  0  0  0  0  0  0  0  0
   10.5226  -17.4035   25.6775 C   0  0  2  0  0  0  0  0  0  0  0  0
   10.0601  -16.1710   25.0570 N   0  0  0  0  0  0  0  0  0  0  0  0
   10.2742  -17.2778   27.1356 C   0  0  0  0  0  0  0  0  0  0  0  0
   10.4835  -18.3896   27.9649 O   0  0  0  0  0  0  0  0  0  0  0  0
    9.8828  -16.2359   27.7141 O   0  0  0  0  0  0  0  0  0  0  0  0
  1  2  1  0
  2  3  2  0
  4  2  1  0
  5  4  1  0
  5  6  1  1
  7  8  2  0
  7  5  1  0
  9 10  1  0
 10 11  1  0
 11 12  1  0
 13 12  1  1
 13 14  1  0
 14  7  1  0
 15 13  1  0
 15 22  1  0
 16 15  2  0
 18 17  1  0
 18 20  1  0
 19 18  2  0
 21 22  1  0
 21 20  1  1
 23 21  1  0
 24 23  1  0
 25 23  2  0
M  END
$$$$
