ALF.pdb
     RDKit          3D

 25 25  0  0  1  0  0  0  0  0999 V2000
   25.6665  -20.6067   -6.6360 C   0  0  0  0  0  0  0  0  0  0  0  0
   26.8610  -20.0087   -7.3054 C   0  0  2  0  0  0  0  0  0  0  0  0
   27.1416  -18.6845   -6.7747 N   0  0  0  0  0  0  0  0  0  0  0  0
   26.7280  -19.9778   -8.7873 C   0  0  0  0  0  0  0  0  0  0  0  0
   26.1409  -19.0016   -9.3020 O   0  0  0  0  0  0  0  0  0  0  0  0
   30.7848  -22.2730  -11.5852 C   0  0  0  0  0  0  0  0  0  0  0  0
   29.6953  -21.3769  -11.0229 C   0  0  1  0  0  0  0  0  0  0  0  0
   30.0821  -19.9617  -11.4836 C   0  0  0  0  0  0  0  0  0  0  0  0
   28.3664  -21.7613  -11.6133 C   0  0  0  0  0  0  0  0  0  0  0  0
   27.2420  -20.9582  -11.0615 C   0  0  2  0  0  0  0  0  0  0  0  0
   27.2368  -20.9980   -9.5943 N   0  0  0  0  0  0  0  0  0  0  0  0
   25.9090  -21.3734  -11.5761 C   0  0  0  0  0  0  0  0  0  0  0  0
   25.3750  -22.4397  -11.2664 O   0  0  0  0  0  0  0  0  0  0  0  0
   25.1815  -20.5182  -12.4766 N   0  0  0  0  0  0  0  0  0  0  0  0
   23.8365  -20.8398  -12.9094 C   0  0  1  0  0  0  0  0  0  0  0  0
   22.8651  -20.0888  -12.0592 C   0  0  0  0  0  0  0  0  0  0  0  0
   22.2787  -20.8390  -10.9563 C   0  0  0  0  0  0  0  0  0  0  0  0
   21.2515  -21.7626  -11.1500 C   0  0  0  0  0  0  0  0  0  0  0  0
   20.7724  -22.4137  -10.0466 C   0  0  0  0  0  0  0  0  0  0  0  0
   21.2830  -22.1697   -8.7846 C   0  0  0  0  0  0  0  0  0  0  0  0
   22.2914  -21.2669   -8.5740 C   0  0  0  0  0  0  0  0  0  0  0  0
   22.7822  -20.6044   -9.6801 C   0  0  0  0  0  0  0  0  0  0  0  0
   23.7208  -20.5887  -14.3419 C   0  0  0  0  0  0  0  0  0  0  0  0
   22.6916  -21.0939  -15.1280 O   0  0  0  0  0  0  0  0  0  0  0  0
   24.5762  -19.8838  -14.9343 O   0  0  0  0  0  0  0  0  0  0  0  0
  2  1  1  1
  2  4  1  0
  3  2  1  0
  4 11  1  0
  4  5  2  0
  7  6  1  6
  7  8  1  0
  9  7  1  0
 10  9  1  6
 11 10  1  0
 12 10  1  0
 12 13  2  0
 14 12  1  0
 15 14  1  0
 15 16  1  1
 17 16  1  0
 17 18  2  0
 19 18  1  0
 20 19  2  0
 21 22  2  0
 21 20  1  0
 22 17  1  0
 23 15  1  0
 24 23  1  0
 25 23  2  0
M  END
$$$$
