ALF.pdb
     RDKit          3D

 25 25  0  0  1  0  0  0  0  0999 V2000
   19.4111   -9.9968  -19.6106 C   0  0  0  0  0  0  0  0  0  0  0  0
   20.0724   -8.8412  -18.9325 C   0  0  2  0  0  0  0  0  0  0  0  0
   20.9595   -8.1432  -19.8489 N   0  0  0  0  0  0  0  0  0  0  0  0
   20.7882   -9.2423  -17.6910 C   0  0  0  0  0  0  0  0  0  0  0  0
   20.1188   -9.7589  -16.7703 O   0  0  0  0  0  0  0  0  0  0  0  0
   24.5026  -11.4152  -14.7011 C   0  0  0  0  0  0  0  0  0  0  0  0
   25.0292  -10.1281  -15.3112 C   0  0  1  0  0  0  0  0  0  0  0  0
   26.4967  -10.4341  -15.6537 C   0  0  0  0  0  0  0  0  0  0  0  0
   24.2659   -9.8125  -16.5683 C   0  0  0  0  0  0  0  0  0  0  0  0
   22.8947   -9.3052  -16.2923 C   0  0  2  0  0  0  0  0  0  0  0  0
   22.1644   -9.0558  -17.5408 N   0  0  0  0  0  0  0  0  0  0  0  0
   22.8752   -8.0787  -15.4500 C   0  0  0  0  0  0  0  0  0  0  0  0
   23.1486   -8.0878  -14.2486 O   0  0  0  0  0  0  0  0  0  0  0  0
   22.5269   -6.8078  -16.0288 N   0  0  0  0  0  0  0  0  0  0  0  0
   22.5744   -5.5827  -15.2563 C   0  0  1  0  0  0  0  0  0  0  0  0
   23.1997   -4.5125  -16.0895 C   0  0  0  0  0  0  0  0  0  0  0  0
   22.4156   -4.0619  -17.2319 C   0  0  0  0  0  0  0  0  0  0  0  0
   21.4745   -3.0374  -17.1287 C   0  0  0  0  0  0  0  0  0  0  0  0
   20.7928   -2.6907  -18.2626 C   0  0  0  0  0  0  0  0  0  0  0  0
   21.0234   -3.3279  -19.4683 C   0  0  0  0  0  0  0  0  0  0  0  0
   21.9430   -4.3359  -19.5899 C   0  0  0  0  0  0  0  0  0  0  0  0
   22.6365   -4.6937  -18.4523 C   0  0  0  0  0  0  0  0  0  0  0  0
   21.2362   -5.2743  -14.7637 C   0  0  0  0  0  0  0  0  0  0  0  0
   20.0909   -5.9364  -15.1907 O   0  0  0  0  0  0  0  0  0  0  0  0
   21.0671   -4.3694  -13.9082 O   0  0  0  0  0  0  0  0  0  0  0  0
  2  1  1  6
  2  4  1  0
  3  2  1  0
  4 11  1  0
  4  5  2  0
  7  6  1  6
  7  8  1  0
  9  7  1  0
 10  9  1  6
 11 10  1  0
 12 10  1  0
 12 13  2  0
 14 12  1  0
 15 14  1  0
 15 16  1  6
 17 16  1  0
 17 18  2  0
 19 18  1  0
 20 19  2  0
 21 22  2  0
 21 20  1  0
 22 17  1  0
 23 15  1  0
 24 23  1  0
 25 23  2  0
M  END
$$$$
