ALF.pdb
     RDKit          3D

 25 25  0  0  1  0  0  0  0  0999 V2000
   23.8130    2.6835  -15.9813 C   0  0  0  0  0  0  0  0  0  0  0  0
   23.2643    1.9585  -14.7955 C   0  0  2  0  0  0  0  0  0  0  0  0
   21.8115    1.9223  -14.8390 N   0  0  0  0  0  0  0  0  0  0  0  0
   23.7504    2.5231  -13.5073 C   0  0  0  0  0  0  0  0  0  0  0  0
   24.9856    2.5901  -13.3266 O   0  0  0  0  0  0  0  0  0  0  0  0
   23.6497    6.2279   -9.6455 C   0  0  0  0  0  0  0  0  0  0  0  0
   22.6680    5.0967   -9.3944 C   0  0  1  0  0  0  0  0  0  0  0  0
   21.4534    5.7762   -8.7405 C   0  0  0  0  0  0  0  0  0  0  0  0
   22.2632    4.4756  -10.7032 C   0  0  0  0  0  0  0  0  0  0  0  0
   23.2971    3.5507  -11.2409 C   0  0  2  0  0  0  0  0  0  0  0  0
   22.8698    2.9692  -12.5191 N   0  0  0  0  0  0  0  0  0  0  0  0
   23.6664    2.4616  -10.2967 C   0  0  0  0  0  0  0  0  0  0  0  0
   22.9070    1.5324  -10.0173 O   0  0  0  0  0  0  0  0  0  0  0  0
   24.9585    2.4595   -9.6627 N   0  0  0  0  0  0  0  0  0  0  0  0
   25.3554    1.4057   -8.7507 C   0  0  1  0  0  0  0  0  0  0  0  0
   26.6531    0.8309   -9.2154 C   0  0  0  0  0  0  0  0  0  0  0  0
   27.2543   -0.1641   -8.3370 C   0  0  0  0  0  0  0  0  0  0  0  0
   28.2206    0.1701   -7.3882 C   0  0  0  0  0  0  0  0  0  0  0  0
   28.7199   -0.8404   -6.6135 C   0  0  0  0  0  0  0  0  0  0  0  0
   28.2870   -2.1458   -6.7607 C   0  0  0  0  0  0  0  0  0  0  0  0
   27.3393   -2.4940   -7.6864 C   0  0  0  0  0  0  0  0  0  0  0  0
   26.8288   -1.4823   -8.4732 C   0  0  0  0  0  0  0  0  0  0  0  0
   25.3683    1.9296   -7.3892 C   0  0  0  0  0  0  0  0  0  0  0  0
   25.8791    3.1781   -7.0532 O   0  0  0  0  0  0  0  0  0  0  0  0
   24.9028    1.2477   -6.4417 O   0  0  0  0  0  0  0  0  0  0  0  0
  2  1  1  6
  2  4  1  0
  3  2  1  0
  4 11  1  0
  4  5  2  0
  7  6  1  6
  7  8  1  0
  9  7  1  0
 10  9  1  1
 11 10  1  0
 12 10  1  0
 12 13  2  0
 14 12  1  0
 15 14  1  0
 15 16  1  6
 17 16  1  0
 17 18  2  0
 19 18  1  0
 20 19  2  0
 21 22  2  0
 21 20  1  0
 22 17  1  0
 23 15  1  0
 24 23  1  0
 25 23  2  0
M  END
$$$$
