ALF.pdb
     RDKit          3D

 25 25  0  0  1  0  0  0  0  0999 V2000
   17.1315   -3.5265  -14.2010 C   0  0  0  0  0  0  0  0  0  0  0  0
   18.1350   -4.2564  -15.0334 C   0  0  2  0  0  0  0  0  0  0  0  0
   17.8304   -4.1189  -16.4484 N   0  0  0  0  0  0  0  0  0  0  0  0
   18.2631   -5.6878  -14.6469 C   0  0  0  0  0  0  0  0  0  0  0  0
   17.3861   -6.4831  -15.0479 O   0  0  0  0  0  0  0  0  0  0  0  0
   20.7543  -10.3110  -13.8825 C   0  0  0  0  0  0  0  0  0  0  0  0
   21.1182   -9.3064  -12.8033 C   0  0  1  0  0  0  0  0  0  0  0  0
   22.6117   -9.5529  -12.5328 C   0  0  0  0  0  0  0  0  0  0  0  0
   20.9165   -7.9088  -13.3215 C   0  0  0  0  0  0  0  0  0  0  0  0
   19.4788   -7.5404  -13.4273 C   0  0  2  0  0  0  0  0  0  0  0  0
   19.3229   -6.1470  -13.8614 N   0  0  0  0  0  0  0  0  0  0  0  0
   18.7173   -7.7582  -12.1677 C   0  0  0  0  0  0  0  0  0  0  0  0
   18.8380   -7.0327  -11.1791 O   0  0  0  0  0  0  0  0  0  0  0  0
   17.7898   -8.8536  -12.0619 N   0  0  0  0  0  0  0  0  0  0  0  0
   16.9109   -8.9972  -10.9187 C   0  0  1  0  0  0  0  0  0  0  0  0
   16.1667   -7.7176  -10.7204 C   0  0  0  0  0  0  0  0  0  0  0  0
   15.1923   -7.7146   -9.6371 C   0  0  0  0  0  0  0  0  0  0  0  0
   13.8740   -8.1306   -9.8233 C   0  0  0  0  0  0  0  0  0  0  0  0
   13.0404   -8.0889   -8.7397 C   0  0  0  0  0  0  0  0  0  0  0  0
   13.4822   -7.6518   -7.5040 C   0  0  0  0  0  0  0  0  0  0  0  0
   14.7726   -7.2394   -7.3011 C   0  0  0  0  0  0  0  0  0  0  0  0
   15.6220   -7.2774   -8.3875 C   0  0  0  0  0  0  0  0  0  0  0  0
   16.0695  -10.1743  -11.1057 C   0  0  0  0  0  0  0  0  0  0  0  0
   15.6739  -11.0067  -10.0650 O   0  0  0  0  0  0  0  0  0  0  0  0
   15.6600  -10.4868  -12.2520 O   0  0  0  0  0  0  0  0  0  0  0  0
  2  1  1  1
  2  4  1  0
  3  2  1  0
  4 11  1  0
  4  5  2  0
  7  6  1  6
  7  8  1  0
  9  7  1  0
 10  9  1  1
 11 10  1  0
 12 10  1  0
 12 13  2  0
 14 12  1  0
 15 14  1  0
 15 16  1  6
 17 16  1  0
 17 18  2  0
 19 18  1  0
 20 19  2  0
 21 22  2  0
 21 20  1  0
 22 17  1  0
 23 15  1  0
 24 23  1  0
 25 23  2  0
M  END
$$$$
