ALF.pdb
     RDKit          3D

 25 25  0  0  1  0  0  0  0  0999 V2000
   21.5778   -9.3688  -21.3013 C   0  0  0  0  0  0  0  0  0  0  0  0
   20.4192   -9.9416  -20.5514 C   0  0  2  0  0  0  0  0  0  0  0  0
   19.1896   -9.8008  -21.3144 N   0  0  0  0  0  0  0  0  0  0  0  0
   20.2774   -9.3587  -19.1895 C   0  0  0  0  0  0  0  0  0  0  0  0
   19.9315   -8.1609  -19.0986 O   0  0  0  0  0  0  0  0  0  0  0  0
   18.6505  -12.6201  -15.0245 C   0  0  0  0  0  0  0  0  0  0  0  0
   18.8030  -11.4688  -16.0030 C   0  0  1  0  0  0  0  0  0  0  0  0
   17.5986  -10.5563  -15.7179 C   0  0  0  0  0  0  0  0  0  0  0  0
   20.0823  -10.7293  -15.7219 C   0  0  0  0  0  0  0  0  0  0  0  0
   20.3158   -9.6091  -16.6729 C   0  0  2  0  0  0  0  0  0  0  0  0
   20.5189  -10.1105  -18.0373 N   0  0  0  0  0  0  0  0  0  0  0  0
   21.4561   -8.7339  -16.2887 C   0  0  0  0  0  0  0  0  0  0  0  0
   22.6176   -8.9589  -16.6329 O   0  0  0  0  0  0  0  0  0  0  0  0
   21.2315   -7.5642  -15.4807 N   0  0  0  0  0  0  0  0  0  0  0  0
   22.2731   -6.5808  -15.2616 C   0  0  1  0  0  0  0  0  0  0  0  0
   22.7166   -6.0471  -16.5841 C   0  0  0  0  0  0  0  0  0  0  0  0
   23.6747   -4.9505  -16.5339 C   0  0  0  0  0  0  0  0  0  0  0  0
   25.0320   -5.1610  -16.2911 C   0  0  0  0  0  0  0  0  0  0  0  0
   25.8460   -4.0622  -16.2654 C   0  0  0  0  0  0  0  0  0  0  0  0
   25.3480   -2.7884  -16.4718 C   0  0  0  0  0  0  0  0  0  0  0  0
   24.0187   -2.5612  -16.7116 C   0  0  0  0  0  0  0  0  0  0  0  0
   23.1885   -3.6626  -16.7397 C   0  0  0  0  0  0  0  0  0  0  0  0
   21.7913   -5.5731  -14.3231 C   0  0  0  0  0  0  0  0  0  0  0  0
   20.4444   -5.3559  -14.0563 O   0  0  0  0  0  0  0  0  0  0  0  0
   22.6043   -4.8423  -13.7030 O   0  0  0  0  0  0  0  0  0  0  0  0
  2  1  1  6
  2  4  1  0
  3  2  1  0
  4 11  1  0
  4  5  2  0
  7  6  1  1
  7  8  1  0
  9  7  1  0
 10  9  1  1
 11 10  1  0
 12 10  1  0
 12 13  2  0
 14 12  1  0
 15 14  1  0
 15 16  1  6
 17 16  1  0
 17 18  2  0
 19 18  1  0
 20 19  2  0
 21 22  2  0
 21 20  1  0
 22 17  1  0
 23 15  1  0
 24 23  1  0
 25 23  2  0
M  END
$$$$
