ALF.pdb
     RDKit          3D

 25 25  0  0  1  0  0  0  0  0999 V2000
   26.1008  -20.1224  -17.3347 C   0  0  0  0  0  0  0  0  0  0  0  0
   26.9058  -20.7927  -16.2692 C   0  0  2  0  0  0  0  0  0  0  0  0
   27.6927  -21.8819  -16.8246 N   0  0  0  0  0  0  0  0  0  0  0  0
   26.0686  -21.2594  -15.1309 C   0  0  0  0  0  0  0  0  0  0  0  0
   25.4030  -22.3064  -15.2844 O   0  0  0  0  0  0  0  0  0  0  0  0
   25.4035  -22.0373   -9.7124 C   0  0  0  0  0  0  0  0  0  0  0  0
   24.9027  -20.7329  -10.3074 C   0  0  1  0  0  0  0  0  0  0  0  0
   25.1146  -19.6932   -9.1944 C   0  0  0  0  0  0  0  0  0  0  0  0
   25.7319  -20.3714  -11.5092 C   0  0  0  0  0  0  0  0  0  0  0  0
   25.2226  -20.9909  -12.7624 C   0  0  2  0  0  0  0  0  0  0  0  0
   26.0152  -20.5630  -13.9212 N   0  0  0  0  0  0  0  0  0  0  0  0
   23.7820  -20.7174  -13.0154 C   0  0  0  0  0  0  0  0  0  0  0  0
   23.3553  -19.6002  -13.3120 O   0  0  0  0  0  0  0  0  0  0  0  0
   22.8151  -21.7791  -12.9190 N   0  0  0  0  0  0  0  0  0  0  0  0
   21.3947  -21.5279  -13.0580 C   0  0  1  0  0  0  0  0  0  0  0  0
   20.6851  -22.8358  -13.1857 C   0  0  0  0  0  0  0  0  0  0  0  0
   19.2325  -22.7611  -13.2704 C   0  0  0  0  0  0  0  0  0  0  0  0
   18.4178  -22.8407  -12.1410 C   0  0  0  0  0  0  0  0  0  0  0  0
   17.0658  -22.7590  -12.3314 C   0  0  0  0  0  0  0  0  0  0  0  0
   16.5215  -22.6032  -13.5933 C   0  0  0  0  0  0  0  0  0  0  0  0
   17.3045  -22.5230  -14.7144 C   0  0  0  0  0  0  0  0  0  0  0  0
   18.6698  -22.6043  -14.5338 C   0  0  0  0  0  0  0  0  0  0  0  0
   20.9453  -20.6909  -11.9508 C   0  0  0  0  0  0  0  0  0  0  0  0
   21.3417  -20.8857  -10.6327 O   0  0  0  0  0  0  0  0  0  0  0  0
   20.1580  -19.7333  -12.1573 O   0  0  0  0  0  0  0  0  0  0  0  0
  2  1  1  6
  2  4  1  0
  3  2  1  0
  4 11  1  0
  4  5  2  0
  7  6  1  1
  7  8  1  0
  9  7  1  0
 10  9  1  1
 11 10  1  0
 12 10  1  0
 12 13  2  0
 14 12  1  0
 15 14  1  0
 15 16  1  1
 17 16  1  0
 17 18  2  0
 19 18  1  0
 20 19  2  0
 21 22  2  0
 21 20  1  0
 22 17  1  0
 23 15  1  0
 24 23  1  0
 25 23  2  0
M  END
$$$$
