ALF.pdb
     RDKit          3D

 25 25  0  0  1  0  0  0  0  0999 V2000
   24.3468  -18.0041  -14.6197 C   0  0  0  0  0  0  0  0  0  0  0  0
   25.5656  -18.6626  -15.1797 C   0  0  2  0  0  0  0  0  0  0  0  0
   25.4198  -18.8896  -16.6083 N   0  0  0  0  0  0  0  0  0  0  0  0
   25.9112  -19.9224  -14.4669 C   0  0  0  0  0  0  0  0  0  0  0  0
   25.3834  -20.9836  -14.8644 O   0  0  0  0  0  0  0  0  0  0  0  0
   29.5574  -19.7217  -13.9133 C   0  0  0  0  0  0  0  0  0  0  0  0
   29.5925  -21.0409  -13.1618 C   0  0  1  0  0  0  0  0  0  0  0  0
   30.9896  -21.0841  -12.5207 C   0  0  0  0  0  0  0  0  0  0  0  0
   28.5377  -21.0429  -12.0895 C   0  0  0  0  0  0  0  0  0  0  0  0
   27.1607  -21.1506  -12.6426 C   0  0  2  0  0  0  0  0  0  0  0  0
   26.7955  -19.9387  -13.3857 N   0  0  0  0  0  0  0  0  0  0  0  0
   26.1276  -21.4318  -11.6093 C   0  0  0  0  0  0  0  0  0  0  0  0
   26.0826  -22.4895  -10.9789 O   0  0  0  0  0  0  0  0  0  0  0  0
   25.1206  -20.4495  -11.3054 N   0  0  0  0  0  0  0  0  0  0  0  0
   24.1657  -20.6470  -10.2334 C   0  0  1  0  0  0  0  0  0  0  0  0
   24.3121  -19.5347   -9.2477 C   0  0  0  0  0  0  0  0  0  0  0  0
   25.1913  -19.8035   -8.1173 C   0  0  0  0  0  0  0  0  0  0  0  0
   25.1684  -21.0179   -7.4314 C   0  0  0  0  0  0  0  0  0  0  0  0
   26.0360  -21.1675   -6.3847 C   0  0  0  0  0  0  0  0  0  0  0  0
   26.9053  -20.1569   -6.0159 C   0  0  0  0  0  0  0  0  0  0  0  0
   26.9429  -18.9576   -6.6767 C   0  0  0  0  0  0  0  0  0  0  0  0
   26.0718  -18.7959   -7.7343 C   0  0  0  0  0  0  0  0  0  0  0  0
   22.8299  -20.7919  -10.8019 C   0  0  0  0  0  0  0  0  0  0  0  0
   21.7273  -21.2170  -10.0698 O   0  0  0  0  0  0  0  0  0  0  0  0
   22.6232  -20.5287  -12.0133 O   0  0  0  0  0  0  0  0  0  0  0  0
  2  1  1  1
  2  4  1  0
  3  2  1  0
  4 11  1  0
  4  5  2  0
  7  6  1  1
  7  8  1  0
  9  7  1  0
 10  9  1  1
 11 10  1  0
 12 10  1  0
 12 13  2  0
 14 12  1  0
 15 14  1  0
 15 16  1  1
 17 16  1  0
 17 18  2  0
 19 18  1  0
 20 19  2  0
 21 22  2  0
 21 20  1  0
 22 17  1  0
 23 15  1  0
 24 23  1  0
 25 23  2  0
M  END
$$$$
