ALF.pdb
     RDKit          3D

 25 25  0  0  1  0  0  0  0  0999 V2000
   23.0392  -19.6318  -13.2074 C   0  0  0  0  0  0  0  0  0  0  0  0
   24.1676  -20.0800  -14.0783 C   0  0  2  0  0  0  0  0  0  0  0  0
   23.6672  -20.6632  -15.3125 N   0  0  0  0  0  0  0  0  0  0  0  0
   25.0922  -21.0125  -13.3783 C   0  0  0  0  0  0  0  0  0  0  0  0
   24.7471  -22.2093  -13.2723 O   0  0  0  0  0  0  0  0  0  0  0  0
   30.2922  -19.4335  -13.2730 C   0  0  0  0  0  0  0  0  0  0  0  0
   28.8185  -19.7542  -13.0949 C   0  0  1  0  0  0  0  0  0  0  0  0
   28.2262  -19.6515  -14.5102 C   0  0  0  0  0  0  0  0  0  0  0  0
   28.6632  -21.1575  -12.5763 C   0  0  0  0  0  0  0  0  0  0  0  0
   27.2660  -21.4641  -12.1666 C   0  0  2  0  0  0  0  0  0  0  0  0
   26.3117  -20.5827  -12.8498 N   0  0  0  0  0  0  0  0  0  0  0  0
   27.0497  -21.3886  -10.6964 C   0  0  0  0  0  0  0  0  0  0  0  0
   27.8653  -21.8155   -9.8774 O   0  0  0  0  0  0  0  0  0  0  0  0
   25.8474  -20.7977  -10.1704 N   0  0  0  0  0  0  0  0  0  0  0  0
   25.6100  -20.7000   -8.7442 C   0  0  1  0  0  0  0  0  0  0  0  0
   26.3322  -19.5037   -8.2171 C   0  0  0  0  0  0  0  0  0  0  0  0
   27.1000  -19.7157   -6.9971 C   0  0  0  0  0  0  0  0  0  0  0  0
   27.1008  -20.9370   -6.3233 C   0  0  0  0  0  0  0  0  0  0  0  0
   27.8567  -21.0300   -5.1871 C   0  0  0  0  0  0  0  0  0  0  0  0
   28.5941  -19.9574   -4.7194 C   0  0  0  0  0  0  0  0  0  0  0  0
   28.6062  -18.7503   -5.3667 C   0  0  0  0  0  0  0  0  0  0  0  0
   27.8472  -18.6454   -6.5139 C   0  0  0  0  0  0  0  0  0  0  0  0
   24.1724  -20.7082   -8.4957 C   0  0  0  0  0  0  0  0  0  0  0  0
   23.6043  -21.1197   -7.2956 O   0  0  0  0  0  0  0  0  0  0  0  0
   23.3715  -20.3312   -9.3879 O   0  0  0  0  0  0  0  0  0  0  0  0
  2  1  1  1
  2  4  1  0
  3  2  1  0
  4 11  1  0
  4  5  2  0
  7  6  1  6
  7  8  1  0
  9  7  1  0
 10  9  1  1
 11 10  1  0
 12 10  1  0
 12 13  2  0
 14 12  1  0
 15 14  1  0
 15 16  1  6
 17 16  1  0
 17 18  2  0
 19 18  1  0
 20 19  2  0
 21 22  2  0
 21 20  1  0
 22 17  1  0
 23 15  1  0
 24 23  1  0
 25 23  2  0
M  END
$$$$
