KNW.pdb
     RDKit          3D

 32 33  0  0  1  0  0  0  0  0999 V2000
    7.1141  -16.4918   20.7392 N   0  0  0  0  0  0  0  0  0  0  0  0
    7.5671  -17.8128   21.0430 C   0  0  1  0  0  0  0  0  0  0  0  0
    7.3531  -18.7953   19.9334 C   0  0  0  0  0  0  0  0  0  0  0  0
    6.2244  -18.4528   19.0176 C   0  0  0  0  0  0  0  0  0  0  0  0
    5.9909  -19.4839   17.9425 C   0  0  0  0  0  0  0  0  0  0  0  0
    5.6768  -20.8067   18.6232 C   0  0  0  0  0  0  0  0  0  0  0  0
    5.3853  -21.8564   17.6826 N   0  0  0  0  0  0  0  0  0  0  0  0
    9.0471  -17.7900   21.3292 C   0  0  0  0  0  0  0  0  0  0  0  0
    9.7880  -18.7442   20.9874 O   0  0  0  0  0  0  0  0  0  0  0  0
   14.0662  -16.3726   21.1152 N   0  0  0  0  0  0  0  0  0  0  0  0
   13.2117  -15.5466   21.9212 C   0  0  0  0  0  0  0  0  0  0  0  0
   13.7325  -14.8545   22.8437 O   0  0  0  0  0  0  0  0  0  0  0  0
   11.7766  -15.5660   21.6101 C   0  0  0  0  0  0  0  0  0  0  0  0
   11.1022  -16.7407   22.2269 C   0  0  2  0  0  0  0  0  0  0  0  0
    9.6601  -16.7016   21.9894 N   0  0  0  0  0  0  0  0  0  0  0  0
   11.2849  -16.7881   23.7201 C   0  0  0  0  0  0  0  0  0  0  0  0
   12.4855  -16.9773   24.1164 O   0  0  0  0  0  0  0  0  0  0  0  0
   10.2163  -16.6315   24.6069 N   0  0  0  0  0  0  0  0  0  0  0  0
   10.2903  -16.8995   25.9996 C   0  0  1  0  0  0  0  0  0  0  0  0
   10.0347  -15.6699   26.8296 C   0  0  0  0  0  0  0  0  0  0  0  0
    8.6723  -15.1585   26.5152 C   0  0  0  0  0  0  0  0  0  0  0  0
    7.5533  -15.8776   26.1951 C   0  0  0  0  0  0  0  0  0  0  0  0
    6.5450  -14.9888   25.9941 N   0  0  0  0  0  0  0  0  0  0  0  0
    6.9774  -13.7330   26.1739 C   0  0  0  0  0  0  0  0  0  0  0  0
    6.3568  -12.4848   26.0916 C   0  0  0  0  0  0  0  0  0  0  0  0
    7.0630  -11.3327   26.3355 C   0  0  0  0  0  0  0  0  0  0  0  0
    8.3863  -11.4008   26.6626 C   0  0  0  0  0  0  0  0  0  0  0  0
    8.9894  -12.6542   26.7402 C   0  0  0  0  0  0  0  0  0  0  0  0
    8.2993  -13.8231   26.4990 C   0  0  0  0  0  0  0  0  0  0  0  0
    9.4018  -18.0119   26.4197 C   0  0  0  0  0  0  0  0  0  0  0  0
    8.5236  -18.5126   25.7102 O   0  0  0  0  0  0  0  0  0  0  0  0
    9.5839  -18.5164   27.7092 O   0  0  0  0  0  0  0  0  0  0  0  0
  2  1  1  6
  2  3  1  0
  3  4  1  0
  4  5  1  0
  6  5  1  0
  7  6  1  0
  8  9  2  0
  8  2  1  0
 10 11  1  0
 11 13  1  0
 12 11  2  0
 14 13  1  1
 14 15  1  0
 15  8  1  0
 16 14  1  0
 16 18  1  0
 17 16  2  0
 19 18  1  0
 19 30  1  0
 20 21  1  0
 19 20  1  1
 21 29  1  0
 22 21  2  0
 22 23  1  0
 23 24  1  0
 24 25  1  0
 25 26  2  0
 27 26  1  0
 28 27  2  0
 29 24  2  0
 29 28  1  0
 30 31  2  0
 30 32  1  0
M  END
$$$$
