KNW.pdb
     RDKit          3D

 32 33  0  0  1  0  0  0  0  0999 V2000
   10.0616  -14.3223   19.1938 N   0  0  0  0  0  0  0  0  0  0  0  0
    8.9538  -14.1797   20.0855 C   0  0  1  0  0  0  0  0  0  0  0  0
    7.6268  -14.1121   19.3948 C   0  0  0  0  0  0  0  0  0  0  0  0
    7.6289  -13.3095   18.1356 C   0  0  0  0  0  0  0  0  0  0  0  0
    7.9975  -14.1125   16.9137 C   0  0  0  0  0  0  0  0  0  0  0  0
    7.8607  -13.2070   15.6999 C   0  0  0  0  0  0  0  0  0  0  0  0
    8.3427  -13.8249   14.4927 N   0  0  0  0  0  0  0  0  0  0  0  0
    8.9005  -15.3586   21.0236 C   0  0  0  0  0  0  0  0  0  0  0  0
    7.9190  -15.5361   21.7860 O   0  0  0  0  0  0  0  0  0  0  0  0
    9.4761  -19.7164   19.9743 N   0  0  0  0  0  0  0  0  0  0  0  0
   10.5868  -18.8700   20.3089 C   0  0  0  0  0  0  0  0  0  0  0  0
   11.3543  -18.4822   19.3804 O   0  0  0  0  0  0  0  0  0  0  0  0
   10.7515  -18.5114   21.7234 C   0  0  0  0  0  0  0  0  0  0  0  0
    9.8846  -17.3608   22.0974 C   0  0  2  0  0  0  0  0  0  0  0  0
    9.9451  -16.3081   21.0845 N   0  0  0  0  0  0  0  0  0  0  0  0
   10.3041  -16.7249   23.3954 C   0  0  0  0  0  0  0  0  0  0  0  0
   11.1850  -15.8044   23.2915 O   0  0  0  0  0  0  0  0  0  0  0  0
    9.7634  -17.1130   24.6242 N   0  0  0  0  0  0  0  0  0  0  0  0
   10.1251  -16.5382   25.8714 C   0  0  1  0  0  0  0  0  0  0  0  0
    9.8683  -15.0554   25.9099 C   0  0  0  0  0  0  0  0  0  0  0  0
    8.3970  -14.8272   25.9095 C   0  0  0  0  0  0  0  0  0  0  0  0
    7.4014  -15.7370   25.6799 C   0  0  0  0  0  0  0  0  0  0  0  0
    6.2181  -15.0771   25.7861 N   0  0  0  0  0  0  0  0  0  0  0  0
    6.4207  -13.7840   26.0744 C   0  0  0  0  0  0  0  0  0  0  0  0
    5.5621  -12.7030   26.2840 C   0  0  0  0  0  0  0  0  0  0  0  0
    6.0609  -11.4566   26.5732 C   0  0  0  0  0  0  0  0  0  0  0  0
    7.4095  -11.2652   26.6583 C   0  0  0  0  0  0  0  0  0  0  0  0
    8.2515  -12.3547   26.4463 C   0  0  0  0  0  0  0  0  0  0  0  0
    7.7720  -13.6140   26.1545 C   0  0  0  0  0  0  0  0  0  0  0  0
    9.4805  -17.2139   27.0252 C   0  0  0  0  0  0  0  0  0  0  0  0
    8.6033  -18.0781   26.9297 O   0  0  0  0  0  0  0  0  0  0  0  0
    9.9061  -16.8354   28.3004 O   0  0  0  0  0  0  0  0  0  0  0  0
  2  1  1  6
  2  3  1  0
  3  4  1  0
  4  5  1  0
  6  5  1  0
  7  6  1  0
  8  9  2  0
  8  2  1  0
 10 11  1  0
 11 13  1  0
 12 11  2  0
 14 13  1  6
 14 15  1  0
 15  8  1  0
 16 14  1  0
 16 18  1  0
 17 16  2  0
 19 18  1  0
 19 30  1  0
 20 21  1  0
 19 20  1  6
 21 29  1  0
 22 21  2  0
 22 23  1  0
 23 24  1  0
 24 25  1  0
 25 26  2  0
 27 26  1  0
 28 27  2  0
 29 24  2  0
 29 28  1  0
 30 31  2  0
 30 32  1  0
M  END
$$$$
