KNW.pdb
     RDKit          3D

 32 33  0  0  1  0  0  0  0  0999 V2000
    7.6805  -17.7251   20.8220 N   0  0  0  0  0  0  0  0  0  0  0  0
    8.6621  -17.8941   19.7970 C   0  0  1  0  0  0  0  0  0  0  0  0
    8.1519  -18.6076   18.5833 C   0  0  0  0  0  0  0  0  0  0  0  0
    7.6899  -20.0044   18.8397 C   0  0  0  0  0  0  0  0  0  0  0  0
    7.1881  -20.7061   17.6030 C   0  0  0  0  0  0  0  0  0  0  0  0
    6.8524  -22.1397   17.9822 C   0  0  0  0  0  0  0  0  0  0  0  0
    6.5075  -22.9465   16.8413 N   0  0  0  0  0  0  0  0  0  0  0  0
    9.1557  -16.5457   19.3378 C   0  0  0  0  0  0  0  0  0  0  0  0
    8.6833  -15.9976   18.3119 O   0  0  0  0  0  0  0  0  0  0  0  0
    8.0526  -12.1457   19.0751 N   0  0  0  0  0  0  0  0  0  0  0  0
    8.0879  -13.5800   19.1336 C   0  0  0  0  0  0  0  0  0  0  0  0
    7.8289  -14.2359   18.0828 O   0  0  0  0  0  0  0  0  0  0  0  0
    8.4276  -14.1879   20.4265 C   0  0  0  0  0  0  0  0  0  0  0  0
    9.8813  -14.4939   20.5185 C   0  0  2  0  0  0  0  0  0  0  0  0
   10.1639  -15.8453   20.0374 N   0  0  0  0  0  0  0  0  0  0  0  0
   10.3919  -14.4320   21.9330 C   0  0  0  0  0  0  0  0  0  0  0  0
   10.7106  -13.2651   22.3466 O   0  0  0  0  0  0  0  0  0  0  0  0
   10.5038  -15.5707   22.7353 N   0  0  0  0  0  0  0  0  0  0  0  0
    9.6202  -15.8843   23.8020 C   0  0  1  0  0  0  0  0  0  0  0  0
    8.1825  -15.9214   23.3571 C   0  0  0  0  0  0  0  0  0  0  0  0
    7.3206  -15.5069   24.4980 C   0  0  0  0  0  0  0  0  0  0  0  0
    6.5393  -16.2965   25.2968 C   0  0  0  0  0  0  0  0  0  0  0  0
    5.9379  -15.4836   26.2048 N   0  0  0  0  0  0  0  0  0  0  0  0
    6.3053  -14.2085   26.0162 C   0  0  0  0  0  0  0  0  0  0  0  0
    5.9832  -13.0130   26.6616 C   0  0  0  0  0  0  0  0  0  0  0  0
    6.5247  -11.8222   26.2440 C   0  0  0  0  0  0  0  0  0  0  0  0
    7.3880  -11.7996   25.1871 C   0  0  0  0  0  0  0  0  0  0  0  0
    7.6983  -13.0015   24.5549 C   0  0  0  0  0  0  0  0  0  0  0  0
    7.1659  -14.2078   24.9576 C   0  0  0  0  0  0  0  0  0  0  0  0
    9.9867  -17.1405   24.5026 C   0  0  0  0  0  0  0  0  0  0  0  0
   10.3844  -18.1655   23.9400 O   0  0  0  0  0  0  0  0  0  0  0  0
    9.8684  -17.1480   25.8942 O   0  0  0  0  0  0  0  0  0  0  0  0
  2  1  1  1
  2  3  1  0
  3  4  1  0
  4  5  1  0
  6  5  1  0
  7  6  1  0
  8  9  2  0
  8  2  1  0
 10 11  1  0
 11 13  1  0
 12 11  2  0
 14 13  1  1
 14 15  1  0
 15  8  1  0
 16 14  1  0
 16 18  1  0
 17 16  2  0
 19 18  1  0
 19 30  1  0
 20 21  1  0
 19 20  1  6
 21 29  1  0
 22 21  2  0
 22 23  1  0
 23 24  1  0
 24 25  1  0
 25 26  2  0
 27 26  1  0
 28 27  2  0
 29 24  2  0
 29 28  1  0
 30 31  2  0
 30 32  1  0
M  END
$$$$
