KNW.pdb
     RDKit          3D

 32 33  0  0  1  0  0  0  0  0999 V2000
   11.5405  -17.1490   19.4073 N   0  0  0  0  0  0  0  0  0  0  0  0
   10.6369  -18.2398   19.5980 C   0  0  1  0  0  0  0  0  0  0  0  0
   10.8495  -19.3746   18.6444 C   0  0  0  0  0  0  0  0  0  0  0  0
   10.9701  -18.9620   17.2143 C   0  0  0  0  0  0  0  0  0  0  0  0
   12.2471  -19.4281   16.5618 C   0  0  0  0  0  0  0  0  0  0  0  0
   12.2707  -18.8877   15.1408 C   0  0  0  0  0  0  0  0  0  0  0  0
   13.4735  -19.2428   14.4347 N   0  0  0  0  0  0  0  0  0  0  0  0
   10.8003  -18.7990   20.9885 C   0  0  0  0  0  0  0  0  0  0  0  0
   10.0627  -19.7255   21.4052 O   0  0  0  0  0  0  0  0  0  0  0  0
   14.4803  -20.7246   22.9406 N   0  0  0  0  0  0  0  0  0  0  0  0
   14.2472  -19.3102   22.8570 C   0  0  0  0  0  0  0  0  0  0  0  0
   14.9063  -18.6363   22.0126 O   0  0  0  0  0  0  0  0  0  0  0  0
   13.2466  -18.7427   23.7697 C   0  0  0  0  0  0  0  0  0  0  0  0
   11.8700  -18.8782   23.2201 C   0  0  2  0  0  0  0  0  0  0  0  0
   11.7838  -18.3082   21.8764 N   0  0  0  0  0  0  0  0  0  0  0  0
   10.8461  -18.1558   24.0536 C   0  0  0  0  0  0  0  0  0  0  0  0
   10.7531  -18.5511   25.2658 O   0  0  0  0  0  0  0  0  0  0  0  0
   10.0581  -17.1238   23.5367 N   0  0  0  0  0  0  0  0  0  0  0  0
    8.9671  -16.5319   24.2268 C   0  0  1  0  0  0  0  0  0  0  0  0
    9.3813  -15.3116   25.0050 C   0  0  0  0  0  0  0  0  0  0  0  0
    8.1943  -14.7873   25.7349 C   0  0  0  0  0  0  0  0  0  0  0  0
    7.4288  -15.4261   26.6717 C   0  0  0  0  0  0  0  0  0  0  0  0
    6.4596  -14.5574   27.0628 N   0  0  0  0  0  0  0  0  0  0  0  0
    6.5778  -13.3912   26.4128 C   0  0  0  0  0  0  0  0  0  0  0  0
    5.8549  -12.1971   26.4476 C   0  0  0  0  0  0  0  0  0  0  0  0
    6.2127  -11.1369   25.6516 C   0  0  0  0  0  0  0  0  0  0  0  0
    7.2856  -11.2444   24.8150 C   0  0  0  0  0  0  0  0  0  0  0  0
    7.9954  -12.4429   24.7930 C   0  0  0  0  0  0  0  0  0  0  0  0
    7.6534  -13.5196   25.5832 C   0  0  0  0  0  0  0  0  0  0  0  0
    7.8214  -16.2232   23.3349 C   0  0  0  0  0  0  0  0  0  0  0  0
    7.9053  -16.0813   22.1109 O   0  0  0  0  0  0  0  0  0  0  0  0
    6.5684  -16.0868   23.9365 O   0  0  0  0  0  0  0  0  0  0  0  0
  2  1  1  6
  2  3  1  0
  3  4  1  0
  4  5  1  0
  6  5  1  0
  7  6  1  0
  8  9  2  0
  8  2  1  0
 10 11  1  0
 11 13  1  0
 12 11  2  0
 14 13  1  1
 14 15  1  0
 15  8  1  0
 16 14  1  0
 16 18  1  0
 17 16  2  0
 19 18  1  0
 19 30  1  0
 20 21  1  0
 19 20  1  6
 21 29  1  0
 22 21  2  0
 22 23  1  0
 23 24  1  0
 24 25  1  0
 25 26  2  0
 27 26  1  0
 28 27  2  0
 29 24  2  0
 29 28  1  0
 30 31  2  0
 30 32  1  0
M  END
$$$$
