KNW.pdb
     RDKit          3D

 32 33  0  0  1  0  0  0  0  0999 V2000
   10.3019  -13.6422   19.3861 N   0  0  0  0  0  0  0  0  0  0  0  0
    8.9374  -13.6587   19.8114 C   0  0  1  0  0  0  0  0  0  0  0  0
    7.9528  -13.6643   18.6833 C   0  0  0  0  0  0  0  0  0  0  0  0
    8.4958  -14.1900   17.3954 C   0  0  0  0  0  0  0  0  0  0  0  0
    7.5370  -14.0517   16.2398 C   0  0  0  0  0  0  0  0  0  0  0  0
    8.2413  -14.5451   14.9859 C   0  0  0  0  0  0  0  0  0  0  0  0
    7.4166  -14.4388   13.8111 N   0  0  0  0  0  0  0  0  0  0  0  0
    8.6743  -14.8974   20.6295 C   0  0  0  0  0  0  0  0  0  0  0  0
    7.5500  -15.1045   21.1482 O   0  0  0  0  0  0  0  0  0  0  0  0
    9.4931  -17.2601   19.1219 N   0  0  0  0  0  0  0  0  0  0  0  0
   10.0122  -18.3694   19.8715 C   0  0  0  0  0  0  0  0  0  0  0  0
   10.3899  -19.4012   19.2437 O   0  0  0  0  0  0  0  0  0  0  0  0
   10.0680  -18.2218   21.3315 C   0  0  0  0  0  0  0  0  0  0  0  0
    9.4044  -16.9662   21.7771 C   0  0  2  0  0  0  0  0  0  0  0  0
    9.6742  -15.8719   20.8459 N   0  0  0  0  0  0  0  0  0  0  0  0
    9.8925  -16.5066   23.1245 C   0  0  0  0  0  0  0  0  0  0  0  0
   10.7761  -15.5831   23.0980 O   0  0  0  0  0  0  0  0  0  0  0  0
    9.4086  -17.0501   24.3175 N   0  0  0  0  0  0  0  0  0  0  0  0
    9.8271  -16.6357   25.6098 C   0  0  1  0  0  0  0  0  0  0  0  0
    9.6696  -15.1519   25.8097 C   0  0  0  0  0  0  0  0  0  0  0  0
    8.2225  -14.8119   25.7287 C   0  0  0  0  0  0  0  0  0  0  0  0
    7.1833  -15.6236   25.3637 C   0  0  0  0  0  0  0  0  0  0  0  0
    6.0458  -14.8839   25.4413 N   0  0  0  0  0  0  0  0  0  0  0  0
    6.3193  -13.6343   25.8413 C   0  0  0  0  0  0  0  0  0  0  0  0
    5.5275  -12.5083   26.0758 C   0  0  0  0  0  0  0  0  0  0  0  0
    6.0922  -11.3281   26.4928 C   0  0  0  0  0  0  0  0  0  0  0  0
    7.4414  -11.2476   26.6822 C   0  0  0  0  0  0  0  0  0  0  0  0
    8.2162  -12.3805   26.4435 C   0  0  0  0  0  0  0  0  0  0  0  0
    7.6700  -13.5749   26.0243 C   0  0  0  0  0  0  0  0  0  0  0  0
    9.1571  -17.3875   26.7003 C   0  0  0  0  0  0  0  0  0  0  0  0
    8.2316  -18.1880   26.5329 O   0  0  0  0  0  0  0  0  0  0  0  0
    9.6166  -17.1633   28.0001 O   0  0  0  0  0  0  0  0  0  0  0  0
  2  1  1  6
  2  3  1  0
  3  4  1  0
  4  5  1  0
  6  5  1  0
  7  6  1  0
  8  9  2  0
  8  2  1  0
 10 11  1  0
 11 13  1  0
 12 11  2  0
 14 13  1  6
 14 15  1  0
 15  8  1  0
 16 14  1  0
 16 18  1  0
 17 16  2  0
 19 18  1  0
 19 30  1  0
 20 21  1  0
 19 20  1  1
 21 29  1  0
 22 21  2  0
 22 23  1  0
 23 24  1  0
 24 25  1  0
 25 26  2  0
 27 26  1  0
 28 27  2  0
 29 24  2  0
 29 28  1  0
 30 31  2  0
 30 32  1  0
M  END
$$$$
