KNW.pdb
     RDKit          3D

 32 33  0  0  1  0  0  0  0  0999 V2000
    7.3371  -16.6162   21.0671 N   0  0  0  0  0  0  0  0  0  0  0  0
    7.6827  -17.4083   19.9287 C   0  0  1  0  0  0  0  0  0  0  0  0
    7.4044  -16.7378   18.6190 C   0  0  0  0  0  0  0  0  0  0  0  0
    8.0806  -15.4174   18.4479 C   0  0  0  0  0  0  0  0  0  0  0  0
    7.7882  -14.7618   17.1218 C   0  0  0  0  0  0  0  0  0  0  0  0
    8.5524  -13.4483   17.0707 C   0  0  0  0  0  0  0  0  0  0  0  0
    8.3405  -12.7335   15.8396 N   0  0  0  0  0  0  0  0  0  0  0  0
    9.1569  -17.7226   19.9560 C   0  0  0  0  0  0  0  0  0  0  0  0
    9.7565  -18.1081   18.9225 O   0  0  0  0  0  0  0  0  0  0  0  0
   12.1554  -13.8180   19.3862 N   0  0  0  0  0  0  0  0  0  0  0  0
   11.8090  -14.4099   20.6478 C   0  0  0  0  0  0  0  0  0  0  0  0
   12.4965  -14.1100   21.6670 O   0  0  0  0  0  0  0  0  0  0  0  0
   10.6659  -15.3317   20.6620 C   0  0  0  0  0  0  0  0  0  0  0  0
   11.0620  -16.6820   21.1468 C   0  0  2  0  0  0  0  0  0  0  0  0
    9.9221  -17.5975   21.1372 N   0  0  0  0  0  0  0  0  0  0  0  0
   11.5730  -16.6559   22.5622 C   0  0  0  0  0  0  0  0  0  0  0  0
   12.6524  -15.9944   22.7397 O   0  0  0  0  0  0  0  0  0  0  0  0
   10.9094  -17.3062   23.6061 N   0  0  0  0  0  0  0  0  0  0  0  0
   10.0708  -16.6524   24.5474 C   0  0  1  0  0  0  0  0  0  0  0  0
    9.0300  -15.7928   23.8809 C   0  0  0  0  0  0  0  0  0  0  0  0
    8.0730  -15.3154   24.9165 C   0  0  0  0  0  0  0  0  0  0  0  0
    7.2252  -16.0598   25.6904 C   0  0  0  0  0  0  0  0  0  0  0  0
    6.5480  -15.1973   26.4932 N   0  0  0  0  0  0  0  0  0  0  0  0
    6.9310  -13.9340   26.2616 C   0  0  0  0  0  0  0  0  0  0  0  0
    6.5549  -12.7038   26.8046 C   0  0  0  0  0  0  0  0  0  0  0  0
    7.1311  -11.5373   26.3651 C   0  0  0  0  0  0  0  0  0  0  0  0
    8.0824  -11.5734   25.3872 C   0  0  0  0  0  0  0  0  0  0  0  0
    8.4456  -12.8093   24.8567 C   0  0  0  0  0  0  0  0  0  0  0  0
    7.8798  -13.9921   25.2829 C   0  0  0  0  0  0  0  0  0  0  0  0
    9.4403  -17.5928   25.5072 C   0  0  0  0  0  0  0  0  0  0  0  0
    9.2000  -18.7806   25.2684 O   0  0  0  0  0  0  0  0  0  0  0  0
    9.1011  -17.0844   26.7631 O   0  0  0  0  0  0  0  0  0  0  0  0
  2  1  1  1
  2  3  1  0
  3  4  1  0
  4  5  1  0
  6  5  1  0
  7  6  1  0
  8  9  2  0
  8  2  1  0
 10 11  1  0
 11 13  1  0
 12 11  2  0
 14 13  1  1
 14 15  1  0
 15  8  1  0
 16 14  1  0
 16 18  1  0
 17 16  2  0
 19 18  1  0
 19 30  1  0
 20 21  1  0
 19 20  1  6
 21 29  1  0
 22 21  2  0
 22 23  1  0
 23 24  1  0
 24 25  1  0
 25 26  2  0
 27 26  1  0
 28 27  2  0
 29 24  2  0
 29 28  1  0
 30 31  2  0
 30 32  1  0
M  END
$$$$
