KNW.pdb
     RDKit          3D

 32 33  0  0  1  0  0  0  0  0999 V2000
   10.0111  -13.3343   19.8058 N   0  0  0  0  0  0  0  0  0  0  0  0
    8.6937  -13.6031   20.2906 C   0  0  1  0  0  0  0  0  0  0  0  0
    7.6870  -13.8370   19.2070 C   0  0  0  0  0  0  0  0  0  0  0  0
    8.2807  -14.1329   17.8692 C   0  0  0  0  0  0  0  0  0  0  0  0
    7.2571  -14.2211   16.7656 C   0  0  0  0  0  0  0  0  0  0  0  0
    7.9997  -14.4162   15.4532 C   0  0  0  0  0  0  0  0  0  0  0  0
    7.1138  -14.4711   14.3202 N   0  0  0  0  0  0  0  0  0  0  0  0
    8.7103  -14.8424   21.1489 C   0  0  0  0  0  0  0  0  0  0  0  0
    7.6426  -15.3673   21.5498 O   0  0  0  0  0  0  0  0  0  0  0  0
    9.3353  -17.6634   19.8803 N   0  0  0  0  0  0  0  0  0  0  0  0
   10.5407  -18.1647   20.4785 C   0  0  0  0  0  0  0  0  0  0  0  0
   11.2478  -18.9834   19.8219 O   0  0  0  0  0  0  0  0  0  0  0  0
   10.8684  -17.6825   21.8263 C   0  0  0  0  0  0  0  0  0  0  0  0
    9.8615  -16.7002   22.3124 C   0  0  2  0  0  0  0  0  0  0  0  0
    9.9193  -15.4626   21.5361 N   0  0  0  0  0  0  0  0  0  0  0  0
   10.0871  -16.3108   23.7486 C   0  0  0  0  0  0  0  0  0  0  0  0
   10.9638  -15.3992   23.9347 O   0  0  0  0  0  0  0  0  0  0  0  0
    9.3830  -16.9028   24.8006 N   0  0  0  0  0  0  0  0  0  0  0  0
    9.6138  -16.6201   26.1731 C   0  0  1  0  0  0  0  0  0  0  0  0
    8.3313  -16.4932   26.9510 C   0  0  0  0  0  0  0  0  0  0  0  0
    7.4386  -15.5345   26.2434 C   0  0  0  0  0  0  0  0  0  0  0  0
    6.5187  -15.8006   25.2663 C   0  0  0  0  0  0  0  0  0  0  0  0
    5.9398  -14.6198   24.9235 N   0  0  0  0  0  0  0  0  0  0  0  0
    6.4540  -13.6130   25.6435 C   0  0  0  0  0  0  0  0  0  0  0  0
    6.2109  -12.2385   25.6790 C   0  0  0  0  0  0  0  0  0  0  0  0
    6.9040  -11.4255   26.5418 C   0  0  0  0  0  0  0  0  0  0  0  0
    7.8420  -11.9600   27.3766 C   0  0  0  0  0  0  0  0  0  0  0  0
    8.0718  -13.3332   27.3279 C   0  0  0  0  0  0  0  0  0  0  0  0
    7.3878  -14.1674   26.4694 C   0  0  0  0  0  0  0  0  0  0  0  0
   10.5251  -17.5990   26.8170 C   0  0  0  0  0  0  0  0  0  0  0  0
   10.8712  -17.5591   28.0019 O   0  0  0  0  0  0  0  0  0  0  0  0
   11.0167  -18.6308   26.0142 O   0  0  0  0  0  0  0  0  0  0  0  0
  2  1  1  6
  2  3  1  0
  3  4  1  0
  4  5  1  0
  6  5  1  0
  7  6  1  0
  8  9  2  0
  8  2  1  0
 10 11  1  0
 11 13  1  0
 12 11  2  0
 14 13  1  6
 14 15  1  0
 15  8  1  0
 16 14  1  0
 16 18  1  0
 17 16  2  0
 19 18  1  0
 19 30  1  0
 20 21  1  0
 19 20  1  1
 21 29  1  0
 22 21  2  0
 22 23  1  0
 23 24  1  0
 24 25  1  0
 25 26  2  0
 27 26  1  0
 28 27  2  0
 29 24  2  0
 29 28  1  0
 30 31  2  0
 30 32  1  0
M  END
$$$$
