VRM.pdb
     RDKit          3D

 27 26  0  0  1  0  0  0  0  0999 V2000
    5.7421  -21.5176   23.8139 C   0  0  0  0  0  0  0  0  0  0  0  0
    6.7045  -20.7623   22.9392 C   0  0  1  0  0  0  0  0  0  0  0  0
    5.8707  -19.9171   21.9748 C   0  0  0  0  0  0  0  0  0  0  0  0
    7.5493  -19.8109   23.7300 C   0  0  2  0  0  0  0  0  0  0  0  0
    6.6641  -18.9979   24.5993 N   0  0  0  0  0  0  0  0  0  0  0  0
    8.3410  -18.8525   22.9363 C   0  0  0  0  0  0  0  0  0  0  0  0
    9.2521  -19.3485   22.2063 O   0  0  0  0  0  0  0  0  0  0  0  0
    9.0829  -13.9923   18.0532 N   0  0  0  0  0  0  0  0  0  0  0  0
    8.4027  -13.1161   18.9354 C   0  0  0  0  0  0  0  0  0  0  0  0
    8.8154  -11.8683   19.0823 N   0  0  0  0  0  0  0  0  0  0  0  0
    7.2783  -13.4866   19.6994 N   0  0  0  0  0  0  0  0  0  0  0  0
    6.8139  -14.8160   19.8285 C   0  0  0  0  0  0  0  0  0  0  0  0
    7.1555  -15.4855   21.1388 C   0  0  0  0  0  0  0  0  0  0  0  0
    8.6555  -15.6466   21.2407 C   0  0  0  0  0  0  0  0  0  0  0  0
    9.1029  -16.4889   22.4076 C   0  0  2  0  0  0  0  0  0  0  0  0
    8.2012  -17.4617   22.8948 N   0  0  0  0  0  0  0  0  0  0  0  0
    9.6209  -15.6312   23.4723 C   0  0  0  0  0  0  0  0  0  0  0  0
    9.9238  -14.4056   23.2683 O   0  0  0  0  0  0  0  0  0  0  0  0
    8.2853  -11.3187   19.7898 C   0  0  0  0  0  0  0  0  0  0  0  0
    6.9078  -11.1920   26.4750 S   0  0  0  0  0  0  0  0  0  0  0  0
    6.5818  -12.8306   27.0927 C   0  0  0  0  0  0  0  0  0  0  0  0
    7.9865  -13.9042   27.1744 C   0  0  0  0  0  0  0  0  0  0  0  0
    8.3203  -14.6350   25.9227 C   0  0  1  0  0  0  0  0  0  0  0  0
    9.6055  -15.3660   25.9557 N   0  0  0  0  0  0  0  0  0  0  0  0
    9.7824  -16.2080   24.7627 C   0  0  0  0  0  0  0  0  0  0  0  0
    9.7472  -16.2997   27.1075 O   0  0  0  0  0  0  0  0  0  0  0  0
    9.5636  -17.5294   26.8924 O   0  0  0  0  0  0  0  0  0  0  0  0
  2  3  1  6
  2  1  1  0
  4  2  1  0
  4  5  1  1
  6  4  1  0
  6  7  2  0
  9  8  1  0
 10  9  2  0
 11  9  1  0
 12 11  1  0
 13 14  1  0
 13 12  1  0
 15 16  1  0
 15 14  1  6
 16  6  1  0
 17 15  1  0
 18 17  2  0
 19 20  1  0
 20 21  1  0
 23 22  1  6
 22 21  1  0
 23 24  1  0
 24 17  1  0
 25 23  1  0
 25 27  1  0
 26 25  2  0
M  END
$$$$
