VRM.pdb
     RDKit          3D

 27 26  0  0  1  0  0  0  0  0999 V2000
    8.9574  -13.1614   17.7275 C   0  0  0  0  0  0  0  0  0  0  0  0
    8.7513  -13.5932   19.1534 C   0  0  1  0  0  0  0  0  0  0  0  0
    7.5175  -12.8549   19.6751 C   0  0  0  0  0  0  0  0  0  0  0  0
    8.4554  -15.0581   19.2561 C   0  0  2  0  0  0  0  0  0  0  0  0
    7.4881  -15.4241   18.1930 N   0  0  0  0  0  0  0  0  0  0  0  0
    7.8549  -15.4980   20.5293 C   0  0  0  0  0  0  0  0  0  0  0  0
    6.9877  -14.7234   21.0362 O   0  0  0  0  0  0  0  0  0  0  0  0
    7.1423  -19.4647   27.5324 N   0  0  0  0  0  0  0  0  0  0  0  0
    7.3017  -20.6790   26.8191 C   0  0  0  0  0  0  0  0  0  0  0  0
    6.9570  -21.8276   27.3767 N   0  0  0  0  0  0  0  0  0  0  0  0
    7.8210  -20.7607   25.5119 N   0  0  0  0  0  0  0  0  0  0  0  0
    7.1004  -20.3959   24.3512 C   0  0  0  0  0  0  0  0  0  0  0  0
    6.9795  -18.9084   24.1178 C   0  0  0  0  0  0  0  0  0  0  0  0
    7.6500  -18.5524   22.8101 C   0  0  0  0  0  0  0  0  0  0  0  0
    7.6591  -17.0757   22.5090 C   0  0  2  0  0  0  0  0  0  0  0  0
    8.1301  -16.6707   21.2397 N   0  0  0  0  0  0  0  0  0  0  0  0
    8.3084  -16.3486   23.5985 C   0  0  0  0  0  0  0  0  0  0  0  0
    9.5787  -16.2138   23.6612 O   0  0  0  0  0  0  0  0  0  0  0  0
    7.0714  -22.6584   26.7600 C   0  0  0  0  0  0  0  0  0  0  0  0
    6.3646  -10.2870   25.8302 S   0  0  0  0  0  0  0  0  0  0  0  0
    6.5773  -11.3793   27.2210 C   0  0  0  0  0  0  0  0  0  0  0  0
    7.6010  -12.7927   26.9263 C   0  0  0  0  0  0  0  0  0  0  0  0
    7.1320  -13.7261   25.8675 C   0  0  1  0  0  0  0  0  0  0  0  0
    8.0515  -14.8478   25.5783 N   0  0  0  0  0  0  0  0  0  0  0  0
    7.4740  -15.7866   24.6045 C   0  0  0  0  0  0  0  0  0  0  0  0
    8.3859  -15.6843   26.7644 O   0  0  0  0  0  0  0  0  0  0  0  0
    7.6239  -16.6537   27.0327 O   0  0  0  0  0  0  0  0  0  0  0  0
  2  3  1  6
  2  1  1  0
  4  2  1  0
  4  5  1  6
  6  4  1  0
  6  7  2  0
  9  8  1  0
 10  9  2  0
 11  9  1  0
 12 11  1  0
 13 14  1  0
 13 12  1  0
 15 16  1  0
 15 14  1  1
 16  6  1  0
 17 15  1  0
 18 17  2  0
 19 20  1  0
 20 21  1  0
 23 22  1  6
 22 21  1  0
 23 24  1  0
 24 17  1  0
 25 23  1  0
 25 27  1  0
 26 25  2  0
M  END
$$$$
