VRM.pdb
     RDKit          3D

 27 26  0  0  1  0  0  0  0  0999 V2000
    7.7526  -12.3239   18.5336 C   0  0  0  0  0  0  0  0  0  0  0  0
    7.5087  -13.1692   19.7534 C   0  0  1  0  0  0  0  0  0  0  0  0
    6.8266  -14.4549   19.2830 C   0  0  0  0  0  0  0  0  0  0  0  0
    8.7891  -13.5754   20.4164 C   0  0  2  0  0  0  0  0  0  0  0  0
    9.6293  -14.2953   19.4285 N   0  0  0  0  0  0  0  0  0  0  0  0
    8.6475  -14.4790   21.5735 C   0  0  0  0  0  0  0  0  0  0  0  0
    7.9094  -14.0662   22.5188 O   0  0  0  0  0  0  0  0  0  0  0  0
    6.8294  -21.5936   20.4856 N   0  0  0  0  0  0  0  0  0  0  0  0
    7.8820  -21.3271   19.5748 C   0  0  0  0  0  0  0  0  0  0  0  0
    7.7772  -21.6996   18.3102 N   0  0  0  0  0  0  0  0  0  0  0  0
    9.0790  -20.6723   19.9263 N   0  0  0  0  0  0  0  0  0  0  0  0
    9.3366  -20.1307   21.2070 C   0  0  0  0  0  0  0  0  0  0  0  0
    8.7365  -18.7667   21.4542 C   0  0  0  0  0  0  0  0  0  0  0  0
    9.4964  -18.0817   22.5676 C   0  0  0  0  0  0  0  0  0  0  0  0
    9.0738  -16.6554   22.8097 C   0  0  2  0  0  0  0  0  0  0  0  0
    9.2312  -15.7380   21.7465 N   0  0  0  0  0  0  0  0  0  0  0  0
    9.6618  -16.1656   24.0555 C   0  0  0  0  0  0  0  0  0  0  0  0
   10.9257  -16.0407   24.2053 O   0  0  0  0  0  0  0  0  0  0  0  0
    8.6319  -21.5350   17.7393 C   0  0  0  0  0  0  0  0  0  0  0  0
    6.5182  -10.6932   26.1821 S   0  0  0  0  0  0  0  0  0  0  0  0
    6.6723  -12.3445   26.8317 C   0  0  0  0  0  0  0  0  0  0  0  0
    8.2068  -13.1559   26.4861 C   0  0  0  0  0  0  0  0  0  0  0  0
    8.3951  -14.4883   27.1197 C   0  0  2  0  0  0  0  0  0  0  0  0
    9.3259  -15.3884   26.4052 N   0  0  0  0  0  0  0  0  0  0  0  0
    8.7739  -15.8273   25.1144 C   0  0  0  0  0  0  0  0  0  0  0  0
    9.6385  -16.6481   27.1359 O   0  0  0  0  0  0  0  0  0  0  0  0
   10.2002  -16.5499   28.2615 O   0  0  0  0  0  0  0  0  0  0  0  0
  2  3  1  6
  2  1  1  0
  4  2  1  0
  4  5  1  6
  6  4  1  0
  6  7  2  0
  9  8  1  0
 10  9  2  0
 11  9  1  0
 12 11  1  0
 13 14  1  0
 13 12  1  0
 15 16  1  0
 15 14  1  6
 16  6  1  0
 17 15  1  0
 18 17  2  0
 19 20  1  0
 20 21  1  0
 23 22  1  6
 22 21  1  0
 23 24  1  0
 24 17  1  0
 25 23  1  0
 25 27  1  0
 26 25  2  0
M  END
$$$$
