VRM.pdb
     RDKit          3D

 27 26  0  0  1  0  0  0  0  0999 V2000
    7.8960  -12.2717   18.7981 C   0  0  0  0  0  0  0  0  0  0  0  0
    8.3405  -13.1462   19.9381 C   0  0  1  0  0  0  0  0  0  0  0  0
    7.4580  -12.8049   21.1399 C   0  0  0  0  0  0  0  0  0  0  0  0
    8.1278  -14.5994   19.6430 C   0  0  2  0  0  0  0  0  0  0  0  0
    6.7148  -14.8015   19.2397 N   0  0  0  0  0  0  0  0  0  0  0  0
    8.3707  -15.5195   20.7698 C   0  0  0  0  0  0  0  0  0  0  0  0
    7.3928  -15.7145   21.5538 O   0  0  0  0  0  0  0  0  0  0  0  0
   12.9280  -21.3354   25.5751 N   0  0  0  0  0  0  0  0  0  0  0  0
   12.4610  -21.8079   24.3232 C   0  0  0  0  0  0  0  0  0  0  0  0
   12.1766  -23.0892   24.1602 N   0  0  0  0  0  0  0  0  0  0  0  0
   12.2708  -20.9868   23.1941 N   0  0  0  0  0  0  0  0  0  0  0  0
   12.4981  -19.5911   23.1849 C   0  0  0  0  0  0  0  0  0  0  0  0
   11.2610  -18.7432   23.3644 C   0  0  0  0  0  0  0  0  0  0  0  0
   11.0460  -17.9054   22.1241 C   0  0  0  0  0  0  0  0  0  0  0  0
    9.8793  -16.9563   22.2210 C   0  0  2  0  0  0  0  0  0  0  0  0
    9.5533  -16.2023   21.0713 N   0  0  0  0  0  0  0  0  0  0  0  0
   10.0148  -16.1195   23.4122 C   0  0  0  0  0  0  0  0  0  0  0  0
   10.8550  -15.1571   23.4724 O   0  0  0  0  0  0  0  0  0  0  0  0
   11.9027  -23.3507   23.1906 C   0  0  0  0  0  0  0  0  0  0  0  0
    6.6448  -11.7236   25.3826 S   0  0  0  0  0  0  0  0  0  0  0  0
    6.9219  -12.4288   26.9946 C   0  0  0  0  0  0  0  0  0  0  0  0
    8.0065  -13.8268   27.0352 C   0  0  0  0  0  0  0  0  0  0  0  0
    8.0960  -14.6172   25.7785 C   0  0  1  0  0  0  0  0  0  0  0  0
    9.2356  -15.5579   25.7177 N   0  0  0  0  0  0  0  0  0  0  0  0
    9.1728  -16.4111   24.5212 C   0  0  0  0  0  0  0  0  0  0  0  0
    9.3041  -16.5085   26.8623 O   0  0  0  0  0  0  0  0  0  0  0  0
    8.8060  -17.6568   26.7023 O   0  0  0  0  0  0  0  0  0  0  0  0
  2  3  1  1
  2  1  1  0
  4  2  1  0
  4  5  1  1
  6  4  1  0
  6  7  2  0
  9  8  1  0
 10  9  2  0
 11  9  1  0
 12 11  1  0
 13 14  1  0
 13 12  1  0
 15 16  1  0
 15 14  1  6
 16  6  1  0
 17 15  1  0
 18 17  2  0
 19 20  1  0
 20 21  1  0
 23 22  1  6
 22 21  1  0
 23 24  1  0
 24 17  1  0
 25 23  1  0
 25 27  1  0
 26 25  2  0
M  END
$$$$
