VRM.pdb
     RDKit          3D

 27 26  0  0  1  0  0  0  0  0999 V2000
   14.4215  -20.0118   21.9413 C   0  0  0  0  0  0  0  0  0  0  0  0
   14.7582  -19.0384   20.8454 C   0  0  1  0  0  0  0  0  0  0  0  0
   15.7442  -19.7371   19.9078 C   0  0  0  0  0  0  0  0  0  0  0  0
   13.5563  -18.6841   20.0243 C   0  0  2  0  0  0  0  0  0  0  0  0
   14.0061  -17.9663   18.8068 N   0  0  0  0  0  0  0  0  0  0  0  0
   12.5733  -17.8034   20.6827 C   0  0  0  0  0  0  0  0  0  0  0  0
   12.9058  -16.5852   20.8031 O   0  0  0  0  0  0  0  0  0  0  0  0
    7.9866  -13.2045   18.5948 N   0  0  0  0  0  0  0  0  0  0  0  0
    7.6947  -13.0533   19.9734 C   0  0  0  0  0  0  0  0  0  0  0  0
    7.5042  -11.8484   20.4843 N   0  0  0  0  0  0  0  0  0  0  0  0
    7.5897  -14.1288   20.8775 N   0  0  0  0  0  0  0  0  0  0  0  0
    8.3825  -15.2978   20.8102 C   0  0  0  0  0  0  0  0  0  0  0  0
    8.0961  -16.3241   21.8809 C   0  0  0  0  0  0  0  0  0  0  0  0
    8.9333  -17.5574   21.6266 C   0  0  0  0  0  0  0  0  0  0  0  0
   10.3996  -17.3736   21.9224 C   0  0  2  0  0  0  0  0  0  0  0  0
   11.3176  -18.1565   21.1867 N   0  0  0  0  0  0  0  0  0  0  0  0
   10.6318  -17.4558   23.3635 C   0  0  0  0  0  0  0  0  0  0  0  0
   11.0432  -18.5294   23.9237 O   0  0  0  0  0  0  0  0  0  0  0  0
    7.4246  -11.8271   21.5220 C   0  0  0  0  0  0  0  0  0  0  0  0
   10.3910  -13.4154   30.2517 S   0  0  0  0  0  0  0  0  0  0  0  0
    9.9705  -13.5214   28.5241 C   0  0  0  0  0  0  0  0  0  0  0  0
   10.5256  -14.9839   27.6963 C   0  0  0  0  0  0  0  0  0  0  0  0
   10.2670  -15.0407   26.2327 C   0  0  2  0  0  0  0  0  0  0  0  0
   10.6522  -16.3127   25.5840 N   0  0  0  0  0  0  0  0  0  0  0  0
   10.3822  -16.2891   24.1384 C   0  0  0  0  0  0  0  0  0  0  0  0
    9.9161  -17.5040   26.0914 O   0  0  0  0  0  0  0  0  0  0  0  0
    8.8149  -17.7900   25.5456 O   0  0  0  0  0  0  0  0  0  0  0  0
  2  3  1  6
  2  1  1  0
  4  2  1  0
  4  5  1  6
  6  4  1  0
  6  7  2  0
  9  8  1  0
 10  9  2  0
 11  9  1  0
 12 11  1  0
 13 14  1  0
 13 12  1  0
 15 16  1  0
 15 14  1  1
 16  6  1  0
 17 15  1  0
 18 17  2  0
 19 20  1  0
 20 21  1  0
 23 22  1  6
 22 21  1  0
 23 24  1  0
 24 17  1  0
 25 23  1  0
 25 27  1  0
 26 25  2  0
M  END
$$$$
