VRM.pdb
     RDKit          3D

 27 26  0  0  1  0  0  0  0  0999 V2000
    8.6081  -12.7916   20.1510 C   0  0  0  0  0  0  0  0  0  0  0  0
    8.1082  -13.5824   18.9734 C   0  0  1  0  0  0  0  0  0  0  0  0
    8.8336  -13.0548   17.7344 C   0  0  0  0  0  0  0  0  0  0  0  0
    8.4514  -15.0359   19.0905 C   0  0  2  0  0  0  0  0  0  0  0  0
    7.9465  -15.7426   17.8882 N   0  0  0  0  0  0  0  0  0  0  0  0
    7.8723  -15.7346   20.2531 C   0  0  0  0  0  0  0  0  0  0  0  0
    6.6071  -15.8188   20.2822 O   0  0  0  0  0  0  0  0  0  0  0  0
    9.4151  -20.6462   26.8410 N   0  0  0  0  0  0  0  0  0  0  0  0
    8.0291  -20.9210   26.7305 C   0  0  0  0  0  0  0  0  0  0  0  0
    7.3678  -21.4271   27.7579 N   0  0  0  0  0  0  0  0  0  0  0  0
    7.2722  -20.6899   25.5648 N   0  0  0  0  0  0  0  0  0  0  0  0
    7.8074  -20.1622   24.3669 C   0  0  0  0  0  0  0  0  0  0  0  0
    7.6324  -18.6720   24.1933 C   0  0  0  0  0  0  0  0  0  0  0  0
    8.1363  -18.2664   22.8266 C   0  0  0  0  0  0  0  0  0  0  0  0
    8.0512  -16.7859   22.5573 C   0  0  2  0  0  0  0  0  0  0  0  0
    8.5576  -16.3159   21.3246 N   0  0  0  0  0  0  0  0  0  0  0  0
    8.5852  -16.0403   23.6959 C   0  0  0  0  0  0  0  0  0  0  0  0
    9.8266  -16.0680   24.0021 O   0  0  0  0  0  0  0  0  0  0  0  0
    6.3627  -21.6225   27.5704 C   0  0  0  0  0  0  0  0  0  0  0  0
    5.3338  -10.6558   26.3693 S   0  0  0  0  0  0  0  0  0  0  0  0
    7.0156  -10.7666   26.9454 C   0  0  0  0  0  0  0  0  0  0  0  0
    7.7160  -12.3919   26.9349 C   0  0  0  0  0  0  0  0  0  0  0  0
    7.2796  -13.2810   25.8252 C   0  0  1  0  0  0  0  0  0  0  0  0
    8.1797  -14.4230   25.5554 N   0  0  0  0  0  0  0  0  0  0  0  0
    7.6700  -15.2713   24.4673 C   0  0  0  0  0  0  0  0  0  0  0  0
    8.3563  -15.3470   26.7101 O   0  0  0  0  0  0  0  0  0  0  0  0
    7.5525  -16.3138   26.8168 O   0  0  0  0  0  0  0  0  0  0  0  0
  2  3  1  6
  2  1  1  0
  4  2  1  0
  4  5  1  6
  6  4  1  0
  6  7  2  0
  9  8  1  0
 10  9  2  0
 11  9  1  0
 12 11  1  0
 13 14  1  0
 13 12  1  0
 15 16  1  0
 15 14  1  1
 16  6  1  0
 17 15  1  0
 18 17  2  0
 19 20  1  0
 20 21  1  0
 23 22  1  6
 22 21  1  0
 23 24  1  0
 24 17  1  0
 25 23  1  0
 25 27  1  0
 26 25  2  0
M  END
$$$$
