VRM.pdb
     RDKit          3D

 27 26  0  0  1  0  0  0  0  0999 V2000
    6.7767  -12.5678   20.4623 C   0  0  0  0  0  0  0  0  0  0  0  0
    7.4156  -13.5030   19.4728 C   0  0  1  0  0  0  0  0  0  0  0  0
    7.6590  -12.7061   18.1901 C   0  0  0  0  0  0  0  0  0  0  0  0
    8.7533  -13.9856   19.9437 C   0  0  2  0  0  0  0  0  0  0  0  0
    9.3452  -14.8488   18.8926 N   0  0  0  0  0  0  0  0  0  0  0  0
    8.7403  -14.7906   21.1794 C   0  0  0  0  0  0  0  0  0  0  0  0
    8.3006  -14.2125   22.2193 O   0  0  0  0  0  0  0  0  0  0  0  0
   11.8284  -20.1431   19.1477 N   0  0  0  0  0  0  0  0  0  0  0  0
   10.5566  -20.3964   18.5758 C   0  0  0  0  0  0  0  0  0  0  0  0
   10.4260  -20.4979   17.2637 N   0  0  0  0  0  0  0  0  0  0  0  0
    9.3742  -20.5525   19.3260 N   0  0  0  0  0  0  0  0  0  0  0  0
    9.2030  -20.0638   20.6419 C   0  0  0  0  0  0  0  0  0  0  0  0
    9.9102  -18.7616   20.9347 C   0  0  0  0  0  0  0  0  0  0  0  0
    9.6215  -18.3465   22.3597 C   0  0  0  0  0  0  0  0  0  0  0  0
    9.1680  -16.9161   22.5007 C   0  0  2  0  0  0  0  0  0  0  0  0
    9.1547  -16.1171   21.3353 N   0  0  0  0  0  0  0  0  0  0  0  0
    9.8799  -16.2738   23.6044 C   0  0  0  0  0  0  0  0  0  0  0  0
   10.7122  -15.3221   23.4117 O   0  0  0  0  0  0  0  0  0  0  0  0
    9.4428  -20.5861   16.9332 C   0  0  0  0  0  0  0  0  0  0  0  0
    7.8953  -11.0250   25.4886 S   0  0  0  0  0  0  0  0  0  0  0  0
    7.2154  -12.3811   26.4221 C   0  0  0  0  0  0  0  0  0  0  0  0
    8.3439  -13.6962   26.7817 C   0  0  0  0  0  0  0  0  0  0  0  0
    8.5240  -14.7104   25.7087 C   0  0  1  0  0  0  0  0  0  0  0  0
    9.4978  -15.7784   26.0224 N   0  0  0  0  0  0  0  0  0  0  0  0
    9.6172  -16.7455   24.9207 C   0  0  0  0  0  0  0  0  0  0  0  0
    9.1421  -16.5979   27.2141 O   0  0  0  0  0  0  0  0  0  0  0  0
    8.2400  -17.4698   27.0791 O   0  0  0  0  0  0  0  0  0  0  0  0
  2  3  1  6
  2  1  1  0
  4  2  1  0
  4  5  1  6
  6  4  1  0
  6  7  2  0
  9  8  1  0
 10  9  2  0
 11  9  1  0
 12 11  1  0
 13 14  1  0
 13 12  1  0
 15 16  1  0
 15 14  1  6
 16  6  1  0
 17 15  1  0
 18 17  2  0
 19 20  1  0
 20 21  1  0
 23 22  1  6
 22 21  1  0
 23 24  1  0
 24 17  1  0
 25 23  1  0
 25 27  1  0
 26 25  2  0
M  END
$$$$
