VRM.pdb
     RDKit          3D

 27 26  0  0  1  0  0  0  0  0999 V2000
    8.1545  -12.1536   19.0802 C   0  0  0  0  0  0  0  0  0  0  0  0
    8.5322  -13.0512   20.2263 C   0  0  1  0  0  0  0  0  0  0  0  0
    7.3607  -13.0454   21.2097 C   0  0  0  0  0  0  0  0  0  0  0  0
    8.7210  -14.4704   19.7855 C   0  0  2  0  0  0  0  0  0  0  0  0
    7.6400  -14.8207   18.8322 N   0  0  0  0  0  0  0  0  0  0  0  0
    8.6690  -15.4818   20.8576 C   0  0  0  0  0  0  0  0  0  0  0  0
    7.5210  -15.9439   21.1358 O   0  0  0  0  0  0  0  0  0  0  0  0
    8.7792  -20.5300   19.2960 N   0  0  0  0  0  0  0  0  0  0  0  0
   10.1172  -20.9729   19.1469 C   0  0  0  0  0  0  0  0  0  0  0  0
   10.3726  -22.1326   18.5649 N   0  0  0  0  0  0  0  0  0  0  0  0
   11.2400  -20.2460   19.5898 N   0  0  0  0  0  0  0  0  0  0  0  0
   11.4894  -19.9250   20.9442 C   0  0  0  0  0  0  0  0  0  0  0  0
   11.2667  -18.4757   21.3067 C   0  0  0  0  0  0  0  0  0  0  0  0
   10.0955  -18.3735   22.2576 C   0  0  0  0  0  0  0  0  0  0  0  0
    9.7301  -16.9592   22.6290 C   0  0  2  0  0  0  0  0  0  0  0  0
    9.7393  -15.9906   21.6003 N   0  0  0  0  0  0  0  0  0  0  0  0
   10.5015  -16.5350   23.7962 C   0  0  0  0  0  0  0  0  0  0  0  0
   11.6665  -16.0187   23.6876 O   0  0  0  0  0  0  0  0  0  0  0  0
   11.3717  -22.4225   18.5999 C   0  0  0  0  0  0  0  0  0  0  0  0
    9.6917  -12.3762   27.7137 S   0  0  0  0  0  0  0  0  0  0  0  0
   10.2102  -13.4935   29.0003 C   0  0  0  0  0  0  0  0  0  0  0  0
   10.3686  -15.1882   28.5153 C   0  0  0  0  0  0  0  0  0  0  0  0
    9.7410  -15.5548   27.2176 C   0  0  1  0  0  0  0  0  0  0  0  0
   10.6340  -16.2633   26.2754 N   0  0  0  0  0  0  0  0  0  0  0  0
    9.9106  -16.7164   25.0776 C   0  0  0  0  0  0  0  0  0  0  0  0
   11.2576  -17.4949   26.8346 O   0  0  0  0  0  0  0  0  0  0  0  0
   10.7617  -18.6067   26.5025 O   0  0  0  0  0  0  0  0  0  0  0  0
  2  3  1  1
  2  1  1  0
  4  2  1  0
  4  5  1  6
  6  4  1  0
  6  7  2  0
  9  8  1  0
 10  9  2  0
 11  9  1  0
 12 11  1  0
 13 14  1  0
 13 12  1  0
 15 16  1  0
 15 14  1  6
 16  6  1  0
 17 15  1  0
 18 17  2  0
 19 20  1  0
 20 21  1  0
 23 22  1  6
 22 21  1  0
 23 24  1  0
 24 17  1  0
 25 23  1  0
 25 27  1  0
 26 25  2  0
M  END
$$$$
