VRM.pdb
     RDKit          3D

 27 26  0  0  1  0  0  0  0  0999 V2000
    6.6331  -19.5648   25.9098 C   0  0  0  0  0  0  0  0  0  0  0  0
    7.3824  -20.5816   25.0935 C   0  0  1  0  0  0  0  0  0  0  0  0
    6.6693  -21.9223   25.2767 C   0  0  0  0  0  0  0  0  0  0  0  0
    7.3396  -20.2644   23.6301 C   0  0  2  0  0  0  0  0  0  0  0  0
    8.0831  -21.3152   22.8932 N   0  0  0  0  0  0  0  0  0  0  0  0
    7.9477  -18.9785   23.2399 C   0  0  0  0  0  0  0  0  0  0  0  0
    9.2139  -18.9209   23.2876 O   0  0  0  0  0  0  0  0  0  0  0  0
    8.6321  -14.1394   16.7818 N   0  0  0  0  0  0  0  0  0  0  0  0
    8.3392  -13.5458   18.0350 C   0  0  0  0  0  0  0  0  0  0  0  0
    8.9395  -12.4240   18.3957 N   0  0  0  0  0  0  0  0  0  0  0  0
    7.4239  -14.0802   18.9634 N   0  0  0  0  0  0  0  0  0  0  0  0
    7.2278  -13.5652   20.2657 C   0  0  0  0  0  0  0  0  0  0  0  0
    7.9170  -14.3369   21.3662 C   0  0  0  0  0  0  0  0  0  0  0  0
    7.2398  -15.6784   21.5343 C   0  0  0  0  0  0  0  0  0  0  0  0
    7.8023  -16.5116   22.6572 C   0  0  2  0  0  0  0  0  0  0  0  0
    7.2891  -17.8178   22.8219 N   0  0  0  0  0  0  0  0  0  0  0  0
    7.7824  -15.7475   23.9035 C   0  0  0  0  0  0  0  0  0  0  0  0
    6.6961  -15.5079   24.5344 O   0  0  0  0  0  0  0  0  0  0  0  0
    8.7017  -12.0962   19.3547 C   0  0  0  0  0  0  0  0  0  0  0  0
    5.2857  -10.9604   26.5593 S   0  0  0  0  0  0  0  0  0  0  0  0
    6.7300  -11.9424   26.9089 C   0  0  0  0  0  0  0  0  0  0  0  0
    7.0622  -13.2416   25.7539 C   0  0  0  0  0  0  0  0  0  0  0  0
    7.7389  -14.4455   26.3061 C   0  0  2  0  0  0  0  0  0  0  0  0
    9.0884  -14.7037   25.7590 N   0  0  0  0  0  0  0  0  0  0  0  0
    9.0259  -15.2691   24.4026 C   0  0  0  0  0  0  0  0  0  0  0  0
    9.8886  -15.6834   26.5453 O   0  0  0  0  0  0  0  0  0  0  0  0
   10.3488  -15.3067   27.6583 O   0  0  0  0  0  0  0  0  0  0  0  0
  2  3  1  6
  2  1  1  0
  4  2  1  0
  4  5  1  6
  6  4  1  0
  6  7  2  0
  9  8  1  0
 10  9  2  0
 11  9  1  0
 12 11  1  0
 13 14  1  0
 13 12  1  0
 15 16  1  0
 15 14  1  6
 16  6  1  0
 17 15  1  0
 18 17  2  0
 19 20  1  0
 20 21  1  0
 23 22  1  6
 22 21  1  0
 23 24  1  0
 24 17  1  0
 25 23  1  0
 25 27  1  0
 26 25  2  0
M  END
$$$$
