VRM.pdb
     RDKit          3D

 27 26  0  0  1  0  0  0  0  0999 V2000
    7.2191  -12.4989   19.5446 C   0  0  0  0  0  0  0  0  0  0  0  0
    7.6662  -13.6400   18.6729 C   0  0  1  0  0  0  0  0  0  0  0  0
    8.1138  -13.0408   17.3387 C   0  0  0  0  0  0  0  0  0  0  0  0
    8.8525  -14.3510   19.2485 C   0  0  2  0  0  0  0  0  0  0  0  0
    9.2220  -15.4685   18.3458 N   0  0  0  0  0  0  0  0  0  0  0  0
    8.6512  -14.9476   20.5822 C   0  0  0  0  0  0  0  0  0  0  0  0
    8.2900  -14.1525   21.5021 O   0  0  0  0  0  0  0  0  0  0  0  0
    5.6171  -20.8694   20.8947 N   0  0  0  0  0  0  0  0  0  0  0  0
    6.6040  -21.5364   20.1267 C   0  0  0  0  0  0  0  0  0  0  0  0
    6.2510  -22.2768   19.0893 N   0  0  0  0  0  0  0  0  0  0  0  0
    7.9858  -21.4710   20.3946 N   0  0  0  0  0  0  0  0  0  0  0  0
    8.5626  -20.6231   21.3683 C   0  0  0  0  0  0  0  0  0  0  0  0
    8.1822  -19.1661   21.2498 C   0  0  0  0  0  0  0  0  0  0  0  0
    8.9020  -18.3740   22.3179 C   0  0  0  0  0  0  0  0  0  0  0  0
    8.6903  -16.8848   22.2229 C   0  0  2  0  0  0  0  0  0  0  0  0
    8.8106  -16.2880   20.9478 N   0  0  0  0  0  0  0  0  0  0  0  0
    9.4965  -16.2011   23.2328 C   0  0  0  0  0  0  0  0  0  0  0  0
   10.4235  -15.3785   22.9172 O   0  0  0  0  0  0  0  0  0  0  0  0
    7.0480  -22.6947   18.5661 C   0  0  0  0  0  0  0  0  0  0  0  0
    6.5704  -11.1073   27.4715 S   0  0  0  0  0  0  0  0  0  0  0  0
    6.6957  -12.6054   26.5162 C   0  0  0  0  0  0  0  0  0  0  0  0
    8.3438  -13.1350   26.1478 C   0  0  0  0  0  0  0  0  0  0  0  0
    8.4677  -14.2226   25.1409 C   0  0  1  0  0  0  0  0  0  0  0  0
    9.2619  -15.3892   25.5831 N   0  0  0  0  0  0  0  0  0  0  0  0
    9.2170  -16.4817   24.5993 C   0  0  0  0  0  0  0  0  0  0  0  0
    8.7904  -16.0013   26.8564 O   0  0  0  0  0  0  0  0  0  0  0  0
    7.7298  -16.6841   26.8222 O   0  0  0  0  0  0  0  0  0  0  0  0
  2  3  1  6
  2  1  1  0
  4  2  1  0
  4  5  1  6
  6  4  1  0
  6  7  2  0
  9  8  1  0
 10  9  2  0
 11  9  1  0
 12 11  1  0
 13 14  1  0
 13 12  1  0
 15 16  1  0
 15 14  1  6
 16  6  1  0
 17 15  1  0
 18 17  2  0
 19 20  1  0
 20 21  1  0
 23 22  1  6
 22 21  1  0
 23 24  1  0
 24 17  1  0
 25 23  1  0
 25 27  1  0
 26 25  2  0
M  END
$$$$
