VRM.pdb
     RDKit          3D

 27 26  0  0  1  0  0  0  0  0999 V2000
    5.9135  -11.8733   27.1800 C   0  0  0  0  0  0  0  0  0  0  0  0
    5.9789  -12.7674   25.9724 C   0  0  1  0  0  0  0  0  0  0  0  0
    6.4669  -11.9114   24.8025 C   0  0  0  0  0  0  0  0  0  0  0  0
    6.9767  -13.8709   26.1479 C   0  0  2  0  0  0  0  0  0  0  0  0
    8.3066  -13.2718   26.4172 N   0  0  0  0  0  0  0  0  0  0  0  0
    7.1530  -14.7600   24.9845 C   0  0  0  0  0  0  0  0  0  0  0  0
    6.2584  -15.6429   24.8143 O   0  0  0  0  0  0  0  0  0  0  0  0
    8.2550  -12.1047   18.9105 N   0  0  0  0  0  0  0  0  0  0  0  0
    9.1771  -13.1773   19.0001 C   0  0  0  0  0  0  0  0  0  0  0  0
   10.4777  -12.9402   18.9676 N   0  0  0  0  0  0  0  0  0  0  0  0
    8.8007  -14.5294   19.1239 N   0  0  0  0  0  0  0  0  0  0  0  0
    7.6023  -14.9631   19.7367 C   0  0  0  0  0  0  0  0  0  0  0  0
    7.5906  -14.8764   21.2447 C   0  0  0  0  0  0  0  0  0  0  0  0
    8.7506  -15.6723   21.7992 C   0  0  0  0  0  0  0  0  0  0  0  0
    8.7385  -15.8070   23.3003 C   0  0  2  0  0  0  0  0  0  0  0  0
    8.1910  -14.7399   24.0475 N   0  0  0  0  0  0  0  0  0  0  0  0
   10.0655  -16.1934   23.7770 C   0  0  0  0  0  0  0  0  0  0  0  0
   11.1086  -15.5024   23.5125 O   0  0  0  0  0  0  0  0  0  0  0  0
   11.0724  -13.7946   18.9671 C   0  0  0  0  0  0  0  0  0  0  0  0
   10.6167  -13.5857   28.6824 S   0  0  0  0  0  0  0  0  0  0  0  0
   10.7822  -15.2614   29.2630 C   0  0  0  0  0  0  0  0  0  0  0  0
   11.2977  -16.4387   28.0462 C   0  0  0  0  0  0  0  0  0  0  0  0
   10.5884  -16.3773   26.7403 C   0  0  1  0  0  0  0  0  0  0  0  0
   11.0225  -17.3873   25.7510 N   0  0  0  0  0  0  0  0  0  0  0  0
   10.1659  -17.3801   24.5554 C   0  0  0  0  0  0  0  0  0  0  0  0
   10.9727  -18.7902   26.2489 O   0  0  0  0  0  0  0  0  0  0  0  0
   10.0005  -19.5079   25.8857 O   0  0  0  0  0  0  0  0  0  0  0  0
  2  3  1  6
  2  1  1  0
  4  2  1  0
  4  5  1  6
  6  4  1  0
  6  7  2  0
  9  8  1  0
 10  9  2  0
 11  9  1  0
 12 11  1  0
 13 14  1  0
 13 12  1  0
 15 16  1  0
 15 14  1  6
 16  6  1  0
 17 15  1  0
 18 17  2  0
 19 20  1  0
 20 21  1  0
 23 22  1  6
 22 21  1  0
 23 24  1  0
 24 17  1  0
 25 23  1  0
 25 27  1  0
 26 25  2  0
M  END
$$$$
