VRM.pdb
     RDKit          3D

 27 26  0  0  1  0  0  0  0  0999 V2000
    8.2224  -12.1011   18.4012 C   0  0  0  0  0  0  0  0  0  0  0  0
    8.5390  -12.9708   19.5867 C   0  0  1  0  0  0  0  0  0  0  0  0
    7.6489  -12.5043   20.7398 C   0  0  0  0  0  0  0  0  0  0  0  0
    8.2002  -14.4076   19.3316 C   0  0  2  0  0  0  0  0  0  0  0  0
    6.8809  -14.4731   18.6569 N   0  0  0  0  0  0  0  0  0  0  0  0
    8.0924  -15.2584   20.5315 C   0  0  0  0  0  0  0  0  0  0  0  0
    7.0514  -15.0995   21.2386 O   0  0  0  0  0  0  0  0  0  0  0  0
   12.2969  -18.8739   18.8715 N   0  0  0  0  0  0  0  0  0  0  0  0
   11.6308  -20.1075   18.6628 C   0  0  0  0  0  0  0  0  0  0  0  0
   11.6533  -20.6819   17.4718 N   0  0  0  0  0  0  0  0  0  0  0  0
   10.9171  -20.7949   19.6643 N   0  0  0  0  0  0  0  0  0  0  0  0
   10.5307  -20.2182   20.8963 C   0  0  0  0  0  0  0  0  0  0  0  0
   10.0283  -18.7967   20.8043 C   0  0  0  0  0  0  0  0  0  0  0  0
    9.5675  -18.3409   22.1705 C   0  0  0  0  0  0  0  0  0  0  0  0
    9.0209  -16.9366   22.1953 C   0  0  2  0  0  0  0  0  0  0  0  0
    9.0042  -16.2206   20.9772 N   0  0  0  0  0  0  0  0  0  0  0  0
    9.6470  -16.1767   23.2759 C   0  0  0  0  0  0  0  0  0  0  0  0
   10.2254  -15.0549   23.0691 O   0  0  0  0  0  0  0  0  0  0  0  0
   11.1708  -21.6032   17.4276 C   0  0  0  0  0  0  0  0  0  0  0  0
    7.0169  -11.3929   26.9318 S   0  0  0  0  0  0  0  0  0  0  0  0
    6.4754  -12.9703   26.3064 C   0  0  0  0  0  0  0  0  0  0  0  0
    7.5320  -14.3393   26.6830 C   0  0  0  0  0  0  0  0  0  0  0  0
    7.9886  -15.1474   25.5208 C   0  0  1  0  0  0  0  0  0  0  0  0
    9.2705  -15.8565   25.7241 N   0  0  0  0  0  0  0  0  0  0  0  0
    9.5950  -16.7295   24.5858 C   0  0  0  0  0  0  0  0  0  0  0  0
    9.2896  -16.7542   26.9125 O   0  0  0  0  0  0  0  0  0  0  0  0
    8.7745  -17.8997   26.7912 O   0  0  0  0  0  0  0  0  0  0  0  0
  2  3  1  1
  2  1  1  0
  4  2  1  0
  4  5  1  1
  6  4  1  0
  6  7  2  0
  9  8  1  0
 10  9  2  0
 11  9  1  0
 12 11  1  0
 13 14  1  0
 13 12  1  0
 15 16  1  0
 15 14  1  6
 16  6  1  0
 17 15  1  0
 18 17  2  0
 19 20  1  0
 20 21  1  0
 23 22  1  6
 22 21  1  0
 23 24  1  0
 24 17  1  0
 25 23  1  0
 25 27  1  0
 26 25  2  0
M  END
$$$$
