IRM.pdb
     RDKit          3D

 28 27  0  0  1  0  0  0  0  0999 V2000
    7.1277  -12.2793   18.7811 C   0  0  0  0  0  0  0  0  0  0  0  0
    7.8943  -13.5676   18.8724 C   0  0  0  0  0  0  0  0  0  0  0  0
    7.6184  -14.2334   20.2373 C   0  0  2  0  0  0  0  0  0  0  0  0
    7.0937  -13.0845   21.0922 C   0  0  0  0  0  0  0  0  0  0  0  0
    8.9024  -14.7694   20.7719 C   0  0  2  0  0  0  0  0  0  0  0  0
    9.3844  -15.7373   19.7754 N   0  0  0  0  0  0  0  0  0  0  0  0
    8.8620  -15.4341   22.0646 C   0  0  0  0  0  0  0  0  0  0  0  0
    8.2820  -14.8606   23.0591 O   0  0  0  0  0  0  0  0  0  0  0  0
    9.0320  -21.0620   20.4527 N   0  0  0  0  0  0  0  0  0  0  0  0
   10.4257  -21.3272   20.3121 C   0  0  0  0  0  0  0  0  0  0  0  0
   10.8415  -21.6801   19.1436 N   0  0  0  0  0  0  0  0  0  0  0  0
   11.3484  -21.2182   21.3879 N   0  0  0  0  0  0  0  0  0  0  0  0
   10.9030  -20.7802   22.7284 C   0  0  0  0  0  0  0  0  0  0  0  0
   10.3640  -19.4188   22.6373 C   0  0  0  0  0  0  0  0  0  0  0  0
    9.9349  -18.6936   23.8466 C   0  0  0  0  0  0  0  0  0  0  0  0
    9.3749  -17.3220   23.6877 C   0  0  2  0  0  0  0  0  0  0  0  0
    9.4020  -16.7056   22.4130 N   0  0  0  0  0  0  0  0  0  0  0  0
    9.8323  -16.4580   24.7952 C   0  0  0  0  0  0  0  0  0  0  0  0
   10.4440  -15.3780   24.4822 O   0  0  0  0  0  0  0  0  0  0  0  0
   11.8239  -21.9599   18.9481 C   0  0  0  0  0  0  0  0  0  0  0  0
    7.0555  -11.7517   27.8543 S   0  0  0  0  0  0  0  0  0  0  0  0
    6.9169  -12.8954   26.4149 C   0  0  0  0  0  0  0  0  0  0  0  0
    8.4463  -13.7659   26.2149 C   0  0  0  0  0  0  0  0  0  0  0  0
    8.7647  -14.8190   27.1599 C   0  0  2  0  0  0  0  0  0  0  0  0
   10.0037  -15.6361   27.1234 N   0  0  0  0  0  0  0  0  0  0  0  0
    9.6440  -16.7357   26.1467 C   0  0  0  0  0  0  0  0  0  0  0  0
   10.1998  -16.4421   28.4043 O   0  0  0  0  0  0  0  0  0  0  0  0
    9.8096  -17.5857   28.5982 O   0  0  0  0  0  0  0  0  0  0  0  0
  1  2  1  0
  2  3  1  0
  3  5  1  0
  3  4  1  1
  5  7  1  0
  5  6  1  6
  7  8  2  0
 10 12  1  0
 10  9  1  0
 11 10  2  0
 13 12  1  0
 13 14  1  0
 15 14  1  0
 16 15  1  6
 17 16  1  0
 17  7  1  0
 18 25  1  0
 18 16  1  0
 19 18  2  0
 20 21  1  0
 21 22  1  0
 22 23  1  0
 24 23  1  6
 24 25  1  0
 24 26  1  0
 26 28  1  0
 27 26  2  0
M  END
$$$$
