IRM.pdb
     RDKit          3D

 28 27  0  0  1  0  0  0  0  0999 V2000
    7.9234  -11.6036   26.9254 C   0  0  0  0  0  0  0  0  0  0  0  0
    7.4720  -13.0067   26.6374 C   0  0  0  0  0  0  0  0  0  0  0  0
    6.6315  -13.0201   25.3430 C   0  0  2  0  0  0  0  0  0  0  0  0
    5.3287  -12.3454   25.7595 C   0  0  0  0  0  0  0  0  0  0  0  0
    6.4072  -14.4368   24.9375 C   0  0  2  0  0  0  0  0  0  0  0  0
    5.8662  -15.1177   26.1234 N   0  0  0  0  0  0  0  0  0  0  0  0
    7.5612  -15.1891   24.4718 C   0  0  0  0  0  0  0  0  0  0  0  0
    8.1450  -16.0173   25.2640 O   0  0  0  0  0  0  0  0  0  0  0  0
    8.5476  -15.5777   17.5295 N   0  0  0  0  0  0  0  0  0  0  0  0
    8.1833  -14.2018   17.6111 C   0  0  0  0  0  0  0  0  0  0  0  0
    7.3952  -13.7477   16.6972 N   0  0  0  0  0  0  0  0  0  0  0  0
    8.6471  -13.3363   18.6391 N   0  0  0  0  0  0  0  0  0  0  0  0
    9.6803  -13.7828   19.5984 C   0  0  0  0  0  0  0  0  0  0  0  0
    9.1298  -14.8522   20.4382 C   0  0  0  0  0  0  0  0  0  0  0  0
    9.9597  -15.5116   21.4624 C   0  0  0  0  0  0  0  0  0  0  0  0
    9.3337  -15.8463   22.7724 C   0  0  2  0  0  0  0  0  0  0  0  0
    8.1774  -15.1423   23.1882 N   0  0  0  0  0  0  0  0  0  0  0  0
   10.3757  -15.9795   23.8111 C   0  0  0  0  0  0  0  0  0  0  0  0
   11.1230  -14.9627   24.0258 O   0  0  0  0  0  0  0  0  0  0  0  0
    7.0926  -12.7538   16.6471 C   0  0  0  0  0  0  0  0  0  0  0  0
    9.7897  -13.6549   27.9660 S   0  0  0  0  0  0  0  0  0  0  0  0
   11.1707  -14.4970   28.8509 C   0  0  0  0  0  0  0  0  0  0  0  0
   11.6534  -15.9364   27.9388 C   0  0  0  0  0  0  0  0  0  0  0  0
   11.1786  -16.0756   26.5755 C   0  0  1  0  0  0  0  0  0  0  0  0
   11.7070  -17.0587   25.5966 N   0  0  0  0  0  0  0  0  0  0  0  0
   10.5984  -17.1271   24.5677 C   0  0  0  0  0  0  0  0  0  0  0  0
   11.6820  -18.4840   26.1414 O   0  0  0  0  0  0  0  0  0  0  0  0
   10.7629  -19.2826   26.0173 O   0  0  0  0  0  0  0  0  0  0  0  0
  1  2  1  0
  2  3  1  0
  3  5  1  0
  3  4  1  1
  5  7  1  0
  5  6  1  1
  7  8  2  0
 10 12  1  0
 10  9  1  0
 11 10  2  0
 13 12  1  0
 13 14  1  0
 15 14  1  0
 16 15  1  6
 17 16  1  0
 17  7  1  0
 18 25  1  0
 18 16  1  0
 19 18  2  0
 20 21  1  0
 21 22  1  0
 22 23  1  0
 24 23  1  6
 24 25  1  0
 24 26  1  0
 26 28  1  0
 27 26  2  0
M  END
$$$$
