IRM.pdb
     RDKit          3D

 28 27  0  0  1  0  0  0  0  0999 V2000
    5.8141  -11.0216   26.9844 C   0  0  0  0  0  0  0  0  0  0  0  0
    5.4818  -12.3590   26.3873 C   0  0  0  0  0  0  0  0  0  0  0  0
    6.7862  -13.0823   25.9903 C   0  0  2  0  0  0  0  0  0  0  0  0
    7.4213  -12.1362   24.9765 C   0  0  0  0  0  0  0  0  0  0  0  0
    6.4331  -14.3906   25.3693 C   0  0  2  0  0  0  0  0  0  0  0  0
    5.7611  -15.1702   26.4195 N   0  0  0  0  0  0  0  0  0  0  0  0
    7.5229  -15.1935   24.8381 C   0  0  0  0  0  0  0  0  0  0  0  0
    8.2521  -15.8885   25.6379 O   0  0  0  0  0  0  0  0  0  0  0  0
   10.9176  -20.3539   20.2943 N   0  0  0  0  0  0  0  0  0  0  0  0
   11.8703  -19.4394   19.7570 C   0  0  0  0  0  0  0  0  0  0  0  0
   13.0873  -19.8527   19.6530 N   0  0  0  0  0  0  0  0  0  0  0  0
   11.5329  -18.1222   19.3425 N   0  0  0  0  0  0  0  0  0  0  0  0
   10.1678  -17.5897   19.5430 C   0  0  0  0  0  0  0  0  0  0  0  0
    9.9106  -17.4487   20.9804 C   0  0  0  0  0  0  0  0  0  0  0  0
    9.0788  -16.3458   21.4944 C   0  0  0  0  0  0  0  0  0  0  0  0
    8.9112  -16.2140   22.9691 C   0  0  2  0  0  0  0  0  0  0  0  0
    7.9257  -15.3338   23.4788 N   0  0  0  0  0  0  0  0  0  0  0  0
   10.2324  -16.0961   23.6193 C   0  0  0  0  0  0  0  0  0  0  0  0
   10.7444  -14.9256   23.6991 O   0  0  0  0  0  0  0  0  0  0  0  0
   13.8807  -19.2316   19.3950 C   0  0  0  0  0  0  0  0  0  0  0  0
   10.7431  -13.6349   28.1249 S   0  0  0  0  0  0  0  0  0  0  0  0
   11.1060  -15.2903   28.8508 C   0  0  0  0  0  0  0  0  0  0  0  0
   11.9414  -16.2831   27.6452 C   0  0  0  0  0  0  0  0  0  0  0  0
   11.3382  -16.4213   26.3335 C   0  0  1  0  0  0  0  0  0  0  0  0
   12.0737  -16.8189   25.1067 N   0  0  0  0  0  0  0  0  0  0  0  0
   10.9533  -17.1635   24.1484 C   0  0  0  0  0  0  0  0  0  0  0  0
   12.7519  -18.1777   25.2568 O   0  0  0  0  0  0  0  0  0  0  0  0
   12.2425  -19.2636   25.0134 O   0  0  0  0  0  0  0  0  0  0  0  0
  1  2  1  0
  2  3  1  0
  3  5  1  0
  3  4  1  6
  5  7  1  0
  5  6  1  1
  7  8  2  0
 10 12  1  0
 10  9  1  0
 11 10  2  0
 13 12  1  0
 13 14  1  0
 15 14  1  0
 16 15  1  6
 17 16  1  0
 17  7  1  0
 18 25  1  0
 18 16  1  0
 19 18  2  0
 20 21  1  0
 21 22  1  0
 22 23  1  0
 24 23  1  6
 24 25  1  0
 24 26  1  0
 26 28  1  0
 27 26  2  0
M  END
$$$$
