IRM.pdb
     RDKit          3D

 28 27  0  0  1  0  0  0  0  0999 V2000
    7.2815  -11.4522   19.2951 C   0  0  0  0  0  0  0  0  0  0  0  0
    7.4175  -12.9149   18.9827 C   0  0  0  0  0  0  0  0  0  0  0  0
    7.7283  -13.6902   20.2806 C   0  0  2  0  0  0  0  0  0  0  0  0
    9.0439  -13.0792   20.7518 C   0  0  0  0  0  0  0  0  0  0  0  0
    7.8863  -15.1338   19.9446 C   0  0  2  0  0  0  0  0  0  0  0  0
    6.5722  -15.5846   19.4627 N   0  0  0  0  0  0  0  0  0  0  0  0
    8.3061  -16.0262   21.0132 C   0  0  0  0  0  0  0  0  0  0  0  0
    7.5189  -16.2473   22.0060 O   0  0  0  0  0  0  0  0  0  0  0  0
   14.6044  -20.1726   23.5056 N   0  0  0  0  0  0  0  0  0  0  0  0
   13.7906  -20.7749   24.5094 C   0  0  0  0  0  0  0  0  0  0  0  0
   14.3446  -21.0149   25.6488 N   0  0  0  0  0  0  0  0  0  0  0  0
   12.4249  -21.1108   24.3023 N   0  0  0  0  0  0  0  0  0  0  0  0
   11.6602  -20.5226   23.1814 C   0  0  0  0  0  0  0  0  0  0  0  0
   11.6696  -19.0609   23.3047 C   0  0  0  0  0  0  0  0  0  0  0  0
   11.2835  -18.2044   22.1690 C   0  0  0  0  0  0  0  0  0  0  0  0
   10.0170  -17.4258   22.2685 C   0  0  2  0  0  0  0  0  0  0  0  0
    9.5355  -16.7367   21.1288 N   0  0  0  0  0  0  0  0  0  0  0  0
   10.0092  -16.6303   23.5133 C   0  0  0  0  0  0  0  0  0  0  0  0
   10.3707  -15.4053   23.4286 O   0  0  0  0  0  0  0  0  0  0  0  0
   13.8380  -21.4407   26.4511 C   0  0  0  0  0  0  0  0  0  0  0  0
    6.5874  -12.7515   24.9435 S   0  0  0  0  0  0  0  0  0  0  0  0
    7.3401  -13.0273   26.6038 C   0  0  0  0  0  0  0  0  0  0  0  0
    7.6235  -14.7605   26.8327 C   0  0  0  0  0  0  0  0  0  0  0  0
    8.2944  -15.4914   25.7748 C   0  0  1  0  0  0  0  0  0  0  0  0
    9.6304  -16.1254   25.9063 N   0  0  0  0  0  0  0  0  0  0  0  0
    9.6374  -17.1183   24.7633 C   0  0  0  0  0  0  0  0  0  0  0  0
    9.7055  -17.0666   27.1053 O   0  0  0  0  0  0  0  0  0  0  0  0
    9.8803  -16.7317   28.2694 O   0  0  0  0  0  0  0  0  0  0  0  0
  1  2  1  0
  2  3  1  0
  3  5  1  0
  3  4  1  6
  5  7  1  0
  5  6  1  1
  7  8  2  0
 10 12  1  0
 10  9  1  0
 11 10  2  0
 13 12  1  0
 13 14  1  0
 15 14  1  0
 16 15  1  6
 17 16  1  0
 17  7  1  0
 18 25  1  0
 18 16  1  0
 19 18  2  0
 20 21  1  0
 21 22  1  0
 22 23  1  0
 24 23  1  6
 24 25  1  0
 24 26  1  0
 26 28  1  0
 27 26  2  0
M  END
$$$$
