IRM.pdb
     RDKit          3D

 28 27  0  0  1  0  0  0  0  0999 V2000
    7.2175  -11.7942   18.8175 C   0  0  0  0  0  0  0  0  0  0  0  0
    7.6955  -13.2121   18.6878 C   0  0  0  0  0  0  0  0  0  0  0  0
    7.7390  -13.8688   20.0838 C   0  0  2  0  0  0  0  0  0  0  0  0
    8.7450  -13.0131   20.8466 C   0  0  0  0  0  0  0  0  0  0  0  0
    8.2190  -15.2719   19.9333 C   0  0  2  0  0  0  0  0  0  0  0  0
    7.2505  -15.9400   19.0513 N   0  0  0  0  0  0  0  0  0  0  0  0
    8.3504  -16.0665   21.1440 C   0  0  0  0  0  0  0  0  0  0  0  0
    7.2976  -16.4160   21.7951 O   0  0  0  0  0  0  0  0  0  0  0  0
    9.7441  -20.9185   19.6636 N   0  0  0  0  0  0  0  0  0  0  0  0
   11.1340  -20.9049   19.3469 C   0  0  0  0  0  0  0  0  0  0  0  0
   11.4624  -21.1865   18.1322 N   0  0  0  0  0  0  0  0  0  0  0  0
   12.1437  -20.5994   20.2998 N   0  0  0  0  0  0  0  0  0  0  0  0
   11.7935  -20.2783   21.7003 C   0  0  0  0  0  0  0  0  0  0  0  0
   10.9657  -19.0674   21.7257 C   0  0  0  0  0  0  0  0  0  0  0  0
   10.4855  -18.5072   23.0016 C   0  0  0  0  0  0  0  0  0  0  0  0
    9.6546  -17.2710   22.9634 C   0  0  2  0  0  0  0  0  0  0  0  0
    9.5464  -16.5456   21.7519 N   0  0  0  0  0  0  0  0  0  0  0  0
    9.9314  -16.4390   24.1523 C   0  0  0  0  0  0  0  0  0  0  0  0
   11.0920  -15.9058   24.2376 O   0  0  0  0  0  0  0  0  0  0  0  0
   12.4486  -21.2732   17.8133 C   0  0  0  0  0  0  0  0  0  0  0  0
    7.5938  -11.2107   27.4498 S   0  0  0  0  0  0  0  0  0  0  0  0
    6.7284  -12.4246   26.3649 C   0  0  0  0  0  0  0  0  0  0  0  0
    7.8996  -13.6150   25.7750 C   0  0  0  0  0  0  0  0  0  0  0  0
    8.4880  -14.5312   26.7330 C   0  0  2  0  0  0  0  0  0  0  0  0
    9.5606  -15.5071   26.4149 N   0  0  0  0  0  0  0  0  0  0  0  0
    9.0224  -16.1962   25.1788 C   0  0  0  0  0  0  0  0  0  0  0  0
    9.5919  -16.6705   27.4021 O   0  0  0  0  0  0  0  0  0  0  0  0
   10.0164  -16.6259   28.5491 O   0  0  0  0  0  0  0  0  0  0  0  0
  1  2  1  0
  2  3  1  0
  3  5  1  0
  3  4  1  1
  5  7  1  0
  5  6  1  6
  7  8  2  0
 10 12  1  0
 10  9  1  0
 11 10  2  0
 13 12  1  0
 13 14  1  0
 15 14  1  0
 16 15  1  6
 17 16  1  0
 17  7  1  0
 18 25  1  0
 18 16  1  0
 19 18  2  0
 20 21  1  0
 21 22  1  0
 22 23  1  0
 24 23  1  6
 24 25  1  0
 24 26  1  0
 26 28  1  0
 27 26  2  0
M  END
$$$$
