TCS.pdb
     RDKit          3D

 20 19  0  0  1  0  0  0  0  0999 V2000
   18.7893  -12.6335  -15.7592 C   0  0  0  0  0  0  0  0  0  0  0  0
   17.6767  -13.5354  -15.3829 C   0  0  1  0  0  0  0  0  0  0  0  0
   18.0616  -14.8505  -15.6462 O   0  0  0  0  0  0  0  0  0  0  0  0
   17.2373  -13.4600  -13.9580 C   0  0  2  0  0  0  0  0  0  0  0  0
   16.2721  -14.5225  -13.7459 N   0  0  0  0  0  0  0  0  0  0  0  0
   16.6572  -12.1870  -13.5542 C   0  0  0  0  0  0  0  0  0  0  0  0
   15.5503  -11.8175  -14.0146 O   0  0  0  0  0  0  0  0  0  0  0  0
   17.3361  -11.3526  -12.6377 N   0  0  0  0  0  0  0  0  0  0  0  0
   16.8048   -9.9938  -12.3564 C   0  0  1  0  0  0  0  0  0  0  0  0
   17.0622   -9.7977  -10.8744 C   0  0  0  0  0  0  0  0  0  0  0  0
   16.3750   -8.2573  -10.2882 S   0  0  0  0  0  0  0  0  0  0  0  0
   17.6100   -9.0082  -13.0987 C   0  0  0  0  0  0  0  0  0  0  0  0
   18.8882   -8.9930  -13.0349 O   0  0  0  0  0  0  0  0  0  0  0  0
   15.8042   -6.3824  -15.7505 O   0  0  0  0  0  0  0  0  0  0  0  0
   17.0986   -6.8049  -16.0432 C   0  0  0  0  0  0  0  0  0  0  0  0
   17.8211   -7.1135  -14.7459 C   0  0  2  0  0  0  0  0  0  0  0  0
   17.0356   -8.0242  -13.9242 N   0  0  0  0  0  0  0  0  0  0  0  0
   18.0655   -5.8773  -13.9604 C   0  0  0  0  0  0  0  0  0  0  0  0
   17.4272   -5.6433  -12.9054 O   0  0  0  0  0  0  0  0  0  0  0  0
   19.0014   -4.9212  -14.3415 O   0  0  0  0  0  0  0  0  0  0  0  0
  2  3  1  0
  2  1  1  1
  4  5  1  6
  4  2  1  0
  6  4  1  0
  7  6  2  0
  8  6  1  0
  9  8  1  0
  9 12  1  0
  9 10  1  1
 11 10  1  0
 12 17  1  0
 13 12  2  0
 14 15  1  0
 16 15  1  6
 16 18  1  0
 17 16  1  0
 18 20  1  0
 19 18  2  0
M  END
$$$$
