TCS.pdb
     RDKit          3D

 20 19  0  0  1  0  0  0  0  0999 V2000
   25.4594  -13.2304  -15.7217 C   0  0  0  0  0  0  0  0  0  0  0  0
   24.5680  -12.1131  -16.1091 C   0  0  1  0  0  0  0  0  0  0  0  0
   24.8247  -11.7800  -17.4396 O   0  0  0  0  0  0  0  0  0  0  0  0
   23.1047  -12.3770  -15.9738 C   0  0  2  0  0  0  0  0  0  0  0  0
   22.7597  -13.4062  -16.9368 N   0  0  0  0  0  0  0  0  0  0  0  0
   22.2447  -11.2185  -16.1696 C   0  0  0  0  0  0  0  0  0  0  0  0
   21.8147  -10.9311  -17.3124 O   0  0  0  0  0  0  0  0  0  0  0  0
   21.8845  -10.4042  -15.0722 N   0  0  0  0  0  0  0  0  0  0  0  0
   21.0141   -9.2211  -15.2965 C   0  0  1  0  0  0  0  0  0  0  0  0
   19.7980   -9.4896  -14.4305 C   0  0  0  0  0  0  0  0  0  0  0  0
   18.6930   -8.0873  -14.3995 S   0  0  0  0  0  0  0  0  0  0  0  0
   21.6976   -8.0252  -14.7735 C   0  0  0  0  0  0  0  0  0  0  0  0
   22.3569   -8.0480  -13.6768 O   0  0  0  0  0  0  0  0  0  0  0  0
   23.0086   -3.3842  -15.4822 O   0  0  0  0  0  0  0  0  0  0  0  0
   22.2967   -4.4794  -15.9651 C   0  0  0  0  0  0  0  0  0  0  0  0
   22.3854   -5.6083  -14.9563 C   0  0  2  0  0  0  0  0  0  0  0  0
   21.6753   -6.7853  -15.4382 N   0  0  0  0  0  0  0  0  0  0  0  0
   21.7920   -5.2123  -13.6540 C   0  0  0  0  0  0  0  0  0  0  0  0
   20.5682   -5.3704  -13.4250 O   0  0  0  0  0  0  0  0  0  0  0  0
   22.5455   -4.6519  -12.6277 O   0  0  0  0  0  0  0  0  0  0  0  0
  2  3  1  0
  2  1  1  6
  4  5  1  6
  4  2  1  0
  6  4  1  0
  7  6  2  0
  8  6  1  0
  9  8  1  0
  9 12  1  0
  9 10  1  1
 11 10  1  0
 12 17  1  0
 13 12  2  0
 14 15  1  0
 16 15  1  6
 16 18  1  0
 17 16  1  0
 18 20  1  0
 19 18  2  0
M  END
$$$$
