TCS.pdb
     RDKit          3D

 20 19  0  0  1  0  0  0  0  0999 V2000
   19.4179  -13.3718  -16.4945 C   0  0  0  0  0  0  0  0  0  0  0  0
   19.5352  -11.9955  -17.0285 C   0  0  1  0  0  0  0  0  0  0  0  0
   18.3954  -11.7120  -17.7819 O   0  0  0  0  0  0  0  0  0  0  0  0
   19.6934  -10.9175  -16.0078 C   0  0  2  0  0  0  0  0  0  0  0  0
   18.4954  -10.9175  -15.1890 N   0  0  0  0  0  0  0  0  0  0  0  0
   19.9165   -9.5826  -16.5447 C   0  0  0  0  0  0  0  0  0  0  0  0
   20.9222   -9.3422  -17.2550 O   0  0  0  0  0  0  0  0  0  0  0  0
   19.0008   -8.5416  -16.2710 N   0  0  0  0  0  0  0  0  0  0  0  0
   19.2762   -7.1744  -16.7833 C   0  0  1  0  0  0  0  0  0  0  0  0
   17.9847   -6.7714  -17.4693 C   0  0  0  0  0  0  0  0  0  0  0  0
   17.7429   -7.6722  -18.9921 S   0  0  0  0  0  0  0  0  0  0  0  0
   19.4896   -6.2739  -15.6368 C   0  0  0  0  0  0  0  0  0  0  0  0
   18.6163   -6.1384  -14.7110 O   0  0  0  0  0  0  0  0  0  0  0  0
   23.1691   -5.4505  -14.2695 O   0  0  0  0  0  0  0  0  0  0  0  0
   22.0386   -5.2970  -13.4708 C   0  0  0  0  0  0  0  0  0  0  0  0
   20.9258   -4.6902  -14.3036 C   0  0  2  0  0  0  0  0  0  0  0  0
   20.6593   -5.5078  -15.4792 N   0  0  0  0  0  0  0  0  0  0  0  0
   21.2829   -3.3240  -14.7629 C   0  0  0  0  0  0  0  0  0  0  0  0
   21.5127   -3.0870  -15.9738 O   0  0  0  0  0  0  0  0  0  0  0  0
   21.3822   -2.2437  -13.8921 O   0  0  0  0  0  0  0  0  0  0  0  0
  2  3  1  0
  2  1  1  1
  4  5  1  6
  4  2  1  0
  6  4  1  0
  7  6  2  0
  8  6  1  0
  9  8  1  0
  9 12  1  0
  9 10  1  1
 11 10  1  0
 12 17  1  0
 13 12  2  0
 14 15  1  0
 16 15  1  6
 16 18  1  0
 17 16  1  0
 18 20  1  0
 19 18  2  0
M  END
$$$$
