TCS.pdb
     RDKit          3D

 20 19  0  0  1  0  0  0  0  0999 V2000
   18.3712  -15.4538  -17.3851 C   0  0  0  0  0  0  0  0  0  0  0  0
   18.9598  -14.4666  -16.4513 C   0  0  1  0  0  0  0  0  0  0  0  0
   20.1026  -15.0242  -15.8768 O   0  0  0  0  0  0  0  0  0  0  0  0
   19.3395  -13.1541  -17.0532 C   0  0  2  0  0  0  0  0  0  0  0  0
   20.2844  -13.4247  -18.1207 N   0  0  0  0  0  0  0  0  0  0  0  0
   19.9147  -12.1897  -16.1262 C   0  0  0  0  0  0  0  0  0  0  0  0
   19.3226  -11.9021  -15.0584 O   0  0  0  0  0  0  0  0  0  0  0  0
   21.1484  -11.5663  -16.4203 N   0  0  0  0  0  0  0  0  0  0  0  0
   21.6603  -10.5011  -15.5198 C   0  0  1  0  0  0  0  0  0  0  0  0
   23.1630  -10.5374  -15.7240 C   0  0  0  0  0  0  0  0  0  0  0  0
   23.9481  -11.6907  -14.6095 S   0  0  0  0  0  0  0  0  0  0  0  0
   21.1615   -9.1991  -15.9961 C   0  0  0  0  0  0  0  0  0  0  0  0
   21.2907   -8.8297  -17.2147 O   0  0  0  0  0  0  0  0  0  0  0  0
   17.7755   -7.9490  -15.5480 O   0  0  0  0  0  0  0  0  0  0  0  0
   18.5270   -6.8507  -15.1374 C   0  0  0  0  0  0  0  0  0  0  0  0
   19.9531   -7.0196  -15.6251 C   0  0  2  0  0  0  0  0  0  0  0  0
   20.5120   -8.2790  -15.1526 N   0  0  0  0  0  0  0  0  0  0  0  0
   20.8211   -5.9178  -15.1377 C   0  0  0  0  0  0  0  0  0  0  0  0
   21.7845   -6.1450  -14.3661 O   0  0  0  0  0  0  0  0  0  0  0  0
   20.6207   -4.5902  -15.5018 O   0  0  0  0  0  0  0  0  0  0  0  0
  2  3  1  0
  2  1  1  6
  4  5  1  6
  4  2  1  0
  6  4  1  0
  7  6  2  0
  8  6  1  0
  9  8  1  0
  9 12  1  0
  9 10  1  6
 11 10  1  0
 12 17  1  0
 13 12  2  0
 14 15  1  0
 16 15  1  1
 16 18  1  0
 17 16  1  0
 18 20  1  0
 19 18  2  0
M  END
$$$$
