TCS.pdb
     RDKit          3D

 20 19  0  0  1  0  0  0  0  0999 V2000
   14.1443   -9.8134  -10.6211 C   0  0  0  0  0  0  0  0  0  0  0  0
   14.8328  -11.0588  -10.2115 C   0  0  1  0  0  0  0  0  0  0  0  0
   14.0735  -12.1484  -10.6398 O   0  0  0  0  0  0  0  0  0  0  0  0
   16.2214  -11.2310  -10.7325 C   0  0  2  0  0  0  0  0  0  0  0  0
   16.7176  -12.4991  -10.2312 N   0  0  0  0  0  0  0  0  0  0  0  0
   17.1528  -10.1692  -10.3787 C   0  0  0  0  0  0  0  0  0  0  0  0
   17.4378   -9.9467   -9.1775 O   0  0  0  0  0  0  0  0  0  0  0  0
   17.7469   -9.3766  -11.3868 N   0  0  0  0  0  0  0  0  0  0  0  0
   18.5918   -8.2174  -10.9998 C   0  0  1  0  0  0  0  0  0  0  0  0
   19.6700   -8.1758  -12.0661 C   0  0  0  0  0  0  0  0  0  0  0  0
   20.6985   -6.7253  -11.9019 S   0  0  0  0  0  0  0  0  0  0  0  0
   17.7871   -6.9881  -11.1096 C   0  0  0  0  0  0  0  0  0  0  0  0
   17.0295   -6.7630  -12.1163 O   0  0  0  0  0  0  0  0  0  0  0  0
   16.0732   -2.9774   -8.9637 O   0  0  0  0  0  0  0  0  0  0  0  0
   16.8403   -4.1332   -8.8408 C   0  0  0  0  0  0  0  0  0  0  0  0
   16.9806   -4.7788  -10.2060 C   0  0  2  0  0  0  0  0  0  0  0  0
   17.7933   -5.9848  -10.1231 N   0  0  0  0  0  0  0  0  0  0  0  0
   17.6241   -3.8541  -11.1734 C   0  0  0  0  0  0  0  0  0  0  0  0
   18.8617   -3.8902  -11.3790 O   0  0  0  0  0  0  0  0  0  0  0  0
   16.9047   -2.9087  -11.8971 O   0  0  0  0  0  0  0  0  0  0  0  0
  2  3  1  0
  2  1  1  6
  4  5  1  1
  4  2  1  0
  6  4  1  0
  7  6  2  0
  8  6  1  0
  9  8  1  0
  9 12  1  0
  9 10  1  6
 11 10  1  0
 12 17  1  0
 13 12  2  0
 14 15  1  0
 16 15  1  1
 16 18  1  0
 17 16  1  0
 18 20  1  0
 19 18  2  0
M  END
$$$$
