TCS.pdb
     RDKit          3D

 20 19  0  0  1  0  0  0  0  0999 V2000
   18.9514   -9.3029  -19.2159 C   0  0  0  0  0  0  0  0  0  0  0  0
   18.7739  -10.6960  -18.7463 C   0  0  1  0  0  0  0  0  0  0  0  0
   18.3311  -11.4734  -19.8172 O   0  0  0  0  0  0  0  0  0  0  0  0
   19.9912  -11.3462  -18.1767 C   0  0  2  0  0  0  0  0  0  0  0  0
   19.6375  -12.7147  -17.8484 N   0  0  0  0  0  0  0  0  0  0  0  0
   20.5517  -10.6927  -17.0025 C   0  0  0  0  0  0  0  0  0  0  0  0
   19.9016  -10.6430  -15.9308 O   0  0  0  0  0  0  0  0  0  0  0  0
   21.8364  -10.1065  -17.0577 N   0  0  0  0  0  0  0  0  0  0  0  0
   22.3469   -9.3561  -15.8813 C   0  0  1  0  0  0  0  0  0  0  0  0
   23.8447   -9.5940  -15.9148 C   0  0  0  0  0  0  0  0  0  0  0  0
   24.3154  -10.9571  -14.8617 S   0  0  0  0  0  0  0  0  0  0  0  0
   22.1034   -7.9188  -16.0952 C   0  0  0  0  0  0  0  0  0  0  0  0
   22.3852   -7.3422  -17.2025 O   0  0  0  0  0  0  0  0  0  0  0  0
   19.8661   -5.6911  -13.3856 O   0  0  0  0  0  0  0  0  0  0  0  0
   19.8551   -5.3596  -14.7382 C   0  0  0  0  0  0  0  0  0  0  0  0
   21.2090   -5.6887  -15.3372 C   0  0  2  0  0  0  0  0  0  0  0  0
   21.5470   -7.0867  -15.1064 N   0  0  0  0  0  0  0  0  0  0  0  0
   22.2787   -4.8505  -14.7388 C   0  0  0  0  0  0  0  0  0  0  0  0
   23.1691   -5.3568  -14.0135 O   0  0  0  0  0  0  0  0  0  0  0  0
   22.3557   -3.4767  -14.9437 O   0  0  0  0  0  0  0  0  0  0  0  0
  2  3  1  0
  2  1  1  6
  4  5  1  1
  4  2  1  0
  6  4  1  0
  7  6  2  0
  8  6  1  0
  9  8  1  0
  9 12  1  0
  9 10  1  6
 11 10  1  0
 12 17  1  0
 13 12  2  0
 14 15  1  0
 16 15  1  1
 16 18  1  0
 17 16  1  0
 18 20  1  0
 19 18  2  0
M  END
$$$$
