TCS.pdb
     RDKit          3D

 20 19  0  0  1  0  0  0  0  0999 V2000
   18.8887   -8.9207  -19.2398 C   0  0  0  0  0  0  0  0  0  0  0  0
   18.2522  -10.1379  -18.6864 C   0  0  1  0  0  0  0  0  0  0  0  0
   17.6943  -10.8657  -19.7381 O   0  0  0  0  0  0  0  0  0  0  0  0
   19.1553  -11.0493  -17.9228 C   0  0  2  0  0  0  0  0  0  0  0  0
   18.3567  -12.1757  -17.4766 N   0  0  0  0  0  0  0  0  0  0  0  0
   19.8255  -10.4444  -16.7805 C   0  0  0  0  0  0  0  0  0  0  0  0
   19.1876  -10.1861  -15.7317 O   0  0  0  0  0  0  0  0  0  0  0  0
   21.2046  -10.1414  -16.8412 N   0  0  0  0  0  0  0  0  0  0  0  0
   21.8606   -9.4919  -15.6769 C   0  0  1  0  0  0  0  0  0  0  0  0
   23.2579  -10.0821  -15.6654 C   0  0  0  0  0  0  0  0  0  0  0  0
   23.3901  -11.4306  -14.5022 S   0  0  0  0  0  0  0  0  0  0  0  0
   21.9725   -8.0470  -15.9426 C   0  0  0  0  0  0  0  0  0  0  0  0
   22.3511   -7.5952  -17.0787 O   0  0  0  0  0  0  0  0  0  0  0  0
   20.4107   -3.7051  -15.6312 O   0  0  0  0  0  0  0  0  0  0  0  0
   20.3218   -5.0722  -15.3808 C   0  0  0  0  0  0  0  0  0  0  0  0
   21.7216   -5.6397  -15.2428 C   0  0  2  0  0  0  0  0  0  0  0  0
   21.6719   -7.0706  -14.9751 N   0  0  0  0  0  0  0  0  0  0  0  0
   22.4580   -4.9873  -14.1306 C   0  0  0  0  0  0  0  0  0  0  0  0
   22.4401   -5.4686  -12.9716 O   0  0  0  0  0  0  0  0  0  0  0  0
   23.1992   -3.8231  -14.3050 O   0  0  0  0  0  0  0  0  0  0  0  0
  2  3  1  0
  2  1  1  6
  4  5  1  1
  4  2  1  0
  6  4  1  0
  7  6  2  0
  8  6  1  0
  9  8  1  0
  9 12  1  0
  9 10  1  6
 11 10  1  0
 12 17  1  0
 13 12  2  0
 14 15  1  0
 16 15  1  1
 16 18  1  0
 17 16  1  0
 18 20  1  0
 19 18  2  0
M  END
$$$$
