TCS.pdb
     RDKit          3D

 20 19  0  0  1  0  0  0  0  0999 V2000
   18.3029   -8.4782  -19.0746 C   0  0  0  0  0  0  0  0  0  0  0  0
   17.8264   -9.7345  -18.4518 C   0  0  1  0  0  0  0  0  0  0  0  0
   17.2440  -10.5282  -19.4407 O   0  0  0  0  0  0  0  0  0  0  0  0
   18.8692  -10.5494  -17.7609 C   0  0  2  0  0  0  0  0  0  0  0  0
   18.2322  -11.7709  -17.3050 N   0  0  0  0  0  0  0  0  0  0  0  0
   19.5259   -9.8942  -16.6386 C   0  0  0  0  0  0  0  0  0  0  0  0
   18.9194   -9.7324  -15.5525 O   0  0  0  0  0  0  0  0  0  0  0  0
   20.8561   -9.4328  -16.7612 N   0  0  0  0  0  0  0  0  0  0  0  0
   21.5018   -8.7541  -15.6079 C   0  0  1  0  0  0  0  0  0  0  0  0
   22.8806   -9.3824  -15.5362 C   0  0  0  0  0  0  0  0  0  0  0  0
   22.9349  -10.7093  -14.3424 S   0  0  0  0  0  0  0  0  0  0  0  0
   21.6624   -7.3253  -15.9294 C   0  0  0  0  0  0  0  0  0  0  0  0
   22.0742   -6.9317  -17.0755 O   0  0  0  0  0  0  0  0  0  0  0  0
   20.3037   -2.8117  -15.1128 O   0  0  0  0  0  0  0  0  0  0  0  0
   20.1781   -4.1745  -14.8547 C   0  0  0  0  0  0  0  0  0  0  0  0
   21.4242   -4.8858  -15.3461 C   0  0  2  0  0  0  0  0  0  0  0  0
   21.3749   -6.3017  -15.0077 N   0  0  0  0  0  0  0  0  0  0  0  0
   22.6482   -4.3077  -14.7356 C   0  0  0  0  0  0  0  0  0  0  0  0
   23.0171   -4.6415  -13.5833 O   0  0  0  0  0  0  0  0  0  0  0  0
   23.4452   -3.3771  -15.3943 O   0  0  0  0  0  0  0  0  0  0  0  0
  2  3  1  0
  2  1  1  6
  4  5  1  1
  4  2  1  0
  6  4  1  0
  7  6  2  0
  8  6  1  0
  9  8  1  0
  9 12  1  0
  9 10  1  6
 11 10  1  0
 12 17  1  0
 13 12  2  0
 14 15  1  0
 16 15  1  1
 16 18  1  0
 17 16  1  0
 18 20  1  0
 19 18  2  0
M  END
$$$$
