MEQ.pdb
     RDKit          3D

 27 26  0  0  1  0  0  0  0  0999 V2000
   19.9918  -15.5337  -17.4212 C   0  0  0  0  0  0  0  0  0  0  0  0
   18.7148  -16.0560  -16.2511 S   0  0  0  0  0  0  0  0  0  0  0  0
   18.0083  -14.5909  -15.4900 C   0  0  0  0  0  0  0  0  0  0  0  0
   18.3947  -13.3220  -16.1599 C   0  0  0  0  0  0  0  0  0  0  0  0
   17.9722  -12.0714  -15.4678 C   0  0  2  0  0  0  0  0  0  0  0  0
   16.4813  -12.2111  -15.3495 N   0  0  0  0  0  0  0  0  0  0  0  0
   18.2579  -10.8244  -16.2014 C   0  0  0  0  0  0  0  0  0  0  0  0
   19.4231  -10.4138  -16.4854 O   0  0  0  0  0  0  0  0  0  0  0  0
   17.2139   -9.9759  -16.6514 N   0  0  0  0  0  0  0  0  0  0  0  0
   17.5317   -8.7277  -17.3597 C   0  0  1  0  0  0  0  0  0  0  0  0
   16.2229   -8.4004  -18.0531 C   0  0  0  0  0  0  0  0  0  0  0  0
   15.9727   -9.0432  -19.3536 C   0  0  0  0  0  0  0  0  0  0  0  0
   14.6780   -8.7334  -19.9675 C   0  0  0  0  0  0  0  0  0  0  0  0
   13.8634   -7.9746  -19.3994 O   0  0  0  0  0  0  0  0  0  0  0  0
   17.8250   -7.6540  -16.3899 C   0  0  0  0  0  0  0  0  0  0  0  0
   17.4038   -7.7088  -15.2101 O   0  0  0  0  0  0  0  0  0  0  0  0
   14.3290   -9.2738  -21.1887 O   0  0  0  0  0  0  0  0  0  0  0  0
   22.5404   -6.6160  -13.8964 N   0  0  0  0  0  0  0  0  0  0  0  0
   21.9347   -5.4097  -13.4640 C   0  0  0  0  0  0  0  0  0  0  0  0
   22.4474   -4.7365  -12.5532 O   0  0  0  0  0  0  0  0  0  0  0  0
   20.6860   -4.9615  -14.1091 C   0  0  0  0  0  0  0  0  0  0  0  0
   20.3020   -5.9289  -15.1910 C   0  0  0  0  0  0  0  0  0  0  0  0
   18.9574   -5.5028  -15.7682 C   0  0  2  0  0  0  0  0  0  0  0  0
   18.5931   -6.5371  -16.7641 N   0  0  0  0  0  0  0  0  0  0  0  0
   19.1798   -4.1875  -16.4004 C   0  0  0  0  0  0  0  0  0  0  0  0
   18.8858   -3.0418  -15.6851 O   0  0  0  0  0  0  0  0  0  0  0  0
   19.6251   -4.0675  -17.5617 O   0  0  0  0  0  0  0  0  0  0  0  0
  2  3  1  0
  2  1  1  0
  4  5  1  0
  4  3  1  0
  5  6  1  6
  7  5  1  0
  7  8  2  0
  9  7  1  0
 10  9  1  0
 10 11  1  1
 12 11  1  0
 13 12  1  0
 14 13  2  0
 15 10  1  0
 16 15  2  0
 17 13  1  0
 19 18  1  0
 20 19  2  0
 21 19  1  0
 22 21  1  0
 23 22  1  6
 23 24  1  0
 24 15  1  0
 25 23  1  0
 26 25  1  0
 27 25  2  0
M  END
$$$$
