MEQ.pdb
     RDKit          3D

 27 26  0  0  1  0  0  0  0  0999 V2000
   15.9075  -14.0486  -17.2325 C   0  0  0  0  0  0  0  0  0  0  0  0
   16.5492  -12.4925  -16.5696 S   0  0  0  0  0  0  0  0  0  0  0  0
   17.8475  -12.8710  -15.3881 C   0  0  0  0  0  0  0  0  0  0  0  0
   18.4464  -11.6699  -14.7503 C   0  0  0  0  0  0  0  0  0  0  0  0
   19.0620  -10.6828  -15.6820 C   0  0  2  0  0  0  0  0  0  0  0  0
   20.3036  -11.3734  -16.1696 N   0  0  0  0  0  0  0  0  0  0  0  0
   19.4624   -9.4053  -15.0634 C   0  0  0  0  0  0  0  0  0  0  0  0
   19.8955   -9.2909  -13.8775 O   0  0  0  0  0  0  0  0  0  0  0  0
   19.3866   -8.1823  -15.7781 N   0  0  0  0  0  0  0  0  0  0  0  0
   19.9696   -6.9586  -15.2094 C   0  0  1  0  0  0  0  0  0  0  0  0
   21.4592   -7.2053  -15.3548 C   0  0  0  0  0  0  0  0  0  0  0  0
   22.3628   -6.1139  -14.9557 C   0  0  0  0  0  0  0  0  0  0  0  0
   22.3053   -5.7384  -13.5397 C   0  0  0  0  0  0  0  0  0  0  0  0
   22.5162   -4.5605  -13.1791 O   0  0  0  0  0  0  0  0  0  0  0  0
   19.6089   -5.7916  -16.0384 C   0  0  0  0  0  0  0  0  0  0  0  0
   19.7858   -5.7943  -17.2798 O   0  0  0  0  0  0  0  0  0  0  0  0
   22.0165   -6.6789  -12.5717 O   0  0  0  0  0  0  0  0  0  0  0  0
   16.4949   -0.7783  -13.8918 N   0  0  0  0  0  0  0  0  0  0  0  0
   16.4983   -0.5405  -15.2892 C   0  0  0  0  0  0  0  0  0  0  0  0
   15.8715    0.4206  -15.7678 O   0  0  0  0  0  0  0  0  0  0  0  0
   17.2562   -1.4488  -16.1705 C   0  0  0  0  0  0  0  0  0  0  0  0
   17.8368   -2.5705  -15.3591 C   0  0  0  0  0  0  0  0  0  0  0  0
   18.5560   -3.5289  -16.3009 C   0  0  2  0  0  0  0  0  0  0  0  0
   19.0493   -4.6407  -15.4552 N   0  0  0  0  0  0  0  0  0  0  0  0
   19.6660   -2.7614  -16.8992 C   0  0  0  0  0  0  0  0  0  0  0  0
   19.4847   -2.1761  -18.1382 O   0  0  0  0  0  0  0  0  0  0  0  0
   20.7682   -2.6189  -16.3281 O   0  0  0  0  0  0  0  0  0  0  0  0
  2  3  1  0
  2  1  1  0
  4  5  1  0
  4  3  1  0
  5  6  1  1
  7  5  1  0
  7  8  2  0
  9  7  1  0
 10  9  1  0
 10 11  1  6
 12 11  1  0
 13 12  1  0
 14 13  2  0
 15 10  1  0
 16 15  2  0
 17 13  1  0
 19 18  1  0
 20 19  2  0
 21 19  1  0
 22 21  1  0
 23 22  1  1
 23 24  1  0
 24 15  1  0
 25 23  1  0
 26 25  1  0
 27 25  2  0
M  END
$$$$
