MEQ.pdb
     RDKit          3D

 27 26  0  0  1  0  0  0  0  0999 V2000
   25.0473  -16.5720  -17.2554 C   0  0  0  0  0  0  0  0  0  0  0  0
   23.9806  -15.2311  -16.6748 S   0  0  0  0  0  0  0  0  0  0  0  0
   24.8976  -14.2523  -15.4807 C   0  0  0  0  0  0  0  0  0  0  0  0
   24.1192  -13.1247  -14.9057 C   0  0  0  0  0  0  0  0  0  0  0  0
   23.2456  -12.3883  -15.8628 C   0  0  2  0  0  0  0  0  0  0  0  0
   24.2111  -11.7957  -16.8491 N   0  0  0  0  0  0  0  0  0  0  0  0
   22.4613  -11.2875  -15.2728 C   0  0  0  0  0  0  0  0  0  0  0  0
   21.6092  -11.4347  -14.3459 O   0  0  0  0  0  0  0  0  0  0  0  0
   22.6143   -9.9495  -15.7185 N   0  0  0  0  0  0  0  0  0  0  0  0
   21.6903   -8.9063  -15.2507 C   0  0  1  0  0  0  0  0  0  0  0  0
   22.6169   -7.9446  -14.5313 C   0  0  0  0  0  0  0  0  0  0  0  0
   22.4722   -6.5131  -14.8427 C   0  0  0  0  0  0  0  0  0  0  0  0
   22.3954   -5.6231  -13.6802 C   0  0  0  0  0  0  0  0  0  0  0  0
   22.4860   -6.0753  -12.5186 O   0  0  0  0  0  0  0  0  0  0  0  0
   21.0938   -8.2024  -16.4031 C   0  0  0  0  0  0  0  0  0  0  0  0
   21.7404   -8.0217  -17.4622 O   0  0  0  0  0  0  0  0  0  0  0  0
   22.2212   -4.2636  -13.8430 O   0  0  0  0  0  0  0  0  0  0  0  0
   16.0490   -9.3454  -19.0600 N   0  0  0  0  0  0  0  0  0  0  0  0
   16.4175   -8.1867  -19.7885 C   0  0  0  0  0  0  0  0  0  0  0  0
   15.8523   -7.9082  -20.8603 O   0  0  0  0  0  0  0  0  0  0  0  0
   17.4819   -7.3135  -19.2587 C   0  0  0  0  0  0  0  0  0  0  0  0
   18.0664   -7.9262  -18.0191 C   0  0  0  0  0  0  0  0  0  0  0  0
   19.1764   -7.0170  -17.5053 C   0  0  2  0  0  0  0  0  0  0  0  0
   19.7752   -7.7172  -16.3454 N   0  0  0  0  0  0  0  0  0  0  0  0
   18.5223   -5.7553  -17.1058 C   0  0  0  0  0  0  0  0  0  0  0  0
   18.6228   -4.6558  -17.9374 O   0  0  0  0  0  0  0  0  0  0  0  0
   17.8784   -5.6406  -16.0412 O   0  0  0  0  0  0  0  0  0  0  0  0
  2  3  1  0
  2  1  1  0
  4  5  1  0
  4  3  1  0
  5  6  1  6
  7  5  1  0
  7  8  2  0
  9  7  1  0
 10  9  1  0
 10 11  1  1
 12 11  1  0
 13 12  1  0
 14 13  2  0
 15 10  1  0
 16 15  2  0
 17 13  1  0
 19 18  1  0
 20 19  2  0
 21 19  1  0
 22 21  1  0
 23 22  1  1
 23 24  1  0
 24 15  1  0
 25 23  1  0
 26 25  1  0
 27 25  2  0
M  END
$$$$
