MEQ.pdb
     RDKit          3D

 27 26  0  0  1  0  0  0  0  0999 V2000
   28.5080  -11.4383  -15.5767 C   0  0  0  0  0  0  0  0  0  0  0  0
   27.5135  -12.9494  -15.5578 S   0  0  0  0  0  0  0  0  0  0  0  0
   26.8118  -13.1879  -17.1935 C   0  0  0  0  0  0  0  0  0  0  0  0
   25.8121  -12.1561  -17.5732 C   0  0  0  0  0  0  0  0  0  0  0  0
   24.4140  -12.4161  -17.1272 C   0  0  2  0  0  0  0  0  0  0  0  0
   24.0074  -13.6336  -17.9074 N   0  0  0  0  0  0  0  0  0  0  0  0
   23.4522  -11.3390  -17.4265 C   0  0  0  0  0  0  0  0  0  0  0  0
   23.2825  -10.8322  -18.5760 O   0  0  0  0  0  0  0  0  0  0  0  0
   22.6279  -10.7821  -16.4152 N   0  0  0  0  0  0  0  0  0  0  0  0
   21.7096   -9.6800  -16.7362 C   0  0  1  0  0  0  0  0  0  0  0  0
   20.4031  -10.1523  -16.1272 C   0  0  0  0  0  0  0  0  0  0  0  0
   19.6070  -11.1134  -16.9079 C   0  0  0  0  0  0  0  0  0  0  0  0
   18.3365  -11.5171  -16.2979 C   0  0  0  0  0  0  0  0  0  0  0  0
   18.3121  -12.3025  -15.3261 O   0  0  0  0  0  0  0  0  0  0  0  0
   22.1297   -8.4492  -16.0377 C   0  0  0  0  0  0  0  0  0  0  0  0
   22.7657   -8.4974  -14.9581 O   0  0  0  0  0  0  0  0  0  0  0  0
   17.1368  -11.0378  -16.7841 O   0  0  0  0  0  0  0  0  0  0  0  0
   22.4714   -1.0752  -16.7292 N   0  0  0  0  0  0  0  0  0  0  0  0
   22.1301   -2.3912  -17.1303 C   0  0  0  0  0  0  0  0  0  0  0  0
   21.5375   -2.5903  -18.2050 O   0  0  0  0  0  0  0  0  0  0  0  0
   22.4872   -3.5241  -16.2555 C   0  0  0  0  0  0  0  0  0  0  0  0
   21.9492   -4.7993  -16.8370 C   0  0  0  0  0  0  0  0  0  0  0  0
   22.3225   -5.9505  -15.9107 C   0  0  2  0  0  0  0  0  0  0  0  0
   21.8304   -7.1825  -16.5700 N   0  0  0  0  0  0  0  0  0  0  0  0
   21.6241   -5.6950  -14.6355 C   0  0  0  0  0  0  0  0  0  0  0  0
   20.3761   -6.2532  -14.4314 O   0  0  0  0  0  0  0  0  0  0  0  0
   22.1179   -4.9912  -13.7289 O   0  0  0  0  0  0  0  0  0  0  0  0
  2  3  1  0
  2  1  1  0
  4  5  1  0
  4  3  1  0
  5  6  1  6
  7  5  1  0
  7  8  2  0
  9  7  1  0
 10  9  1  0
 10 11  1  1
 12 11  1  0
 13 12  1  0
 14 13  2  0
 15 10  1  0
 16 15  2  0
 17 13  1  0
 19 18  1  0
 20 19  2  0
 21 19  1  0
 22 21  1  0
 23 22  1  6
 23 24  1  0
 24 15  1  0
 25 23  1  0
 26 25  1  0
 27 25  2  0
M  END
$$$$
