MEQ.pdb
     RDKit          3D

 27 26  0  0  1  0  0  0  0  0999 V2000
   18.9064  -15.0138  -19.4504 C   0  0  0  0  0  0  0  0  0  0  0  0
   20.4282  -14.1036  -19.0919 S   0  0  0  0  0  0  0  0  0  0  0  0
   20.1885  -12.3879  -19.5649 C   0  0  0  0  0  0  0  0  0  0  0  0
   21.4383  -11.5840  -19.5579 C   0  0  0  0  0  0  0  0  0  0  0  0
   21.9380  -11.1782  -18.2136 C   0  0  2  0  0  0  0  0  0  0  0  0
   21.4613  -12.2757  -17.3056 N   0  0  0  0  0  0  0  0  0  0  0  0
   21.4021   -9.9009  -17.7074 C   0  0  0  0  0  0  0  0  0  0  0  0
   21.5281   -8.7881  -18.3014 O   0  0  0  0  0  0  0  0  0  0  0  0
   20.6880   -9.8321  -16.4836 N   0  0  0  0  0  0  0  0  0  0  0  0
   20.1651   -8.5438  -16.0063 C   0  0  1  0  0  0  0  0  0  0  0  0
   19.0598   -8.9682  -15.0581 C   0  0  0  0  0  0  0  0  0  0  0  0
   17.7736   -9.3590  -15.6580 C   0  0  0  0  0  0  0  0  0  0  0  0
   17.2195  -10.6297  -15.1810 C   0  0  0  0  0  0  0  0  0  0  0  0
   17.4239  -11.0203  -14.0115 O   0  0  0  0  0  0  0  0  0  0  0  0
   21.1986   -7.8337  -15.2272 C   0  0  0  0  0  0  0  0  0  0  0  0
   21.9721   -8.4503  -14.4566 O   0  0  0  0  0  0  0  0  0  0  0  0
   16.4585  -11.4245  -16.0143 O   0  0  0  0  0  0  0  0  0  0  0  0
   22.3144   -2.1278  -16.7272 N   0  0  0  0  0  0  0  0  0  0  0  0
   21.1900   -2.4501  -15.9267 C   0  0  0  0  0  0  0  0  0  0  0  0
   20.1795   -1.7258  -15.9360 O   0  0  0  0  0  0  0  0  0  0  0  0
   21.2331   -3.6578  -15.0807 C   0  0  0  0  0  0  0  0  0  0  0  0
   22.5462   -4.3600  -15.2708 C   0  0  0  0  0  0  0  0  0  0  0  0
   22.4535   -5.7426  -14.6363 C   0  0  2  0  0  0  0  0  0  0  0  0
   21.3472   -6.4393  -15.3327 N   0  0  0  0  0  0  0  0  0  0  0  0
   22.1489   -5.5203  -13.2091 C   0  0  0  0  0  0  0  0  0  0  0  0
   23.1373   -5.0189  -12.3831 O   0  0  0  0  0  0  0  0  0  0  0  0
   21.0283   -5.7684  -12.7153 O   0  0  0  0  0  0  0  0  0  0  0  0
  2  3  1  0
  2  1  1  0
  4  5  1  0
  4  3  1  0
  5  6  1  1
  7  5  1  0
  7  8  2  0
  9  7  1  0
 10  9  1  0
 10 11  1  1
 12 11  1  0
 13 12  1  0
 14 13  2  0
 15 10  1  0
 16 15  2  0
 17 13  1  0
 19 18  1  0
 20 19  2  0
 21 19  1  0
 22 21  1  0
 23 22  1  6
 23 24  1  0
 24 15  1  0
 25 23  1  0
 26 25  1  0
 27 25  2  0
M  END
$$$$
