RLN.pdb
     RDKit          3D

 28 27  0  0  1  0  0  0  0  0999 V2000
   26.1750  -19.4629  -16.5722 N   0  0  0  0  0  0  0  0  0  0  0  0
   24.8494  -19.2260  -17.0274 C   0  0  0  0  0  0  0  0  0  0  0  0
   24.6723  -19.1767  -18.3053 N   0  0  0  0  0  0  0  0  0  0  0  0
   23.7475  -19.0455  -16.1322 N   0  0  0  0  0  0  0  0  0  0  0  0
   24.0010  -19.0455  -14.7120 C   0  0  0  0  0  0  0  0  0  0  0  0
   24.1026  -20.4814  -14.1745 C   0  0  0  0  0  0  0  0  0  0  0  0
   24.1532  -20.3575  -12.6840 C   0  0  0  0  0  0  0  0  0  0  0  0
   25.5881  -20.4105  -12.1490 C   0  0  2  0  0  0  0  0  0  0  0  0
   26.3986  -21.2866  -12.9609 N   0  0  0  0  0  0  0  0  0  0  0  0
   25.4822  -20.9774  -10.7917 C   0  0  0  0  0  0  0  0  0  0  0  0
   25.3344  -22.2054  -10.6504 O   0  0  0  0  0  0  0  0  0  0  0  0
   23.7476  -19.0036  -18.7565 C   0  0  0  0  0  0  0  0  0  0  0  0
   28.1672  -20.9215   -7.4459 C   0  0  2  0  0  0  0  0  0  0  0  0
   27.3543  -19.6661   -7.6580 C   0  0  0  0  0  0  0  0  0  0  0  0
   27.9269  -18.5023   -6.8645 C   0  0  0  0  0  0  0  0  0  0  0  0
   25.9028  -19.8877   -7.3109 C   0  0  2  0  0  0  0  0  0  0  0  0
   25.2370  -20.7143   -8.3583 N   0  0  0  0  0  0  0  0  0  0  0  0
   25.5467  -20.1469   -9.6563 C   0  0  0  0  0  0  0  0  0  0  0  0
   23.7702  -20.7878   -8.1933 O   0  0  0  0  0  0  0  0  0  0  0  0
   23.0266  -20.0446   -8.8691 N   0  0  0  0  0  0  0  0  0  0  0  0
   18.9441  -22.0969   -8.8414 C   0  0  0  0  0  0  0  0  0  0  0  0
   19.9209  -23.0498   -8.4376 O   0  0  0  0  0  0  0  0  0  0  0  0
   19.5133  -24.1670   -8.0924 C   0  0  0  0  0  0  0  0  0  0  0  0
   21.3198  -22.6774   -8.4480 C   0  0  1  0  0  0  0  0  0  0  0  0
   21.7417  -21.8455   -7.2706 N   0  0  0  0  0  0  0  0  0  0  0  0
   23.2062  -21.6857   -7.2827 C   0  0  0  0  0  0  0  0  0  0  0  0
   21.4508  -22.4990   -5.9597 O   0  0  0  0  0  0  0  0  0  0  0  0
   20.2466  -22.3120   -5.2983 O   0  0  0  0  0  0  0  0  0  0  0  0
  1  2  1  0
  2  4  1  0
  3  2  2  0
  4  5  1  0
  5  6  1  0
  7  6  1  0
  8  9  1  6
  8  7  1  0
 10  8  1  0
 11 10  2  0
 13 14  1  1
 13 12  1  0
 15 13  1  0
 16 15  1  6
 16 17  1  0
 17 10  1  0
 18 16  1  0
 18 19  2  0
 21 20  1  0
 21 22  2  0
 23 21  1  0
 24 23  1  6
 24 25  1  0
 25 18  1  0
 26 24  1  0
 27 26  1  0
 28 26  2  0
M  END
$$$$
