RLN.pdb
     RDKit          3D

 28 27  0  0  1  0  0  0  0  0999 V2000
   22.9478  -21.8443  -18.0688 N   0  0  0  0  0  0  0  0  0  0  0  0
   23.3316  -20.7808  -18.9303 C   0  0  0  0  0  0  0  0  0  0  0  0
   22.3808  -20.0719  -19.4402 N   0  0  0  0  0  0  0  0  0  0  0  0
   24.6996  -20.4909  -19.2350 N   0  0  0  0  0  0  0  0  0  0  0  0
   25.7328  -21.2549  -18.5793 C   0  0  0  0  0  0  0  0  0  0  0  0
   26.6027  -20.3504  -17.6924 C   0  0  0  0  0  0  0  0  0  0  0  0
   25.9057  -20.2821  -16.3699 C   0  0  0  0  0  0  0  0  0  0  0  0
   26.5692  -21.1807  -15.3210 C   0  0  2  0  0  0  0  0  0  0  0  0
   27.0425  -22.4020  -15.9278 N   0  0  0  0  0  0  0  0  0  0  0  0
   25.5061  -21.5080  -14.3528 C   0  0  0  0  0  0  0  0  0  0  0  0
   24.8368  -22.5464  -14.5054 O   0  0  0  0  0  0  0  0  0  0  0  0
   22.5393  -19.2088  -20.0045 C   0  0  0  0  0  0  0  0  0  0  0  0
   25.6419  -22.3428  -10.0858 C   0  0  1  0  0  0  0  0  0  0  0  0
   25.7440  -20.8709  -10.4094 C   0  0  0  0  0  0  0  0  0  0  0  0
   26.1143  -20.0633   -9.1754 C   0  0  0  0  0  0  0  0  0  0  0  0
   24.4662  -20.3545  -11.0233 C   0  0  2  0  0  0  0  0  0  0  0  0
   24.1997  -21.0362  -12.3225 N   0  0  0  0  0  0  0  0  0  0  0  0
   25.2406  -20.6607  -13.2597 C   0  0  0  0  0  0  0  0  0  0  0  0
   22.8800  -20.6977  -12.8950 O   0  0  0  0  0  0  0  0  0  0  0  0
   22.6908  -19.5747  -13.4100 N   0  0  0  0  0  0  0  0  0  0  0  0
   17.7747  -22.8172  -15.1385 C   0  0  0  0  0  0  0  0  0  0  0  0
   18.3109  -22.1746  -13.9876 O   0  0  0  0  0  0  0  0  0  0  0  0
   17.5693  -21.3916  -13.3790 C   0  0  0  0  0  0  0  0  0  0  0  0
   19.6730  -22.4593  -13.5879 C   0  0  1  0  0  0  0  0  0  0  0  0
   20.5324  -21.2381  -13.4258 N   0  0  0  0  0  0  0  0  0  0  0  0
   21.8372  -21.6279  -12.8638 C   0  0  0  0  0  0  0  0  0  0  0  0
   19.9803  -20.2622  -12.4394 O   0  0  0  0  0  0  0  0  0  0  0  0
   19.1938  -19.1894  -12.8308 O   0  0  0  0  0  0  0  0  0  0  0  0
  1  2  1  0
  2  4  1  0
  3  2  2  0
  4  5  1  0
  5  6  1  0
  7  6  1  0
  8  9  1  6
  8  7  1  0
 10  8  1  0
 11 10  2  0
 13 14  1  1
 13 12  1  0
 15 13  1  0
 16 15  1  1
 16 17  1  0
 17 10  1  0
 18 16  1  0
 18 19  2  0
 21 20  1  0
 21 22  2  0
 23 21  1  0
 24 23  1  6
 24 25  1  0
 25 18  1  0
 26 24  1  0
 27 26  1  0
 28 26  2  0
M  END
$$$$
