RLN.pdb
     RDKit          3D

 28 27  0  0  1  0  0  0  0  0999 V2000
   25.3218  -26.7240  -21.5481 N   0  0  0  0  0  0  0  0  0  0  0  0
   26.3511  -25.8051  -21.8897 C   0  0  0  0  0  0  0  0  0  0  0  0
   26.7062  -25.7627  -23.1301 N   0  0  0  0  0  0  0  0  0  0  0  0
   26.9806  -24.9583  -20.9228 N   0  0  0  0  0  0  0  0  0  0  0  0
   26.7492  -25.2140  -19.5220 C   0  0  0  0  0  0  0  0  0  0  0  0
   25.2882  -24.9212  -19.1466 C   0  0  0  0  0  0  0  0  0  0  0  0
   25.1695  -25.2371  -17.6886 C   0  0  0  0  0  0  0  0  0  0  0  0
   26.2642  -24.5568  -16.8599 C   0  0  2  0  0  0  0  0  0  0  0  0
   27.1574  -25.5409  -16.2966 N   0  0  0  0  0  0  0  0  0  0  0  0
   25.5582  -23.8678  -15.7637 C   0  0  0  0  0  0  0  0  0  0  0  0
   24.8211  -24.5218  -15.0030 O   0  0  0  0  0  0  0  0  0  0  0  0
   27.4319  -25.1130  -23.5040 C   0  0  0  0  0  0  0  0  0  0  0  0
   27.0345  -22.0343  -12.1294 C   0  0  2  0  0  0  0  0  0  0  0  0
   27.2666  -21.2355  -13.3903 C   0  0  0  0  0  0  0  0  0  0  0  0
   28.2284  -20.0847  -13.1403 C   0  0  0  0  0  0  0  0  0  0  0  0
   25.9667  -20.7310  -13.9667 C   0  0  2  0  0  0  0  0  0  0  0  0
   25.1093  -21.8729  -14.3963 N   0  0  0  0  0  0  0  0  0  0  0  0
   25.7086  -22.4814  -15.5681 C   0  0  0  0  0  0  0  0  0  0  0  0
   23.7219  -21.4708  -14.7087 O   0  0  0  0  0  0  0  0  0  0  0  0
   23.4741  -20.8449  -15.7617 N   0  0  0  0  0  0  0  0  0  0  0  0
   18.3782  -21.5900  -14.8253 C   0  0  0  0  0  0  0  0  0  0  0  0
   18.9535  -21.7016  -13.5285 O   0  0  0  0  0  0  0  0  0  0  0  0
   18.2402  -21.3940  -12.5641 C   0  0  0  0  0  0  0  0  0  0  0  0
   20.3204  -22.1603  -13.3976 C   0  0  1  0  0  0  0  0  0  0  0  0
   21.3168  -21.3482  -14.1747 N   0  0  0  0  0  0  0  0  0  0  0  0
   22.6808  -21.7860  -13.8311 C   0  0  0  0  0  0  0  0  0  0  0  0
   21.2922  -19.8979  -13.8194 O   0  0  0  0  0  0  0  0  0  0  0  0
   20.4961  -18.9894  -14.5002 O   0  0  0  0  0  0  0  0  0  0  0  0
  1  2  1  0
  2  4  1  0
  3  2  2  0
  4  5  1  0
  5  6  1  0
  7  6  1  0
  8  9  1  1
  8  7  1  0
 10  8  1  0
 11 10  2  0
 13 14  1  6
 13 12  1  0
 15 13  1  0
 16 15  1  1
 16 17  1  0
 17 10  1  0
 18 16  1  0
 18 19  2  0
 21 20  1  0
 21 22  2  0
 23 21  1  0
 24 23  1  6
 24 25  1  0
 25 18  1  0
 26 24  1  0
 27 26  1  0
 28 26  2  0
M  END
$$$$
