RLN.pdb
     RDKit          3D

 28 27  0  0  1  0  0  0  0  0999 V2000
   30.1178  -18.4835  -18.5512 N   0  0  0  0  0  0  0  0  0  0  0  0
   29.2011  -17.7885  -19.3861 C   0  0  0  0  0  0  0  0  0  0  0  0
   29.4884  -17.7280  -20.6433 N   0  0  0  0  0  0  0  0  0  0  0  0
   28.0109  -17.1748  -18.8811 N   0  0  0  0  0  0  0  0  0  0  0  0
   27.4644  -17.6462  -17.6319 C   0  0  0  0  0  0  0  0  0  0  0  0
   26.6935  -18.9601  -17.8332 C   0  0  0  0  0  0  0  0  0  0  0  0
   25.8784  -19.1502  -16.5926 C   0  0  0  0  0  0  0  0  0  0  0  0
   26.6840  -19.8092  -15.4682 C   0  0  2  0  0  0  0  0  0  0  0  0
   27.6554  -20.7276  -16.0131 N   0  0  0  0  0  0  0  0  0  0  0  0
   25.7019  -20.5681  -14.6718 C   0  0  0  0  0  0  0  0  0  0  0  0
   25.2806  -21.6597  -15.0969 O   0  0  0  0  0  0  0  0  0  0  0  0
   28.8698  -17.2885  -21.3593 C   0  0  0  0  0  0  0  0  0  0  0  0
   25.9894  -22.3710  -10.8462 C   0  0  2  0  0  0  0  0  0  0  0  0
   25.7522  -20.8845  -10.7209 C   0  0  0  0  0  0  0  0  0  0  0  0
   25.9239  -20.4218   -9.2827 C   0  0  0  0  0  0  0  0  0  0  0  0
   24.3917  -20.5000  -11.2479 C   0  0  2  0  0  0  0  0  0  0  0  0
   24.2722  -20.8563  -12.6909 N   0  0  0  0  0  0  0  0  0  0  0  0
   25.2366  -20.0728  -13.4384 C   0  0  0  0  0  0  0  0  0  0  0  0
   22.9196  -20.6184  -13.2368 O   0  0  0  0  0  0  0  0  0  0  0  0
   22.5149  -19.4500  -13.4185 N   0  0  0  0  0  0  0  0  0  0  0  0
   18.2190  -21.2009  -15.1811 C   0  0  0  0  0  0  0  0  0  0  0  0
   18.9400  -22.3960  -15.4583 O   0  0  0  0  0  0  0  0  0  0  0  0
   18.3829  -23.2409  -16.1719 C   0  0  0  0  0  0  0  0  0  0  0  0
   20.2664  -22.5673  -14.9040 C   0  0  1  0  0  0  0  0  0  0  0  0
   20.7370  -21.4095  -14.0707 N   0  0  0  0  0  0  0  0  0  0  0  0
   22.0859  -21.6951  -13.5518 C   0  0  0  0  0  0  0  0  0  0  0  0
   19.9070  -21.1946  -12.8480 O   0  0  0  0  0  0  0  0  0  0  0  0
   20.0054  -22.0224  -11.7400 O   0  0  0  0  0  0  0  0  0  0  0  0
  1  2  1  0
  2  4  1  0
  3  2  2  0
  4  5  1  0
  5  6  1  0
  7  6  1  0
  8  9  1  6
  8  7  1  0
 10  8  1  0
 11 10  2  0
 13 14  1  6
 13 12  1  0
 15 13  1  0
 16 15  1  1
 16 17  1  0
 17 10  1  0
 18 16  1  0
 18 19  2  0
 21 20  1  0
 21 22  2  0
 23 21  1  0
 24 23  1  6
 24 25  1  0
 25 18  1  0
 26 24  1  0
 27 26  1  0
 28 26  2  0
M  END
$$$$
