RLN.pdb
     RDKit          3D

 28 27  0  0  1  0  0  0  0  0999 V2000
   22.7128  -17.6161  -19.3016 N   0  0  0  0  0  0  0  0  0  0  0  0
   22.0110  -17.3040  -18.1055 C   0  0  0  0  0  0  0  0  0  0  0  0
   21.1944  -16.3052  -18.1528 N   0  0  0  0  0  0  0  0  0  0  0  0
   22.1853  -18.0450  -16.8936 N   0  0  0  0  0  0  0  0  0  0  0  0
   23.0891  -19.1695  -16.8925 C   0  0  0  0  0  0  0  0  0  0  0  0
   24.5510  -18.6964  -16.9052 C   0  0  0  0  0  0  0  0  0  0  0  0
   25.3168  -19.7134  -16.1187 C   0  0  0  0  0  0  0  0  0  0  0  0
   26.8091  -19.3756  -16.0372 C   0  0  2  0  0  0  0  0  0  0  0  0
   27.4346  -19.5321  -17.3287 N   0  0  0  0  0  0  0  0  0  0  0  0
   27.3860  -20.3604  -15.1033 C   0  0  0  0  0  0  0  0  0  0  0  0
   27.7136  -21.4852  -15.5243 O   0  0  0  0  0  0  0  0  0  0  0  0
   20.5803  -16.0197  -17.3591 C   0  0  0  0  0  0  0  0  0  0  0  0
   30.3498  -20.4910   -9.7866 C   0  0  1  0  0  0  0  0  0  0  0  0
   29.7222  -21.2345  -10.9421 C   0  0  0  0  0  0  0  0  0  0  0  0
   30.7288  -22.1571  -11.6111 C   0  0  0  0  0  0  0  0  0  0  0  0
   29.1205  -20.2815  -11.9452 C   0  0  2  0  0  0  0  0  0  0  0  0
   28.2202  -21.0122  -12.8829 N   0  0  0  0  0  0  0  0  0  0  0  0
   27.5703  -20.0430  -13.7438 C   0  0  0  0  0  0  0  0  0  0  0  0
   27.1933  -21.8186  -12.1907 O   0  0  0  0  0  0  0  0  0  0  0  0
   27.5316  -22.6455  -11.3167 N   0  0  0  0  0  0  0  0  0  0  0  0
   24.2411  -21.5178   -8.7758 C   0  0  0  0  0  0  0  0  0  0  0  0
   25.2132  -20.5283   -9.0932 O   0  0  0  0  0  0  0  0  0  0  0  0
   25.6595  -19.8520   -8.1568 C   0  0  0  0  0  0  0  0  0  0  0  0
   25.6284  -20.3597  -10.4698 C   0  0  2  0  0  0  0  0  0  0  0  0
   24.9121  -21.2549  -11.4404 N   0  0  0  0  0  0  0  0  0  0  0  0
   25.8412  -21.6633  -12.5083 C   0  0  0  0  0  0  0  0  0  0  0  0
   23.8001  -20.5651  -12.1598 O   0  0  0  0  0  0  0  0  0  0  0  0
   22.4838  -20.6546  -11.7333 O   0  0  0  0  0  0  0  0  0  0  0  0
  1  2  1  0
  2  4  1  0
  3  2  2  0
  4  5  1  0
  5  6  1  0
  7  6  1  0
  8  9  1  6
  8  7  1  0
 10  8  1  0
 11 10  2  0
 13 14  1  6
 13 12  1  0
 15 13  1  0
 16 15  1  6
 16 17  1  0
 17 10  1  0
 18 16  1  0
 18 19  2  0
 21 20  1  0
 21 22  2  0
 23 21  1  0
 24 23  1  1
 24 25  1  0
 25 18  1  0
 26 24  1  0
 27 26  1  0
 28 26  2  0
M  END
$$$$
