RLN.pdb
     RDKit          3D

 28 27  0  0  1  0  0  0  0  0999 V2000
   19.5780  -22.3463  -11.9364 N   0  0  0  0  0  0  0  0  0  0  0  0
   19.4509  -20.9844  -12.3234 C   0  0  0  0  0  0  0  0  0  0  0  0
   18.5643  -20.2822  -11.7009 N   0  0  0  0  0  0  0  0  0  0  0  0
   20.2539  -20.3970  -13.3521 N   0  0  0  0  0  0  0  0  0  0  0  0
   21.5834  -20.9118  -13.5727 C   0  0  0  0  0  0  0  0  0  0  0  0
   22.2816  -21.2136  -12.2375 C   0  0  0  0  0  0  0  0  0  0  0  0
   23.6497  -20.6171  -12.3475 C   0  0  0  0  0  0  0  0  0  0  0  0
   24.5073  -21.3302  -13.3981 C   0  0  2  0  0  0  0  0  0  0  0  0
   24.8581  -22.6565  -12.9493 N   0  0  0  0  0  0  0  0  0  0  0  0
   25.7365  -20.5242  -13.5169 C   0  0  0  0  0  0  0  0  0  0  0  0
   25.6494  -19.3046  -13.7510 O   0  0  0  0  0  0  0  0  0  0  0  0
   18.3416  -19.2899  -11.9342 C   0  0  0  0  0  0  0  0  0  0  0  0
   28.6212  -19.9160  -10.7122 C   0  0  2  0  0  0  0  0  0  0  0  0
   28.9587  -21.1942  -11.4429 C   0  0  0  0  0  0  0  0  0  0  0  0
   30.0666  -21.9553  -10.7320 C   0  0  0  0  0  0  0  0  0  0  0  0
   29.3326  -20.9224  -12.8791 C   0  0  2  0  0  0  0  0  0  0  0  0
   28.1854  -20.3104  -13.6093 N   0  0  0  0  0  0  0  0  0  0  0  0
   27.0050  -21.1175  -13.3684 C   0  0  0  0  0  0  0  0  0  0  0  0
   28.4159  -20.2022  -15.0650 O   0  0  0  0  0  0  0  0  0  0  0  0
   29.3587  -19.5060  -15.4991 N   0  0  0  0  0  0  0  0  0  0  0  0
   28.7339  -22.8550  -20.2259 C   0  0  0  0  0  0  0  0  0  0  0  0
   27.8756  -21.9545  -19.5349 O   0  0  0  0  0  0  0  0  0  0  0  0
   27.2394  -21.1413  -20.2185 C   0  0  0  0  0  0  0  0  0  0  0  0
   27.7869  -22.0279  -18.0917 C   0  0  1  0  0  0  0  0  0  0  0  0
   27.8150  -20.6913  -17.4069 N   0  0  0  0  0  0  0  0  0  0  0  0
   27.5832  -20.8749  -15.9636 C   0  0  0  0  0  0  0  0  0  0  0  0
   26.7120  -19.7861  -17.8475 O   0  0  0  0  0  0  0  0  0  0  0  0
   26.9369  -18.7191  -18.7039 O   0  0  0  0  0  0  0  0  0  0  0  0
  1  2  1  0
  2  4  1  0
  3  2  2  0
  4  5  1  0
  5  6  1  0
  7  6  1  0
  8  9  1  1
  8  7  1  0
 10  8  1  0
 11 10  2  0
 13 14  1  6
 13 12  1  0
 15 13  1  0
 16 15  1  1
 16 17  1  0
 17 10  1  0
 18 16  1  0
 18 19  2  0
 21 20  1  0
 21 22  2  0
 23 21  1  0
 24 23  1  1
 24 25  1  0
 25 18  1  0
 26 24  1  0
 27 26  1  0
 28 26  2  0
M  END
$$$$
