RLN.pdb
     RDKit          3D

 28 27  0  0  1  0  0  0  0  0999 V2000
   17.4024  -34.6323   -5.5527 N   0  0  0  0  0  0  0  0  0  0  0  0
   17.6369  -36.0208   -5.3587 C   0  0  0  0  0  0  0  0  0  0  0  0
   16.6573  -36.7168   -4.8868 N   0  0  0  0  0  0  0  0  0  0  0  0
   18.8905  -36.6408   -5.6623 N   0  0  0  0  0  0  0  0  0  0  0  0
   19.5717  -36.2682   -6.8782 C   0  0  0  0  0  0  0  0  0  0  0  0
   20.8267  -37.1297   -7.0881 C   0  0  0  0  0  0  0  0  0  0  0  0
   21.8068  -36.6848   -6.0484 C   0  0  0  0  0  0  0  0  0  0  0  0
   22.7183  -35.5632   -6.5571 C   0  0  2  0  0  0  0  0  0  0  0  0
   23.1995  -35.8651   -7.8841 N   0  0  0  0  0  0  0  0  0  0  0  0
   23.8631  -35.5334   -5.6280 C   0  0  0  0  0  0  0  0  0  0  0  0
   24.8928  -36.1765   -5.9035 O   0  0  0  0  0  0  0  0  0  0  0  0
   16.7106  -37.7420   -4.7009 C   0  0  0  0  0  0  0  0  0  0  0  0
   26.4909  -32.4057   -4.6618 C   0  0  2  0  0  0  0  0  0  0  0  0
   25.1964  -32.2214   -3.9054 C   0  0  0  0  0  0  0  0  0  0  0  0
   25.1631  -30.8768   -3.1962 C   0  0  0  0  0  0  0  0  0  0  0  0
   24.9673  -33.3478   -2.9280 C   0  0  2  0  0  0  0  0  0  0  0  0
   25.0044  -34.6627   -3.6304 N   0  0  0  0  0  0  0  0  0  0  0  0
   23.8046  -34.7869   -4.4353 C   0  0  0  0  0  0  0  0  0  0  0  0
   25.0947  -35.8118   -2.7054 O   0  0  0  0  0  0  0  0  0  0  0  0
   24.0691  -36.2320   -2.1278 N   0  0  0  0  0  0  0  0  0  0  0  0
   28.4981  -40.7305   -1.5509 C   0  0  0  0  0  0  0  0  0  0  0  0
   27.5248  -39.7486   -1.2139 O   0  0  0  0  0  0  0  0  0  0  0  0
   26.7614  -40.0073   -0.2738 C   0  0  0  0  0  0  0  0  0  0  0  0
   27.4714  -38.5157   -1.9708 C   0  0  2  0  0  0  0  0  0  0  0  0
   26.3616  -37.5909   -1.5591 N   0  0  0  0  0  0  0  0  0  0  0  0
   26.3239  -36.4340   -2.4704 C   0  0  0  0  0  0  0  0  0  0  0  0
   26.5718  -36.9918   -0.2074 O   0  0  0  0  0  0  0  0  0  0  0  0
   26.4501  -37.7402    0.9535 O   0  0  0  0  0  0  0  0  0  0  0  0
  1  2  1  0
  2  4  1  0
  3  2  2  0
  4  5  1  0
  5  6  1  0
  7  6  1  0
  8  9  1  6
  8  7  1  0
 10  8  1  0
 11 10  2  0
 13 14  1  1
 13 12  1  0
 15 13  1  0
 16 15  1  6
 16 17  1  0
 17 10  1  0
 18 16  1  0
 18 19  2  0
 21 20  1  0
 21 22  2  0
 23 21  1  0
 24 23  1  6
 24 25  1  0
 25 18  1  0
 26 24  1  0
 27 26  1  0
 28 26  2  0
M  END
$$$$
