PLY.pdb
     RDKit          3D

 28 29  0  0  1  0  0  0  0  0999 V2000
    7.3064  -16.2885   21.1694 N   0  0  0  0  0  0  0  0  0  0  0  0
    6.1443  -15.8520   20.4419 C   0  0  0  0  0  0  0  0  0  0  0  0
    6.5403  -14.6094   19.6814 C   0  0  0  0  0  0  0  0  0  0  0  0
    7.7066  -14.0536   20.4653 C   0  0  0  0  0  0  0  0  0  0  0  0
    8.2875  -15.2591   21.1222 C   0  0  1  0  0  0  0  0  0  0  0  0
    8.8333  -15.0005   22.4736 C   0  0  0  0  0  0  0  0  0  0  0  0
   10.0392  -14.7567   22.6597 O   0  0  0  0  0  0  0  0  0  0  0  0
    5.3794  -12.7269   26.3868 C   0  0  0  0  0  0  0  0  0  0  0  0
    6.6365  -12.8335   25.4905 C   0  0  1  0  0  0  0  0  0  0  0  0
    7.5073  -11.6887   25.8572 C   0  0  0  0  0  0  0  0  0  0  0  0
    7.1577  -14.1963   25.7017 C   0  0  0  0  0  0  0  0  0  0  0  0
    8.3460  -14.6447   24.9419 C   0  0  2  0  0  0  0  0  0  0  0  0
    7.9726  -15.0270   23.6026 N   0  0  0  0  0  0  0  0  0  0  0  0
    9.1507  -15.6666   25.6321 C   0  0  0  0  0  0  0  0  0  0  0  0
    8.7919  -16.8628   25.5439 O   0  0  0  0  0  0  0  0  0  0  0  0
   14.9679  -19.6167   30.9847 O   0  0  0  0  0  0  0  0  0  0  0  0
   14.3276  -18.7032   30.1597 C   0  0  0  0  0  0  0  0  0  0  0  0
   14.6555  -18.6243   28.8251 C   0  0  0  0  0  0  0  0  0  0  0  0
   14.0258  -17.7206   27.9963 C   0  0  0  0  0  0  0  0  0  0  0  0
   13.0369  -16.8543   28.4718 C   0  0  0  0  0  0  0  0  0  0  0  0
   12.3796  -15.8779   27.5771 C   0  0  0  0  0  0  0  0  0  0  0  0
   11.0576  -16.4116   27.1237 C   0  0  2  0  0  0  0  0  0  0  0  0
   10.3098  -15.3802   26.3924 N   0  0  0  0  0  0  0  0  0  0  0  0
   10.2073  -16.9137   28.2035 C   0  0  0  0  0  0  0  0  0  0  0  0
    9.4869  -16.0055   28.9889 O   0  0  0  0  0  0  0  0  0  0  0  0
   12.7407  -16.9687   29.8171 C   0  0  0  0  0  0  0  0  0  0  0  0
   13.3560  -17.8615   30.6580 C   0  0  0  0  0  0  0  0  0  0  0  0
   10.0710  -18.1410   28.4879 O   0  0  0  0  0  0  0  0  0  0  0  0
  1  2  1  0
  3  2  1  0
  4  5  1  0
  4  3  1  0
  5  6  1  1
  5  1  1  0
  6  7  2  0
  9  8  1  1
  9 10  1  0
 11  9  1  0
 12 11  1  1
 13 12  1  0
 13  6  1  0
 14 12  1  0
 14 15  2  0
 16 17  1  0
 17 18  2  0
 17 27  1  0
 18 19  1  0
 19 20  2  0
 20 21  1  0
 22 21  1  1
 22 23  1  0
 22 24  1  0
 23 14  1  0
 24 28  2  0
 24 25  1  0
 26 20  1  0
 27 26  2  0
M  END
$$$$
