PLY.pdb
     RDKit          3D

 28 29  0  0  1  0  0  0  0  0999 V2000
    6.9730  -15.8812   20.3382 N   0  0  0  0  0  0  0  0  0  0  0  0
    6.1139  -15.3452   19.3160 C   0  0  0  0  0  0  0  0  0  0  0  0
    6.9965  -14.6036   18.3413 C   0  0  0  0  0  0  0  0  0  0  0  0
    8.2168  -14.2374   19.1541 C   0  0  0  0  0  0  0  0  0  0  0  0
    8.2623  -15.2941   20.2045 C   0  0  1  0  0  0  0  0  0  0  0  0
    8.7520  -14.8142   21.5164 C   0  0  0  0  0  0  0  0  0  0  0  0
    9.9385  -14.4841   21.6941 O   0  0  0  0  0  0  0  0  0  0  0  0
    7.3630  -11.4250   25.5218 C   0  0  0  0  0  0  0  0  0  0  0  0
    6.9706  -12.8956   25.8018 C   0  0  1  0  0  0  0  0  0  0  0  0
    5.7303  -12.8474   26.6158 C   0  0  0  0  0  0  0  0  0  0  0  0
    6.9075  -13.5459   24.4802 C   0  0  0  0  0  0  0  0  0  0  0  0
    8.1489  -14.0734   23.8710 C   0  0  2  0  0  0  0  0  0  0  0  0
    7.8582  -14.7206   22.6156 N   0  0  0  0  0  0  0  0  0  0  0  0
    8.9571  -14.9060   24.7775 C   0  0  0  0  0  0  0  0  0  0  0  0
    9.3850  -14.3885   25.8341 O   0  0  0  0  0  0  0  0  0  0  0  0
   11.1065  -13.7534   30.7688 O   0  0  0  0  0  0  0  0  0  0  0  0
   10.6206  -14.6032   29.7855 C   0  0  0  0  0  0  0  0  0  0  0  0
   11.0678  -15.9028   29.7080 C   0  0  0  0  0  0  0  0  0  0  0  0
   10.5919  -16.7558   28.7354 C   0  0  0  0  0  0  0  0  0  0  0  0
    9.6439  -16.3407   27.7955 C   0  0  0  0  0  0  0  0  0  0  0  0
    9.1525  -17.2596   26.7465 C   0  0  0  0  0  0  0  0  0  0  0  0
    9.9772  -17.1065   25.5078 C   0  0  2  0  0  0  0  0  0  0  0  0
    9.2822  -16.2609   24.5282 N   0  0  0  0  0  0  0  0  0  0  0  0
   10.3263  -18.3691   24.8558 C   0  0  0  0  0  0  0  0  0  0  0  0
    9.9696  -18.5723   23.5170 O   0  0  0  0  0  0  0  0  0  0  0  0
    9.2241  -15.0288   27.9113 C   0  0  0  0  0  0  0  0  0  0  0  0
    9.6856  -14.1648   28.8721 C   0  0  0  0  0  0  0  0  0  0  0  0
   10.9436  -19.3168   25.4275 O   0  0  0  0  0  0  0  0  0  0  0  0
  1  2  1  0
  3  2  1  0
  4  5  1  0
  4  3  1  0
  5  6  1  1
  5  1  1  0
  6  7  2  0
  9  8  1  6
  9 10  1  0
 11  9  1  0
 12 11  1  1
 13 12  1  0
 13  6  1  0
 14 12  1  0
 14 15  2  0
 16 17  1  0
 17 18  2  0
 17 27  1  0
 18 19  1  0
 19 20  2  0
 20 21  1  0
 22 21  1  1
 22 23  1  0
 22 24  1  0
 23 14  1  0
 24 28  2  0
 24 25  1  0
 26 20  1  0
 27 26  2  0
M  END
$$$$
