PLY.pdb
     RDKit          3D

 28 29  0  0  1  0  0  0  0  0999 V2000
    7.3999  -16.2960   21.3860 N   0  0  0  0  0  0  0  0  0  0  0  0
    6.6900  -15.8883   20.2028 C   0  0  0  0  0  0  0  0  0  0  0  0
    7.7104  -15.3080   19.2535 C   0  0  0  0  0  0  0  0  0  0  0  0
    8.8381  -14.8593   20.1538 C   0  0  0  0  0  0  0  0  0  0  0  0
    8.7175  -15.7612   21.3346 C   0  0  1  0  0  0  0  0  0  0  0  0
    9.0653  -15.1150   22.6201 C   0  0  0  0  0  0  0  0  0  0  0  0
   10.1936  -14.6339   22.8296 O   0  0  0  0  0  0  0  0  0  0  0  0
    7.7968  -11.6064   26.2260 C   0  0  0  0  0  0  0  0  0  0  0  0
    7.0571  -12.9123   26.6033 C   0  0  1  0  0  0  0  0  0  0  0  0
    5.7523  -12.5001   27.1784 C   0  0  0  0  0  0  0  0  0  0  0  0
    7.0465  -13.7289   25.3758 C   0  0  0  0  0  0  0  0  0  0  0  0
    8.2964  -14.3834   24.9288 C   0  0  2  0  0  0  0  0  0  0  0  0
    8.0980  -15.0317   23.6561 N   0  0  0  0  0  0  0  0  0  0  0  0
    8.9082  -15.2643   25.9377 C   0  0  0  0  0  0  0  0  0  0  0  0
    8.2789  -16.2872   26.2911 O   0  0  0  0  0  0  0  0  0  0  0  0
   12.2558  -18.7555   21.8722 O   0  0  0  0  0  0  0  0  0  0  0  0
   12.2442  -18.1524   23.1217 C   0  0  0  0  0  0  0  0  0  0  0  0
   12.3871  -16.7880   23.2353 C   0  0  0  0  0  0  0  0  0  0  0  0
   12.3770  -16.1782   24.4716 C   0  0  0  0  0  0  0  0  0  0  0  0
   12.2227  -16.9129   25.6508 C   0  0  0  0  0  0  0  0  0  0  0  0
   12.2296  -16.2501   26.9724 C   0  0  0  0  0  0  0  0  0  0  0  0
   10.8257  -15.9958   27.4224 C   0  0  2  0  0  0  0  0  0  0  0  0
   10.1689  -15.0262   26.5356 N   0  0  0  0  0  0  0  0  0  0  0  0
   10.7118  -15.5082   28.7973 C   0  0  0  0  0  0  0  0  0  0  0  0
   10.1960  -14.2276   29.0312 O   0  0  0  0  0  0  0  0  0  0  0  0
   12.0830  -18.2786   25.4886 C   0  0  0  0  0  0  0  0  0  0  0  0
   12.0903  -18.9039   24.2672 C   0  0  0  0  0  0  0  0  0  0  0  0
   11.0542  -16.1761   29.8183 O   0  0  0  0  0  0  0  0  0  0  0  0
  1  2  1  0
  3  2  1  0
  4  5  1  0
  4  3  1  0
  5  6  1  1
  5  1  1  0
  6  7  2  0
  9  8  1  6
  9 10  1  0
 11  9  1  0
 12 11  1  1
 13 12  1  0
 13  6  1  0
 14 12  1  0
 14 15  2  0
 16 17  1  0
 17 18  2  0
 17 27  1  0
 18 19  1  0
 19 20  2  0
 20 21  1  0
 22 21  1  6
 22 23  1  0
 22 24  1  0
 23 14  1  0
 24 28  2  0
 24 25  1  0
 26 20  1  0
 27 26  2  0
M  END
$$$$
