PLY.pdb
     RDKit          3D

 28 29  0  0  1  0  0  0  0  0999 V2000
    6.9361  -17.1535   21.6612 N   0  0  0  0  0  0  0  0  0  0  0  0
    5.6881  -17.0959   20.9476 C   0  0  0  0  0  0  0  0  0  0  0  0
    5.9830  -16.5074   19.5890 C   0  0  0  0  0  0  0  0  0  0  0  0
    7.2475  -15.7073   19.8005 C   0  0  0  0  0  0  0  0  0  0  0  0
    7.9066  -16.3986   20.9450 C   0  0  1  0  0  0  0  0  0  0  0  0
    8.6319  -15.4871   21.8582 C   0  0  0  0  0  0  0  0  0  0  0  0
    9.6516  -14.8711   21.4987 O   0  0  0  0  0  0  0  0  0  0  0  0
    5.8134  -13.0007   25.9841 C   0  0  0  0  0  0  0  0  0  0  0  0
    6.6607  -13.2667   24.7167 C   0  0  1  0  0  0  0  0  0  0  0  0
    6.8684  -11.9467   24.0705 C   0  0  0  0  0  0  0  0  0  0  0  0
    7.8487  -14.0045   25.1836 C   0  0  0  0  0  0  0  0  0  0  0  0
    8.8283  -14.5041   24.1931 C   0  0  2  0  0  0  0  0  0  0  0  0
    8.1668  -15.2965   23.1861 N   0  0  0  0  0  0  0  0  0  0  0  0
    9.9936  -15.1799   24.7878 C   0  0  0  0  0  0  0  0  0  0  0  0
   10.9280  -14.4727   25.2282 O   0  0  0  0  0  0  0  0  0  0  0  0
   10.4821  -14.4274   31.1582 O   0  0  0  0  0  0  0  0  0  0  0  0
   10.5760  -15.2871   30.0732 C   0  0  0  0  0  0  0  0  0  0  0  0
   10.6543  -16.6473   30.2699 C   0  0  0  0  0  0  0  0  0  0  0  0
   10.7478  -17.5106   29.1993 C   0  0  0  0  0  0  0  0  0  0  0  0
   10.7668  -17.0454   27.8811 C   0  0  0  0  0  0  0  0  0  0  0  0
   10.8837  -17.9797   26.7411 C   0  0  0  0  0  0  0  0  0  0  0  0
   11.2896  -17.2330   25.5099 C   0  0  2  0  0  0  0  0  0  0  0  0
   10.1241  -16.5854   24.8933 N   0  0  0  0  0  0  0  0  0  0  0  0
   11.9458  -18.0565   24.4939 C   0  0  0  0  0  0  0  0  0  0  0  0
   11.3647  -18.1748   23.2255 O   0  0  0  0  0  0  0  0  0  0  0  0
   10.6863  -15.6736   27.7317 C   0  0  0  0  0  0  0  0  0  0  0  0
   10.5926  -14.7983   28.7842 C   0  0  0  0  0  0  0  0  0  0  0  0
   13.0291  -18.6868   24.6816 O   0  0  0  0  0  0  0  0  0  0  0  0
  1  2  1  0
  3  2  1  0
  4  5  1  0
  4  3  1  0
  5  6  1  1
  5  1  1  0
  6  7  2  0
  9  8  1  1
  9 10  1  0
 11  9  1  0
 12 11  1  1
 13 12  1  0
 13  6  1  0
 14 12  1  0
 14 15  2  0
 16 17  1  0
 17 18  2  0
 17 27  1  0
 18 19  1  0
 19 20  2  0
 20 21  1  0
 22 21  1  1
 22 23  1  0
 22 24  1  0
 23 14  1  0
 24 28  2  0
 24 25  1  0
 26 20  1  0
 27 26  2  0
M  END
$$$$
