PLY.pdb
     RDKit          3D

 28 29  0  0  1  0  0  0  0  0999 V2000
    7.0717  -17.5193   20.7456 N   0  0  0  0  0  0  0  0  0  0  0  0
    5.9818  -17.6604   19.8169 C   0  0  0  0  0  0  0  0  0  0  0  0
    6.4552  -17.1094   18.4934 C   0  0  0  0  0  0  0  0  0  0  0  0
    7.5545  -16.1427   18.8686 C   0  0  0  0  0  0  0  0  0  0  0  0
    8.0637  -16.6831   20.1613 C   0  0  1  0  0  0  0  0  0  0  0  0
    8.4924  -15.6396   21.1196 C   0  0  0  0  0  0  0  0  0  0  0  0
    9.5314  -14.9767   20.9480 O   0  0  0  0  0  0  0  0  0  0  0  0
    6.9981  -11.8934   24.7138 C   0  0  0  0  0  0  0  0  0  0  0  0
    7.0103  -13.3016   25.3553 C   0  0  1  0  0  0  0  0  0  0  0  0
    5.9373  -13.3010   26.3809 C   0  0  0  0  0  0  0  0  0  0  0  0
    6.8941  -14.2486   24.2313 C   0  0  0  0  0  0  0  0  0  0  0  0
    8.0156  -14.3805   23.2746 C   0  0  2  0  0  0  0  0  0  0  0  0
    7.7095  -15.3723   22.2735 N   0  0  0  0  0  0  0  0  0  0  0  0
    9.3276  -14.5862   23.9105 C   0  0  0  0  0  0  0  0  0  0  0  0
   10.0971  -13.6041   24.0130 O   0  0  0  0  0  0  0  0  0  0  0  0
   11.9629  -16.2200   31.8933 O   0  0  0  0  0  0  0  0  0  0  0  0
   11.3483  -16.1111   30.6542 C   0  0  0  0  0  0  0  0  0  0  0  0
   11.2175  -14.8812   30.0499 C   0  0  0  0  0  0  0  0  0  0  0  0
   10.6088  -14.7612   28.8189 C   0  0  0  0  0  0  0  0  0  0  0  0
   10.1033  -15.8731   28.1389 C   0  0  0  0  0  0  0  0  0  0  0  0
    9.4378  -15.7306   26.8263 C   0  0  0  0  0  0  0  0  0  0  0  0
   10.4231  -15.9712   25.7266 C   0  0  2  0  0  0  0  0  0  0  0  0
    9.7754  -15.8304   24.4157 N   0  0  0  0  0  0  0  0  0  0  0  0
   11.0748  -17.2803   25.7763 C   0  0  0  0  0  0  0  0  0  0  0  0
   10.4410  -18.3855   25.1952 O   0  0  0  0  0  0  0  0  0  0  0  0
   10.2566  -17.0865   28.7832 C   0  0  0  0  0  0  0  0  0  0  0  0
   10.8594  -17.2263   30.0078 C   0  0  0  0  0  0  0  0  0  0  0  0
   12.1993  -17.4937   26.3203 O   0  0  0  0  0  0  0  0  0  0  0  0
  1  2  1  0
  3  2  1  0
  4  5  1  0
  4  3  1  0
  5  6  1  1
  5  1  1  0
  6  7  2  0
  9  8  1  6
  9 10  1  0
 11  9  1  0
 12 11  1  1
 13 12  1  0
 13  6  1  0
 14 12  1  0
 14 15  2  0
 16 17  1  0
 17 18  2  0
 17 27  1  0
 18 19  1  0
 19 20  2  0
 20 21  1  0
 22 21  1  1
 22 23  1  0
 22 24  1  0
 23 14  1  0
 24 28  2  0
 24 25  1  0
 26 20  1  0
 27 26  2  0
M  END
$$$$
