PLY.pdb
     RDKit          3D

 28 29  0  0  1  0  0  0  0  0999 V2000
    7.9720  -19.0001   21.1512 N   0  0  0  0  0  0  0  0  0  0  0  0
    6.8193  -19.3324   20.3569 C   0  0  0  0  0  0  0  0  0  0  0  0
    7.2679  -19.3556   18.9156 C   0  0  0  0  0  0  0  0  0  0  0  0
    8.4845  -18.4595   18.8938 C   0  0  0  0  0  0  0  0  0  0  0  0
    9.0103  -18.5566   20.2853 C   0  0  1  0  0  0  0  0  0  0  0  0
    9.6047  -17.2986   20.7903 C   0  0  0  0  0  0  0  0  0  0  0  0
   10.8155  -17.0442   20.6574 O   0  0  0  0  0  0  0  0  0  0  0  0
    6.7833  -12.6352   20.5856 C   0  0  0  0  0  0  0  0  0  0  0  0
    7.8232  -13.7740   20.4562 C   0  0  1  0  0  0  0  0  0  0  0  0
    8.8036  -13.3281   19.4348 C   0  0  0  0  0  0  0  0  0  0  0  0
    8.3119  -14.0200   21.8252 C   0  0  0  0  0  0  0  0  0  0  0  0
    9.2603  -15.1298   22.0687 C   0  0  2  0  0  0  0  0  0  0  0  0
    8.7869  -16.3422   21.4479 N   0  0  0  0  0  0  0  0  0  0  0  0
    9.6258  -15.3090   23.4839 C   0  0  0  0  0  0  0  0  0  0  0  0
   10.3712  -14.4557   24.0162 O   0  0  0  0  0  0  0  0  0  0  0  0
    6.4533  -11.0339   26.5713 O   0  0  0  0  0  0  0  0  0  0  0  0
    6.8883  -12.3514   26.5640 C   0  0  0  0  0  0  0  0  0  0  0  0
    8.1331  -12.6742   27.0551 C   0  0  0  0  0  0  0  0  0  0  0  0
    8.5755  -13.9797   27.0530 C   0  0  0  0  0  0  0  0  0  0  0  0
    7.7859  -15.0211   26.5565 C   0  0  0  0  0  0  0  0  0  0  0  0
    8.2771  -16.4156   26.5444 C   0  0  0  0  0  0  0  0  0  0  0  0
    9.5150  -16.5126   25.7100 C   0  0  2  0  0  0  0  0  0  0  0  0
    9.1850  -16.3905   24.2838 N   0  0  0  0  0  0  0  0  0  0  0  0
   10.2748  -17.7487   25.8992 C   0  0  0  0  0  0  0  0  0  0  0  0
   10.7102  -18.0974   27.1836 O   0  0  0  0  0  0  0  0  0  0  0  0
    6.5448  -14.6505   26.0739 C   0  0  0  0  0  0  0  0  0  0  0  0
    6.0866  -13.3571   26.0675 C   0  0  0  0  0  0  0  0  0  0  0  0
   10.5757  -18.5478   24.9628 O   0  0  0  0  0  0  0  0  0  0  0  0
  1  2  1  0
  3  2  1  0
  4  5  1  0
  4  3  1  0
  5  6  1  1
  5  1  1  0
  6  7  2  0
  9  8  1  1
  9 10  1  0
 11  9  1  0
 12 11  1  1
 13 12  1  0
 13  6  1  0
 14 12  1  0
 14 15  2  0
 16 17  1  0
 17 18  2  0
 17 27  1  0
 18 19  1  0
 19 20  2  0
 20 21  1  0
 22 21  1  1
 22 23  1  0
 22 24  1  0
 23 14  1  0
 24 28  2  0
 24 25  1  0
 26 20  1  0
 27 26  2  0
M  END
$$$$
