PLY.pdb
     RDKit          3D

 28 29  0  0  1  0  0  0  0  0999 V2000
    7.1017  -16.9804   21.9757 N   0  0  0  0  0  0  0  0  0  0  0  0
    5.8784  -16.9804   21.2182 C   0  0  0  0  0  0  0  0  0  0  0  0
    6.2169  -16.4859   19.8326 C   0  0  0  0  0  0  0  0  0  0  0  0
    7.4702  -15.6650   20.0302 C   0  0  0  0  0  0  0  0  0  0  0  0
    8.0928  -16.2710   21.2416 C   0  0  1  0  0  0  0  0  0  0  0  0
    8.7831  -15.2936   22.1130 C   0  0  0  0  0  0  0  0  0  0  0  0
    9.7596  -14.6331   21.7148 O   0  0  0  0  0  0  0  0  0  0  0  0
    5.6598  -13.1027   26.0419 C   0  0  0  0  0  0  0  0  0  0  0  0
    6.5907  -13.2028   24.8098 C   0  0  1  0  0  0  0  0  0  0  0  0
    6.5475  -11.8755   24.1467 C   0  0  0  0  0  0  0  0  0  0  0  0
    7.8863  -13.6752   25.3311 C   0  0  0  0  0  0  0  0  0  0  0  0
    8.9144  -14.1643   24.3854 C   0  0  2  0  0  0  0  0  0  0  0  0
    8.3334  -15.0894   23.4442 N   0  0  0  0  0  0  0  0  0  0  0  0
   10.1291  -14.6856   25.0342 C   0  0  0  0  0  0  0  0  0  0  0  0
   10.9598  -13.8642   25.4842 O   0  0  0  0  0  0  0  0  0  0  0  0
   12.1046  -18.4416   32.4187 O   0  0  0  0  0  0  0  0  0  0  0  0
   11.6039  -17.9233   31.2330 C   0  0  0  0  0  0  0  0  0  0  0  0
   11.7402  -16.5833   30.9489 C   0  0  0  0  0  0  0  0  0  0  0  0
   11.2468  -16.0575   29.7740 C   0  0  0  0  0  0  0  0  0  0  0  0
   10.5932  -16.8557   28.8305 C   0  0  0  0  0  0  0  0  0  0  0  0
   10.0536  -16.2780   27.5811 C   0  0  0  0  0  0  0  0  0  0  0  0
   10.9374  -16.6392   26.4294 C   0  0  2  0  0  0  0  0  0  0  0  0
   10.4178  -16.0635   25.1818 N   0  0  0  0  0  0  0  0  0  0  0  0
   11.1116  -18.0784   26.2309 C   0  0  0  0  0  0  0  0  0  0  0  0
   12.2791  -18.6989   26.6922 O   0  0  0  0  0  0  0  0  0  0  0  0
   10.4793  -18.1938   29.1579 C   0  0  0  0  0  0  0  0  0  0  0  0
   10.9637  -18.7358   30.3217 C   0  0  0  0  0  0  0  0  0  0  0  0
   10.2624  -18.8243   25.6578 O   0  0  0  0  0  0  0  0  0  0  0  0
  1  2  1  0
  3  2  1  0
  4  5  1  0
  4  3  1  0
  5  6  1  1
  5  1  1  0
  6  7  2  0
  9  8  1  1
  9 10  1  0
 11  9  1  0
 12 11  1  1
 13 12  1  0
 13  6  1  0
 14 12  1  0
 14 15  2  0
 16 17  1  0
 17 18  2  0
 17 27  1  0
 18 19  1  0
 19 20  2  0
 20 21  1  0
 22 21  1  1
 22 23  1  0
 22 24  1  0
 23 14  1  0
 24 28  2  0
 24 25  1  0
 26 20  1  0
 27 26  2  0
M  END
$$$$
