PLY.pdb
     RDKit          3D

 28 29  0  0  1  0  0  0  0  0999 V2000
    7.2288  -16.2680   21.7098 N   0  0  0  0  0  0  0  0  0  0  0  0
    6.3192  -15.7498   20.7227 C   0  0  0  0  0  0  0  0  0  0  0  0
    7.1514  -15.0247   19.6928 C   0  0  0  0  0  0  0  0  0  0  0  0
    8.4102  -14.6444   20.4374 C   0  0  0  0  0  0  0  0  0  0  0  0
    8.5092  -15.6831   21.5021 C   0  0  1  0  0  0  0  0  0  0  0  0
    9.0631  -15.1807   22.7795 C   0  0  0  0  0  0  0  0  0  0  0  0
   10.2224  -14.7363   22.8635 O   0  0  0  0  0  0  0  0  0  0  0  0
    5.7680  -12.4431   26.2986 C   0  0  0  0  0  0  0  0  0  0  0  0
    6.9420  -12.8143   25.3611 C   0  0  1  0  0  0  0  0  0  0  0  0
    7.8058  -11.6100   25.2790 C   0  0  0  0  0  0  0  0  0  0  0  0
    7.5228  -14.0467   25.9245 C   0  0  0  0  0  0  0  0  0  0  0  0
    8.6682  -14.6877   25.2408 C   0  0  2  0  0  0  0  0  0  0  0  0
    8.2650  -15.1979   23.9537 N   0  0  0  0  0  0  0  0  0  0  0  0
    9.3780  -15.6833   26.0612 C   0  0  0  0  0  0  0  0  0  0  0  0
    8.7990  -16.1384   27.0736 O   0  0  0  0  0  0  0  0  0  0  0  0
   11.6110  -23.9066   25.7602 O   0  0  0  0  0  0  0  0  0  0  0  0
   11.2712  -22.5713   25.5971 C   0  0  0  0  0  0  0  0  0  0  0  0
   10.1471  -22.0616   26.2066 C   0  0  0  0  0  0  0  0  0  0  0  0
    9.8001  -20.7366   26.0516 C   0  0  0  0  0  0  0  0  0  0  0  0
   10.5680  -19.8629   25.2761 C   0  0  0  0  0  0  0  0  0  0  0  0
   10.1773  -18.4474   25.1037 C   0  0  0  0  0  0  0  0  0  0  0  0
   11.0632  -17.5699   25.9303 C   0  0  2  0  0  0  0  0  0  0  0  0
   10.6798  -16.1603   25.7759 N   0  0  0  0  0  0  0  0  0  0  0  0
   12.4888  -17.6921   25.6239 C   0  0  0  0  0  0  0  0  0  0  0  0
   13.3074  -18.4611   26.4601 O   0  0  0  0  0  0  0  0  0  0  0  0
   11.6866  -20.4181   24.6834 C   0  0  0  0  0  0  0  0  0  0  0  0
   12.0486  -21.7339   24.8257 C   0  0  0  0  0  0  0  0  0  0  0  0
   13.0520  -17.1394   24.6323 O   0  0  0  0  0  0  0  0  0  0  0  0
  1  2  1  0
  3  2  1  0
  4  5  1  0
  4  3  1  0
  5  6  1  1
  5  1  1  0
  6  7  2  0
  9  8  1  1
  9 10  1  0
 11  9  1  0
 12 11  1  1
 13 12  1  0
 13  6  1  0
 14 12  1  0
 14 15  2  0
 16 17  1  0
 17 18  2  0
 17 27  1  0
 18 19  1  0
 19 20  2  0
 20 21  1  0
 22 21  1  6
 22 23  1  0
 22 24  1  0
 23 14  1  0
 24 28  2  0
 24 25  1  0
 26 20  1  0
 27 26  2  0
M  END
$$$$
