KLS.pdb
     RDKit          3D

 24 23  0  0  1  0  0  0  0  0999 V2000
   21.3546  -13.6965  -16.3721 N   0  0  0  0  0  0  0  0  0  0  0  0
   21.4567  -12.4377  -17.0746 C   0  0  1  0  0  0  0  0  0  0  0  0
   20.0620  -12.0659  -17.5451 C   0  0  0  0  0  0  0  0  0  0  0  0
   19.4895  -13.1431  -18.4246 C   0  0  0  0  0  0  0  0  0  0  0  0
   18.1664  -12.7428  -18.9930 C   0  0  0  0  0  0  0  0  0  0  0  0
   17.6780  -13.8933  -19.8738 C   0  0  0  0  0  0  0  0  0  0  0  0
   16.3966  -13.4382  -20.4284 N   0  0  0  0  0  0  0  0  0  0  0  0
   22.0159  -11.3975  -16.1757 C   0  0  0  0  0  0  0  0  0  0  0  0
   21.6295  -11.3917  -14.9727 O   0  0  0  0  0  0  0  0  0  0  0  0
   25.4722  -10.8937  -13.9159 C   0  0  0  0  0  0  0  0  0  0  0  0
   25.7209  -10.5300  -15.3628 C   0  0  2  0  0  0  0  0  0  0  0  0
   27.1857  -10.5211  -15.6562 C   0  0  0  0  0  0  0  0  0  0  0  0
   24.9121   -9.4133  -15.8844 C   0  0  0  0  0  0  0  0  0  0  0  0
   23.4375   -9.4295  -15.6995 C   0  0  2  0  0  0  0  0  0  0  0  0
   22.9490  -10.4472  -16.6529 N   0  0  0  0  0  0  0  0  0  0  0  0
   22.7264   -8.1615  -15.9214 C   0  0  0  0  0  0  0  0  0  0  0  0
   22.5821   -7.5871  -17.0258 O   0  0  0  0  0  0  0  0  0  0  0  0
   19.4089   -4.9974  -14.7000 O   0  0  0  0  0  0  0  0  0  0  0  0
   20.0018   -6.2458  -14.4526 C   0  0  0  0  0  0  0  0  0  0  0  0
   21.4165   -6.1950  -14.9894 C   0  0  2  0  0  0  0  0  0  0  0  0
   22.1081   -7.4449  -14.8257 N   0  0  0  0  0  0  0  0  0  0  0  0
   22.1699   -5.0424  -14.4881 C   0  0  0  0  0  0  0  0  0  0  0  0
   21.7607   -3.7639  -14.7954 O   0  0  0  0  0  0  0  0  0  0  0  0
   23.1833   -5.2092  -13.7823 O   0  0  0  0  0  0  0  0  0  0  0  0
  2  1  1  1
  3  2  1  0
  4  3  1  0
  5  6  1  0
  5  4  1  0
  6  7  1  0
  8  9  2  0
  8  2  1  0
 11 10  1  1
 12 11  1  0
 13 11  1  0
 14 13  1  6
 14 15  1  0
 15  8  1  0
 16 14  1  0
 17 16  2  0
 18 19  1  0
 20 19  1  1
 20 21  1  0
 21 16  1  0
 22 20  1  0
 22 23  1  0
 24 22  2  0
M  END
$$$$
