KLS.pdb
     RDKit          3D

 24 23  0  0  1  0  0  0  0  0999 V2000
   22.2564  -34.5973  -10.6211 N   0  0  0  0  0  0  0  0  0  0  0  0
   22.0905  -34.4232   -9.1960 C   0  0  1  0  0  0  0  0  0  0  0  0
   21.0699  -35.4457   -8.7295 C   0  0  0  0  0  0  0  0  0  0  0  0
   19.6720  -34.9849   -9.0377 C   0  0  0  0  0  0  0  0  0  0  0  0
   19.5329  -33.5055   -8.8758 C   0  0  0  0  0  0  0  0  0  0  0  0
   18.0664  -33.1521   -9.1252 C   0  0  0  0  0  0  0  0  0  0  0  0
   18.0034  -31.6870   -9.0472 N   0  0  0  0  0  0  0  0  0  0  0  0
   23.3915  -34.6087   -8.5062 C   0  0  0  0  0  0  0  0  0  0  0  0
   23.9888  -35.7106   -8.6658 O   0  0  0  0  0  0  0  0  0  0  0  0
   27.4404  -34.3792   -9.0972 C   0  0  0  0  0  0  0  0  0  0  0  0
   26.7754  -33.0378   -8.8828 C   0  0  2  0  0  0  0  0  0  0  0  0
   27.6289  -31.9377   -9.4243 C   0  0  0  0  0  0  0  0  0  0  0  0
   26.1621  -32.8382   -7.5572 C   0  0  0  0  0  0  0  0  0  0  0  0
   25.2253  -33.8612   -7.0233 C   0  0  2  0  0  0  0  0  0  0  0  0
   23.9404  -33.5849   -7.6986 N   0  0  0  0  0  0  0  0  0  0  0  0
   25.0245  -33.8820   -5.5666 C   0  0  0  0  0  0  0  0  0  0  0  0
   24.4208  -33.0103   -4.8987 O   0  0  0  0  0  0  0  0  0  0  0  0
   26.6313  -36.9600   -2.8759 O   0  0  0  0  0  0  0  0  0  0  0  0
   25.3092  -36.4884   -2.8442 C   0  0  0  0  0  0  0  0  0  0  0  0
   25.3225  -35.0558   -3.3340 C   0  0  2  0  0  0  0  0  0  0  0  0
   25.5348  -34.9656   -4.7532 N   0  0  0  0  0  0  0  0  0  0  0  0
   26.2222  -34.2008   -2.5549 C   0  0  0  0  0  0  0  0  0  0  0  0
   26.0187  -34.0356   -1.2029 O   0  0  0  0  0  0  0  0  0  0  0  0
   27.1754  -33.6183   -3.1075 O   0  0  0  0  0  0  0  0  0  0  0  0
  2  1  1  6
  3  2  1  0
  4  3  1  0
  5  6  1  0
  5  4  1  0
  6  7  1  0
  8  9  2  0
  8  2  1  0
 11 10  1  1
 12 11  1  0
 13 11  1  0
 14 13  1  1
 14 15  1  0
 15  8  1  0
 16 14  1  0
 17 16  2  0
 18 19  1  0
 20 19  1  1
 20 21  1  0
 21 16  1  0
 22 20  1  0
 22 23  1  0
 24 22  2  0
M  END
$$$$
