KLS.pdb
     RDKit          3D

 24 23  0  0  1  0  0  0  0  0999 V2000
   25.0295  -22.2376  -14.1699 N   0  0  0  0  0  0  0  0  0  0  0  0
   23.8145  -21.5480  -13.7999 C   0  0  1  0  0  0  0  0  0  0  0  0
   24.1871  -20.4878  -12.7791 C   0  0  0  0  0  0  0  0  0  0  0  0
   24.9030  -21.1017  -11.6077 C   0  0  0  0  0  0  0  0  0  0  0  0
   25.2198  -20.0821  -10.5617 C   0  0  0  0  0  0  0  0  0  0  0  0
   26.0241  -20.7827   -9.4662 C   0  0  0  0  0  0  0  0  0  0  0  0
   26.2588  -19.7560   -8.4427 N   0  0  0  0  0  0  0  0  0  0  0  0
   23.1883  -20.9412  -15.0010 C   0  0  0  0  0  0  0  0  0  0  0  0
   23.9537  -20.5379  -15.9219 O   0  0  0  0  0  0  0  0  0  0  0  0
   17.5690  -20.6730  -17.5183 C   0  0  0  0  0  0  0  0  0  0  0  0
   19.0134  -20.2264  -17.5608 C   0  0  2  0  0  0  0  0  0  0  0  0
   19.5925  -20.4550  -18.9188 C   0  0  0  0  0  0  0  0  0  0  0  0
   19.8307  -20.6100  -16.3953 C   0  0  0  0  0  0  0  0  0  0  0  0
   21.2425  -20.1533  -16.3100 C   0  0  2  0  0  0  0  0  0  0  0  0
   21.7827  -20.8204  -15.1074 N   0  0  0  0  0  0  0  0  0  0  0  0
   21.4666  -18.7030  -16.2144 C   0  0  0  0  0  0  0  0  0  0  0  0
   21.2006  -17.9854  -15.2221 O   0  0  0  0  0  0  0  0  0  0  0  0
   24.0414  -14.9233  -17.0251 O   0  0  0  0  0  0  0  0  0  0  0  0
   23.8391  -16.3126  -17.0427 C   0  0  0  0  0  0  0  0  0  0  0  0
   22.3579  -16.5568  -17.2396 C   0  0  2  0  0  0  0  0  0  0  0  0
   22.0404  -17.9571  -17.3148 N   0  0  0  0  0  0  0  0  0  0  0  0
   21.7979  -15.7725  -18.3436 C   0  0  0  0  0  0  0  0  0  0  0  0
   21.1643  -14.5766  -18.0886 O   0  0  0  0  0  0  0  0  0  0  0  0
   21.8902  -16.1798  -19.5177 O   0  0  0  0  0  0  0  0  0  0  0  0
  2  1  1  6
  3  2  1  0
  4  3  1  0
  5  6  1  0
  5  4  1  0
  6  7  1  0
  8  9  2  0
  8  2  1  0
 11 10  1  6
 12 11  1  0
 13 11  1  0
 14 13  1  1
 14 15  1  0
 15  8  1  0
 16 14  1  0
 17 16  2  0
 18 19  1  0
 20 19  1  6
 20 21  1  0
 21 16  1  0
 22 20  1  0
 22 23  1  0
 24 22  2  0
M  END
$$$$
