KLS.pdb
     RDKit          3D

 24 23  0  0  1  0  0  0  0  0999 V2000
   21.6392  -13.5666  -17.1742 N   0  0  0  0  0  0  0  0  0  0  0  0
   21.8987  -12.3659  -17.9355 C   0  0  1  0  0  0  0  0  0  0  0  0
   20.5994  -11.9677  -18.6122 C   0  0  0  0  0  0  0  0  0  0  0  0
   20.1685  -13.0156  -19.6010 C   0  0  0  0  0  0  0  0  0  0  0  0
   18.8969  -12.6335  -20.2874 C   0  0  0  0  0  0  0  0  0  0  0  0
   18.5918  -13.7150  -21.3243 C   0  0  0  0  0  0  0  0  0  0  0  0
   17.3859  -13.2515  -22.0227 N   0  0  0  0  0  0  0  0  0  0  0  0
   22.3889  -11.2905  -17.0377 C   0  0  0  0  0  0  0  0  0  0  0  0
   21.7668  -11.1011  -15.9544 O   0  0  0  0  0  0  0  0  0  0  0  0
   25.7076  -10.6665  -14.3474 C   0  0  0  0  0  0  0  0  0  0  0  0
   26.1008  -10.4372  -15.7897 C   0  0  2  0  0  0  0  0  0  0  0  0
   27.5873  -10.4607  -15.9373 C   0  0  0  0  0  0  0  0  0  0  0  0
   25.3610   -9.3696  -16.4870 C   0  0  0  0  0  0  0  0  0  0  0  0
   23.8749   -9.3904  -16.4883 C   0  0  2  0  0  0  0  0  0  0  0  0
   23.5141  -10.5069  -17.3863 N   0  0  0  0  0  0  0  0  0  0  0  0
   23.1940   -8.1627  -16.9263 C   0  0  0  0  0  0  0  0  0  0  0  0
   23.2395   -7.6722  -18.0786 O   0  0  0  0  0  0  0  0  0  0  0  0
   19.5369   -7.2404  -16.4155 O   0  0  0  0  0  0  0  0  0  0  0  0
   20.4318   -6.5356  -17.2364 C   0  0  0  0  0  0  0  0  0  0  0  0
   21.6552   -6.2101  -16.4060 C   0  0  2  0  0  0  0  0  0  0  0  0
   22.3786   -7.3891  -16.0137 N   0  0  0  0  0  0  0  0  0  0  0  0
   21.3563   -5.3111  -15.2880 C   0  0  0  0  0  0  0  0  0  0  0  0
   21.5955   -5.7162  -13.9937 O   0  0  0  0  0  0  0  0  0  0  0  0
   20.8848   -4.1769  -15.4987 O   0  0  0  0  0  0  0  0  0  0  0  0
  2  1  1  1
  3  2  1  0
  4  3  1  0
  5  6  1  0
  5  4  1  0
  6  7  1  0
  8  9  2  0
  8  2  1  0
 11 10  1  1
 12 11  1  0
 13 11  1  0
 14 13  1  6
 14 15  1  0
 15  8  1  0
 16 14  1  0
 17 16  2  0
 18 19  1  0
 20 19  1  1
 20 21  1  0
 21 16  1  0
 22 20  1  0
 22 23  1  0
 24 22  2  0
M  END
$$$$
