KLS.pdb
     RDKit          3D

 24 23  0  0  1  0  0  0  0  0999 V2000
   18.7932  -24.1655  -15.8941 N   0  0  0  0  0  0  0  0  0  0  0  0
   18.1623  -23.2226  -14.9988 C   0  0  1  0  0  0  0  0  0  0  0  0
   16.6866  -23.5739  -14.9359 C   0  0  0  0  0  0  0  0  0  0  0  0
   16.0956  -23.6488  -16.3167 C   0  0  0  0  0  0  0  0  0  0  0  0
   17.0967  -24.1283  -17.3176 C   0  0  0  0  0  0  0  0  0  0  0  0
   16.3832  -24.2358  -18.6656 C   0  0  0  0  0  0  0  0  0  0  0  0
   17.4229  -24.6364  -19.6223 N   0  0  0  0  0  0  0  0  0  0  0  0
   18.7904  -23.2977  -13.6562 C   0  0  0  0  0  0  0  0  0  0  0  0
   19.4788  -24.3223  -13.3865 O   0  0  0  0  0  0  0  0  0  0  0  0
   20.6583  -19.3206   -9.4753 C   0  0  0  0  0  0  0  0  0  0  0  0
   20.6979  -20.7452   -9.9817 C   0  0  2  0  0  0  0  0  0  0  0  0
   22.0906  -21.2828   -9.9244 C   0  0  0  0  0  0  0  0  0  0  0  0
   19.9134  -21.0069  -11.2021 C   0  0  0  0  0  0  0  0  0  0  0  0
   19.3555  -22.3645  -11.4357 C   0  0  2  0  0  0  0  0  0  0  0  0
   18.6220  -22.2560  -12.7138 N   0  0  0  0  0  0  0  0  0  0  0  0
   18.4643  -22.9040  -10.3977 C   0  0  0  0  0  0  0  0  0  0  0  0
   17.3020  -22.5052  -10.1518 O   0  0  0  0  0  0  0  0  0  0  0  0
   18.9555  -25.4465   -6.4077 O   0  0  0  0  0  0  0  0  0  0  0  0
   18.9924  -24.2253   -7.0995 C   0  0  0  0  0  0  0  0  0  0  0  0
   18.1651  -24.3866   -8.3572 C   0  0  2  0  0  0  0  0  0  0  0  0
   18.8835  -23.9911   -9.5382 N   0  0  0  0  0  0  0  0  0  0  0  0
   16.8414  -23.7677   -8.2460 C   0  0  0  0  0  0  0  0  0  0  0  0
   15.8151  -24.4408   -7.6214 O   0  0  0  0  0  0  0  0  0  0  0  0
   16.6346  -22.6313   -8.7139 O   0  0  0  0  0  0  0  0  0  0  0  0
  2  1  1  6
  3  2  1  0
  4  3  1  0
  5  6  1  0
  5  4  1  0
  6  7  1  0
  8  9  2  0
  8  2  1  0
 11 10  1  6
 12 11  1  0
 13 11  1  0
 14 13  1  1
 14 15  1  0
 15  8  1  0
 16 14  1  0
 17 16  2  0
 18 19  1  0
 20 19  1  1
 20 21  1  0
 21 16  1  0
 22 20  1  0
 22 23  1  0
 24 22  2  0
M  END
$$$$
