KLS.pdb
     RDKit          3D

 24 23  0  0  1  0  0  0  0  0999 V2000
   20.4353  -20.0858  -12.6523 N   0  0  0  0  0  0  0  0  0  0  0  0
   21.3669  -20.8724  -13.4281 C   0  0  1  0  0  0  0  0  0  0  0  0
   20.8846  -20.8579  -14.8676 C   0  0  0  0  0  0  0  0  0  0  0  0
   20.1471  -22.1264  -15.1971 C   0  0  0  0  0  0  0  0  0  0  0  0
   19.2711  -22.5620  -14.0671 C   0  0  0  0  0  0  0  0  0  0  0  0
   18.4729  -23.7749  -14.5461 C   0  0  0  0  0  0  0  0  0  0  0  0
   17.7063  -24.2198  -13.3751 N   0  0  0  0  0  0  0  0  0  0  0  0
   22.7326  -20.3027  -13.3130 C   0  0  0  0  0  0  0  0  0  0  0  0
   22.8691  -19.0614  -13.5051 O   0  0  0  0  0  0  0  0  0  0  0  0
   25.1534  -19.2942  -10.2076 C   0  0  0  0  0  0  0  0  0  0  0  0
   25.4145  -20.7605  -10.4703 C   0  0  2  0  0  0  0  0  0  0  0  0
   26.1457  -21.3762   -9.3222 C   0  0  0  0  0  0  0  0  0  0  0  0
   25.8773  -21.0888  -11.8310 C   0  0  0  0  0  0  0  0  0  0  0  0
   25.1792  -20.4989  -13.0030 C   0  0  2  0  0  0  0  0  0  0  0  0
   23.8406  -21.1244  -12.9989 N   0  0  0  0  0  0  0  0  0  0  0  0
   25.8108  -20.6897  -14.3174 C   0  0  0  0  0  0  0  0  0  0  0  0
   25.6131  -21.6557  -15.0908 O   0  0  0  0  0  0  0  0  0  0  0  0
   27.4564  -17.6284  -16.5526 O   0  0  0  0  0  0  0  0  0  0  0  0
   28.3280  -18.7230  -16.4355 C   0  0  0  0  0  0  0  0  0  0  0  0
   27.4969  -19.9313  -16.0590 C   0  0  2  0  0  0  0  0  0  0  0  0
   26.7563  -19.7277  -14.8435 N   0  0  0  0  0  0  0  0  0  0  0  0
   28.2719  -21.1749  -16.0675 C   0  0  0  0  0  0  0  0  0  0  0  0
   28.3871  -21.9242  -14.9178 O   0  0  0  0  0  0  0  0  0  0  0  0
   28.8310  -21.5631  -17.1114 O   0  0  0  0  0  0  0  0  0  0  0  0
  2  1  1  1
  3  2  1  0
  4  3  1  0
  5  6  1  0
  5  4  1  0
  6  7  1  0
  8  9  2  0
  8  2  1  0
 11 10  1  1
 12 11  1  0
 13 11  1  0
 14 13  1  1
 14 15  1  0
 15  8  1  0
 16 14  1  0
 17 16  2  0
 18 19  1  0
 20 19  1  1
 20 21  1  0
 21 16  1  0
 22 20  1  0
 22 23  1  0
 24 22  2  0
M  END
$$$$
