AMQ.pdb
     RDKit          3D

 23 22  0  0  1  0  0  0  0  0999 V2000
   27.5964  -19.8800  -17.0198 C   0  0  0  0  0  0  0  0  0  0  0  0
   28.1681  -20.9141  -16.0703 C   0  0  2  0  0  0  0  0  0  0  0  0
   28.4625  -22.0981  -16.8306 N   0  0  0  0  0  0  0  0  0  0  0  0
   27.1338  -21.2143  -15.0422 C   0  0  0  0  0  0  0  0  0  0  0  0
   26.2469  -22.0814  -15.2658 O   0  0  0  0  0  0  0  0  0  0  0  0
   24.7605  -20.7432   -7.4882 C   0  0  0  0  0  0  0  0  0  0  0  0
   26.0742  -20.3072   -8.6603 S   0  0  0  0  0  0  0  0  0  0  0  0
   25.5451  -20.7672  -10.3031 C   0  0  0  0  0  0  0  0  0  0  0  0
   26.5373  -20.5853  -11.3866 C   0  0  0  0  0  0  0  0  0  0  0  0
   26.1198  -20.9158  -12.7693 C   0  0  2  0  0  0  0  0  0  0  0  0
   27.0869  -20.5570  -13.7792 N   0  0  0  0  0  0  0  0  0  0  0  0
   24.7598  -20.4148  -13.1090 C   0  0  0  0  0  0  0  0  0  0  0  0
   24.6280  -19.1635  -13.3312 O   0  0  0  0  0  0  0  0  0  0  0  0
   18.2234  -22.9896  -15.5777 N   0  0  0  0  0  0  0  0  0  0  0  0
   19.5679  -23.0266  -15.1500 C   0  0  0  0  0  0  0  0  0  0  0  0
   20.2047  -24.1012  -15.2595 O   0  0  0  0  0  0  0  0  0  0  0  0
   20.2078  -21.8400  -14.5983 C   0  0  0  0  0  0  0  0  0  0  0  0
   21.6140  -21.9486  -14.1728 C   0  0  0  0  0  0  0  0  0  0  0  0
   22.2851  -20.7696  -13.5743 C   0  0  2  0  0  0  0  0  0  0  0  0
   23.6350  -21.2543  -13.1926 N   0  0  0  0  0  0  0  0  0  0  0  0
   21.6709  -20.3412  -12.3154 C   0  0  0  0  0  0  0  0  0  0  0  0
   22.0208  -20.8085  -11.1827 O   0  0  0  0  0  0  0  0  0  0  0  0
   20.6612  -19.3776  -12.2966 O   0  0  0  0  0  0  0  0  0  0  0  0
  2  1  1  6
  2  3  1  0
  4  5  2  0
  4  2  1  0
  7  6  1  0
  8  7  1  0
  8  9  1  0
 10  9  1  1
 10 11  1  0
 10 12  1  0
 11  4  1  0
 12 20  1  0
 13 12  2  0
 15 14  1  0
 15 16  2  0
 17 15  1  0
 18 17  1  0
 19 18  1  1
 19 21  1  0
 20 19  1  0
 21 22  2  0
 21 23  1  0
M  END
$$$$
