AMQ.pdb
     RDKit          3D

 23 22  0  0  1  0  0  0  0  0999 V2000
   17.3858  -11.6038  -17.5519 C   0  0  0  0  0  0  0  0  0  0  0  0
   18.7514  -11.9967  -18.0796 C   0  0  2  0  0  0  0  0  0  0  0  0
   18.8430  -13.4310  -18.0458 N   0  0  0  0  0  0  0  0  0  0  0  0
   19.7790  -11.4005  -17.1820 C   0  0  0  0  0  0  0  0  0  0  0  0
   19.6382  -11.4519  -15.9307 O   0  0  0  0  0  0  0  0  0  0  0  0
   27.0988  -10.6569  -14.9814 C   0  0  0  0  0  0  0  0  0  0  0  0
   25.9375  -11.3198  -16.2066 S   0  0  0  0  0  0  0  0  0  0  0  0
   24.3848  -10.4516  -16.0453 C   0  0  0  0  0  0  0  0  0  0  0  0
   23.2793  -10.9185  -16.9121 C   0  0  0  0  0  0  0  0  0  0  0  0
   21.9665  -10.2437  -16.7822 C   0  0  2  0  0  0  0  0  0  0  0  0
   20.9504  -10.7542  -17.6715 N   0  0  0  0  0  0  0  0  0  0  0  0
   22.0587   -8.7594  -16.8486 C   0  0  0  0  0  0  0  0  0  0  0  0
   22.0623   -8.2174  -18.0055 O   0  0  0  0  0  0  0  0  0  0  0  0
   17.9717   -5.6738  -17.1289 N   0  0  0  0  0  0  0  0  0  0  0  0
   18.7240   -4.6211  -16.5650 C   0  0  0  0  0  0  0  0  0  0  0  0
   18.2031   -3.4832  -16.4885 O   0  0  0  0  0  0  0  0  0  0  0  0
   20.0762   -4.8507  -16.0745 C   0  0  0  0  0  0  0  0  0  0  0  0
   20.6288   -6.2119  -16.1846 C   0  0  0  0  0  0  0  0  0  0  0  0
   22.0218   -6.4682  -15.7460 C   0  0  2  0  0  0  0  0  0  0  0  0
   22.1405   -7.9470  -15.7039 N   0  0  0  0  0  0  0  0  0  0  0  0
   22.2767   -6.0324  -14.3710 C   0  0  0  0  0  0  0  0  0  0  0  0
   22.5985   -4.8356  -14.0748 O   0  0  0  0  0  0  0  0  0  0  0  0
   22.1689   -6.9220  -13.3008 O   0  0  0  0  0  0  0  0  0  0  0  0
  2  1  1  1
  2  3  1  0
  4  5  2  0
  4  2  1  0
  7  6  1  0
  8  7  1  0
  8  9  1  0
 10  9  1  6
 10 11  1  0
 10 12  1  0
 11  4  1  0
 12 20  1  0
 13 12  2  0
 15 14  1  0
 15 16  2  0
 17 15  1  0
 18 17  1  0
 19 18  1  1
 19 21  1  0
 20 19  1  0
 21 22  2  0
 21 23  1  0
M  END
$$$$
