AMQ.pdb
     RDKit          3D

 23 22  0  0  1  0  0  0  0  0999 V2000
   25.1188  -22.3277  -13.1882 C   0  0  0  0  0  0  0  0  0  0  0  0
   25.8817  -21.1500  -12.6148 C   0  0  2  0  0  0  0  0  0  0  0  0
   25.4877  -20.9941  -11.2411 N   0  0  0  0  0  0  0  0  0  0  0  0
   25.5055  -19.9373  -13.3923 C   0  0  0  0  0  0  0  0  0  0  0  0
   24.4129  -19.3506  -13.1675 O   0  0  0  0  0  0  0  0  0  0  0  0
   25.1546  -13.8228  -15.6953 C   0  0  0  0  0  0  0  0  0  0  0  0
   26.7679  -14.5894  -15.3807 S   0  0  0  0  0  0  0  0  0  0  0  0
   26.8599  -16.1170  -16.3018 C   0  0  0  0  0  0  0  0  0  0  0  0
   27.1318  -17.3415  -15.5154 C   0  0  0  0  0  0  0  0  0  0  0  0
   25.9752  -18.1757  -15.1126 C   0  0  2  0  0  0  0  0  0  0  0  0
   26.3357  -19.3834  -14.4089 N   0  0  0  0  0  0  0  0  0  0  0  0
   25.0316  -18.4524  -16.2302 C   0  0  0  0  0  0  0  0  0  0  0  0
   25.3152  -19.4158  -17.0199 O   0  0  0  0  0  0  0  0  0  0  0  0
   17.9989  -18.2817  -16.9029 N   0  0  0  0  0  0  0  0  0  0  0  0
   19.2265  -17.8387  -16.3655 C   0  0  0  0  0  0  0  0  0  0  0  0
   19.2093  -16.9643  -15.4670 O   0  0  0  0  0  0  0  0  0  0  0  0
   20.4894  -18.3894  -16.8383 C   0  0  0  0  0  0  0  0  0  0  0  0
   21.6068  -17.4569  -17.0669 C   0  0  0  0  0  0  0  0  0  0  0  0
   22.9068  -17.9845  -17.5466 C   0  0  2  0  0  0  0  0  0  0  0  0
   23.8602  -17.7047  -16.4440 N   0  0  0  0  0  0  0  0  0  0  0  0
   23.4344  -17.2442  -18.6951 C   0  0  0  0  0  0  0  0  0  0  0  0
   24.0455  -16.1321  -18.5778 O   0  0  0  0  0  0  0  0  0  0  0  0
   23.2973  -17.7352  -19.9945 O   0  0  0  0  0  0  0  0  0  0  0  0
  2  1  1  6
  2  3  1  0
  4  5  2  0
  4  2  1  0
  7  6  1  0
  8  7  1  0
  8  9  1  0
 10  9  1  6
 10 11  1  0
 10 12  1  0
 11  4  1  0
 12 20  1  0
 13 12  2  0
 15 14  1  0
 15 16  2  0
 17 15  1  0
 18 17  1  0
 19 18  1  1
 19 21  1  0
 20 19  1  0
 21 22  2  0
 21 23  1  0
M  END
$$$$
