AMQ.pdb
     RDKit          3D

 23 22  0  0  1  0  0  0  0  0999 V2000
   28.5739  -25.1168  -18.5241 C   0  0  0  0  0  0  0  0  0  0  0  0
   29.4510  -24.1979  -17.6971 C   0  0  2  0  0  0  0  0  0  0  0  0
   29.7385  -24.8608  -16.4543 N   0  0  0  0  0  0  0  0  0  0  0  0
   28.6888  -22.9448  -17.4403 C   0  0  0  0  0  0  0  0  0  0  0  0
   28.0816  -22.7815  -16.3481 O   0  0  0  0  0  0  0  0  0  0  0  0
   32.2737  -17.4478  -17.7501 C   0  0  0  0  0  0  0  0  0  0  0  0
   30.6713  -17.6245  -18.5810 S   0  0  0  0  0  0  0  0  0  0  0  0
   29.8887  -19.1187  -17.9933 C   0  0  0  0  0  0  0  0  0  0  0  0
   28.5645  -19.4373  -18.5735 C   0  0  0  0  0  0  0  0  0  0  0  0
   27.8823  -20.6668  -18.1061 C   0  0  2  0  0  0  0  0  0  0  0  0
   28.6033  -21.8851  -18.3885 N   0  0  0  0  0  0  0  0  0  0  0  0
   26.4625  -20.7548  -18.5447 C   0  0  0  0  0  0  0  0  0  0  0  0
   26.2055  -21.4547  -19.5822 O   0  0  0  0  0  0  0  0  0  0  0  0
   23.7040  -23.6771  -19.2873 N   0  0  0  0  0  0  0  0  0  0  0  0
   22.4147  -23.1756  -19.0077 C   0  0  0  0  0  0  0  0  0  0  0  0
   21.4226  -23.7489  -19.5169 O   0  0  0  0  0  0  0  0  0  0  0  0
   22.2365  -22.0194  -18.1397 C   0  0  0  0  0  0  0  0  0  0  0  0
   23.4433  -21.3636  -17.6070 C   0  0  0  0  0  0  0  0  0  0  0  0
   23.9966  -20.1802  -18.3084 C   0  0  2  0  0  0  0  0  0  0  0  0
   25.4127  -20.1069  -17.8702 N   0  0  0  0  0  0  0  0  0  0  0  0
   23.3998  -18.9200  -17.8598 C   0  0  0  0  0  0  0  0  0  0  0  0
   23.9706  -18.1446  -17.0252 O   0  0  0  0  0  0  0  0  0  0  0  0
   22.1591  -18.4981  -18.3406 O   0  0  0  0  0  0  0  0  0  0  0  0
  2  1  1  6
  2  3  1  0
  4  5  2  0
  4  2  1  0
  7  6  1  0
  8  7  1  0
  8  9  1  0
 10  9  1  6
 10 11  1  0
 10 12  1  0
 11  4  1  0
 12 20  1  0
 13 12  2  0
 15 14  1  0
 15 16  2  0
 17 15  1  0
 18 17  1  0
 19 18  1  1
 19 21  1  0
 20 19  1  0
 21 22  2  0
 21 23  1  0
M  END
$$$$
