AMQ.pdb
     RDKit          3D

 23 22  0  0  1  0  0  0  0  0999 V2000
   17.5462  -15.6635  -17.2570 C   0  0  0  0  0  0  0  0  0  0  0  0
   16.9071  -14.2908  -17.1856 C   0  0  2  0  0  0  0  0  0  0  0  0
   16.3127  -14.0124  -18.4645 N   0  0  0  0  0  0  0  0  0  0  0  0
   17.9801  -13.2997  -16.8972 C   0  0  0  0  0  0  0  0  0  0  0  0
   18.5668  -13.3030  -15.7818 O   0  0  0  0  0  0  0  0  0  0  0  0
   23.6945   -8.5124  -19.4227 C   0  0  0  0  0  0  0  0  0  0  0  0
   22.3326   -9.5925  -19.9403 S   0  0  0  0  0  0  0  0  0  0  0  0
   21.3780  -10.0340  -18.4966 C   0  0  0  0  0  0  0  0  0  0  0  0
   20.2976  -11.0248  -18.7027 C   0  0  0  0  0  0  0  0  0  0  0  0
   19.4452  -11.3703  -17.5410 C   0  0  2  0  0  0  0  0  0  0  0  0
   18.3958  -12.3156  -17.8396 N   0  0  0  0  0  0  0  0  0  0  0  0
   18.9210  -10.1777  -16.8205 C   0  0  0  0  0  0  0  0  0  0  0  0
   17.9062   -9.5831  -17.3194 O   0  0  0  0  0  0  0  0  0  0  0  0
   17.2085  -10.3046  -11.2747 N   0  0  0  0  0  0  0  0  0  0  0  0
   17.3578   -8.9031  -11.3509 C   0  0  0  0  0  0  0  0  0  0  0  0
   16.9949   -8.2054  -10.3744 O   0  0  0  0  0  0  0  0  0  0  0  0
   17.9284   -8.2776  -12.5363 C   0  0  0  0  0  0  0  0  0  0  0  0
   18.3888   -9.1552  -13.6262 C   0  0  0  0  0  0  0  0  0  0  0  0
   18.9304   -8.5500  -14.8668 C   0  0  2  0  0  0  0  0  0  0  0  0
   19.4926   -9.6909  -15.6317 N   0  0  0  0  0  0  0  0  0  0  0  0
   20.0717   -7.6659  -14.6194 C   0  0  0  0  0  0  0  0  0  0  0  0
   21.2786   -8.0269  -14.8111 O   0  0  0  0  0  0  0  0  0  0  0  0
   19.8868   -6.3603  -14.1616 O   0  0  0  0  0  0  0  0  0  0  0  0
  2  1  1  6
  2  3  1  0
  4  5  2  0
  4  2  1  0
  7  6  1  0
  8  7  1  0
  8  9  1  0
 10  9  1  6
 10 11  1  0
 10 12  1  0
 11  4  1  0
 12 20  1  0
 13 12  2  0
 15 14  1  0
 15 16  2  0
 17 15  1  0
 18 17  1  0
 19 18  1  1
 19 21  1  0
 20 19  1  0
 21 22  2  0
 21 23  1  0
M  END
$$$$
