AMQ.pdb
     RDKit          3D

 23 22  0  0  1  0  0  0  0  0999 V2000
   24.7008  -13.4735  -24.4163 C   0  0  0  0  0  0  0  0  0  0  0  0
   25.9862  -13.6357  -23.6293 C   0  0  2  0  0  0  0  0  0  0  0  0
   26.2671  -15.0418  -23.5257 N   0  0  0  0  0  0  0  0  0  0  0  0
   25.7698  -13.0594  -22.2736 C   0  0  0  0  0  0  0  0  0  0  0  0
   24.6055  -12.7843  -21.8772 O   0  0  0  0  0  0  0  0  0  0  0  0
   27.9065  -13.1453  -14.7557 C   0  0  0  0  0  0  0  0  0  0  0  0
   28.0902  -13.8669  -16.4094 S   0  0  0  0  0  0  0  0  0  0  0  0
   27.2061  -12.8440  -17.5767 C   0  0  0  0  0  0  0  0  0  0  0  0
   27.3051  -13.2380  -19.0003 C   0  0  0  0  0  0  0  0  0  0  0  0
   26.5958  -12.4046  -19.9994 C   0  0  2  0  0  0  0  0  0  0  0  0
   26.8372  -12.7922  -21.3688 N   0  0  0  0  0  0  0  0  0  0  0  0
   26.7996  -10.9438  -19.7982 C   0  0  0  0  0  0  0  0  0  0  0  0
   27.7812  -10.3939  -20.4036 O   0  0  0  0  0  0  0  0  0  0  0  0
   22.8286   -7.4458  -16.2773 N   0  0  0  0  0  0  0  0  0  0  0  0
   23.7724   -6.4854  -16.7006 C   0  0  0  0  0  0  0  0  0  0  0  0
   23.6535   -5.3052  -16.2941 O   0  0  0  0  0  0  0  0  0  0  0  0
   24.8677   -6.8564  -17.5862 C   0  0  0  0  0  0  0  0  0  0  0  0
   24.9957   -8.2730  -17.9700 C   0  0  0  0  0  0  0  0  0  0  0  0
   26.1688   -8.7069  -18.7664 C   0  0  2  0  0  0  0  0  0  0  0  0
   25.9654  -10.1613  -18.9804 N   0  0  0  0  0  0  0  0  0  0  0  0
   27.4289   -8.6096  -18.0260 C   0  0  0  0  0  0  0  0  0  0  0  0
   27.7356   -9.4041  -17.0781 O   0  0  0  0  0  0  0  0  0  0  0  0
   28.3733   -7.6293  -18.3351 O   0  0  0  0  0  0  0  0  0  0  0  0
  2  1  1  6
  2  3  1  0
  4  5  2  0
  4  2  1  0
  7  6  1  0
  8  7  1  0
  8  9  1  0
 10  9  1  1
 10 11  1  0
 10 12  1  0
 11  4  1  0
 12 20  1  0
 13 12  2  0
 15 14  1  0
 15 16  2  0
 17 15  1  0
 18 17  1  0
 19 18  1  1
 19 21  1  0
 20 19  1  0
 21 22  2  0
 21 23  1  0
M  END
$$$$
