GAP.pdb
     RDKit          3D

 17 17  0  0  1  0  0  0  0  0999 V2000
    8.9950  -16.1694   19.7565 N   0  0  0  0  0  0  0  0  0  0  0  0
    8.7755  -16.9952   20.9109 C   0  0  0  0  0  0  0  0  0  0  0  0
    8.1920  -16.1905   22.0475 C   0  0  0  0  0  0  0  0  0  0  0  0
    8.0602  -14.9523   21.9073 O   0  0  0  0  0  0  0  0  0  0  0  0
    6.4062  -17.0861   25.2105 C   0  0  0  0  0  0  0  0  0  0  0  0
    7.1759  -16.1306   24.3565 C   0  0  2  0  0  0  0  0  0  0  0  0
    7.7967  -16.8053   23.2537 N   0  0  0  0  0  0  0  0  0  0  0  0
    8.1150  -15.2838   25.1325 C   0  0  0  0  0  0  0  0  0  0  0  0
    9.3384  -15.5711   25.0348 O   0  0  0  0  0  0  0  0  0  0  0  0
    7.7238  -14.2040   25.9526 N   0  0  0  0  0  0  0  0  0  0  0  0
    6.3056  -13.8149   26.1056 C   0  0  0  0  0  0  0  0  0  0  0  0
    6.4368  -12.2799   26.2015 C   0  0  0  0  0  0  0  0  0  0  0  0
    7.5873  -12.1962   27.1597 C   0  0  0  0  0  0  0  0  0  0  0  0
    8.5083  -13.3065   26.7571 C   0  0  1  0  0  0  0  0  0  0  0  0
    9.0876  -13.9907   27.9503 C   0  0  0  0  0  0  0  0  0  0  0  0
   10.0932  -13.5098   28.7355 O   0  0  0  0  0  0  0  0  0  0  0  0
    8.5852  -15.1185   28.2399 O   0  0  0  0  0  0  0  0  0  0  0  0
  1  2  1  0
  2  3  1  0
  3  4  2  0
  6  5  1  1
  7  3  1  0
  7  6  1  0
  8  6  1  0
  8  9  2  0
 10  8  1  0
 11 10  1  0
 12 11  1  0
 13 14  1  0
 13 12  1  0
 14 10  1  0
 15 16  1  0
 14 15  1  1
 17 15  2  0
M  END
$$$$
