GAP.pdb
     RDKit          3D

 17 17  0  0  1  0  0  0  0  0999 V2000
    7.0393  -20.3845   28.2567 N   0  0  0  0  0  0  0  0  0  0  0  0
    7.0545  -19.7252   26.9808 C   0  0  0  0  0  0  0  0  0  0  0  0
    7.2240  -18.2339   27.1453 C   0  0  0  0  0  0  0  0  0  0  0  0
    6.4088  -17.6075   27.8618 O   0  0  0  0  0  0  0  0  0  0  0  0
    9.8636  -15.7445   26.2061 C   0  0  0  0  0  0  0  0  0  0  0  0
    8.4521  -16.1180   26.5270 C   0  0  2  0  0  0  0  0  0  0  0  0
    8.2761  -17.5413   26.5110 N   0  0  0  0  0  0  0  0  0  0  0  0
    7.4563  -15.3925   25.7006 C   0  0  0  0  0  0  0  0  0  0  0  0
    6.8123  -16.0834   24.8659 O   0  0  0  0  0  0  0  0  0  0  0  0
    7.1985  -14.0082   25.7947 N   0  0  0  0  0  0  0  0  0  0  0  0
    7.7111  -13.1941   26.9175 C   0  0  0  0  0  0  0  0  0  0  0  0
    6.5398  -12.2088   27.1171 C   0  0  0  0  0  0  0  0  0  0  0  0
    6.2786  -11.8521   25.6841 C   0  0  0  0  0  0  0  0  0  0  0  0
    6.4577  -13.1322   24.9275 C   0  0  1  0  0  0  0  0  0  0  0  0
    7.1640  -12.9031   23.6328 C   0  0  0  0  0  0  0  0  0  0  0  0
    6.6042  -12.3960   22.4977 O   0  0  0  0  0  0  0  0  0  0  0  0
    8.3927  -13.2163   23.6095 O   0  0  0  0  0  0  0  0  0  0  0  0
  1  2  1  0
  2  3  1  0
  3  4  2  0
  6  5  1  6
  7  3  1  0
  7  6  1  0
  8  6  1  0
  8  9  2  0
 10  8  1  0
 11 10  1  0
 12 11  1  0
 13 14  1  0
 13 12  1  0
 14 10  1  0
 15 16  1  0
 14 15  1  6
 17 15  2  0
M  END
$$$$
