GAP.pdb
     RDKit          3D

 17 17  0  0  1  0  0  0  0  0999 V2000
    8.5485  -12.3764   18.9528 N   0  0  0  0  0  0  0  0  0  0  0  0
    8.8507  -13.5087   19.7831 C   0  0  0  0  0  0  0  0  0  0  0  0
    8.0481  -13.4707   21.0614 C   0  0  0  0  0  0  0  0  0  0  0  0
    7.7213  -12.3589   21.5381 O   0  0  0  0  0  0  0  0  0  0  0  0
    6.3958  -16.0452   23.2394 C   0  0  0  0  0  0  0  0  0  0  0  0
    7.0391  -14.7153   23.0109 C   0  0  2  0  0  0  0  0  0  0  0  0
    7.6639  -14.6565   21.7213 N   0  0  0  0  0  0  0  0  0  0  0  0
    7.9364  -14.3053   24.1189 C   0  0  0  0  0  0  0  0  0  0  0  0
    9.1583  -14.5821   23.9807 O   0  0  0  0  0  0  0  0  0  0  0  0
    7.5079  -13.6411   25.2881 N   0  0  0  0  0  0  0  0  0  0  0  0
    6.1255  -13.1381   25.4370 C   0  0  0  0  0  0  0  0  0  0  0  0
    6.3759  -11.8386   26.2315 C   0  0  0  0  0  0  0  0  0  0  0  0
    7.3458  -12.3615   27.2486 C   0  0  0  0  0  0  0  0  0  0  0  0
    8.2189  -13.3176   26.4956 C   0  0  1  0  0  0  0  0  0  0  0  0
    8.5188  -14.5335   27.3075 C   0  0  0  0  0  0  0  0  0  0  0  0
    7.9603  -15.7652   27.1353 O   0  0  0  0  0  0  0  0  0  0  0  0
    9.3707  -14.3835   28.2349 O   0  0  0  0  0  0  0  0  0  0  0  0
  1  2  1  0
  2  3  1  0
  3  4  2  0
  6  5  1  1
  7  3  1  0
  7  6  1  0
  8  6  1  0
  8  9  2  0
 10  8  1  0
 11 10  1  0
 12 11  1  0
 13 14  1  0
 13 12  1  0
 14 10  1  0
 15 16  1  0
 14 15  1  1
 17 15  2  0
M  END
$$$$
