GAP.pdb
     RDKit          3D

 17 17  0  0  1  0  0  0  0  0999 V2000
    8.5973  -12.4817   18.8536 N   0  0  0  0  0  0  0  0  0  0  0  0
    8.8878  -13.5972   19.7104 C   0  0  0  0  0  0  0  0  0  0  0  0
    8.1418  -13.4825   21.0181 C   0  0  0  0  0  0  0  0  0  0  0  0
    7.9282  -12.3437   21.4952 O   0  0  0  0  0  0  0  0  0  0  0  0
    6.2523  -15.8887   23.1860 C   0  0  0  0  0  0  0  0  0  0  0  0
    6.9973  -14.6120   22.9627 C   0  0  2  0  0  0  0  0  0  0  0  0
    7.6858  -14.6269   21.7048 N   0  0  0  0  0  0  0  0  0  0  0  0
    7.8670  -14.2388   24.1053 C   0  0  0  0  0  0  0  0  0  0  0  0
    9.0911  -14.5165   23.9905 O   0  0  0  0  0  0  0  0  0  0  0  0
    7.4106  -13.6078   25.2822 N   0  0  0  0  0  0  0  0  0  0  0  0
    6.0233  -13.1136   25.4144 C   0  0  0  0  0  0  0  0  0  0  0  0
    6.2513  -11.8351   26.2487 C   0  0  0  0  0  0  0  0  0  0  0  0
    7.2010  -12.3821   27.2724 C   0  0  0  0  0  0  0  0  0  0  0  0
    8.0939  -13.3146   26.5132 C   0  0  1  0  0  0  0  0  0  0  0  0
    8.3808  -14.5509   27.2986 C   0  0  0  0  0  0  0  0  0  0  0  0
    9.3469  -14.6843   28.2513 O   0  0  0  0  0  0  0  0  0  0  0  0
    7.6493  -15.5538   27.0390 O   0  0  0  0  0  0  0  0  0  0  0  0
  1  2  1  0
  2  3  1  0
  3  4  2  0
  6  5  1  1
  7  3  1  0
  7  6  1  0
  8  6  1  0
  8  9  2  0
 10  8  1  0
 11 10  1  0
 12 11  1  0
 13 14  1  0
 13 12  1  0
 14 10  1  0
 15 16  1  0
 14 15  1  1
 17 15  2  0
M  END
$$$$
