GAP.pdb
     RDKit          3D

 17 17  0  0  1  0  0  0  0  0999 V2000
   11.9686  -16.4102   20.6579 N   0  0  0  0  0  0  0  0  0  0  0  0
   10.7123  -16.8277   21.2146 C   0  0  0  0  0  0  0  0  0  0  0  0
   10.0442  -15.6921   21.9521 C   0  0  0  0  0  0  0  0  0  0  0  0
   10.7604  -14.8280   22.5095 O   0  0  0  0  0  0  0  0  0  0  0  0
    6.4858  -14.5643   22.4129 C   0  0  0  0  0  0  0  0  0  0  0  0
    7.9226  -14.6365   22.8193 C   0  0  2  0  0  0  0  0  0  0  0  0
    8.6393  -15.5897   22.0228 N   0  0  0  0  0  0  0  0  0  0  0  0
    8.1050  -14.8332   24.2785 C   0  0  0  0  0  0  0  0  0  0  0  0
    8.8010  -15.8249   24.6265 O   0  0  0  0  0  0  0  0  0  0  0  0
    7.5558  -13.9940   25.2713 N   0  0  0  0  0  0  0  0  0  0  0  0
    6.7713  -12.7889   24.9270 C   0  0  0  0  0  0  0  0  0  0  0  0
    7.2081  -11.8291   26.0543 C   0  0  0  0  0  0  0  0  0  0  0  0
    7.1079  -12.7665   27.2206 C   0  0  0  0  0  0  0  0  0  0  0  0
    7.6098  -14.0804   26.7058 C   0  0  1  0  0  0  0  0  0  0  0  0
    6.7919  -15.2153   27.2261 C   0  0  0  0  0  0  0  0  0  0  0  0
    5.7568  -15.8171   26.5740 O   0  0  0  0  0  0  0  0  0  0  0  0
    7.1049  -15.6401   28.3793 O   0  0  0  0  0  0  0  0  0  0  0  0
  1  2  1  0
  2  3  1  0
  3  4  2  0
  6  5  1  1
  7  3  1  0
  7  6  1  0
  8  6  1  0
  8  9  2  0
 10  8  1  0
 11 10  1  0
 12 11  1  0
 13 14  1  0
 13 12  1  0
 14 10  1  0
 15 16  1  0
 14 15  1  1
 17 15  2  0
M  END
$$$$
