GAP.pdb
     RDKit          3D

 17 17  0  0  1  0  0  0  0  0999 V2000
    7.8778  -17.1070   19.3034 N   0  0  0  0  0  0  0  0  0  0  0  0
    8.6790  -16.7876   20.4517 C   0  0  0  0  0  0  0  0  0  0  0  0
    7.8188  -16.2946   21.5904 C   0  0  0  0  0  0  0  0  0  0  0  0
    6.6603  -15.8871   21.3413 O   0  0  0  0  0  0  0  0  0  0  0  0
    6.8668  -16.9471   24.7525 C   0  0  0  0  0  0  0  0  0  0  0  0
    7.5548  -15.8183   24.0543 C   0  0  2  0  0  0  0  0  0  0  0  0
    8.2946  -16.2856   22.9181 N   0  0  0  0  0  0  0  0  0  0  0  0
    8.3564  -14.9703   24.9704 C   0  0  0  0  0  0  0  0  0  0  0  0
    9.6041  -15.1480   24.9489 O   0  0  0  0  0  0  0  0  0  0  0  0
    7.8129  -14.0022   25.8417 N   0  0  0  0  0  0  0  0  0  0  0  0
    6.3689  -13.6843   25.8506 C   0  0  0  0  0  0  0  0  0  0  0  0
    6.4102  -12.1654   26.1225 C   0  0  0  0  0  0  0  0  0  0  0  0
    7.4272  -12.1458   27.2244 C   0  0  0  0  0  0  0  0  0  0  0  0
    8.4455  -13.1708   26.8299 C   0  0  1  0  0  0  0  0  0  0  0  0
    8.9057  -13.9606   28.0097 C   0  0  0  0  0  0  0  0  0  0  0  0
    9.8072  -13.5458   28.9447 O   0  0  0  0  0  0  0  0  0  0  0  0
    8.4011  -15.1176   28.1323 O   0  0  0  0  0  0  0  0  0  0  0  0
  1  2  1  0
  2  3  1  0
  3  4  2  0
  6  5  1  1
  7  3  1  0
  7  6  1  0
  8  6  1  0
  8  9  2  0
 10  8  1  0
 11 10  1  0
 12 11  1  0
 13 14  1  0
 13 12  1  0
 14 10  1  0
 15 16  1  0
 14 15  1  1
 17 15  2  0
M  END
$$$$
