GAP.pdb
     RDKit          3D

 17 17  0  0  1  0  0  0  0  0999 V2000
    9.3977  -15.2431   13.4517 N   0  0  0  0  0  0  0  0  0  0  0  0
    9.3477  -16.2313   14.4927 C   0  0  0  0  0  0  0  0  0  0  0  0
    8.7977  -15.6431   15.7699 C   0  0  0  0  0  0  0  0  0  0  0  0
    8.8830  -14.4063   15.9525 O   0  0  0  0  0  0  0  0  0  0  0  0
    6.6261  -16.9777   18.5148 C   0  0  0  0  0  0  0  0  0  0  0  0
    7.5865  -15.9763   17.9584 C   0  0  2  0  0  0  0  0  0  0  0  0
    8.1950  -16.4566   16.7518 N   0  0  0  0  0  0  0  0  0  0  0  0
    8.5679  -15.4928   18.9604 C   0  0  0  0  0  0  0  0  0  0  0  0
    9.6950  -16.0572   18.9571 O   0  0  0  0  0  0  0  0  0  0  0  0
    8.3150  -14.4637   19.8925 N   0  0  0  0  0  0  0  0  0  0  0  0
    7.0383  -13.7180   19.9034 C   0  0  0  0  0  0  0  0  0  0  0  0
    7.5324  -12.3069   20.2871 C   0  0  0  0  0  0  0  0  0  0  0  0
    8.4654  -12.6736   21.4024 C   0  0  0  0  0  0  0  0  0  0  0  0
    9.1350  -13.9341   20.9486 C   0  0  1  0  0  0  0  0  0  0  0  0
    9.2878  -14.9028   22.0736 C   0  0  0  0  0  0  0  0  0  0  0  0
   10.2710  -14.8799   23.0179 O   0  0  0  0  0  0  0  0  0  0  0  0
    8.4150  -15.8207   22.1361 O   0  0  0  0  0  0  0  0  0  0  0  0
  1  2  1  0
  2  3  1  0
  3  4  2  0
  6  5  1  1
  7  3  1  0
  7  6  1  0
  8  6  1  0
  8  9  2  0
 10  8  1  0
 11 10  1  0
 12 11  1  0
 13 14  1  0
 13 12  1  0
 14 10  1  0
 15 16  1  0
 14 15  1  1
 17 15  2  0
M  END
$$$$
