DDG.pdb
     RDKit          3D

 21 20  0  0  1  0  0  0  0  0999 V2000
   17.9152  -10.6460  -14.1677 N   0  0  0  0  0  0  0  0  0  0  0  0
   17.7470   -9.5183  -15.0557 C   0  0  1  0  0  0  0  0  0  0  0  0
   16.3399   -8.9668  -15.0153 C   0  0  0  0  0  0  0  0  0  0  0  0
   15.4329  -10.0861  -15.3895 C   0  0  0  0  0  0  0  0  0  0  0  0
   14.4652  -10.4567  -14.6799 O   0  0  0  0  0  0  0  0  0  0  0  0
   18.7717   -8.4690  -14.8134 C   0  0  0  0  0  0  0  0  0  0  0  0
   18.9221   -8.0285  -13.6533 O   0  0  0  0  0  0  0  0  0  0  0  0
   15.6419  -10.7793  -16.5840 O   0  0  0  0  0  0  0  0  0  0  0  0
   19.5903   -7.9435  -15.8490 N   0  0  0  0  0  0  0  0  0  0  0  0
   20.6472   -7.0002  -15.6675 C   0  0  1  0  0  0  0  0  0  0  0  0
   21.9527   -7.4543  -16.2758 C   0  0  0  0  0  0  0  0  0  0  0  0
   22.4561   -8.6939  -15.6311 C   0  0  0  0  0  0  0  0  0  0  0  0
   22.6066   -8.8220  -14.3852 O   0  0  0  0  0  0  0  0  0  0  0  0
   20.2175   -5.6848  -16.1824 C   0  0  0  0  0  0  0  0  0  0  0  0
   19.7719   -5.6274  -17.3476 O   0  0  0  0  0  0  0  0  0  0  0  0
   22.8013   -9.8208  -16.3907 O   0  0  0  0  0  0  0  0  0  0  0  0
   20.2773   -4.4686  -15.4348 N   0  0  0  0  0  0  0  0  0  0  0  0
   19.8582   -3.2054  -15.9482 C   0  0  0  0  0  0  0  0  0  0  0  0
   20.0032   -2.0949  -14.9943 C   0  0  0  0  0  0  0  0  0  0  0  0
   19.7754   -0.7561  -15.2760 O   0  0  0  0  0  0  0  0  0  0  0  0
   20.3638   -2.3752  -13.8227 O   0  0  0  0  0  0  0  0  0  0  0  0
  2  1  1  1
  2  3  1  0
  3  4  1  0
  4  8  1  0
  5  4  2  0
  6  2  1  0
  7  6  2  0
  9  6  1  0
 10 14  1  0
 10  9  1  0
 10 11  1  6
 12 11  1  0
 13 12  2  0
 14 15  2  0
 16 12  1  0
 17 14  1  0
 17 18  1  0
 18 19  1  0
 19 20  1  0
 21 19  2  0
M  END
$$$$
