DDG.pdb
     RDKit          3D

 21 20  0  0  1  0  0  0  0  0999 V2000
   15.4127  -11.0208  -12.7566 N   0  0  0  0  0  0  0  0  0  0  0  0
   15.6063  -10.4103  -11.4611 C   0  0  1  0  0  0  0  0  0  0  0  0
   16.1781  -11.3818  -10.4537 C   0  0  0  0  0  0  0  0  0  0  0  0
   15.2471  -12.5422  -10.4052 C   0  0  0  0  0  0  0  0  0  0  0  0
   14.0230  -12.4342  -10.1456 O   0  0  0  0  0  0  0  0  0  0  0  0
   16.4046   -9.1599  -11.5553 C   0  0  0  0  0  0  0  0  0  0  0  0
   17.2384   -9.0441  -12.4794 O   0  0  0  0  0  0  0  0  0  0  0  0
   15.7281  -13.8293  -10.6565 O   0  0  0  0  0  0  0  0  0  0  0  0
   16.2593   -8.0867  -10.6355 N   0  0  0  0  0  0  0  0  0  0  0  0
   16.8541   -6.7955  -10.7728 C   0  0  1  0  0  0  0  0  0  0  0  0
   16.0282   -5.6971  -10.1468 C   0  0  0  0  0  0  0  0  0  0  0  0
   14.7804   -5.4456  -10.9120 C   0  0  0  0  0  0  0  0  0  0  0  0
   13.6238   -5.5827  -10.4274 O   0  0  0  0  0  0  0  0  0  0  0  0
   18.2297   -6.8355  -10.2378 C   0  0  0  0  0  0  0  0  0  0  0  0
   18.3926   -7.2360   -9.0663 O   0  0  0  0  0  0  0  0  0  0  0  0
   14.8188   -5.0307  -12.2508 O   0  0  0  0  0  0  0  0  0  0  0  0
   19.3913   -6.4454  -10.9728 N   0  0  0  0  0  0  0  0  0  0  0  0
   20.7197   -6.5520  -10.4638 C   0  0  0  0  0  0  0  0  0  0  0  0
   21.7423   -5.9479  -11.3318 C   0  0  0  0  0  0  0  0  0  0  0  0
   21.5551   -5.5662  -12.6520 O   0  0  0  0  0  0  0  0  0  0  0  0
   22.8851   -5.7584  -10.8426 O   0  0  0  0  0  0  0  0  0  0  0  0
  2  1  1  6
  2  3  1  0
  3  4  1  0
  4  8  1  0
  5  4  2  0
  6  2  1  0
  7  6  2  0
  9  6  1  0
 10 14  1  0
 10  9  1  0
 10 11  1  1
 12 11  1  0
 13 12  2  0
 14 15  2  0
 16 12  1  0
 17 14  1  0
 17 18  1  0
 18 19  1  0
 19 20  1  0
 21 19  2  0
M  END
$$$$
