DDG.pdb
     RDKit          3D

 21 20  0  0  1  0  0  0  0  0999 V2000
   17.2279   -8.7571  -14.9425 N   0  0  0  0  0  0  0  0  0  0  0  0
   17.9031   -7.8479  -15.8404 C   0  0  1  0  0  0  0  0  0  0  0  0
   16.9462   -7.1852  -16.8053 C   0  0  0  0  0  0  0  0  0  0  0  0
   16.3508   -8.2727  -17.6289 C   0  0  0  0  0  0  0  0  0  0  0  0
   17.0366   -9.1070  -18.2700 O   0  0  0  0  0  0  0  0  0  0  0  0
   18.7341   -6.8608  -15.1023 C   0  0  0  0  0  0  0  0  0  0  0  0
   18.2830   -6.3582  -14.0504 O   0  0  0  0  0  0  0  0  0  0  0  0
   14.9622   -8.3987  -17.7135 O   0  0  0  0  0  0  0  0  0  0  0  0
   20.0247   -6.4629  -15.5439 N   0  0  0  0  0  0  0  0  0  0  0  0
   20.9181   -5.6130  -14.8233 C   0  0  1  0  0  0  0  0  0  0  0  0
   22.3076   -6.1910  -14.6974 C   0  0  0  0  0  0  0  0  0  0  0  0
   22.2962   -7.4969  -13.9902 C   0  0  0  0  0  0  0  0  0  0  0  0
   22.6480   -8.5840  -14.5247 O   0  0  0  0  0  0  0  0  0  0  0  0
   20.9231   -4.2745  -15.4463 C   0  0  0  0  0  0  0  0  0  0  0  0
   20.9445   -4.2072  -16.6931 O   0  0  0  0  0  0  0  0  0  0  0  0
   21.8829   -7.5974  -12.6541 O   0  0  0  0  0  0  0  0  0  0  0  0
   20.9050   -3.0463  -14.7162 N   0  0  0  0  0  0  0  0  0  0  0  0
   20.8821   -1.7610  -15.3347 C   0  0  0  0  0  0  0  0  0  0  0  0
   20.8495   -0.6402  -14.3824 C   0  0  0  0  0  0  0  0  0  0  0  0
   20.7493   -0.7571  -13.0040 O   0  0  0  0  0  0  0  0  0  0  0  0
   20.9178    0.5251  -14.8500 O   0  0  0  0  0  0  0  0  0  0  0  0
  2  1  1  1
  2  3  1  0
  3  4  1  0
  4  8  1  0
  5  4  2  0
  6  2  1  0
  7  6  2  0
  9  6  1  0
 10 14  1  0
 10  9  1  0
 10 11  1  6
 12 11  1  0
 13 12  2  0
 14 15  2  0
 16 12  1  0
 17 14  1  0
 17 18  1  0
 18 19  1  0
 19 20  1  0
 21 19  2  0
M  END
$$$$
