DDG.pdb
     RDKit          3D

 21 20  0  0  1  0  0  0  0  0999 V2000
   19.8733  -12.3095  -17.9575 N   0  0  0  0  0  0  0  0  0  0  0  0
   20.9961  -11.5275  -17.4924 C   0  0  1  0  0  0  0  0  0  0  0  0
   22.0688  -11.3874  -18.5487 C   0  0  0  0  0  0  0  0  0  0  0  0
   22.6135  -12.7521  -18.7860 C   0  0  0  0  0  0  0  0  0  0  0  0
   22.2593  -13.7607  -18.1266 O   0  0  0  0  0  0  0  0  0  0  0  0
   20.5643  -10.2131  -16.9488 C   0  0  0  0  0  0  0  0  0  0  0  0
   20.5087   -9.2300  -17.7189 O   0  0  0  0  0  0  0  0  0  0  0  0
   23.5684  -12.9545  -19.7852 O   0  0  0  0  0  0  0  0  0  0  0  0
   20.2109  -10.0263  -15.5853 N   0  0  0  0  0  0  0  0  0  0  0  0
   19.6777   -8.8243  -15.0279 C   0  0  1  0  0  0  0  0  0  0  0  0
   18.5402   -9.0750  -14.0667 C   0  0  0  0  0  0  0  0  0  0  0  0
   17.3664   -9.6750  -14.7509 C   0  0  0  0  0  0  0  0  0  0  0  0
   16.9209  -10.8267  -14.4934 O   0  0  0  0  0  0  0  0  0  0  0  0
   20.7717   -8.0488  -14.4101 C   0  0  0  0  0  0  0  0  0  0  0  0
   21.7390   -8.6769  -13.9313 O   0  0  0  0  0  0  0  0  0  0  0  0
   16.6696   -8.9768  -15.7474 O   0  0  0  0  0  0  0  0  0  0  0  0
   20.7984   -6.6228  -14.3229 N   0  0  0  0  0  0  0  0  0  0  0  0
   21.8916   -5.8861  -13.7777 C   0  0  0  0  0  0  0  0  0  0  0  0
   21.7562   -4.4276  -13.9138 C   0  0  0  0  0  0  0  0  0  0  0  0
   22.6346   -3.4856  -13.3993 O   0  0  0  0  0  0  0  0  0  0  0  0
   20.7628   -3.9904  -14.5489 O   0  0  0  0  0  0  0  0  0  0  0  0
  2  1  1  6
  2  3  1  0
  3  4  1  0
  4  8  1  0
  5  4  2  0
  6  2  1  0
  7  6  2  0
  9  6  1  0
 10 14  1  0
 10  9  1  0
 10 11  1  1
 12 11  1  0
 13 12  2  0
 14 15  2  0
 16 12  1  0
 17 14  1  0
 17 18  1  0
 18 19  1  0
 19 20  1  0
 21 19  2  0
M  END
$$$$
