DDG.pdb
     RDKit          3D

 21 20  0  0  1  0  0  0  0  0999 V2000
   17.0725  -11.9891  -15.7888 N   0  0  0  0  0  0  0  0  0  0  0  0
   16.9516  -10.5554  -15.9251 C   0  0  1  0  0  0  0  0  0  0  0  0
   15.6977  -10.0248  -15.2680 C   0  0  0  0  0  0  0  0  0  0  0  0
   14.5480  -10.6463  -15.9804 C   0  0  0  0  0  0  0  0  0  0  0  0
   14.5765  -10.9568  -17.1970 O   0  0  0  0  0  0  0  0  0  0  0  0
   18.1749   -9.8526  -15.4567 C   0  0  0  0  0  0  0  0  0  0  0  0
   18.4844   -9.9202  -14.2475 O   0  0  0  0  0  0  0  0  0  0  0  0
   13.3634  -10.9104  -15.2889 O   0  0  0  0  0  0  0  0  0  0  0  0
   19.0104   -9.1043  -16.3290 N   0  0  0  0  0  0  0  0  0  0  0  0
   20.2427   -8.4835  -15.9607 C   0  0  1  0  0  0  0  0  0  0  0  0
   21.4530   -9.2269  -16.4737 C   0  0  0  0  0  0  0  0  0  0  0  0
   22.7176   -8.5638  -16.0652 C   0  0  0  0  0  0  0  0  0  0  0  0
   22.8601   -7.9405  -14.9778 O   0  0  0  0  0  0  0  0  0  0  0  0
   20.2254   -7.0733  -16.3978 C   0  0  0  0  0  0  0  0  0  0  0  0
   19.9847   -6.8340  -17.5996 O   0  0  0  0  0  0  0  0  0  0  0  0
   23.8536   -8.5942  -16.8865 O   0  0  0  0  0  0  0  0  0  0  0  0
   20.4662   -5.9598  -15.5353 N   0  0  0  0  0  0  0  0  0  0  0  0
   20.5131   -4.6075  -15.9871 C   0  0  0  0  0  0  0  0  0  0  0  0
   20.9168   -3.6449  -14.9505 C   0  0  0  0  0  0  0  0  0  0  0  0
   21.1331   -3.9443  -13.6136 O   0  0  0  0  0  0  0  0  0  0  0  0
   21.0818   -2.4478  -15.2982 O   0  0  0  0  0  0  0  0  0  0  0  0
  2  1  1  1
  2  3  1  0
  3  4  1  0
  4  8  1  0
  5  4  2  0
  6  2  1  0
  7  6  2  0
  9  6  1  0
 10 14  1  0
 10  9  1  0
 10 11  1  6
 12 11  1  0
 13 12  2  0
 14 15  2  0
 16 12  1  0
 17 14  1  0
 17 18  1  0
 18 19  1  0
 19 20  1  0
 21 19  2  0
M  END
$$$$
