DDG.pdb
     RDKit          3D

 21 20  0  0  1  0  0  0  0  0999 V2000
   17.4632  -11.4884  -17.5049 N   0  0  0  0  0  0  0  0  0  0  0  0
   17.8324  -11.0412  -16.1812 C   0  0  1  0  0  0  0  0  0  0  0  0
   18.8619  -11.9449  -15.5415 C   0  0  0  0  0  0  0  0  0  0  0  0
   18.2073  -13.2680  -15.3507 C   0  0  0  0  0  0  0  0  0  0  0  0
   18.8389  -14.3533  -15.3277 O   0  0  0  0  0  0  0  0  0  0  0  0
   18.2536   -9.6156  -16.1790 C   0  0  0  0  0  0  0  0  0  0  0  0
   18.9640   -9.1945  -17.1175 O   0  0  0  0  0  0  0  0  0  0  0  0
   16.8221  -13.3400  -15.1860 O   0  0  0  0  0  0  0  0  0  0  0  0
   17.8815   -8.7080  -15.1512 N   0  0  0  0  0  0  0  0  0  0  0  0
   18.2268   -7.3228  -15.1081 C   0  0  1  0  0  0  0  0  0  0  0  0
   17.1114   -6.4541  -14.5773 C   0  0  0  0  0  0  0  0  0  0  0  0
   15.9147   -6.5008  -15.4557 C   0  0  0  0  0  0  0  0  0  0  0  0
   15.9357   -6.2043  -16.6816 O   0  0  0  0  0  0  0  0  0  0  0  0
   19.4777   -7.1580  -14.3413 C   0  0  0  0  0  0  0  0  0  0  0  0
   19.6499   -7.8795  -13.3367 O   0  0  0  0  0  0  0  0  0  0  0  0
   14.6618   -6.8873  -14.9587 O   0  0  0  0  0  0  0  0  0  0  0  0
   20.5083   -6.2254  -14.6724 N   0  0  0  0  0  0  0  0  0  0  0  0
   21.7239   -6.0987  -13.9366 C   0  0  0  0  0  0  0  0  0  0  0  0
   22.6215   -5.0484  -14.4420 C   0  0  0  0  0  0  0  0  0  0  0  0
   23.7717   -4.5992  -13.8103 O   0  0  0  0  0  0  0  0  0  0  0  0
   22.3277   -4.5075  -15.5385 O   0  0  0  0  0  0  0  0  0  0  0  0
  2  1  1  6
  2  3  1  0
  3  4  1  0
  4  8  1  0
  5  4  2  0
  6  2  1  0
  7  6  2  0
  9  6  1  0
 10 14  1  0
 10  9  1  0
 10 11  1  1
 12 11  1  0
 13 12  2  0
 14 15  2  0
 16 12  1  0
 17 14  1  0
 17 18  1  0
 18 19  1  0
 19 20  1  0
 21 19  2  0
M  END
$$$$
