DDG.pdb
     RDKit          3D

 21 20  0  0  1  0  0  0  0  0999 V2000
   16.6811  -11.4717  -14.1126 N   0  0  0  0  0  0  0  0  0  0  0  0
   17.7469  -11.3709  -15.0834 C   0  0  1  0  0  0  0  0  0  0  0  0
   17.4060  -12.0735  -16.3780 C   0  0  0  0  0  0  0  0  0  0  0  0
   17.1368  -13.4961  -16.0324 C   0  0  0  0  0  0  0  0  0  0  0  0
   16.1272  -13.8697  -15.3853 O   0  0  0  0  0  0  0  0  0  0  0  0
   18.1634   -9.9604  -15.2995 C   0  0  0  0  0  0  0  0  0  0  0  0
   18.9745   -9.7040  -16.2155 O   0  0  0  0  0  0  0  0  0  0  0  0
   18.0329  -14.4896  -16.4334 O   0  0  0  0  0  0  0  0  0  0  0  0
   17.6766   -8.8873  -14.5057 N   0  0  0  0  0  0  0  0  0  0  0  0
   17.9748   -7.5059  -14.7126 C   0  0  1  0  0  0  0  0  0  0  0  0
   16.7841   -6.6058  -14.4834 C   0  0  0  0  0  0  0  0  0  0  0  0
   15.7036   -6.8643  -15.4692 C   0  0  0  0  0  0  0  0  0  0  0  0
   14.5463   -7.2527  -15.1516 O   0  0  0  0  0  0  0  0  0  0  0  0
   19.1310   -7.1284  -13.8756 C   0  0  0  0  0  0  0  0  0  0  0  0
   19.1319   -7.4866  -12.6793 O   0  0  0  0  0  0  0  0  0  0  0  0
   15.9149   -6.6864  -16.8439 O   0  0  0  0  0  0  0  0  0  0  0  0
   20.2532   -6.3779  -14.3438 N   0  0  0  0  0  0  0  0  0  0  0  0
   21.4077   -6.1073  -13.5508 C   0  0  0  0  0  0  0  0  0  0  0  0
   22.4086   -5.2630  -14.2212 C   0  0  0  0  0  0  0  0  0  0  0  0
   23.5371   -4.7223  -13.6231 O   0  0  0  0  0  0  0  0  0  0  0  0
   22.2331   -5.0054  -15.4395 O   0  0  0  0  0  0  0  0  0  0  0  0
  2  1  1  1
  2  3  1  0
  3  4  1  0
  4  8  1  0
  5  4  2  0
  6  2  1  0
  7  6  2  0
  9  6  1  0
 10 14  1  0
 10  9  1  0
 10 11  1  1
 12 11  1  0
 13 12  2  0
 14 15  2  0
 16 12  1  0
 17 14  1  0
 17 18  1  0
 18 19  1  0
 19 20  1  0
 21 19  2  0
M  END
$$$$
