DDG.pdb
     RDKit          3D

 21 20  0  0  1  0  0  0  0  0999 V2000
   21.5576  -11.9098  -16.3372 N   0  0  0  0  0  0  0  0  0  0  0  0
   20.5898  -11.4824  -17.3218 C   0  0  1  0  0  0  0  0  0  0  0  0
   19.5794  -12.5631  -17.6332 C   0  0  0  0  0  0  0  0  0  0  0  0
   20.3236  -13.8520  -17.6425 C   0  0  0  0  0  0  0  0  0  0  0  0
   20.6357  -14.4761  -16.5982 O   0  0  0  0  0  0  0  0  0  0  0  0
   19.9441  -10.1995  -16.9386 C   0  0  0  0  0  0  0  0  0  0  0  0
   19.1571   -9.6557  -17.7433 O   0  0  0  0  0  0  0  0  0  0  0  0
   20.7088  -14.4227  -18.8579 O   0  0  0  0  0  0  0  0  0  0  0  0
   20.1847   -9.5628  -15.6913 N   0  0  0  0  0  0  0  0  0  0  0  0
   19.7162   -8.2649  -15.3230 C   0  0  1  0  0  0  0  0  0  0  0  0
   18.5365   -8.3100  -14.3814 C   0  0  0  0  0  0  0  0  0  0  0  0
   17.3478   -8.9294  -15.0211 C   0  0  0  0  0  0  0  0  0  0  0  0
   16.6918   -8.3854  -15.9511 O   0  0  0  0  0  0  0  0  0  0  0  0
   20.8404   -7.4807  -14.7744 C   0  0  0  0  0  0  0  0  0  0  0  0
   21.4977   -7.9749  -13.8347 O   0  0  0  0  0  0  0  0  0  0  0  0
   16.8757  -10.1862  -14.6166 O   0  0  0  0  0  0  0  0  0  0  0  0
   21.2286   -6.1896  -15.2480 N   0  0  0  0  0  0  0  0  0  0  0  0
   22.2877   -5.4247  -14.6750 C   0  0  0  0  0  0  0  0  0  0  0  0
   21.9899   -4.9044  -13.3316 C   0  0  0  0  0  0  0  0  0  0  0  0
   20.9101   -4.0993  -13.0007 O   0  0  0  0  0  0  0  0  0  0  0  0
   22.7762   -5.2112  -12.3994 O   0  0  0  0  0  0  0  0  0  0  0  0
  2  1  1  1
  2  3  1  0
  3  4  1  0
  4  8  1  0
  5  4  2  0
  6  2  1  0
  7  6  2  0
  9  6  1  0
 10 14  1  0
 10  9  1  0
 10 11  1  1
 12 11  1  0
 13 12  2  0
 14 15  2  0
 16 12  1  0
 17 14  1  0
 17 18  1  0
 18 19  1  0
 19 20  1  0
 21 19  2  0
M  END
$$$$
