DDG.pdb
     RDKit          3D

 21 20  0  0  1  0  0  0  0  0999 V2000
   19.7087   -6.4908  -13.3551 N   0  0  0  0  0  0  0  0  0  0  0  0
   20.9189   -6.6854  -14.1208 C   0  0  1  0  0  0  0  0  0  0  0  0
   22.0491   -5.8082  -13.6319 C   0  0  0  0  0  0  0  0  0  0  0  0
   21.6460   -4.4019  -13.9067 C   0  0  0  0  0  0  0  0  0  0  0  0
   20.8407   -4.0800  -14.8151 O   0  0  0  0  0  0  0  0  0  0  0  0
   21.3050   -8.1195  -14.1855 C   0  0  0  0  0  0  0  0  0  0  0  0
   21.2071   -8.8183  -13.1537 O   0  0  0  0  0  0  0  0  0  0  0  0
   22.1721   -3.3650  -13.1326 O   0  0  0  0  0  0  0  0  0  0  0  0
   21.7826   -8.7317  -15.3754 N   0  0  0  0  0  0  0  0  0  0  0  0
   22.0340  -10.1277  -15.5420 C   0  0  1  0  0  0  0  0  0  0  0  0
   21.2277  -10.7418  -16.6615 C   0  0  0  0  0  0  0  0  0  0  0  0
   21.3835  -12.2182  -16.7034 C   0  0  0  0  0  0  0  0  0  0  0  0
   21.8555  -12.8432  -17.6923 O   0  0  0  0  0  0  0  0  0  0  0  0
   23.4846  -10.3424  -15.7142 C   0  0  0  0  0  0  0  0  0  0  0  0
   24.1040   -9.5782  -16.4835 O   0  0  0  0  0  0  0  0  0  0  0  0
   21.0049  -13.0210  -15.6180 O   0  0  0  0  0  0  0  0  0  0  0  0
   24.2303  -11.3693  -15.0576 N   0  0  0  0  0  0  0  0  0  0  0  0
   25.6387  -11.5400  -15.2070 C   0  0  0  0  0  0  0  0  0  0  0  0
   26.0355  -12.1336  -16.4932 C   0  0  0  0  0  0  0  0  0  0  0  0
   27.3379  -12.3945  -16.8923 O   0  0  0  0  0  0  0  0  0  0  0  0
   25.1224  -12.4324  -17.3045 O   0  0  0  0  0  0  0  0  0  0  0  0
  2  1  1  1
  2  3  1  0
  3  4  1  0
  4  8  1  0
  5  4  2  0
  6  2  1  0
  7  6  2  0
  9  6  1  0
 10 14  1  0
 10  9  1  0
 10 11  1  6
 12 11  1  0
 13 12  2  0
 14 15  2  0
 16 12  1  0
 17 14  1  0
 17 18  1  0
 18 19  1  0
 19 20  1  0
 21 19  2  0
M  END
$$$$
