DDG.pdb
     RDKit          3D

 21 20  0  0  1  0  0  0  0  0999 V2000
   18.5739  -11.8144  -17.2699 N   0  0  0  0  0  0  0  0  0  0  0  0
   18.2609  -10.8636  -16.2275 C   0  0  1  0  0  0  0  0  0  0  0  0
   18.3670  -11.4749  -14.8488 C   0  0  0  0  0  0  0  0  0  0  0  0
   17.3017  -12.5106  -14.7591 C   0  0  0  0  0  0  0  0  0  0  0  0
   16.1750  -12.3901  -15.3007 O   0  0  0  0  0  0  0  0  0  0  0  0
   19.0651   -9.6200  -16.3568 C   0  0  0  0  0  0  0  0  0  0  0  0
   20.2029   -9.6874  -16.8700 O   0  0  0  0  0  0  0  0  0  0  0  0
   17.5358  -13.6873  -14.0437 O   0  0  0  0  0  0  0  0  0  0  0  0
   18.5930   -8.3531  -15.9199 N   0  0  0  0  0  0  0  0  0  0  0  0
   19.2645   -7.1084  -16.1189 C   0  0  1  0  0  0  0  0  0  0  0  0
   18.3141   -5.9484  -16.2969 C   0  0  0  0  0  0  0  0  0  0  0  0
   17.5148   -6.0806  -17.5418 C   0  0  0  0  0  0  0  0  0  0  0  0
   18.0240   -6.1993  -18.6898 O   0  0  0  0  0  0  0  0  0  0  0  0
   20.2156   -6.8876  -15.0114 C   0  0  0  0  0  0  0  0  0  0  0  0
   19.8003   -7.0336  -13.8428 O   0  0  0  0  0  0  0  0  0  0  0  0
   16.1131   -6.0810  -17.5100 O   0  0  0  0  0  0  0  0  0  0  0  0
   21.5843   -6.5169  -15.1872 N   0  0  0  0  0  0  0  0  0  0  0  0
   22.5038   -6.3586  -14.1080 C   0  0  0  0  0  0  0  0  0  0  0  0
   22.1365   -5.2941  -13.1615 C   0  0  0  0  0  0  0  0  0  0  0  0
   21.1008   -4.3873  -13.3312 O   0  0  0  0  0  0  0  0  0  0  0  0
   22.8141   -5.1913  -12.1072 O   0  0  0  0  0  0  0  0  0  0  0  0
  2  1  1  6
  2  3  1  0
  3  4  1  0
  4  8  1  0
  5  4  2  0
  6  2  1  0
  7  6  2  0
  9  6  1  0
 10 14  1  0
 10  9  1  0
 10 11  1  1
 12 11  1  0
 13 12  2  0
 14 15  2  0
 16 12  1  0
 17 14  1  0
 17 18  1  0
 18 19  1  0
 19 20  1  0
 21 19  2  0
M  END
$$$$
