RSC.pdb
     RDKit          3D

 24 23  0  0  1  0  0  0  0  0999 V2000
   20.3163  -18.2246  -16.9011 N   0  0  0  0  0  0  0  0  0  0  0  0
   19.6132  -19.4213  -16.7058 C   0  0  0  0  0  0  0  0  0  0  0  0
   19.5057  -20.2586  -17.6750 N   0  0  0  0  0  0  0  0  0  0  0  0
   19.0248  -19.7054  -15.4461 N   0  0  0  0  0  0  0  0  0  0  0  0
   19.1963  -18.8147  -14.3187 C   0  0  0  0  0  0  0  0  0  0  0  0
   20.5744  -19.0270  -13.6946 C   0  0  0  0  0  0  0  0  0  0  0  0
   20.4610  -20.1425  -12.6653 C   0  0  0  0  0  0  0  0  0  0  0  0
   21.8236  -20.2537  -11.9802 C   0  0  2  0  0  0  0  0  0  0  0  0
   22.8076  -20.6472  -12.9704 N   0  0  0  0  0  0  0  0  0  0  0  0
   21.6721  -21.2532  -10.9105 C   0  0  0  0  0  0  0  0  0  0  0  0
   21.6121  -22.4629  -11.2397 O   0  0  0  0  0  0  0  0  0  0  0  0
   18.9653  -21.1421  -17.5661 O   0  0  0  0  0  0  0  0  0  0  0  0
   21.1026  -20.0884   -7.0368 C   0  0  0  0  0  0  0  0  0  0  0  0
   21.7829  -21.2657   -7.1990 C   0  0  1  0  0  0  0  0  0  0  0  0
   21.4516  -21.8898   -8.5465 N   0  0  0  0  0  0  0  0  0  0  0  0
   21.5985  -20.8453   -9.5618 C   0  0  0  0  0  0  0  0  0  0  0  0
   20.0584  -22.3964   -8.5281 O   0  0  0  0  0  0  0  0  0  0  0  0
   19.1201  -21.7983   -9.1203 N   0  0  0  0  0  0  0  0  0  0  0  0
   19.7450  -23.5785   -7.8378 C   0  0  1  0  0  0  0  0  0  0  0  0
   18.3607  -24.0209   -7.7649 C   0  0  0  0  0  0  0  0  0  0  0  0
   18.2010  -25.2033   -8.7139 S   0  0  0  0  0  0  0  0  0  0  0  0
   16.5814  -25.9591   -8.5649 C   0  0  0  0  0  0  0  0  0  0  0  0
   18.0105  -24.4428   -6.3882 O   0  0  0  0  0  0  0  0  0  0  0  0
   16.6816  -24.3823   -6.0011 O   0  0  0  0  0  0  0  0  0  0  0  0
  2  3  2  0
  2  1  1  0
  4  2  1  0
  5  4  1  0
  6  5  1  0
  7  6  1  0
  7  8  1  0
  8  9  1  6
  8 10  1  0
 10 15  1  0
 11 10  2  0
 13 12  1  0
 14 16  1  0
 14 13  1  6
 15 14  1  0
 16 17  2  0
 18 16  1  0
 18 19  1  0
 19 20  1  1
 20 21  1  0
 22 23  1  0
 22 19  1  0
 24 22  2  0
M  END
$$$$
