RSC.pdb
     RDKit          3D

 24 23  0  0  1  0  0  0  0  0999 V2000
   17.8992  -25.1718  -15.8839 N   0  0  0  0  0  0  0  0  0  0  0  0
   17.1607  -24.2121  -15.1780 C   0  0  0  0  0  0  0  0  0  0  0  0
   15.9216  -24.4320  -14.9169 N   0  0  0  0  0  0  0  0  0  0  0  0
   17.7782  -23.0064  -14.7549 N   0  0  0  0  0  0  0  0  0  0  0  0
   19.2026  -22.7995  -14.9033 C   0  0  0  0  0  0  0  0  0  0  0  0
   19.4610  -21.6292  -15.8505 C   0  0  0  0  0  0  0  0  0  0  0  0
   20.3599  -20.6308  -15.1348 C   0  0  0  0  0  0  0  0  0  0  0  0
   21.0734  -21.3967  -14.0199 C   0  0  2  0  0  0  0  0  0  0  0  0
   20.2521  -21.3451  -12.8256 N   0  0  0  0  0  0  0  0  0  0  0  0
   22.3782  -20.7418  -13.8333 C   0  0  0  0  0  0  0  0  0  0  0  0
   22.4025  -19.6375  -13.2373 O   0  0  0  0  0  0  0  0  0  0  0  0
   15.3416  -23.7234  -14.4211 O   0  0  0  0  0  0  0  0  0  0  0  0
   25.9690  -22.1403  -15.5085 C   0  0  0  0  0  0  0  0  0  0  0  0
   25.9254  -21.7534  -14.1956 C   0  0  1  0  0  0  0  0  0  0  0  0
   24.8317  -20.7172  -13.9827 N   0  0  0  0  0  0  0  0  0  0  0  0
   23.5552  -21.3518  -14.3163 C   0  0  0  0  0  0  0  0  0  0  0  0
   25.0737  -19.5531  -14.8683 O   0  0  0  0  0  0  0  0  0  0  0  0
   24.4364  -19.3847  -15.9427 N   0  0  0  0  0  0  0  0  0  0  0  0
   26.0369  -18.5910  -14.5240 C   0  0  1  0  0  0  0  0  0  0  0  0
   26.3110  -17.4918  -15.4371 C   0  0  0  0  0  0  0  0  0  0  0  0
   27.0643  -16.4189  -14.6588 S   0  0  0  0  0  0  0  0  0  0  0  0
   27.4180  -14.9859  -15.6776 C   0  0  0  0  0  0  0  0  0  0  0  0
   27.1389  -17.9451  -16.5795 O   0  0  0  0  0  0  0  0  0  0  0  0
   26.9476  -17.3387  -17.8104 O   0  0  0  0  0  0  0  0  0  0  0  0
  2  3  2  0
  2  1  1  0
  4  2  1  0
  5  4  1  0
  6  5  1  0
  7  6  1  0
  7  8  1  0
  8  9  1  1
  8 10  1  0
 10 15  1  0
 11 10  2  0
 13 12  1  0
 14 16  1  0
 14 13  1  1
 15 14  1  0
 16 17  2  0
 18 16  1  0
 18 19  1  0
 19 20  1  6
 20 21  1  0
 22 23  1  0
 22 19  1  0
 24 22  2  0
M  END
$$$$
