RSC.pdb
     RDKit          3D

 24 23  0  0  1  0  0  0  0  0999 V2000
   21.1425  -21.8288  -10.5876 N   0  0  0  0  0  0  0  0  0  0  0  0
   21.6804  -21.0721   -9.5375 C   0  0  0  0  0  0  0  0  0  0  0  0
   21.1465  -21.1384   -8.3703 N   0  0  0  0  0  0  0  0  0  0  0  0
   22.8070  -20.2391   -9.7629 N   0  0  0  0  0  0  0  0  0  0  0  0
   23.4996  -20.2395  -11.0333 C   0  0  0  0  0  0  0  0  0  0  0  0
   24.8891  -20.8522  -10.8667 C   0  0  0  0  0  0  0  0  0  0  0  0
   25.6440  -20.6762  -12.1766 C   0  0  0  0  0  0  0  0  0  0  0  0
   24.8782  -21.4658  -13.2391 C   0  0  2  0  0  0  0  0  0  0  0  0
   25.4519  -22.7949  -13.3294 N   0  0  0  0  0  0  0  0  0  0  0  0
   25.0098  -20.7104  -14.4954 C   0  0  0  0  0  0  0  0  0  0  0  0
   26.1654  -20.5044  -14.9398 O   0  0  0  0  0  0  0  0  0  0  0  0
   21.5600  -20.6326   -7.5594 O   0  0  0  0  0  0  0  0  0  0  0  0
   21.7770  -18.8922  -16.3083 C   0  0  0  0  0  0  0  0  0  0  0  0
   22.7050  -19.4714  -17.1320 C   0  0  1  0  0  0  0  0  0  0  0  0
   24.0577  -19.5459  -16.4396 N   0  0  0  0  0  0  0  0  0  0  0  0
   23.8609  -20.2402  -15.1657 C   0  0  0  0  0  0  0  0  0  0  0  0
   24.5692  -18.1745  -16.2037 O   0  0  0  0  0  0  0  0  0  0  0  0
   24.1135  -17.4377  -15.2882 N   0  0  0  0  0  0  0  0  0  0  0  0
   25.5944  -17.6539  -17.0100 C   0  0  1  0  0  0  0  0  0  0  0  0
   26.0508  -16.2888  -16.7973 C   0  0  0  0  0  0  0  0  0  0  0  0
   27.5327  -16.3449  -16.4437 S   0  0  0  0  0  0  0  0  0  0  0  0
   27.8032  -17.0948  -14.8371 C   0  0  0  0  0  0  0  0  0  0  0  0
   25.8661  -15.4712  -18.0194 O   0  0  0  0  0  0  0  0  0  0  0  0
   25.9957  -14.0958  -17.9149 O   0  0  0  0  0  0  0  0  0  0  0  0
  2  3  2  0
  2  1  1  0
  4  2  1  0
  5  4  1  0
  6  5  1  0
  7  6  1  0
  7  8  1  0
  8  9  1  6
  8 10  1  0
 10 15  1  0
 11 10  2  0
 13 12  1  0
 14 16  1  0
 14 13  1  6
 15 14  1  0
 16 17  2  0
 18 16  1  0
 18 19  1  0
 19 20  1  6
 20 21  1  0
 22 23  1  0
 22 19  1  0
 24 22  2  0
M  END
$$$$
