RSC.pdb
     RDKit          3D

 24 23  0  0  1  0  0  0  0  0999 V2000
   28.7556  -28.0873  -15.9525 N   0  0  0  0  0  0  0  0  0  0  0  0
   29.1384  -27.8096  -17.2720 C   0  0  0  0  0  0  0  0  0  0  0  0
   29.5809  -28.7592  -18.0166 N   0  0  0  0  0  0  0  0  0  0  0  0
   29.0373  -26.4888  -17.7810 N   0  0  0  0  0  0  0  0  0  0  0  0
   28.1675  -25.5105  -17.1645 C   0  0  0  0  0  0  0  0  0  0  0  0
   26.7871  -25.5589  -17.8172 C   0  0  0  0  0  0  0  0  0  0  0  0
   25.9259  -24.4756  -17.1836 C   0  0  0  0  0  0  0  0  0  0  0  0
   25.5797  -24.9533  -15.7727 C   0  0  2  0  0  0  0  0  0  0  0  0
   24.7468  -26.1362  -15.8771 N   0  0  0  0  0  0  0  0  0  0  0  0
   24.8873  -23.8351  -15.1121 C   0  0  0  0  0  0  0  0  0  0  0  0
   23.7132  -24.0246  -14.7109 O   0  0  0  0  0  0  0  0  0  0  0  0
   29.8626  -28.5829  -19.0035 O   0  0  0  0  0  0  0  0  0  0  0  0
   26.5043  -20.1713  -15.2117 C   0  0  0  0  0  0  0  0  0  0  0  0
   25.7552  -20.3587  -14.0808 C   0  0  1  0  0  0  0  0  0  0  0  0
   24.8011  -21.5299  -14.2630 N   0  0  0  0  0  0  0  0  0  0  0  0
   25.5394  -22.5953  -14.9436 C   0  0  0  0  0  0  0  0  0  0  0  0
   23.6431  -21.1018  -15.0839 O   0  0  0  0  0  0  0  0  0  0  0  0
   23.6394  -21.2010  -16.3404 N   0  0  0  0  0  0  0  0  0  0  0  0
   22.5000  -20.5661  -14.4688 C   0  0  1  0  0  0  0  0  0  0  0  0
   21.3661  -20.1653  -15.2878 C   0  0  0  0  0  0  0  0  0  0  0  0
   20.1317  -20.1455  -14.3933 S   0  0  0  0  0  0  0  0  0  0  0  0
   18.6741  -19.6035  -15.2867 C   0  0  0  0  0  0  0  0  0  0  0  0
   21.5787  -18.8169  -15.8647 O   0  0  0  0  0  0  0  0  0  0  0  0
   21.0187  -18.5358  -17.1003 O   0  0  0  0  0  0  0  0  0  0  0  0
  2  3  2  0
  2  1  1  0
  4  2  1  0
  5  4  1  0
  6  5  1  0
  7  6  1  0
  7  8  1  0
  8  9  1  6
  8 10  1  0
 10 15  1  0
 11 10  2  0
 13 12  1  0
 14 16  1  0
 14 13  1  1
 15 14  1  0
 16 17  2  0
 18 16  1  0
 18 19  1  0
 19 20  1  6
 20 21  1  0
 22 23  1  0
 22 19  1  0
 24 22  2  0
M  END
$$$$
