CND.pdb
     RDKit          3D

 23 22  0  0  1  0  0  0  0  0999 V2000
    7.4861  -15.5676   19.6641 N   0  0  0  0  0  0  0  0  0  0  0  0
    8.5477  -14.5795   19.6851 C   0  0  1  0  0  0  0  0  0  0  0  0
    7.8783  -13.2393   19.3584 C   0  0  0  0  0  0  0  0  0  0  0  0
    7.3067  -13.3395   17.6342 S   0  0  0  0  0  0  0  0  0  0  0  0
    9.1332  -14.4535   21.0453 C   0  0  0  0  0  0  0  0  0  0  0  0
   10.1209  -13.7586   21.3099 O   0  0  0  0  0  0  0  0  0  0  0  0
    8.8409  -13.7478   26.4681 N   0  0  0  0  0  0  0  0  0  0  0  0
    8.4140  -14.9415   25.8275 C   0  0  0  0  0  0  0  0  0  0  0  0
    8.4244  -15.9966   26.4980 O   0  0  0  0  0  0  0  0  0  0  0  0
    7.9885  -14.8538   24.4176 C   0  0  0  0  0  0  0  0  0  0  0  0
    9.0552  -15.2583   23.4306 C   0  0  2  0  0  0  0  0  0  0  0  0
    8.5223  -15.1748   22.1094 N   0  0  0  0  0  0  0  0  0  0  0  0
    9.6291  -16.5716   23.7631 C   0  0  0  0  0  0  0  0  0  0  0  0
    8.9461  -17.5962   23.5046 O   0  0  0  0  0  0  0  0  0  0  0  0
   10.8953  -16.7771   24.3539 N   0  0  0  0  0  0  0  0  0  0  0  0
   11.5015  -18.0390   24.6102 C   0  0  1  0  0  0  0  0  0  0  0  0
   12.9388  -18.1460   24.2280 C   0  0  0  0  0  0  0  0  0  0  0  0
   13.2676  -17.4746   22.9595 C   0  0  0  0  0  0  0  0  0  0  0  0
   12.7455  -17.9346   21.9081 O   0  0  0  0  0  0  0  0  0  0  0  0
   11.3919  -18.3526   26.0660 C   0  0  0  0  0  0  0  0  0  0  0  0
   11.8569  -19.5302   26.6225 O   0  0  0  0  0  0  0  0  0  0  0  0
   14.0986  -16.3857   22.8293 O   0  0  0  0  0  0  0  0  0  0  0  0
   10.8530  -17.5142   26.8335 O   0  0  0  0  0  0  0  0  0  0  0  0
  2  1  1  1
  2  3  1  0
  3  4  1  0
  5 12  1  0
  5  2  1  0
  6  5  2  0
  7  8  1  0
  8  9  2  0
  8 10  1  0
 11 10  1  1
 11 12  1  0
 11 13  1  0
 13 14  2  0
 15 13  1  0
 15 16  1  0
 16 17  1  1
 17 18  1  0
 18 22  1  0
 18 19  2  0
 20 21  1  0
 20 16  1  0
 23 20  2  0
M  END
$$$$
