CND.pdb
     RDKit          3D

 23 22  0  0  1  0  0  0  0  0999 V2000
    6.9490  -14.8683   18.0350 N   0  0  0  0  0  0  0  0  0  0  0  0
    8.2731  -14.6975   18.6017 C   0  0  1  0  0  0  0  0  0  0  0  0
    8.0712  -13.9271   19.9119 C   0  0  0  0  0  0  0  0  0  0  0  0
    7.4672  -12.2705   19.4643 S   0  0  0  0  0  0  0  0  0  0  0  0
    8.8755  -16.0090   18.9563 C   0  0  0  0  0  0  0  0  0  0  0  0
    8.2177  -17.0174   19.2371 O   0  0  0  0  0  0  0  0  0  0  0  0
   11.0065  -19.4409   17.0074 N   0  0  0  0  0  0  0  0  0  0  0  0
   11.5060  -18.1112   16.9937 C   0  0  0  0  0  0  0  0  0  0  0  0
   11.4538  -17.4818   15.9148 O   0  0  0  0  0  0  0  0  0  0  0  0
   12.0509  -17.5658   18.2517 C   0  0  0  0  0  0  0  0  0  0  0  0
   11.0064  -17.3049   19.3082 C   0  0  2  0  0  0  0  0  0  0  0  0
   10.2949  -16.1136   18.9748 N   0  0  0  0  0  0  0  0  0  0  0  0
   11.5933  -17.2942   20.6573 C   0  0  0  0  0  0  0  0  0  0  0  0
   12.2370  -18.3095   21.0286 O   0  0  0  0  0  0  0  0  0  0  0  0
   11.4917  -16.2274   21.5773 N   0  0  0  0  0  0  0  0  0  0  0  0
   11.9272  -16.2497   22.9321 C   0  0  1  0  0  0  0  0  0  0  0  0
   10.9223  -16.7421   23.9175 C   0  0  0  0  0  0  0  0  0  0  0  0
   11.4121  -16.7614   25.3059 C   0  0  0  0  0  0  0  0  0  0  0  0
   12.0019  -15.7296   25.7267 O   0  0  0  0  0  0  0  0  0  0  0  0
   13.1398  -17.1136   23.0465 C   0  0  0  0  0  0  0  0  0  0  0  0
   14.4091  -16.6095   23.2641 O   0  0  0  0  0  0  0  0  0  0  0  0
   11.2779  -17.8149   26.1808 O   0  0  0  0  0  0  0  0  0  0  0  0
   13.0144  -18.3609   22.9420 O   0  0  0  0  0  0  0  0  0  0  0  0
  2  1  1  1
  2  3  1  0
  3  4  1  0
  5 12  1  0
  5  2  1  0
  6  5  2  0
  7  8  1  0
  8  9  2  0
  8 10  1  0
 11 10  1  6
 11 12  1  0
 11 13  1  0
 13 14  2  0
 15 13  1  0
 15 16  1  0
 16 17  1  1
 17 18  1  0
 18 22  1  0
 18 19  2  0
 20 21  1  0
 20 16  1  0
 23 20  2  0
M  END
$$$$
