CND.pdb
     RDKit          3D

 23 22  0  0  1  0  0  0  0  0999 V2000
    7.4204  -12.6325   18.7704 N   0  0  0  0  0  0  0  0  0  0  0  0
    7.7891  -13.9981   19.0910 C   0  0  1  0  0  0  0  0  0  0  0  0
    9.0459  -14.2969   18.2649 C   0  0  0  0  0  0  0  0  0  0  0  0
    8.4875  -14.7242   16.5872 S   0  0  0  0  0  0  0  0  0  0  0  0
    8.1682  -14.1271   20.5222 C   0  0  0  0  0  0  0  0  0  0  0  0
    8.8778  -13.3132   21.1243 O   0  0  0  0  0  0  0  0  0  0  0  0
    6.4904  -15.8817   25.6782 N   0  0  0  0  0  0  0  0  0  0  0  0
    7.1150  -16.6450   24.6560 C   0  0  0  0  0  0  0  0  0  0  0  0
    7.8401  -17.6014   25.0057 O   0  0  0  0  0  0  0  0  0  0  0  0
    6.8653  -16.2569   23.2547 C   0  0  0  0  0  0  0  0  0  0  0  0
    8.0199  -15.5358   22.6048 C   0  0  2  0  0  0  0  0  0  0  0  0
    7.6869  -15.2542   21.2460 N   0  0  0  0  0  0  0  0  0  0  0  0
    9.2812  -16.2746   22.7716 C   0  0  0  0  0  0  0  0  0  0  0  0
    9.4706  -17.2885   22.0510 O   0  0  0  0  0  0  0  0  0  0  0  0
   10.3054  -15.9351   23.6828 N   0  0  0  0  0  0  0  0  0  0  0  0
   11.5486  -16.6119   23.8309 C   0  0  1  0  0  0  0  0  0  0  0  0
   12.7561  -15.7371   23.8269 C   0  0  0  0  0  0  0  0  0  0  0  0
   13.8228  -16.2013   22.9243 C   0  0  0  0  0  0  0  0  0  0  0  0
   13.4721  -16.6933   21.8177 O   0  0  0  0  0  0  0  0  0  0  0  0
   11.5441  -17.3776   25.1128 C   0  0  0  0  0  0  0  0  0  0  0  0
   12.4607  -18.3719   25.4024 O   0  0  0  0  0  0  0  0  0  0  0  0
   15.1712  -16.1412   23.1914 O   0  0  0  0  0  0  0  0  0  0  0  0
   10.6702  -17.1156   25.9788 O   0  0  0  0  0  0  0  0  0  0  0  0
  2  1  1  1
  2  3  1  0
  3  4  1  0
  5 12  1  0
  5  2  1  0
  6  5  2  0
  7  8  1  0
  8  9  2  0
  8 10  1  0
 11 10  1  6
 11 12  1  0
 11 13  1  0
 13 14  2  0
 15 13  1  0
 15 16  1  0
 16 17  1  1
 17 18  1  0
 18 22  1  0
 18 19  2  0
 20 21  1  0
 20 16  1  0
 23 20  2  0
M  END
$$$$
