CND.pdb
     RDKit          3D

 23 22  0  0  1  0  0  0  0  0999 V2000
    6.3701  -15.3786   26.0035 N   0  0  0  0  0  0  0  0  0  0  0  0
    6.8623  -14.3384   25.1207 C   0  0  1  0  0  0  0  0  0  0  0  0
    8.1285  -13.7881   25.7878 C   0  0  0  0  0  0  0  0  0  0  0  0
    7.5842  -12.6537   27.1017 S   0  0  0  0  0  0  0  0  0  0  0  0
    7.2719  -14.9018   23.8078 C   0  0  0  0  0  0  0  0  0  0  0  0
    7.3249  -16.1124   23.5625 O   0  0  0  0  0  0  0  0  0  0  0  0
    8.5486  -12.5777   18.2623 N   0  0  0  0  0  0  0  0  0  0  0  0
    7.9260  -13.5576   19.0807 C   0  0  0  0  0  0  0  0  0  0  0  0
    7.5955  -14.6377   18.5448 O   0  0  0  0  0  0  0  0  0  0  0  0
    7.7127  -13.2336   20.5041 C   0  0  0  0  0  0  0  0  0  0  0  0
    7.9575  -14.3923   21.4384 C   0  0  2  0  0  0  0  0  0  0  0  0
    7.6248  -13.9958   22.7684 N   0  0  0  0  0  0  0  0  0  0  0  0
    9.3223  -14.9229   21.2953 C   0  0  0  0  0  0  0  0  0  0  0  0
    9.6762  -15.3428   20.1633 O   0  0  0  0  0  0  0  0  0  0  0  0
   10.2755  -14.9997   22.3347 N   0  0  0  0  0  0  0  0  0  0  0  0
   11.5687  -15.5862   22.2390 C   0  0  1  0  0  0  0  0  0  0  0  0
   11.6259  -17.0522   22.5050 C   0  0  0  0  0  0  0  0  0  0  0  0
   11.3350  -17.4142   23.9022 C   0  0  0  0  0  0  0  0  0  0  0  0
   11.7731  -16.6479   24.8025 O   0  0  0  0  0  0  0  0  0  0  0  0
   12.1184  -15.3487   20.8711 C   0  0  0  0  0  0  0  0  0  0  0  0
   13.4195  -15.6544   20.5159 O   0  0  0  0  0  0  0  0  0  0  0  0
   10.6236  -18.5212   24.3043 O   0  0  0  0  0  0  0  0  0  0  0  0
   11.3727  -14.8473   19.9908 O   0  0  0  0  0  0  0  0  0  0  0  0
  2  1  1  1
  2  3  1  0
  3  4  1  0
  5 12  1  0
  5  2  1  0
  6  5  2  0
  7  8  1  0
  8  9  2  0
  8 10  1  0
 11 10  1  6
 11 12  1  0
 11 13  1  0
 13 14  2  0
 15 13  1  0
 15 16  1  0
 16 17  1  6
 17 18  1  0
 18 22  1  0
 18 19  2  0
 20 21  1  0
 20 16  1  0
 23 20  2  0
M  END
$$$$
