CND.pdb
     RDKit          3D

 23 22  0  0  1  0  0  0  0  0999 V2000
    8.0033  -15.0029   19.0402 N   0  0  0  0  0  0  0  0  0  0  0  0
    8.4203  -14.0318   20.0336 C   0  0  1  0  0  0  0  0  0  0  0  0
    7.4070  -12.8842   19.9479 C   0  0  0  0  0  0  0  0  0  0  0  0
    7.3234  -12.3810   18.2018 S   0  0  0  0  0  0  0  0  0  0  0  0
    8.3243  -14.5958   21.4052 C   0  0  0  0  0  0  0  0  0  0  0  0
    8.5946  -13.9630   22.4322 O   0  0  0  0  0  0  0  0  0  0  0  0
    6.3721  -19.9056   23.8438 N   0  0  0  0  0  0  0  0  0  0  0  0
    6.6012  -18.5062   23.9259 C   0  0  0  0  0  0  0  0  0  0  0  0
    6.5945  -17.9818   25.0608 O   0  0  0  0  0  0  0  0  0  0  0  0
    6.8309  -17.7696   22.6684 C   0  0  0  0  0  0  0  0  0  0  0  0
    7.8133  -16.6320   22.7967 C   0  0  2  0  0  0  0  0  0  0  0  0
    7.8957  -15.9455   21.5483 N   0  0  0  0  0  0  0  0  0  0  0  0
    9.1112  -17.0944   23.3128 C   0  0  0  0  0  0  0  0  0  0  0  0
    9.1109  -17.8443   24.3231 O   0  0  0  0  0  0  0  0  0  0  0  0
   10.3681  -16.7618   22.7612 N   0  0  0  0  0  0  0  0  0  0  0  0
   11.6356  -17.1487   23.2801 C   0  0  1  0  0  0  0  0  0  0  0  0
   12.8167  -16.5752   22.5733 C   0  0  0  0  0  0  0  0  0  0  0  0
   14.1094  -17.0010   23.1351 C   0  0  0  0  0  0  0  0  0  0  0  0
   14.1932  -18.1832   23.5651 O   0  0  0  0  0  0  0  0  0  0  0  0
   11.7243  -16.7484   24.7159 C   0  0  0  0  0  0  0  0  0  0  0  0
   11.4322  -15.4731   25.1642 O   0  0  0  0  0  0  0  0  0  0  0  0
   15.2331  -16.2124   23.2286 O   0  0  0  0  0  0  0  0  0  0  0  0
   12.0803  -17.6023   25.5682 O   0  0  0  0  0  0  0  0  0  0  0  0
  2  1  1  6
  2  3  1  0
  3  4  1  0
  5 12  1  0
  5  2  1  0
  6  5  2  0
  7  8  1  0
  8  9  2  0
  8 10  1  0
 11 10  1  6
 11 12  1  0
 11 13  1  0
 13 14  2  0
 15 13  1  0
 15 16  1  0
 16 17  1  6
 17 18  1  0
 18 22  1  0
 18 19  2  0
 20 21  1  0
 20 16  1  0
 23 20  2  0
M  END
$$$$
