CND.pdb
     RDKit          3D

 23 22  0  0  1  0  0  0  0  0999 V2000
    7.7761  -20.6211   20.1454 N   0  0  0  0  0  0  0  0  0  0  0  0
    8.1173  -19.2874   20.6017 C   0  0  1  0  0  0  0  0  0  0  0  0
    7.8871  -19.2922   22.1176 C   0  0  0  0  0  0  0  0  0  0  0  0
    6.1226  -19.6461   22.3840 S   0  0  0  0  0  0  0  0  0  0  0  0
    9.5586  -18.9998   20.3813 C   0  0  0  0  0  0  0  0  0  0  0  0
   10.4499  -19.8546   20.4406 O   0  0  0  0  0  0  0  0  0  0  0  0
   11.7864  -17.6265   16.5322 N   0  0  0  0  0  0  0  0  0  0  0  0
   10.8045  -16.9955   17.3417 C   0  0  0  0  0  0  0  0  0  0  0  0
    9.6175  -17.0331   16.9511 O   0  0  0  0  0  0  0  0  0  0  0  0
   11.2526  -16.3403   18.5853 C   0  0  0  0  0  0  0  0  0  0  0  0
   11.2740  -17.2548   19.7848 C   0  0  2  0  0  0  0  0  0  0  0  0
    9.9391  -17.6609   20.0840 N   0  0  0  0  0  0  0  0  0  0  0  0
   11.9820  -16.6414   20.9194 C   0  0  0  0  0  0  0  0  0  0  0  0
   11.7898  -15.4183   21.1429 O   0  0  0  0  0  0  0  0  0  0  0  0
   12.8674  -17.3203   21.7853 N   0  0  0  0  0  0  0  0  0  0  0  0
   13.5093  -16.7628   22.9267 C   0  0  1  0  0  0  0  0  0  0  0  0
   13.4249  -17.5816   24.1700 C   0  0  0  0  0  0  0  0  0  0  0  0
   14.0903  -16.9681   25.3314 C   0  0  0  0  0  0  0  0  0  0  0  0
   14.6586  -15.8568   25.1534 O   0  0  0  0  0  0  0  0  0  0  0  0
   14.9546  -16.5435   22.6220 C   0  0  0  0  0  0  0  0  0  0  0  0
   15.5293  -16.8719   21.4077 O   0  0  0  0  0  0  0  0  0  0  0  0
   14.1418  -17.5100   26.5950 O   0  0  0  0  0  0  0  0  0  0  0  0
   15.6955  -16.0366   23.5032 O   0  0  0  0  0  0  0  0  0  0  0  0
  2  1  1  1
  2  3  1  0
  3  4  1  0
  5 12  1  0
  5  2  1  0
  6  5  2  0
  7  8  1  0
  8  9  2  0
  8 10  1  0
 11 10  1  6
 11 12  1  0
 11 13  1  0
 13 14  2  0
 15 13  1  0
 15 16  1  0
 16 17  1  1
 17 18  1  0
 18 22  1  0
 18 19  2  0
 20 21  1  0
 20 16  1  0
 23 20  2  0
M  END
$$$$
