CND.pdb
     RDKit          3D

 23 22  0  0  1  0  0  0  0  0999 V2000
    8.5502  -17.5948   13.2536 N   0  0  0  0  0  0  0  0  0  0  0  0
    9.9637  -17.9152   13.3087 C   0  0  1  0  0  0  0  0  0  0  0  0
   10.7003  -16.6216   12.9410 C   0  0  0  0  0  0  0  0  0  0  0  0
   10.3290  -16.2795   11.1933 S   0  0  0  0  0  0  0  0  0  0  0  0
   10.3766  -18.2734   14.6907 C   0  0  0  0  0  0  0  0  0  0  0  0
    9.9470  -17.7145   15.7062 O   0  0  0  0  0  0  0  0  0  0  0  0
    9.6962  -21.0187   18.1114 N   0  0  0  0  0  0  0  0  0  0  0  0
   10.0644  -21.3258   16.7744 C   0  0  0  0  0  0  0  0  0  0  0  0
    9.1669  -21.7262   16.0017 O   0  0  0  0  0  0  0  0  0  0  0  0
   11.4783  -21.1514   16.3905 C   0  0  0  0  0  0  0  0  0  0  0  0
   11.8656  -19.7193   16.1176 C   0  0  2  0  0  0  0  0  0  0  0  0
   11.3236  -19.3227   14.8584 N   0  0  0  0  0  0  0  0  0  0  0  0
   13.3189  -19.5211   16.2332 C   0  0  0  0  0  0  0  0  0  0  0  0
   14.0251  -19.7250   15.2121 O   0  0  0  0  0  0  0  0  0  0  0  0
   13.9912  -19.1170   17.4077 N   0  0  0  0  0  0  0  0  0  0  0  0
   15.3843  -18.8490   17.5213 C   0  0  1  0  0  0  0  0  0  0  0  0
   15.7344  -17.5614   18.1868 C   0  0  0  0  0  0  0  0  0  0  0  0
   17.1825  -17.3043   18.2582 C   0  0  0  0  0  0  0  0  0  0  0  0
   17.8153  -17.8176   19.2203 O   0  0  0  0  0  0  0  0  0  0  0  0
   16.0381  -19.9513   18.2875 C   0  0  0  0  0  0  0  0  0  0  0  0
   17.3788  -20.2669   18.1623 O   0  0  0  0  0  0  0  0  0  0  0  0
   17.9003  -16.5491   17.3596 O   0  0  0  0  0  0  0  0  0  0  0  0
   15.3477  -20.6329   19.0883 O   0  0  0  0  0  0  0  0  0  0  0  0
  2  1  1  1
  2  3  1  0
  3  4  1  0
  5 12  1  0
  5  2  1  0
  6  5  2  0
  7  8  1  0
  8  9  2  0
  8 10  1  0
 11 10  1  6
 11 12  1  0
 11 13  1  0
 13 14  2  0
 15 13  1  0
 15 16  1  0
 16 17  1  1
 17 18  1  0
 18 22  1  0
 18 19  2  0
 20 21  1  0
 20 16  1  0
 23 20  2  0
M  END
$$$$
