CND.pdb
     RDKit          3D

 23 22  0  0  1  0  0  0  0  0999 V2000
    6.6791  -16.4211   20.6943 N   0  0  0  0  0  0  0  0  0  0  0  0
    7.8536  -15.6704   20.2935 C   0  0  1  0  0  0  0  0  0  0  0  0
    7.3290  -14.3543   19.7073 C   0  0  0  0  0  0  0  0  0  0  0  0
    6.4752  -13.4782   21.0536 S   0  0  0  0  0  0  0  0  0  0  0  0
    8.6905  -15.3196   21.4705 C   0  0  0  0  0  0  0  0  0  0  0  0
    9.7338  -14.6595   21.4036 O   0  0  0  0  0  0  0  0  0  0  0  0
    7.6572  -17.9819   25.9245 N   0  0  0  0  0  0  0  0  0  0  0  0
    7.2365  -16.9118   25.0906 C   0  0  0  0  0  0  0  0  0  0  0  0
    6.2290  -17.0952   24.3736 O   0  0  0  0  0  0  0  0  0  0  0  0
    8.0164  -15.6600   25.1282 C   0  0  0  0  0  0  0  0  0  0  0  0
    8.9662  -15.4961   23.9678 C   0  0  2  0  0  0  0  0  0  0  0  0
    8.2683  -15.7690   22.7533 N   0  0  0  0  0  0  0  0  0  0  0  0
   10.1862  -16.2978   24.1506 C   0  0  0  0  0  0  0  0  0  0  0  0
   10.0797  -17.5509   24.1127 O   0  0  0  0  0  0  0  0  0  0  0  0
   11.4783  -15.7702   24.3672 N   0  0  0  0  0  0  0  0  0  0  0  0
   12.7031  -16.4833   24.2376 C   0  0  1  0  0  0  0  0  0  0  0  0
   13.8857  -15.6574   23.8601 C   0  0  0  0  0  0  0  0  0  0  0  0
   15.1196  -16.4383   23.6710 C   0  0  0  0  0  0  0  0  0  0  0  0
   15.1107  -17.3287   22.7785 O   0  0  0  0  0  0  0  0  0  0  0  0
   13.0162  -17.1652   25.5287 C   0  0  0  0  0  0  0  0  0  0  0  0
   12.2878  -16.9622   26.6866 O   0  0  0  0  0  0  0  0  0  0  0  0
   16.2812  -16.2745   24.3900 O   0  0  0  0  0  0  0  0  0  0  0  0
   13.9860  -17.9647   25.5788 O   0  0  0  0  0  0  0  0  0  0  0  0
  2  1  1  1
  2  3  1  0
  3  4  1  0
  5 12  1  0
  5  2  1  0
  6  5  2  0
  7  8  1  0
  8  9  2  0
  8 10  1  0
 11 10  1  1
 11 12  1  0
 11 13  1  0
 13 14  2  0
 15 13  1  0
 15 16  1  0
 16 17  1  1
 17 18  1  0
 18 22  1  0
 18 19  2  0
 20 21  1  0
 20 16  1  0
 23 20  2  0
M  END
$$$$
