CND.pdb
     RDKit          3D

 23 22  0  0  1  0  0  0  0  0999 V2000
    8.0939  -14.1977   17.4383 N   0  0  0  0  0  0  0  0  0  0  0  0
    9.2058  -13.7326   18.2452 C   0  0  1  0  0  0  0  0  0  0  0  0
    8.6032  -13.3339   19.5976 C   0  0  0  0  0  0  0  0  0  0  0  0
    7.3695  -12.0387   19.2663 S   0  0  0  0  0  0  0  0  0  0  0  0
   10.1725  -14.8308   18.5061 C   0  0  0  0  0  0  0  0  0  0  0  0
   10.2164  -15.8809   17.8552 O   0  0  0  0  0  0  0  0  0  0  0  0
   15.5100  -13.9085   17.8961 N   0  0  0  0  0  0  0  0  0  0  0  0
   14.4649  -14.8663   17.9830 C   0  0  0  0  0  0  0  0  0  0  0  0
   14.7586  -16.0662   17.7906 O   0  0  0  0  0  0  0  0  0  0  0  0
   13.1071  -14.3799   18.2939 C   0  0  0  0  0  0  0  0  0  0  0  0
   12.4795  -15.0439   19.4941 C   0  0  2  0  0  0  0  0  0  0  0  0
   11.1051  -14.6668   19.5687 N   0  0  0  0  0  0  0  0  0  0  0  0
   13.2425  -14.7726   20.7224 C   0  0  0  0  0  0  0  0  0  0  0  0
   14.2442  -14.0157   20.6395 O   0  0  0  0  0  0  0  0  0  0  0  0
   12.9391  -15.2974   21.9981 N   0  0  0  0  0  0  0  0  0  0  0  0
   13.8606  -15.9246   22.8829 C   0  0  1  0  0  0  0  0  0  0  0  0
   13.4780  -17.2918   23.3387 C   0  0  0  0  0  0  0  0  0  0  0  0
   14.1115  -17.6944   24.6055 C   0  0  0  0  0  0  0  0  0  0  0  0
   15.2382  -18.2559   24.5371 O   0  0  0  0  0  0  0  0  0  0  0  0
   15.1945  -16.0217   22.2188 C   0  0  0  0  0  0  0  0  0  0  0  0
   15.4341  -16.8238   21.1180 O   0  0  0  0  0  0  0  0  0  0  0  0
   13.5726  -17.5071   25.8576 O   0  0  0  0  0  0  0  0  0  0  0  0
   16.1542  -15.3467   22.6724 O   0  0  0  0  0  0  0  0  0  0  0  0
  2  1  1  6
  2  3  1  0
  3  4  1  0
  5 12  1  0
  5  2  1  0
  6  5  2  0
  7  8  1  0
  8  9  2  0
  8 10  1  0
 11 10  1  6
 11 12  1  0
 11 13  1  0
 13 14  2  0
 15 13  1  0
 15 16  1  0
 16 17  1  6
 17 18  1  0
 18 22  1  0
 18 19  2  0
 20 21  1  0
 20 16  1  0
 23 20  2  0
M  END
$$$$
