NAE.pdb
     RDKit          3D

 23 22  0  0  1  0  0  0  0  0999 V2000
   20.4673  -11.6719  -22.3437 N   0  0  0  0  0  0  0  0  0  0  0  0
   21.4555  -11.4034  -21.3793 C   0  0  0  0  0  0  0  0  0  0  0  0
   22.6409  -11.7674  -21.6219 O   0  0  0  0  0  0  0  0  0  0  0  0
   21.1527  -10.7126  -20.0978 C   0  0  0  0  0  0  0  0  0  0  0  0
   21.3053  -11.6777  -18.9324 C   0  0  2  0  0  0  0  0  0  0  0  0
   20.1526  -12.5541  -18.9745 N   0  0  0  0  0  0  0  0  0  0  0  0
   21.3516  -10.8990  -17.6693 C   0  0  0  0  0  0  0  0  0  0  0  0
   20.2592  -10.3742  -17.2947 O   0  0  0  0  0  0  0  0  0  0  0  0
   23.8556  -10.2246  -14.9336 C   0  0  0  0  0  0  0  0  0  0  0  0
   22.5445  -10.0563  -15.7025 C   0  0  2  0  0  0  0  0  0  0  0  0
   22.5578  -10.7628  -16.9403 N   0  0  0  0  0  0  0  0  0  0  0  0
   22.4087   -8.5727  -15.9059 C   0  0  0  0  0  0  0  0  0  0  0  0
   23.0128   -8.0231  -16.8601 O   0  0  0  0  0  0  0  0  0  0  0  0
   21.6276   -7.7630  -15.0676 N   0  0  0  0  0  0  0  0  0  0  0  0
   21.5441   -6.3014  -15.1942 C   0  0  1  0  0  0  0  0  0  0  0  0
   20.1224   -6.0034  -15.5457 C   0  0  0  0  0  0  0  0  0  0  0  0
   19.7599   -4.5651  -15.6346 C   0  0  0  0  0  0  0  0  0  0  0  0
   18.3646   -4.2688  -15.9494 C   0  0  0  0  0  0  0  0  0  0  0  0
   17.5613   -5.2030  -16.1583 O   0  0  0  0  0  0  0  0  0  0  0  0
   21.9852   -5.6370  -13.9519 C   0  0  0  0  0  0  0  0  0  0  0  0
   21.9580   -6.2498  -12.8573 O   0  0  0  0  0  0  0  0  0  0  0  0
   17.9188   -2.9672  -16.0199 O   0  0  0  0  0  0  0  0  0  0  0  0
   22.4373   -4.3289  -13.9646 O   0  0  0  0  0  0  0  0  0  0  0  0
  1  2  1  0
  2  4  1  0
  2  3  2  0
  4  5  1  0
  5  7  1  0
  5  6  1  1
  7  8  2  0
 10  9  1  6
 11 10  1  0
 11  7  1  0
 12 13  2  0
 12 10  1  0
 14 12  1  0
 15 20  1  0
 15 14  1  0
 15 16  1  1
 17 18  1  0
 17 16  1  0
 18 19  2  0
 20 23  1  0
 21 20  2  0
 22 18  1  0
M  END
$$$$
