NAE.pdb
     RDKit          3D

 23 22  0  0  1  0  0  0  0  0999 V2000
   16.7572  -11.8805  -15.4284 N   0  0  0  0  0  0  0  0  0  0  0  0
   15.7639  -10.9104  -15.2030 C   0  0  0  0  0  0  0  0  0  0  0  0
   14.5998  -11.1352  -15.6397 O   0  0  0  0  0  0  0  0  0  0  0  0
   16.0374   -9.6428  -14.4751 C   0  0  0  0  0  0  0  0  0  0  0  0
   17.4972   -9.5845  -14.0529 C   0  0  2  0  0  0  0  0  0  0  0  0
   17.6693  -10.6027  -13.0369 N   0  0  0  0  0  0  0  0  0  0  0  0
   17.7876   -8.2294  -13.5206 C   0  0  0  0  0  0  0  0  0  0  0  0
   17.6301   -7.2647  -14.3290 O   0  0  0  0  0  0  0  0  0  0  0  0
   18.8328   -6.7149  -10.2225 C   0  0  0  0  0  0  0  0  0  0  0  0
   18.4442   -6.7256  -11.7015 C   0  0  2  0  0  0  0  0  0  0  0  0
   18.2151   -8.0474  -12.1830 N   0  0  0  0  0  0  0  0  0  0  0  0
   19.5981   -6.0657  -12.4044 C   0  0  0  0  0  0  0  0  0  0  0  0
   20.6935   -6.6733  -12.4961 O   0  0  0  0  0  0  0  0  0  0  0  0
   19.5063   -4.7852  -12.9703 N   0  0  0  0  0  0  0  0  0  0  0  0
   20.6117   -4.1277  -13.6810 C   0  0  1  0  0  0  0  0  0  0  0  0
   20.3869   -4.4071  -15.1319 C   0  0  0  0  0  0  0  0  0  0  0  0
   21.3240   -3.7458  -16.0766 C   0  0  0  0  0  0  0  0  0  0  0  0
   21.0947   -3.9984  -17.4969 C   0  0  0  0  0  0  0  0  0  0  0  0
   21.4907   -3.1736  -18.3481 O   0  0  0  0  0  0  0  0  0  0  0  0
   20.6574   -2.6856  -13.3689 C   0  0  0  0  0  0  0  0  0  0  0  0
   19.6132   -2.0708  -13.0433 O   0  0  0  0  0  0  0  0  0  0  0  0
   20.4442   -5.1389  -17.9141 O   0  0  0  0  0  0  0  0  0  0  0  0
   21.8470   -1.9806  -13.4277 O   0  0  0  0  0  0  0  0  0  0  0  0
  1  2  1  0
  2  4  1  0
  2  3  2  0
  4  5  1  0
  5  7  1  0
  5  6  1  1
  7  8  2  0
 10  9  1  1
 11 10  1  0
 11  7  1  0
 12 13  2  0
 12 10  1  0
 14 12  1  0
 15 20  1  0
 15 14  1  0
 15 16  1  6
 17 18  1  0
 17 16  1  0
 18 19  2  0
 20 23  1  0
 21 20  2  0
 22 18  1  0
M  END
$$$$
