NAE.pdb
     RDKit          3D

 23 22  0  0  1  0  0  0  0  0999 V2000
   14.4576  -10.5926   -9.3393 N   0  0  0  0  0  0  0  0  0  0  0  0
   15.5473   -9.7107   -9.2230 C   0  0  0  0  0  0  0  0  0  0  0  0
   15.9525   -9.4120   -8.0642 O   0  0  0  0  0  0  0  0  0  0  0  0
   16.2296   -9.1254  -10.4075 C   0  0  0  0  0  0  0  0  0  0  0  0
   15.6268   -9.6811  -11.6884 C   0  0  2  0  0  0  0  0  0  0  0  0
   16.0578  -11.0612  -11.7771 N   0  0  0  0  0  0  0  0  0  0  0  0
   16.1219   -8.8810  -12.8367 C   0  0  0  0  0  0  0  0  0  0  0  0
   17.3144   -9.1084  -13.2048 O   0  0  0  0  0  0  0  0  0  0  0  0
   14.7165   -6.3477  -15.2547 C   0  0  0  0  0  0  0  0  0  0  0  0
   15.7973   -7.2019  -14.5908 C   0  0  2  0  0  0  0  0  0  0  0  0
   15.2929   -7.9236  -13.4700 N   0  0  0  0  0  0  0  0  0  0  0  0
   16.8663   -6.2227  -14.1914 C   0  0  0  0  0  0  0  0  0  0  0  0
   16.8003   -5.6609  -13.0700 O   0  0  0  0  0  0  0  0  0  0  0  0
   17.9488   -5.9036  -15.0248 N   0  0  0  0  0  0  0  0  0  0  0  0
   19.0298   -4.9854  -14.6401 C   0  0  1  0  0  0  0  0  0  0  0  0
   20.3007   -5.6605  -15.0435 C   0  0  0  0  0  0  0  0  0  0  0  0
   21.5540   -4.9133  -14.7629 C   0  0  0  0  0  0  0  0  0  0  0  0
   22.7930   -5.5331  -15.2259 C   0  0  0  0  0  0  0  0  0  0  0  0
   22.7657   -6.6719  -15.7397 O   0  0  0  0  0  0  0  0  0  0  0  0
   18.8504   -3.6632  -15.2717 C   0  0  0  0  0  0  0  0  0  0  0  0
   18.2366   -3.5553  -16.3607 O   0  0  0  0  0  0  0  0  0  0  0  0
   23.9982   -4.8768  -15.1036 O   0  0  0  0  0  0  0  0  0  0  0  0
   19.3521   -2.5167  -14.6807 O   0  0  0  0  0  0  0  0  0  0  0  0
  1  2  1  0
  2  4  1  0
  2  3  2  0
  4  5  1  0
  5  7  1  0
  5  6  1  6
  7  8  2  0
 10  9  1  1
 11 10  1  0
 11  7  1  0
 12 13  2  0
 12 10  1  0
 14 12  1  0
 15 20  1  0
 15 14  1  0
 15 16  1  6
 17 18  1  0
 17 16  1  0
 18 19  2  0
 20 23  1  0
 21 20  2  0
 22 18  1  0
M  END
$$$$
