NAE.pdb
     RDKit          3D

 23 22  0  0  1  0  0  0  0  0999 V2000
   18.0773  -12.5101  -19.0330 N   0  0  0  0  0  0  0  0  0  0  0  0
   17.6613  -11.1887  -18.7895 C   0  0  0  0  0  0  0  0  0  0  0  0
   16.9554  -10.6140  -19.6657 O   0  0  0  0  0  0  0  0  0  0  0  0
   18.0221  -10.4549  -17.5474 C   0  0  0  0  0  0  0  0  0  0  0  0
   18.8945  -11.3265  -16.6575 C   0  0  2  0  0  0  0  0  0  0  0  0
   17.9906  -12.1411  -15.8715 N   0  0  0  0  0  0  0  0  0  0  0  0
   19.7260  -10.4492  -15.7956 C   0  0  0  0  0  0  0  0  0  0  0  0
   19.0977   -9.7022  -14.9854 O   0  0  0  0  0  0  0  0  0  0  0  0
   23.3974   -9.8662  -15.1514 C   0  0  0  0  0  0  0  0  0  0  0  0
   21.8971   -9.5841  -15.0612 C   0  0  2  0  0  0  0  0  0  0  0  0
   21.1388  -10.4616  -15.8896 N   0  0  0  0  0  0  0  0  0  0  0  0
   21.7521   -8.1488  -15.4854 C   0  0  0  0  0  0  0  0  0  0  0  0
   21.3575   -7.8863  -16.6486 O   0  0  0  0  0  0  0  0  0  0  0  0
   22.0411   -7.0747  -14.6304 N   0  0  0  0  0  0  0  0  0  0  0  0
   21.8406   -5.6657  -14.9962 C   0  0  1  0  0  0  0  0  0  0  0  0
   20.3729   -5.5108  -15.2321 C   0  0  0  0  0  0  0  0  0  0  0  0
   19.8983   -4.1297  -15.5061 C   0  0  0  0  0  0  0  0  0  0  0  0
   18.4535   -3.9569  -15.6350 C   0  0  0  0  0  0  0  0  0  0  0  0
   17.7720   -4.8256  -16.2202 O   0  0  0  0  0  0  0  0  0  0  0  0
   22.3561   -4.7677  -13.9440 C   0  0  0  0  0  0  0  0  0  0  0  0
   22.4966   -5.1798  -12.7672 O   0  0  0  0  0  0  0  0  0  0  0  0
   17.8278   -2.8436  -15.1181 O   0  0  0  0  0  0  0  0  0  0  0  0
   22.6953   -3.4564  -14.2287 O   0  0  0  0  0  0  0  0  0  0  0  0
  1  2  1  0
  2  4  1  0
  2  3  2  0
  4  5  1  0
  5  7  1  0
  5  6  1  1
  7  8  2  0
 10  9  1  6
 11 10  1  0
 11  7  1  0
 12 13  2  0
 12 10  1  0
 14 12  1  0
 15 20  1  0
 15 14  1  0
 15 16  1  1
 17 18  1  0
 17 16  1  0
 18 19  2  0
 20 23  1  0
 21 20  2  0
 22 18  1  0
M  END
$$$$
