WLF.pdb
     RDKit          3D

 34 36  0  0  1  0  0  0  0  0999 V2000
    6.8343  -19.9946   22.2118 N   0  0  0  0  0  0  0  0  0  0  0  0
    7.2839  -18.8098   22.9297 C   0  0  1  0  0  0  0  0  0  0  0  0
    8.0663  -19.2197   24.1369 C   0  0  0  0  0  0  0  0  0  0  0  0
    7.2869  -19.6697   25.2892 C   0  0  0  0  0  0  0  0  0  0  0  0
    6.0764  -20.3803   25.2262 C   0  0  0  0  0  0  0  0  0  0  0  0
    5.6842  -20.6344   26.4754 N   0  0  0  0  0  0  0  0  0  0  0  0
    6.5588  -20.1364   27.3694 C   0  0  0  0  0  0  0  0  0  0  0  0
    6.5858  -20.1394   28.7488 C   0  0  0  0  0  0  0  0  0  0  0  0
    7.6401  -19.5229   29.3958 C   0  0  0  0  0  0  0  0  0  0  0  0
    8.6439  -18.9176   28.6993 C   0  0  0  0  0  0  0  0  0  0  0  0
    8.6004  -18.9249   27.3344 C   0  0  0  0  0  0  0  0  0  0  0  0
    7.5598  -19.5333   26.6251 C   0  0  0  0  0  0  0  0  0  0  0  0
    7.8678  -17.7753   22.0853 C   0  0  0  0  0  0  0  0  0  0  0  0
    8.5159  -18.1354   21.0707 O   0  0  0  0  0  0  0  0  0  0  0  0
    6.6215  -12.7929   20.3254 C   0  0  0  0  0  0  0  0  0  0  0  0
    7.2189  -14.1453   20.6199 C   0  0  1  0  0  0  0  0  0  0  0  0
    7.9900  -14.5750   19.3621 C   0  0  0  0  0  0  0  0  0  0  0  0
    8.2156  -14.1132   21.7319 C   0  0  0  0  0  0  0  0  0  0  0  0
    8.8103  -15.4305   22.0995 C   0  0  2  0  0  0  0  0  0  0  0  0
    7.7532  -16.3786   22.3333 N   0  0  0  0  0  0  0  0  0  0  0  0
    9.6463  -15.3131   23.3306 C   0  0  0  0  0  0  0  0  0  0  0  0
   10.8120  -14.8317   23.3031 O   0  0  0  0  0  0  0  0  0  0  0  0
    9.1835  -15.7346   24.6062 N   0  0  0  0  0  0  0  0  0  0  0  0
    9.9421  -15.5206   25.8416 C   0  0  1  0  0  0  0  0  0  0  0  0
    9.0469  -15.1809   26.9813 C   0  0  0  0  0  0  0  0  0  0  0  0
    8.2599  -13.9713   26.6745 C   0  0  0  0  0  0  0  0  0  0  0  0
    8.7165  -12.6790   26.8087 C   0  0  0  0  0  0  0  0  0  0  0  0
    7.9467  -11.5688   26.5039 C   0  0  0  0  0  0  0  0  0  0  0  0
    6.6602  -11.7406   26.0432 C   0  0  0  0  0  0  0  0  0  0  0  0
    6.1606  -13.0205   25.8934 C   0  0  0  0  0  0  0  0  0  0  0  0
    6.9481  -14.1102   26.2039 C   0  0  0  0  0  0  0  0  0  0  0  0
   10.7652  -16.7103   26.0655 C   0  0  0  0  0  0  0  0  0  0  0  0
   10.6889  -17.7823   25.1998 O   0  0  0  0  0  0  0  0  0  0  0  0
   11.5436  -16.7745   27.0354 O   0  0  0  0  0  0  0  0  0  0  0  0
  2  1  1  6
  3  2  1  0
  4  3  1  0
  5  4  2  0
  6  5  1  0
  7  6  1  0
  7 12  2  0
  8  7  1  0
  9  8  2  0
  9 10  1  0
 10 11  2  0
 11 12  1  0
 12  4  1  0
 13 14  2  0
 13  2  1  0
 16 15  1  6
 16 17  1  0
 16 18  1  0
 19 18  1  1
 19 21  1  0
 19 20  1  0
 20 13  1  0
 21 23  1  0
 22 21  2  0
 23 24  1  0
 24 25  1  1
 25 26  1  0
 26 27  2  0
 27 28  1  0
 29 28  2  0
 30 29  1  0
 31 26  1  0
 31 30  2  0
 32 33  1  0
 32 24  1  0
 34 32  2  0
M  END
$$$$
