WLF.pdb
     RDKit          3D

 34 36  0  0  1  0  0  0  0  0999 V2000
    6.2978  -18.4712   25.4624 N   0  0  0  0  0  0  0  0  0  0  0  0
    6.9866  -17.2422   25.0931 C   0  0  1  0  0  0  0  0  0  0  0  0
    8.1756  -17.0460   25.9794 C   0  0  0  0  0  0  0  0  0  0  0  0
    8.1443  -15.8728   26.8513 C   0  0  0  0  0  0  0  0  0  0  0  0
    8.3705  -15.8824   28.2379 C   0  0  0  0  0  0  0  0  0  0  0  0
    8.2850  -14.6257   28.6765 N   0  0  0  0  0  0  0  0  0  0  0  0
    8.0149  -13.7769   27.6671 C   0  0  0  0  0  0  0  0  0  0  0  0
    7.8308  -12.4103   27.6220 C   0  0  0  0  0  0  0  0  0  0  0  0
    7.5516  -11.8155   26.4061 C   0  0  0  0  0  0  0  0  0  0  0  0
    7.4559  -12.5508   25.2618 C   0  0  0  0  0  0  0  0  0  0  0  0
    7.6414  -13.9022   25.3258 C   0  0  0  0  0  0  0  0  0  0  0  0
    7.9269  -14.5592   26.5270 C   0  0  0  0  0  0  0  0  0  0  0  0
    7.1963  -17.0724   23.6609 C   0  0  0  0  0  0  0  0  0  0  0  0
    7.3381  -18.1038   22.9571 O   0  0  0  0  0  0  0  0  0  0  0  0
    6.8110  -14.5209   18.8702 C   0  0  0  0  0  0  0  0  0  0  0  0
    7.7819  -13.8752   19.8258 C   0  0  1  0  0  0  0  0  0  0  0  0
    7.6009  -12.3557   19.6856 C   0  0  0  0  0  0  0  0  0  0  0  0
    7.4971  -14.2011   21.2554 C   0  0  0  0  0  0  0  0  0  0  0  0
    7.6323  -15.6394   21.6255 C   0  0  2  0  0  0  0  0  0  0  0  0
    7.2518  -15.8119   23.0025 N   0  0  0  0  0  0  0  0  0  0  0  0
    9.0379  -16.1072   21.4418 C   0  0  0  0  0  0  0  0  0  0  0  0
    9.3783  -16.8338   20.4684 O   0  0  0  0  0  0  0  0  0  0  0  0
   10.0771  -15.7649   22.3484 N   0  0  0  0  0  0  0  0  0  0  0  0
   11.4469  -16.2699   22.2205 C   0  0  1  0  0  0  0  0  0  0  0  0
   12.4010  -15.1813   21.8739 C   0  0  0  0  0  0  0  0  0  0  0  0
   12.1536  -14.6976   20.5022 C   0  0  0  0  0  0  0  0  0  0  0  0
   12.4071  -15.4166   19.3553 C   0  0  0  0  0  0  0  0  0  0  0  0
   12.1548  -14.9278   18.0844 C   0  0  0  0  0  0  0  0  0  0  0  0
   11.6254  -13.6652   17.9354 C   0  0  0  0  0  0  0  0  0  0  0  0
   11.3554  -12.9080   19.0597 C   0  0  0  0  0  0  0  0  0  0  0  0
   11.6158  -13.4180   20.3150 C   0  0  0  0  0  0  0  0  0  0  0  0
   11.7742  -16.9759   23.4603 C   0  0  0  0  0  0  0  0  0  0  0  0
   10.8615  -17.0267   24.4942 O   0  0  0  0  0  0  0  0  0  0  0  0
   12.8757  -17.5393   23.6022 O   0  0  0  0  0  0  0  0  0  0  0  0
  2  1  1  6
  3  2  1  0
  4  3  1  0
  5  4  2  0
  6  5  1  0
  7  6  1  0
  7 12  2  0
  8  7  1  0
  9  8  2  0
  9 10  1  0
 10 11  2  0
 11 12  1  0
 12  4  1  0
 13 14  2  0
 13  2  1  0
 16 15  1  6
 16 17  1  0
 16 18  1  0
 19 18  1  1
 19 21  1  0
 19 20  1  0
 20 13  1  0
 21 23  1  0
 22 21  2  0
 23 24  1  0
 24 25  1  1
 25 26  1  0
 26 27  2  0
 27 28  1  0
 29 28  2  0
 30 29  1  0
 31 26  1  0
 31 30  2  0
 32 33  1  0
 32 24  1  0
 34 32  2  0
M  END
$$$$
