WLF.pdb
     RDKit          3D

 34 36  0  0  1  0  0  0  0  0999 V2000
   10.7843  -17.1699   22.0576 N   0  0  0  0  0  0  0  0  0  0  0  0
   10.2154  -16.2509   23.0339 C   0  0  1  0  0  0  0  0  0  0  0  0
    8.7388  -16.1415   22.8211 C   0  0  0  0  0  0  0  0  0  0  0  0
    8.3113  -15.4722   21.5936 C   0  0  0  0  0  0  0  0  0  0  0  0
    7.5498  -16.0590   20.5689 C   0  0  0  0  0  0  0  0  0  0  0  0
    7.3380  -15.1327   19.6330 N   0  0  0  0  0  0  0  0  0  0  0  0
    7.9122  -13.9626   19.9697 C   0  0  0  0  0  0  0  0  0  0  0  0
    7.9742  -12.7381   19.3369 C   0  0  0  0  0  0  0  0  0  0  0  0
    8.6626  -11.7069   19.9476 C   0  0  0  0  0  0  0  0  0  0  0  0
    9.2754  -11.8788   21.1535 C   0  0  0  0  0  0  0  0  0  0  0  0
    9.2031  -13.0977   21.7649 C   0  0  0  0  0  0  0  0  0  0  0  0
    8.5206  -14.1777   21.1959 C   0  0  0  0  0  0  0  0  0  0  0  0
   10.6707  -16.4628   24.4021 C   0  0  0  0  0  0  0  0  0  0  0  0
   11.4287  -17.4391   24.6291 O   0  0  0  0  0  0  0  0  0  0  0  0
    9.3793  -12.5158   28.0409 C   0  0  0  0  0  0  0  0  0  0  0  0
   10.0429  -13.5727   27.1953 C   0  0  1  0  0  0  0  0  0  0  0  0
   11.5502  -13.2740   27.2108 C   0  0  0  0  0  0  0  0  0  0  0  0
    9.8830  -14.9499   27.7511 C   0  0  0  0  0  0  0  0  0  0  0  0
   10.3727  -16.0556   26.8783 C   0  0  2  0  0  0  0  0  0  0  0  0
   10.3133  -15.6352   25.5034 N   0  0  0  0  0  0  0  0  0  0  0  0
    9.5399  -17.2819   27.0537 C   0  0  0  0  0  0  0  0  0  0  0  0
    9.6048  -17.9900   28.0957 O   0  0  0  0  0  0  0  0  0  0  0  0
    8.6252  -17.7273   26.0618 N   0  0  0  0  0  0  0  0  0  0  0  0
    7.6515  -18.7971   26.2963 C   0  0  1  0  0  0  0  0  0  0  0  0
    6.2914  -18.4102   25.8315 C   0  0  0  0  0  0  0  0  0  0  0  0
    6.2275  -16.9580   25.5795 C   0  0  0  0  0  0  0  0  0  0  0  0
    5.9850  -16.0014   26.5400 C   0  0  0  0  0  0  0  0  0  0  0  0
    5.9388  -14.6453   26.2629 C   0  0  0  0  0  0  0  0  0  0  0  0
    6.1418  -14.2089   24.9725 C   0  0  0  0  0  0  0  0  0  0  0  0
    6.3884  -15.1346   23.9763 C   0  0  0  0  0  0  0  0  0  0  0  0
    6.4294  -16.4803   24.2785 C   0  0  0  0  0  0  0  0  0  0  0  0
    8.1718  -20.0126   25.6681 C   0  0  0  0  0  0  0  0  0  0  0  0
    7.5306  -21.2207   25.8527 O   0  0  0  0  0  0  0  0  0  0  0  0
    9.1959  -19.9772   24.9605 O   0  0  0  0  0  0  0  0  0  0  0  0
  2  1  1  6
  3  2  1  0
  4  3  1  0
  5  4  2  0
  6  5  1  0
  7  6  1  0
  7 12  2  0
  8  7  1  0
  9  8  2  0
  9 10  1  0
 10 11  2  0
 11 12  1  0
 12  4  1  0
 13 14  2  0
 13  2  1  0
 16 15  1  1
 16 17  1  0
 16 18  1  0
 19 18  1  1
 19 21  1  0
 19 20  1  0
 20 13  1  0
 21 23  1  0
 22 21  2  0
 23 24  1  0
 24 25  1  6
 25 26  1  0
 26 27  2  0
 27 28  1  0
 29 28  2  0
 30 29  1  0
 31 26  1  0
 31 30  2  0
 32 33  1  0
 32 24  1  0
 34 32  2  0
M  END
$$$$
