WLF.pdb
     RDKit          3D

 34 36  0  0  1  0  0  0  0  0999 V2000
    6.1291  -17.9412   25.0716 N   0  0  0  0  0  0  0  0  0  0  0  0
    7.4493  -18.4701   24.7576 C   0  0  1  0  0  0  0  0  0  0  0  0
    7.4580  -19.9525   24.9577 C   0  0  0  0  0  0  0  0  0  0  0  0
    7.2249  -20.4210   26.3229 C   0  0  0  0  0  0  0  0  0  0  0  0
    6.3847  -21.4871   26.6857 C   0  0  0  0  0  0  0  0  0  0  0  0
    6.4518  -21.6303   28.0100 N   0  0  0  0  0  0  0  0  0  0  0  0
    7.2855  -20.7242   28.5544 C   0  0  0  0  0  0  0  0  0  0  0  0
    7.6698  -20.4743   29.8557 C   0  0  0  0  0  0  0  0  0  0  0  0
    8.5566  -19.4432   30.1019 C   0  0  0  0  0  0  0  0  0  0  0  0
    9.0525  -18.6766   29.0892 C   0  0  0  0  0  0  0  0  0  0  0  0
    8.6609  -18.9389   27.8076 C   0  0  0  0  0  0  0  0  0  0  0  0
    7.7672  -19.9690   27.4973 C   0  0  0  0  0  0  0  0  0  0  0  0
    8.0226  -17.9688   23.5149 C   0  0  0  0  0  0  0  0  0  0  0  0
    8.5930  -18.7893   22.7530 O   0  0  0  0  0  0  0  0  0  0  0  0
    6.7435  -12.9580   21.6820 C   0  0  0  0  0  0  0  0  0  0  0  0
    7.1389  -14.3575   22.0792 C   0  0  1  0  0  0  0  0  0  0  0  0
    6.4624  -15.3113   21.0823 C   0  0  0  0  0  0  0  0  0  0  0  0
    8.6076  -14.6036   21.9641 C   0  0  0  0  0  0  0  0  0  0  0  0
    9.0813  -15.9181   22.4854 C   0  0  2  0  0  0  0  0  0  0  0  0
    7.9797  -16.6069   23.1041 N   0  0  0  0  0  0  0  0  0  0  0  0
   10.1707  -15.7323   23.4890 C   0  0  0  0  0  0  0  0  0  0  0  0
   11.3105  -15.2996   23.1651 O   0  0  0  0  0  0  0  0  0  0  0  0
    9.9931  -16.0301   24.8669 N   0  0  0  0  0  0  0  0  0  0  0  0
   11.0742  -15.9301   25.8512 C   0  0  1  0  0  0  0  0  0  0  0  0
   10.5612  -15.5206   27.1872 C   0  0  0  0  0  0  0  0  0  0  0  0
    9.7795  -14.2741   27.0783 C   0  0  0  0  0  0  0  0  0  0  0  0
    8.4182  -14.1789   27.2630 C   0  0  0  0  0  0  0  0  0  0  0  0
    7.7216  -12.9867   27.1573 C   0  0  0  0  0  0  0  0  0  0  0  0
    8.4013  -11.8280   26.8537 C   0  0  0  0  0  0  0  0  0  0  0  0
    9.7688  -11.8771   26.6598 C   0  0  0  0  0  0  0  0  0  0  0  0
   10.4397  -13.0777   26.7709 C   0  0  0  0  0  0  0  0  0  0  0  0
   11.7878  -17.2082   25.8539 C   0  0  0  0  0  0  0  0  0  0  0  0
   11.3617  -18.2450   25.0489 O   0  0  0  0  0  0  0  0  0  0  0  0
   12.7858  -17.3804   26.5785 O   0  0  0  0  0  0  0  0  0  0  0  0
  2  1  1  6
  3  2  1  0
  4  3  1  0
  5  4  2  0
  6  5  1  0
  7  6  1  0
  7 12  2  0
  8  7  1  0
  9  8  2  0
  9 10  1  0
 10 11  2  0
 11 12  1  0
 12  4  1  0
 13 14  2  0
 13  2  1  0
 16 15  1  6
 16 17  1  0
 16 18  1  0
 19 18  1  1
 19 21  1  0
 19 20  1  0
 20 13  1  0
 21 23  1  0
 22 21  2  0
 23 24  1  0
 24 25  1  1
 25 26  1  0
 26 27  2  0
 27 28  1  0
 29 28  2  0
 30 29  1  0
 31 26  1  0
 31 30  2  0
 32 33  1  0
 32 24  1  0
 34 32  2  0
M  END
$$$$
