WLF.pdb
     RDKit          3D

 34 36  0  0  1  0  0  0  0  0999 V2000
    6.9708  -19.7468   21.1609 N   0  0  0  0  0  0  0  0  0  0  0  0
    6.7425  -18.3462   21.4886 C   0  0  1  0  0  0  0  0  0  0  0  0
    5.8826  -18.2487   22.7088 C   0  0  0  0  0  0  0  0  0  0  0  0
    4.6458  -19.0282   22.6908 C   0  0  0  0  0  0  0  0  0  0  0  0
    4.2602  -19.9664   23.6631 C   0  0  0  0  0  0  0  0  0  0  0  0
    3.0654  -20.4480   23.3177 N   0  0  0  0  0  0  0  0  0  0  0  0
    2.6293  -19.8890   22.1733 C   0  0  0  0  0  0  0  0  0  0  0  0
    1.4805  -20.0630   21.4293 C   0  0  0  0  0  0  0  0  0  0  0  0
    1.3222  -19.3313   20.2675 C   0  0  0  0  0  0  0  0  0  0  0  0
    2.2740  -18.4491   19.8492 C   0  0  0  0  0  0  0  0  0  0  0  0
    3.4043  -18.2900   20.5988 C   0  0  0  0  0  0  0  0  0  0  0  0
    3.6195  -19.0020   21.7831 C   0  0  0  0  0  0  0  0  0  0  0  0
    7.9386  -17.5140   21.4565 C   0  0  0  0  0  0  0  0  0  0  0  0
    9.0553  -18.0854   21.3825 O   0  0  0  0  0  0  0  0  0  0  0  0
    7.1695  -12.1755   20.4351 C   0  0  0  0  0  0  0  0  0  0  0  0
    7.6708  -13.5971   20.4160 C   0  0  1  0  0  0  0  0  0  0  0  0
    8.3060  -13.8269   19.0357 C   0  0  0  0  0  0  0  0  0  0  0  0
    8.7475  -13.8495   21.4200 C   0  0  0  0  0  0  0  0  0  0  0  0
    9.1099  -15.2813   21.6268 C   0  0  2  0  0  0  0  0  0  0  0  0
    7.9272  -16.0917   21.5036 N   0  0  0  0  0  0  0  0  0  0  0  0
    9.7097  -15.4895   22.9778 C   0  0  0  0  0  0  0  0  0  0  0  0
   10.8786  -15.1053   23.2562 O   0  0  0  0  0  0  0  0  0  0  0  0
    9.0046  -16.1313   24.0314 N   0  0  0  0  0  0  0  0  0  0  0  0
    9.5572  -16.2945   25.3788 C   0  0  1  0  0  0  0  0  0  0  0  0
    8.5091  -16.1323   26.4231 C   0  0  0  0  0  0  0  0  0  0  0  0
    8.1115  -14.7162   26.5376 C   0  0  0  0  0  0  0  0  0  0  0  0
    8.9117  -13.7106   27.0327 C   0  0  0  0  0  0  0  0  0  0  0  0
    8.5022  -12.3904   27.1182 C   0  0  0  0  0  0  0  0  0  0  0  0
    7.2389  -12.0427   26.6940 C   0  0  0  0  0  0  0  0  0  0  0  0
    6.4018  -13.0201   26.1898 C   0  0  0  0  0  0  0  0  0  0  0  0
    6.8337  -14.3284   26.1152 C   0  0  0  0  0  0  0  0  0  0  0  0
   10.2439  -17.5866   25.4203 C   0  0  0  0  0  0  0  0  0  0  0  0
   10.9242  -17.9771   26.5559 O   0  0  0  0  0  0  0  0  0  0  0  0
   10.2259  -18.3509   24.4373 O   0  0  0  0  0  0  0  0  0  0  0  0
  2  1  1  1
  3  2  1  0
  4  3  1  0
  5  4  2  0
  6  5  1  0
  7  6  1  0
  7 12  2  0
  8  7  1  0
  9  8  2  0
  9 10  1  0
 10 11  2  0
 11 12  1  0
 12  4  1  0
 13 14  2  0
 13  2  1  0
 16 15  1  6
 16 17  1  0
 16 18  1  0
 19 18  1  1
 19 21  1  0
 19 20  1  0
 20 13  1  0
 21 23  1  0
 22 21  2  0
 23 24  1  0
 24 25  1  1
 25 26  1  0
 26 27  2  0
 27 28  1  0
 29 28  2  0
 30 29  1  0
 31 26  1  0
 31 30  2  0
 32 33  1  0
 32 24  1  0
 34 32  2  0
M  END
$$$$
