WLF.pdb
     RDKit          3D

 34 36  0  0  1  0  0  0  0  0999 V2000
    5.7486  -20.0888   21.5613 N   0  0  0  0  0  0  0  0  0  0  0  0
    6.6397  -19.3191   22.4186 C   0  0  1  0  0  0  0  0  0  0  0  0
    7.3959  -20.2446   23.3181 C   0  0  0  0  0  0  0  0  0  0  0  0
    6.6755  -20.7362   24.4916 C   0  0  0  0  0  0  0  0  0  0  0  0
    5.8216  -21.8518   24.5147 C   0  0  0  0  0  0  0  0  0  0  0  0
    5.3748  -22.0008   25.7625 N   0  0  0  0  0  0  0  0  0  0  0  0
    5.8780  -21.0523   26.5746 C   0  0  0  0  0  0  0  0  0  0  0  0
    5.7098  -20.7906   27.9188 C   0  0  0  0  0  0  0  0  0  0  0  0
    6.3710  -19.7120   28.4751 C   0  0  0  0  0  0  0  0  0  0  0  0
    7.1788  -18.9103   27.7240 C   0  0  0  0  0  0  0  0  0  0  0  0
    7.3333  -19.1851   26.3953 C   0  0  0  0  0  0  0  0  0  0  0  0
    6.6906  -20.2626   25.7773 C   0  0  0  0  0  0  0  0  0  0  0  0
    7.4119  -18.2955   21.7257 C   0  0  0  0  0  0  0  0  0  0  0  0
    8.0744  -18.6374   20.7141 O   0  0  0  0  0  0  0  0  0  0  0  0
    6.9330  -12.7701   22.3692 C   0  0  0  0  0  0  0  0  0  0  0  0
    7.3673  -14.1095   21.8306 C   0  0  1  0  0  0  0  0  0  0  0  0
    8.0774  -13.8431   20.4942 C   0  0  0  0  0  0  0  0  0  0  0  0
    8.3651  -14.7946   22.7060 C   0  0  0  0  0  0  0  0  0  0  0  0
    8.6896  -16.2010   22.3311 C   0  0  2  0  0  0  0  0  0  0  0  0
    7.4665  -16.9289   22.1191 N   0  0  0  0  0  0  0  0  0  0  0  0
    9.4799  -16.8704   23.4061 C   0  0  0  0  0  0  0  0  0  0  0  0
    8.9472  -17.6592   24.2341 O   0  0  0  0  0  0  0  0  0  0  0  0
   10.8766  -16.6621   23.5641 N   0  0  0  0  0  0  0  0  0  0  0  0
   11.4672  -16.0981   24.7809 C   0  0  1  0  0  0  0  0  0  0  0  0
   11.0397  -14.6882   24.9934 C   0  0  0  0  0  0  0  0  0  0  0  0
   10.4782  -14.5192   26.3472 C   0  0  0  0  0  0  0  0  0  0  0  0
    9.1643  -14.2118   26.6226 C   0  0  0  0  0  0  0  0  0  0  0  0
    8.6747  -14.0673   27.9100 C   0  0  0  0  0  0  0  0  0  0  0  0
    9.5235  -14.2341   28.9817 C   0  0  0  0  0  0  0  0  0  0  0  0
   10.8508  -14.5433   28.7516 C   0  0  0  0  0  0  0  0  0  0  0  0
   11.3138  -14.6820   27.4593 C   0  0  0  0  0  0  0  0  0  0  0  0
   11.1341  -16.9944   25.8892 C   0  0  0  0  0  0  0  0  0  0  0  0
   10.2559  -18.0417   25.6977 O   0  0  0  0  0  0  0  0  0  0  0  0
   11.6348  -16.8280   27.0173 O   0  0  0  0  0  0  0  0  0  0  0  0
  2  1  1  6
  3  2  1  0
  4  3  1  0
  5  4  2  0
  6  5  1  0
  7  6  1  0
  7 12  2  0
  8  7  1  0
  9  8  2  0
  9 10  1  0
 10 11  2  0
 11 12  1  0
 12  4  1  0
 13 14  2  0
 13  2  1  0
 16 15  1  1
 16 17  1  0
 16 18  1  0
 19 18  1  1
 19 21  1  0
 19 20  1  0
 20 13  1  0
 21 23  1  0
 22 21  2  0
 23 24  1  0
 24 25  1  1
 25 26  1  0
 26 27  2  0
 27 28  1  0
 29 28  2  0
 30 29  1  0
 31 26  1  0
 31 30  2  0
 32 33  1  0
 32 24  1  0
 34 32  2  0
M  END
$$$$
