WLF.pdb
     RDKit          3D

 34 36  0  0  1  0  0  0  0  0999 V2000
    7.2024  -20.5956   20.9806 N   0  0  0  0  0  0  0  0  0  0  0  0
    7.1303  -19.5158   21.9553 C   0  0  1  0  0  0  0  0  0  0  0  0
    7.2950  -20.0712   23.3344 C   0  0  0  0  0  0  0  0  0  0  0  0
    7.3372  -19.0955   24.4225 C   0  0  0  0  0  0  0  0  0  0  0  0
    6.4322  -18.0358   24.6017 C   0  0  0  0  0  0  0  0  0  0  0  0
    6.7780  -17.3842   25.7128 N   0  0  0  0  0  0  0  0  0  0  0  0
    7.8595  -17.9438   26.2869 C   0  0  0  0  0  0  0  0  0  0  0  0
    8.5790  -17.6319   27.4220 C   0  0  0  0  0  0  0  0  0  0  0  0
    9.6725  -18.4100   27.7523 C   0  0  0  0  0  0  0  0  0  0  0  0
   10.0478  -19.4703   26.9815 C   0  0  0  0  0  0  0  0  0  0  0  0
    9.3233  -19.7640   25.8618 C   0  0  0  0  0  0  0  0  0  0  0  0
    8.2075  -19.0134   25.4778 C   0  0  0  0  0  0  0  0  0  0  0  0
    7.9248  -18.3414   21.6179 C   0  0  0  0  0  0  0  0  0  0  0  0
    9.1112  -18.5173   21.2429 O   0  0  0  0  0  0  0  0  0  0  0  0
    8.7999  -13.3683   19.6692 C   0  0  0  0  0  0  0  0  0  0  0  0
    8.0839  -13.3633   20.9958 C   0  0  1  0  0  0  0  0  0  0  0  0
    6.9931  -12.2845   20.9092 C   0  0  0  0  0  0  0  0  0  0  0  0
    7.3798  -14.6489   21.2834 C   0  0  0  0  0  0  0  0  0  0  0  0
    8.2599  -15.8435   21.4336 C   0  0  2  0  0  0  0  0  0  0  0  0
    7.4457  -17.0030   21.6848 N   0  0  0  0  0  0  0  0  0  0  0  0
    9.2176  -15.6612   22.5641 C   0  0  0  0  0  0  0  0  0  0  0  0
   10.3347  -15.0960   22.4087 O   0  0  0  0  0  0  0  0  0  0  0  0
    8.9325  -16.1113   23.8813 N   0  0  0  0  0  0  0  0  0  0  0  0
    9.7464  -15.7454   25.0438 C   0  0  1  0  0  0  0  0  0  0  0  0
    8.9086  -15.5510   26.2586 C   0  0  0  0  0  0  0  0  0  0  0  0
    8.0495  -14.3613   26.1062 C   0  0  0  0  0  0  0  0  0  0  0  0
    6.7356  -14.2809   26.5109 C   0  0  0  0  0  0  0  0  0  0  0  0
    5.9640  -13.1416   26.3547 C   0  0  0  0  0  0  0  0  0  0  0  0
    6.5151  -12.0235   25.7692 C   0  0  0  0  0  0  0  0  0  0  0  0
    7.8309  -12.0596   25.3477 C   0  0  0  0  0  0  0  0  0  0  0  0
    8.5786  -13.2071   25.5150 C   0  0  0  0  0  0  0  0  0  0  0  0
   10.7848  -16.7662   25.1941 C   0  0  0  0  0  0  0  0  0  0  0  0
   10.8146  -17.8582   24.3507 O   0  0  0  0  0  0  0  0  0  0  0  0
   11.6538  -16.6670   26.0805 O   0  0  0  0  0  0  0  0  0  0  0  0
  2  1  1  6
  3  2  1  0
  4  3  1  0
  5  4  2  0
  6  5  1  0
  7  6  1  0
  7 12  2  0
  8  7  1  0
  9  8  2  0
  9 10  1  0
 10 11  2  0
 11 12  1  0
 12  4  1  0
 13 14  2  0
 13  2  1  0
 16 15  1  6
 16 17  1  0
 16 18  1  0
 19 18  1  1
 19 21  1  0
 19 20  1  0
 20 13  1  0
 21 23  1  0
 22 21  2  0
 23 24  1  0
 24 25  1  1
 25 26  1  0
 26 27  2  0
 27 28  1  0
 29 28  2  0
 30 29  1  0
 31 26  1  0
 31 30  2  0
 32 33  1  0
 32 24  1  0
 34 32  2  0
M  END
$$$$
