WLF.pdb
     RDKit          3D

 34 36  0  0  1  0  0  0  0  0999 V2000
    6.1599  -19.8196   22.8686 N   0  0  0  0  0  0  0  0  0  0  0  0
    6.3042  -18.3974   23.1479 C   0  0  1  0  0  0  0  0  0  0  0  0
    6.3138  -18.1737   24.6270 C   0  0  0  0  0  0  0  0  0  0  0  0
    5.9908  -16.8208   25.0774 C   0  0  0  0  0  0  0  0  0  0  0  0
    4.7431  -16.1909   24.9338 C   0  0  0  0  0  0  0  0  0  0  0  0
    4.8281  -14.9808   25.4881 N   0  0  0  0  0  0  0  0  0  0  0  0
    6.0569  -14.7636   25.9930 C   0  0  0  0  0  0  0  0  0  0  0  0
    6.6206  -13.6851   26.6433 C   0  0  0  0  0  0  0  0  0  0  0  0
    7.9415  -13.7639   27.0423 C   0  0  0  0  0  0  0  0  0  0  0  0
    8.6890  -14.8795   26.8056 C   0  0  0  0  0  0  0  0  0  0  0  0
    8.1140  -15.9371   26.1609 C   0  0  0  0  0  0  0  0  0  0  0  0
    6.7822  -15.9154   25.7345 C   0  0  0  0  0  0  0  0  0  0  0  0
    7.3430  -17.7304   22.3732 C   0  0  0  0  0  0  0  0  0  0  0  0
    8.4435  -18.3194   22.2283 O   0  0  0  0  0  0  0  0  0  0  0  0
    8.8393  -13.8846   18.6776 C   0  0  0  0  0  0  0  0  0  0  0  0
    8.8059  -13.4811   20.1297 C   0  0  1  0  0  0  0  0  0  0  0  0
    8.2621  -12.0448   20.1805 C   0  0  0  0  0  0  0  0  0  0  0  0
    7.8702  -14.3126   20.9448 C   0  0  0  0  0  0  0  0  0  0  0  0
    8.2628  -15.7412   21.1149 C   0  0  2  0  0  0  0  0  0  0  0  0
    7.1945  -16.4514   21.7670 N   0  0  0  0  0  0  0  0  0  0  0  0
    9.5039  -15.8588   21.9359 C   0  0  0  0  0  0  0  0  0  0  0  0
   10.6429  -15.5849   21.4677 O   0  0  0  0  0  0  0  0  0  0  0  0
    9.4809  -16.2851   23.2912 N   0  0  0  0  0  0  0  0  0  0  0  0
   10.2559  -15.6290   24.3478 C   0  0  1  0  0  0  0  0  0  0  0  0
    9.4264  -15.3762   25.5577 C   0  0  0  0  0  0  0  0  0  0  0  0
   10.2326  -14.7245   26.6073 C   0  0  0  0  0  0  0  0  0  0  0  0
   10.6427  -13.4100   26.5838 C   0  0  0  0  0  0  0  0  0  0  0  0
   11.3950  -12.8337   27.5936 C   0  0  0  0  0  0  0  0  0  0  0  0
   11.7626  -13.5916   28.6832 C   0  0  0  0  0  0  0  0  0  0  0  0
   11.3729  -14.9161   28.7483 C   0  0  0  0  0  0  0  0  0  0  0  0
   10.6234  -15.4666   27.7289 C   0  0  0  0  0  0  0  0  0  0  0  0
   11.4412  -16.4501   24.5999 C   0  0  0  0  0  0  0  0  0  0  0  0
   11.5067  -17.7432   24.1220 O   0  0  0  0  0  0  0  0  0  0  0  0
   12.4050  -15.9982   25.2461 O   0  0  0  0  0  0  0  0  0  0  0  0
  2  1  1  1
  3  2  1  0
  4  3  1  0
  5  4  2  0
  6  5  1  0
  7  6  1  0
  7 12  2  0
  8  7  1  0
  9  8  2  0
  9 10  1  0
 10 11  2  0
 11 12  1  0
 12  4  1  0
 13 14  2  0
 13  2  1  0
 16 15  1  6
 16 17  1  0
 16 18  1  0
 19 18  1  1
 19 21  1  0
 19 20  1  0
 20 13  1  0
 21 23  1  0
 22 21  2  0
 23 24  1  0
 24 25  1  1
 25 26  1  0
 26 27  2  0
 27 28  1  0
 29 28  2  0
 30 29  1  0
 31 26  1  0
 31 30  2  0
 32 33  1  0
 32 24  1  0
 34 32  2  0
M  END
$$$$
