WLF.pdb
     RDKit          3D

 34 36  0  0  1  0  0  0  0  0999 V2000
    6.0997  -18.7911   23.9082 N   0  0  0  0  0  0  0  0  0  0  0  0
    6.3989  -17.3954   23.6186 C   0  0  1  0  0  0  0  0  0  0  0  0
    5.9802  -16.5411   24.7730 C   0  0  0  0  0  0  0  0  0  0  0  0
    6.1612  -15.0996   24.6085 C   0  0  0  0  0  0  0  0  0  0  0  0
    6.2960  -14.4307   23.3804 C   0  0  0  0  0  0  0  0  0  0  0  0
    6.4142  -13.1267   23.6340 N   0  0  0  0  0  0  0  0  0  0  0  0
    6.3672  -12.8835   24.9573 C   0  0  0  0  0  0  0  0  0  0  0  0
    6.4509  -11.7208   25.6952 C   0  0  0  0  0  0  0  0  0  0  0  0
    6.3754  -11.7995   27.0730 C   0  0  0  0  0  0  0  0  0  0  0  0
    6.2212  -12.9962   27.7081 C   0  0  0  0  0  0  0  0  0  0  0  0
    6.1400  -14.1364   26.9611 C   0  0  0  0  0  0  0  0  0  0  0  0
    6.2094  -14.1189   25.5644 C   0  0  0  0  0  0  0  0  0  0  0  0
    7.7305  -17.1619   23.0741 C   0  0  0  0  0  0  0  0  0  0  0  0
    8.5060  -18.1446   22.9651 O   0  0  0  0  0  0  0  0  0  0  0  0
    8.4540  -12.2038   20.6713 C   0  0  0  0  0  0  0  0  0  0  0  0
    8.3080  -13.6630   21.0208 C   0  0  1  0  0  0  0  0  0  0  0  0
    7.9876  -14.4042   19.7133 C   0  0  0  0  0  0  0  0  0  0  0  0
    9.5695  -14.2661   21.5461 C   0  0  0  0  0  0  0  0  0  0  0  0
    9.4687  -15.6892   21.9805 C   0  0  2  0  0  0  0  0  0  0  0  0
    8.2139  -15.8904   22.6556 N   0  0  0  0  0  0  0  0  0  0  0  0
   10.5862  -16.0451   22.9039 C   0  0  0  0  0  0  0  0  0  0  0  0
   11.7885  -15.7771   22.6320 O   0  0  0  0  0  0  0  0  0  0  0  0
   10.3669  -16.7059   24.1426 N   0  0  0  0  0  0  0  0  0  0  0  0
   11.4539  -17.0797   25.0515 C   0  0  1  0  0  0  0  0  0  0  0  0
   10.9545  -17.3145   26.4340 C   0  0  0  0  0  0  0  0  0  0  0  0
   10.2922  -16.1033   26.9544 C   0  0  0  0  0  0  0  0  0  0  0  0
    8.9539  -16.0088   27.2652 C   0  0  0  0  0  0  0  0  0  0  0  0
    8.3711  -14.8532   27.7578 C   0  0  0  0  0  0  0  0  0  0  0  0
    9.1468  -13.7323   27.9543 C   0  0  0  0  0  0  0  0  0  0  0  0
   10.4953  -13.7821   27.6555 C   0  0  0  0  0  0  0  0  0  0  0  0
   11.0519  -14.9459   27.1659 C   0  0  0  0  0  0  0  0  0  0  0  0
   12.1438  -18.2297   24.4646 C   0  0  0  0  0  0  0  0  0  0  0  0
   13.2979  -18.7183   25.0424 O   0  0  0  0  0  0  0  0  0  0  0  0
   11.7032  -18.7834   23.4398 O   0  0  0  0  0  0  0  0  0  0  0  0
  2  1  1  1
  3  2  1  0
  4  3  1  0
  5  4  2  0
  6  5  1  0
  7  6  1  0
  7 12  2  0
  8  7  1  0
  9  8  2  0
  9 10  1  0
 10 11  2  0
 11 12  1  0
 12  4  1  0
 13 14  2  0
 13  2  1  0
 16 15  1  6
 16 17  1  0
 16 18  1  0
 19 18  1  1
 19 21  1  0
 19 20  1  0
 20 13  1  0
 21 23  1  0
 22 21  2  0
 23 24  1  0
 24 25  1  1
 25 26  1  0
 26 27  2  0
 27 28  1  0
 29 28  2  0
 30 29  1  0
 31 26  1  0
 31 30  2  0
 32 33  1  0
 32 24  1  0
 34 32  2  0
M  END
$$$$
