LPP.pdb
     RDKit          3D

 23 24  0  0  1  0  0  0  0  0999 V2000
    7.9625  -17.4837   20.0643 C   0  0  0  0  0  0  0  0  0  0  0  0
    8.1747  -17.2224   21.5297 C   0  0  2  0  0  0  0  0  0  0  0  0
    8.2597  -18.5629   22.2591 C   0  0  0  0  0  0  0  0  0  0  0  0
    7.0850  -16.3754   22.1215 C   0  0  0  0  0  0  0  0  0  0  0  0
    7.4974  -14.9224   21.9910 C   0  0  2  0  0  0  0  0  0  0  0  0
    8.2752  -14.8139   20.7715 N   0  0  0  0  0  0  0  0  0  0  0  0
    8.2641  -14.4491   23.1677 C   0  0  0  0  0  0  0  0  0  0  0  0
    9.5016  -14.1870   22.9654 O   0  0  0  0  0  0  0  0  0  0  0  0
    7.6868  -14.2868   24.4522 N   0  0  0  0  0  0  0  0  0  0  0  0
    6.3447  -14.6138   24.8311 C   0  0  0  0  0  0  0  0  0  0  0  0
    5.9745  -13.3349   25.6058 C   0  0  0  0  0  0  0  0  0  0  0  0
    7.2703  -12.9958   26.3278 C   0  0  0  0  0  0  0  0  0  0  0  0
    8.3505  -13.7553   25.5967 C   0  0  1  0  0  0  0  0  0  0  0  0
    8.8347  -14.8967   26.4466 C   0  0  0  0  0  0  0  0  0  0  0  0
    8.2069  -15.9675   26.3349 O   0  0  0  0  0  0  0  0  0  0  0  0
    9.9335  -14.7512   27.3131 N   0  0  0  0  0  0  0  0  0  0  0  0
   10.6601  -13.4670   27.4549 C   0  0  0  0  0  0  0  0  0  0  0  0
   10.7235  -13.3765   28.9569 C   0  0  0  0  0  0  0  0  0  0  0  0
   10.7786  -14.7908   29.4611 C   0  0  0  0  0  0  0  0  0  0  0  0
   10.5905  -15.6512   28.1708 C   0  0  1  0  0  0  0  0  0  0  0  0
    9.9776  -16.9120   28.5338 C   0  0  0  0  0  0  0  0  0  0  0  0
   10.8373  -17.9457   28.9499 O   0  0  0  0  0  0  0  0  0  0  0  0
    8.7806  -17.1632   28.5127 O   0  0  0  0  0  0  0  0  0  0  0  0
  2  1  1  6
  2  3  1  0
  4  5  1  0
  4  2  1  0
  5  7  1  0
  5  6  1  6
  7  8  2  0
  9 13  1  0
  9  7  1  0
 10  9  1  0
 11 10  1  0
 11 12  1  0
 12 13  1  0
 13 14  1  1
 14 15  2  0
 16 14  1  0
 16 17  1  0
 17 18  1  0
 19 18  1  0
 20 16  1  0
 20 19  1  0
 20 21  1  1
 22 21  1  0
 23 21  2  0
M  END
$$$$
