LPP.pdb
     RDKit          3D

 23 24  0  0  1  0  0  0  0  0999 V2000
    9.2406  -12.8013   19.3051 C   0  0  0  0  0  0  0  0  0  0  0  0
    8.2322  -13.8169   19.7663 C   0  0  2  0  0  0  0  0  0  0  0  0
    7.3247  -13.1670   20.8103 C   0  0  0  0  0  0  0  0  0  0  0  0
    8.8804  -15.0475   20.3329 C   0  0  0  0  0  0  0  0  0  0  0  0
    7.7828  -16.0134   20.7332 C   0  0  2  0  0  0  0  0  0  0  0  0
    6.8001  -15.9990   19.6662 N   0  0  0  0  0  0  0  0  0  0  0  0
    7.1733  -15.6608   22.0372 C   0  0  0  0  0  0  0  0  0  0  0  0
    6.2657  -14.7570   22.0088 O   0  0  0  0  0  0  0  0  0  0  0  0
    7.5531  -16.2720   23.2586 N   0  0  0  0  0  0  0  0  0  0  0  0
    8.4605  -17.3689   23.4168 C   0  0  0  0  0  0  0  0  0  0  0  0
    7.6476  -18.2396   24.3936 C   0  0  0  0  0  0  0  0  0  0  0  0
    7.0021  -17.2052   25.3039 C   0  0  0  0  0  0  0  0  0  0  0  0
    7.0831  -15.8990   24.5520 C   0  0  1  0  0  0  0  0  0  0  0  0
    8.1041  -15.0032   25.1961 C   0  0  0  0  0  0  0  0  0  0  0  0
    9.2807  -15.4138   25.1806 O   0  0  0  0  0  0  0  0  0  0  0  0
    7.7393  -13.7756   25.7785 N   0  0  0  0  0  0  0  0  0  0  0  0
    6.5957  -12.9758   25.2788 C   0  0  0  0  0  0  0  0  0  0  0  0
    5.9098  -12.6713   26.5847 C   0  0  0  0  0  0  0  0  0  0  0  0
    6.9939  -12.6041   27.6230 C   0  0  0  0  0  0  0  0  0  0  0  0
    8.2785  -13.0344   26.8450 C   0  0  1  0  0  0  0  0  0  0  0  0
    9.2081  -13.6412   27.7749 C   0  0  0  0  0  0  0  0  0  0  0  0
    8.9321  -14.9576   28.1890 O   0  0  0  0  0  0  0  0  0  0  0  0
   10.2123  -13.1158   28.2351 O   0  0  0  0  0  0  0  0  0  0  0  0
  2  1  1  1
  2  3  1  0
  4  5  1  0
  4  2  1  0
  5  7  1  0
  5  6  1  6
  7  8  2  0
  9 13  1  0
  9  7  1  0
 10  9  1  0
 11 10  1  0
 11 12  1  0
 12 13  1  0
 13 14  1  1
 14 15  2  0
 16 14  1  0
 16 17  1  0
 17 18  1  0
 19 18  1  0
 20 16  1  0
 20 19  1  0
 20 21  1  1
 22 21  1  0
 23 21  2  0
M  END
$$$$
