LPP.pdb
     RDKit          3D

 23 24  0  0  1  0  0  0  0  0999 V2000
    9.9617  -14.1697   19.4088 C   0  0  0  0  0  0  0  0  0  0  0  0
    8.5131  -13.8636   19.1469 C   0  0  2  0  0  0  0  0  0  0  0  0
    8.4155  -12.4943   18.4749 C   0  0  0  0  0  0  0  0  0  0  0  0
    7.6891  -13.8880   20.4021 C   0  0  0  0  0  0  0  0  0  0  0  0
    7.5853  -15.3272   20.8669 C   0  0  2  0  0  0  0  0  0  0  0  0
    6.6252  -15.9815   19.9986 N   0  0  0  0  0  0  0  0  0  0  0  0
    7.1873  -15.4295   22.2908 C   0  0  0  0  0  0  0  0  0  0  0  0
    6.0725  -14.8820   22.6048 O   0  0  0  0  0  0  0  0  0  0  0  0
    7.9746  -16.0888   23.2682 N   0  0  0  0  0  0  0  0  0  0  0  0
    9.1896  -16.8116   23.0382 C   0  0  0  0  0  0  0  0  0  0  0  0
    8.8998  -18.0771   23.8672 C   0  0  0  0  0  0  0  0  0  0  0  0
    8.1617  -17.5217   25.0764 C   0  0  0  0  0  0  0  0  0  0  0  0
    7.6814  -16.1521   24.6621 C   0  0  1  0  0  0  0  0  0  0  0  0
    8.4816  -15.0958   25.3715 C   0  0  0  0  0  0  0  0  0  0  0  0
    9.7194  -15.2403   25.3512 O   0  0  0  0  0  0  0  0  0  0  0  0
    7.8574  -14.0124   26.0166 N   0  0  0  0  0  0  0  0  0  0  0  0
    6.5550  -13.4696   25.5622 C   0  0  0  0  0  0  0  0  0  0  0  0
    5.8379  -13.3921   26.8844 C   0  0  0  0  0  0  0  0  0  0  0  0
    6.8942  -13.1311   27.9206 C   0  0  0  0  0  0  0  0  0  0  0  0
    8.2309  -13.2208   27.1171 C   0  0  1  0  0  0  0  0  0  0  0  0
    9.2876  -13.6452   28.0117 C   0  0  0  0  0  0  0  0  0  0  0  0
    9.3256  -15.0092   28.3563 O   0  0  0  0  0  0  0  0  0  0  0  0
   10.1517  -12.9280   28.4967 O   0  0  0  0  0  0  0  0  0  0  0  0
  2  1  1  1
  2  3  1  0
  4  5  1  0
  4  2  1  0
  5  7  1  0
  5  6  1  6
  7  8  2  0
  9 13  1  0
  9  7  1  0
 10  9  1  0
 11 10  1  0
 11 12  1  0
 12 13  1  0
 13 14  1  1
 14 15  2  0
 16 14  1  0
 16 17  1  0
 17 18  1  0
 19 18  1  0
 20 16  1  0
 20 19  1  0
 20 21  1  1
 22 21  1  0
 23 21  2  0
M  END
$$$$
