LPP.pdb
     RDKit          3D

 23 24  0  0  1  0  0  0  0  0999 V2000
    6.5981  -18.1127   20.4877 C   0  0  0  0  0  0  0  0  0  0  0  0
    8.0548  -17.8570   20.7591 C   0  0  2  0  0  0  0  0  0  0  0  0
    8.8047  -19.1875   20.7014 C   0  0  0  0  0  0  0  0  0  0  0  0
    8.2790  -17.1896   22.0857 C   0  0  0  0  0  0  0  0  0  0  0  0
    8.2266  -15.6899   21.8706 C   0  0  2  0  0  0  0  0  0  0  0  0
    8.9773  -15.4119   20.6610 N   0  0  0  0  0  0  0  0  0  0  0  0
    8.7653  -14.9380   23.0286 C   0  0  0  0  0  0  0  0  0  0  0  0
    9.9648  -14.5040   22.9097 O   0  0  0  0  0  0  0  0  0  0  0  0
    8.0190  -14.6987   24.2099 N   0  0  0  0  0  0  0  0  0  0  0  0
    6.6715  -15.1116   24.4651 C   0  0  0  0  0  0  0  0  0  0  0  0
    6.1021  -13.8003   25.0387 C   0  0  0  0  0  0  0  0  0  0  0  0
    7.2638  -13.2649   25.8627 C   0  0  0  0  0  0  0  0  0  0  0  0
    8.4867  -13.9893   25.3548 C   0  0  1  0  0  0  0  0  0  0  0  0
    8.9522  -14.9840   26.3812 C   0  0  0  0  0  0  0  0  0  0  0  0
    8.4532  -16.1236   26.3054 O   0  0  0  0  0  0  0  0  0  0  0  0
    9.8964  -14.6360   27.3644 N   0  0  0  0  0  0  0  0  0  0  0  0
   10.3989  -13.2499   27.5181 C   0  0  0  0  0  0  0  0  0  0  0  0
   10.2546  -13.0922   29.0090 C   0  0  0  0  0  0  0  0  0  0  0  0
   10.4551  -14.4601   29.5975 C   0  0  0  0  0  0  0  0  0  0  0  0
   10.5648  -15.3888   28.3461 C   0  0  1  0  0  0  0  0  0  0  0  0
   10.1055  -16.7145   28.7050 C   0  0  0  0  0  0  0  0  0  0  0  0
    8.7407  -16.9949   28.5063 O   0  0  0  0  0  0  0  0  0  0  0  0
   10.7938  -17.6148   29.1654 O   0  0  0  0  0  0  0  0  0  0  0  0
  2  1  1  1
  2  3  1  0
  4  5  1  0
  4  2  1  0
  5  7  1  0
  5  6  1  6
  7  8  2  0
  9 13  1  0
  9  7  1  0
 10  9  1  0
 11 10  1  0
 11 12  1  0
 12 13  1  0
 13 14  1  1
 14 15  2  0
 16 14  1  0
 16 17  1  0
 17 18  1  0
 19 18  1  0
 20 16  1  0
 20 19  1  0
 20 21  1  1
 22 21  1  0
 23 21  2  0
M  END
$$$$
