LPP.pdb
     RDKit          3D

 23 24  0  0  1  0  0  0  0  0999 V2000
   10.9499  -14.6860   27.7541 C   0  0  0  0  0  0  0  0  0  0  0  0
    9.5809  -14.8719   28.3476 C   0  0  2  0  0  0  0  0  0  0  0  0
    9.5041  -14.0877   29.6573 C   0  0  0  0  0  0  0  0  0  0  0  0
    9.2545  -16.3182   28.5864 C   0  0  0  0  0  0  0  0  0  0  0  0
    7.7555  -16.4908   28.4407 C   0  0  2  0  0  0  0  0  0  0  0  0
    7.4465  -17.8476   28.8502 N   0  0  0  0  0  0  0  0  0  0  0  0
    7.2916  -16.2218   27.0591 C   0  0  0  0  0  0  0  0  0  0  0  0
    6.7452  -17.2056   26.4469 O   0  0  0  0  0  0  0  0  0  0  0  0
    7.4315  -14.9599   26.4285 N   0  0  0  0  0  0  0  0  0  0  0  0
    8.0799  -13.8034   26.9704 C   0  0  0  0  0  0  0  0  0  0  0  0
    7.0252  -12.7325   26.6335 C   0  0  0  0  0  0  0  0  0  0  0  0
    6.5263  -13.1748   25.2657 C   0  0  0  0  0  0  0  0  0  0  0  0
    6.9360  -14.6217   25.1350 C   0  0  1  0  0  0  0  0  0  0  0  0
    8.0574  -14.7455   24.1417 C   0  0  0  0  0  0  0  0  0  0  0  0
    9.2026  -14.5169   24.5770 O   0  0  0  0  0  0  0  0  0  0  0  0
    7.8146  -15.0997   22.8019 N   0  0  0  0  0  0  0  0  0  0  0  0
    6.4465  -15.1358   22.2324 C   0  0  0  0  0  0  0  0  0  0  0  0
    6.6839  -14.3744   20.9548 C   0  0  0  0  0  0  0  0  0  0  0  0
    8.1042  -14.6579   20.5545 C   0  0  0  0  0  0  0  0  0  0  0  0
    8.6682  -15.4858   21.7534 C   0  0  1  0  0  0  0  0  0  0  0  0
   10.0972  -15.2682   21.8416 C   0  0  0  0  0  0  0  0  0  0  0  0
   10.9229  -16.1232   21.0881 O   0  0  0  0  0  0  0  0  0  0  0  0
   10.6547  -14.4093   22.5108 O   0  0  0  0  0  0  0  0  0  0  0  0
  2  1  1  1
  2  3  1  0
  4  5  1  0
  4  2  1  0
  5  7  1  0
  5  6  1  6
  7  8  2  0
  9 13  1  0
  9  7  1  0
 10  9  1  0
 11 10  1  0
 11 12  1  0
 12 13  1  0
 13 14  1  6
 14 15  2  0
 16 14  1  0
 16 17  1  0
 17 18  1  0
 19 18  1  0
 20 16  1  0
 20 19  1  0
 20 21  1  1
 22 21  1  0
 23 21  2  0
M  END
$$$$
