LPP.pdb
     RDKit          3D

 23 24  0  0  1  0  0  0  0  0999 V2000
    9.1505  -18.2931   22.3877 C   0  0  0  0  0  0  0  0  0  0  0  0
    8.1051  -17.2292   22.1976 C   0  0  2  0  0  0  0  0  0  0  0  0
    6.8462  -17.8767   21.6216 C   0  0  0  0  0  0  0  0  0  0  0  0
    8.5769  -16.1198   21.3021 C   0  0  0  0  0  0  0  0  0  0  0  0
    7.9009  -14.8381   21.7475 C   0  0  2  0  0  0  0  0  0  0  0  0
    8.0130  -13.8992   20.6475 N   0  0  0  0  0  0  0  0  0  0  0  0
    8.4964  -14.2923   22.9899 C   0  0  0  0  0  0  0  0  0  0  0  0
    9.6838  -13.8225   22.8863 O   0  0  0  0  0  0  0  0  0  0  0  0
    7.8145  -14.2780   24.2327 N   0  0  0  0  0  0  0  0  0  0  0  0
    6.4987  -14.7828   24.4888 C   0  0  0  0  0  0  0  0  0  0  0  0
    5.9223  -13.6062   25.2987 C   0  0  0  0  0  0  0  0  0  0  0  0
    7.1130  -13.1626   26.1357 C   0  0  0  0  0  0  0  0  0  0  0  0
    8.3264  -13.7438   25.4515 C   0  0  1  0  0  0  0  0  0  0  0  0
    8.8843  -14.8708   26.2750 C   0  0  0  0  0  0  0  0  0  0  0  0
    8.3446  -15.9832   26.1184 O   0  0  0  0  0  0  0  0  0  0  0  0
    9.9536  -14.6681   27.1666 N   0  0  0  0  0  0  0  0  0  0  0  0
   10.5918  -13.3418   27.3423 C   0  0  0  0  0  0  0  0  0  0  0  0
   10.6190  -13.2712   28.8465 C   0  0  0  0  0  0  0  0  0  0  0  0
   10.7561  -14.6868   29.3312 C   0  0  0  0  0  0  0  0  0  0  0  0
   10.6506  -15.5370   28.0248 C   0  0  1  0  0  0  0  0  0  0  0  0
   10.1141  -16.8405   28.3564 C   0  0  0  0  0  0  0  0  0  0  0  0
    8.7146  -16.9847   28.3217 O   0  0  0  0  0  0  0  0  0  0  0  0
   10.7645  -17.8297   28.6644 O   0  0  0  0  0  0  0  0  0  0  0  0
  2  1  1  6
  2  3  1  0
  4  5  1  0
  4  2  1  0
  5  7  1  0
  5  6  1  6
  7  8  2  0
  9 13  1  0
  9  7  1  0
 10  9  1  0
 11 10  1  0
 11 12  1  0
 12 13  1  0
 13 14  1  1
 14 15  2  0
 16 14  1  0
 16 17  1  0
 17 18  1  0
 19 18  1  0
 20 16  1  0
 20 19  1  0
 20 21  1  1
 22 21  1  0
 23 21  2  0
M  END
$$$$
