LPP.pdb
     RDKit          3D

 23 24  0  0  1  0  0  0  0  0999 V2000
   10.5435  -20.7878   22.9225 C   0  0  0  0  0  0  0  0  0  0  0  0
   10.4757  -19.5871   22.0200 C   0  0  2  0  0  0  0  0  0  0  0  0
   11.6893  -19.6034   21.0909 C   0  0  0  0  0  0  0  0  0  0  0  0
   10.4253  -18.2980   22.7887 C   0  0  0  0  0  0  0  0  0  0  0  0
   10.4352  -17.1566   21.7912 C   0  0  2  0  0  0  0  0  0  0  0  0
   11.7928  -17.0455   21.2926 N   0  0  0  0  0  0  0  0  0  0  0  0
    9.9714  -15.8833   22.3911 C   0  0  0  0  0  0  0  0  0  0  0  0
   10.8869  -15.0952   22.8178 O   0  0  0  0  0  0  0  0  0  0  0  0
    8.6020  -15.5329   22.4985 N   0  0  0  0  0  0  0  0  0  0  0  0
    7.4914  -16.2596   21.9599 C   0  0  0  0  0  0  0  0  0  0  0  0
    6.7045  -15.0980   21.3242 C   0  0  0  0  0  0  0  0  0  0  0  0
    6.8999  -13.9732   22.3301 C   0  0  0  0  0  0  0  0  0  0  0  0
    8.0927  -14.3780   23.1617 C   0  0  1  0  0  0  0  0  0  0  0  0
    7.6418  -14.7733   24.5401 C   0  0  0  0  0  0  0  0  0  0  0  0
    7.2728  -15.9557   24.6777 O   0  0  0  0  0  0  0  0  0  0  0  0
    7.6415  -13.8525   25.6038 N   0  0  0  0  0  0  0  0  0  0  0  0
    7.9873  -12.4242   25.4092 C   0  0  0  0  0  0  0  0  0  0  0  0
    6.8469  -11.7836   26.1559 C   0  0  0  0  0  0  0  0  0  0  0  0
    6.4764  -12.7377   27.2560 C   0  0  0  0  0  0  0  0  0  0  0  0
    7.3687  -13.9892   26.9765 C   0  0  1  0  0  0  0  0  0  0  0  0
    6.6968  -15.1666   27.4857 C   0  0  0  0  0  0  0  0  0  0  0  0
    7.1066  -15.6434   28.7449 O   0  0  0  0  0  0  0  0  0  0  0  0
    5.8050  -15.7866   26.9231 O   0  0  0  0  0  0  0  0  0  0  0  0
  2  1  1  1
  2  3  1  0
  4  5  1  0
  4  2  1  0
  5  7  1  0
  5  6  1  1
  7  8  2  0
  9 13  1  0
  9  7  1  0
 10  9  1  0
 11 10  1  0
 11 12  1  0
 12 13  1  0
 13 14  1  1
 14 15  2  0
 16 14  1  0
 16 17  1  0
 17 18  1  0
 19 18  1  0
 20 16  1  0
 20 19  1  0
 20 21  1  6
 22 21  1  0
 23 21  2  0
M  END
$$$$
