LPP.pdb
     RDKit          3D

 23 24  0  0  1  0  0  0  0  0999 V2000
   10.1112  -20.5456   22.8968 C   0  0  0  0  0  0  0  0  0  0  0  0
   10.5558  -19.1889   22.4250 C   0  0  2  0  0  0  0  0  0  0  0  0
   11.2316  -18.4629   23.5880 C   0  0  0  0  0  0  0  0  0  0  0  0
    9.4165  -18.3694   21.8906 C   0  0  0  0  0  0  0  0  0  0  0  0
    9.9976  -17.1431   21.2149 C   0  0  2  0  0  0  0  0  0  0  0  0
   11.4172  -17.3888   21.0460 N   0  0  0  0  0  0  0  0  0  0  0  0
    9.7496  -15.9048   21.9903 C   0  0  0  0  0  0  0  0  0  0  0  0
   10.7892  -15.2896   22.4171 O   0  0  0  0  0  0  0  0  0  0  0  0
    8.4493  -15.4078   22.2583 N   0  0  0  0  0  0  0  0  0  0  0  0
    7.2144  -15.9427   21.7677 C   0  0  0  0  0  0  0  0  0  0  0  0
    6.5294  -14.6401   21.3132 C   0  0  0  0  0  0  0  0  0  0  0  0
    6.9493  -13.6497   22.3893 C   0  0  0  0  0  0  0  0  0  0  0  0
    8.1475  -14.2713   23.0647 C   0  0  1  0  0  0  0  0  0  0  0  0
    7.7685  -14.7433   24.4406 C   0  0  0  0  0  0  0  0  0  0  0  0
    7.4732  -15.9497   24.5438 O   0  0  0  0  0  0  0  0  0  0  0  0
    7.7523  -13.8643   25.5389 N   0  0  0  0  0  0  0  0  0  0  0  0
    8.0469  -12.4187   25.3951 C   0  0  0  0  0  0  0  0  0  0  0  0
    6.8963  -11.8465   26.1807 C   0  0  0  0  0  0  0  0  0  0  0  0
    6.5739  -12.8539   27.2478 C   0  0  0  0  0  0  0  0  0  0  0  0
    7.5039  -14.0626   26.9087 C   0  0  1  0  0  0  0  0  0  0  0  0
    6.8794  -15.2809   27.3808 C   0  0  0  0  0  0  0  0  0  0  0  0
    5.8293  -15.8047   26.6040 O   0  0  0  0  0  0  0  0  0  0  0  0
    7.1797  -15.8983   28.3932 O   0  0  0  0  0  0  0  0  0  0  0  0
  2  1  1  1
  2  3  1  0
  4  5  1  0
  4  2  1  0
  5  7  1  0
  5  6  1  1
  7  8  2  0
  9 13  1  0
  9  7  1  0
 10  9  1  0
 11 10  1  0
 11 12  1  0
 12 13  1  0
 13 14  1  1
 14 15  2  0
 16 14  1  0
 16 17  1  0
 17 18  1  0
 19 18  1  0
 20 16  1  0
 20 19  1  0
 20 21  1  6
 22 21  1  0
 23 21  2  0
M  END
$$$$
