LPP.pdb
     RDKit          3D

 23 24  0  0  1  0  0  0  0  0999 V2000
    9.8865  -20.5243   23.2969 C   0  0  0  0  0  0  0  0  0  0  0  0
   10.1187  -19.0531   23.0906 C   0  0  2  0  0  0  0  0  0  0  0  0
    9.7450  -18.3134   24.3750 C   0  0  0  0  0  0  0  0  0  0  0  0
    9.3361  -18.5095   21.9298 C   0  0  0  0  0  0  0  0  0  0  0  0
   10.0732  -17.2982   21.3936 C   0  0  2  0  0  0  0  0  0  0  0  0
   11.4843  -17.6343   21.3851 N   0  0  0  0  0  0  0  0  0  0  0  0
    9.8101  -16.0807   22.1964 C   0  0  0  0  0  0  0  0  0  0  0  0
   10.8205  -15.5747   22.8001 O   0  0  0  0  0  0  0  0  0  0  0  0
    8.5262  -15.4898   22.3067 N   0  0  0  0  0  0  0  0  0  0  0  0
    7.3153  -15.9639   21.7061 C   0  0  0  0  0  0  0  0  0  0  0  0
    6.7724  -14.6399   21.1360 C   0  0  0  0  0  0  0  0  0  0  0  0
    7.1451  -13.6345   22.2155 C   0  0  0  0  0  0  0  0  0  0  0  0
    8.2210  -14.3034   23.0361 C   0  0  1  0  0  0  0  0  0  0  0  0
    7.6692  -14.6918   24.3793 C   0  0  0  0  0  0  0  0  0  0  0  0
    7.1556  -15.8249   24.4537 O   0  0  0  0  0  0  0  0  0  0  0  0
    7.7354  -13.8180   25.4800 N   0  0  0  0  0  0  0  0  0  0  0  0
    8.2663  -12.4392   25.3600 C   0  0  0  0  0  0  0  0  0  0  0  0
    7.1821  -11.6865   26.0855 C   0  0  0  0  0  0  0  0  0  0  0  0
    6.6445  -12.6252   27.1283 C   0  0  0  0  0  0  0  0  0  0  0  0
    7.3846  -13.9690   26.8333 C   0  0  1  0  0  0  0  0  0  0  0  0
    6.5475  -15.0692   27.2644 C   0  0  0  0  0  0  0  0  0  0  0  0
    6.8450  -15.6497   28.5115 O   0  0  0  0  0  0  0  0  0  0  0  0
    5.6045  -15.5421   26.6452 O   0  0  0  0  0  0  0  0  0  0  0  0
  2  1  1  1
  2  3  1  0
  4  5  1  0
  4  2  1  0
  5  7  1  0
  5  6  1  1
  7  8  2  0
  9 13  1  0
  9  7  1  0
 10  9  1  0
 11 10  1  0
 11 12  1  0
 12 13  1  0
 13 14  1  1
 14 15  2  0
 16 14  1  0
 16 17  1  0
 17 18  1  0
 19 18  1  0
 20 16  1  0
 20 19  1  0
 20 21  1  6
 22 21  1  0
 23 21  2  0
M  END
$$$$
