LPP.pdb
     RDKit          3D

 23 24  0  0  1  0  0  0  0  0999 V2000
    5.5989  -12.1408   25.9499 C   0  0  0  0  0  0  0  0  0  0  0  0
    6.5049  -12.9189   26.8634 C   0  0  2  0  0  0  0  0  0  0  0  0
    7.4229  -11.9392   27.5938 C   0  0  0  0  0  0  0  0  0  0  0  0
    7.3180  -13.9423   26.1238 C   0  0  0  0  0  0  0  0  0  0  0  0
    6.3612  -14.8530   25.3801 C   0  0  2  0  0  0  0  0  0  0  0  0
    5.6927  -15.6660   26.3783 N   0  0  0  0  0  0  0  0  0  0  0  0
    7.0531  -15.6908   24.3724 C   0  0  0  0  0  0  0  0  0  0  0  0
    6.9229  -16.9580   24.5081 O   0  0  0  0  0  0  0  0  0  0  0  0
    7.8198  -15.1480   23.3107 N   0  0  0  0  0  0  0  0  0  0  0  0
    8.0698  -13.7596   23.0629 C   0  0  0  0  0  0  0  0  0  0  0  0
    7.7870  -13.7107   21.5496 C   0  0  0  0  0  0  0  0  0  0  0  0
    8.3548  -15.0354   21.0614 C   0  0  0  0  0  0  0  0  0  0  0  0
    8.4728  -15.9018   22.2917 C   0  0  1  0  0  0  0  0  0  0  0  0
    9.9201  -16.0632   22.6640 C   0  0  0  0  0  0  0  0  0  0  0  0
   10.5513  -15.0101   22.8786 O   0  0  0  0  0  0  0  0  0  0  0  0
   10.5151  -17.3344   22.7610 N   0  0  0  0  0  0  0  0  0  0  0  0
    9.7168  -18.5827   22.7213 C   0  0  0  0  0  0  0  0  0  0  0  0
   10.5261  -19.3692   21.7239 C   0  0  0  0  0  0  0  0  0  0  0  0
   11.9501  -18.9195   21.8903 C   0  0  0  0  0  0  0  0  0  0  0  0
   11.8501  -17.7472   22.9181 C   0  0  1  0  0  0  0  0  0  0  0  0
   12.9436  -16.8265   22.6861 C   0  0  0  0  0  0  0  0  0  0  0  0
   14.0486  -16.9133   23.5533 O   0  0  0  0  0  0  0  0  0  0  0  0
   12.9968  -15.9791   21.8056 O   0  0  0  0  0  0  0  0  0  0  0  0
  2  1  1  6
  2  3  1  0
  4  5  1  0
  4  2  1  0
  5  7  1  0
  5  6  1  1
  7  8  2  0
  9 13  1  0
  9  7  1  0
 10  9  1  0
 11 10  1  0
 11 12  1  0
 12 13  1  0
 13 14  1  1
 14 15  2  0
 16 14  1  0
 16 17  1  0
 17 18  1  0
 19 18  1  0
 20 16  1  0
 20 19  1  0
 20 21  1  6
 22 21  1  0
 23 21  2  0
M  END
$$$$
