LPP.pdb
     RDKit          3D

 23 24  0  0  1  0  0  0  0  0999 V2000
   10.3201  -20.0440   21.5836 C   0  0  0  0  0  0  0  0  0  0  0  0
   11.4732  -19.2472   22.1280 C   0  0  2  0  0  0  0  0  0  0  0  0
   12.2366  -20.1125   23.1304 C   0  0  0  0  0  0  0  0  0  0  0  0
   11.0268  -17.9687   22.7772 C   0  0  0  0  0  0  0  0  0  0  0  0
   10.6930  -16.9775   21.6798 C   0  0  2  0  0  0  0  0  0  0  0  0
   11.9229  -16.7241   20.9535 N   0  0  0  0  0  0  0  0  0  0  0  0
   10.1102  -15.7241   22.2142 C   0  0  0  0  0  0  0  0  0  0  0  0
   10.9445  -14.8040   22.5282 O   0  0  0  0  0  0  0  0  0  0  0  0
    8.7158  -15.5283   22.3783 N   0  0  0  0  0  0  0  0  0  0  0  0
    7.6758  -16.4289   21.9793 C   0  0  0  0  0  0  0  0  0  0  0  0
    6.7193  -15.4342   21.2950 C   0  0  0  0  0  0  0  0  0  0  0  0
    6.8283  -14.2029   22.1823 C   0  0  0  0  0  0  0  0  0  0  0  0
    8.1045  -14.3830   22.9678 C   0  0  1  0  0  0  0  0  0  0  0  0
    7.7799  -14.6944   24.4021 C   0  0  0  0  0  0  0  0  0  0  0  0
    7.6086  -15.8980   24.6762 O   0  0  0  0  0  0  0  0  0  0  0  0
    7.6786  -13.6770   25.3686 N   0  0  0  0  0  0  0  0  0  0  0  0
    7.7696  -12.2409   25.0129 C   0  0  0  0  0  0  0  0  0  0  0  0
    6.5769  -11.7168   25.7687 C   0  0  0  0  0  0  0  0  0  0  0  0
    6.4275  -12.5947   26.9789 C   0  0  0  0  0  0  0  0  0  0  0  0
    7.5020  -13.7081   26.7633 C   0  0  1  0  0  0  0  0  0  0  0  0
    7.0636  -14.9172   27.4289 C   0  0  0  0  0  0  0  0  0  0  0  0
    7.6532  -15.2135   28.6720 O   0  0  0  0  0  0  0  0  0  0  0  0
    6.2275  -15.7063   27.0113 O   0  0  0  0  0  0  0  0  0  0  0  0
  2  1  1  1
  2  3  1  0
  4  5  1  0
  4  2  1  0
  5  7  1  0
  5  6  1  1
  7  8  2  0
  9 13  1  0
  9  7  1  0
 10  9  1  0
 11 10  1  0
 11 12  1  0
 12 13  1  0
 13 14  1  1
 14 15  2  0
 16 14  1  0
 16 17  1  0
 17 18  1  0
 19 18  1  0
 20 16  1  0
 20 19  1  0
 20 21  1  6
 22 21  1  0
 23 21  2  0
M  END
$$$$
