LPP.pdb
     RDKit          3D

 23 24  0  0  1  0  0  0  0  0999 V2000
    6.9247  -17.7319   19.9356 C   0  0  0  0  0  0  0  0  0  0  0  0
    7.9831  -17.4168   20.9561 C   0  0  2  0  0  0  0  0  0  0  0  0
    8.6444  -18.7229   21.3953 C   0  0  0  0  0  0  0  0  0  0  0  0
    7.4286  -16.6876   22.1461 C   0  0  0  0  0  0  0  0  0  0  0  0
    7.6827  -15.2062   21.9484 C   0  0  2  0  0  0  0  0  0  0  0  0
    8.4559  -15.0712   20.7285 N   0  0  0  0  0  0  0  0  0  0  0  0
    8.3822  -14.5978   23.1045 C   0  0  0  0  0  0  0  0  0  0  0  0
    9.6039  -14.2638   22.9117 O   0  0  0  0  0  0  0  0  0  0  0  0
    7.7600  -14.3862   24.3606 N   0  0  0  0  0  0  0  0  0  0  0  0
    6.4149  -14.7289   24.7140 C   0  0  0  0  0  0  0  0  0  0  0  0
    5.9885  -13.4228   25.4104 C   0  0  0  0  0  0  0  0  0  0  0  0
    7.2515  -13.0138   26.1539 C   0  0  0  0  0  0  0  0  0  0  0  0
    8.3731  -13.7804   25.4964 C   0  0  1  0  0  0  0  0  0  0  0  0
    8.8577  -14.8645   26.4182 C   0  0  0  0  0  0  0  0  0  0  0  0
    8.2663  -15.9584   26.3359 O   0  0  0  0  0  0  0  0  0  0  0  0
    9.9178  -14.6438   27.3164 N   0  0  0  0  0  0  0  0  0  0  0  0
   10.5507  -13.3129   27.4760 C   0  0  0  0  0  0  0  0  0  0  0  0
   10.5633  -13.2172   28.9790 C   0  0  0  0  0  0  0  0  0  0  0  0
   10.6997  -14.6242   29.4885 C   0  0  0  0  0  0  0  0  0  0  0  0
   10.6090  -15.4963   28.1955 C   0  0  1  0  0  0  0  0  0  0  0  0
   10.0729  -16.7957   28.5437 C   0  0  0  0  0  0  0  0  0  0  0  0
    8.6751  -16.9483   28.4853 O   0  0  0  0  0  0  0  0  0  0  0  0
   10.7224  -17.7747   28.8844 O   0  0  0  0  0  0  0  0  0  0  0  0
  2  1  1  6
  2  3  1  0
  4  5  1  0
  4  2  1  0
  5  7  1  0
  5  6  1  6
  7  8  2  0
  9 13  1  0
  9  7  1  0
 10  9  1  0
 11 10  1  0
 11 12  1  0
 12 13  1  0
 13 14  1  1
 14 15  2  0
 16 14  1  0
 16 17  1  0
 17 18  1  0
 19 18  1  0
 20 16  1  0
 20 19  1  0
 20 21  1  1
 22 21  1  0
 23 21  2  0
M  END
$$$$
