QNE.pdb
     RDKit          3D

 27 26  0  0  1  0  0  0  0  0999 V2000
    8.4220  -12.3510   17.8910 N   0  0  0  0  0  0  0  0  0  0  0  0
    7.7396  -13.3762   17.1896 C   0  0  0  0  0  0  0  0  0  0  0  0
    7.7934  -13.4495   15.9442 O   0  0  0  0  0  0  0  0  0  0  0  0
    6.9414  -14.3881   17.9477 C   0  0  0  0  0  0  0  0  0  0  0  0
    7.0267  -14.1113   19.4258 C   0  0  0  0  0  0  0  0  0  0  0  0
    8.0962  -14.9762   20.0279 C   0  0  2  0  0  0  0  0  0  0  0  0
    8.0381  -16.3165   19.5368 N   0  0  0  0  0  0  0  0  0  0  0  0
    8.1291  -14.9103   21.5143 C   0  0  0  0  0  0  0  0  0  0  0  0
    7.5014  -13.9863   22.1095 O   0  0  0  0  0  0  0  0  0  0  0  0
    7.1583  -17.0669   26.3832 N   0  0  0  0  0  0  0  0  0  0  0  0
    7.1564  -15.8434   25.6802 C   0  0  0  0  0  0  0  0  0  0  0  0
    7.0457  -14.7327   26.2931 O   0  0  0  0  0  0  0  0  0  0  0  0
    7.2861  -15.8809   24.2133 C   0  0  0  0  0  0  0  0  0  0  0  0
    8.7114  -15.7905   23.7475 C   0  0  2  0  0  0  0  0  0  0  0  0
    8.8335  -15.8362   22.3135 N   0  0  0  0  0  0  0  0  0  0  0  0
    9.4325  -16.9545   24.3621 C   0  0  0  0  0  0  0  0  0  0  0  0
    9.0640  -18.1152   24.0637 O   0  0  0  0  0  0  0  0  0  0  0  0
   10.4976  -16.6984   25.2519 N   0  0  0  0  0  0  0  0  0  0  0  0
   11.3122  -17.7468   25.8007 C   0  0  1  0  0  0  0  0  0  0  0  0
   12.7493  -17.4858   25.5179 C   0  0  0  0  0  0  0  0  0  0  0  0
   13.0690  -16.8294   24.2180 C   0  0  0  0  0  0  0  0  0  0  0  0
   14.4801  -16.6049   23.9302 C   0  0  0  0  0  0  0  0  0  0  0  0
   15.0632  -15.5914   24.3801 O   0  0  0  0  0  0  0  0  0  0  0  0
   10.9719  -18.0682   27.1849 C   0  0  0  0  0  0  0  0  0  0  0  0
   11.5781  -19.1040   27.8752 O   0  0  0  0  0  0  0  0  0  0  0  0
   15.1983  -17.4982   23.1612 O   0  0  0  0  0  0  0  0  0  0  0  0
   10.1020  -17.3962   27.7920 O   0  0  0  0  0  0  0  0  0  0  0  0
  2  4  1  0
  2  1  1  0
  3  2  2  0
  5  4  1  0
  6  5  1  0
  6  7  1  1
  8  6  1  0
  8 15  1  0
  9  8  2  0
 10 11  1  0
 11 13  1  0
 11 12  2  0
 14 13  1  6
 14 15  1  0
 14 16  1  0
 16 17  2  0
 16 18  1  0
 18 19  1  0
 19 20  1  1
 19 24  1  0
 21 22  1  0
 21 20  1  0
 22 26  1  0
 23 22  2  0
 24 25  1  0
 27 24  2  0
M  END
$$$$
