QNE.pdb
     RDKit          3D

 27 26  0  0  1  0  0  0  0  0999 V2000
   11.3861  -19.1148   14.4075 N   0  0  0  0  0  0  0  0  0  0  0  0
   12.4096  -19.9715   14.8841 C   0  0  0  0  0  0  0  0  0  0  0  0
   13.2467  -20.4704   14.1033 O   0  0  0  0  0  0  0  0  0  0  0  0
   12.4930  -20.2860   16.3435 C   0  0  0  0  0  0  0  0  0  0  0  0
   11.3930  -19.5762   17.0885 C   0  0  0  0  0  0  0  0  0  0  0  0
   11.7862  -19.4356   18.5308 C   0  0  2  0  0  0  0  0  0  0  0  0
   12.6983  -20.4572   18.9374 N   0  0  0  0  0  0  0  0  0  0  0  0
   10.6169  -19.3136   19.4431 C   0  0  0  0  0  0  0  0  0  0  0  0
    9.8907  -18.2783   19.3878 O   0  0  0  0  0  0  0  0  0  0  0  0
    6.7545  -20.2147   19.4014 N   0  0  0  0  0  0  0  0  0  0  0  0
    7.4920  -21.3172   19.8827 C   0  0  0  0  0  0  0  0  0  0  0  0
    7.6008  -22.3853   19.1980 O   0  0  0  0  0  0  0  0  0  0  0  0
    8.1364  -21.2035   21.2025 C   0  0  0  0  0  0  0  0  0  0  0  0
    9.1473  -20.0943   21.2685 C   0  0  2  0  0  0  0  0  0  0  0  0
   10.2643  -20.3044   20.3845 N   0  0  0  0  0  0  0  0  0  0  0  0
    9.6215  -20.0373   22.6914 C   0  0  0  0  0  0  0  0  0  0  0  0
    8.7779  -20.1575   23.6112 O   0  0  0  0  0  0  0  0  0  0  0  0
   10.9981  -19.8509   22.9398 N   0  0  0  0  0  0  0  0  0  0  0  0
   11.5282  -19.6995   24.2665 C   0  0  1  0  0  0  0  0  0  0  0  0
   12.9785  -20.0305   24.2838 C   0  0  0  0  0  0  0  0  0  0  0  0
   13.4225  -21.1478   23.4022 C   0  0  0  0  0  0  0  0  0  0  0  0
   14.8493  -21.4458   23.3952 C   0  0  0  0  0  0  0  0  0  0  0  0
   15.4811  -21.4857   22.3141 O   0  0  0  0  0  0  0  0  0  0  0  0
   11.1437  -18.4371   24.8937 C   0  0  0  0  0  0  0  0  0  0  0  0
   11.1868  -18.2479   26.2646 O   0  0  0  0  0  0  0  0  0  0  0  0
   15.5292  -21.6884   24.5716 O   0  0  0  0  0  0  0  0  0  0  0  0
   10.7570  -17.4743   24.1863 O   0  0  0  0  0  0  0  0  0  0  0  0
  2  4  1  0
  2  1  1  0
  3  2  2  0
  5  4  1  0
  6  5  1  0
  6  7  1  1
  8  6  1  0
  8 15  1  0
  9  8  2  0
 10 11  1  0
 11 13  1  0
 11 12  2  0
 14 13  1  1
 14 15  1  0
 14 16  1  0
 16 17  2  0
 16 18  1  0
 18 19  1  0
 19 20  1  6
 19 24  1  0
 21 22  1  0
 21 20  1  0
 22 26  1  0
 23 22  2  0
 24 25  1  0
 27 24  2  0
M  END
$$$$
