QNE.pdb
     RDKit          3D

 27 26  0  0  1  0  0  0  0  0999 V2000
    6.9104  -12.6758   19.2242 N   0  0  0  0  0  0  0  0  0  0  0  0
    7.4420  -13.3802   18.1152 C   0  0  0  0  0  0  0  0  0  0  0  0
    7.2663  -12.9711   16.9486 O   0  0  0  0  0  0  0  0  0  0  0  0
    8.2262  -14.6334   18.3400 C   0  0  0  0  0  0  0  0  0  0  0  0
    8.2030  -15.0023   19.8002 C   0  0  0  0  0  0  0  0  0  0  0  0
    9.6066  -15.2646   20.2643 C   0  0  2  0  0  0  0  0  0  0  0  0
   10.4694  -15.6180   19.1818 N   0  0  0  0  0  0  0  0  0  0  0  0
    9.6749  -16.2327   21.3924 C   0  0  0  0  0  0  0  0  0  0  0  0
    8.7587  -16.2349   22.2658 O   0  0  0  0  0  0  0  0  0  0  0  0
   11.7890  -20.3320   20.1765 N   0  0  0  0  0  0  0  0  0  0  0  0
   11.0376  -20.1791   21.3610 C   0  0  0  0  0  0  0  0  0  0  0  0
    9.9295  -20.7859   21.5201 O   0  0  0  0  0  0  0  0  0  0  0  0
   11.5674  -19.2966   22.4148 C   0  0  0  0  0  0  0  0  0  0  0  0
   10.7090  -18.0873   22.6542 C   0  0  2  0  0  0  0  0  0  0  0  0
   10.7223  -17.1659   21.5478 N   0  0  0  0  0  0  0  0  0  0  0  0
   11.2503  -17.4204   23.8850 C   0  0  0  0  0  0  0  0  0  0  0  0
   12.4141  -16.9549   23.8536 O   0  0  0  0  0  0  0  0  0  0  0  0
   10.4292  -17.3425   25.0301 N   0  0  0  0  0  0  0  0  0  0  0  0
   10.8387  -16.6616   26.2271 C   0  0  1  0  0  0  0  0  0  0  0  0
    9.8632  -15.5927   26.5724 C   0  0  0  0  0  0  0  0  0  0  0  0
   10.1566  -14.7843   27.7903 C   0  0  0  0  0  0  0  0  0  0  0  0
    9.1957  -13.7417   28.1282 C   0  0  0  0  0  0  0  0  0  0  0  0
    8.1398  -13.6167   27.4656 O   0  0  0  0  0  0  0  0  0  0  0  0
   11.2074  -17.5758   27.3057 C   0  0  0  0  0  0  0  0  0  0  0  0
   10.7221  -18.8705   27.3775 O   0  0  0  0  0  0  0  0  0  0  0  0
    9.4277  -12.8763   29.1782 O   0  0  0  0  0  0  0  0  0  0  0  0
   11.9906  -17.1979   28.2116 O   0  0  0  0  0  0  0  0  0  0  0  0
  2  4  1  0
  2  1  1  0
  3  2  2  0
  5  4  1  0
  6  5  1  0
  6  7  1  6
  8  6  1  0
  8 15  1  0
  9  8  2  0
 10 11  1  0
 11 13  1  0
 11 12  2  0
 14 13  1  6
 14 15  1  0
 14 16  1  0
 16 17  2  0
 16 18  1  0
 18 19  1  0
 19 20  1  1
 19 24  1  0
 21 22  1  0
 21 20  1  0
 22 26  1  0
 23 22  2  0
 24 25  1  0
 27 24  2  0
M  END
$$$$
