QNE.pdb
     RDKit          3D

 27 26  0  0  1  0  0  0  0  0999 V2000
    7.6242  -12.5169   16.5706 N   0  0  0  0  0  0  0  0  0  0  0  0
    8.3266  -13.6900   16.1979 C   0  0  0  0  0  0  0  0  0  0  0  0
    8.1177  -14.2431   15.0980 O   0  0  0  0  0  0  0  0  0  0  0  0
    9.3345  -14.2789   17.1324 C   0  0  0  0  0  0  0  0  0  0  0  0
    9.3318  -13.5253   18.4365 C   0  0  0  0  0  0  0  0  0  0  0  0
   10.3087  -14.1676   19.3786 C   0  0  2  0  0  0  0  0  0  0  0  0
   10.7954  -15.4130   18.8753 N   0  0  0  0  0  0  0  0  0  0  0  0
    9.7914  -14.2734   20.7699 C   0  0  0  0  0  0  0  0  0  0  0  0
    9.2173  -13.2762   21.2971 O   0  0  0  0  0  0  0  0  0  0  0  0
    7.0521  -13.6482   21.0522 N   0  0  0  0  0  0  0  0  0  0  0  0
    7.3095  -15.0180   21.2725 C   0  0  0  0  0  0  0  0  0  0  0  0
    7.2045  -15.8671   20.3294 O   0  0  0  0  0  0  0  0  0  0  0  0
    7.7044  -15.4453   22.6258 C   0  0  0  0  0  0  0  0  0  0  0  0
    9.1931  -15.5528   22.7964 C   0  0  2  0  0  0  0  0  0  0  0  0
    9.9065  -15.4438   21.5504 N   0  0  0  0  0  0  0  0  0  0  0  0
    9.4522  -16.8924   23.4216 C   0  0  0  0  0  0  0  0  0  0  0  0
    8.8061  -17.2117   24.4476 O   0  0  0  0  0  0  0  0  0  0  0  0
   10.4127  -17.7412   22.8312 N   0  0  0  0  0  0  0  0  0  0  0  0
   11.3891  -18.4561   23.6054 C   0  0  1  0  0  0  0  0  0  0  0  0
   12.5332  -18.8623   22.7455 C   0  0  0  0  0  0  0  0  0  0  0  0
   12.4123  -18.5746   21.2876 C   0  0  0  0  0  0  0  0  0  0  0  0
   13.5277  -18.9895   20.4461 C   0  0  0  0  0  0  0  0  0  0  0  0
   14.3346  -19.8587   20.8499 O   0  0  0  0  0  0  0  0  0  0  0  0
   11.7264  -17.7846   24.8585 C   0  0  0  0  0  0  0  0  0  0  0  0
   12.2404  -18.4658   25.9488 O   0  0  0  0  0  0  0  0  0  0  0  0
   13.7169  -18.4371   19.1954 O   0  0  0  0  0  0  0  0  0  0  0  0
   11.5531  -16.5464   24.9762 O   0  0  0  0  0  0  0  0  0  0  0  0
  2  4  1  0
  2  1  1  0
  3  2  2  0
  5  4  1  0
  6  5  1  0
  6  7  1  6
  8  6  1  0
  8 15  1  0
  9  8  2  0
 10 11  1  0
 11 13  1  0
 11 12  2  0
 14 13  1  6
 14 15  1  0
 14 16  1  0
 16 17  2  0
 16 18  1  0
 18 19  1  0
 19 20  1  6
 19 24  1  0
 21 22  1  0
 21 20  1  0
 22 26  1  0
 23 22  2  0
 24 25  1  0
 27 24  2  0
M  END
$$$$
