QNE.pdb
     RDKit          3D

 27 26  0  0  1  0  0  0  0  0999 V2000
    7.1603  -13.1497   19.5418 N   0  0  0  0  0  0  0  0  0  0  0  0
    8.1526  -12.5500   18.7268 C   0  0  0  0  0  0  0  0  0  0  0  0
    8.3770  -11.3230   18.7839 O   0  0  0  0  0  0  0  0  0  0  0  0
    8.9458  -13.3951   17.7820 C   0  0  0  0  0  0  0  0  0  0  0  0
    8.3002  -14.7477   17.6323 C   0  0  0  0  0  0  0  0  0  0  0  0
    8.8798  -15.6855   18.6516 C   0  0  2  0  0  0  0  0  0  0  0  0
    8.4108  -15.3971   19.9699 N   0  0  0  0  0  0  0  0  0  0  0  0
   10.3631  -15.7802   18.5778 C   0  0  0  0  0  0  0  0  0  0  0  0
   10.9166  -16.0091   17.4628 O   0  0  0  0  0  0  0  0  0  0  0  0
   15.4025  -13.5681   18.9746 N   0  0  0  0  0  0  0  0  0  0  0  0
   14.5941  -14.5948   18.4421 C   0  0  0  0  0  0  0  0  0  0  0  0
   15.1026  -15.5543   17.7770 O   0  0  0  0  0  0  0  0  0  0  0  0
   13.1409  -14.5306   18.6746 C   0  0  0  0  0  0  0  0  0  0  0  0
   12.6347  -15.6501   19.5390 C   0  0  2  0  0  0  0  0  0  0  0  0
   11.2041  -15.6267   19.7009 N   0  0  0  0  0  0  0  0  0  0  0  0
   13.3055  -15.4923   20.8723 C   0  0  0  0  0  0  0  0  0  0  0  0
   13.6374  -14.3423   21.2457 O   0  0  0  0  0  0  0  0  0  0  0  0
   13.5370  -16.6437   21.6547 N   0  0  0  0  0  0  0  0  0  0  0  0
   14.0214  -16.5730   23.0054 C   0  0  1  0  0  0  0  0  0  0  0  0
   13.4858  -17.7069   23.8060 C   0  0  0  0  0  0  0  0  0  0  0  0
   13.8068  -17.7111   25.2619 C   0  0  0  0  0  0  0  0  0  0  0  0
   13.3164  -18.8455   26.0347 C   0  0  0  0  0  0  0  0  0  0  0  0
   13.5922  -18.9468   27.2526 O   0  0  0  0  0  0  0  0  0  0  0  0
   15.4630  -16.3482   23.0834 C   0  0  0  0  0  0  0  0  0  0  0  0
   16.0721  -15.8332   24.2150 O   0  0  0  0  0  0  0  0  0  0  0  0
   12.5432  -19.8249   25.4447 O   0  0  0  0  0  0  0  0  0  0  0  0
   16.1974  -16.6237   22.1028 O   0  0  0  0  0  0  0  0  0  0  0  0
  2  4  1  0
  2  1  1  0
  3  2  2  0
  5  4  1  0
  6  5  1  0
  6  7  1  1
  8  6  1  0
  8 15  1  0
  9  8  2  0
 10 11  1  0
 11 13  1  0
 11 12  2  0
 14 13  1  6
 14 15  1  0
 14 16  1  0
 16 17  2  0
 16 18  1  0
 18 19  1  0
 19 20  1  6
 19 24  1  0
 21 22  1  0
 21 20  1  0
 22 26  1  0
 23 22  2  0
 24 25  1  0
 27 24  2  0
M  END
$$$$
