QNE.pdb
     RDKit          3D

 27 26  0  0  1  0  0  0  0  0999 V2000
    9.2974  -12.8996   15.1624 N   0  0  0  0  0  0  0  0  0  0  0  0
    8.2086  -13.8067   15.1589 C   0  0  0  0  0  0  0  0  0  0  0  0
    7.6757  -14.1683   14.0891 O   0  0  0  0  0  0  0  0  0  0  0  0
    7.6858  -14.3420   16.4535 C   0  0  0  0  0  0  0  0  0  0  0  0
    8.4888  -13.7907   17.6023 C   0  0  0  0  0  0  0  0  0  0  0  0
    9.2093  -14.9173   18.2851 C   0  0  2  0  0  0  0  0  0  0  0  0
    8.7558  -16.1937   17.8310 N   0  0  0  0  0  0  0  0  0  0  0  0
    9.2002  -14.7992   19.7685 C   0  0  0  0  0  0  0  0  0  0  0  0
    9.6249  -13.7369   20.3100 O   0  0  0  0  0  0  0  0  0  0  0  0
    6.4139  -14.1886   21.7745 N   0  0  0  0  0  0  0  0  0  0  0  0
    6.4505  -15.5392   22.1816 C   0  0  0  0  0  0  0  0  0  0  0  0
    5.4509  -16.3075   22.0026 O   0  0  0  0  0  0  0  0  0  0  0  0
    7.6781  -16.0424   22.8218 C   0  0  0  0  0  0  0  0  0  0  0  0
    8.9218  -15.7131   22.0463 C   0  0  2  0  0  0  0  0  0  0  0  0
    8.7369  -15.8229   20.6226 N   0  0  0  0  0  0  0  0  0  0  0  0
    9.9747  -16.6798   22.5039 C   0  0  0  0  0  0  0  0  0  0  0  0
   10.2692  -17.6446   21.7592 O   0  0  0  0  0  0  0  0  0  0  0  0
   10.5931  -16.4662   23.7544 N   0  0  0  0  0  0  0  0  0  0  0  0
   11.9205  -16.9312   24.0470 C   0  0  1  0  0  0  0  0  0  0  0  0
   12.9223  -16.1603   23.2626 C   0  0  0  0  0  0  0  0  0  0  0  0
   14.3525  -16.5420   23.4410 C   0  0  0  0  0  0  0  0  0  0  0  0
   15.3253  -15.8269   22.6244 C   0  0  0  0  0  0  0  0  0  0  0  0
   16.5172  -15.7331   22.9987 O   0  0  0  0  0  0  0  0  0  0  0  0
   12.1775  -17.0583   25.4798 C   0  0  0  0  0  0  0  0  0  0  0  0
   13.2280  -17.8086   25.9801 O   0  0  0  0  0  0  0  0  0  0  0  0
   14.9559  -15.2422   21.4300 O   0  0  0  0  0  0  0  0  0  0  0  0
   11.4337  -16.4761   26.3072 O   0  0  0  0  0  0  0  0  0  0  0  0
  2  4  1  0
  2  1  1  0
  3  2  2  0
  5  4  1  0
  6  5  1  0
  6  7  1  1
  8  6  1  0
  8 15  1  0
  9  8  2  0
 10 11  1  0
 11 13  1  0
 11 12  2  0
 14 13  1  1
 14 15  1  0
 14 16  1  0
 16 17  2  0
 16 18  1  0
 18 19  1  0
 19 20  1  1
 19 24  1  0
 21 22  1  0
 21 20  1  0
 22 26  1  0
 23 22  2  0
 24 25  1  0
 27 24  2  0
M  END
$$$$
