QNE.pdb
     RDKit          3D

 27 26  0  0  1  0  0  0  0  0999 V2000
    7.6111  -12.4268   16.9830 N   0  0  0  0  0  0  0  0  0  0  0  0
    8.0397  -13.6727   16.4609 C   0  0  0  0  0  0  0  0  0  0  0  0
    8.3091  -13.8041   15.2487 O   0  0  0  0  0  0  0  0  0  0  0  0
    8.1731  -14.8514   17.3713 C   0  0  0  0  0  0  0  0  0  0  0  0
    9.3059  -14.6309   18.3392 C   0  0  0  0  0  0  0  0  0  0  0  0
    9.3763  -15.7925   19.2879 C   0  0  2  0  0  0  0  0  0  0  0  0
    8.4496  -16.8227   18.9398 N   0  0  0  0  0  0  0  0  0  0  0  0
    9.2721  -15.3849   20.7153 C   0  0  0  0  0  0  0  0  0  0  0  0
    8.8515  -14.2259   21.0016 O   0  0  0  0  0  0  0  0  0  0  0  0
    6.8101  -14.6073   22.1730 N   0  0  0  0  0  0  0  0  0  0  0  0
    6.4042  -15.9485   22.0076 C   0  0  0  0  0  0  0  0  0  0  0  0
    5.2379  -16.2354   21.5844 O   0  0  0  0  0  0  0  0  0  0  0  0
    7.3657  -17.0147   22.3374 C   0  0  0  0  0  0  0  0  0  0  0  0
    8.6771  -16.4860   22.8448 C   0  0  2  0  0  0  0  0  0  0  0  0
    9.6222  -16.2321   21.7886 N   0  0  0  0  0  0  0  0  0  0  0  0
    9.2196  -17.5263   23.7808 C   0  0  0  0  0  0  0  0  0  0  0  0
    8.4109  -18.2526   24.4058 O   0  0  0  0  0  0  0  0  0  0  0  0
   10.6185  -17.6474   23.9218 N   0  0  0  0  0  0  0  0  0  0  0  0
   11.2233  -18.5730   24.8391 C   0  0  1  0  0  0  0  0  0  0  0  0
   12.1844  -19.4551   24.1238 C   0  0  0  0  0  0  0  0  0  0  0  0
   12.6259  -19.0095   22.7714 C   0  0  0  0  0  0  0  0  0  0  0  0
   13.6429  -19.8226   22.1163 C   0  0  0  0  0  0  0  0  0  0  0  0
   13.3188  -20.6462   21.2296 O   0  0  0  0  0  0  0  0  0  0  0  0
   11.7148  -17.9310   26.0561 C   0  0  0  0  0  0  0  0  0  0  0  0
   12.2576  -18.6518   27.1063 O   0  0  0  0  0  0  0  0  0  0  0  0
   14.9750  -19.7028   22.4571 O   0  0  0  0  0  0  0  0  0  0  0  0
   11.6539  -16.6827   26.1786 O   0  0  0  0  0  0  0  0  0  0  0  0
  2  4  1  0
  2  1  1  0
  3  2  2  0
  5  4  1  0
  6  5  1  0
  6  7  1  6
  8  6  1  0
  8 15  1  0
  9  8  2  0
 10 11  1  0
 11 13  1  0
 11 12  2  0
 14 13  1  6
 14 15  1  0
 14 16  1  0
 16 17  2  0
 16 18  1  0
 18 19  1  0
 19 20  1  6
 19 24  1  0
 21 22  1  0
 21 20  1  0
 22 26  1  0
 23 22  2  0
 24 25  1  0
 27 24  2  0
M  END
$$$$
