QNE.pdb
     RDKit          3D

 27 26  0  0  1  0  0  0  0  0999 V2000
   12.3283  -19.4174   13.8576 N   0  0  0  0  0  0  0  0  0  0  0  0
   12.1083  -18.1016   14.3360 C   0  0  0  0  0  0  0  0  0  0  0  0
   11.6603  -17.2103   13.5849 O   0  0  0  0  0  0  0  0  0  0  0  0
   12.4159  -17.7700   15.7612 C   0  0  0  0  0  0  0  0  0  0  0  0
   11.3860  -16.8138   16.3030 C   0  0  0  0  0  0  0  0  0  0  0  0
   11.2261  -17.0458   17.7778 C   0  0  2  0  0  0  0  0  0  0  0  0
   10.1881  -16.2381   18.3356 N   0  0  0  0  0  0  0  0  0  0  0  0
   12.5071  -16.9321   18.5266 C   0  0  0  0  0  0  0  0  0  0  0  0
   13.5895  -17.2633   17.9603 O   0  0  0  0  0  0  0  0  0  0  0  0
   15.5986  -15.2251   18.3774 N   0  0  0  0  0  0  0  0  0  0  0  0
   14.6931  -14.1485   18.4877 C   0  0  0  0  0  0  0  0  0  0  0  0
   14.8284  -13.0998   17.7782 O   0  0  0  0  0  0  0  0  0  0  0  0
   13.5819  -14.2664   19.4476 C   0  0  0  0  0  0  0  0  0  0  0  0
   13.6220  -15.5432   20.2380 C   0  0  2  0  0  0  0  0  0  0  0  0
   12.5860  -16.4678   19.8572 N   0  0  0  0  0  0  0  0  0  0  0  0
   13.4602  -15.1548   21.6787 C   0  0  0  0  0  0  0  0  0  0  0  0
   14.4273  -14.6172   22.2685 O   0  0  0  0  0  0  0  0  0  0  0  0
   12.2262  -15.4093   22.3145 N   0  0  0  0  0  0  0  0  0  0  0  0
   12.0305  -16.5247   23.1986 C   0  0  1  0  0  0  0  0  0  0  0  0
   11.7462  -17.7587   22.4178 C   0  0  0  0  0  0  0  0  0  0  0  0
   11.6499  -19.0323   23.1870 C   0  0  0  0  0  0  0  0  0  0  0  0
   11.3135  -20.2296   22.4269 C   0  0  0  0  0  0  0  0  0  0  0  0
   11.9563  -21.2906   22.6021 O   0  0  0  0  0  0  0  0  0  0  0  0
   13.0676  -16.6298   24.2225 C   0  0  0  0  0  0  0  0  0  0  0  0
   12.7704  -16.8299   25.5599 O   0  0  0  0  0  0  0  0  0  0  0  0
   10.2868  -20.2193   21.5044 O   0  0  0  0  0  0  0  0  0  0  0  0
   14.2788  -16.5387   23.9039 O   0  0  0  0  0  0  0  0  0  0  0  0
  2  4  1  0
  2  1  1  0
  3  2  2  0
  5  4  1  0
  6  5  1  0
  6  7  1  1
  8  6  1  0
  8 15  1  0
  9  8  2  0
 10 11  1  0
 11 13  1  0
 11 12  2  0
 14 13  1  6
 14 15  1  0
 14 16  1  0
 16 17  2  0
 16 18  1  0
 18 19  1  0
 19 20  1  6
 19 24  1  0
 21 22  1  0
 21 20  1  0
 22 26  1  0
 23 22  2  0
 24 25  1  0
 27 24  2  0
M  END
$$$$
