QNE.pdb
     RDKit          3D

 27 26  0  0  1  0  0  0  0  0999 V2000
    9.5362  -13.0395   17.2419 N   0  0  0  0  0  0  0  0  0  0  0  0
    8.2914  -13.6999   17.0898 C   0  0  0  0  0  0  0  0  0  0  0  0
    7.9103  -14.1052   15.9719 O   0  0  0  0  0  0  0  0  0  0  0  0
    7.4170  -13.9171   18.2832 C   0  0  0  0  0  0  0  0  0  0  0  0
    8.1006  -13.4061   19.5242 C   0  0  0  0  0  0  0  0  0  0  0  0
    8.3546  -14.5561   20.4555 C   0  0  2  0  0  0  0  0  0  0  0  0
    7.3911  -15.5983   20.2918 N   0  0  0  0  0  0  0  0  0  0  0  0
    8.5073  -14.1331   21.8741 C   0  0  0  0  0  0  0  0  0  0  0  0
    9.3946  -13.2827   22.1770 O   0  0  0  0  0  0  0  0  0  0  0  0
    6.0176  -12.6630   27.1047 N   0  0  0  0  0  0  0  0  0  0  0  0
    7.0749  -13.1965   26.3374 C   0  0  0  0  0  0  0  0  0  0  0  0
    8.2572  -13.2662   26.8052 O   0  0  0  0  0  0  0  0  0  0  0  0
    6.7778  -13.6733   24.9756 C   0  0  0  0  0  0  0  0  0  0  0  0
    7.9767  -14.2563   24.2833 C   0  0  2  0  0  0  0  0  0  0  0  0
    7.7047  -14.6350   22.9210 N   0  0  0  0  0  0  0  0  0  0  0  0
    8.3818  -15.4616   25.0807 C   0  0  0  0  0  0  0  0  0  0  0  0
    7.5269  -16.3521   25.3000 O   0  0  0  0  0  0  0  0  0  0  0  0
    9.7090  -15.5468   25.5529 N   0  0  0  0  0  0  0  0  0  0  0  0
   10.1809  -16.6601   26.3287 C   0  0  1  0  0  0  0  0  0  0  0  0
   11.4316  -17.2078   25.7378 C   0  0  0  0  0  0  0  0  0  0  0  0
   11.4790  -17.3196   24.2518 C   0  0  0  0  0  0  0  0  0  0  0  0
   12.7099  -17.8468   23.6762 C   0  0  0  0  0  0  0  0  0  0  0  0
   12.8314  -17.9536   22.4339 O   0  0  0  0  0  0  0  0  0  0  0  0
   10.2081  -16.3849   27.7634 C   0  0  0  0  0  0  0  0  0  0  0  0
    9.8569  -15.1526   28.2880 O   0  0  0  0  0  0  0  0  0  0  0  0
   13.7601  -18.2367   24.4826 O   0  0  0  0  0  0  0  0  0  0  0  0
   10.5587  -17.2811   28.5701 O   0  0  0  0  0  0  0  0  0  0  0  0
  2  4  1  0
  2  1  1  0
  3  2  2  0
  5  4  1  0
  6  5  1  0
  6  7  1  1
  8  6  1  0
  8 15  1  0
  9  8  2  0
 10 11  1  0
 11 13  1  0
 11 12  2  0
 14 13  1  1
 14 15  1  0
 14 16  1  0
 16 17  2  0
 16 18  1  0
 18 19  1  0
 19 20  1  6
 19 24  1  0
 21 22  1  0
 21 20  1  0
 22 26  1  0
 23 22  2  0
 24 25  1  0
 27 24  2  0
M  END
$$$$
