HSE.pdb
     RDKit          3D

 26 26  0  0  1  0  0  0  0  0999 V2000
    6.3869  -14.0743   18.8774 N   0  0  0  0  0  0  0  0  0  0  0  0
    7.7965  -14.3989   18.8088 C   0  0  1  0  0  0  0  0  0  0  0  0
    8.5124  -13.5225   17.7883 C   0  0  0  0  0  0  0  0  0  0  0  0
    8.2781  -14.1168   16.4521 C   0  0  0  0  0  0  0  0  0  0  0  0
    7.5886  -15.2693   16.2022 C   0  0  0  0  0  0  0  0  0  0  0  0
    7.5889  -15.4862   14.8650 N   0  0  0  0  0  0  0  0  0  0  0  0
    8.2670  -14.4883   14.2777 C   0  0  0  0  0  0  0  0  0  0  0  0
    8.6867  -13.6514   15.2632 N   0  0  0  0  0  0  0  0  0  0  0  0
    8.3934  -14.1000   20.1439 C   0  0  0  0  0  0  0  0  0  0  0  0
    8.4263  -12.9184   20.5565 O   0  0  0  0  0  0  0  0  0  0  0  0
    7.3340  -15.2592   23.5714 O   0  0  0  0  0  0  0  0  0  0  0  0
    8.2014  -14.2858   23.1744 C   0  0  0  0  0  0  0  0  0  0  0  0
    9.3570  -14.7719   22.3185 C   0  0  2  0  0  0  0  0  0  0  0  0
    8.9350  -15.1023   20.9848 N   0  0  0  0  0  0  0  0  0  0  0  0
   10.0382  -15.9034   22.9981 C   0  0  0  0  0  0  0  0  0  0  0  0
    9.6188  -17.1027   22.8424 O   0  0  0  0  0  0  0  0  0  0  0  0
   11.1674  -15.7746   23.8455 N   0  0  0  0  0  0  0  0  0  0  0  0
   11.9354  -16.9040   24.3350 C   0  0  1  0  0  0  0  0  0  0  0  0
   13.3806  -16.4497   24.4493 C   0  0  0  0  0  0  0  0  0  0  0  0
   14.0608  -16.6670   23.1335 C   0  0  0  0  0  0  0  0  0  0  0  0
   15.4861  -16.3295   23.2498 C   0  0  0  0  0  0  0  0  0  0  0  0
   16.3569  -17.2039   23.0699 O   0  0  0  0  0  0  0  0  0  0  0  0
   11.4610  -17.2128   25.7024 C   0  0  0  0  0  0  0  0  0  0  0  0
   11.8514  -18.3457   26.4046 O   0  0  0  0  0  0  0  0  0  0  0  0
   15.8593  -15.0358   23.5604 O   0  0  0  0  0  0  0  0  0  0  0  0
   10.6676  -16.4355   26.2847 O   0  0  0  0  0  0  0  0  0  0  0  0
  2  9  1  0
  2  1  1  1
  3  2  1  0
  4  3  1  0
  5  4  2  0
  6  7  1  0
  6  5  1  0
  7  8  2  0
  8  4  1  0
  9 14  1  0
 10  9  2  0
 12 11  1  0
 13 12  1  1
 14 13  1  0
 15 16  2  0
 15 13  1  0
 17 15  1  0
 18 19  1  1
 18 17  1  0
 19 20  1  0
 20 21  1  0
 21 22  2  0
 23 18  1  0
 24 23  1  0
 25 21  1  0
 26 23  2  0
M  END
$$$$
