HSE.pdb
     RDKit          3D

 26 26  0  0  1  0  0  0  0  0999 V2000
    7.9432  -15.7974   18.0810 N   0  0  0  0  0  0  0  0  0  0  0  0
    8.7303  -14.5850   17.9913 C   0  0  1  0  0  0  0  0  0  0  0  0
    7.9135  -13.4430   17.3990 C   0  0  0  0  0  0  0  0  0  0  0  0
    7.5954  -13.8057   15.9988 C   0  0  0  0  0  0  0  0  0  0  0  0
    8.3110  -13.4325   14.8966 C   0  0  0  0  0  0  0  0  0  0  0  0
    7.7109  -13.9551   13.8003 N   0  0  0  0  0  0  0  0  0  0  0  0
    6.6336  -14.6475   14.2009 C   0  0  0  0  0  0  0  0  0  0  0  0
    6.5718  -14.5490   15.5553 N   0  0  0  0  0  0  0  0  0  0  0  0
    9.1043  -14.1866   19.3804 C   0  0  0  0  0  0  0  0  0  0  0  0
    9.9011  -13.2374   19.5586 O   0  0  0  0  0  0  0  0  0  0  0  0
    7.4934  -15.8022   23.0406 O   0  0  0  0  0  0  0  0  0  0  0  0
    8.2638  -14.6815   22.9514 C   0  0  0  0  0  0  0  0  0  0  0  0
    9.2512  -14.6767   21.7985 C   0  0  2  0  0  0  0  0  0  0  0  0
    8.5953  -14.8385   20.5297 N   0  0  0  0  0  0  0  0  0  0  0  0
   10.2975  -15.7040   22.0349 C   0  0  0  0  0  0  0  0  0  0  0  0
   10.1819  -16.8768   21.5351 O   0  0  0  0  0  0  0  0  0  0  0  0
   11.4730  -15.4980   22.8002 N   0  0  0  0  0  0  0  0  0  0  0  0
   12.5223  -16.4901   22.9405 C   0  0  1  0  0  0  0  0  0  0  0  0
   13.8365  -15.7393   23.0727 C   0  0  0  0  0  0  0  0  0  0  0  0
   14.9425  -16.7308   23.2600 C   0  0  0  0  0  0  0  0  0  0  0  0
   16.2167  -16.0233   23.4474 C   0  0  0  0  0  0  0  0  0  0  0  0
   16.6858  -15.8638   24.5918 O   0  0  0  0  0  0  0  0  0  0  0  0
   12.2954  -17.2090   24.2140 C   0  0  0  0  0  0  0  0  0  0  0  0
   11.4835  -16.7194   25.2289 O   0  0  0  0  0  0  0  0  0  0  0  0
   16.8953  -15.5339   22.3477 O   0  0  0  0  0  0  0  0  0  0  0  0
   12.8472  -18.3161   24.4196 O   0  0  0  0  0  0  0  0  0  0  0  0
  2  9  1  0
  2  1  1  1
  3  2  1  0
  4  3  1  0
  5  4  2  0
  6  7  1  0
  6  5  1  0
  7  8  2  0
  8  4  1  0
  9 14  1  0
 10  9  2  0
 12 11  1  0
 13 12  1  1
 14 13  1  0
 15 16  2  0
 15 13  1  0
 17 15  1  0
 18 19  1  1
 18 17  1  0
 19 20  1  0
 20 21  1  0
 21 22  2  0
 23 18  1  0
 24 23  1  0
 25 21  1  0
 26 23  2  0
M  END
$$$$
