HSE.pdb
     RDKit          3D

 26 26  0  0  1  0  0  0  0  0999 V2000
    9.6615  -16.5144   16.3337 N   0  0  0  0  0  0  0  0  0  0  0  0
    8.8504  -17.0485   17.4080 C   0  0  1  0  0  0  0  0  0  0  0  0
    9.1118  -18.5367   17.6053 C   0  0  0  0  0  0  0  0  0  0  0  0
    8.5823  -19.2411   16.4149 C   0  0  0  0  0  0  0  0  0  0  0  0
    7.2779  -19.2510   16.0093 C   0  0  0  0  0  0  0  0  0  0  0  0
    7.1855  -20.0005   14.8847 N   0  0  0  0  0  0  0  0  0  0  0  0
    8.4105  -20.4576   14.5828 C   0  0  0  0  0  0  0  0  0  0  0  0
    9.2623  -19.9845   15.5306 N   0  0  0  0  0  0  0  0  0  0  0  0
    9.2581  -16.3577   18.6669 C   0  0  0  0  0  0  0  0  0  0  0  0
   10.4741  -16.2011   18.9210 O   0  0  0  0  0  0  0  0  0  0  0  0
    6.6310  -15.3452   21.9140 O   0  0  0  0  0  0  0  0  0  0  0  0
    7.6485  -14.5183   21.5418 C   0  0  0  0  0  0  0  0  0  0  0  0
    8.7832  -15.1988   20.7977 C   0  0  2  0  0  0  0  0  0  0  0  0
    8.3236  -15.8604   19.6073 N   0  0  0  0  0  0  0  0  0  0  0  0
    9.5030  -16.1156   21.7182 C   0  0  0  0  0  0  0  0  0  0  0  0
    9.2137  -17.3621   21.7519 O   0  0  0  0  0  0  0  0  0  0  0  0
   10.5336  -15.7211   22.6081 N   0  0  0  0  0  0  0  0  0  0  0  0
   11.1480  -16.6162   23.5706 C   0  0  1  0  0  0  0  0  0  0  0  0
   12.5521  -16.0990   23.8335 C   0  0  0  0  0  0  0  0  0  0  0  0
   13.4073  -16.3955   22.6409 C   0  0  0  0  0  0  0  0  0  0  0  0
   14.7455  -15.8205   22.8346 C   0  0  0  0  0  0  0  0  0  0  0  0
   15.2204  -15.0331   21.9922 O   0  0  0  0  0  0  0  0  0  0  0  0
   10.3921  -16.5027   24.8378 C   0  0  0  0  0  0  0  0  0  0  0  0
   10.6144  -17.3288   25.9320 O   0  0  0  0  0  0  0  0  0  0  0  0
   15.4783  -16.1566   23.9569 O   0  0  0  0  0  0  0  0  0  0  0  0
    9.5007  -15.6297   24.9638 O   0  0  0  0  0  0  0  0  0  0  0  0
  2  9  1  0
  2  1  1  6
  3  2  1  0
  4  3  1  0
  5  4  2  0
  6  7  1  0
  6  5  1  0
  7  8  2  0
  8  4  1  0
  9 14  1  0
 10  9  2  0
 12 11  1  0
 13 12  1  1
 14 13  1  0
 15 16  2  0
 15 13  1  0
 17 15  1  0
 18 19  1  1
 18 17  1  0
 19 20  1  0
 20 21  1  0
 21 22  2  0
 23 18  1  0
 24 23  1  0
 25 21  1  0
 26 23  2  0
M  END
$$$$
