HSE.pdb
     RDKit          3D

 26 26  0  0  1  0  0  0  0  0999 V2000
    7.4800  -15.8712   18.2550 N   0  0  0  0  0  0  0  0  0  0  0  0
    8.5506  -14.8982   18.1912 C   0  0  1  0  0  0  0  0  0  0  0  0
    8.0982  -13.6305   17.4769 C   0  0  0  0  0  0  0  0  0  0  0  0
    7.8003  -13.9954   16.0728 C   0  0  0  0  0  0  0  0  0  0  0  0
    7.9355  -15.2405   15.5271 C   0  0  0  0  0  0  0  0  0  0  0  0
    7.5685  -15.1785   14.2246 N   0  0  0  0  0  0  0  0  0  0  0  0
    7.2069  -13.9158   13.9496 C   0  0  0  0  0  0  0  0  0  0  0  0
    7.3533  -13.1964   15.0937 N   0  0  0  0  0  0  0  0  0  0  0  0
    8.8968  -14.5163   19.5921 C   0  0  0  0  0  0  0  0  0  0  0  0
    9.9305  -13.8452   19.8130 O   0  0  0  0  0  0  0  0  0  0  0  0
    6.7481  -15.8564   23.1048 O   0  0  0  0  0  0  0  0  0  0  0  0
    7.5198  -14.7333   23.0806 C   0  0  0  0  0  0  0  0  0  0  0  0
    8.6233  -14.7404   22.0383 C   0  0  2  0  0  0  0  0  0  0  0  0
    8.1021  -14.8802   20.7060 N   0  0  0  0  0  0  0  0  0  0  0  0
    9.6189  -15.7901   22.3745 C   0  0  0  0  0  0  0  0  0  0  0  0
    9.5740  -16.9352   21.8041 O   0  0  0  0  0  0  0  0  0  0  0  0
   10.6686  -15.6359   23.3148 N   0  0  0  0  0  0  0  0  0  0  0  0
   11.5815  -16.7029   23.6793 C   0  0  1  0  0  0  0  0  0  0  0  0
   12.9910  -16.1942   23.4291 C   0  0  0  0  0  0  0  0  0  0  0  0
   13.9678  -17.2302   23.8919 C   0  0  0  0  0  0  0  0  0  0  0  0
   15.3386  -16.7759   23.6211 C   0  0  0  0  0  0  0  0  0  0  0  0
   15.5445  -15.6354   23.1604 O   0  0  0  0  0  0  0  0  0  0  0  0
   11.4478  -16.9327   25.1351 C   0  0  0  0  0  0  0  0  0  0  0  0
   11.9436  -18.0611   25.7752 O   0  0  0  0  0  0  0  0  0  0  0  0
   16.4021  -17.6195   23.8794 O   0  0  0  0  0  0  0  0  0  0  0  0
   10.8643  -16.0880   25.8554 O   0  0  0  0  0  0  0  0  0  0  0  0
  2  9  1  0
  2  1  1  1
  3  2  1  0
  4  3  1  0
  5  4  2  0
  6  7  1  0
  6  5  1  0
  7  8  2  0
  8  4  1  0
  9 14  1  0
 10  9  2  0
 12 11  1  0
 13 12  1  1
 14 13  1  0
 15 16  2  0
 15 13  1  0
 17 15  1  0
 18 19  1  1
 18 17  1  0
 19 20  1  0
 20 21  1  0
 21 22  2  0
 23 18  1  0
 24 23  1  0
 25 21  1  0
 26 23  2  0
M  END
$$$$
