HSE.pdb
     RDKit          3D

 26 26  0  0  1  0  0  0  0  0999 V2000
    8.7161  -17.6002   19.0814 N   0  0  0  0  0  0  0  0  0  0  0  0
    9.7817  -18.4968   19.4784 C   0  0  1  0  0  0  0  0  0  0  0  0
   10.9432  -18.4387   18.4937 C   0  0  0  0  0  0  0  0  0  0  0  0
   10.4832  -19.0568   17.2289 C   0  0  0  0  0  0  0  0  0  0  0  0
    9.6903  -18.4580   16.2914 C   0  0  0  0  0  0  0  0  0  0  0  0
    9.4861  -19.3361   15.2803 N   0  0  0  0  0  0  0  0  0  0  0  0
   10.1384  -20.4719   15.5722 C   0  0  0  0  0  0  0  0  0  0  0  0
   10.7484  -20.2893   16.7732 N   0  0  0  0  0  0  0  0  0  0  0  0
   10.2975  -18.0277   20.7982 C   0  0  0  0  0  0  0  0  0  0  0  0
   10.6468  -16.8333   20.9370 O   0  0  0  0  0  0  0  0  0  0  0  0
    9.9960  -20.1895   24.4764 O   0  0  0  0  0  0  0  0  0  0  0  0
   10.0927  -18.8359   24.3513 C   0  0  0  0  0  0  0  0  0  0  0  0
   10.9166  -18.3623   23.1675 C   0  0  2  0  0  0  0  0  0  0  0  0
   10.4148  -18.8790   21.9235 N   0  0  0  0  0  0  0  0  0  0  0  0
   12.3462  -18.6985   23.3897 C   0  0  0  0  0  0  0  0  0  0  0  0
   13.0486  -19.2064   22.4478 O   0  0  0  0  0  0  0  0  0  0  0  0
   13.0425  -18.4991   24.6083 N   0  0  0  0  0  0  0  0  0  0  0  0
   14.4829  -18.6170   24.7372 C   0  0  1  0  0  0  0  0  0  0  0  0
   15.1025  -17.5415   23.8611 C   0  0  0  0  0  0  0  0  0  0  0  0
   16.5732  -17.4832   24.1350 C   0  0  0  0  0  0  0  0  0  0  0  0
   17.1789  -16.3896   23.3629 C   0  0  0  0  0  0  0  0  0  0  0  0
   17.3483  -15.2695   23.8842 O   0  0  0  0  0  0  0  0  0  0  0  0
   14.8372  -18.3018   26.1390 C   0  0  0  0  0  0  0  0  0  0  0  0
   13.9257  -17.7993   27.0588 O   0  0  0  0  0  0  0  0  0  0  0  0
   17.5613  -16.6076   22.0530 O   0  0  0  0  0  0  0  0  0  0  0  0
   16.0078  -18.4853   26.5497 O   0  0  0  0  0  0  0  0  0  0  0  0
  2  9  1  0
  2  1  1  6
  3  2  1  0
  4  3  1  0
  5  4  2  0
  6  7  1  0
  6  5  1  0
  7  8  2  0
  8  4  1  0
  9 14  1  0
 10  9  2  0
 12 11  1  0
 13 12  1  1
 14 13  1  0
 15 16  2  0
 15 13  1  0
 17 15  1  0
 18 19  1  6
 18 17  1  0
 19 20  1  0
 20 21  1  0
 21 22  2  0
 23 18  1  0
 24 23  1  0
 25 21  1  0
 26 23  2  0
M  END
$$$$
