HSE.pdb
     RDKit          3D

 26 26  0  0  1  0  0  0  0  0999 V2000
   13.0269  -22.4139   25.7373 N   0  0  0  0  0  0  0  0  0  0  0  0
   13.9135  -22.4893   26.8799 C   0  0  1  0  0  0  0  0  0  0  0  0
   14.9107  -21.3371   26.8777 C   0  0  0  0  0  0  0  0  0  0  0  0
   15.8694  -21.5830   25.7759 C   0  0  0  0  0  0  0  0  0  0  0  0
   16.5030  -22.7658   25.5199 C   0  0  0  0  0  0  0  0  0  0  0  0
   17.2979  -22.5990   24.4357 N   0  0  0  0  0  0  0  0  0  0  0  0
   17.1701  -21.3322   24.0120 C   0  0  0  0  0  0  0  0  0  0  0  0
   16.2889  -20.7159   24.8436 N   0  0  0  0  0  0  0  0  0  0  0  0
   13.0781  -22.3483   28.1088 C   0  0  0  0  0  0  0  0  0  0  0  0
   12.2353  -21.4252   28.1816 O   0  0  0  0  0  0  0  0  0  0  0  0
   12.1497  -25.5627   30.4334 O   0  0  0  0  0  0  0  0  0  0  0  0
   11.4229  -24.4098   30.4269 C   0  0  0  0  0  0  0  0  0  0  0  0
   12.2438  -23.1396   30.2967 C   0  0  2  0  0  0  0  0  0  0  0  0
   13.1907  -23.2208   29.2183 N   0  0  0  0  0  0  0  0  0  0  0  0
   12.8871  -22.8270   31.5984 C   0  0  0  0  0  0  0  0  0  0  0  0
   12.1770  -22.6505   32.6488 O   0  0  0  0  0  0  0  0  0  0  0  0
   14.2848  -22.7001   31.7985 N   0  0  0  0  0  0  0  0  0  0  0  0
   14.8794  -22.2624   33.0475 C   0  0  1  0  0  0  0  0  0  0  0  0
   16.3837  -22.4265   32.9115 C   0  0  0  0  0  0  0  0  0  0  0  0
   16.8669  -21.5477   31.7999 C   0  0  0  0  0  0  0  0  0  0  0  0
   18.1920  -21.9977   31.3518 C   0  0  0  0  0  0  0  0  0  0  0  0
   18.6833  -23.0527   31.7998 O   0  0  0  0  0  0  0  0  0  0  0  0
   14.6053  -20.8156   33.1944 C   0  0  0  0  0  0  0  0  0  0  0  0
   13.9604  -20.0616   32.2225 O   0  0  0  0  0  0  0  0  0  0  0  0
   18.8938  -21.2453   30.4294 O   0  0  0  0  0  0  0  0  0  0  0  0
   14.9588  -20.2097   34.2339 O   0  0  0  0  0  0  0  0  0  0  0  0
  2  9  1  0
  2  1  1  6
  3  2  1  0
  4  3  1  0
  5  4  2  0
  6  7  1  0
  6  5  1  0
  7  8  2  0
  8  4  1  0
  9 14  1  0
 10  9  2  0
 12 11  1  0
 13 12  1  1
 14 13  1  0
 15 16  2  0
 15 13  1  0
 17 15  1  0
 18 19  1  6
 18 17  1  0
 19 20  1  0
 20 21  1  0
 21 22  2  0
 23 18  1  0
 24 23  1  0
 25 21  1  0
 26 23  2  0
M  END
$$$$
