HSE.pdb
     RDKit          3D

 26 26  0  0  1  0  0  0  0  0999 V2000
   13.7196  -14.9097   15.3045 N   0  0  0  0  0  0  0  0  0  0  0  0
   12.3709  -15.3374   15.6136 C   0  0  1  0  0  0  0  0  0  0  0  0
   12.2326  -16.8497   15.4881 C   0  0  0  0  0  0  0  0  0  0  0  0
   12.3014  -17.1829   14.0467 C   0  0  0  0  0  0  0  0  0  0  0  0
   11.3706  -16.8455   13.1054 C   0  0  0  0  0  0  0  0  0  0  0  0
   11.7817  -17.3244   11.9068 N   0  0  0  0  0  0  0  0  0  0  0  0
   12.9529  -17.9544   12.0855 C   0  0  0  0  0  0  0  0  0  0  0  0
   13.2635  -17.8614   13.4057 N   0  0  0  0  0  0  0  0  0  0  0  0
   12.1020  -14.9859   17.0391 C   0  0  0  0  0  0  0  0  0  0  0  0
   13.0154  -15.1011   17.8878 O   0  0  0  0  0  0  0  0  0  0  0  0
    8.2335  -14.1686   18.8516 O   0  0  0  0  0  0  0  0  0  0  0  0
    9.3517  -13.4299   19.0991 C   0  0  0  0  0  0  0  0  0  0  0  0
   10.6623  -14.1613   18.8711 C   0  0  2  0  0  0  0  0  0  0  0  0
   10.8437  -14.5197   17.4910 N   0  0  0  0  0  0  0  0  0  0  0  0
   10.7431  -15.3331   19.7802 C   0  0  0  0  0  0  0  0  0  0  0  0
   10.9145  -16.5108   19.3090 O   0  0  0  0  0  0  0  0  0  0  0  0
   10.6442  -15.2673   21.1929 N   0  0  0  0  0  0  0  0  0  0  0  0
   11.4403  -16.0825   22.0910 C   0  0  1  0  0  0  0  0  0  0  0  0
   12.8830  -15.6267   21.9528 C   0  0  0  0  0  0  0  0  0  0  0  0
   13.7337  -16.4241   22.8919 C   0  0  0  0  0  0  0  0  0  0  0  0
   15.1409  -16.0275   22.7451 C   0  0  0  0  0  0  0  0  0  0  0  0
   15.9743  -16.8266   22.2739 O   0  0  0  0  0  0  0  0  0  0  0  0
   11.0125  -15.7780   23.4746 C   0  0  0  0  0  0  0  0  0  0  0  0
   11.1478  -16.6745   24.5267 O   0  0  0  0  0  0  0  0  0  0  0  0
   15.5386  -14.7620   23.1322 O   0  0  0  0  0  0  0  0  0  0  0  0
   10.4991  -14.6663   23.7451 O   0  0  0  0  0  0  0  0  0  0  0  0
  2  9  1  0
  2  1  1  1
  3  2  1  0
  4  3  1  0
  5  4  2  0
  6  7  1  0
  6  5  1  0
  7  8  2  0
  8  4  1  0
  9 14  1  0
 10  9  2  0
 12 11  1  0
 13 12  1  6
 14 13  1  0
 15 16  2  0
 15 13  1  0
 17 15  1  0
 18 19  1  1
 18 17  1  0
 19 20  1  0
 20 21  1  0
 21 22  2  0
 23 18  1  0
 24 23  1  0
 25 21  1  0
 26 23  2  0
M  END
$$$$
