HSE.pdb
     RDKit          3D

 26 26  0  0  1  0  0  0  0  0999 V2000
   14.7819  -14.5001   14.6921 N   0  0  0  0  0  0  0  0  0  0  0  0
   13.8645  -15.3774   15.3894 C   0  0  1  0  0  0  0  0  0  0  0  0
   14.3617  -16.8178   15.3710 C   0  0  0  0  0  0  0  0  0  0  0  0
   14.0227  -17.3866   14.0462 C   0  0  0  0  0  0  0  0  0  0  0  0
   14.9138  -17.6803   13.0533 C   0  0  0  0  0  0  0  0  0  0  0  0
   14.2281  -18.1811   11.9979 N   0  0  0  0  0  0  0  0  0  0  0  0
   12.9248  -18.2044   12.3165 C   0  0  0  0  0  0  0  0  0  0  0  0
   12.8095  -17.7134   13.5789 N   0  0  0  0  0  0  0  0  0  0  0  0
   13.8221  -14.9429   16.8167 C   0  0  0  0  0  0  0  0  0  0  0  0
   14.8710  -14.5478   17.3748 O   0  0  0  0  0  0  0  0  0  0  0  0
   10.3186  -14.9864   19.3823 O   0  0  0  0  0  0  0  0  0  0  0  0
   11.2805  -14.0211   19.4032 C   0  0  0  0  0  0  0  0  0  0  0  0
   12.6531  -14.4789   18.9445 C   0  0  2  0  0  0  0  0  0  0  0  0
   12.6347  -14.9541   17.5880 N   0  0  0  0  0  0  0  0  0  0  0  0
   13.1847  -15.4885   19.8954 C   0  0  0  0  0  0  0  0  0  0  0  0
   12.9466  -16.7341   19.7215 O   0  0  0  0  0  0  0  0  0  0  0  0
   13.9720  -15.1880   21.0355 N   0  0  0  0  0  0  0  0  0  0  0  0
   14.4354  -16.1903   21.9765 C   0  0  1  0  0  0  0  0  0  0  0  0
   15.9442  -16.0458   22.0810 C   0  0  0  0  0  0  0  0  0  0  0  0
   16.3099  -14.6137   21.8434 C   0  0  0  0  0  0  0  0  0  0  0  0
   17.7689  -14.4553   21.9169 C   0  0  0  0  0  0  0  0  0  0  0  0
   18.4903  -15.4153   22.2533 O   0  0  0  0  0  0  0  0  0  0  0  0
   13.8681  -15.8598   23.3028 C   0  0  0  0  0  0  0  0  0  0  0  0
   14.0734  -16.6402   24.4332 O   0  0  0  0  0  0  0  0  0  0  0  0
   18.3405  -13.2350   21.6109 O   0  0  0  0  0  0  0  0  0  0  0  0
   13.1632  -14.8329   23.4484 O   0  0  0  0  0  0  0  0  0  0  0  0
  2  9  1  0
  2  1  1  6
  3  2  1  0
  4  3  1  0
  5  4  2  0
  6  7  1  0
  6  5  1  0
  7  8  2  0
  8  4  1  0
  9 14  1  0
 10  9  2  0
 12 11  1  0
 13 12  1  1
 14 13  1  0
 15 16  2  0
 15 13  1  0
 17 15  1  0
 18 19  1  1
 18 17  1  0
 19 20  1  0
 20 21  1  0
 21 22  2  0
 23 18  1  0
 24 23  1  0
 25 21  1  0
 26 23  2  0
M  END
$$$$
