LMD.pdb
     RDKit          3D

 25 24  0  0  1  0  0  0  0  0999 V2000
    8.4752  -14.3815   18.2952 C   0  0  0  0  0  0  0  0  0  0  0  0
    7.4850  -13.6604   19.1850 C   0  0  2  0  0  0  0  0  0  0  0  0
    7.1405  -12.3295   18.5618 C   0  0  0  0  0  0  0  0  0  0  0  0
    8.0579  -13.4835   20.5940 C   0  0  0  0  0  0  0  0  0  0  0  0
    8.3434  -14.8820   21.0991 C   0  0  2  0  0  0  0  0  0  0  0  0
    7.0985  -15.6230   21.0472 N   0  0  0  0  0  0  0  0  0  0  0  0
    8.8741  -14.9057   22.4708 C   0  0  0  0  0  0  0  0  0  0  0  0
   10.0677  -14.5685   22.6667 O   0  0  0  0  0  0  0  0  0  0  0  0
    7.3787  -11.9277   27.9361 C   0  0  0  0  0  0  0  0  0  0  0  0
    6.1895  -12.5081   26.7027 S   0  0  0  0  0  0  0  0  0  0  0  0
    7.0300  -13.3652   25.3358 C   0  0  0  0  0  0  0  0  0  0  0  0
    7.6803  -14.5845   25.8959 C   0  0  0  0  0  0  0  0  0  0  0  0
    8.6246  -15.2696   24.9572 C   0  0  2  0  0  0  0  0  0  0  0  0
    8.1267  -15.2881   23.6147 N   0  0  0  0  0  0  0  0  0  0  0  0
    9.0458  -16.6088   25.4368 C   0  0  0  0  0  0  0  0  0  0  0  0
    8.3067  -17.6255   25.4034 O   0  0  0  0  0  0  0  0  0  0  0  0
   10.3498  -16.7822   25.9677 N   0  0  0  0  0  0  0  0  0  0  0  0
   10.9120  -18.0082   26.4473 C   0  0  1  0  0  0  0  0  0  0  0  0
   12.3748  -18.0427   26.1047 C   0  0  0  0  0  0  0  0  0  0  0  0
   12.5601  -17.9002   24.6619 C   0  0  0  0  0  0  0  0  0  0  0  0
   11.9367  -18.5252   23.7958 O   0  0  0  0  0  0  0  0  0  0  0  0
   10.6642  -18.2360   27.8828 C   0  0  0  0  0  0  0  0  0  0  0  0
   10.1009  -17.3604   28.5615 O   0  0  0  0  0  0  0  0  0  0  0  0
   13.5191  -16.9847   24.1872 O   0  0  0  0  0  0  0  0  0  0  0  0
   11.0560  -19.4149   28.4673 O   0  0  0  0  0  0  0  0  0  0  0  0
  2  1  1  6
  3  2  1  0
  4  2  1  0
  4  5  1  0
  5  6  1  1
  7  5  1  0
  7  8  2  0
 10 11  1  0
 10  9  1  0
 11 12  1  0
 13 12  1  1
 13 14  1  0
 14  7  1  0
 15 13  1  0
 16 15  2  0
 17 15  1  0
 18 22  1  0
 18 17  1  0
 18 19  1  1
 20 19  1  0
 20 21  2  0
 22 25  1  0
 23 22  2  0
 24 20  1  0
M  END
$$$$
