LMD.pdb
     RDKit          3D

 25 24  0  0  1  0  0  0  0  0999 V2000
    6.6682  -17.6038   18.6757 C   0  0  0  0  0  0  0  0  0  0  0  0
    7.9889  -18.2365   19.0598 C   0  0  2  0  0  0  0  0  0  0  0  0
    7.8697  -19.7366   18.9418 C   0  0  0  0  0  0  0  0  0  0  0  0
    8.3927  -17.8202   20.4770 C   0  0  0  0  0  0  0  0  0  0  0  0
    8.4851  -16.3092   20.4497 C   0  0  2  0  0  0  0  0  0  0  0  0
    9.5672  -15.9583   19.5511 N   0  0  0  0  0  0  0  0  0  0  0  0
    8.7339  -15.7197   21.7743 C   0  0  0  0  0  0  0  0  0  0  0  0
    9.9103  -15.6831   22.2122 O   0  0  0  0  0  0  0  0  0  0  0  0
    7.7171  -12.1594   28.1237 C   0  0  0  0  0  0  0  0  0  0  0  0
    7.6267  -12.5629   26.3626 S   0  0  0  0  0  0  0  0  0  0  0  0
    6.7236  -14.1188   26.0931 C   0  0  0  0  0  0  0  0  0  0  0  0
    6.6417  -14.3473   24.6219 C   0  0  0  0  0  0  0  0  0  0  0  0
    7.8839  -14.9214   24.0141 C   0  0  2  0  0  0  0  0  0  0  0  0
    7.7270  -15.1774   22.6141 N   0  0  0  0  0  0  0  0  0  0  0  0
    8.4049  -16.0922   24.7617 C   0  0  0  0  0  0  0  0  0  0  0  0
    7.7617  -17.1609   24.9196 O   0  0  0  0  0  0  0  0  0  0  0  0
    9.6981  -16.0313   25.3417 N   0  0  0  0  0  0  0  0  0  0  0  0
   10.3583  -17.0858   26.0497 C   0  0  1  0  0  0  0  0  0  0  0  0
   11.7924  -17.1507   25.6050 C   0  0  0  0  0  0  0  0  0  0  0  0
   11.9824  -18.2573   24.6693 C   0  0  0  0  0  0  0  0  0  0  0  0
   11.1029  -19.0491   24.3101 O   0  0  0  0  0  0  0  0  0  0  0  0
   10.2273  -16.9704   27.5138 C   0  0  0  0  0  0  0  0  0  0  0  0
   10.6796  -17.8644   28.2493 O   0  0  0  0  0  0  0  0  0  0  0  0
   13.2596  -18.4656   24.1139 O   0  0  0  0  0  0  0  0  0  0  0  0
    9.6059  -15.8757   28.0621 O   0  0  0  0  0  0  0  0  0  0  0  0
  2  1  1  1
  3  2  1  0
  4  2  1  0
  4  5  1  0
  5  6  1  6
  7  5  1  0
  7  8  2  0
 10 11  1  0
 10  9  1  0
 11 12  1  0
 13 12  1  1
 13 14  1  0
 14  7  1  0
 15 13  1  0
 16 15  2  0
 17 15  1  0
 18 22  1  0
 18 17  1  0
 18 19  1  1
 20 19  1  0
 20 21  2  0
 22 25  1  0
 23 22  2  0
 24 20  1  0
M  END
$$$$
