LMD.pdb
     RDKit          3D

 25 24  0  0  1  0  0  0  0  0999 V2000
    5.9312  -17.7915   18.8695 C   0  0  0  0  0  0  0  0  0  0  0  0
    7.3483  -18.3175   18.7839 C   0  0  2  0  0  0  0  0  0  0  0  0
    7.3096  -19.8221   18.6696 C   0  0  0  0  0  0  0  0  0  0  0  0
    8.1615  -17.8728   20.0028 C   0  0  0  0  0  0  0  0  0  0  0  0
    8.1269  -16.3592   19.9887 C   0  0  2  0  0  0  0  0  0  0  0  0
    8.9670  -15.9177   18.8928 N   0  0  0  0  0  0  0  0  0  0  0  0
    8.5989  -15.7568   21.2449 C   0  0  0  0  0  0  0  0  0  0  0  0
    9.8318  -15.7338   21.4825 O   0  0  0  0  0  0  0  0  0  0  0  0
    6.5614  -11.6202   27.7552 C   0  0  0  0  0  0  0  0  0  0  0  0
    6.1653  -12.3256   26.1371 S   0  0  0  0  0  0  0  0  0  0  0  0
    7.5298  -13.3594   25.5220 C   0  0  0  0  0  0  0  0  0  0  0  0
    7.1694  -13.8173   24.1494 C   0  0  0  0  0  0  0  0  0  0  0  0
    8.1953  -14.6932   23.4993 C   0  0  2  0  0  0  0  0  0  0  0  0
    7.7520  -15.1873   22.2307 N   0  0  0  0  0  0  0  0  0  0  0  0
    8.6918  -15.7652   24.3966 C   0  0  0  0  0  0  0  0  0  0  0  0
    7.9816  -16.7211   24.8002 O   0  0  0  0  0  0  0  0  0  0  0  0
   10.0390  -15.7364   24.8402 N   0  0  0  0  0  0  0  0  0  0  0  0
   10.7036  -16.7561   25.5937 C   0  0  1  0  0  0  0  0  0  0  0  0
   12.1600  -16.7674   25.2232 C   0  0  0  0  0  0  0  0  0  0  0  0
   12.7889  -18.0048   25.6807 C   0  0  0  0  0  0  0  0  0  0  0  0
   12.1883  -19.0426   25.9838 O   0  0  0  0  0  0  0  0  0  0  0  0
   10.4932  -16.6312   27.0478 C   0  0  0  0  0  0  0  0  0  0  0  0
   10.2732  -15.5153   27.5490 O   0  0  0  0  0  0  0  0  0  0  0  0
   14.1916  -18.0516   25.7965 O   0  0  0  0  0  0  0  0  0  0  0  0
   10.5407  -17.7476   27.8455 O   0  0  0  0  0  0  0  0  0  0  0  0
  2  1  1  1
  3  2  1  0
  4  2  1  0
  4  5  1  0
  5  6  1  6
  7  5  1  0
  7  8  2  0
 10 11  1  0
 10  9  1  0
 11 12  1  0
 13 12  1  1
 13 14  1  0
 14  7  1  0
 15 13  1  0
 16 15  2  0
 17 15  1  0
 18 22  1  0
 18 17  1  0
 18 19  1  1
 20 19  1  0
 20 21  2  0
 22 25  1  0
 23 22  2  0
 24 20  1  0
M  END
$$$$
