LMD.pdb
     RDKit          3D

 25 24  0  0  1  0  0  0  0  0999 V2000
    9.2966  -13.4449   18.4462 C   0  0  0  0  0  0  0  0  0  0  0  0
    7.7900  -13.5370   18.5634 C   0  0  2  0  0  0  0  0  0  0  0  0
    7.1718  -12.3005   17.9573 C   0  0  0  0  0  0  0  0  0  0  0  0
    7.3739  -13.7068   20.0273 C   0  0  0  0  0  0  0  0  0  0  0  0
    8.1752  -14.8813   20.5477 C   0  0  2  0  0  0  0  0  0  0  0  0
    7.3342  -16.0577   20.4456 N   0  0  0  0  0  0  0  0  0  0  0  0
    8.6164  -14.7103   21.9404 C   0  0  0  0  0  0  0  0  0  0  0  0
    9.6222  -13.9963   22.1762 O   0  0  0  0  0  0  0  0  0  0  0  0
    7.1640  -11.5498   28.0532 C   0  0  0  0  0  0  0  0  0  0  0  0
    6.3262  -12.8788   27.1563 S   0  0  0  0  0  0  0  0  0  0  0  0
    7.5077  -14.1560   26.6251 C   0  0  0  0  0  0  0  0  0  0  0  0
    7.1771  -14.5233   25.2183 C   0  0  0  0  0  0  0  0  0  0  0  0
    8.3347  -15.0487   24.4270 C   0  0  2  0  0  0  0  0  0  0  0  0
    7.9809  -15.3017   23.0628 N   0  0  0  0  0  0  0  0  0  0  0  0
    9.0011  -16.2044   25.0760 C   0  0  0  0  0  0  0  0  0  0  0  0
    8.4179  -17.2860   25.3423 O   0  0  0  0  0  0  0  0  0  0  0  0
   10.3725  -16.1130   25.4270 N   0  0  0  0  0  0  0  0  0  0  0  0
   11.1670  -17.1500   26.0124 C   0  0  1  0  0  0  0  0  0  0  0  0
   12.6196  -16.8464   25.7752 C   0  0  0  0  0  0  0  0  0  0  0  0
   12.8970  -16.7895   24.3413 C   0  0  0  0  0  0  0  0  0  0  0  0
   12.4729  -17.5891   23.4986 O   0  0  0  0  0  0  0  0  0  0  0  0
   10.8643  -17.3762   27.4376 C   0  0  0  0  0  0  0  0  0  0  0  0
   10.1217  -16.5874   28.0467 O   0  0  0  0  0  0  0  0  0  0  0  0
   13.7105  -15.7514   23.8474 O   0  0  0  0  0  0  0  0  0  0  0  0
   11.4032  -18.4578   28.0894 O   0  0  0  0  0  0  0  0  0  0  0  0
  2  1  1  1
  3  2  1  0
  4  2  1  0
  4  5  1  0
  5  6  1  1
  7  5  1  0
  7  8  2  0
 10 11  1  0
 10  9  1  0
 11 12  1  0
 13 12  1  1
 13 14  1  0
 14  7  1  0
 15 13  1  0
 16 15  2  0
 17 15  1  0
 18 22  1  0
 18 17  1  0
 18 19  1  1
 20 19  1  0
 20 21  2  0
 22 25  1  0
 23 22  2  0
 24 20  1  0
M  END
$$$$
