LMD.pdb
     RDKit          3D

 25 24  0  0  1  0  0  0  0  0999 V2000
    8.6960  -13.9770   18.1590 C   0  0  0  0  0  0  0  0  0  0  0  0
    7.5555  -13.4950   19.0303 C   0  0  2  0  0  0  0  0  0  0  0  0
    7.0032  -12.2135   18.4550 C   0  0  0  0  0  0  0  0  0  0  0  0
    8.0273  -13.2991   20.4738 C   0  0  0  0  0  0  0  0  0  0  0  0
    8.5064  -14.6588   20.9366 C   0  0  2  0  0  0  0  0  0  0  0  0
    7.4003  -15.5829   20.7813 N   0  0  0  0  0  0  0  0  0  0  0  0
    8.9629  -14.6674   22.3349 C   0  0  0  0  0  0  0  0  0  0  0  0
   10.0072  -14.0389   22.6374 O   0  0  0  0  0  0  0  0  0  0  0  0
    6.5151  -11.0533   26.9457 C   0  0  0  0  0  0  0  0  0  0  0  0
    7.0401  -12.7761   27.1152 S   0  0  0  0  0  0  0  0  0  0  0  0
    7.1531  -13.5887   25.4916 C   0  0  0  0  0  0  0  0  0  0  0  0
    7.6810  -14.9662   25.7090 C   0  0  0  0  0  0  0  0  0  0  0  0
    8.7549  -15.3765   24.7496 C   0  0  2  0  0  0  0  0  0  0  0  0
    8.3015  -15.3449   23.3918 N   0  0  0  0  0  0  0  0  0  0  0  0
    9.3959  -16.6633   25.1159 C   0  0  0  0  0  0  0  0  0  0  0  0
    8.8158  -17.7765   25.0440 O   0  0  0  0  0  0  0  0  0  0  0  0
   10.7377  -16.6690   25.5762 N   0  0  0  0  0  0  0  0  0  0  0  0
   11.4888  -17.8188   25.9801 C   0  0  1  0  0  0  0  0  0  0  0  0
   12.9535  -17.5338   25.8016 C   0  0  0  0  0  0  0  0  0  0  0  0
   13.2511  -17.2764   24.3940 C   0  0  0  0  0  0  0  0  0  0  0  0
   12.7141  -17.8424   23.4345 O   0  0  0  0  0  0  0  0  0  0  0  0
   11.1653  -18.2710   27.3457 C   0  0  0  0  0  0  0  0  0  0  0  0
   10.4581  -17.5625   28.0823 O   0  0  0  0  0  0  0  0  0  0  0  0
   14.2239  -16.3108   24.0708 O   0  0  0  0  0  0  0  0  0  0  0  0
   11.6457  -19.4738   27.8012 O   0  0  0  0  0  0  0  0  0  0  0  0
  2  1  1  6
  3  2  1  0
  4  2  1  0
  4  5  1  0
  5  6  1  1
  7  5  1  0
  7  8  2  0
 10 11  1  0
 10  9  1  0
 11 12  1  0
 13 12  1  1
 13 14  1  0
 14  7  1  0
 15 13  1  0
 16 15  2  0
 17 15  1  0
 18 22  1  0
 18 17  1  0
 18 19  1  1
 20 19  1  0
 20 21  2  0
 22 25  1  0
 23 22  2  0
 24 20  1  0
M  END
$$$$
