LMD.pdb
     RDKit          3D

 25 24  0  0  1  0  0  0  0  0999 V2000
    8.3368  -13.5558   17.6359 C   0  0  0  0  0  0  0  0  0  0  0  0
    7.8647  -14.0901   18.9715 C   0  0  2  0  0  0  0  0  0  0  0  0
    6.4930  -13.5342   19.2678 C   0  0  0  0  0  0  0  0  0  0  0  0
    8.8614  -13.7309   20.0771 C   0  0  0  0  0  0  0  0  0  0  0  0
    9.1023  -15.0137   20.8444 C   0  0  2  0  0  0  0  0  0  0  0  0
    7.9113  -15.8290   20.7086 N   0  0  0  0  0  0  0  0  0  0  0  0
    9.3872  -14.7914   22.2703 C   0  0  0  0  0  0  0  0  0  0  0  0
   10.4460  -14.1985   22.5935 O   0  0  0  0  0  0  0  0  0  0  0  0
    5.9142  -10.8880   26.8293 C   0  0  0  0  0  0  0  0  0  0  0  0
    6.3119  -12.6527   26.8415 S   0  0  0  0  0  0  0  0  0  0  0  0
    7.2925  -13.1128   25.3799 C   0  0  0  0  0  0  0  0  0  0  0  0
    7.5996  -14.5686   25.4792 C   0  0  0  0  0  0  0  0  0  0  0  0
    8.8182  -14.9975   24.7219 C   0  0  2  0  0  0  0  0  0  0  0  0
    8.5410  -15.2032   23.3323 N   0  0  0  0  0  0  0  0  0  0  0  0
    9.5134  -16.1478   25.3499 C   0  0  0  0  0  0  0  0  0  0  0  0
    9.7285  -16.2426   26.5851 O   0  0  0  0  0  0  0  0  0  0  0  0
    9.9722  -17.2154   24.5362 N   0  0  0  0  0  0  0  0  0  0  0  0
   10.7222  -18.3526   24.9761 C   0  0  1  0  0  0  0  0  0  0  0  0
   10.3983  -19.5240   24.0921 C   0  0  0  0  0  0  0  0  0  0  0  0
    9.3177  -20.3156   24.6768 C   0  0  0  0  0  0  0  0  0  0  0  0
    8.7476  -20.0679   25.7459 O   0  0  0  0  0  0  0  0  0  0  0  0
   12.1713  -18.0933   25.0591 C   0  0  0  0  0  0  0  0  0  0  0  0
   12.9026  -18.8609   25.7077 O   0  0  0  0  0  0  0  0  0  0  0  0
    8.8660  -21.4597   23.9912 O   0  0  0  0  0  0  0  0  0  0  0  0
   12.7104  -17.0043   24.4198 O   0  0  0  0  0  0  0  0  0  0  0  0
  2  1  1  6
  3  2  1  0
  4  2  1  0
  4  5  1  0
  5  6  1  1
  7  5  1  0
  7  8  2  0
 10 11  1  0
 10  9  1  0
 11 12  1  0
 13 12  1  1
 13 14  1  0
 14  7  1  0
 15 13  1  0
 16 15  2  0
 17 15  1  0
 18 22  1  0
 18 17  1  0
 18 19  1  6
 20 19  1  0
 20 21  2  0
 22 25  1  0
 23 22  2  0
 24 20  1  0
M  END
$$$$
