TIN.pdb
     RDKit          3D

 24 23  0  0  1  0  0  0  0  0999 V2000
   19.7417  -23.5128  -14.6956 C   0  0  0  0  0  0  0  0  0  0  0  0
   20.6557  -22.3002  -14.8083 C   0  0  1  0  0  0  0  0  0  0  0  0
   19.9174  -21.2783  -15.3732 O   0  0  0  0  0  0  0  0  0  0  0  0
   21.1308  -21.9677  -13.4154 C   0  0  2  0  0  0  0  0  0  0  0  0
   19.9892  -21.6624  -12.5997 N   0  0  0  0  0  0  0  0  0  0  0  0
   22.1165  -20.8517  -13.4196 C   0  0  0  0  0  0  0  0  0  0  0  0
   21.7582  -19.6977  -13.1105 O   0  0  0  0  0  0  0  0  0  0  0  0
   26.1701  -22.2527  -11.3224 C   0  0  0  0  0  0  0  0  0  0  0  0
   25.7441  -20.8910  -11.7548 C   0  0  0  0  0  0  0  0  0  0  0  0
   25.7835  -20.6846  -13.2595 C   0  0  2  0  0  0  0  0  0  0  0  0
   26.9448  -19.7534  -13.5048 C   0  0  0  0  0  0  0  0  0  0  0  0
   24.5115  -20.0632  -13.7708 C   0  0  2  0  0  0  0  0  0  0  0  0
   23.4553  -21.1193  -13.7775 N   0  0  0  0  0  0  0  0  0  0  0  0
   24.7183  -19.6395  -15.1727 C   0  0  0  0  0  0  0  0  0  0  0  0
   24.8166  -20.5415  -16.0863 O   0  0  0  0  0  0  0  0  0  0  0  0
   25.0936  -17.2500  -19.8063 N   0  0  0  0  0  0  0  0  0  0  0  0
   24.3668  -16.4051  -18.9074 C   0  0  0  0  0  0  0  0  0  0  0  0
   23.8162  -15.3417  -19.2949 O   0  0  0  0  0  0  0  0  0  0  0  0
   24.2238  -16.7485  -17.4645 C   0  0  0  0  0  0  0  0  0  0  0  0
   24.8904  -18.0469  -17.1014 C   0  0  2  0  0  0  0  0  0  0  0  0
   24.8241  -18.3226  -15.6647 N   0  0  0  0  0  0  0  0  0  0  0  0
   26.3113  -17.9216  -17.4643 C   0  0  0  0  0  0  0  0  0  0  0  0
   27.1497  -17.4392  -16.6915 O   0  0  0  0  0  0  0  0  0  0  0  0
   26.7319  -18.3572  -18.7139 O   0  0  0  0  0  0  0  0  0  0  0  0
  2  3  1  0
  2  1  1  1
  4  2  1  0
  4  5  1  1
  6  7  2  0
  6  4  1  0
  9  8  1  0
  9 10  1  0
 10 11  1  1
 12 10  1  0
 12 13  1  6
 13  6  1  0
 14 12  1  0
 15 14  2  0
 17 16  1  0
 18 17  2  0
 20 19  1  1
 19 17  1  0
 20 21  1  0
 21 14  1  0
 22 24  1  0
 22 20  1  0
 23 22  2  0
M  END
$$$$
