TIN.pdb
     RDKit          3D

 24 23  0  0  1  0  0  0  0  0999 V2000
   21.3948  -11.1373  -21.5916 C   0  0  0  0  0  0  0  0  0  0  0  0
   21.3239  -10.5691  -20.1807 C   0  0  1  0  0  0  0  0  0  0  0  0
   19.9879  -10.4602  -19.8466 O   0  0  0  0  0  0  0  0  0  0  0  0
   22.0694  -11.5206  -19.2777 C   0  0  2  0  0  0  0  0  0  0  0  0
   21.4939  -12.8293  -19.4116 N   0  0  0  0  0  0  0  0  0  0  0  0
   22.0609  -11.0595  -17.8619 C   0  0  0  0  0  0  0  0  0  0  0  0
   21.1603  -11.4361  -17.0854 O   0  0  0  0  0  0  0  0  0  0  0  0
   26.9638  -10.1394  -15.7782 C   0  0  0  0  0  0  0  0  0  0  0  0
   25.6324   -9.7480  -16.3231 C   0  0  0  0  0  0  0  0  0  0  0  0
   24.4665  -10.1276  -15.4260 C   0  0  2  0  0  0  0  0  0  0  0  0
   24.5127  -11.6321  -15.3256 C   0  0  0  0  0  0  0  0  0  0  0  0
   23.1489   -9.6932  -16.0098 C   0  0  2  0  0  0  0  0  0  0  0  0
   23.0823  -10.1940  -17.4154 N   0  0  0  0  0  0  0  0  0  0  0  0
   23.1174   -8.2156  -16.0677 C   0  0  0  0  0  0  0  0  0  0  0  0
   23.4498   -7.6296  -17.1649 O   0  0  0  0  0  0  0  0  0  0  0  0
   22.3366   -3.3313  -17.3921 N   0  0  0  0  0  0  0  0  0  0  0  0
   21.4707   -4.0794  -16.5315 C   0  0  0  0  0  0  0  0  0  0  0  0
   20.5249   -3.5343  -15.9050 O   0  0  0  0  0  0  0  0  0  0  0  0
   21.6465   -5.5464  -16.3391 C   0  0  0  0  0  0  0  0  0  0  0  0
   22.6558   -5.8821  -15.2757 C   0  0  2  0  0  0  0  0  0  0  0  0
   22.7538   -7.3238  -15.0381 N   0  0  0  0  0  0  0  0  0  0  0  0
   22.1937   -5.2566  -14.0261 C   0  0  0  0  0  0  0  0  0  0  0  0
   21.5954   -5.8953  -13.1503 O   0  0  0  0  0  0  0  0  0  0  0  0
   22.4339   -3.9051  -13.8163 O   0  0  0  0  0  0  0  0  0  0  0  0
  2  3  1  0
  2  1  1  6
  4  2  1  0
  4  5  1  1
  6  7  2  0
  6  4  1  0
  9  8  1  0
  9 10  1  0
 10 11  1  6
 12 10  1  0
 12 13  1  6
 13  6  1  0
 14 12  1  0
 15 14  2  0
 17 16  1  0
 18 17  2  0
 20 19  1  6
 19 17  1  0
 20 21  1  0
 21 14  1  0
 22 24  1  0
 22 20  1  0
 23 22  2  0
M  END
$$$$
