TIN.pdb
     RDKit          3D

 24 23  0  0  1  0  0  0  0  0999 V2000
   25.4821  -13.4695  -17.3745 C   0  0  0  0  0  0  0  0  0  0  0  0
   24.1889  -12.7269  -17.6824 C   0  0  1  0  0  0  0  0  0  0  0  0
   23.1478  -13.6141  -17.4888 O   0  0  0  0  0  0  0  0  0  0  0  0
   24.1201  -11.5433  -16.7492 C   0  0  2  0  0  0  0  0  0  0  0  0
   24.1838  -12.0192  -15.3959 N   0  0  0  0  0  0  0  0  0  0  0  0
   22.8999  -10.7234  -16.9858 C   0  0  0  0  0  0  0  0  0  0  0  0
   22.7764  -10.0740  -18.0435 O   0  0  0  0  0  0  0  0  0  0  0  0
   18.6439  -13.0113  -16.0800 C   0  0  0  0  0  0  0  0  0  0  0  0
   19.0066  -11.6856  -16.6577 C   0  0  0  0  0  0  0  0  0  0  0  0
   19.4952  -10.6806  -15.6285 C   0  0  2  0  0  0  0  0  0  0  0  0
   18.3164   -9.7785  -15.3597 C   0  0  0  0  0  0  0  0  0  0  0  0
   20.6531   -9.8702  -16.1461 C   0  0  2  0  0  0  0  0  0  0  0  0
   21.8912  -10.6928  -15.9992 N   0  0  0  0  0  0  0  0  0  0  0  0
   20.8167   -8.6736  -15.2923 C   0  0  0  0  0  0  0  0  0  0  0  0
   21.5965   -8.7417  -14.2700 O   0  0  0  0  0  0  0  0  0  0  0  0
   21.6460   -3.8902  -13.4804 N   0  0  0  0  0  0  0  0  0  0  0  0
   22.5527   -4.6787  -14.2591 C   0  0  0  0  0  0  0  0  0  0  0  0
   23.7644   -4.3632  -14.3880 O   0  0  0  0  0  0  0  0  0  0  0  0
   22.1037   -5.9180  -14.9537 C   0  0  0  0  0  0  0  0  0  0  0  0
   20.6577   -6.2432  -14.6976 C   0  0  2  0  0  0  0  0  0  0  0  0
   20.2085   -7.4123  -15.4564 N   0  0  0  0  0  0  0  0  0  0  0  0
   19.8662   -5.0883  -15.1516 C   0  0  0  0  0  0  0  0  0  0  0  0
   19.7226   -4.0730  -14.4578 O   0  0  0  0  0  0  0  0  0  0  0  0
   19.2577   -5.1328  -16.3990 O   0  0  0  0  0  0  0  0  0  0  0  0
  2  3  1  0
  2  1  1  1
  4  2  1  0
  4  5  1  1
  6  7  2  0
  6  4  1  0
  9  8  1  0
  9 10  1  0
 10 11  1  6
 12 10  1  0
 12 13  1  1
 13  6  1  0
 14 12  1  0
 15 14  2  0
 17 16  1  0
 18 17  2  0
 20 19  1  6
 19 17  1  0
 20 21  1  0
 21 14  1  0
 22 24  1  0
 22 20  1  0
 23 22  2  0
M  END
$$$$
