QKR.pdb
     RDKit          3D

 30 29  0  0  1  0  0  0  0  0999 V2000
   29.1988  -22.6330  -17.6643 N   0  0  0  0  0  0  0  0  0  0  0  0
   28.5940  -21.8339  -16.6231 C   0  0  0  0  0  0  0  0  0  0  0  0
   28.3179  -22.4311  -15.5644 O   0  0  0  0  0  0  0  0  0  0  0  0
   28.3286  -20.4069  -16.8156 C   0  0  0  0  0  0  0  0  0  0  0  0
   27.0039  -19.9593  -16.3338 C   0  0  0  0  0  0  0  0  0  0  0  0
   25.8465  -20.8165  -16.7438 C   0  0  2  0  0  0  0  0  0  0  0  0
   25.8109  -20.8587  -18.1928 N   0  0  0  0  0  0  0  0  0  0  0  0
   24.5858  -20.2689  -16.1792 C   0  0  0  0  0  0  0  0  0  0  0  0
   24.6801  -19.6895  -15.0588 O   0  0  0  0  0  0  0  0  0  0  0  0
   23.3261  -20.3431  -16.7795 N   0  0  0  0  0  0  0  0  0  0  0  0
   22.1142  -19.8274  -16.1681 C   0  0  1  0  0  0  0  0  0  0  0  0
   21.0685  -19.5150  -17.2089 C   0  0  0  0  0  0  0  0  0  0  0  0
   19.8328  -18.8899  -16.6513 C   0  0  0  0  0  0  0  0  0  0  0  0
   18.8703  -18.6594  -17.7978 C   0  0  0  0  0  0  0  0  0  0  0  0
   17.6061  -17.9846  -17.3508 C   0  0  0  0  0  0  0  0  0  0  0  0
   16.7466  -17.6790  -18.4712 N   0  0  0  0  0  0  0  0  0  0  0  0
   21.6085  -20.6923  -15.0957 C   0  0  0  0  0  0  0  0  0  0  0  0
   21.2521  -21.8718  -15.3345 O   0  0  0  0  0  0  0  0  0  0  0  0
   25.1409  -21.0505   -8.6131 N   0  0  0  0  0  0  0  0  0  0  0  0
   25.8600  -20.8406   -9.8104 C   0  0  0  0  0  0  0  0  0  0  0  0
   27.0560  -21.3369  -10.0093 N   0  0  0  0  0  0  0  0  0  0  0  0
   25.3245  -20.0711  -10.8783 N   0  0  0  0  0  0  0  0  0  0  0  0
   23.9654  -19.6197  -10.9254 C   0  0  0  0  0  0  0  0  0  0  0  0
   23.0537  -20.8324  -11.1047 C   0  0  0  0  0  0  0  0  0  0  0  0
   21.6328  -20.4355  -11.3590 C   0  0  0  0  0  0  0  0  0  0  0  0
   21.1277  -21.0241  -12.6300 C   0  0  2  0  0  0  0  0  0  0  0  0
   21.5234  -20.1843  -13.7745 N   0  0  0  0  0  0  0  0  0  0  0  0
   19.6588  -21.0359  -12.6457 C   0  0  0  0  0  0  0  0  0  0  0  0
   19.0161  -20.2304  -13.3388 O   0  0  0  0  0  0  0  0  0  0  0  0
   18.9409  -21.9407  -11.8924 O   0  0  0  0  0  0  0  0  0  0  0  0
  1  2  1  0
  2  3  2  0
  4  5  1  0
  4  2  1  0
  6  7  1  6
  6  5  1  0
  8  6  1  0
  8 10  1  0
  9  8  2  0
 11 10  1  0
 11 12  1  6
 13 12  1  0
 13 14  1  0
 14 15  1  0
 15 16  1  0
 17 11  1  0
 18 17  2  0
 19 20  1  0
 20 21  2  0
 22 23  1  0
 22 20  1  0
 23 24  1  0
 25 24  1  0
 26 25  1  1
 26 27  1  0
 27 17  1  0
 28 26  1  0
 29 28  2  0
 30 28  1  0
M  END
$$$$
