QKR.pdb
     RDKit          3D

 30 29  0  0  1  0  0  0  0  0999 V2000
   29.8117  -19.4363  -18.8328 N   0  0  0  0  0  0  0  0  0  0  0  0
   28.8857  -18.4824  -19.3994 C   0  0  0  0  0  0  0  0  0  0  0  0
   29.3098  -17.8110  -20.3601 O   0  0  0  0  0  0  0  0  0  0  0  0
   27.5313  -18.3265  -18.8654 C   0  0  0  0  0  0  0  0  0  0  0  0
   27.2616  -19.1096  -17.6400 C   0  0  0  0  0  0  0  0  0  0  0  0
   25.9994  -19.9153  -17.6558 C   0  0  2  0  0  0  0  0  0  0  0  0
   25.4204  -19.8156  -18.9814 N   0  0  0  0  0  0  0  0  0  0  0  0
   25.0678  -19.4175  -16.6107 C   0  0  0  0  0  0  0  0  0  0  0  0
   25.4661  -19.5148  -15.4141 O   0  0  0  0  0  0  0  0  0  0  0  0
   23.8078  -18.8598  -16.8432 N   0  0  0  0  0  0  0  0  0  0  0  0
   22.8995  -18.4596  -15.7834 C   0  0  1  0  0  0  0  0  0  0  0  0
   22.3042  -17.1017  -16.0591 C   0  0  0  0  0  0  0  0  0  0  0  0
   23.1930  -15.9658  -15.6738 C   0  0  0  0  0  0  0  0  0  0  0  0
   23.4631  -15.1441  -16.9172 C   0  0  0  0  0  0  0  0  0  0  0  0
   24.4194  -14.0168  -16.6561 C   0  0  0  0  0  0  0  0  0  0  0  0
   24.5532  -13.1602  -17.8118 N   0  0  0  0  0  0  0  0  0  0  0  0
   21.8829  -19.4779  -15.4940 C   0  0  0  0  0  0  0  0  0  0  0  0
   21.3942  -20.1786  -16.4133 O   0  0  0  0  0  0  0  0  0  0  0  0
   19.5302  -24.5873   -8.6968 N   0  0  0  0  0  0  0  0  0  0  0  0
   18.4668  -24.4825   -9.6204 C   0  0  0  0  0  0  0  0  0  0  0  0
   17.4845  -25.3482   -9.6638 N   0  0  0  0  0  0  0  0  0  0  0  0
   18.3999  -23.4235  -10.5655 N   0  0  0  0  0  0  0  0  0  0  0  0
   19.4887  -22.5316  -10.8340 C   0  0  0  0  0  0  0  0  0  0  0  0
   19.0700  -21.5700  -11.9449 C   0  0  0  0  0  0  0  0  0  0  0  0
   20.1759  -20.6362  -12.3272 C   0  0  0  0  0  0  0  0  0  0  0  0
   20.3659  -20.6011  -13.8036 C   0  0  2  0  0  0  0  0  0  0  0  0
   21.4509  -19.6686  -14.1569 N   0  0  0  0  0  0  0  0  0  0  0  0
   19.1665  -20.0713  -14.4660 C   0  0  0  0  0  0  0  0  0  0  0  0
   18.9384  -18.8511  -14.5043 O   0  0  0  0  0  0  0  0  0  0  0  0
   18.2514  -20.9084  -15.0689 O   0  0  0  0  0  0  0  0  0  0  0  0
  1  2  1  0
  2  3  2  0
  4  5  1  0
  4  2  1  0
  6  7  1  6
  6  5  1  0
  8  6  1  0
  8 10  1  0
  9  8  2  0
 11 10  1  0
 11 12  1  6
 13 12  1  0
 13 14  1  0
 14 15  1  0
 15 16  1  0
 17 11  1  0
 18 17  2  0
 19 20  1  0
 20 21  2  0
 22 23  1  0
 22 20  1  0
 23 24  1  0
 25 24  1  0
 26 25  1  1
 26 27  1  0
 27 17  1  0
 28 26  1  0
 29 28  2  0
 30 28  1  0
M  END
$$$$
