QKR.pdb
     RDKit          3D

 30 29  0  0  1  0  0  0  0  0999 V2000
   24.8542  -20.6530  -20.2061 N   0  0  0  0  0  0  0  0  0  0  0  0
   24.3242  -19.8536  -21.2870 C   0  0  0  0  0  0  0  0  0  0  0  0
   25.1616  -19.3768  -22.0777 O   0  0  0  0  0  0  0  0  0  0  0  0
   22.8849  -19.6273  -21.4320 C   0  0  0  0  0  0  0  0  0  0  0  0
   22.0488  -20.3481  -20.4476 C   0  0  0  0  0  0  0  0  0  0  0  0
   21.1458  -19.4887  -19.6180 C   0  0  2  0  0  0  0  0  0  0  0  0
   21.6896  -18.1446  -19.6093 N   0  0  0  0  0  0  0  0  0  0  0  0
   21.0371  -20.0461  -18.2449 C   0  0  0  0  0  0  0  0  0  0  0  0
   20.4904  -21.1823  -18.1442 O   0  0  0  0  0  0  0  0  0  0  0  0
   21.4843  -19.4233  -17.0766 N   0  0  0  0  0  0  0  0  0  0  0  0
   21.3920  -20.0275  -15.7595 C   0  0  1  0  0  0  0  0  0  0  0  0
   22.4854  -19.5245  -14.8508 C   0  0  0  0  0  0  0  0  0  0  0  0
   22.4964  -20.1734  -13.5064 C   0  0  0  0  0  0  0  0  0  0  0  0
   23.7935  -20.9437  -13.3724 C   0  0  0  0  0  0  0  0  0  0  0  0
   23.8865  -21.6761  -12.0653 C   0  0  0  0  0  0  0  0  0  0  0  0
   25.1557  -22.3527  -11.9288 N   0  0  0  0  0  0  0  0  0  0  0  0
   20.0553  -19.8951  -15.1679 C   0  0  0  0  0  0  0  0  0  0  0  0
   19.4589  -18.7908  -15.1663 O   0  0  0  0  0  0  0  0  0  0  0  0
   18.9626  -26.2015   -9.8137 N   0  0  0  0  0  0  0  0  0  0  0  0
   18.9244  -24.9071   -9.2497 C   0  0  0  0  0  0  0  0  0  0  0  0
   19.0061  -24.6993   -7.9588 N   0  0  0  0  0  0  0  0  0  0  0  0
   18.7929  -23.7445  -10.0561 N   0  0  0  0  0  0  0  0  0  0  0  0
   18.1938  -23.7469  -11.3576 C   0  0  0  0  0  0  0  0  0  0  0  0
   18.3989  -22.3726  -11.9925 C   0  0  0  0  0  0  0  0  0  0  0  0
   17.7598  -22.2754  -13.3428 C   0  0  0  0  0  0  0  0  0  0  0  0
   18.0850  -20.9803  -14.0014 C   0  0  2  0  0  0  0  0  0  0  0  0
   19.4340  -21.0323  -14.5923 N   0  0  0  0  0  0  0  0  0  0  0  0
   18.1354  -19.8960  -13.0116 C   0  0  0  0  0  0  0  0  0  0  0  0
   19.2176  -19.4858  -12.5610 O   0  0  0  0  0  0  0  0  0  0  0  0
   16.9846  -19.2948  -12.5472 O   0  0  0  0  0  0  0  0  0  0  0  0
  1  2  1  0
  2  3  2  0
  4  5  1  0
  4  2  1  0
  6  7  1  1
  6  5  1  0
  8  6  1  0
  8 10  1  0
  9  8  2  0
 11 10  1  0
 11 12  1  1
 13 12  1  0
 13 14  1  0
 14 15  1  0
 15 16  1  0
 17 11  1  0
 18 17  2  0
 19 20  1  0
 20 21  2  0
 22 23  1  0
 22 20  1  0
 23 24  1  0
 25 24  1  0
 26 25  1  1
 26 27  1  0
 27 17  1  0
 28 26  1  0
 29 28  2  0
 30 28  1  0
M  END
$$$$
