KKK.pdb
     RDKit          3D

 28 27  0  0  1  0  0  0  0  0999 V2000
    6.5643  -19.0341   24.6331 N   0  0  0  0  0  0  0  0  0  0  0  0
    6.9467  -17.6313   24.7990 C   0  0  1  0  0  0  0  0  0  0  0  0
    8.0662  -17.6316   25.8142 C   0  0  0  0  0  0  0  0  0  0  0  0
    7.6179  -18.3028   27.0651 C   0  0  0  0  0  0  0  0  0  0  0  0
    8.5738  -18.3283   28.1945 C   0  0  0  0  0  0  0  0  0  0  0  0
    8.1638  -19.0872   29.4054 C   0  0  0  0  0  0  0  0  0  0  0  0
    8.4612  -20.4989   29.3414 N   0  0  0  0  0  0  0  0  0  0  0  0
    7.3457  -17.0931   23.4997 C   0  0  0  0  0  0  0  0  0  0  0  0
    7.9468  -17.8373   22.6860 O   0  0  0  0  0  0  0  0  0  0  0  0
    7.1035  -15.7642   23.0707 N   0  0  0  0  0  0  0  0  0  0  0  0
    7.8228  -15.2166   21.8961 C   0  0  1  0  0  0  0  0  0  0  0  0
    7.1772  -13.8942   21.5291 C   0  0  0  0  0  0  0  0  0  0  0  0
    7.8398  -13.1923   20.3890 C   0  0  0  0  0  0  0  0  0  0  0  0
    7.4605  -13.7830   19.0440 C   0  0  0  0  0  0  0  0  0  0  0  0
    8.1926  -13.0644   17.9654 C   0  0  0  0  0  0  0  0  0  0  0  0
    7.7819  -13.5946   16.6750 N   0  0  0  0  0  0  0  0  0  0  0  0
    9.2646  -15.1256   22.1921 C   0  0  0  0  0  0  0  0  0  0  0  0
    9.6731  -14.8956   23.3911 O   0  0  0  0  0  0  0  0  0  0  0  0
   10.3119  -15.2769   21.2495 N   0  0  0  0  0  0  0  0  0  0  0  0
   11.6703  -15.6363   21.6092 C   0  0  1  0  0  0  0  0  0  0  0  0
   11.6200  -17.0349   22.2122 C   0  0  0  0  0  0  0  0  0  0  0  0
   12.9920  -17.6059   22.3871 C   0  0  0  0  0  0  0  0  0  0  0  0
   12.8828  -18.9665   23.0158 C   0  0  0  0  0  0  0  0  0  0  0  0
   14.2168  -19.6048   23.2597 C   0  0  0  0  0  0  0  0  0  0  0  0
   14.0187  -20.8723   23.9578 N   0  0  0  0  0  0  0  0  0  0  0  0
   12.5804  -15.6916   20.4608 C   0  0  0  0  0  0  0  0  0  0  0  0
   12.1270  -16.1669   19.2464 O   0  0  0  0  0  0  0  0  0  0  0  0
   13.7600  -15.3125   20.5739 O   0  0  0  0  0  0  0  0  0  0  0  0
  2  3  1  0
  2  1  1  6
  4  3  1  0
  4  5  1  0
  6  5  1  0
  6  7  1  0
  8 10  1  0
  8  2  1  0
  9  8  2  0
 11 10  1  0
 11 12  1  1
 13 12  1  0
 14 13  1  0
 15 14  1  0
 16 15  1  0
 17 18  2  0
 17 11  1  0
 19 17  1  0
 20 21  1  6
 20 19  1  0
 22 21  1  0
 22 23  1  0
 23 24  1  0
 24 25  1  0
 26 20  1  0
 27 26  1  0
 28 26  2  0
M  END
$$$$
