KKK.pdb
     RDKit          3D

 28 27  0  0  1  0  0  0  0  0999 V2000
    7.2536  -18.7545   16.9650 N   0  0  0  0  0  0  0  0  0  0  0  0
    8.6078  -19.1960   17.3008 C   0  0  1  0  0  0  0  0  0  0  0  0
    9.5357  -18.2945   16.5197 C   0  0  0  0  0  0  0  0  0  0  0  0
    9.4208  -18.5851   15.0642 C   0  0  0  0  0  0  0  0  0  0  0  0
   10.2145  -17.7398   14.1448 C   0  0  0  0  0  0  0  0  0  0  0  0
   10.0496  -17.9914   12.6888 C   0  0  0  0  0  0  0  0  0  0  0  0
   10.7636  -17.0595   11.8479 N   0  0  0  0  0  0  0  0  0  0  0  0
    8.7915  -19.0992   18.7479 C   0  0  0  0  0  0  0  0  0  0  0  0
    8.7142  -17.9749   19.3020 O   0  0  0  0  0  0  0  0  0  0  0  0
    9.0569  -20.1998   19.6005 N   0  0  0  0  0  0  0  0  0  0  0  0
    9.2866  -19.9832   21.0487 C   0  0  1  0  0  0  0  0  0  0  0  0
    8.8909  -21.2526   21.7783 C   0  0  0  0  0  0  0  0  0  0  0  0
    9.1909  -21.2288   23.2415 C   0  0  0  0  0  0  0  0  0  0  0  0
    8.8218  -22.5288   23.9312 C   0  0  0  0  0  0  0  0  0  0  0  0
    9.0958  -22.4089   25.3893 C   0  0  0  0  0  0  0  0  0  0  0  0
    8.8832  -23.7006   26.0226 N   0  0  0  0  0  0  0  0  0  0  0  0
   10.6821  -19.5638   21.2752 C   0  0  0  0  0  0  0  0  0  0  0  0
   11.6529  -20.3850   21.0740 O   0  0  0  0  0  0  0  0  0  0  0  0
   11.0981  -18.2809   21.7104 N   0  0  0  0  0  0  0  0  0  0  0  0
   12.4783  -17.9384   21.9959 C   0  0  1  0  0  0  0  0  0  0  0  0
   12.6846  -16.4959   21.5499 C   0  0  0  0  0  0  0  0  0  0  0  0
   13.1229  -16.4215   20.1211 C   0  0  0  0  0  0  0  0  0  0  0  0
   13.2185  -14.9793   19.7097 C   0  0  0  0  0  0  0  0  0  0  0  0
   13.6893  -14.8059   18.2974 C   0  0  0  0  0  0  0  0  0  0  0  0
   13.7010  -13.3826   17.9697 N   0  0  0  0  0  0  0  0  0  0  0  0
   12.8098  -18.0027   23.4230 C   0  0  0  0  0  0  0  0  0  0  0  0
   11.8026  -18.1407   24.3573 O   0  0  0  0  0  0  0  0  0  0  0  0
   13.9942  -17.9334   23.7976 O   0  0  0  0  0  0  0  0  0  0  0  0
  2  3  1  0
  2  1  1  1
  4  3  1  0
  4  5  1  0
  6  5  1  0
  6  7  1  0
  8 10  1  0
  8  2  1  0
  9  8  2  0
 11 10  1  0
 11 12  1  1
 13 12  1  0
 14 13  1  0
 15 14  1  0
 16 15  1  0
 17 18  2  0
 17 11  1  0
 19 17  1  0
 20 21  1  1
 20 19  1  0
 22 21  1  0
 22 23  1  0
 23 24  1  0
 24 25  1  0
 26 20  1  0
 27 26  1  0
 28 26  2  0
M  END
$$$$
