KKK.pdb
     RDKit          3D

 28 27  0  0  1  0  0  0  0  0999 V2000
    9.2746  -16.5925   19.2337 N   0  0  0  0  0  0  0  0  0  0  0  0
    8.4212  -16.9633   20.3632 C   0  0  1  0  0  0  0  0  0  0  0  0
    8.6218  -18.4488   20.5549 C   0  0  0  0  0  0  0  0  0  0  0  0
    8.2593  -19.1759   19.3074 C   0  0  0  0  0  0  0  0  0  0  0  0
    6.9519  -19.8689   19.2884 C   0  0  0  0  0  0  0  0  0  0  0  0
    6.5737  -20.5566   18.0258 C   0  0  0  0  0  0  0  0  0  0  0  0
    5.2389  -21.1077   18.0351 N   0  0  0  0  0  0  0  0  0  0  0  0
    8.8108  -16.1729   21.5296 C   0  0  0  0  0  0  0  0  0  0  0  0
   10.0303  -15.9879   21.7656 O   0  0  0  0  0  0  0  0  0  0  0  0
    7.9007  -15.5818   22.4412 N   0  0  0  0  0  0  0  0  0  0  0  0
    8.4002  -14.9116   23.6653 C   0  0  1  0  0  0  0  0  0  0  0  0
    7.2982  -14.0084   24.1849 C   0  0  0  0  0  0  0  0  0  0  0  0
    7.6200  -13.3464   25.4848 C   0  0  0  0  0  0  0  0  0  0  0  0
    6.4604  -12.5296   26.0233 C   0  0  0  0  0  0  0  0  0  0  0  0
    6.8499  -11.9167   27.3226 C   0  0  0  0  0  0  0  0  0  0  0  0
    5.6960  -11.2440   27.8978 N   0  0  0  0  0  0  0  0  0  0  0  0
    8.8624  -15.9227   24.6342 C   0  0  0  0  0  0  0  0  0  0  0  0
    8.0450  -16.7980   25.1064 O   0  0  0  0  0  0  0  0  0  0  0  0
   10.1846  -16.0485   25.1284 N   0  0  0  0  0  0  0  0  0  0  0  0
   10.5759  -17.0131   26.1384 C   0  0  1  0  0  0  0  0  0  0  0  0
   12.0057  -17.4367   25.8247 C   0  0  0  0  0  0  0  0  0  0  0  0
   12.0564  -18.3754   24.6605 C   0  0  0  0  0  0  0  0  0  0  0  0
   13.4845  -18.7674   24.4056 C   0  0  0  0  0  0  0  0  0  0  0  0
   13.6375  -19.6759   23.2234 C   0  0  0  0  0  0  0  0  0  0  0  0
   15.0511  -20.0006   23.0511 N   0  0  0  0  0  0  0  0  0  0  0  0
   10.5747  -16.4640   27.4981 C   0  0  0  0  0  0  0  0  0  0  0  0
   10.8231  -17.2924   28.5744 O   0  0  0  0  0  0  0  0  0  0  0  0
   10.3508  -15.2550   27.6884 O   0  0  0  0  0  0  0  0  0  0  0  0
  2  3  1  0
  2  1  1  6
  4  3  1  0
  4  5  1  0
  6  5  1  0
  6  7  1  0
  8 10  1  0
  8  2  1  0
  9  8  2  0
 11 10  1  0
 11 12  1  1
 13 12  1  0
 14 13  1  0
 15 14  1  0
 16 15  1  0
 17 18  2  0
 17 11  1  0
 19 17  1  0
 20 21  1  6
 20 19  1  0
 22 21  1  0
 22 23  1  0
 23 24  1  0
 24 25  1  0
 26 20  1  0
 27 26  1  0
 28 26  2  0
M  END
$$$$
