KKK.pdb
     RDKit          3D

 28 27  0  0  1  0  0  0  0  0999 V2000
   10.8216  -18.8522   17.0830 N   0  0  0  0  0  0  0  0  0  0  0  0
    9.7266  -18.8164   18.0532 C   0  0  1  0  0  0  0  0  0  0  0  0
    9.5209  -20.2489   18.4885 C   0  0  0  0  0  0  0  0  0  0  0  0
    9.2516  -21.1070   17.3021 C   0  0  0  0  0  0  0  0  0  0  0  0
    8.8457  -22.5061   17.5621 C   0  0  0  0  0  0  0  0  0  0  0  0
    8.4900  -23.3339   16.3795 C   0  0  0  0  0  0  0  0  0  0  0  0
    8.2930  -24.7325   16.6804 N   0  0  0  0  0  0  0  0  0  0  0  0
   10.0975  -17.9267   19.1522 C   0  0  0  0  0  0  0  0  0  0  0  0
   11.3132  -17.7266   19.3957 O   0  0  0  0  0  0  0  0  0  0  0  0
    9.1730  -17.2527   19.9887 N   0  0  0  0  0  0  0  0  0  0  0  0
    9.6543  -16.3003   21.0175 C   0  0  1  0  0  0  0  0  0  0  0  0
    8.6179  -15.2018   21.1569 C   0  0  0  0  0  0  0  0  0  0  0  0
    8.6564  -14.1898   20.0588 C   0  0  0  0  0  0  0  0  0  0  0  0
    7.5272  -13.1816   20.1583 C   0  0  0  0  0  0  0  0  0  0  0  0
    7.5979  -12.2458   19.0029 C   0  0  0  0  0  0  0  0  0  0  0  0
    6.4759  -11.3228   19.0671 N   0  0  0  0  0  0  0  0  0  0  0  0
    9.9435  -17.0232   22.2699 C   0  0  0  0  0  0  0  0  0  0  0  0
    9.1228  -17.9072   22.7196 O   0  0  0  0  0  0  0  0  0  0  0  0
   11.0940  -16.8463   23.0782 N   0  0  0  0  0  0  0  0  0  0  0  0
   11.3505  -17.6056   24.2871 C   0  0  1  0  0  0  0  0  0  0  0  0
   12.8609  -17.7737   24.3998 C   0  0  0  0  0  0  0  0  0  0  0  0
   13.2302  -18.6478   25.5567 C   0  0  0  0  0  0  0  0  0  0  0  0
   14.7276  -18.7349   25.6500 C   0  0  0  0  0  0  0  0  0  0  0  0
   15.1912  -19.6929   26.7053 C   0  0  0  0  0  0  0  0  0  0  0  0
   16.6478  -19.6352   26.7954 N   0  0  0  0  0  0  0  0  0  0  0  0
   10.8974  -16.9281   25.5061 C   0  0  0  0  0  0  0  0  0  0  0  0
   10.9127  -17.6000   26.7122 O   0  0  0  0  0  0  0  0  0  0  0  0
   10.4988  -15.7504   25.4605 O   0  0  0  0  0  0  0  0  0  0  0  0
  2  3  1  0
  2  1  1  6
  4  3  1  0
  4  5  1  0
  6  5  1  0
  6  7  1  0
  8 10  1  0
  8  2  1  0
  9  8  2  0
 11 10  1  0
 11 12  1  1
 13 12  1  0
 14 13  1  0
 15 14  1  0
 16 15  1  0
 17 18  2  0
 17 11  1  0
 19 17  1  0
 20 21  1  1
 20 19  1  0
 22 21  1  0
 22 23  1  0
 23 24  1  0
 24 25  1  0
 26 20  1  0
 27 26  1  0
 28 26  2  0
M  END
$$$$
