PPV.pdb
     RDKit          3D

 22 23  0  0  1  0  0  0  0  0999 V2000
   11.2963  -17.2577   19.8563 N   0  0  0  0  0  0  0  0  0  0  0  0
   11.4363  -18.6484   19.5571 C   0  0  0  0  0  0  0  0  0  0  0  0
   10.1007  -19.3006   19.7854 C   0  0  0  0  0  0  0  0  0  0  0  0
    9.4108  -18.2676   20.6875 C   0  0  0  0  0  0  0  0  0  0  0  0
    9.8766  -16.9747   20.0111 C   0  0  1  0  0  0  0  0  0  0  0  0
    9.6514  -15.8812   21.0174 C   0  0  0  0  0  0  0  0  0  0  0  0
   10.4666  -15.9121   21.9976 O   0  0  0  0  0  0  0  0  0  0  0  0
    8.6460  -14.9370   20.8741 N   0  0  0  0  0  0  0  0  0  0  0  0
    8.1411  -14.5074   19.5511 C   0  0  0  0  0  0  0  0  0  0  0  0
    6.6775  -14.2160   19.7740 C   0  0  0  0  0  0  0  0  0  0  0  0
    6.4619  -14.5035   21.2374 C   0  0  0  0  0  0  0  0  0  0  0  0
    7.8811  -14.1833   21.7786 C   0  0  1  0  0  0  0  0  0  0  0  0
    7.9386  -14.4243   23.2023 C   0  0  0  0  0  0  0  0  0  0  0  0
    8.0036  -15.5569   23.6843 O   0  0  0  0  0  0  0  0  0  0  0  0
    7.6751  -12.8074   27.8793 C   0  0  0  0  0  0  0  0  0  0  0  0
    7.5095  -12.4769   26.4243 C   0  0  2  0  0  0  0  0  0  0  0  0
    6.0614  -12.0985   26.1305 C   0  0  0  0  0  0  0  0  0  0  0  0
    7.9375  -13.6607   25.5815 C   0  0  2  0  0  0  0  0  0  0  0  0
    7.9242  -13.3467   24.1703 N   0  0  0  0  0  0  0  0  0  0  0  0
    6.9673  -14.7553   25.8550 C   0  0  0  0  0  0  0  0  0  0  0  0
    5.8804  -14.8209   25.2279 O   0  0  0  0  0  0  0  0  0  0  0  0
    7.2965  -15.6914   26.8139 O   0  0  0  0  0  0  0  0  0  0  0  0
  1  5  1  0
  2  1  1  0
  3  2  1  0
  3  4  1  0
  4  5  1  0
  5  6  1  1
  6  7  2  0
  8  6  1  0
  9  8  1  0
 10 11  1  0
 10  9  1  0
 11 12  1  0
 12  8  1  0
 12 13  1  1
 13 19  1  0
 13 14  2  0
 16 15  1  1
 17 16  1  0
 18 16  1  0
 18 19  1  6
 20 22  1  0
 20 18  1  0
 21 20  2  0
M  END
$$$$
