PPV.pdb
     RDKit          3D

 22 23  0  0  1  0  0  0  0  0999 V2000
   10.2318  -15.8364   20.3802 N   0  0  0  0  0  0  0  0  0  0  0  0
   10.1968  -16.9155   19.4436 C   0  0  0  0  0  0  0  0  0  0  0  0
    9.1525  -17.8914   19.9110 C   0  0  0  0  0  0  0  0  0  0  0  0
    9.0121  -17.4984   21.3883 C   0  0  0  0  0  0  0  0  0  0  0  0
    9.0820  -15.9734   21.2628 C   0  0  1  0  0  0  0  0  0  0  0  0
    9.3962  -15.4624   22.6409 C   0  0  0  0  0  0  0  0  0  0  0  0
   10.6144  -15.6249   22.9814 O   0  0  0  0  0  0  0  0  0  0  0  0
    8.4368  -14.8722   23.4497 N   0  0  0  0  0  0  0  0  0  0  0  0
    7.2835  -14.1254   22.9002 C   0  0  0  0  0  0  0  0  0  0  0  0
    6.1600  -14.3814   23.8743 C   0  0  0  0  0  0  0  0  0  0  0  0
    6.7769  -15.2674   24.9257 C   0  0  0  0  0  0  0  0  0  0  0  0
    8.2510  -14.7888   24.8389 C   0  0  1  0  0  0  0  0  0  0  0  0
    9.0747  -15.5397   25.7587 C   0  0  0  0  0  0  0  0  0  0  0  0
    9.3399  -16.7323   25.5946 O   0  0  0  0  0  0  0  0  0  0  0  0
    9.9036  -14.6890   29.9295 C   0  0  0  0  0  0  0  0  0  0  0  0
   11.0320  -14.9374   28.9709 C   0  0  2  0  0  0  0  0  0  0  0  0
   11.6408  -13.6142   28.5181 C   0  0  0  0  0  0  0  0  0  0  0  0
   10.5260  -15.7307   27.7838 C   0  0  2  0  0  0  0  0  0  0  0  0
    9.6511  -14.9418   26.9455 N   0  0  0  0  0  0  0  0  0  0  0  0
    9.7733  -16.8912   28.3325 C   0  0  0  0  0  0  0  0  0  0  0  0
    8.5216  -16.9470   28.2373 O   0  0  0  0  0  0  0  0  0  0  0  0
   10.4888  -17.8989   28.9459 O   0  0  0  0  0  0  0  0  0  0  0  0
  1  5  1  0
  2  1  1  0
  3  2  1  0
  3  4  1  0
  4  5  1  0
  5  6  1  1
  6  7  2  0
  8  6  1  0
  9  8  1  0
 10 11  1  0
 10  9  1  0
 11 12  1  0
 12  8  1  0
 12 13  1  1
 13 19  1  0
 13 14  2  0
 16 15  1  1
 17 16  1  0
 18 16  1  0
 18 19  1  6
 20 22  1  0
 20 18  1  0
 21 20  2  0
M  END
$$$$
