PPV.pdb
     RDKit          3D

 22 23  0  0  1  0  0  0  0  0999 V2000
   10.1416  -16.0932   20.3465 N   0  0  0  0  0  0  0  0  0  0  0  0
    9.9282  -17.1757   19.4380 C   0  0  0  0  0  0  0  0  0  0  0  0
    8.7028  -17.9188   19.8938 C   0  0  0  0  0  0  0  0  0  0  0  0
    8.5968  -17.4583   21.3544 C   0  0  0  0  0  0  0  0  0  0  0  0
    8.9613  -15.9796   21.1914 C   0  0  1  0  0  0  0  0  0  0  0  0
    9.3267  -15.4933   22.5658 C   0  0  0  0  0  0  0  0  0  0  0  0
   10.5183  -15.7870   22.9124 O   0  0  0  0  0  0  0  0  0  0  0  0
    8.4368  -14.7921   23.3654 N   0  0  0  0  0  0  0  0  0  0  0  0
    7.3587  -13.9478   22.8044 C   0  0  0  0  0  0  0  0  0  0  0  0
    6.2232  -14.0683   23.7906 C   0  0  0  0  0  0  0  0  0  0  0  0
    6.7577  -14.9861   24.8597 C   0  0  0  0  0  0  0  0  0  0  0  0
    8.2711  -14.6581   24.7531 C   0  0  1  0  0  0  0  0  0  0  0  0
    9.0237  -15.4650   25.6862 C   0  0  0  0  0  0  0  0  0  0  0  0
    9.1937  -16.6764   25.5336 O   0  0  0  0  0  0  0  0  0  0  0  0
    9.9647  -14.8614   29.9453 C   0  0  0  0  0  0  0  0  0  0  0  0
   11.0265  -14.9854   28.8912 C   0  0  2  0  0  0  0  0  0  0  0  0
   11.5187  -13.6037   28.4727 C   0  0  0  0  0  0  0  0  0  0  0  0
   10.4757  -15.7432   27.7007 C   0  0  2  0  0  0  0  0  0  0  0  0
    9.6360  -14.9056   26.8739 N   0  0  0  0  0  0  0  0  0  0  0  0
    9.6700  -16.8699   28.2447 C   0  0  0  0  0  0  0  0  0  0  0  0
    8.4154  -16.8523   28.1780 O   0  0  0  0  0  0  0  0  0  0  0  0
   10.3400  -17.9291   28.8217 O   0  0  0  0  0  0  0  0  0  0  0  0
  1  5  1  0
  2  1  1  0
  3  2  1  0
  3  4  1  0
  4  5  1  0
  5  6  1  1
  6  7  2  0
  8  6  1  0
  9  8  1  0
 10 11  1  0
 10  9  1  0
 11 12  1  0
 12  8  1  0
 12 13  1  1
 13 19  1  0
 13 14  2  0
 16 15  1  1
 17 16  1  0
 18 16  1  0
 18 19  1  1
 20 22  1  0
 20 18  1  0
 21 20  2  0
M  END
$$$$
