PPV.pdb
     RDKit          3D

 22 23  0  0  1  0  0  0  0  0999 V2000
   11.4277  -16.8060   20.2406 N   0  0  0  0  0  0  0  0  0  0  0  0
   11.8232  -17.9882   19.5414 C   0  0  0  0  0  0  0  0  0  0  0  0
   11.0549  -19.1418   20.1248 C   0  0  0  0  0  0  0  0  0  0  0  0
   10.6231  -18.5623   21.4792 C   0  0  0  0  0  0  0  0  0  0  0  0
   10.2651  -17.1353   21.0530 C   0  0  1  0  0  0  0  0  0  0  0  0
   10.2432  -16.3228   22.3173 C   0  0  0  0  0  0  0  0  0  0  0  0
   11.4037  -16.0387   22.7631 O   0  0  0  0  0  0  0  0  0  0  0  0
    9.0608  -15.9289   22.9253 N   0  0  0  0  0  0  0  0  0  0  0  0
    7.8361  -15.6170   22.1555 C   0  0  0  0  0  0  0  0  0  0  0  0
    6.6998  -16.0523   23.0476 C   0  0  0  0  0  0  0  0  0  0  0  0
    7.3814  -16.5833   24.2822 C   0  0  0  0  0  0  0  0  0  0  0  0
    8.6727  -15.7223   24.2587 C   0  0  1  0  0  0  0  0  0  0  0  0
    9.5337  -16.0835   25.3617 C   0  0  0  0  0  0  0  0  0  0  0  0
   10.1445  -17.1531   25.4079 O   0  0  0  0  0  0  0  0  0  0  0  0
    9.4553  -14.4190   29.3714 C   0  0  0  0  0  0  0  0  0  0  0  0
   10.7556  -14.5691   28.6363 C   0  0  2  0  0  0  0  0  0  0  0  0
   11.1709  -13.2366   28.0209 C   0  0  0  0  0  0  0  0  0  0  0  0
   10.6166  -15.6345   27.5684 C   0  0  2  0  0  0  0  0  0  0  0  0
    9.7420  -15.2098   26.4983 N   0  0  0  0  0  0  0  0  0  0  0  0
   10.0407  -16.8351   28.2325 C   0  0  0  0  0  0  0  0  0  0  0  0
    8.8376  -17.1512   28.0554 O   0  0  0  0  0  0  0  0  0  0  0  0
   10.8647  -17.5869   29.0448 O   0  0  0  0  0  0  0  0  0  0  0  0
  1  5  1  0
  2  1  1  0
  3  2  1  0
  3  4  1  0
  4  5  1  0
  5  6  1  1
  6  7  2  0
  8  6  1  0
  9  8  1  0
 10 11  1  0
 10  9  1  0
 11 12  1  0
 12  8  1  0
 12 13  1  1
 13 19  1  0
 13 14  2  0
 16 15  1  6
 17 16  1  0
 18 16  1  0
 18 19  1  6
 20 22  1  0
 20 18  1  0
 21 20  2  0
M  END
$$$$
