PPV.pdb
     RDKit          3D

 22 23  0  0  1  0  0  0  0  0999 V2000
    8.9010  -14.9188   20.6208 N   0  0  0  0  0  0  0  0  0  0  0  0
    8.4054  -15.7826   19.5956 C   0  0  0  0  0  0  0  0  0  0  0  0
    7.1431  -16.4201   20.1071 C   0  0  0  0  0  0  0  0  0  0  0  0
    7.2948  -16.2170   21.6212 C   0  0  0  0  0  0  0  0  0  0  0  0
    7.8686  -14.7970   21.6402 C   0  0  1  0  0  0  0  0  0  0  0  0
    8.4755  -14.6180   23.0035 C   0  0  0  0  0  0  0  0  0  0  0  0
    9.6496  -15.1045   23.1088 O   0  0  0  0  0  0  0  0  0  0  0  0
    7.8047  -13.9800   24.0360 N   0  0  0  0  0  0  0  0  0  0  0  0
    6.7311  -12.9904   23.7952 C   0  0  0  0  0  0  0  0  0  0  0  0
    5.7739  -13.1734   24.9470 C   0  0  0  0  0  0  0  0  0  0  0  0
    6.3938  -14.2714   25.7722 C   0  0  0  0  0  0  0  0  0  0  0  0
    7.8910  -14.0374   25.4361 C   0  0  1  0  0  0  0  0  0  0  0  0
    8.7122  -15.0215   26.1036 C   0  0  0  0  0  0  0  0  0  0  0  0
    8.7809  -16.1948   25.7321 O   0  0  0  0  0  0  0  0  0  0  0  0
   10.2415  -15.1620   30.2155 C   0  0  0  0  0  0  0  0  0  0  0  0
   11.1538  -15.1828   29.0234 C   0  0  2  0  0  0  0  0  0  0  0  0
   11.7077  -13.7866   28.7581 C   0  0  0  0  0  0  0  0  0  0  0  0
   10.4010  -15.7011   27.8153 C   0  0  2  0  0  0  0  0  0  0  0  0
    9.5181  -14.6982   27.2632 N   0  0  0  0  0  0  0  0  0  0  0  0
    9.6000  -16.8672   28.2766 C   0  0  0  0  0  0  0  0  0  0  0  0
    8.3502  -16.7868   28.3792 O   0  0  0  0  0  0  0  0  0  0  0  0
   10.2688  -18.0336   28.5868 O   0  0  0  0  0  0  0  0  0  0  0  0
  1  5  1  0
  2  1  1  0
  3  2  1  0
  3  4  1  0
  4  5  1  0
  5  6  1  1
  6  7  2  0
  8  6  1  0
  9  8  1  0
 10 11  1  0
 10  9  1  0
 11 12  1  0
 12  8  1  0
 12 13  1  6
 13 19  1  0
 13 14  2  0
 16 15  1  1
 17 16  1  0
 18 16  1  0
 18 19  1  1
 20 22  1  0
 20 18  1  0
 21 20  2  0
M  END
$$$$
