NNT.pdb
     RDKit          3D

 24 23  0  0  1  0  0  0  0  0999 V2000
    8.0409  -16.3338   12.0018 N   0  0  0  0  0  0  0  0  0  0  0  0
    7.5949  -16.4845   13.3346 C   0  0  0  0  0  0  0  0  0  0  0  0
    6.3815  -16.3426   13.6347 O   0  0  0  0  0  0  0  0  0  0  0  0
    8.5273  -16.8148   14.4375 C   0  0  0  0  0  0  0  0  0  0  0  0
    8.7789  -15.5665   15.2345 C   0  0  2  0  0  0  0  0  0  0  0  0
    9.4586  -14.6232   14.3975 N   0  0  0  0  0  0  0  0  0  0  0  0
    9.5739  -15.8892   16.4530 C   0  0  0  0  0  0  0  0  0  0  0  0
    9.1488  -16.7256   17.2785 O   0  0  0  0  0  0  0  0  0  0  0  0
   14.2189  -17.5071   17.4861 N   0  0  0  0  0  0  0  0  0  0  0  0
   13.6549  -16.4283   16.7584 C   0  0  0  0  0  0  0  0  0  0  0  0
   13.6457  -16.4509   15.5027 O   0  0  0  0  0  0  0  0  0  0  0  0
   13.0899  -15.2988   17.5442 C   0  0  0  0  0  0  0  0  0  0  0  0
   11.6121  -15.4901   17.8088 C   0  0  2  0  0  0  0  0  0  0  0  0
   10.8152  -15.2181   16.6356 N   0  0  0  0  0  0  0  0  0  0  0  0
   11.1999  -14.5716   18.8893 C   0  0  0  0  0  0  0  0  0  0  0  0
   11.8956  -13.5763   19.1910 O   0  0  0  0  0  0  0  0  0  0  0  0
    8.3529  -12.3592   19.6769 C   0  0  0  0  0  0  0  0  0  0  0  0
    8.2885  -13.5064   20.6314 C   0  0  1  0  0  0  0  0  0  0  0  0
    7.4312  -14.5261   20.2195 O   0  0  0  0  0  0  0  0  0  0  0  0
    9.6628  -14.1228   20.8152 C   0  0  2  0  0  0  0  0  0  0  0  0
    9.9965  -14.8259   19.5925 N   0  0  0  0  0  0  0  0  0  0  0  0
    9.7284  -15.0144   21.9743 C   0  0  0  0  0  0  0  0  0  0  0  0
   10.0398  -16.3526   21.8166 O   0  0  0  0  0  0  0  0  0  0  0  0
    9.5050  -14.5857   23.1274 O   0  0  0  0  0  0  0  0  0  0  0  0
  2  1  1  0
  2  3  2  0
  4  5  1  0
  4  2  1  0
  5  6  1  6
  7  5  1  0
  8  7  2  0
  9 10  1  0
 10 12  1  0
 11 10  2  0
 13 12  1  6
 13 15  1  0
 13 14  1  0
 14  7  1  0
 15 21  1  0
 16 15  2  0
 18 19  1  0
 18 17  1  6
 20 18  1  0
 20 22  1  0
 20 21  1  6
 22 24  2  0
 22 23  1  0
M  END
$$$$
