NNT.pdb
     RDKit          3D

 24 23  0  0  1  0  0  0  0  0999 V2000
    9.4935  -15.1034   13.3132 N   0  0  0  0  0  0  0  0  0  0  0  0
    8.4148  -14.6522   14.1075 C   0  0  0  0  0  0  0  0  0  0  0  0
    7.5418  -13.8769   13.6395 O   0  0  0  0  0  0  0  0  0  0  0  0
    8.2592  -15.0669   15.5212 C   0  0  0  0  0  0  0  0  0  0  0  0
    9.1241  -16.2719   15.7591 C   0  0  2  0  0  0  0  0  0  0  0  0
    8.6003  -17.3644   14.9946 N   0  0  0  0  0  0  0  0  0  0  0  0
    9.1659  -16.5924   17.2139 C   0  0  0  0  0  0  0  0  0  0  0  0
    8.1090  -16.8322   17.8361 O   0  0  0  0  0  0  0  0  0  0  0  0
   13.2092  -19.2798   18.1954 N   0  0  0  0  0  0  0  0  0  0  0  0
   12.0344  -19.0109   18.9430 C   0  0  0  0  0  0  0  0  0  0  0  0
   11.1622  -19.9027   19.0896 O   0  0  0  0  0  0  0  0  0  0  0  0
   11.8964  -17.6504   19.5280 C   0  0  0  0  0  0  0  0  0  0  0  0
   10.5396  -17.0510   19.2274 C   0  0  2  0  0  0  0  0  0  0  0  0
   10.4360  -16.6139   17.8550 N   0  0  0  0  0  0  0  0  0  0  0  0
   10.3253  -15.8906   20.1154 C   0  0  0  0  0  0  0  0  0  0  0  0
   11.1352  -14.9372   20.1386 O   0  0  0  0  0  0  0  0  0  0  0  0
    7.8463  -13.2406   20.3867 C   0  0  0  0  0  0  0  0  0  0  0  0
    7.6741  -14.1123   21.5874 C   0  0  1  0  0  0  0  0  0  0  0  0
    6.7072  -15.1033   21.4220 O   0  0  0  0  0  0  0  0  0  0  0  0
    8.9775  -14.8101   21.9290 C   0  0  2  0  0  0  0  0  0  0  0  0
    9.1826  -15.8613   20.9526 N   0  0  0  0  0  0  0  0  0  0  0  0
    8.9892  -15.3431   23.2924 C   0  0  0  0  0  0  0  0  0  0  0  0
    8.9446  -14.4920   24.3815 O   0  0  0  0  0  0  0  0  0  0  0  0
    9.0395  -16.5750   23.4995 O   0  0  0  0  0  0  0  0  0  0  0  0
  2  1  1  0
  2  3  2  0
  4  5  1  0
  4  2  1  0
  5  6  1  6
  7  5  1  0
  8  7  2  0
  9 10  1  0
 10 12  1  0
 11 10  2  0
 13 12  1  6
 13 15  1  0
 13 14  1  0
 14  7  1  0
 15 21  1  0
 16 15  2  0
 18 19  1  0
 18 17  1  6
 20 18  1  0
 20 22  1  0
 20 21  1  6
 22 24  2  0
 22 23  1  0
M  END
$$$$
