NNT.pdb
     RDKit          3D

 24 23  0  0  1  0  0  0  0  0999 V2000
    8.0446  -12.3391   17.7965 N   0  0  0  0  0  0  0  0  0  0  0  0
    7.7215  -13.6815   18.0988 C   0  0  0  0  0  0  0  0  0  0  0  0
    7.9580  -14.6077   17.2810 O   0  0  0  0  0  0  0  0  0  0  0  0
    7.0927  -14.0629   19.3849 C   0  0  0  0  0  0  0  0  0  0  0  0
    8.1818  -14.3072   20.3903 C   0  0  2  0  0  0  0  0  0  0  0  0
    9.0073  -15.3768   19.9141 N   0  0  0  0  0  0  0  0  0  0  0  0
    7.5885  -14.6242   21.7201 C   0  0  0  0  0  0  0  0  0  0  0  0
    6.7092  -13.8834   22.2097 O   0  0  0  0  0  0  0  0  0  0  0  0
    5.7102  -17.6331   22.5036 N   0  0  0  0  0  0  0  0  0  0  0  0
    6.6207  -18.3539   23.3179 C   0  0  0  0  0  0  0  0  0  0  0  0
    6.5279  -19.6026   23.4149 O   0  0  0  0  0  0  0  0  0  0  0  0
    7.6637  -17.5694   24.0315 C   0  0  0  0  0  0  0  0  0  0  0  0
    7.5592  -16.0923   23.7191 C   0  0  2  0  0  0  0  0  0  0  0  0
    8.0556  -15.7846   22.3983 N   0  0  0  0  0  0  0  0  0  0  0  0
    8.3495  -15.3390   24.7135 C   0  0  0  0  0  0  0  0  0  0  0  0
    9.5985  -15.3011   24.6507 O   0  0  0  0  0  0  0  0  0  0  0  0
    7.1743  -11.7734   26.0648 C   0  0  0  0  0  0  0  0  0  0  0  0
    7.4461  -12.7357   27.1745 C   0  0  1  0  0  0  0  0  0  0  0  0
    6.2995  -13.3619   27.6619 O   0  0  0  0  0  0  0  0  0  0  0  0
    8.3912  -13.8284   26.7109 C   0  0  2  0  0  0  0  0  0  0  0  0
    7.6778  -14.6499   25.7534 N   0  0  0  0  0  0  0  0  0  0  0  0
    8.9069  -14.6332   27.8197 C   0  0  0  0  0  0  0  0  0  0  0  0
    9.6486  -14.0476   28.8294 O   0  0  0  0  0  0  0  0  0  0  0  0
    8.6880  -15.8629   27.8765 O   0  0  0  0  0  0  0  0  0  0  0  0
  2  1  1  0
  2  3  2  0
  4  5  1  0
  4  2  1  0
  5  6  1  6
  7  5  1  0
  8  7  2  0
  9 10  1  0
 10 12  1  0
 11 10  2  0
 13 12  1  1
 13 15  1  0
 13 14  1  0
 14  7  1  0
 15 21  1  0
 16 15  2  0
 18 19  1  0
 18 17  1  6
 20 18  1  0
 20 22  1  0
 20 21  1  6
 22 24  2  0
 22 23  1  0
M  END
$$$$
