NNT.pdb
     RDKit          3D

 24 23  0  0  1  0  0  0  0  0999 V2000
    5.9663  -19.3461   14.8697 N   0  0  0  0  0  0  0  0  0  0  0  0
    6.9199  -18.4989   15.4787 C   0  0  0  0  0  0  0  0  0  0  0  0
    7.2693  -17.4180   14.9382 O   0  0  0  0  0  0  0  0  0  0  0  0
    7.5513  -18.8386   16.7751 C   0  0  0  0  0  0  0  0  0  0  0  0
    8.0248  -17.5665   17.4187 C   0  0  2  0  0  0  0  0  0  0  0  0
    8.9388  -16.9190   16.5257 N   0  0  0  0  0  0  0  0  0  0  0  0
    8.6620  -17.8645   18.7326 C   0  0  0  0  0  0  0  0  0  0  0  0
    8.0169  -18.4549   19.6253 O   0  0  0  0  0  0  0  0  0  0  0  0
   11.3113  -20.2860   20.0745 N   0  0  0  0  0  0  0  0  0  0  0  0
   12.4102  -19.4006   19.9327 C   0  0  0  0  0  0  0  0  0  0  0  0
   13.5609  -19.8537   19.7135 O   0  0  0  0  0  0  0  0  0  0  0  0
   12.1314  -17.9448   20.0546 C   0  0  0  0  0  0  0  0  0  0  0  0
   10.6500  -17.6730   20.2033 C   0  0  2  0  0  0  0  0  0  0  0  0
   10.0113  -17.4565   18.9263 N   0  0  0  0  0  0  0  0  0  0  0  0
   10.4691  -16.4680   21.0378 C   0  0  0  0  0  0  0  0  0  0  0  0
   11.4070  -15.6591   21.2154 O   0  0  0  0  0  0  0  0  0  0  0  0
    7.6159  -13.8233   20.9765 C   0  0  0  0  0  0  0  0  0  0  0  0
    7.6257  -14.5502   22.2814 C   0  0  1  0  0  0  0  0  0  0  0  0
    6.7192  -15.6083   22.3363 O   0  0  0  0  0  0  0  0  0  0  0  0
    9.0025  -15.1243   22.5597 C   0  0  2  0  0  0  0  0  0  0  0  0
    9.2115  -16.2288   21.6448 N   0  0  0  0  0  0  0  0  0  0  0  0
    9.1630  -15.5505   23.9510 C   0  0  0  0  0  0  0  0  0  0  0  0
    9.0928  -14.6310   24.9816 O   0  0  0  0  0  0  0  0  0  0  0  0
    9.3663  -16.7509   24.2352 O   0  0  0  0  0  0  0  0  0  0  0  0
  2  1  1  0
  2  3  2  0
  4  5  1  0
  4  2  1  0
  5  6  1  6
  7  5  1  0
  8  7  2  0
  9 10  1  0
 10 12  1  0
 11 10  2  0
 13 12  1  6
 13 15  1  0
 13 14  1  0
 14  7  1  0
 15 21  1  0
 16 15  2  0
 18 19  1  0
 18 17  1  6
 20 18  1  0
 20 22  1  0
 20 21  1  6
 22 24  2  0
 22 23  1  0
M  END
$$$$
