NNT.pdb
     RDKit          3D

 24 23  0  0  1  0  0  0  0  0999 V2000
    9.8949  -12.5601   18.4846 N   0  0  0  0  0  0  0  0  0  0  0  0
    8.7483  -13.3031   18.1223 C   0  0  0  0  0  0  0  0  0  0  0  0
    8.4708  -13.5242   16.9154 O   0  0  0  0  0  0  0  0  0  0  0  0
    7.8222  -13.8551   19.1384 C   0  0  0  0  0  0  0  0  0  0  0  0
    8.4127  -15.1278   19.6753 C   0  0  2  0  0  0  0  0  0  0  0  0
    8.2778  -16.1469   18.6776 N   0  0  0  0  0  0  0  0  0  0  0  0
    7.7328  -15.5114   20.9448 C   0  0  0  0  0  0  0  0  0  0  0  0
    6.4996  -15.7128   20.9622 O   0  0  0  0  0  0  0  0  0  0  0  0
    5.8704  -17.7876   24.9631 N   0  0  0  0  0  0  0  0  0  0  0  0
    7.2627  -17.9806   24.7739 C   0  0  0  0  0  0  0  0  0  0  0  0
    7.9590  -18.4882   25.6877 O   0  0  0  0  0  0  0  0  0  0  0  0
    7.8369  -17.5598   23.4680 C   0  0  0  0  0  0  0  0  0  0  0  0
    7.9219  -16.0528   23.3579 C   0  0  2  0  0  0  0  0  0  0  0  0
    8.5307  -15.6369   22.1161 N   0  0  0  0  0  0  0  0  0  0  0  0
    8.7306  -15.5389   24.4817 C   0  0  0  0  0  0  0  0  0  0  0  0
    9.9270  -15.8764   24.6233 O   0  0  0  0  0  0  0  0  0  0  0  0
    6.6977  -13.2968   27.3991 C   0  0  0  0  0  0  0  0  0  0  0  0
    8.1155  -12.9416   27.0908 C   0  0  1  0  0  0  0  0  0  0  0  0
    8.8238  -12.4687   28.1949 O   0  0  0  0  0  0  0  0  0  0  0  0
    8.8637  -14.1514   26.5626 C   0  0  2  0  0  0  0  0  0  0  0  0
    8.1374  -14.6496   25.4115 N   0  0  0  0  0  0  0  0  0  0  0  0
    9.0319  -15.1947   27.5756 C   0  0  0  0  0  0  0  0  0  0  0  0
   10.0655  -15.1262   28.4920 O   0  0  0  0  0  0  0  0  0  0  0  0
    8.2470  -16.1662   27.6330 O   0  0  0  0  0  0  0  0  0  0  0  0
  2  1  1  0
  2  3  2  0
  4  5  1  0
  4  2  1  0
  5  6  1  6
  7  5  1  0
  8  7  2  0
  9 10  1  0
 10 12  1  0
 11 10  2  0
 13 12  1  6
 13 15  1  0
 13 14  1  0
 14  7  1  0
 15 21  1  0
 16 15  2  0
 18 19  1  0
 18 17  1  1
 20 18  1  0
 20 22  1  0
 20 21  1  6
 22 24  2  0
 22 23  1  0
M  END
$$$$
