NNT.pdb
     RDKit          3D

 24 23  0  0  1  0  0  0  0  0999 V2000
    9.5136  -13.9640   17.7119 N   0  0  0  0  0  0  0  0  0  0  0  0
    8.1042  -13.8651   17.7567 C   0  0  0  0  0  0  0  0  0  0  0  0
    7.4026  -14.1022   16.7397 O   0  0  0  0  0  0  0  0  0  0  0  0
    7.3874  -13.4800   18.9947 C   0  0  0  0  0  0  0  0  0  0  0  0
    8.4048  -13.2118   20.0668 C   0  0  2  0  0  0  0  0  0  0  0  0
    9.5769  -13.9853   19.7838 N   0  0  0  0  0  0  0  0  0  0  0  0
    7.8385  -13.5456   21.4043 C   0  0  0  0  0  0  0  0  0  0  0  0
    7.6355  -12.6434   22.2448 O   0  0  0  0  0  0  0  0  0  0  0  0
    9.1323  -17.0339   24.8521 N   0  0  0  0  0  0  0  0  0  0  0  0
    9.9425  -16.9996   23.6885 C   0  0  0  0  0  0  0  0  0  0  0  0
   11.0482  -17.5949   23.6720 O   0  0  0  0  0  0  0  0  0  0  0  0
    9.4234  -16.2396   22.5200 C   0  0  0  0  0  0  0  0  0  0  0  0
    8.1175  -15.5465   22.8433 C   0  0  2  0  0  0  0  0  0  0  0  0
    7.5435  -14.9098   21.6811 N   0  0  0  0  0  0  0  0  0  0  0  0
    8.3668  -14.5202   23.8756 C   0  0  0  0  0  0  0  0  0  0  0  0
    9.1834  -13.5927   23.6797 O   0  0  0  0  0  0  0  0  0  0  0  0
    6.6391  -11.8159   25.3323 C   0  0  0  0  0  0  0  0  0  0  0  0
    6.7650  -12.8152   26.4353 C   0  0  1  0  0  0  0  0  0  0  0  0
    5.6554  -13.6505   26.5594 O   0  0  0  0  0  0  0  0  0  0  0  0
    7.9734  -13.7052   26.2109 C   0  0  2  0  0  0  0  0  0  0  0  0
    7.6676  -14.5915   25.1057 N   0  0  0  0  0  0  0  0  0  0  0  0
    8.3456  -14.4601   27.4087 C   0  0  0  0  0  0  0  0  0  0  0  0
    8.2972  -15.8423   27.4131 O   0  0  0  0  0  0  0  0  0  0  0  0
    8.7137  -13.8727   28.4491 O   0  0  0  0  0  0  0  0  0  0  0  0
  2  1  1  0
  2  3  2  0
  4  5  1  0
  4  2  1  0
  5  6  1  6
  7  5  1  0
  8  7  2  0
  9 10  1  0
 10 12  1  0
 11 10  2  0
 13 12  1  6
 13 15  1  0
 13 14  1  0
 14  7  1  0
 15 21  1  0
 16 15  2  0
 18 19  1  0
 18 17  1  6
 20 18  1  0
 20 22  1  0
 20 21  1  6
 22 24  2  0
 22 23  1  0
M  END
$$$$
