NNT.pdb
     RDKit          3D

 24 23  0  0  1  0  0  0  0  0999 V2000
    7.4972  -12.5158   17.3983 N   0  0  0  0  0  0  0  0  0  0  0  0
    7.8754  -13.6357   18.1733 C   0  0  0  0  0  0  0  0  0  0  0  0
    8.7277  -14.4601   17.7531 O   0  0  0  0  0  0  0  0  0  0  0  0
    7.2911  -13.8934   19.5101 C   0  0  0  0  0  0  0  0  0  0  0  0
    8.3721  -14.4326   20.4032 C   0  0  2  0  0  0  0  0  0  0  0  0
    8.8854  -15.6356   19.8188 N   0  0  0  0  0  0  0  0  0  0  0  0
    7.8319  -14.6758   21.7707 C   0  0  0  0  0  0  0  0  0  0  0  0
    7.0607  -13.8466   22.2993 O   0  0  0  0  0  0  0  0  0  0  0  0
    5.8370  -17.8764   22.9049 N   0  0  0  0  0  0  0  0  0  0  0  0
    6.8786  -18.4798   23.6550 C   0  0  0  0  0  0  0  0  0  0  0  0
    6.8687  -19.7180   23.8653 O   0  0  0  0  0  0  0  0  0  0  0  0
    7.9543  -17.5883   24.1652 C   0  0  0  0  0  0  0  0  0  0  0  0
    7.7199  -16.1481   23.7635 C   0  0  2  0  0  0  0  0  0  0  0  0
    8.2228  -15.8697   22.4388 N   0  0  0  0  0  0  0  0  0  0  0  0
    8.4068  -15.2673   24.7297 C   0  0  0  0  0  0  0  0  0  0  0  0
    9.6482  -15.1154   24.6953 O   0  0  0  0  0  0  0  0  0  0  0  0
    7.2219  -11.6397   25.8562 C   0  0  0  0  0  0  0  0  0  0  0  0
    7.2874  -12.5990   26.9993 C   0  0  1  0  0  0  0  0  0  0  0  0
    6.0606  -13.1883   27.3028 O   0  0  0  0  0  0  0  0  0  0  0  0
    8.2614  -13.7221   26.6955 C   0  0  2  0  0  0  0  0  0  0  0  0
    7.6431  -14.5857   25.7093 N   0  0  0  0  0  0  0  0  0  0  0  0
    8.6443  -14.4731   27.8923 C   0  0  0  0  0  0  0  0  0  0  0  0
    9.2890  -13.8443   28.9419 O   0  0  0  0  0  0  0  0  0  0  0  0
    8.3971  -15.6948   27.9900 O   0  0  0  0  0  0  0  0  0  0  0  0
  2  1  1  0
  2  3  2  0
  4  5  1  0
  4  2  1  0
  5  6  1  6
  7  5  1  0
  8  7  2  0
  9 10  1  0
 10 12  1  0
 11 10  2  0
 13 12  1  1
 13 15  1  0
 13 14  1  0
 14  7  1  0
 15 21  1  0
 16 15  2  0
 18 19  1  0
 18 17  1  6
 20 18  1  0
 20 22  1  0
 20 21  1  6
 22 24  2  0
 22 23  1  0
M  END
$$$$
