NNT.pdb
     RDKit          3D

 24 23  0  0  1  0  0  0  0  0999 V2000
    8.5130  -12.6506   16.6669 N   0  0  0  0  0  0  0  0  0  0  0  0
    7.6835  -13.7950   16.6462 C   0  0  0  0  0  0  0  0  0  0  0  0
    7.0270  -14.1044   15.6186 O   0  0  0  0  0  0  0  0  0  0  0  0
    7.5465  -14.6816   17.8252 C   0  0  0  0  0  0  0  0  0  0  0  0
    8.2655  -14.0464   18.9812 C   0  0  2  0  0  0  0  0  0  0  0  0
    9.6112  -13.7643   18.5789 N   0  0  0  0  0  0  0  0  0  0  0  0
    8.2265  -14.9492   20.1662 C   0  0  0  0  0  0  0  0  0  0  0  0
    7.1308  -15.3242   20.6358 O   0  0  0  0  0  0  0  0  0  0  0  0
   10.1827  -19.3662   20.8996 N   0  0  0  0  0  0  0  0  0  0  0  0
   10.7257  -18.0708   20.7031 C   0  0  0  0  0  0  0  0  0  0  0  0
   11.1950  -17.7467   19.5841 O   0  0  0  0  0  0  0  0  0  0  0  0
   10.7090  -17.1424   21.8649 C   0  0  0  0  0  0  0  0  0  0  0  0
    9.4761  -16.2646   21.8574 C   0  0  2  0  0  0  0  0  0  0  0  0
    9.4658  -15.3600   20.7317 N   0  0  0  0  0  0  0  0  0  0  0  0
    9.4473  -15.4747   23.1048 C   0  0  0  0  0  0  0  0  0  0  0  0
   10.3141  -14.6027   23.3369 O   0  0  0  0  0  0  0  0  0  0  0  0
    6.9805  -13.1414   24.4625 C   0  0  0  0  0  0  0  0  0  0  0  0
    7.0220  -14.3066   25.3961 C   0  0  1  0  0  0  0  0  0  0  0  0
    6.0435  -15.2649   25.1346 O   0  0  0  0  0  0  0  0  0  0  0  0
    8.3667  -15.0050   25.3150 C   0  0  2  0  0  0  0  0  0  0  0  0
    8.4196  -15.7119   24.0508 N   0  0  0  0  0  0  0  0  0  0  0  0
    8.5973  -15.9128   26.4400 C   0  0  0  0  0  0  0  0  0  0  0  0
    8.7071  -15.4232   27.7288 O   0  0  0  0  0  0  0  0  0  0  0  0
    8.6995  -17.1457   26.2595 O   0  0  0  0  0  0  0  0  0  0  0  0
  2  1  1  0
  2  3  2  0
  4  5  1  0
  4  2  1  0
  5  6  1  6
  7  5  1  0
  8  7  2  0
  9 10  1  0
 10 12  1  0
 11 10  2  0
 13 12  1  1
 13 15  1  0
 13 14  1  0
 14  7  1  0
 15 21  1  0
 16 15  2  0
 18 19  1  0
 18 17  1  6
 20 18  1  0
 20 22  1  0
 20 21  1  6
 22 24  2  0
 22 23  1  0
M  END
$$$$
