YVN.pdb
     RDKit          3D

 28 28  0  0  1  0  0  0  0  0999 V2000
   23.1032   -2.1056  -21.7535 O   0  0  0  0  0  0  0  0  0  0  0  0
   22.4746   -2.9233  -20.8342 C   0  0  0  0  0  0  0  0  0  0  0  0
   21.3101   -3.5616  -21.2048 C   0  0  0  0  0  0  0  0  0  0  0  0
   20.6690   -4.3821  -20.2992 C   0  0  0  0  0  0  0  0  0  0  0  0
   21.1268   -4.6091  -19.0228 C   0  0  0  0  0  0  0  0  0  0  0  0
   20.4690   -5.4802  -18.0282 C   0  0  0  0  0  0  0  0  0  0  0  0
   21.0362   -6.8813  -18.0214 C   0  0  2  0  0  0  0  0  0  0  0  0
   20.8155   -7.4896  -19.3011 N   0  0  0  0  0  0  0  0  0  0  0  0
   20.5019   -7.6959  -16.9006 C   0  0  0  0  0  0  0  0  0  0  0  0
   19.3543   -8.2272  -16.9463 O   0  0  0  0  0  0  0  0  0  0  0  0
   22.3018   -3.9618  -18.6561 C   0  0  0  0  0  0  0  0  0  0  0  0
   22.9489   -3.1392  -19.5570 C   0  0  0  0  0  0  0  0  0  0  0  0
   23.0128   -9.2011  -13.6453 C   0  0  0  0  0  0  0  0  0  0  0  0
   21.7452   -9.8019  -14.2014 C   0  0  2  0  0  0  0  0  0  0  0  0
   22.0169  -10.7682  -15.3427 C   0  0  0  0  0  0  0  0  0  0  0  0
   20.7420   -8.7409  -14.6190 C   0  0  2  0  0  0  0  0  0  0  0  0
   21.2391   -7.9334  -15.7081 N   0  0  0  0  0  0  0  0  0  0  0  0
   20.3417   -7.9379  -13.4411 C   0  0  0  0  0  0  0  0  0  0  0  0
   20.9043   -6.8682  -13.0933 O   0  0  0  0  0  0  0  0  0  0  0  0
   17.7026   -5.8702   -9.6308 N   0  0  0  0  0  0  0  0  0  0  0  0
   17.8103   -5.3984  -10.9606 C   0  0  0  0  0  0  0  0  0  0  0  0
   17.3922   -4.2596  -11.2650 O   0  0  0  0  0  0  0  0  0  0  0  0
   18.4162   -6.2406  -12.0072 C   0  0  0  0  0  0  0  0  0  0  0  0
   18.7793   -7.6133  -11.4786 C   0  0  2  0  0  0  0  0  0  0  0  0
   19.2582   -8.3832  -12.6402 N   0  0  0  0  0  0  0  0  0  0  0  0
   17.6858   -8.3061  -10.7996 C   0  0  0  0  0  0  0  0  0  0  0  0
   17.4782   -8.1946   -9.5689 O   0  0  0  0  0  0  0  0  0  0  0  0
   16.8098   -9.1361  -11.5037 O   0  0  0  0  0  0  0  0  0  0  0  0
  2  1  1  0
  3  2  2  0
  4  3  1  0
  5 11  1  0
  5  4  2  0
  6  7  1  0
  6  5  1  0
  7  8  1  6
  7  9  1  0
  9 10  2  0
 11 12  2  0
 12  2  1  0
 14 16  1  0
 14 13  1  6
 14 15  1  0
 17  9  1  0
 16 17  1  6
 18 16  1  0
 18 19  2  0
 20 21  1  0
 21 23  1  0
 21 22  2  0
 24 23  1  6
 24 25  1  0
 25 18  1  0
 26 24  1  0
 26 28  1  0
 27 26  2  0
M  END
$$$$
