YVN.pdb
     RDKit          3D

 28 28  0  0  1  0  0  0  0  0999 V2000
   20.4100  -15.4040  -18.4782 O   0  0  0  0  0  0  0  0  0  0  0  0
   20.4369  -16.4834  -17.6162 C   0  0  0  0  0  0  0  0  0  0  0  0
   20.9373  -17.6834  -18.0750 C   0  0  0  0  0  0  0  0  0  0  0  0
   20.9718  -18.7720  -17.2275 C   0  0  0  0  0  0  0  0  0  0  0  0
   20.5295  -18.7363  -15.9263 C   0  0  0  0  0  0  0  0  0  0  0  0
   20.5520  -19.8789  -14.9912 C   0  0  0  0  0  0  0  0  0  0  0  0
   21.8815  -20.0240  -14.2869 C   0  0  2  0  0  0  0  0  0  0  0  0
   22.8856  -20.3985  -15.2397 N   0  0  0  0  0  0  0  0  0  0  0  0
   21.8063  -20.9603  -13.1366 C   0  0  0  0  0  0  0  0  0  0  0  0
   22.0611  -22.1937  -13.2592 O   0  0  0  0  0  0  0  0  0  0  0  0
   20.0260  -17.5226  -15.4706 C   0  0  0  0  0  0  0  0  0  0  0  0
   19.9883  -16.4289  -16.3128 C   0  0  0  0  0  0  0  0  0  0  0  0
   22.0953  -21.7806   -8.3041 C   0  0  0  0  0  0  0  0  0  0  0  0
   22.1565  -20.8665   -9.5032 C   0  0  2  0  0  0  0  0  0  0  0  0
   21.6859  -19.4579   -9.1796 C   0  0  0  0  0  0  0  0  0  0  0  0
   21.3993  -21.4291  -10.6933 C   0  0  2  0  0  0  0  0  0  0  0  0
   21.4462  -20.5369  -11.8278 N   0  0  0  0  0  0  0  0  0  0  0  0
   20.0178  -21.7774  -10.2898 C   0  0  0  0  0  0  0  0  0  0  0  0
   19.0878  -20.9400  -10.1649 O   0  0  0  0  0  0  0  0  0  0  0  0
   16.5659  -23.9853  -12.2128 N   0  0  0  0  0  0  0  0  0  0  0  0
   17.7995  -24.5216  -11.7732 C   0  0  0  0  0  0  0  0  0  0  0  0
   18.7140  -24.7616  -12.5919 O   0  0  0  0  0  0  0  0  0  0  0  0
   18.0261  -24.8059  -10.3450 C   0  0  0  0  0  0  0  0  0  0  0  0
   18.3593  -23.5467   -9.5712 C   0  0  2  0  0  0  0  0  0  0  0  0
   19.7000  -23.1344  -10.0226 N   0  0  0  0  0  0  0  0  0  0  0  0
   18.3155  -23.7030   -8.1183 C   0  0  0  0  0  0  0  0  0  0  0  0
   19.2836  -24.1477   -7.4587 O   0  0  0  0  0  0  0  0  0  0  0  0
   17.1747  -23.3577   -7.3895 O   0  0  0  0  0  0  0  0  0  0  0  0
  2  1  1  0
  3  2  2  0
  4  3  1  0
  5 11  1  0
  5  4  2  0
  6  7  1  0
  6  5  1  0
  7  8  1  6
  7  9  1  0
  9 10  2  0
 11 12  2  0
 12  2  1  0
 14 16  1  0
 14 13  1  1
 14 15  1  0
 17  9  1  0
 16 17  1  6
 18 16  1  0
 18 19  2  0
 20 21  1  0
 21 23  1  0
 21 22  2  0
 24 23  1  6
 24 25  1  0
 25 18  1  0
 26 24  1  0
 26 28  1  0
 27 26  2  0
M  END
$$$$
