YVN.pdb
     RDKit          3D

 28 28  0  0  1  0  0  0  0  0999 V2000
   27.3302  -17.5179  -15.6856 O   0  0  0  0  0  0  0  0  0  0  0  0
   26.7375  -16.3287  -16.0645 C   0  0  0  0  0  0  0  0  0  0  0  0
   25.9096  -15.6877  -15.1675 C   0  0  0  0  0  0  0  0  0  0  0  0
   25.3093  -14.4989  -15.5291 C   0  0  0  0  0  0  0  0  0  0  0  0
   25.4875  -13.8993  -16.7533 C   0  0  0  0  0  0  0  0  0  0  0  0
   24.8636  -12.6288  -17.1744 C   0  0  0  0  0  0  0  0  0  0  0  0
   23.4107  -12.7965  -17.5563 C   0  0  2  0  0  0  0  0  0  0  0  0
   23.3119  -13.7026  -18.6633 N   0  0  0  0  0  0  0  0  0  0  0  0
   22.7479  -11.4943  -17.8216 C   0  0  0  0  0  0  0  0  0  0  0  0
   23.0615  -10.7727  -18.8126 O   0  0  0  0  0  0  0  0  0  0  0  0
   26.3238  -14.5517  -17.6528 C   0  0  0  0  0  0  0  0  0  0  0  0
   26.9280  -15.7416  -17.2981 C   0  0  0  0  0  0  0  0  0  0  0  0
   18.8309  -10.6062  -16.5361 C   0  0  0  0  0  0  0  0  0  0  0  0
   19.6136   -9.8831  -17.6046 C   0  0  2  0  0  0  0  0  0  0  0  0
   19.4844  -10.5490  -18.9648 C   0  0  0  0  0  0  0  0  0  0  0  0
   21.0737   -9.7060  -17.2262 C   0  0  2  0  0  0  0  0  0  0  0  0
   21.7218  -10.9739  -16.9859 N   0  0  0  0  0  0  0  0  0  0  0  0
   21.1855   -8.7744  -16.0807 C   0  0  0  0  0  0  0  0  0  0  0  0
   21.7910   -9.0418  -15.0114 O   0  0  0  0  0  0  0  0  0  0  0  0
   22.4477   -5.1519  -12.8277 N   0  0  0  0  0  0  0  0  0  0  0  0
   22.5726   -5.0296  -14.2320 C   0  0  0  0  0  0  0  0  0  0  0  0
   22.9506   -3.9527  -14.7435 O   0  0  0  0  0  0  0  0  0  0  0  0
   22.2594   -6.1683  -15.1136 C   0  0  0  0  0  0  0  0  0  0  0  0
   20.7737   -6.4640  -15.1372 C   0  0  2  0  0  0  0  0  0  0  0  0
   20.5800   -7.4943  -16.1728 N   0  0  0  0  0  0  0  0  0  0  0  0
   19.9308   -5.2965  -15.3889 C   0  0  0  0  0  0  0  0  0  0  0  0
   19.6088   -4.9341  -16.5444 O   0  0  0  0  0  0  0  0  0  0  0  0
   19.4390   -4.5210  -14.3360 O   0  0  0  0  0  0  0  0  0  0  0  0
  2  1  1  0
  3  2  2  0
  4  3  1  0
  5 11  1  0
  5  4  2  0
  6  7  1  0
  6  5  1  0
  7  8  1  6
  7  9  1  0
  9 10  2  0
 11 12  2  0
 12  2  1  0
 14 16  1  0
 14 13  1  1
 14 15  1  0
 17  9  1  0
 16 17  1  1
 18 16  1  0
 18 19  2  0
 20 21  1  0
 21 23  1  0
 21 22  2  0
 24 23  1  6
 24 25  1  0
 25 18  1  0
 26 24  1  0
 26 28  1  0
 27 26  2  0
M  END
$$$$
