YVN.pdb
     RDKit          3D

 28 28  0  0  1  0  0  0  0  0999 V2000
   14.4016  -16.0980  -19.5733 O   0  0  0  0  0  0  0  0  0  0  0  0
   15.1138  -15.1693  -18.8389 C   0  0  0  0  0  0  0  0  0  0  0  0
   15.0910  -15.2564  -17.4632 C   0  0  0  0  0  0  0  0  0  0  0  0
   15.7966  -14.3372  -16.7139 C   0  0  0  0  0  0  0  0  0  0  0  0
   16.5375  -13.3175  -17.2630 C   0  0  0  0  0  0  0  0  0  0  0  0
   17.3053  -12.3177  -16.4940 C   0  0  0  0  0  0  0  0  0  0  0  0
   18.7988  -12.4910  -16.6492 C   0  0  2  0  0  0  0  0  0  0  0  0
   19.1700  -13.8115  -16.2312 N   0  0  0  0  0  0  0  0  0  0  0  0
   19.5617  -11.4311  -15.9419 C   0  0  0  0  0  0  0  0  0  0  0  0
   19.4882  -11.2763  -14.6882 O   0  0  0  0  0  0  0  0  0  0  0  0
   16.5556  -13.2360  -18.6513 C   0  0  0  0  0  0  0  0  0  0  0  0
   15.8519  -14.1522  -19.4077 C   0  0  0  0  0  0  0  0  0  0  0  0
   23.0273   -9.6970  -17.6614 C   0  0  0  0  0  0  0  0  0  0  0  0
   22.6898   -9.6961  -16.1906 C   0  0  2  0  0  0  0  0  0  0  0  0
   23.2117  -10.9331  -15.4781 C   0  0  0  0  0  0  0  0  0  0  0  0
   21.2023   -9.5170  -15.9428 C   0  0  2  0  0  0  0  0  0  0  0  0
   20.4216  -10.5249  -16.6211 N   0  0  0  0  0  0  0  0  0  0  0  0
   20.7972   -8.1377  -16.2976 C   0  0  0  0  0  0  0  0  0  0  0  0
   20.0925   -7.8453  -17.2973 O   0  0  0  0  0  0  0  0  0  0  0  0
   19.6702   -3.1734  -15.9586 N   0  0  0  0  0  0  0  0  0  0  0  0
   18.7894   -4.2639  -15.7642 C   0  0  0  0  0  0  0  0  0  0  0  0
   17.5556   -4.0755  -15.6834 O   0  0  0  0  0  0  0  0  0  0  0  0
   19.3114   -5.6377  -15.6538 C   0  0  0  0  0  0  0  0  0  0  0  0
   20.8233   -5.6695  -15.7451 C   0  0  2  0  0  0  0  0  0  0  0  0
   21.2183   -7.0627  -15.4724 N   0  0  0  0  0  0  0  0  0  0  0  0
   21.5012   -4.7414  -14.8417 C   0  0  0  0  0  0  0  0  0  0  0  0
   22.2631   -5.1282  -13.9252 O   0  0  0  0  0  0  0  0  0  0  0  0
   21.3271   -3.3604  -14.9623 O   0  0  0  0  0  0  0  0  0  0  0  0
  2  1  1  0
  3  2  2  0
  4  3  1  0
  5 11  1  0
  5  4  2  0
  6  7  1  0
  6  5  1  0
  7  8  1  1
  7  9  1  0
  9 10  2  0
 11 12  2  0
 12  2  1  0
 14 16  1  0
 14 13  1  6
 14 15  1  0
 17  9  1  0
 16 17  1  6
 18 16  1  0
 18 19  2  0
 20 21  1  0
 21 23  1  0
 21 22  2  0
 24 23  1  1
 24 25  1  0
 25 18  1  0
 26 24  1  0
 26 28  1  0
 27 26  2  0
M  END
$$$$
