YVN.pdb
     RDKit          3D

 28 28  0  0  1  0  0  0  0  0999 V2000
   28.6355  -35.0357   -6.4824 O   0  0  0  0  0  0  0  0  0  0  0  0
   28.5647  -34.6139   -5.1686 C   0  0  0  0  0  0  0  0  0  0  0  0
   27.3944  -34.0384   -4.7214 C   0  0  0  0  0  0  0  0  0  0  0  0
   27.3060  -33.6114   -3.4122 C   0  0  0  0  0  0  0  0  0  0  0  0
   28.3326  -33.7254   -2.5048 C   0  0  0  0  0  0  0  0  0  0  0  0
   28.2739  -33.2816   -1.0976 C   0  0  0  0  0  0  0  0  0  0  0  0
   27.9801  -34.4174   -0.1446 C   0  0  2  0  0  0  0  0  0  0  0  0
   26.7278  -35.0210   -0.4964 N   0  0  0  0  0  0  0  0  0  0  0  0
   28.0276  -33.9835    1.2749 C   0  0  0  0  0  0  0  0  0  0  0  0
   29.0261  -33.3726    1.7554 O   0  0  0  0  0  0  0  0  0  0  0  0
   29.5099  -34.3067   -2.9631 C   0  0  0  0  0  0  0  0  0  0  0  0
   29.6058  -34.7364   -4.2720 C   0  0  0  0  0  0  0  0  0  0  0  0
   25.2360  -32.0809    3.2495 C   0  0  0  0  0  0  0  0  0  0  0  0
   25.6723  -33.2844    4.0486 C   0  0  2  0  0  0  0  0  0  0  0  0
   25.7028  -33.0051    5.5423 C   0  0  0  0  0  0  0  0  0  0  0  0
   27.0056  -33.8357    3.5747 C   0  0  2  0  0  0  0  0  0  0  0  0
   26.9609  -34.2228    2.1842 N   0  0  0  0  0  0  0  0  0  0  0  0
   27.4389  -34.9356    4.4662 C   0  0  0  0  0  0  0  0  0  0  0  0
   27.0331  -36.1221    4.3702 O   0  0  0  0  0  0  0  0  0  0  0  0
   29.2488  -37.7548    8.2262 N   0  0  0  0  0  0  0  0  0  0  0  0
   27.9025  -37.4335    7.9318 C   0  0  0  0  0  0  0  0  0  0  0  0
   26.9679  -38.0862    8.4464 O   0  0  0  0  0  0  0  0  0  0  0  0
   27.5803  -36.3257    7.0148 C   0  0  0  0  0  0  0  0  0  0  0  0
   28.8318  -35.6991    6.4346 C   0  0  2  0  0  0  0  0  0  0  0  0
   28.3700  -34.6574    5.5004 N   0  0  0  0  0  0  0  0  0  0  0  0
   29.7272  -36.6451    5.7710 C   0  0  0  0  0  0  0  0  0  0  0  0
   29.3532  -37.3776    4.8256 O   0  0  0  0  0  0  0  0  0  0  0  0
   31.0605  -36.7762    6.1673 O   0  0  0  0  0  0  0  0  0  0  0  0
  2  1  1  0
  3  2  2  0
  4  3  1  0
  5 11  1  0
  5  4  2  0
  6  7  1  0
  6  5  1  0
  7  8  1  6
  7  9  1  0
  9 10  2  0
 11 12  2  0
 12  2  1  0
 14 16  1  0
 14 13  1  6
 14 15  1  0
 17  9  1  0
 16 17  1  6
 18 16  1  0
 18 19  2  0
 20 21  1  0
 21 23  1  0
 21 22  2  0
 24 23  1  6
 24 25  1  0
 25 18  1  0
 26 24  1  0
 26 28  1  0
 27 26  2  0
M  END
$$$$
