YVN.pdb
     RDKit          3D

 28 28  0  0  1  0  0  0  0  0999 V2000
   27.7734  -13.0960  -17.6273 O   0  0  0  0  0  0  0  0  0  0  0  0
   27.1204  -14.2159  -17.1492 C   0  0  0  0  0  0  0  0  0  0  0  0
   27.1150  -14.4481  -15.7903 C   0  0  0  0  0  0  0  0  0  0  0  0
   26.4676  -15.5617  -15.2953 C   0  0  0  0  0  0  0  0  0  0  0  0
   25.8129  -16.4749  -16.0876 C   0  0  0  0  0  0  0  0  0  0  0  0
   25.1092  -17.6756  -15.5941 C   0  0  0  0  0  0  0  0  0  0  0  0
   26.0610  -18.7532  -15.1276 C   0  0  2  0  0  0  0  0  0  0  0  0
   26.8447  -19.2085  -16.2388 N   0  0  0  0  0  0  0  0  0  0  0  0
   25.3560  -19.8601  -14.4326 C   0  0  0  0  0  0  0  0  0  0  0  0
   24.7803  -20.7908  -15.0677 O   0  0  0  0  0  0  0  0  0  0  0  0
   25.8227  -16.2341  -17.4573 C   0  0  0  0  0  0  0  0  0  0  0  0
   26.4686  -15.1218  -17.9600 C   0  0  0  0  0  0  0  0  0  0  0  0
   25.0263  -20.2788   -9.9616 C   0  0  0  0  0  0  0  0  0  0  0  0
   25.1887  -21.3547  -11.0072 C   0  0  2  0  0  0  0  0  0  0  0  0
   26.6435  -21.7430  -11.2145 C   0  0  0  0  0  0  0  0  0  0  0  0
   24.5372  -20.9768  -12.3259 C   0  0  2  0  0  0  0  0  0  0  0  0
   25.2813  -19.9490  -13.0154 N   0  0  0  0  0  0  0  0  0  0  0  0
   23.1209  -20.6097  -12.0986 C   0  0  0  0  0  0  0  0  0  0  0  0
   22.7368  -19.4631  -11.7531 O   0  0  0  0  0  0  0  0  0  0  0  0
   18.5007  -19.0294  -12.9895 N   0  0  0  0  0  0  0  0  0  0  0  0
   19.1920  -19.9189  -13.8460 C   0  0  0  0  0  0  0  0  0  0  0  0
   18.6247  -20.4005  -14.8512 O   0  0  0  0  0  0  0  0  0  0  0  0
   20.5903  -20.2919  -13.5673 C   0  0  0  0  0  0  0  0  0  0  0  0
   20.6906  -21.2455  -12.3943 C   0  0  2  0  0  0  0  0  0  0  0  0
   22.1168  -21.5967  -12.2760 N   0  0  0  0  0  0  0  0  0  0  0  0
   19.8600  -22.4420  -12.5177 C   0  0  0  0  0  0  0  0  0  0  0  0
   20.1680  -23.4027  -13.2609 O   0  0  0  0  0  0  0  0  0  0  0  0
   18.6674  -22.5696  -11.8011 O   0  0  0  0  0  0  0  0  0  0  0  0
  2  1  1  0
  3  2  2  0
  4  3  1  0
  5 11  1  0
  5  4  2  0
  6  7  1  0
  6  5  1  0
  7  8  1  6
  7  9  1  0
  9 10  2  0
 11 12  2  0
 12  2  1  0
 14 16  1  0
 14 13  1  1
 14 15  1  0
 17  9  1  0
 16 17  1  1
 18 16  1  0
 18 19  2  0
 20 21  1  0
 21 23  1  0
 21 22  2  0
 24 23  1  6
 24 25  1  0
 25 18  1  0
 26 24  1  0
 26 28  1  0
 27 26  2  0
M  END
$$$$
