SSI.pdb
     RDKit          3D

 21 20  0  0  1  0  0  0  0  0999 V2000
   14.3630  -12.7234  -13.9884 O   0  0  0  0  0  0  0  0  0  0  0  0
   14.4792  -11.3662  -13.7038 C   0  0  0  0  0  0  0  0  0  0  0  0
   14.1458  -10.6057  -14.9675 C   0  0  2  0  0  0  0  0  0  0  0  0
   13.4937  -11.5548  -15.8733 N   0  0  0  0  0  0  0  0  0  0  0  0
   15.3426  -10.0899  -15.6532 C   0  0  0  0  0  0  0  0  0  0  0  0
   15.9109  -10.7317  -16.6030 O   0  0  0  0  0  0  0  0  0  0  0  0
   16.0279   -7.1693  -17.7095 O   0  0  0  0  0  0  0  0  0  0  0  0
   16.8177   -7.0163  -16.5929 C   0  0  0  0  0  0  0  0  0  0  0  0
   17.1644   -8.3687  -15.9848 C   0  0  2  0  0  0  0  0  0  0  0  0
   15.9620   -8.8486  -15.3222 N   0  0  0  0  0  0  0  0  0  0  0  0
   18.3018   -8.2534  -15.0443 C   0  0  0  0  0  0  0  0  0  0  0  0
   18.1478   -8.0679  -13.8073 O   0  0  0  0  0  0  0  0  0  0  0  0
   23.6183  -10.6942  -14.0466 C   0  0  0  0  0  0  0  0  0  0  0  0
   22.8148   -9.4356  -14.0261 C   0  0  0  0  0  0  0  0  0  0  0  0
   21.5608   -9.5306  -14.9059 C   0  0  2  0  0  0  0  0  0  0  0  0
   21.9835   -9.7968  -16.3225 C   0  0  0  0  0  0  0  0  0  0  0  0
   20.8120   -8.2519  -14.7145 C   0  0  2  0  0  0  0  0  0  0  0  0
   19.6043   -8.3537  -15.5428 N   0  0  0  0  0  0  0  0  0  0  0  0
   21.5217   -7.0384  -15.0884 C   0  0  0  0  0  0  0  0  0  0  0  0
   22.3341   -6.3617  -14.2014 O   0  0  0  0  0  0  0  0  0  0  0  0
   21.4038   -6.5798  -16.2459 O   0  0  0  0  0  0  0  0  0  0  0  0
  2  1  1  0
  3  4  1  6
  3  2  1  0
  5  3  1  0
  5  6  2  0
  7  8  1  0
  9  8  1  1
  9 10  1  0
  9 11  1  0
 10  5  1  0
 11 18  1  0
 11 12  2  0
 13 14  1  0
 14 15  1  0
 15 16  1  6
 17 15  1  0
 17 18  1  6
 19 20  1  0
 19 17  1  0
 21 19  2  0
M  END
$$$$
