SSI.pdb
     RDKit          3D

 21 20  0  0  1  0  0  0  0  0999 V2000
   18.2299  -14.9287  -19.3254 O   0  0  0  0  0  0  0  0  0  0  0  0
   18.5753  -14.2099  -18.1849 C   0  0  0  0  0  0  0  0  0  0  0  0
   20.0409  -14.4636  -17.9131 C   0  0  2  0  0  0  0  0  0  0  0  0
   20.1263  -15.7521  -17.2209 N   0  0  0  0  0  0  0  0  0  0  0  0
   20.6401  -13.4471  -17.0320 C   0  0  0  0  0  0  0  0  0  0  0  0
   20.0518  -13.0332  -15.9739 O   0  0  0  0  0  0  0  0  0  0  0  0
   24.7026  -12.5080  -16.1696 O   0  0  0  0  0  0  0  0  0  0  0  0
   23.9081  -11.6115  -16.8471 C   0  0  0  0  0  0  0  0  0  0  0  0
   22.4466  -11.7762  -16.4523 C   0  0  2  0  0  0  0  0  0  0  0  0
   21.9093  -12.8453  -17.2790 N   0  0  0  0  0  0  0  0  0  0  0  0
   21.7001  -10.5111  -16.6357 C   0  0  0  0  0  0  0  0  0  0  0  0
   21.3911  -10.0600  -17.7711 O   0  0  0  0  0  0  0  0  0  0  0  0
   17.1116   -9.7510  -16.1236 C   0  0  0  0  0  0  0  0  0  0  0  0
   18.5116   -9.3158  -16.4079 C   0  0  0  0  0  0  0  0  0  0  0  0
   19.2107   -8.7524  -15.1632 C   0  0  2  0  0  0  0  0  0  0  0  0
   18.4589   -7.5394  -14.6944 C   0  0  0  0  0  0  0  0  0  0  0  0
   20.6273   -8.4872  -15.5574 C   0  0  2  0  0  0  0  0  0  0  0  0
   21.3185   -9.7812  -15.5058 N   0  0  0  0  0  0  0  0  0  0  0  0
   21.3543   -7.5469  -14.7186 C   0  0  0  0  0  0  0  0  0  0  0  0
   22.2462   -7.9649  -13.7519 O   0  0  0  0  0  0  0  0  0  0  0  0
   21.1780   -6.3174  -14.8643 O   0  0  0  0  0  0  0  0  0  0  0  0
  2  1  1  0
  3  4  1  1
  3  2  1  0
  5  3  1  0
  5  6  2  0
  7  8  1  0
  9  8  1  6
  9 10  1  0
  9 11  1  0
 10  5  1  0
 11 18  1  0
 11 12  2  0
 13 14  1  0
 14 15  1  0
 15 16  1  6
 17 15  1  0
 17 18  1  1
 19 20  1  0
 19 17  1  0
 21 19  2  0
M  END
$$$$
