SSI.pdb
     RDKit          3D

 21 20  0  0  1  0  0  0  0  0999 V2000
   31.4853   -9.2472  -17.4188 O   0  0  0  0  0  0  0  0  0  0  0  0
   30.1198   -9.0386  -17.5877 C   0  0  0  0  0  0  0  0  0  0  0  0
   29.4890  -10.3780  -17.8951 C   0  0  2  0  0  0  0  0  0  0  0  0
   29.8202  -10.6924  -19.2873 N   0  0  0  0  0  0  0  0  0  0  0  0
   28.0208  -10.3540  -17.7837 C   0  0  0  0  0  0  0  0  0  0  0  0
   27.2798   -9.8258  -18.6830 O   0  0  0  0  0  0  0  0  0  0  0  0
   24.1039  -11.7704  -15.2427 O   0  0  0  0  0  0  0  0  0  0  0  0
   25.4706  -11.7416  -15.4023 C   0  0  0  0  0  0  0  0  0  0  0  0
   25.8625  -10.8269  -16.5551 C   0  0  2  0  0  0  0  0  0  0  0  0
   27.3092  -10.9095  -16.6796 N   0  0  0  0  0  0  0  0  0  0  0  0
   25.4099   -9.4388  -16.3106 C   0  0  0  0  0  0  0  0  0  0  0  0
   26.0661   -8.6207  -15.6117 O   0  0  0  0  0  0  0  0  0  0  0  0
   23.2720   -4.7583  -19.0866 C   0  0  0  0  0  0  0  0  0  0  0  0
   23.1926   -5.5712  -17.8364 C   0  0  0  0  0  0  0  0  0  0  0  0
   23.7806   -6.9773  -18.0175 C   0  0  2  0  0  0  0  0  0  0  0  0
   23.0656   -7.6579  -19.1497 C   0  0  0  0  0  0  0  0  0  0  0  0
   23.6450   -7.6656  -16.6983 C   0  0  2  0  0  0  0  0  0  0  0  0
   24.2049   -9.0109  -16.8760 N   0  0  0  0  0  0  0  0  0  0  0  0
   22.2892   -7.7985  -16.1880 C   0  0  0  0  0  0  0  0  0  0  0  0
   21.7017   -6.8248  -15.4061 O   0  0  0  0  0  0  0  0  0  0  0  0
   21.6203   -8.8206  -16.4564 O   0  0  0  0  0  0  0  0  0  0  0  0
  2  1  1  0
  3  4  1  6
  3  2  1  0
  5  3  1  0
  5  6  2  0
  7  8  1  0
  9  8  1  1
  9 10  1  0
  9 11  1  0
 10  5  1  0
 11 18  1  0
 11 12  2  0
 13 14  1  0
 14 15  1  0
 15 16  1  6
 17 15  1  0
 17 18  1  6
 19 20  1  0
 19 17  1  0
 21 19  2  0
M  END
$$$$
