SSI.pdb
     RDKit          3D

 21 20  0  0  1  0  0  0  0  0999 V2000
   19.9736  -13.7129  -15.7697 O   0  0  0  0  0  0  0  0  0  0  0  0
   18.9763  -13.4282  -16.6976 C   0  0  0  0  0  0  0  0  0  0  0  0
   19.3154  -12.1011  -17.3380 C   0  0  2  0  0  0  0  0  0  0  0  0
   20.6699  -12.2274  -17.8824 N   0  0  0  0  0  0  0  0  0  0  0  0
   19.3285  -10.9901  -16.3714 C   0  0  0  0  0  0  0  0  0  0  0  0
   18.2868  -10.6533  -15.7093 O   0  0  0  0  0  0  0  0  0  0  0  0
   21.8699   -7.6897  -13.8950 O   0  0  0  0  0  0  0  0  0  0  0  0
   21.8026   -8.8482  -14.6349 C   0  0  0  0  0  0  0  0  0  0  0  0
   20.4401   -8.9879  -15.3005 C   0  0  2  0  0  0  0  0  0  0  0  0
   20.4869  -10.2055  -16.0945 N   0  0  0  0  0  0  0  0  0  0  0  0
   20.1290   -7.8020  -16.1301 C   0  0  0  0  0  0  0  0  0  0  0  0
   20.5639   -7.6579  -17.3042 O   0  0  0  0  0  0  0  0  0  0  0  0
   15.9448   -4.6617  -18.4019 C   0  0  0  0  0  0  0  0  0  0  0  0
   17.2115   -4.5125  -17.6252 C   0  0  0  0  0  0  0  0  0  0  0  0
   17.6037   -5.8050  -16.8964 C   0  0  2  0  0  0  0  0  0  0  0  0
   16.5383   -6.1345  -15.8901 C   0  0  0  0  0  0  0  0  0  0  0  0
   18.9562   -5.5654  -16.3084 C   0  0  2  0  0  0  0  0  0  0  0  0
   19.3190   -6.7958  -15.5948 N   0  0  0  0  0  0  0  0  0  0  0  0
   19.0558   -4.4513  -15.3784 C   0  0  0  0  0  0  0  0  0  0  0  0
   19.0385   -4.6346  -14.0106 O   0  0  0  0  0  0  0  0  0  0  0  0
   19.1611   -3.2839  -15.8144 O   0  0  0  0  0  0  0  0  0  0  0  0
  2  1  1  0
  3  4  1  1
  3  2  1  0
  5  3  1  0
  5  6  2  0
  7  8  1  0
  9  8  1  6
  9 10  1  0
  9 11  1  0
 10  5  1  0
 11 18  1  0
 11 12  2  0
 13 14  1  0
 14 15  1  0
 15 16  1  1
 17 15  1  0
 17 18  1  1
 19 20  1  0
 19 17  1  0
 21 19  2  0
M  END
$$$$
