SSI.pdb
     RDKit          3D

 21 20  0  0  1  0  0  0  0  0999 V2000
   21.8525  -10.6129    5.8535 O   0  0  0  0  0  0  0  0  0  0  0  0
   21.3616  -11.7017    6.5677 C   0  0  0  0  0  0  0  0  0  0  0  0
   19.8641  -11.5297    6.6882 C   0  0  2  0  0  0  0  0  0  0  0  0
   19.6354  -10.5371    7.7414 N   0  0  0  0  0  0  0  0  0  0  0  0
   19.1800  -12.7696    7.0922 C   0  0  0  0  0  0  0  0  0  0  0  0
   19.2020  -13.1956    8.2985 O   0  0  0  0  0  0  0  0  0  0  0  0
   16.6882  -14.9669    4.4913 O   0  0  0  0  0  0  0  0  0  0  0  0
   16.4971  -14.9316    5.8538 C   0  0  0  0  0  0  0  0  0  0  0  0
   17.8296  -14.8460    6.5860 C   0  0  2  0  0  0  0  0  0  0  0  0
   18.4449  -13.5903    6.1866 N   0  0  0  0  0  0  0  0  0  0  0  0
   18.6896  -16.0069    6.2634 C   0  0  0  0  0  0  0  0  0  0  0  0
   19.4343  -16.0426    5.2473 O   0  0  0  0  0  0  0  0  0  0  0  0
   22.5886  -17.3040    8.7185 C   0  0  0  0  0  0  0  0  0  0  0  0
   21.4996  -17.3293    7.6970 C   0  0  0  0  0  0  0  0  0  0  0  0
   20.4589  -18.4208    7.9820 C   0  0  2  0  0  0  0  0  0  0  0  0
   21.1623  -19.7440    8.0848 C   0  0  0  0  0  0  0  0  0  0  0  0
   19.4503  -18.3410    6.8825 C   0  0  2  0  0  0  0  0  0  0  0  0
   18.6803  -17.1136    7.1180 N   0  0  0  0  0  0  0  0  0  0  0  0
   18.5189  -19.4549    6.7933 C   0  0  0  0  0  0  0  0  0  0  0  0
   18.6511  -20.4464    5.8424 O   0  0  0  0  0  0  0  0  0  0  0  0
   17.5626  -19.5326    7.5954 O   0  0  0  0  0  0  0  0  0  0  0  0
  2  1  1  0
  3  4  1  1
  3  2  1  0
  5  3  1  0
  5  6  2  0
  7  8  1  0
  9  8  1  6
  9 10  1  0
  9 11  1  0
 10  5  1  0
 11 18  1  0
 11 12  2  0
 13 14  1  0
 14 15  1  0
 15 16  1  6
 17 15  1  0
 17 18  1  1
 19 20  1  0
 19 17  1  0
 21 19  2  0
M  END
$$$$
