SSI.pdb
     RDKit          3D

 21 20  0  0  1  0  0  0  0  0999 V2000
   17.8127  -10.3213  -19.5472 O   0  0  0  0  0  0  0  0  0  0  0  0
   18.0027   -9.5840  -18.3824 C   0  0  0  0  0  0  0  0  0  0  0  0
   18.5944  -10.5132  -17.3466 C   0  0  2  0  0  0  0  0  0  0  0  0
   17.4774  -11.2545  -16.7554 N   0  0  0  0  0  0  0  0  0  0  0  0
   19.2731   -9.7917  -16.2569 C   0  0  0  0  0  0  0  0  0  0  0  0
   18.6780   -9.4968  -15.1633 O   0  0  0  0  0  0  0  0  0  0  0  0
   22.4674  -10.4616  -14.2217 O   0  0  0  0  0  0  0  0  0  0  0  0
   22.6250   -9.3443  -15.0096 C   0  0  0  0  0  0  0  0  0  0  0  0
   21.2887   -8.6521  -15.2420 C   0  0  2  0  0  0  0  0  0  0  0  0
   20.6324   -9.3657  -16.3261 N   0  0  0  0  0  0  0  0  0  0  0  0
   21.4802   -7.2197  -15.5631 C   0  0  0  0  0  0  0  0  0  0  0  0
   21.8190   -6.8168  -16.7082 O   0  0  0  0  0  0  0  0  0  0  0  0
   17.7802   -4.1129  -15.5455 C   0  0  0  0  0  0  0  0  0  0  0  0
   19.1814   -4.6074  -15.6940 C   0  0  0  0  0  0  0  0  0  0  0  0
   20.0608   -4.2357  -14.4923 C   0  0  2  0  0  0  0  0  0  0  0  0
   20.0519   -2.7423  -14.3307 C   0  0  0  0  0  0  0  0  0  0  0  0
   21.4098   -4.8203  -14.7584 C   0  0  2  0  0  0  0  0  0  0  0  0
   21.2780   -6.2685  -14.5584 N   0  0  0  0  0  0  0  0  0  0  0  0
   22.4892   -4.3382  -13.9106 C   0  0  0  0  0  0  0  0  0  0  0  0
   23.3915   -3.3874  -14.3425 O   0  0  0  0  0  0  0  0  0  0  0  0
   22.6185   -4.7883  -12.7510 O   0  0  0  0  0  0  0  0  0  0  0  0
  2  1  1  0
  3  4  1  1
  3  2  1  0
  5  3  1  0
  5  6  2  0
  7  8  1  0
  9  8  1  6
  9 10  1  0
  9 11  1  0
 10  5  1  0
 11 18  1  0
 11 12  2  0
 13 14  1  0
 14 15  1  0
 15 16  1  6
 17 15  1  0
 17 18  1  1
 19 20  1  0
 19 17  1  0
 21 19  2  0
M  END
$$$$
