SSI.pdb
     RDKit          3D

 21 20  0  0  1  0  0  0  0  0999 V2000
   15.4461  -11.7974  -16.0440 O   0  0  0  0  0  0  0  0  0  0  0  0
   15.7408  -12.8304  -16.9286 C   0  0  0  0  0  0  0  0  0  0  0  0
   16.1227  -12.2032  -18.2504 C   0  0  2  0  0  0  0  0  0  0  0  0
   16.3079  -13.3014  -19.2024 N   0  0  0  0  0  0  0  0  0  0  0  0
   17.3913  -11.4585  -18.1811 C   0  0  0  0  0  0  0  0  0  0  0  0
   18.5260  -12.0494  -18.1685 O   0  0  0  0  0  0  0  0  0  0  0  0
   17.5666   -7.2723  -17.6511 O   0  0  0  0  0  0  0  0  0  0  0  0
   18.4163   -7.8863  -18.5427 C   0  0  0  0  0  0  0  0  0  0  0  0
   18.7242   -9.3117  -18.1044 C   0  0  2  0  0  0  0  0  0  0  0  0
   17.4628  -10.0353  -18.1229 N   0  0  0  0  0  0  0  0  0  0  0  0
   19.3504   -9.3325  -16.7631 C   0  0  0  0  0  0  0  0  0  0  0  0
   18.6885   -9.5006  -15.7039 O   0  0  0  0  0  0  0  0  0  0  0  0
   22.3477  -11.8708  -14.7838 C   0  0  0  0  0  0  0  0  0  0  0  0
   22.6667  -11.0329  -15.9780 C   0  0  0  0  0  0  0  0  0  0  0  0
   22.8290   -9.5489  -15.6219 C   0  0  2  0  0  0  0  0  0  0  0  0
   23.7488   -9.4334  -14.4400 C   0  0  0  0  0  0  0  0  0  0  0  0
   21.4525   -9.0170  -15.3879 C   0  0  2  0  0  0  0  0  0  0  0  0
   20.7340   -9.1592  -16.6600 N   0  0  0  0  0  0  0  0  0  0  0  0
   21.3719   -7.6258  -14.9704 C   0  0  0  0  0  0  0  0  0  0  0  0
   21.2549   -6.5936  -15.8790 O   0  0  0  0  0  0  0  0  0  0  0  0
   21.4081   -7.3377  -13.7540 O   0  0  0  0  0  0  0  0  0  0  0  0
  2  1  1  0
  3  4  1  6
  3  2  1  0
  5  3  1  0
  5  6  2  0
  7  8  1  0
  9  8  1  1
  9 10  1  0
  9 11  1  0
 10  5  1  0
 11 18  1  0
 11 12  2  0
 13 14  1  0
 14 15  1  0
 15 16  1  1
 17 15  1  0
 17 18  1  6
 19 20  1  0
 19 17  1  0
 21 19  2  0
M  END
$$$$
