SSI.pdb
     RDKit          3D

 21 20  0  0  1  0  0  0  0  0999 V2000
   13.5828  -12.4075  -15.8134 O   0  0  0  0  0  0  0  0  0  0  0  0
   14.8692  -12.0019  -15.4709 C   0  0  0  0  0  0  0  0  0  0  0  0
   15.8325  -12.7178  -16.3908 C   0  0  2  0  0  0  0  0  0  0  0  0
   16.1560  -13.9965  -15.7529 N   0  0  0  0  0  0  0  0  0  0  0  0
   17.0953  -11.9829  -16.5750 C   0  0  0  0  0  0  0  0  0  0  0  0
   18.1842  -12.3519  -16.0138 O   0  0  0  0  0  0  0  0  0  0  0  0
   17.3195   -8.3391  -18.6701 O   0  0  0  0  0  0  0  0  0  0  0  0
   18.2983   -9.2869  -18.8636 C   0  0  0  0  0  0  0  0  0  0  0  0
   18.4796  -10.1415  -17.6163 C   0  0  2  0  0  0  0  0  0  0  0  0
   17.2111  -10.8135  -17.3832 N   0  0  0  0  0  0  0  0  0  0  0  0
   18.8841   -9.3132  -16.4580 C   0  0  0  0  0  0  0  0  0  0  0  0
   18.0750   -8.9529  -15.5614 O   0  0  0  0  0  0  0  0  0  0  0  0
   23.2123  -10.7597  -14.1601 C   0  0  0  0  0  0  0  0  0  0  0  0
   21.9144  -10.0680  -14.4192 C   0  0  0  0  0  0  0  0  0  0  0  0
   22.1103   -8.6396  -14.9454 C   0  0  2  0  0  0  0  0  0  0  0  0
   22.8798   -7.8502  -13.9250 C   0  0  0  0  0  0  0  0  0  0  0  0
   20.7458   -8.1060  -15.2388 C   0  0  2  0  0  0  0  0  0  0  0  0
   20.2185   -8.9104  -16.3477 N   0  0  0  0  0  0  0  0  0  0  0  0
   20.6810   -6.7037  -15.6201 C   0  0  0  0  0  0  0  0  0  0  0  0
   20.8693   -6.2890  -16.9229 O   0  0  0  0  0  0  0  0  0  0  0  0
   20.4482   -5.8329  -14.7532 O   0  0  0  0  0  0  0  0  0  0  0  0
  2  1  1  0
  3  4  1  1
  3  2  1  0
  5  3  1  0
  5  6  2  0
  7  8  1  0
  9  8  1  6
  9 10  1  0
  9 11  1  0
 10  5  1  0
 11 18  1  0
 11 12  2  0
 13 14  1  0
 14 15  1  0
 15 16  1  1
 17 15  1  0
 17 18  1  6
 19 20  1  0
 19 17  1  0
 21 19  2  0
M  END
$$$$
