TDM.pdb
     RDKit          3D

 24 23  0  0  1  0  0  0  0  0999 V2000
    8.1932  -12.4734   18.6334 C   0  0  0  0  0  0  0  0  0  0  0  0
    8.5464  -13.3052   19.8331 C   0  0  1  0  0  0  0  0  0  0  0  0
    8.1511  -12.6631   20.9970 O   0  0  0  0  0  0  0  0  0  0  0  0
    7.9515  -14.7029   19.7409 C   0  0  2  0  0  0  0  0  0  0  0  0
    6.5174  -14.5774   19.5670 N   0  0  0  0  0  0  0  0  0  0  0  0
    8.3143  -15.5319   20.8905 C   0  0  0  0  0  0  0  0  0  0  0  0
    7.4294  -15.6572   21.7999 O   0  0  0  0  0  0  0  0  0  0  0  0
    9.5568  -16.1973   21.0680 N   0  0  0  0  0  0  0  0  0  0  0  0
    9.8311  -16.8885   22.2821 C   0  0  1  0  0  0  0  0  0  0  0  0
   11.0376  -17.7995   22.1826 C   0  0  0  0  0  0  0  0  0  0  0  0
   11.3160  -18.5054   23.4361 C   0  0  0  0  0  0  0  0  0  0  0  0
   12.4000  -18.3162   24.0461 O   0  0  0  0  0  0  0  0  0  0  0  0
    9.9370  -15.9777   23.4582 C   0  0  0  0  0  0  0  0  0  0  0  0
   10.8463  -15.1139   23.4345 O   0  0  0  0  0  0  0  0  0  0  0  0
   10.4352  -19.4030   24.0216 O   0  0  0  0  0  0  0  0  0  0  0  0
    6.4219  -11.2872   25.8581 C   0  0  0  0  0  0  0  0  0  0  0  0
    6.6485  -12.3527   27.2823 S   0  0  0  0  0  0  0  0  0  0  0  0
    8.1019  -13.4247   27.0990 C   0  0  0  0  0  0  0  0  0  0  0  0
    7.9918  -14.3326   25.9159 C   0  0  0  0  0  0  0  0  0  0  0  0
    9.2013  -15.1780   25.7510 C   0  0  2  0  0  0  0  0  0  0  0  0
    9.0748  -16.0467   24.5725 N   0  0  0  0  0  0  0  0  0  0  0  0
    9.4943  -15.9484   26.9500 C   0  0  0  0  0  0  0  0  0  0  0  0
    9.8835  -15.3712   28.1285 O   0  0  0  0  0  0  0  0  0  0  0  0
    9.3883  -17.2048   26.9002 O   0  0  0  0  0  0  0  0  0  0  0  0
  2  1  1  6
  3  2  1  0
  4  2  1  0
  4  6  1  0
  4  5  1  1
  6  7  2  0
  8  6  1  0
  8  9  1  0
  9 10  1  6
 10 11  1  0
 11 12  2  0
 13  9  1  0
 13 21  1  0
 14 13  2  0
 15 11  1  0
 16 17  1  0
 18 17  1  0
 19 18  1  0
 20 21  1  0
 20 19  1  1
 22 20  1  0
 23 22  1  0
 24 22  2  0
M  END
$$$$
