TDM.pdb
     RDKit          3D

 24 23  0  0  1  0  0  0  0  0999 V2000
    9.6394  -12.4576   19.8421 C   0  0  0  0  0  0  0  0  0  0  0  0
    8.3344  -12.9963   19.3293 C   0  0  1  0  0  0  0  0  0  0  0  0
    7.9326  -12.2928   18.2038 O   0  0  0  0  0  0  0  0  0  0  0  0
    8.4157  -14.4902   19.0504 C   0  0  2  0  0  0  0  0  0  0  0  0
    7.1303  -14.9299   18.5434 N   0  0  0  0  0  0  0  0  0  0  0  0
    8.8522  -15.2457   20.2246 C   0  0  0  0  0  0  0  0  0  0  0  0
    7.9875  -15.4066   21.1480 O   0  0  0  0  0  0  0  0  0  0  0  0
   10.1445  -15.8051   20.4118 N   0  0  0  0  0  0  0  0  0  0  0  0
   10.4146  -16.6174   21.5495 C   0  0  1  0  0  0  0  0  0  0  0  0
   11.6800  -17.4375   21.4018 C   0  0  0  0  0  0  0  0  0  0  0  0
   11.6934  -18.2374   20.1741 C   0  0  0  0  0  0  0  0  0  0  0  0
   10.6782  -18.8979   19.8335 O   0  0  0  0  0  0  0  0  0  0  0  0
   10.4155  -15.8473   22.8264 C   0  0  0  0  0  0  0  0  0  0  0  0
   10.9702  -14.7222   22.8171 O   0  0  0  0  0  0  0  0  0  0  0  0
   12.7887  -18.3222   19.3271 O   0  0  0  0  0  0  0  0  0  0  0  0
    5.2729  -12.9859   26.3891 C   0  0  0  0  0  0  0  0  0  0  0  0
    7.0301  -12.8383   26.0648 S   0  0  0  0  0  0  0  0  0  0  0  0
    7.7428  -14.4026   25.4816 C   0  0  0  0  0  0  0  0  0  0  0  0
    9.2066  -14.2885   25.1979 C   0  0  0  0  0  0  0  0  0  0  0  0
    9.8948  -15.6005   25.2974 C   0  0  2  0  0  0  0  0  0  0  0  0
    9.8307  -16.3223   24.0190 N   0  0  0  0  0  0  0  0  0  0  0  0
    9.3729  -16.4073   26.3899 C   0  0  0  0  0  0  0  0  0  0  0  0
    9.5113  -16.0566   27.7058 O   0  0  0  0  0  0  0  0  0  0  0  0
    8.7688  -17.4799   26.1122 O   0  0  0  0  0  0  0  0  0  0  0  0
  2  1  1  6
  3  2  1  0
  4  2  1  0
  4  6  1  0
  4  5  1  1
  6  7  2  0
  8  6  1  0
  8  9  1  0
  9 10  1  6
 10 11  1  0
 11 12  2  0
 13  9  1  0
 13 21  1  0
 14 13  2  0
 15 11  1  0
 16 17  1  0
 18 17  1  0
 19 18  1  0
 20 21  1  0
 20 19  1  6
 22 20  1  0
 23 22  1  0
 24 22  2  0
M  END
$$$$
