TDM.pdb
     RDKit          3D

 24 23  0  0  1  0  0  0  0  0999 V2000
    9.5913  -12.5352   19.5700 C   0  0  0  0  0  0  0  0  0  0  0  0
    8.3345  -13.1330   19.0049 C   0  0  1  0  0  0  0  0  0  0  0  0
    7.9994  -12.5098   17.8122 O   0  0  0  0  0  0  0  0  0  0  0  0
    8.4608  -14.6392   18.8277 C   0  0  2  0  0  0  0  0  0  0  0  0
    7.2298  -15.1342   18.2427 N   0  0  0  0  0  0  0  0  0  0  0  0
    8.8063  -15.3130   20.0795 C   0  0  0  0  0  0  0  0  0  0  0  0
    7.8617  -15.4589   20.9235 O   0  0  0  0  0  0  0  0  0  0  0  0
   10.0928  -15.8093   20.4210 N   0  0  0  0  0  0  0  0  0  0  0  0
   10.2681  -16.5945   21.5956 C   0  0  1  0  0  0  0  0  0  0  0  0
   11.5401  -17.4172   21.5710 C   0  0  0  0  0  0  0  0  0  0  0  0
   11.5206  -18.4548   20.5365 C   0  0  0  0  0  0  0  0  0  0  0  0
   10.5051  -19.1814   20.3827 O   0  0  0  0  0  0  0  0  0  0  0  0
   10.1658  -15.7946   22.8500 C   0  0  0  0  0  0  0  0  0  0  0  0
   11.0225  -14.8957   23.0283 O   0  0  0  0  0  0  0  0  0  0  0  0
   12.5839  -18.7034   19.6809 O   0  0  0  0  0  0  0  0  0  0  0  0
    5.4434  -12.0068   26.4957 C   0  0  0  0  0  0  0  0  0  0  0  0
    7.2292  -12.1674   26.5015 S   0  0  0  0  0  0  0  0  0  0  0  0
    7.7506  -13.9026   26.6124 C   0  0  0  0  0  0  0  0  0  0  0  0
    7.8566  -14.5503   25.2688 C   0  0  0  0  0  0  0  0  0  0  0  0
    9.1299  -15.2981   25.1123 C   0  0  2  0  0  0  0  0  0  0  0  0
    9.1666  -16.0032   23.8236 N   0  0  0  0  0  0  0  0  0  0  0  0
    9.3666  -16.2078   26.2228 C   0  0  0  0  0  0  0  0  0  0  0  0
    9.6036  -15.7767   27.5001 O   0  0  0  0  0  0  0  0  0  0  0  0
    9.3565  -17.4494   25.9977 O   0  0  0  0  0  0  0  0  0  0  0  0
  2  1  1  6
  3  2  1  0
  4  2  1  0
  4  6  1  0
  4  5  1  1
  6  7  2  0
  8  6  1  0
  8  9  1  0
  9 10  1  6
 10 11  1  0
 11 12  2  0
 13  9  1  0
 13 21  1  0
 14 13  2  0
 15 11  1  0
 16 17  1  0
 18 17  1  0
 19 18  1  0
 20 21  1  0
 20 19  1  1
 22 20  1  0
 23 22  1  0
 24 22  2  0
M  END
$$$$
