TDM.pdb
     RDKit          3D

 24 23  0  0  1  0  0  0  0  0999 V2000
    8.5550  -13.0884   19.8960 C   0  0  0  0  0  0  0  0  0  0  0  0
    7.3602  -13.9514   19.6064 C   0  0  1  0  0  0  0  0  0  0  0  0
    6.7489  -13.5473   18.4290 O   0  0  0  0  0  0  0  0  0  0  0  0
    7.7321  -15.4264   19.5608 C   0  0  2  0  0  0  0  0  0  0  0  0
    6.5269  -16.1929   19.3105 N   0  0  0  0  0  0  0  0  0  0  0  0
    8.4364  -15.8534   20.7699 C   0  0  0  0  0  0  0  0  0  0  0  0
    7.7078  -16.2169   21.7511 O   0  0  0  0  0  0  0  0  0  0  0  0
    9.8472  -15.8936   20.9317 N   0  0  0  0  0  0  0  0  0  0  0  0
   10.4141  -16.3364   22.1604 C   0  0  1  0  0  0  0  0  0  0  0  0
   11.9254  -16.4314   22.1124 C   0  0  0  0  0  0  0  0  0  0  0  0
   12.4036  -17.8165   22.1137 C   0  0  0  0  0  0  0  0  0  0  0  0
   11.7249  -18.7239   22.6604 O   0  0  0  0  0  0  0  0  0  0  0  0
    9.9598  -15.5342   23.3325 C   0  0  0  0  0  0  0  0  0  0  0  0
    9.2391  -14.5344   23.0984 O   0  0  0  0  0  0  0  0  0  0  0  0
   13.5986  -18.2147   21.5324 O   0  0  0  0  0  0  0  0  0  0  0  0
    6.1152  -11.4132   27.4679 C   0  0  0  0  0  0  0  0  0  0  0  0
    6.7543  -12.3371   26.0705 S   0  0  0  0  0  0  0  0  0  0  0  0
    8.0058  -13.5499   26.5786 C   0  0  0  0  0  0  0  0  0  0  0  0
    8.6921  -14.1809   25.4093 C   0  0  0  0  0  0  0  0  0  0  0  0
    9.6810  -15.2044   25.8327 C   0  0  2  0  0  0  0  0  0  0  0  0
   10.3003  -15.8469   24.6652 N   0  0  0  0  0  0  0  0  0  0  0  0
    9.0958  -16.1872   26.7319 C   0  0  0  0  0  0  0  0  0  0  0  0
    8.8538  -17.4828   26.3623 O   0  0  0  0  0  0  0  0  0  0  0  0
    8.7946  -15.8284   27.9037 O   0  0  0  0  0  0  0  0  0  0  0  0
  2  1  1  6
  3  2  1  0
  4  2  1  0
  4  6  1  0
  4  5  1  1
  6  7  2  0
  8  6  1  0
  8  9  1  0
  9 10  1  6
 10 11  1  0
 11 12  2  0
 13  9  1  0
 13 21  1  0
 14 13  2  0
 15 11  1  0
 16 17  1  0
 18 17  1  0
 19 18  1  0
 20 21  1  0
 20 19  1  6
 22 20  1  0
 23 22  1  0
 24 22  2  0
M  END
$$$$
