TDM.pdb
     RDKit          3D

 24 23  0  0  1  0  0  0  0  0999 V2000
    8.0072  -12.4807   17.8880 C   0  0  0  0  0  0  0  0  0  0  0  0
    8.1247  -13.7033   18.7528 C   0  0  1  0  0  0  0  0  0  0  0  0
    8.2260  -14.8409   17.9662 O   0  0  0  0  0  0  0  0  0  0  0  0
    9.2922  -13.5934   19.7229 C   0  0  2  0  0  0  0  0  0  0  0  0
   10.5147  -13.4710   18.9529 N   0  0  0  0  0  0  0  0  0  0  0  0
    9.3263  -14.7076   20.6703 C   0  0  0  0  0  0  0  0  0  0  0  0
    8.2732  -14.8925   21.3651 O   0  0  0  0  0  0  0  0  0  0  0  0
   10.4250  -15.5852   20.8720 N   0  0  0  0  0  0  0  0  0  0  0  0
   10.3577  -16.5981   21.8703 C   0  0  1  0  0  0  0  0  0  0  0  0
   11.4669  -17.6228   21.7468 C   0  0  0  0  0  0  0  0  0  0  0  0
   11.5469  -18.2082   20.4059 C   0  0  0  0  0  0  0  0  0  0  0  0
   10.6087  -18.9216   19.9656 O   0  0  0  0  0  0  0  0  0  0  0  0
   10.2828  -16.0466   23.2538 C   0  0  0  0  0  0  0  0  0  0  0  0
   11.3608  -15.6935   23.7894 O   0  0  0  0  0  0  0  0  0  0  0  0
   12.6259  -18.0253   19.5534 O   0  0  0  0  0  0  0  0  0  0  0  0
    6.3812  -11.1841   27.8588 C   0  0  0  0  0  0  0  0  0  0  0  0
    6.2729  -12.4114   26.5562 S   0  0  0  0  0  0  0  0  0  0  0  0
    7.7436  -13.4742   26.5060 C   0  0  0  0  0  0  0  0  0  0  0  0
    7.7447  -14.3860   25.3208 C   0  0  0  0  0  0  0  0  0  0  0  0
    8.9727  -15.2188   25.2627 C   0  0  2  0  0  0  0  0  0  0  0  0
    9.0751  -15.9090   23.9694 N   0  0  0  0  0  0  0  0  0  0  0  0
    9.0472  -16.1564   26.3728 C   0  0  0  0  0  0  0  0  0  0  0  0
    9.4368  -15.7885   27.6324 O   0  0  0  0  0  0  0  0  0  0  0  0
    8.7426  -17.3631   26.1644 O   0  0  0  0  0  0  0  0  0  0  0  0
  2  1  1  6
  3  2  1  0
  4  2  1  0
  4  6  1  0
  4  5  1  6
  6  7  2  0
  8  6  1  0
  8  9  1  0
  9 10  1  1
 10 11  1  0
 11 12  2  0
 13  9  1  0
 13 21  1  0
 14 13  2  0
 15 11  1  0
 16 17  1  0
 18 17  1  0
 19 18  1  0
 20 21  1  0
 20 19  1  6
 22 20  1  0
 23 22  1  0
 24 22  2  0
M  END
$$$$
