VFE.pdb
     RDKit          3D

 28 28  0  0  1  0  0  0  0  0999 V2000
    9.8319  -18.8494   20.2629 C   0  0  0  0  0  0  0  0  0  0  0  0
    8.3622  -18.5267   20.0946 C   0  0  2  0  0  0  0  0  0  0  0  0
    7.8562  -19.3496   18.9277 C   0  0  0  0  0  0  0  0  0  0  0  0
    8.1592  -17.0726   19.7305 C   0  0  2  0  0  0  0  0  0  0  0  0
    8.8810  -16.8188   18.5021 N   0  0  0  0  0  0  0  0  0  0  0  0
    8.6270  -16.1562   20.8047 C   0  0  0  0  0  0  0  0  0  0  0  0
    9.8196  -15.7616   20.8760 O   0  0  0  0  0  0  0  0  0  0  0  0
    7.7250  -15.7138   21.7685 N   0  0  0  0  0  0  0  0  0  0  0  0
    8.0990  -14.9083   22.9564 C   0  0  1  0  0  0  0  0  0  0  0  0
    6.7872  -14.3254   23.4037 C   0  0  0  0  0  0  0  0  0  0  0  0
    6.8907  -13.6161   24.6789 C   0  0  0  0  0  0  0  0  0  0  0  0
    7.4608  -12.3583   24.7256 C   0  0  0  0  0  0  0  0  0  0  0  0
    7.5927  -11.6958   25.9352 C   0  0  0  0  0  0  0  0  0  0  0  0
    7.1455  -12.3132   27.0795 C   0  0  0  0  0  0  0  0  0  0  0  0
    6.5725  -13.5695   27.0479 C   0  0  0  0  0  0  0  0  0  0  0  0
    6.4424  -14.2276   25.8453 C   0  0  0  0  0  0  0  0  0  0  0  0
    8.8142  -15.7165   23.9173 C   0  0  0  0  0  0  0  0  0  0  0  0
    8.4038  -16.8730   24.2328 O   0  0  0  0  0  0  0  0  0  0  0  0
    9.9970  -15.2773   24.5426 N   0  0  0  0  0  0  0  0  0  0  0  0
   10.9471  -16.2775   25.0436 C   0  0  1  0  0  0  0  0  0  0  0  0
   12.3522  -15.8559   24.6302 C   0  0  0  0  0  0  0  0  0  0  0  0
   13.3314  -16.8060   25.2492 C   0  0  0  0  0  0  0  0  0  0  0  0
   14.7427  -16.4338   24.8954 C   0  0  0  0  0  0  0  0  0  0  0  0
   15.6361  -16.9680   25.5993 O   0  0  0  0  0  0  0  0  0  0  0  0
   10.8638  -16.3116   26.4926 C   0  0  0  0  0  0  0  0  0  0  0  0
   10.3526  -15.3827   27.1404 O   0  0  0  0  0  0  0  0  0  0  0  0
   15.0838  -15.5787   23.8877 O   0  0  0  0  0  0  0  0  0  0  0  0
   11.3689  -17.4223   27.1970 O   0  0  0  0  0  0  0  0  0  0  0  0
  2  3  1  6
  2  1  1  0
  4  2  1  0
  4  5  1  6
  6  4  1  0
  6  7  2  0
  8  6  1  0
  9  8  1  0
  9 10  1  1
 10 11  1  0
 11 12  2  0
 11 16  1  0
 12 13  1  0
 13 14  2  0
 15 14  1  0
 16 15  2  0
 17  9  1  0
 18 17  2  0
 19 17  1  0
 20 21  1  1
 20 19  1  0
 22 23  1  0
 22 21  1  0
 23 24  2  0
 25 28  1  0
 25 20  1  0
 26 25  2  0
 27 23  1  0
M  END
$$$$
