VFE.pdb
     RDKit          3D

 28 28  0  0  1  0  0  0  0  0999 V2000
    7.8728  -16.2504   17.2281 C   0  0  0  0  0  0  0  0  0  0  0  0
    8.4719  -15.9090   18.5761 C   0  0  2  0  0  0  0  0  0  0  0  0
    8.0822  -17.0188   19.5307 C   0  0  0  0  0  0  0  0  0  0  0  0
    7.8868  -14.6272   19.1264 C   0  0  2  0  0  0  0  0  0  0  0  0
    8.1839  -13.5662   18.1881 N   0  0  0  0  0  0  0  0  0  0  0  0
    8.4299  -14.2963   20.4712 C   0  0  0  0  0  0  0  0  0  0  0  0
    9.6326  -13.9713   20.6461 O   0  0  0  0  0  0  0  0  0  0  0  0
    7.5894  -14.3444   21.5799 N   0  0  0  0  0  0  0  0  0  0  0  0
    8.0344  -14.1191   22.9767 C   0  0  1  0  0  0  0  0  0  0  0  0
    6.8894  -13.3570   23.5839 C   0  0  0  0  0  0  0  0  0  0  0  0
    7.0710  -13.1112   25.0146 C   0  0  0  0  0  0  0  0  0  0  0  0
    6.3479  -13.8413   25.9383 C   0  0  0  0  0  0  0  0  0  0  0  0
    6.4902  -13.5897   27.2932 C   0  0  0  0  0  0  0  0  0  0  0  0
    7.3618  -12.6052   27.6950 C   0  0  0  0  0  0  0  0  0  0  0  0
    8.0920  -11.8683   26.7833 C   0  0  0  0  0  0  0  0  0  0  0  0
    7.9496  -12.1185   25.4366 C   0  0  0  0  0  0  0  0  0  0  0  0
    8.3920  -15.3693   23.6069 C   0  0  0  0  0  0  0  0  0  0  0  0
    7.6141  -16.3686   23.5647 O   0  0  0  0  0  0  0  0  0  0  0  0
    9.6120  -15.5511   24.2863 N   0  0  0  0  0  0  0  0  0  0  0  0
    9.8639  -16.8304   24.9602 C   0  0  1  0  0  0  0  0  0  0  0  0
   11.2543  -17.3156   24.5675 C   0  0  0  0  0  0  0  0  0  0  0  0
   11.3200  -17.4003   23.0731 C   0  0  0  0  0  0  0  0  0  0  0  0
   12.6806  -17.8426   22.6165 C   0  0  0  0  0  0  0  0  0  0  0  0
   13.5092  -18.0766   23.5318 O   0  0  0  0  0  0  0  0  0  0  0  0
    9.8189  -16.6155   26.3954 C   0  0  0  0  0  0  0  0  0  0  0  0
    9.6649  -15.4829   26.8826 O   0  0  0  0  0  0  0  0  0  0  0  0
   13.0420  -17.9952   21.3092 O   0  0  0  0  0  0  0  0  0  0  0  0
    9.9485  -17.7109   27.2718 O   0  0  0  0  0  0  0  0  0  0  0  0
  2  3  1  1
  2  1  1  0
  4  2  1  0
  4  5  1  6
  6  4  1  0
  6  7  2  0
  8  6  1  0
  9  8  1  0
  9 10  1  1
 10 11  1  0
 11 12  2  0
 11 16  1  0
 12 13  1  0
 13 14  2  0
 15 14  1  0
 16 15  2  0
 17  9  1  0
 18 17  2  0
 19 17  1  0
 20 21  1  1
 20 19  1  0
 22 23  1  0
 22 21  1  0
 23 24  2  0
 25 28  1  0
 25 20  1  0
 26 25  2  0
 27 23  1  0
M  END
$$$$
