VFE.pdb
     RDKit          3D

 28 28  0  0  1  0  0  0  0  0999 V2000
    9.1630  -18.6273   20.4300 C   0  0  0  0  0  0  0  0  0  0  0  0
    8.0632  -17.7020   19.9540 C   0  0  2  0  0  0  0  0  0  0  0  0
    7.6460  -18.1772   18.5774 C   0  0  0  0  0  0  0  0  0  0  0  0
    8.5694  -16.2852   19.7974 C   0  0  2  0  0  0  0  0  0  0  0  0
    9.7095  -16.3182   18.9067 N   0  0  0  0  0  0  0  0  0  0  0  0
    8.9489  -15.6792   21.1019 C   0  0  0  0  0  0  0  0  0  0  0  0
   10.1292  -15.7098   21.5363 O   0  0  0  0  0  0  0  0  0  0  0  0
    7.9748  -15.0550   21.8762 N   0  0  0  0  0  0  0  0  0  0  0  0
    8.2006  -14.5410   23.2490 C   0  0  1  0  0  0  0  0  0  0  0  0
    6.9872  -13.6900   23.5018 C   0  0  0  0  0  0  0  0  0  0  0  0
    6.9148  -13.2060   24.8804 C   0  0  0  0  0  0  0  0  0  0  0  0
    7.6788  -12.1239   25.2737 C   0  0  0  0  0  0  0  0  0  0  0  0
    7.6405  -11.6821   26.5862 C   0  0  0  0  0  0  0  0  0  0  0  0
    6.8300  -12.3392   27.4818 C   0  0  0  0  0  0  0  0  0  0  0  0
    6.0600  -13.4213   27.1027 C   0  0  0  0  0  0  0  0  0  0  0  0
    6.0991  -13.8603   25.7980 C   0  0  0  0  0  0  0  0  0  0  0  0
    8.4363  -15.6295   24.1698 C   0  0  0  0  0  0  0  0  0  0  0  0
    7.5842  -16.5553   24.3192 O   0  0  0  0  0  0  0  0  0  0  0  0
    9.6134  -15.7292   24.9363 N   0  0  0  0  0  0  0  0  0  0  0  0
    9.8125  -16.9152   25.7778 C   0  0  1  0  0  0  0  0  0  0  0  0
   10.9140  -17.7662   25.1570 C   0  0  0  0  0  0  0  0  0  0  0  0
   12.1300  -16.9089   24.9806 C   0  0  0  0  0  0  0  0  0  0  0  0
   13.0669  -17.5022   23.9680 C   0  0  0  0  0  0  0  0  0  0  0  0
   13.5417  -18.6274   24.2637 O   0  0  0  0  0  0  0  0  0  0  0  0
   10.2291  -16.4817   27.0993 C   0  0  0  0  0  0  0  0  0  0  0  0
   10.4344  -17.2918   28.0188 O   0  0  0  0  0  0  0  0  0  0  0  0
   13.4110  -16.9005   22.7921 O   0  0  0  0  0  0  0  0  0  0  0  0
   10.4128  -15.1095   27.3605 O   0  0  0  0  0  0  0  0  0  0  0  0
  2  3  1  6
  2  1  1  0
  4  2  1  0
  4  5  1  6
  6  4  1  0
  6  7  2  0
  8  6  1  0
  9  8  1  0
  9 10  1  1
 10 11  1  0
 11 12  2  0
 11 16  1  0
 12 13  1  0
 13 14  2  0
 15 14  1  0
 16 15  2  0
 17  9  1  0
 18 17  2  0
 19 17  1  0
 20 21  1  6
 20 19  1  0
 22 23  1  0
 22 21  1  0
 23 24  2  0
 25 28  1  0
 25 20  1  0
 26 25  2  0
 27 23  1  0
M  END
$$$$
