VFE.pdb
     RDKit          3D

 28 28  0  0  1  0  0  0  0  0999 V2000
    9.1395  -20.0397   19.8511 C   0  0  0  0  0  0  0  0  0  0  0  0
    9.4824  -19.0014   20.8985 C   0  0  2  0  0  0  0  0  0  0  0  0
    9.2080  -19.6257   22.2512 C   0  0  0  0  0  0  0  0  0  0  0  0
    8.5856  -17.7889   20.7815 C   0  0  2  0  0  0  0  0  0  0  0  0
    8.6754  -17.3012   19.4219 N   0  0  0  0  0  0  0  0  0  0  0  0
    8.9644  -16.7179   21.7419 C   0  0  0  0  0  0  0  0  0  0  0  0
   10.0200  -16.0458   21.6129 O   0  0  0  0  0  0  0  0  0  0  0  0
    8.1315  -16.4412   22.8225 N   0  0  0  0  0  0  0  0  0  0  0  0
    8.4115  -15.4102   23.8513 C   0  0  1  0  0  0  0  0  0  0  0  0
    7.0393  -14.9851   24.2948 C   0  0  0  0  0  0  0  0  0  0  0  0
    7.0740  -14.0572   25.4253 C   0  0  0  0  0  0  0  0  0  0  0  0
    6.9613  -14.5367   26.7163 C   0  0  0  0  0  0  0  0  0  0  0  0
    6.9592  -13.6601   27.7891 C   0  0  0  0  0  0  0  0  0  0  0  0
    7.0722  -12.3122   27.5420 C   0  0  0  0  0  0  0  0  0  0  0  0
    7.1868  -11.8188   26.2571 C   0  0  0  0  0  0  0  0  0  0  0  0
    7.1882  -12.6907   25.1912 C   0  0  0  0  0  0  0  0  0  0  0  0
    9.2933  -15.9316   24.8705 C   0  0  0  0  0  0  0  0  0  0  0  0
    9.0733  -17.0556   25.4124 O   0  0  0  0  0  0  0  0  0  0  0  0
   10.4371  -15.2363   25.3078 N   0  0  0  0  0  0  0  0  0  0  0  0
   11.4908  -15.9773   26.0113 C   0  0  1  0  0  0  0  0  0  0  0  0
   12.8397  -15.3895   25.6139 C   0  0  0  0  0  0  0  0  0  0  0  0
   13.9118  -16.1184   26.3649 C   0  0  0  0  0  0  0  0  0  0  0  0
   15.0438  -16.5008   25.4551 C   0  0  0  0  0  0  0  0  0  0  0  0
   14.9190  -16.1445   24.2566 O   0  0  0  0  0  0  0  0  0  0  0  0
   11.2985  -15.8124   27.4409 C   0  0  0  0  0  0  0  0  0  0  0  0
   10.6813  -14.8414   27.9101 O   0  0  0  0  0  0  0  0  0  0  0  0
   16.1536  -17.1880   25.8540 O   0  0  0  0  0  0  0  0  0  0  0  0
   11.8170  -16.7722   28.3324 O   0  0  0  0  0  0  0  0  0  0  0  0
  2  3  1  1
  2  1  1  0
  4  2  1  0
  4  5  1  6
  6  4  1  0
  6  7  2  0
  8  6  1  0
  9  8  1  0
  9 10  1  1
 10 11  1  0
 11 12  2  0
 11 16  1  0
 12 13  1  0
 13 14  2  0
 15 14  1  0
 16 15  2  0
 17  9  1  0
 18 17  2  0
 19 17  1  0
 20 21  1  6
 20 19  1  0
 22 23  1  0
 22 21  1  0
 23 24  2  0
 25 28  1  0
 25 20  1  0
 26 25  2  0
 27 23  1  0
M  END
$$$$
