VFE.pdb
     RDKit          3D

 28 28  0  0  1  0  0  0  0  0999 V2000
   10.0191  -19.2709   19.5498 C   0  0  0  0  0  0  0  0  0  0  0  0
   10.1873  -18.4184   20.7898 C   0  0  2  0  0  0  0  0  0  0  0  0
    9.4292  -19.1040   21.9079 C   0  0  0  0  0  0  0  0  0  0  0  0
    9.5622  -17.0535   20.6046 C   0  0  2  0  0  0  0  0  0  0  0  0
   10.1597  -16.4480   19.4338 N   0  0  0  0  0  0  0  0  0  0  0  0
    9.7574  -16.1825   21.7947 C   0  0  0  0  0  0  0  0  0  0  0  0
   10.8893  -15.7432   22.1244 O   0  0  0  0  0  0  0  0  0  0  0  0
    8.6593  -15.8353   22.5767 N   0  0  0  0  0  0  0  0  0  0  0  0
    8.7383  -15.0232   23.8153 C   0  0  1  0  0  0  0  0  0  0  0  0
    7.4022  -14.3354   23.8617 C   0  0  0  0  0  0  0  0  0  0  0  0
    7.2150  -13.5480   25.0802 C   0  0  0  0  0  0  0  0  0  0  0  0
    8.0294  -12.4604   25.3319 C   0  0  0  0  0  0  0  0  0  0  0  0
    7.8795  -11.7313   26.5003 C   0  0  0  0  0  0  0  0  0  0  0  0
    6.9084  -12.1108   27.3967 C   0  0  0  0  0  0  0  0  0  0  0  0
    6.0864  -13.1947   27.1580 C   0  0  0  0  0  0  0  0  0  0  0  0
    6.2364  -13.9194   25.9966 C   0  0  0  0  0  0  0  0  0  0  0  0
    9.0846  -15.8512   24.9479 C   0  0  0  0  0  0  0  0  0  0  0  0
    8.3273  -16.7952   25.3232 O   0  0  0  0  0  0  0  0  0  0  0  0
   10.2707  -15.6667   25.6841 N   0  0  0  0  0  0  0  0  0  0  0  0
   10.5690  -16.5857   26.7890 C   0  0  1  0  0  0  0  0  0  0  0  0
   12.0717  -16.8392   26.8118 C   0  0  0  0  0  0  0  0  0  0  0  0
   12.4967  -17.2803   25.4444 C   0  0  0  0  0  0  0  0  0  0  0  0
   13.7407  -18.1190   25.5099 C   0  0  0  0  0  0  0  0  0  0  0  0
   14.2187  -18.2897   26.6595 O   0  0  0  0  0  0  0  0  0  0  0  0
   10.1700  -15.9573   28.0355 C   0  0  0  0  0  0  0  0  0  0  0  0
   10.1887  -16.5739   29.1141 O   0  0  0  0  0  0  0  0  0  0  0  0
   14.3491  -18.6799   24.4244 O   0  0  0  0  0  0  0  0  0  0  0  0
    9.7511  -14.6122   28.0388 O   0  0  0  0  0  0  0  0  0  0  0  0
  2  3  1  1
  2  1  1  0
  4  2  1  0
  4  5  1  6
  6  4  1  0
  6  7  2  0
  8  6  1  0
  9  8  1  0
  9 10  1  1
 10 11  1  0
 11 12  2  0
 11 16  1  0
 12 13  1  0
 13 14  2  0
 15 14  1  0
 16 15  2  0
 17  9  1  0
 18 17  2  0
 19 17  1  0
 20 21  1  1
 20 19  1  0
 22 23  1  0
 22 21  1  0
 23 24  2  0
 25 28  1  0
 25 20  1  0
 26 25  2  0
 27 23  1  0
M  END
$$$$
