VFE.pdb
     RDKit          3D

 28 28  0  0  1  0  0  0  0  0999 V2000
    9.1979  -18.7553   20.1925 C   0  0  0  0  0  0  0  0  0  0  0  0
    8.0092  -17.9136   19.7789 C   0  0  2  0  0  0  0  0  0  0  0  0
    7.5184  -18.4571   18.4527 C   0  0  0  0  0  0  0  0  0  0  0  0
    8.4124  -16.4747   19.5444 C   0  0  2  0  0  0  0  0  0  0  0  0
    9.4771  -16.4672   18.5642 N   0  0  0  0  0  0  0  0  0  0  0  0
    8.8572  -15.8070   20.7971 C   0  0  0  0  0  0  0  0  0  0  0  0
   10.0695  -15.7420   21.1271 O   0  0  0  0  0  0  0  0  0  0  0  0
    7.9102  -15.2316   21.6398 N   0  0  0  0  0  0  0  0  0  0  0  0
    8.2261  -14.5977   22.9430 C   0  0  1  0  0  0  0  0  0  0  0  0
    6.9535  -13.8776   23.2929 C   0  0  0  0  0  0  0  0  0  0  0  0
    6.9879  -13.2895   24.6320 C   0  0  0  0  0  0  0  0  0  0  0  0
    7.7044  -12.1300   24.8590 C   0  0  0  0  0  0  0  0  0  0  0  0
    7.7689  -11.5870   26.1319 C   0  0  0  0  0  0  0  0  0  0  0  0
    7.1077  -12.2226   27.1564 C   0  0  0  0  0  0  0  0  0  0  0  0
    6.3868  -13.3813   26.9440 C   0  0  0  0  0  0  0  0  0  0  0  0
    6.3236  -13.9208   25.6786 C   0  0  0  0  0  0  0  0  0  0  0  0
    8.6986  -15.5826   23.8890 C   0  0  0  0  0  0  0  0  0  0  0  0
    8.1721  -16.7334   23.9522 O   0  0  0  0  0  0  0  0  0  0  0  0
    9.7623  -15.3288   24.7762 N   0  0  0  0  0  0  0  0  0  0  0  0
   10.5659  -16.4576   25.2602 C   0  0  1  0  0  0  0  0  0  0  0  0
   12.0018  -16.2638   24.7873 C   0  0  0  0  0  0  0  0  0  0  0  0
   12.8546  -17.3190   25.4231 C   0  0  0  0  0  0  0  0  0  0  0  0
   14.2928  -17.1671   25.0188 C   0  0  0  0  0  0  0  0  0  0  0  0
   15.0315  -18.1535   25.2651 O   0  0  0  0  0  0  0  0  0  0  0  0
   10.5355  -16.4599   26.7118 C   0  0  0  0  0  0  0  0  0  0  0  0
   10.0228  -15.5298   27.3567 O   0  0  0  0  0  0  0  0  0  0  0  0
   14.8114  -16.0546   24.4218 O   0  0  0  0  0  0  0  0  0  0  0  0
   11.0955  -17.5401   27.4220 O   0  0  0  0  0  0  0  0  0  0  0  0
  2  3  1  6
  2  1  1  0
  4  2  1  0
  4  5  1  6
  6  4  1  0
  6  7  2  0
  8  6  1  0
  9  8  1  0
  9 10  1  1
 10 11  1  0
 11 12  2  0
 11 16  1  0
 12 13  1  0
 13 14  2  0
 15 14  1  0
 16 15  2  0
 17  9  1  0
 18 17  2  0
 19 17  1  0
 20 21  1  1
 20 19  1  0
 22 23  1  0
 22 21  1  0
 23 24  2  0
 25 28  1  0
 25 20  1  0
 26 25  2  0
 27 23  1  0
M  END
$$$$
