VFE.pdb
     RDKit          3D

 28 28  0  0  1  0  0  0  0  0999 V2000
    9.2082  -19.4326   19.0573 C   0  0  0  0  0  0  0  0  0  0  0  0
    9.5068  -18.5248   20.2317 C   0  0  2  0  0  0  0  0  0  0  0  0
    8.9431  -19.1953   21.4676 C   0  0  0  0  0  0  0  0  0  0  0  0
    8.7999  -17.1951   20.0894 C   0  0  2  0  0  0  0  0  0  0  0  0
    9.1945  -16.6172   18.8226 N   0  0  0  0  0  0  0  0  0  0  0  0
    9.1243  -16.2666   21.2054 C   0  0  0  0  0  0  0  0  0  0  0  0
   10.2608  -15.7419   21.3310 O   0  0  0  0  0  0  0  0  0  0  0  0
    8.1464  -15.9608   22.1479 N   0  0  0  0  0  0  0  0  0  0  0  0
    8.3571  -15.0643   23.3106 C   0  0  1  0  0  0  0  0  0  0  0  0
    6.9914  -14.4825   23.5485 C   0  0  0  0  0  0  0  0  0  0  0  0
    6.9252  -13.6796   24.7696 C   0  0  0  0  0  0  0  0  0  0  0  0
    7.6189  -12.4874   24.8510 C   0  0  0  0  0  0  0  0  0  0  0  0
    7.5877  -11.7394   26.0168 C   0  0  0  0  0  0  0  0  0  0  0  0
    6.8552  -12.2063   27.0826 C   0  0  0  0  0  0  0  0  0  0  0  0
    6.1559  -13.3954   27.0153 C   0  0  0  0  0  0  0  0  0  0  0  0
    6.1879  -14.1387   25.8564 C   0  0  0  0  0  0  0  0  0  0  0  0
    8.9587  -15.7851   24.4091 C   0  0  0  0  0  0  0  0  0  0  0  0
    8.4013  -16.8114   24.9007 O   0  0  0  0  0  0  0  0  0  0  0  0
   10.1861  -15.4012   24.9828 N   0  0  0  0  0  0  0  0  0  0  0  0
   10.8387  -16.3093   25.9334 C   0  0  1  0  0  0  0  0  0  0  0  0
   12.3458  -16.1033   25.8385 C   0  0  0  0  0  0  0  0  0  0  0  0
   12.8149  -16.6483   24.5241 C   0  0  0  0  0  0  0  0  0  0  0  0
   14.2861  -16.4133   24.3360 C   0  0  0  0  0  0  0  0  0  0  0  0
   14.9927  -16.5536   25.3656 O   0  0  0  0  0  0  0  0  0  0  0  0
   10.3928  -15.9758   27.2743 C   0  0  0  0  0  0  0  0  0  0  0  0
    9.6297  -15.0195   27.4908 O   0  0  0  0  0  0  0  0  0  0  0  0
   14.8652  -16.0690   23.1489 O   0  0  0  0  0  0  0  0  0  0  0  0
   10.8259  -16.7499   28.3689 O   0  0  0  0  0  0  0  0  0  0  0  0
  2  3  1  1
  2  1  1  0
  4  2  1  0
  4  5  1  6
  6  4  1  0
  6  7  2  0
  8  6  1  0
  9  8  1  0
  9 10  1  1
 10 11  1  0
 11 12  2  0
 11 16  1  0
 12 13  1  0
 13 14  2  0
 15 14  1  0
 16 15  2  0
 17  9  1  0
 18 17  2  0
 19 17  1  0
 20 21  1  1
 20 19  1  0
 22 23  1  0
 22 21  1  0
 23 24  2  0
 25 28  1  0
 25 20  1  0
 26 25  2  0
 27 23  1  0
M  END
$$$$
