VFE.pdb
     RDKit          3D

 28 28  0  0  1  0  0  0  0  0999 V2000
    9.1986  -19.1071   18.9059 C   0  0  0  0  0  0  0  0  0  0  0  0
    9.4452  -18.4016   20.2228 C   0  0  2  0  0  0  0  0  0  0  0  0
    8.4490  -18.9577   21.2194 C   0  0  0  0  0  0  0  0  0  0  0  0
    9.1740  -16.9179   20.1081 C   0  0  2  0  0  0  0  0  0  0  0  0
    9.9638  -16.4071   19.0082 N   0  0  0  0  0  0  0  0  0  0  0  0
    9.5027  -16.1904   21.3633 C   0  0  0  0  0  0  0  0  0  0  0  0
   10.6893  -15.9971   21.7341 O   0  0  0  0  0  0  0  0  0  0  0  0
    8.4720  -15.7028   22.1621 N   0  0  0  0  0  0  0  0  0  0  0  0
    8.6751  -15.0042   23.4546 C   0  0  1  0  0  0  0  0  0  0  0  0
    7.4405  -14.1560   23.5850 C   0  0  0  0  0  0  0  0  0  0  0  0
    7.3684  -13.4584   24.8688 C   0  0  0  0  0  0  0  0  0  0  0  0
    6.3639  -13.7657   25.7665 C   0  0  0  0  0  0  0  0  0  0  0  0
    6.2700  -13.0848   26.9694 C   0  0  0  0  0  0  0  0  0  0  0  0
    7.1929  -12.1044   27.2481 C   0  0  0  0  0  0  0  0  0  0  0  0
    8.2028  -11.7874   26.3610 C   0  0  0  0  0  0  0  0  0  0  0  0
    8.2952  -12.4642   25.1653 C   0  0  0  0  0  0  0  0  0  0  0  0
    8.9282  -15.9535   24.5143 C   0  0  0  0  0  0  0  0  0  0  0  0
    8.1563  -16.9398   24.7064 O   0  0  0  0  0  0  0  0  0  0  0  0
   10.0363  -15.8457   25.3765 N   0  0  0  0  0  0  0  0  0  0  0  0
   10.3664  -16.9774   26.2510 C   0  0  1  0  0  0  0  0  0  0  0  0
   11.7659  -17.4665   25.8973 C   0  0  0  0  0  0  0  0  0  0  0  0
   12.1595  -18.5238   26.8832 C   0  0  0  0  0  0  0  0  0  0  0  0
   13.5350  -19.0504   26.5901 C   0  0  0  0  0  0  0  0  0  0  0  0
   13.9749  -19.8990   27.4058 O   0  0  0  0  0  0  0  0  0  0  0  0
   10.3528  -16.5187   27.6284 C   0  0  0  0  0  0  0  0  0  0  0  0
   10.2846  -17.3129   28.5815 O   0  0  0  0  0  0  0  0  0  0  0  0
   14.2956  -18.6657   25.5241 O   0  0  0  0  0  0  0  0  0  0  0  0
   10.4213  -15.1395   27.9077 O   0  0  0  0  0  0  0  0  0  0  0  0
  2  3  1  1
  2  1  1  0
  4  2  1  0
  4  5  1  6
  6  4  1  0
  6  7  2  0
  8  6  1  0
  9  8  1  0
  9 10  1  1
 10 11  1  0
 11 12  2  0
 11 16  1  0
 12 13  1  0
 13 14  2  0
 15 14  1  0
 16 15  2  0
 17  9  1  0
 18 17  2  0
 19 17  1  0
 20 21  1  6
 20 19  1  0
 22 23  1  0
 22 21  1  0
 23 24  2  0
 25 28  1  0
 25 20  1  0
 26 25  2  0
 27 23  1  0
M  END
$$$$
