VCW.pdb
     RDKit          3D

 28 29  0  0  1  0  0  0  0  0999 V2000
   22.4986  -13.7330  -20.2213 C   0  0  0  0  0  0  0  0  0  0  0  0
   23.8179  -13.6436  -20.9335 C   0  0  2  0  0  0  0  0  0  0  0  0
   23.6666  -14.3033  -22.2815 C   0  0  0  0  0  0  0  0  0  0  0  0
   24.9316  -14.2390  -20.1197 C   0  0  2  0  0  0  0  0  0  0  0  0
   24.6038  -15.6168  -19.8359 N   0  0  0  0  0  0  0  0  0  0  0  0
   25.0896  -13.4256  -18.8718 C   0  0  0  0  0  0  0  0  0  0  0  0
   24.4849  -13.8259  -17.8427 O   0  0  0  0  0  0  0  0  0  0  0  0
   25.8536  -12.2682  -18.7797 N   0  0  0  0  0  0  0  0  0  0  0  0
   26.0608  -11.4653  -17.6128 C   0  0  1  0  0  0  0  0  0  0  0  0
   27.4678  -11.0277  -17.3572 C   0  0  0  0  0  0  0  0  0  0  0  0
   27.6029   -9.9936  -15.8715 S   0  0  0  0  0  0  0  0  0  0  0  0
   25.0412  -10.4135  -17.4767 C   0  0  0  0  0  0  0  0  0  0  0  0
   24.7466   -9.6646  -18.4824 O   0  0  0  0  0  0  0  0  0  0  0  0
   24.2916  -10.1017  -16.3007 N   0  0  0  0  0  0  0  0  0  0  0  0
   23.4262   -8.9438  -16.2661 C   0  0  1  0  0  0  0  0  0  0  0  0
   22.5272   -8.7910  -15.1140 C   0  0  0  0  0  0  0  0  0  0  0  0
   21.5742   -7.7016  -15.1151 C   0  0  0  0  0  0  0  0  0  0  0  0
   20.2449   -7.8455  -15.5474 C   0  0  0  0  0  0  0  0  0  0  0  0
   19.6385   -6.6692  -15.4739 N   0  0  0  0  0  0  0  0  0  0  0  0
   20.4924   -5.7334  -15.0098 C   0  0  0  0  0  0  0  0  0  0  0  0
   20.3421   -4.3879  -14.7497 C   0  0  0  0  0  0  0  0  0  0  0  0
   21.3817   -3.6311  -14.2558 C   0  0  0  0  0  0  0  0  0  0  0  0
   22.5687   -4.2595  -14.0313 C   0  0  0  0  0  0  0  0  0  0  0  0
   22.7293   -5.6085  -14.2917 C   0  0  0  0  0  0  0  0  0  0  0  0
   21.7047   -6.3941  -14.7882 C   0  0  0  0  0  0  0  0  0  0  0  0
   24.2795   -7.6914  -16.4453 C   0  0  0  0  0  0  0  0  0  0  0  0
   25.4350   -7.5448  -15.7007 O   0  0  0  0  0  0  0  0  0  0  0  0
   23.9796   -6.7830  -17.2421 O   0  0  0  0  0  0  0  0  0  0  0  0
  2  3  1  6
  2  1  1  0
  4  2  1  0
  4  5  1  1
  6  7  2  0
  6  4  1  0
  8  6  1  0
  9 12  1  0
  9  8  1  0
  9 10  1  6
 11 10  1  0
 12 13  2  0
 14 15  1  0
 14 12  1  0
 15 16  1  1
 17 16  1  0
 18 17  2  0
 19 20  1  0
 19 18  1  0
 20 25  2  0
 21 22  2  0
 21 20  1  0
 22 23  1  0
 23 24  2  0
 25 24  1  0
 25 17  1  0
 26 15  1  0
 26 27  1  0
 28 26  2  0
M  END
$$$$
