VCW.pdb
     RDKit          3D

 28 29  0  0  1  0  0  0  0  0999 V2000
   26.0207  -15.7711  -15.7930 C   0  0  0  0  0  0  0  0  0  0  0  0
   25.1244  -14.6163  -16.1376 C   0  0  2  0  0  0  0  0  0  0  0  0
   25.1318  -13.6559  -14.9745 C   0  0  0  0  0  0  0  0  0  0  0  0
   23.7404  -15.0745  -16.5007 C   0  0  2  0  0  0  0  0  0  0  0  0
   23.8496  -16.1046  -17.5073 N   0  0  0  0  0  0  0  0  0  0  0  0
   22.9640  -13.8887  -16.9855 C   0  0  0  0  0  0  0  0  0  0  0  0
   23.3797  -13.3138  -18.0255 O   0  0  0  0  0  0  0  0  0  0  0  0
   21.8254  -13.3881  -16.3653 N   0  0  0  0  0  0  0  0  0  0  0  0
   21.0238  -12.2848  -16.8007 C   0  0  1  0  0  0  0  0  0  0  0  0
   19.7651  -12.6337  -17.5290 C   0  0  0  0  0  0  0  0  0  0  0  0
   19.2521  -14.3482  -17.2245 S   0  0  0  0  0  0  0  0  0  0  0  0
   20.8815  -11.2582  -15.7565 C   0  0  0  0  0  0  0  0  0  0  0  0
   21.1855  -11.5318  -14.5352 O   0  0  0  0  0  0  0  0  0  0  0  0
   20.4236   -9.9169  -15.9385 N   0  0  0  0  0  0  0  0  0  0  0  0
   20.5921   -8.9342  -14.8912 C   0  0  1  0  0  0  0  0  0  0  0  0
   21.9557   -8.6611  -14.4169 C   0  0  0  0  0  0  0  0  0  0  0  0
   22.4622   -7.3076  -14.4977 C   0  0  0  0  0  0  0  0  0  0  0  0
   21.9760   -6.2577  -13.7003 C   0  0  0  0  0  0  0  0  0  0  0  0
   22.6004   -5.1376  -14.0357 N   0  0  0  0  0  0  0  0  0  0  0  0
   23.4894   -5.3775  -15.0217 C   0  0  0  0  0  0  0  0  0  0  0  0
   24.3728   -4.5596  -15.6935 C   0  0  0  0  0  0  0  0  0  0  0  0
   25.2053   -5.0529  -16.6739 C   0  0  0  0  0  0  0  0  0  0  0  0
   25.1268   -6.3822  -16.9584 C   0  0  0  0  0  0  0  0  0  0  0  0
   24.2417   -7.2098  -16.2913 C   0  0  0  0  0  0  0  0  0  0  0  0
   23.3932   -6.7439  -15.3032 C   0  0  0  0  0  0  0  0  0  0  0  0
   19.9092   -7.6394  -15.3224 C   0  0  0  0  0  0  0  0  0  0  0  0
   19.2807   -6.8547  -14.3736 O   0  0  0  0  0  0  0  0  0  0  0  0
   19.8917   -7.2512  -16.5052 O   0  0  0  0  0  0  0  0  0  0  0  0
  2  3  1  1
  2  1  1  0
  4  2  1  0
  4  5  1  6
  6  7  2  0
  6  4  1  0
  8  6  1  0
  9 12  1  0
  9  8  1  0
  9 10  1  1
 11 10  1  0
 12 13  2  0
 14 15  1  0
 14 12  1  0
 15 16  1  6
 17 16  1  0
 18 17  2  0
 19 20  1  0
 19 18  1  0
 20 25  2  0
 21 22  2  0
 21 20  1  0
 22 23  1  0
 23 24  2  0
 25 24  1  0
 25 17  1  0
 26 15  1  0
 26 27  1  0
 28 26  2  0
M  END
$$$$
