VCW.pdb
     RDKit          3D

 28 29  0  0  1  0  0  0  0  0999 V2000
   26.1529  -16.5238  -16.4788 C   0  0  0  0  0  0  0  0  0  0  0  0
   26.0506  -17.3993  -15.2627 C   0  0  2  0  0  0  0  0  0  0  0  0
   27.4472  -17.7972  -14.8548 C   0  0  0  0  0  0  0  0  0  0  0  0
   25.1584  -18.5840  -15.5027 C   0  0  2  0  0  0  0  0  0  0  0  0
   23.9008  -18.1090  -16.0312 N   0  0  0  0  0  0  0  0  0  0  0  0
   24.9881  -19.3154  -14.2066 C   0  0  0  0  0  0  0  0  0  0  0  0
   24.3423  -18.7325  -13.2966 O   0  0  0  0  0  0  0  0  0  0  0  0
   25.4937  -20.5839  -13.9480 N   0  0  0  0  0  0  0  0  0  0  0  0
   25.3248  -21.3490  -12.7498 C   0  0  1  0  0  0  0  0  0  0  0  0
   25.3865  -22.8351  -12.9045 C   0  0  0  0  0  0  0  0  0  0  0  0
   24.0208  -23.4745  -13.9149 S   0  0  0  0  0  0  0  0  0  0  0  0
   26.1045  -20.8010  -11.6290 C   0  0  0  0  0  0  0  0  0  0  0  0
   27.2981  -20.3591  -11.8268 O   0  0  0  0  0  0  0  0  0  0  0  0
   25.6781  -20.6893  -10.2697 N   0  0  0  0  0  0  0  0  0  0  0  0
   26.5898  -20.2216   -9.2494 C   0  0  1  0  0  0  0  0  0  0  0  0
   26.0292  -19.4705   -8.1178 C   0  0  0  0  0  0  0  0  0  0  0  0
   26.9273  -18.9869   -7.0908 C   0  0  0  0  0  0  0  0  0  0  0  0
   27.4713  -17.6913   -7.0954 C   0  0  0  0  0  0  0  0  0  0  0  0
   28.2867  -17.5630   -6.0583 N   0  0  0  0  0  0  0  0  0  0  0  0
   28.3205  -18.7095   -5.3480 C   0  0  0  0  0  0  0  0  0  0  0  0
   28.9947  -19.0707   -4.2011 C   0  0  0  0  0  0  0  0  0  0  0  0
   28.8520  -20.3243   -3.6483 C   0  0  0  0  0  0  0  0  0  0  0  0
   28.0179  -21.1992   -4.2751 C   0  0  0  0  0  0  0  0  0  0  0  0
   27.3392  -20.8463   -5.4277 C   0  0  0  0  0  0  0  0  0  0  0  0
   27.4627  -19.5961   -6.0065 C   0  0  0  0  0  0  0  0  0  0  0  0
   27.4102  -21.4065   -8.7478 C   0  0  0  0  0  0  0  0  0  0  0  0
   28.7688  -21.2534   -8.5427 O   0  0  0  0  0  0  0  0  0  0  0  0
   26.9062  -22.5200   -8.5109 O   0  0  0  0  0  0  0  0  0  0  0  0
  2  3  1  6
  2  1  1  0
  4  2  1  0
  4  5  1  1
  6  7  2  0
  6  4  1  0
  8  6  1  0
  9 12  1  0
  9  8  1  0
  9 10  1  6
 11 10  1  0
 12 13  2  0
 14 15  1  0
 14 12  1  0
 15 16  1  1
 17 16  1  0
 18 17  2  0
 19 20  1  0
 19 18  1  0
 20 25  2  0
 21 22  2  0
 21 20  1  0
 22 23  1  0
 23 24  2  0
 25 24  1  0
 25 17  1  0
 26 15  1  0
 26 27  1  0
 28 26  2  0
M  END
$$$$
