VCW.pdb
     RDKit          3D

 28 29  0  0  1  0  0  0  0  0999 V2000
   26.3815  -18.8676  -15.3503 C   0  0  0  0  0  0  0  0  0  0  0  0
   27.5826  -18.8798  -14.4487 C   0  0  2  0  0  0  0  0  0  0  0  0
   28.7084  -18.1722  -15.1607 C   0  0  0  0  0  0  0  0  0  0  0  0
   27.9498  -20.2749  -14.0291 C   0  0  2  0  0  0  0  0  0  0  0  0
   28.2969  -21.0307  -15.2101 N   0  0  0  0  0  0  0  0  0  0  0  0
   26.7847  -20.8688  -13.2985 C   0  0  0  0  0  0  0  0  0  0  0  0
   25.9765  -21.5625  -13.9698 O   0  0  0  0  0  0  0  0  0  0  0  0
   26.5419  -20.7033  -11.9401 N   0  0  0  0  0  0  0  0  0  0  0  0
   25.3791  -21.1214  -11.2172 C   0  0  1  0  0  0  0  0  0  0  0  0
   25.4875  -21.0954   -9.7260 C   0  0  0  0  0  0  0  0  0  0  0  0
   27.1945  -20.8287   -9.1692 S   0  0  0  0  0  0  0  0  0  0  0  0
   24.1459  -20.5379  -11.7679 C   0  0  0  0  0  0  0  0  0  0  0  0
   24.1543  -19.3424  -12.2473 O   0  0  0  0  0  0  0  0  0  0  0  0
   22.8659  -21.1686  -11.8438 N   0  0  0  0  0  0  0  0  0  0  0  0
   21.8894  -20.7350  -12.8180 C   0  0  1  0  0  0  0  0  0  0  0  0
   22.2593  -20.7996  -14.2386 C   0  0  0  0  0  0  0  0  0  0  0  0
   21.3047  -20.3455  -15.2273 C   0  0  0  0  0  0  0  0  0  0  0  0
   21.0479  -18.9869  -15.4783 C   0  0  0  0  0  0  0  0  0  0  0  0
   20.0981  -18.8910  -16.3979 N   0  0  0  0  0  0  0  0  0  0  0  0
   19.6991  -20.1203  -16.7850 C   0  0  0  0  0  0  0  0  0  0  0  0
   18.7643  -20.5453  -17.7049 C   0  0  0  0  0  0  0  0  0  0  0  0
   18.5423  -21.8848  -17.9372 C   0  0  0  0  0  0  0  0  0  0  0  0
   19.2811  -22.7798  -17.2250 C   0  0  0  0  0  0  0  0  0  0  0  0
   20.2194  -22.3625  -16.2982 C   0  0  0  0  0  0  0  0  0  0  0  0
   20.4642  -21.0253  -16.0427 C   0  0  0  0  0  0  0  0  0  0  0  0
   20.5863  -21.4903  -12.5724 C   0  0  0  0  0  0  0  0  0  0  0  0
   19.3813  -20.8254  -12.7025 O   0  0  0  0  0  0  0  0  0  0  0  0
   20.5574  -22.6942  -12.2562 O   0  0  0  0  0  0  0  0  0  0  0  0
  2  3  1  6
  2  1  1  0
  4  2  1  0
  4  5  1  6
  6  7  2  0
  6  4  1  0
  8  6  1  0
  9 12  1  0
  9  8  1  0
  9 10  1  1
 11 10  1  0
 12 13  2  0
 14 15  1  0
 14 12  1  0
 15 16  1  6
 17 16  1  0
 18 17  2  0
 19 20  1  0
 19 18  1  0
 20 25  2  0
 21 22  2  0
 21 20  1  0
 22 23  1  0
 23 24  2  0
 25 24  1  0
 25 17  1  0
 26 15  1  0
 26 27  1  0
 28 26  2  0
M  END
$$$$
