VCW.pdb
     RDKit          3D

 28 29  0  0  1  0  0  0  0  0999 V2000
   28.3368  -20.8888  -19.5100 C   0  0  0  0  0  0  0  0  0  0  0  0
   29.5496  -21.5197  -18.8880 C   0  0  2  0  0  0  0  0  0  0  0  0
   30.2289  -22.3620  -19.9388 C   0  0  0  0  0  0  0  0  0  0  0  0
   29.1990  -22.3040  -17.6554 C   0  0  2  0  0  0  0  0  0  0  0  0
   28.1924  -23.2791  -18.0054 N   0  0  0  0  0  0  0  0  0  0  0  0
   28.7200  -21.3460  -16.6082 C   0  0  0  0  0  0  0  0  0  0  0  0
   29.5683  -20.5535  -16.1209 O   0  0  0  0  0  0  0  0  0  0  0  0
   27.4114  -21.2781  -16.1451 N   0  0  0  0  0  0  0  0  0  0  0  0
   26.9088  -20.4269  -15.1095 C   0  0  1  0  0  0  0  0  0  0  0  0
   26.2910  -19.1409  -15.5576 C   0  0  0  0  0  0  0  0  0  0  0  0
   24.6212  -19.3817  -16.2276 S   0  0  0  0  0  0  0  0  0  0  0  0
   26.1412  -21.1753  -14.1020 C   0  0  0  0  0  0  0  0  0  0  0  0
   25.4658  -22.2167  -14.4462 O   0  0  0  0  0  0  0  0  0  0  0  0
   26.0471  -20.8755  -12.7081 N   0  0  0  0  0  0  0  0  0  0  0  0
   25.2180  -21.6791  -11.8377 C   0  0  1  0  0  0  0  0  0  0  0  0
   25.7733  -22.0827  -10.5385 C   0  0  0  0  0  0  0  0  0  0  0  0
   26.2974  -21.0603   -9.6582 C   0  0  0  0  0  0  0  0  0  0  0  0
   25.5383  -19.9616   -9.2208 C   0  0  0  0  0  0  0  0  0  0  0  0
   26.3026  -19.1821   -8.4691 N   0  0  0  0  0  0  0  0  0  0  0  0
   27.5445  -19.7005   -8.3733 C   0  0  0  0  0  0  0  0  0  0  0  0
   28.6769  -19.2793   -7.7094 C   0  0  0  0  0  0  0  0  0  0  0  0
   29.8473  -20.0043   -7.7536 C   0  0  0  0  0  0  0  0  0  0  0  0
   29.8484  -21.1572   -8.4780 C   0  0  0  0  0  0  0  0  0  0  0  0
   28.7177  -21.5864   -9.1494 C   0  0  0  0  0  0  0  0  0  0  0  0
   27.5287  -20.8800   -9.1243 C   0  0  0  0  0  0  0  0  0  0  0  0
   23.8797  -20.9708  -11.6477 C   0  0  0  0  0  0  0  0  0  0  0  0
   22.7773  -21.6997  -11.2423 O   0  0  0  0  0  0  0  0  0  0  0  0
   23.7325  -19.7501  -11.8432 O   0  0  0  0  0  0  0  0  0  0  0  0
  2  3  1  6
  2  1  1  0
  4  2  1  0
  4  5  1  6
  6  7  2  0
  6  4  1  0
  8  6  1  0
  9 12  1  0
  9  8  1  0
  9 10  1  6
 11 10  1  0
 12 13  2  0
 14 15  1  0
 14 12  1  0
 15 16  1  1
 17 16  1  0
 18 17  2  0
 19 20  1  0
 19 18  1  0
 20 25  2  0
 21 22  2  0
 21 20  1  0
 22 23  1  0
 23 24  2  0
 25 24  1  0
 25 17  1  0
 26 15  1  0
 26 27  1  0
 28 26  2  0
M  END
$$$$
