VCW.pdb
     RDKit          3D

 28 29  0  0  1  0  0  0  0  0999 V2000
   28.0939  -20.5957  -17.1767 C   0  0  0  0  0  0  0  0  0  0  0  0
   27.6007  -20.1084  -15.8444 C   0  0  2  0  0  0  0  0  0  0  0  0
   28.1717  -21.0085  -14.7772 C   0  0  0  0  0  0  0  0  0  0  0  0
   26.1008  -20.0357  -15.7984 C   0  0  2  0  0  0  0  0  0  0  0  0
   25.6538  -19.1526  -16.8504 N   0  0  0  0  0  0  0  0  0  0  0  0
   25.6944  -19.5506  -14.4406 C   0  0  0  0  0  0  0  0  0  0  0  0
   25.8576  -18.3270  -14.1933 O   0  0  0  0  0  0  0  0  0  0  0  0
   25.1547  -20.3583  -13.4467 N   0  0  0  0  0  0  0  0  0  0  0  0
   24.6827  -19.9406  -12.1613 C   0  0  1  0  0  0  0  0  0  0  0  0
   23.2244  -19.6228  -12.0680 C   0  0  0  0  0  0  0  0  0  0  0  0
   22.1855  -21.0325  -12.5462 S   0  0  0  0  0  0  0  0  0  0  0  0
   25.2131  -20.7818  -11.0771 C   0  0  0  0  0  0  0  0  0  0  0  0
   25.4073  -22.0403  -11.2711 O   0  0  0  0  0  0  0  0  0  0  0  0
   25.5620  -20.3523   -9.7596 N   0  0  0  0  0  0  0  0  0  0  0  0
   26.0285  -21.3036   -8.7757 C   0  0  1  0  0  0  0  0  0  0  0  0
   27.3759  -21.1149   -8.2210 C   0  0  0  0  0  0  0  0  0  0  0  0
   27.6065  -20.0103   -7.3145 C   0  0  0  0  0  0  0  0  0  0  0  0
   27.0909  -18.7209   -7.5297 C   0  0  0  0  0  0  0  0  0  0  0  0
   27.5097  -17.9221   -6.5584 N   0  0  0  0  0  0  0  0  0  0  0  0
   28.2836  -18.6085   -5.6923 C   0  0  0  0  0  0  0  0  0  0  0  0
   28.9355  -18.2373   -4.5356 C   0  0  0  0  0  0  0  0  0  0  0  0
   29.6693  -19.1434   -3.8021 C   0  0  0  0  0  0  0  0  0  0  0  0
   29.7292  -20.4246   -4.2593 C   0  0  0  0  0  0  0  0  0  0  0  0
   29.0803  -20.8054   -5.4201 C   0  0  0  0  0  0  0  0  0  0  0  0
   28.3369  -19.9187   -6.1781 C   0  0  0  0  0  0  0  0  0  0  0  0
   24.9981  -21.3900   -7.6534 C   0  0  0  0  0  0  0  0  0  0  0  0
   25.1931  -22.2874   -6.6201 O   0  0  0  0  0  0  0  0  0  0  0  0
   23.9759  -20.6797   -7.6243 O   0  0  0  0  0  0  0  0  0  0  0  0
  2  3  1  1
  2  1  1  0
  4  2  1  0
  4  5  1  6
  6  7  2  0
  6  4  1  0
  8  6  1  0
  9 12  1  0
  9  8  1  0
  9 10  1  6
 11 10  1  0
 12 13  2  0
 14 15  1  0
 14 12  1  0
 15 16  1  1
 17 16  1  0
 18 17  2  0
 19 20  1  0
 19 18  1  0
 20 25  2  0
 21 22  2  0
 21 20  1  0
 22 23  1  0
 23 24  2  0
 25 24  1  0
 25 17  1  0
 26 15  1  0
 26 27  1  0
 28 26  2  0
M  END
$$$$
