VCW.pdb
     RDKit          3D

 28 29  0  0  1  0  0  0  0  0999 V2000
   17.3814  -10.5051  -21.8942 C   0  0  0  0  0  0  0  0  0  0  0  0
   17.3470   -9.6748  -20.6432 C   0  0  2  0  0  0  0  0  0  0  0  0
   17.6051   -8.2394  -21.0279 C   0  0  0  0  0  0  0  0  0  0  0  0
   18.3158  -10.1806  -19.6122 C   0  0  2  0  0  0  0  0  0  0  0  0
   18.0129  -11.5669  -19.3421 N   0  0  0  0  0  0  0  0  0  0  0  0
   18.1912   -9.3247  -18.3891 C   0  0  0  0  0  0  0  0  0  0  0  0
   17.1605   -8.6086  -18.2896 O   0  0  0  0  0  0  0  0  0  0  0  0
   19.1325   -9.2716  -17.3681 N   0  0  0  0  0  0  0  0  0  0  0  0
   19.0449   -8.5144  -16.1563 C   0  0  1  0  0  0  0  0  0  0  0  0
   18.2713   -9.1441  -15.0422 C   0  0  0  0  0  0  0  0  0  0  0  0
   18.8887  -10.8011  -14.6324 S   0  0  0  0  0  0  0  0  0  0  0  0
   20.3409   -7.9339  -15.7717 C   0  0  0  0  0  0  0  0  0  0  0  0
   21.4364   -8.5372  -16.0797 O   0  0  0  0  0  0  0  0  0  0  0  0
   20.5487   -6.7126  -15.0595 N   0  0  0  0  0  0  0  0  0  0  0  0
   21.8841   -6.1931  -14.8652 C   0  0  1  0  0  0  0  0  0  0  0  0
   22.6413   -5.7796  -16.0545 C   0  0  0  0  0  0  0  0  0  0  0  0
   22.0935   -4.7417  -16.9017 C   0  0  0  0  0  0  0  0  0  0  0  0
   21.7399   -3.4684  -16.4239 C   0  0  0  0  0  0  0  0  0  0  0  0
   21.2274   -2.7614  -17.4210 N   0  0  0  0  0  0  0  0  0  0  0  0
   21.2180   -3.4935  -18.5542 C   0  0  0  0  0  0  0  0  0  0  0  0
   20.8035   -3.2103  -19.8381 C   0  0  0  0  0  0  0  0  0  0  0  0
   20.9112   -4.1395  -20.8493 C   0  0  0  0  0  0  0  0  0  0  0  0
   21.4440   -5.3530  -20.5371 C   0  0  0  0  0  0  0  0  0  0  0  0
   21.8603   -5.6468  -19.2511 C   0  0  0  0  0  0  0  0  0  0  0  0
   21.7644   -4.7352  -18.2152 C   0  0  0  0  0  0  0  0  0  0  0  0
   21.8219   -5.0544  -13.8511 C   0  0  0  0  0  0  0  0  0  0  0  0
   20.5920   -4.5531  -13.4676 O   0  0  0  0  0  0  0  0  0  0  0  0
   22.8414   -4.5489  -13.3458 O   0  0  0  0  0  0  0  0  0  0  0  0
  2  3  1  6
  2  1  1  0
  4  2  1  0
  4  5  1  1
  6  7  2  0
  6  4  1  0
  8  6  1  0
  9 12  1  0
  9  8  1  0
  9 10  1  1
 11 10  1  0
 12 13  2  0
 14 15  1  0
 14 12  1  0
 15 16  1  6
 17 16  1  0
 18 17  2  0
 19 20  1  0
 19 18  1  0
 20 25  2  0
 21 22  2  0
 21 20  1  0
 22 23  1  0
 23 24  2  0
 25 24  1  0
 25 17  1  0
 26 15  1  0
 26 27  1  0
 28 26  2  0
M  END
$$$$
