VCW.pdb
     RDKit          3D

 28 29  0  0  1  0  0  0  0  0999 V2000
   29.0000  -17.6033  -17.5430 C   0  0  0  0  0  0  0  0  0  0  0  0
   28.1226  -17.6689  -16.3258 C   0  0  2  0  0  0  0  0  0  0  0  0
   29.0119  -17.8162  -15.1163 C   0  0  0  0  0  0  0  0  0  0  0  0
   27.1039  -18.7680  -16.4321 C   0  0  2  0  0  0  0  0  0  0  0  0
   26.3789  -18.6006  -17.6702 N   0  0  0  0  0  0  0  0  0  0  0  0
   26.2059  -18.6950  -15.2354 C   0  0  0  0  0  0  0  0  0  0  0  0
   25.5666  -17.6247  -15.0592 O   0  0  0  0  0  0  0  0  0  0  0  0
   26.0362  -19.7237  -14.3164 N   0  0  0  0  0  0  0  0  0  0  0  0
   25.1690  -19.7247  -13.1774 C   0  0  1  0  0  0  0  0  0  0  0  0
   23.7566  -20.1481  -13.4269 C   0  0  0  0  0  0  0  0  0  0  0  0
   23.6530  -21.8497  -14.0506 S   0  0  0  0  0  0  0  0  0  0  0  0
   25.8067  -20.3286  -11.9970 C   0  0  0  0  0  0  0  0  0  0  0  0
   26.5556  -21.3684  -12.1278 O   0  0  0  0  0  0  0  0  0  0  0  0
   25.6944  -19.8789  -10.6454 N   0  0  0  0  0  0  0  0  0  0  0  0
   26.1362  -20.7167   -9.5528 C   0  0  1  0  0  0  0  0  0  0  0  0
   27.3738  -20.3417   -8.8551 C   0  0  0  0  0  0  0  0  0  0  0  0
   27.4908  -20.6317   -7.4419 C   0  0  0  0  0  0  0  0  0  0  0  0
   27.1025  -21.8578   -6.8756 C   0  0  0  0  0  0  0  0  0  0  0  0
   27.2863  -21.8038   -5.5641 N   0  0  0  0  0  0  0  0  0  0  0  0
   27.7832  -20.5997   -5.2129 C   0  0  0  0  0  0  0  0  0  0  0  0
   28.1472  -20.0657   -3.9951 C   0  0  0  0  0  0  0  0  0  0  0  0
   28.6533  -18.7887   -3.8929 C   0  0  0  0  0  0  0  0  0  0  0  0
   28.7834  -18.0677   -5.0406 C   0  0  0  0  0  0  0  0  0  0  0  0
   28.4186  -18.5944   -6.2666 C   0  0  0  0  0  0  0  0  0  0  0  0
   27.9071  -19.8725   -6.4009 C   0  0  0  0  0  0  0  0  0  0  0  0
   24.9888  -20.8666   -8.5579 C   0  0  0  0  0  0  0  0  0  0  0  0
   24.9895  -21.9312   -7.6760 O   0  0  0  0  0  0  0  0  0  0  0  0
   24.0390  -20.0636   -8.5024 O   0  0  0  0  0  0  0  0  0  0  0  0
  2  3  1  1
  2  1  1  0
  4  2  1  0
  4  5  1  6
  6  7  2  0
  6  4  1  0
  8  6  1  0
  9 12  1  0
  9  8  1  0
  9 10  1  6
 11 10  1  0
 12 13  2  0
 14 15  1  0
 14 12  1  0
 15 16  1  1
 17 16  1  0
 18 17  2  0
 19 20  1  0
 19 18  1  0
 20 25  2  0
 21 22  2  0
 21 20  1  0
 22 23  1  0
 23 24  2  0
 25 24  1  0
 25 17  1  0
 26 15  1  0
 26 27  1  0
 28 26  2  0
M  END
$$$$
