VCW.pdb
     RDKit          3D

 28 29  0  0  1  0  0  0  0  0999 V2000
   19.5430  -11.6031  -19.2423 C   0  0  0  0  0  0  0  0  0  0  0  0
   20.7861  -10.8461  -19.6127 C   0  0  2  0  0  0  0  0  0  0  0  0
   21.3367  -11.4449  -20.8829 C   0  0  0  0  0  0  0  0  0  0  0  0
   21.7887  -10.8400  -18.4938 C   0  0  2  0  0  0  0  0  0  0  0  0
   22.1548  -12.2063  -18.2012 N   0  0  0  0  0  0  0  0  0  0  0  0
   21.1729  -10.1533  -17.3135 C   0  0  0  0  0  0  0  0  0  0  0  0
   20.4728  -10.8564  -16.5385 O   0  0  0  0  0  0  0  0  0  0  0  0
   21.3237   -8.8025  -17.0236 N   0  0  0  0  0  0  0  0  0  0  0  0
   20.7757   -8.0968  -15.9050 C   0  0  1  0  0  0  0  0  0  0  0  0
   21.7371   -7.7437  -14.8154 C   0  0  0  0  0  0  0  0  0  0  0  0
   22.2258   -9.1936  -13.8386 S   0  0  0  0  0  0  0  0  0  0  0  0
   19.8739   -7.0121  -16.3231 C   0  0  0  0  0  0  0  0  0  0  0  0
   20.2481   -6.1716  -17.2246 O   0  0  0  0  0  0  0  0  0  0  0  0
   18.5576   -6.7607  -15.8270 N   0  0  0  0  0  0  0  0  0  0  0  0
   17.7559   -5.6914  -16.3789 C   0  0  1  0  0  0  0  0  0  0  0  0
   16.3023   -5.8912  -16.4568 C   0  0  0  0  0  0  0  0  0  0  0  0
   15.4893   -4.8564  -17.0597 C   0  0  0  0  0  0  0  0  0  0  0  0
   15.7640   -4.3028  -18.3217 C   0  0  0  0  0  0  0  0  0  0  0  0
   14.8758   -3.3528  -18.5776 N   0  0  0  0  0  0  0  0  0  0  0  0
   14.0093   -3.2365  -17.5501 C   0  0  0  0  0  0  0  0  0  0  0  0
   12.9200   -2.4171  -17.3434 C   0  0  0  0  0  0  0  0  0  0  0  0
   12.1680   -2.4983  -16.1922 C   0  0  0  0  0  0  0  0  0  0  0  0
   12.5378   -3.4200  -15.2606 C   0  0  0  0  0  0  0  0  0  0  0  0
   13.6307   -4.2445  -15.4583 C   0  0  0  0  0  0  0  0  0  0  0  0
   14.4051   -4.1861  -16.6030 C   0  0  0  0  0  0  0  0  0  0  0  0
   18.0766   -4.4029  -15.6268 C   0  0  0  0  0  0  0  0  0  0  0  0
   18.3069   -3.2405  -16.3388 O   0  0  0  0  0  0  0  0  0  0  0  0
   18.1411   -4.3487  -14.3846 O   0  0  0  0  0  0  0  0  0  0  0  0
  2  3  1  6
  2  1  1  0
  4  2  1  0
  4  5  1  1
  6  7  2  0
  6  4  1  0
  8  6  1  0
  9 12  1  0
  9  8  1  0
  9 10  1  6
 11 10  1  0
 12 13  2  0
 14 15  1  0
 14 12  1  0
 15 16  1  1
 17 16  1  0
 18 17  2  0
 19 20  1  0
 19 18  1  0
 20 25  2  0
 21 22  2  0
 21 20  1  0
 22 23  1  0
 23 24  2  0
 25 24  1  0
 25 17  1  0
 26 15  1  0
 26 27  1  0
 28 26  2  0
M  END
$$$$
