VCW.pdb
     RDKit          3D

 28 29  0  0  1  0  0  0  0  0999 V2000
   24.5687  -20.4396  -17.4992 C   0  0  0  0  0  0  0  0  0  0  0  0
   24.4821  -20.0082  -16.0632 C   0  0  2  0  0  0  0  0  0  0  0  0
   25.3409  -20.9385  -15.2434 C   0  0  0  0  0  0  0  0  0  0  0  0
   23.0600  -19.9583  -15.5814 C   0  0  2  0  0  0  0  0  0  0  0  0
   22.3318  -19.0201  -16.4036 N   0  0  0  0  0  0  0  0  0  0  0  0
   23.0658  -19.5605  -14.1373 C   0  0  0  0  0  0  0  0  0  0  0  0
   23.5328  -18.4261  -13.8540 O   0  0  0  0  0  0  0  0  0  0  0  0
   22.5935  -20.3570  -13.1009 N   0  0  0  0  0  0  0  0  0  0  0  0
   22.5504  -20.0217  -11.7098 C   0  0  1  0  0  0  0  0  0  0  0  0
   21.2796  -20.3506  -10.9934 C   0  0  0  0  0  0  0  0  0  0  0  0
   21.4220  -21.8707  -10.0116 S   0  0  0  0  0  0  0  0  0  0  0  0
   23.7848  -20.4084  -11.0090 C   0  0  0  0  0  0  0  0  0  0  0  0
   24.3517  -21.5348  -11.2716 O   0  0  0  0  0  0  0  0  0  0  0  0
   24.4750  -19.6456  -10.0171 N   0  0  0  0  0  0  0  0  0  0  0  0
   25.6013  -20.2103   -9.3077 C   0  0  1  0  0  0  0  0  0  0  0  0
   26.6175  -19.2872   -8.7839 C   0  0  0  0  0  0  0  0  0  0  0  0
   27.7347  -19.8311   -8.0416 C   0  0  0  0  0  0  0  0  0  0  0  0
   28.6330  -20.7663   -8.5831 C   0  0  0  0  0  0  0  0  0  0  0  0
   29.5131  -21.1068   -7.6523 N   0  0  0  0  0  0  0  0  0  0  0  0
   29.2565  -20.4454   -6.5047 C   0  0  0  0  0  0  0  0  0  0  0  0
   29.8790  -20.4458   -5.2747 C   0  0  0  0  0  0  0  0  0  0  0  0
   29.4272  -19.6560   -4.2405 C   0  0  0  0  0  0  0  0  0  0  0  0
   28.3401  -18.8704   -4.4748 C   0  0  0  0  0  0  0  0  0  0  0  0
   27.7076  -18.8653   -5.7050 C   0  0  0  0  0  0  0  0  0  0  0  0
   28.1373  -19.6474   -6.7619 C   0  0  0  0  0  0  0  0  0  0  0  0
   25.0748  -21.1103   -8.1934 C   0  0  0  0  0  0  0  0  0  0  0  0
   23.7687  -20.9658   -7.7641 O   0  0  0  0  0  0  0  0  0  0  0  0
   25.7761  -21.9809   -7.6456 O   0  0  0  0  0  0  0  0  0  0  0  0
  2  3  1  1
  2  1  1  0
  4  2  1  0
  4  5  1  6
  6  7  2  0
  6  4  1  0
  8  6  1  0
  9 12  1  0
  9  8  1  0
  9 10  1  1
 11 10  1  0
 12 13  2  0
 14 15  1  0
 14 12  1  0
 15 16  1  1
 17 16  1  0
 18 17  2  0
 19 20  1  0
 19 18  1  0
 20 25  2  0
 21 22  2  0
 21 20  1  0
 22 23  1  0
 23 24  2  0
 25 24  1  0
 25 17  1  0
 26 15  1  0
 26 27  1  0
 28 26  2  0
M  END
$$$$
