VCW.pdb
     RDKit          3D

 28 29  0  0  1  0  0  0  0  0999 V2000
   25.1419  -16.9108  -15.5367 C   0  0  0  0  0  0  0  0  0  0  0  0
   25.0908  -18.2950  -16.1172 C   0  0  2  0  0  0  0  0  0  0  0  0
   25.6129  -18.2283  -17.5308 C   0  0  0  0  0  0  0  0  0  0  0  0
   23.7100  -18.8817  -16.0376 C   0  0  2  0  0  0  0  0  0  0  0  0
   22.8111  -18.0381  -16.7905 N   0  0  0  0  0  0  0  0  0  0  0  0
   23.3216  -18.9773  -14.5940 C   0  0  0  0  0  0  0  0  0  0  0  0
   22.7923  -17.9616  -14.0713 O   0  0  0  0  0  0  0  0  0  0  0  0
   23.5074  -20.1050  -13.8034 N   0  0  0  0  0  0  0  0  0  0  0  0
   23.1581  -20.2546  -12.4231 C   0  0  1  0  0  0  0  0  0  0  0  0
   21.9129  -21.0331  -12.1408 C   0  0  0  0  0  0  0  0  0  0  0  0
   21.7447  -21.4384  -10.3794 S   0  0  0  0  0  0  0  0  0  0  0  0
   24.3208  -20.6062  -11.5931 C   0  0  0  0  0  0  0  0  0  0  0  0
   25.0005  -21.6697  -11.8499 O   0  0  0  0  0  0  0  0  0  0  0  0
   24.8207  -19.8720  -10.4737 N   0  0  0  0  0  0  0  0  0  0  0  0
   25.9027  -20.3996   -9.6726 C   0  0  1  0  0  0  0  0  0  0  0  0
   26.7729  -19.4424   -8.9757 C   0  0  0  0  0  0  0  0  0  0  0  0
   27.8361  -19.9524   -8.1364 C   0  0  0  0  0  0  0  0  0  0  0  0
   28.7785  -20.8955   -8.5803 C   0  0  0  0  0  0  0  0  0  0  0  0
   29.5899  -21.1985   -7.5769 N   0  0  0  0  0  0  0  0  0  0  0  0
   29.2446  -20.5041   -6.4730 C   0  0  0  0  0  0  0  0  0  0  0  0
   29.7746  -20.4603   -5.2011 C   0  0  0  0  0  0  0  0  0  0  0  0
   29.2421  -19.6429   -4.2285 C   0  0  0  0  0  0  0  0  0  0  0  0
   28.1697  -18.8752   -4.5671 C   0  0  0  0  0  0  0  0  0  0  0  0
   27.6297  -18.9145   -5.8400 C   0  0  0  0  0  0  0  0  0  0  0  0
   28.1418  -19.7251   -6.8370 C   0  0  0  0  0  0  0  0  0  0  0  0
   25.3302  -21.4141   -8.6867 C   0  0  0  0  0  0  0  0  0  0  0  0
   25.9641  -22.6312   -8.5201 O   0  0  0  0  0  0  0  0  0  0  0  0
   24.3048  -21.1935   -8.0158 O   0  0  0  0  0  0  0  0  0  0  0  0
  2  3  1  6
  2  1  1  0
  4  2  1  0
  4  5  1  6
  6  7  2  0
  6  4  1  0
  8  6  1  0
  9 12  1  0
  9  8  1  0
  9 10  1  6
 11 10  1  0
 12 13  2  0
 14 15  1  0
 14 12  1  0
 15 16  1  1
 17 16  1  0
 18 17  2  0
 19 20  1  0
 19 18  1  0
 20 25  2  0
 21 22  2  0
 21 20  1  0
 22 23  1  0
 23 24  2  0
 25 24  1  0
 25 17  1  0
 26 15  1  0
 26 27  1  0
 28 26  2  0
M  END
$$$$
