DTR.pdb
     RDKit          3D

 27 26  0  0  1  0  0  0  0  0999 V2000
   17.9640   -9.5577  -16.0548 N   0  0  0  0  0  0  0  0  0  0  0  0
   17.6562  -10.4891  -14.9873 C   0  0  1  0  0  0  0  0  0  0  0  0
   18.5326  -11.7247  -15.2337 C   0  0  0  0  0  0  0  0  0  0  0  0
   17.8313  -12.6010  -16.1779 C   0  0  0  0  0  0  0  0  0  0  0  0
   16.7419  -12.2224  -16.6947 O   0  0  0  0  0  0  0  0  0  0  0  0
   18.0800   -9.8638  -13.6789 C   0  0  0  0  0  0  0  0  0  0  0  0
   18.0574  -10.5557  -12.6403 O   0  0  0  0  0  0  0  0  0  0  0  0
   18.3334  -13.8519  -16.5278 O   0  0  0  0  0  0  0  0  0  0  0  0
   21.2250   -7.7717  -12.9077 C   0  0  0  0  0  0  0  0  0  0  0  0
   20.0061   -7.0131  -12.4470 C   0  0  1  0  0  0  0  0  0  0  0  0
   19.9596   -5.8675  -13.2171 O   0  0  0  0  0  0  0  0  0  0  0  0
   18.7679   -7.8287  -12.4019 C   0  0  2  0  0  0  0  0  0  0  0  0
   18.4962   -8.5223  -13.6211 N   0  0  0  0  0  0  0  0  0  0  0  0
   17.5865   -7.1893  -11.7654 C   0  0  0  0  0  0  0  0  0  0  0  0
   16.6185   -6.6738  -12.4078 O   0  0  0  0  0  0  0  0  0  0  0  0
   10.8732   -8.9287   -7.3755 N   0  0  0  0  0  0  0  0  0  0  0  0
   11.5487   -9.1317   -8.6156 C   0  0  0  0  0  0  0  0  0  0  0  0
   11.2099  -10.0414   -9.4527 N   0  0  0  0  0  0  0  0  0  0  0  0
   12.6324   -8.2847   -8.9215 N   0  0  0  0  0  0  0  0  0  0  0  0
   13.1189   -7.3570   -7.8852 C   0  0  0  0  0  0  0  0  0  0  0  0
   14.1908   -6.4752   -8.4271 C   0  0  0  0  0  0  0  0  0  0  0  0
   15.2878   -7.1464   -9.1560 C   0  0  0  0  0  0  0  0  0  0  0  0
   16.3733   -6.2991   -9.7220 C   0  0  2  0  0  0  0  0  0  0  0  0
   17.4243   -7.0950  -10.3561 N   0  0  0  0  0  0  0  0  0  0  0  0
   17.0097   -5.3641   -8.7902 C   0  0  0  0  0  0  0  0  0  0  0  0
   18.3644   -5.4016   -8.4745 O   0  0  0  0  0  0  0  0  0  0  0  0
   16.3269   -4.4696   -8.2295 O   0  0  0  0  0  0  0  0  0  0  0  0
  2  1  1  6
  3  4  1  0
  3  2  1  0
  4  5  2  0
  6  7  2  0
  6  2  1  0
  8  4  1  0
 10  9  1  6
 10 12  1  0
 11 10  1  0
 12 13  1  6
 13  6  1  0
 14 12  1  0
 15 14  2  0
 16 17  1  0
 17 18  2  0
 19 17  1  0
 19 20  1  0
 21 20  1  0
 23 22  1  1
 22 21  1  0
 23 24  1  0
 24 14  1  0
 25 23  1  0
 26 25  1  0
 27 25  2  0
M  END
$$$$
