DTR.pdb
     RDKit          3D

 27 26  0  0  1  0  0  0  0  0999 V2000
   17.4806  -19.1686  -15.3843 N   0  0  0  0  0  0  0  0  0  0  0  0
   18.7057  -18.4440  -15.6598 C   0  0  1  0  0  0  0  0  0  0  0  0
   18.9129  -17.4908  -14.4749 C   0  0  0  0  0  0  0  0  0  0  0  0
   18.6384  -16.1252  -14.9341 C   0  0  0  0  0  0  0  0  0  0  0  0
   18.3684  -15.9146  -16.1506 O   0  0  0  0  0  0  0  0  0  0  0  0
   19.8466  -19.4342  -15.6734 C   0  0  0  0  0  0  0  0  0  0  0  0
   19.7127  -20.5226  -15.0773 O   0  0  0  0  0  0  0  0  0  0  0  0
   18.6660  -15.0397  -14.0622 O   0  0  0  0  0  0  0  0  0  0  0  0
   21.1607  -20.9889  -18.6415 C   0  0  0  0  0  0  0  0  0  0  0  0
   22.3700  -20.4533  -17.9174 C   0  0  1  0  0  0  0  0  0  0  0  0
   22.8893  -19.4633  -18.7285 O   0  0  0  0  0  0  0  0  0  0  0  0
   22.1129  -20.0815  -16.5045 C   0  0  2  0  0  0  0  0  0  0  0  0
   21.0467  -19.1439  -16.3456 N   0  0  0  0  0  0  0  0  0  0  0  0
   23.3137  -19.8159  -15.6694 C   0  0  0  0  0  0  0  0  0  0  0  0
   23.7109  -18.6558  -15.3352 O   0  0  0  0  0  0  0  0  0  0  0  0
   25.0774  -21.2511   -7.9257 N   0  0  0  0  0  0  0  0  0  0  0  0
   24.0907  -21.1227   -8.9480 C   0  0  0  0  0  0  0  0  0  0  0  0
   22.8317  -21.1616   -8.7102 N   0  0  0  0  0  0  0  0  0  0  0  0
   24.5351  -20.9422  -10.2730 N   0  0  0  0  0  0  0  0  0  0  0  0
   25.9838  -20.9611  -10.5414 C   0  0  0  0  0  0  0  0  0  0  0  0
   26.2568  -20.7065  -11.9839 C   0  0  0  0  0  0  0  0  0  0  0  0
   25.1029  -20.8200  -12.9010 C   0  0  0  0  0  0  0  0  0  0  0  0
   25.3388  -20.5954  -14.3538 C   0  0  2  0  0  0  0  0  0  0  0  0
   24.1421  -20.8507  -15.1556 N   0  0  0  0  0  0  0  0  0  0  0  0
   26.4518  -21.3420  -14.9463 C   0  0  0  0  0  0  0  0  0  0  0  0
   27.7820  -21.1446  -14.5886 O   0  0  0  0  0  0  0  0  0  0  0  0
   26.2299  -22.2133  -15.8253 O   0  0  0  0  0  0  0  0  0  0  0  0
  2  1  1  1
  3  4  1  0
  3  2  1  0
  4  5  2  0
  6  7  2  0
  6  2  1  0
  8  4  1  0
 10  9  1  6
 10 12  1  0
 11 10  1  0
 12 13  1  6
 13  6  1  0
 14 12  1  0
 15 14  2  0
 16 17  1  0
 17 18  2  0
 19 17  1  0
 19 20  1  0
 21 20  1  0
 23 22  1  1
 22 21  1  0
 23 24  1  0
 24 14  1  0
 25 23  1  0
 26 25  1  0
 27 25  2  0
M  END
$$$$
