DTR.pdb
     RDKit          3D

 27 26  0  0  1  0  0  0  0  0999 V2000
   13.3523  -10.6305  -10.3634 N   0  0  0  0  0  0  0  0  0  0  0  0
   14.7396  -10.2395  -10.2073 C   0  0  1  0  0  0  0  0  0  0  0  0
   15.4999  -10.8922  -11.3698 C   0  0  0  0  0  0  0  0  0  0  0  0
   15.6833  -12.3129  -11.0551 C   0  0  0  0  0  0  0  0  0  0  0  0
   14.8896  -13.1700  -11.5374 O   0  0  0  0  0  0  0  0  0  0  0  0
   14.8282   -8.7401  -10.3687 C   0  0  0  0  0  0  0  0  0  0  0  0
   14.1575   -8.1853  -11.2633 O   0  0  0  0  0  0  0  0  0  0  0  0
   16.7165  -12.7534  -10.2319 O   0  0  0  0  0  0  0  0  0  0  0  0
   13.6854   -6.1726   -8.1856 C   0  0  0  0  0  0  0  0  0  0  0  0
   15.1457   -5.8684   -8.4051 C   0  0  1  0  0  0  0  0  0  0  0  0
   15.7669   -6.0987   -7.1932 O   0  0  0  0  0  0  0  0  0  0  0  0
   15.7331   -6.5456   -9.5870 C   0  0  2  0  0  0  0  0  0  0  0  0
   15.6513   -7.9707   -9.5279 N   0  0  0  0  0  0  0  0  0  0  0  0
   17.0336   -6.0098  -10.0685 C   0  0  0  0  0  0  0  0  0  0  0  0
   18.1660   -6.3591   -9.6092 O   0  0  0  0  0  0  0  0  0  0  0  0
   21.8823   -9.7486  -13.5766 N   0  0  0  0  0  0  0  0  0  0  0  0
   20.9334   -9.1092  -14.4286 C   0  0  0  0  0  0  0  0  0  0  0  0
   20.6284   -9.5557  -15.5908 N   0  0  0  0  0  0  0  0  0  0  0  0
   20.3094   -7.9373  -13.9565 N   0  0  0  0  0  0  0  0  0  0  0  0
   21.1511   -6.8621  -13.4029 C   0  0  0  0  0  0  0  0  0  0  0  0
   20.3306   -5.6595  -13.0859 C   0  0  0  0  0  0  0  0  0  0  0  0
   19.1471   -5.8791  -12.2277 C   0  0  0  0  0  0  0  0  0  0  0  0
   18.4000   -4.6845  -11.7466 C   0  0  2  0  0  0  0  0  0  0  0  0
   17.1347   -5.0430  -11.1059 N   0  0  0  0  0  0  0  0  0  0  0  0
   18.1262   -3.6518  -12.7495 C   0  0  0  0  0  0  0  0  0  0  0  0
   19.0839   -2.7472  -13.1975 O   0  0  0  0  0  0  0  0  0  0  0  0
   16.9783   -3.5496  -13.2524 O   0  0  0  0  0  0  0  0  0  0  0  0
  2  1  1  6
  3  4  1  0
  3  2  1  0
  4  5  2  0
  6  7  2  0
  6  2  1  0
  8  4  1  0
 10  9  1  1
 10 12  1  0
 11 10  1  0
 12 13  1  1
 13  6  1  0
 14 12  1  0
 15 14  2  0
 16 17  1  0
 17 18  2  0
 19 17  1  0
 19 20  1  0
 21 20  1  0
 23 22  1  6
 22 21  1  0
 23 24  1  0
 24 14  1  0
 25 23  1  0
 26 25  1  0
 27 25  2  0
M  END
$$$$
