DTR.pdb
     RDKit          3D

 27 26  0  0  1  0  0  0  0  0999 V2000
   17.5066  -15.9229  -15.6133 N   0  0  0  0  0  0  0  0  0  0  0  0
   16.6697  -14.8086  -16.0130 C   0  0  1  0  0  0  0  0  0  0  0  0
   15.3445  -14.9783  -15.2577 C   0  0  0  0  0  0  0  0  0  0  0  0
   14.6461  -16.1408  -15.8164 C   0  0  0  0  0  0  0  0  0  0  0  0
   14.8144  -16.4501  -17.0302 O   0  0  0  0  0  0  0  0  0  0  0  0
   17.3237  -13.5327  -15.5367 C   0  0  0  0  0  0  0  0  0  0  0  0
   17.7414  -13.4666  -14.3624 O   0  0  0  0  0  0  0  0  0  0  0  0
   13.7933  -16.9244  -15.0431 O   0  0  0  0  0  0  0  0  0  0  0  0
   20.3059  -11.6720  -16.8319 C   0  0  0  0  0  0  0  0  0  0  0  0
   19.1432  -10.7122  -16.8111 C   0  0  1  0  0  0  0  0  0  0  0  0
   18.8706  -10.4190  -18.1330 O   0  0  0  0  0  0  0  0  0  0  0  0
   17.9976  -11.1686  -15.9865 C   0  0  2  0  0  0  0  0  0  0  0  0
   17.4652  -12.4294  -16.3964 N   0  0  0  0  0  0  0  0  0  0  0  0
   16.9820  -10.1365  -15.6501 C   0  0  0  0  0  0  0  0  0  0  0  0
   15.7949  -10.1253  -16.1042 O   0  0  0  0  0  0  0  0  0  0  0  0
   10.2092   -9.0701  -11.9395 N   0  0  0  0  0  0  0  0  0  0  0  0
   10.4664   -7.6703  -12.0380 C   0  0  0  0  0  0  0  0  0  0  0  0
    9.6103   -6.7789  -11.6983 N   0  0  0  0  0  0  0  0  0  0  0  0
   11.7234   -7.2649  -12.5292 N   0  0  0  0  0  0  0  0  0  0  0  0
   12.6699   -8.2972  -12.9869 C   0  0  0  0  0  0  0  0  0  0  0  0
   13.9482   -7.6787  -13.4381 C   0  0  0  0  0  0  0  0  0  0  0  0
   14.9781   -8.6032  -13.9577 C   0  0  0  0  0  0  0  0  0  0  0  0
   16.2566   -8.0211  -14.4507 C   0  0  2  0  0  0  0  0  0  0  0  0
   17.2460   -9.0493  -14.7729 N   0  0  0  0  0  0  0  0  0  0  0  0
   16.8934   -7.0351  -13.5734 C   0  0  0  0  0  0  0  0  0  0  0  0
   16.4134   -5.7403  -13.4021 O   0  0  0  0  0  0  0  0  0  0  0  0
   17.9278   -7.3407  -12.9273 O   0  0  0  0  0  0  0  0  0  0  0  0
  2  1  1  1
  3  4  1  0
  3  2  1  0
  4  5  2  0
  6  7  2  0
  6  2  1  0
  8  4  1  0
 10  9  1  6
 10 12  1  0
 11 10  1  0
 12 13  1  6
 13  6  1  0
 14 12  1  0
 15 14  2  0
 16 17  1  0
 17 18  2  0
 19 17  1  0
 19 20  1  0
 21 20  1  0
 23 22  1  1
 22 21  1  0
 23 24  1  0
 24 14  1  0
 25 23  1  0
 26 25  1  0
 27 25  2  0
M  END
$$$$
