DTR.pdb
     RDKit          3D

 27 26  0  0  1  0  0  0  0  0999 V2000
   19.8495  -11.8947  -16.2562 N   0  0  0  0  0  0  0  0  0  0  0  0
   21.2452  -12.2364  -16.4487 C   0  0  1  0  0  0  0  0  0  0  0  0
   21.3934  -12.6043  -17.9313 C   0  0  0  0  0  0  0  0  0  0  0  0
   20.6524  -13.8475  -18.1696 C   0  0  0  0  0  0  0  0  0  0  0  0
   19.3998  -13.8099  -18.3327 O   0  0  0  0  0  0  0  0  0  0  0  0
   22.0741  -11.0014  -16.1843 C   0  0  0  0  0  0  0  0  0  0  0  0
   23.2992  -11.0306  -16.4211 O   0  0  0  0  0  0  0  0  0  0  0  0
   21.2925  -15.0831  -18.2226 O   0  0  0  0  0  0  0  0  0  0  0  0
   24.1049   -9.3721  -16.8906 C   0  0  0  0  0  0  0  0  0  0  0  0
   23.1508   -8.2650  -16.5200 C   0  0  1  0  0  0  0  0  0  0  0  0
   22.5907   -7.8346  -17.7070 O   0  0  0  0  0  0  0  0  0  0  0  0
   22.2044   -8.6209  -15.4346 C   0  0  2  0  0  0  0  0  0  0  0  0
   21.4835   -9.8299  -15.6790 N   0  0  0  0  0  0  0  0  0  0  0  0
   21.3919   -7.5047  -14.8834 C   0  0  0  0  0  0  0  0  0  0  0  0
   20.4606   -6.9161  -15.5172 O   0  0  0  0  0  0  0  0  0  0  0  0
   15.8351   -7.3773   -8.6066 N   0  0  0  0  0  0  0  0  0  0  0  0
   15.7491   -6.0354   -9.0830 C   0  0  0  0  0  0  0  0  0  0  0  0
   14.7422   -5.2768   -8.8510 N   0  0  0  0  0  0  0  0  0  0  0  0
   16.8282   -5.5343   -9.8380 N   0  0  0  0  0  0  0  0  0  0  0  0
   17.8385   -6.4812  -10.3416 C   0  0  0  0  0  0  0  0  0  0  0  0
   18.8056   -5.7920  -11.2417 C   0  0  0  0  0  0  0  0  0  0  0  0
   19.7610   -6.6573  -11.9654 C   0  0  0  0  0  0  0  0  0  0  0  0
   20.6712   -6.0196  -12.9560 C   0  0  2  0  0  0  0  0  0  0  0  0
   21.5811   -6.9841  -13.5741 N   0  0  0  0  0  0  0  0  0  0  0  0
   21.4681   -4.8929  -12.4632 C   0  0  0  0  0  0  0  0  0  0  0  0
   22.8528   -4.9345  -12.3318 O   0  0  0  0  0  0  0  0  0  0  0  0
   20.9047   -3.8182  -12.1336 O   0  0  0  0  0  0  0  0  0  0  0  0
  2  1  1  6
  3  4  1  0
  3  2  1  0
  4  5  2  0
  6  7  2  0
  6  2  1  0
  8  4  1  0
 10  9  1  6
 10 12  1  0
 11 10  1  0
 12 13  1  6
 13  6  1  0
 14 12  1  0
 15 14  2  0
 16 17  1  0
 17 18  2  0
 19 17  1  0
 19 20  1  0
 21 20  1  0
 23 22  1  1
 22 21  1  0
 23 24  1  0
 24 14  1  0
 25 23  1  0
 26 25  1  0
 27 25  2  0
M  END
$$$$
