NKM.pdb
     RDKit          3D

 26 25  0  0  1  0  0  0  0  0999 V2000
   28.9726  -24.1259  -17.1198 N   0  0  0  0  0  0  0  0  0  0  0  0
   28.4976  -22.8236  -16.7266 C   0  0  0  0  0  0  0  0  0  0  0  0
   29.0126  -21.8094  -17.2373 O   0  0  0  0  0  0  0  0  0  0  0  0
   27.4184  -22.7865  -15.7315 C   0  0  0  0  0  0  0  0  0  0  0  0
   26.4452  -21.6519  -15.9427 C   0  0  2  0  0  0  0  0  0  0  0  0
   27.1791  -20.4302  -15.6719 N   0  0  0  0  0  0  0  0  0  0  0  0
   25.2870  -21.8225  -15.0657 C   0  0  0  0  0  0  0  0  0  0  0  0
   24.4672  -22.7596  -15.2003 O   0  0  0  0  0  0  0  0  0  0  0  0
   25.0077  -20.9092  -13.9707 N   0  0  0  0  0  0  0  0  0  0  0  0
   23.9301  -21.1270  -13.0852 C   0  0  1  0  0  0  0  0  0  0  0  0
   23.9733  -20.5936  -11.7136 C   0  0  0  0  0  0  0  0  0  0  0  0
   24.9825  -21.0204  -10.7434 C   0  0  0  0  0  0  0  0  0  0  0  0
   24.9610  -20.4169   -9.3758 C   0  0  0  0  0  0  0  0  0  0  0  0
   26.1435  -20.9364   -8.5436 C   0  0  0  0  0  0  0  0  0  0  0  0
   26.2241  -20.3022   -7.2635 N   0  0  0  0  0  0  0  0  0  0  0  0
   22.5915  -20.8525  -13.7307 C   0  0  0  0  0  0  0  0  0  0  0  0
   22.4706  -19.7104  -14.2429 O   0  0  0  0  0  0  0  0  0  0  0  0
   16.9797  -22.8901  -18.6217 C   0  0  0  0  0  0  0  0  0  0  0  0
   18.4856  -23.3242  -17.6697 S   0  0  0  0  0  0  0  0  0  0  0  0
   18.8287  -22.2163  -16.3631 C   0  0  0  0  0  0  0  0  0  0  0  0
   20.0035  -22.2956  -15.5047 C   0  0  0  0  0  0  0  0  0  0  0  0
   20.2647  -21.4048  -14.3550 C   0  0  2  0  0  0  0  0  0  0  0  0
   21.5751  -21.8177  -13.7424 N   0  0  0  0  0  0  0  0  0  0  0  0
   19.3014  -21.6077  -13.2074 C   0  0  0  0  0  0  0  0  0  0  0  0
   18.1817  -20.9939  -13.1896 O   0  0  0  0  0  0  0  0  0  0  0  0
   19.5776  -22.4231  -12.1783 O   0  0  0  0  0  0  0  0  0  0  0  0
  1  2  1  0
  2  4  1  0
  2  3  2  0
  5  4  1  0
  5  6  1  1
  7  5  1  0
  7  9  1  0
  8  7  2  0
 10 11  1  1
 10  9  1  0
 10 16  1  0
 11 12  1  0
 12 13  1  0
 13 14  1  0
 14 15  1  0
 16 23  1  0
 17 16  2  0
 19 20  1  0
 19 18  1  0
 21 20  1  0
 22 21  1  6
 23 22  1  0
 24 22  1  0
 24 26  1  0
 25 24  2  0
M  END
$$$$
