NKM.pdb
     RDKit          3D

 26 25  0  0  1  0  0  0  0  0999 V2000
   29.0482   -9.8207  -19.8086 N   0  0  0  0  0  0  0  0  0  0  0  0
   28.9645  -10.4105  -18.4966 C   0  0  0  0  0  0  0  0  0  0  0  0
   28.0548  -11.2282  -18.2550 O   0  0  0  0  0  0  0  0  0  0  0  0
   29.9794   -9.9957  -17.5197 C   0  0  0  0  0  0  0  0  0  0  0  0
   30.9326   -8.9520  -18.0499 C   0  0  2  0  0  0  0  0  0  0  0  0
   31.7926   -9.6314  -19.0003 N   0  0  0  0  0  0  0  0  0  0  0  0
   31.6762   -8.3516  -16.9425 C   0  0  0  0  0  0  0  0  0  0  0  0
   31.1158   -7.7572  -15.9934 O   0  0  0  0  0  0  0  0  0  0  0  0
   33.1263   -8.4050  -16.8687 N   0  0  0  0  0  0  0  0  0  0  0  0
   33.8398   -7.7125  -15.8666 C   0  0  1  0  0  0  0  0  0  0  0  0
   35.2045   -8.1275  -15.5019 C   0  0  0  0  0  0  0  0  0  0  0  0
   35.5084   -9.4807  -15.0345 C   0  0  0  0  0  0  0  0  0  0  0  0
   36.9334   -9.8405  -14.7611 C   0  0  0  0  0  0  0  0  0  0  0  0
   37.0341  -11.2953  -14.2772 C   0  0  0  0  0  0  0  0  0  0  0  0
   38.3907  -11.7113  -14.0927 N   0  0  0  0  0  0  0  0  0  0  0  0
   33.7568   -6.2129  -16.0344 C   0  0  0  0  0  0  0  0  0  0  0  0
   33.9026   -5.7993  -17.2130 O   0  0  0  0  0  0  0  0  0  0  0  0
   28.8444   -2.2924  -14.3901 C   0  0  0  0  0  0  0  0  0  0  0  0
   30.3451   -1.3754  -13.8713 S   0  0  0  0  0  0  0  0  0  0  0  0
   31.8160   -1.9758  -14.5982 C   0  0  0  0  0  0  0  0  0  0  0  0
   32.2334   -3.3718  -14.5769 C   0  0  0  0  0  0  0  0  0  0  0  0
   33.4489   -3.8946  -15.2349 C   0  0  2  0  0  0  0  0  0  0  0  0
   33.5342   -5.3670  -14.9392 N   0  0  0  0  0  0  0  0  0  0  0  0
   34.7317   -3.3750  -14.6261 C   0  0  0  0  0  0  0  0  0  0  0  0
   35.3659   -4.0735  -13.7655 O   0  0  0  0  0  0  0  0  0  0  0  0
   35.2464   -2.1807  -14.9557 O   0  0  0  0  0  0  0  0  0  0  0  0
  1  2  1  0
  2  4  1  0
  2  3  2  0
  5  4  1  0
  5  6  1  6
  7  5  1  0
  7  9  1  0
  8  7  2  0
 10 11  1  6
 10  9  1  0
 10 16  1  0
 11 12  1  0
 12 13  1  0
 13 14  1  0
 14 15  1  0
 16 23  1  0
 17 16  2  0
 19 20  1  0
 19 18  1  0
 21 20  1  0
 22 21  1  1
 23 22  1  0
 24 22  1  0
 24 26  1  0
 25 24  2  0
M  END
$$$$
