NKM.pdb
     RDKit          3D

 26 25  0  0  1  0  0  0  0  0999 V2000
   22.0454  -32.8615   -2.3147 N   0  0  0  0  0  0  0  0  0  0  0  0
   22.8909  -31.6961   -2.2576 C   0  0  0  0  0  0  0  0  0  0  0  0
   24.1285  -31.8404   -2.3054 O   0  0  0  0  0  0  0  0  0  0  0  0
   22.2175  -30.3960   -2.1450 C   0  0  0  0  0  0  0  0  0  0  0  0
   20.7239  -30.5073   -1.9560 C   0  0  2  0  0  0  0  0  0  0  0  0
   20.2068  -31.1324   -3.1587 N   0  0  0  0  0  0  0  0  0  0  0  0
   20.1542  -29.1813   -1.7177 C   0  0  0  0  0  0  0  0  0  0  0  0
   20.5721  -28.4158   -0.8190 O   0  0  0  0  0  0  0  0  0  0  0  0
   19.0567  -28.6591   -2.5138 N   0  0  0  0  0  0  0  0  0  0  0  0
   18.4714  -27.4059   -2.2310 C   0  0  1  0  0  0  0  0  0  0  0  0
   17.6022  -26.7491   -3.2213 C   0  0  0  0  0  0  0  0  0  0  0  0
   18.0670  -26.4207   -4.5696 C   0  0  0  0  0  0  0  0  0  0  0  0
   17.1006  -25.8052   -5.5298 C   0  0  0  0  0  0  0  0  0  0  0  0
   17.7646  -25.6027   -6.9006 C   0  0  0  0  0  0  0  0  0  0  0  0
   16.8591  -25.0575   -7.8651 N   0  0  0  0  0  0  0  0  0  0  0  0
   17.8539  -27.3582   -0.8526 C   0  0  0  0  0  0  0  0  0  0  0  0
   17.7636  -28.4689   -0.2699 O   0  0  0  0  0  0  0  0  0  0  0  0
   20.9967  -23.6652    3.6077 C   0  0  0  0  0  0  0  0  0  0  0  0
   20.3155  -25.3299    3.9640 S   0  0  0  0  0  0  0  0  0  0  0  0
   18.7523  -25.6144    3.2376 C   0  0  0  0  0  0  0  0  0  0  0  0
   18.5449  -25.9342    1.8312 C   0  0  0  0  0  0  0  0  0  0  0  0
   17.2232  -26.1391    1.2029 C   0  0  2  0  0  0  0  0  0  0  0  0
   17.4202  -26.1506   -0.2884 N   0  0  0  0  0  0  0  0  0  0  0  0
   16.2826  -24.9700    1.3886 C   0  0  0  0  0  0  0  0  0  0  0  0
   15.6938  -24.7877    2.5071 O   0  0  0  0  0  0  0  0  0  0  0  0
   16.0295  -24.0934    0.4050 O   0  0  0  0  0  0  0  0  0  0  0  0
  1  2  1  0
  2  4  1  0
  2  3  2  0
  5  4  1  0
  5  6  1  6
  7  5  1  0
  7  9  1  0
  8  7  2  0
 10 11  1  6
 10  9  1  0
 10 16  1  0
 11 12  1  0
 12 13  1  0
 13 14  1  0
 14 15  1  0
 16 23  1  0
 17 16  2  0
 19 20  1  0
 19 18  1  0
 21 20  1  0
 22 21  1  1
 23 22  1  0
 24 22  1  0
 24 26  1  0
 25 24  2  0
M  END
$$$$
