NKM.pdb
     RDKit          3D

 26 25  0  0  1  0  0  0  0  0999 V2000
   26.3344  -19.0443  -15.1058 N   0  0  0  0  0  0  0  0  0  0  0  0
   27.3090  -17.9890  -15.2182 C   0  0  0  0  0  0  0  0  0  0  0  0
   28.5218  -18.2783  -15.2071 O   0  0  0  0  0  0  0  0  0  0  0  0
   26.7903  -16.6206  -15.3405 C   0  0  0  0  0  0  0  0  0  0  0  0
   25.2860  -16.5376  -15.2461 C   0  0  2  0  0  0  0  0  0  0  0  0
   24.7679  -17.6628  -16.0011 N   0  0  0  0  0  0  0  0  0  0  0  0
   24.8271  -15.2490  -15.7644 C   0  0  0  0  0  0  0  0  0  0  0  0
   25.0326  -14.8809  -16.9435 O   0  0  0  0  0  0  0  0  0  0  0  0
   24.0962  -14.3022  -14.9395 N   0  0  0  0  0  0  0  0  0  0  0  0
   23.5935  -13.0950  -15.4714 C   0  0  1  0  0  0  0  0  0  0  0  0
   22.2163  -12.6669  -15.1755 C   0  0  0  0  0  0  0  0  0  0  0  0
   21.6763  -11.3939  -15.6548 C   0  0  0  0  0  0  0  0  0  0  0  0
   20.2561  -11.0531  -15.3357 C   0  0  0  0  0  0  0  0  0  0  0  0
   19.8458   -9.7534  -16.0449 C   0  0  0  0  0  0  0  0  0  0  0  0
   18.4556   -9.4603  -15.8756 N   0  0  0  0  0  0  0  0  0  0  0  0
   24.5636  -11.9477  -15.3092 C   0  0  0  0  0  0  0  0  0  0  0  0
   24.9883  -11.7697  -14.1391 O   0  0  0  0  0  0  0  0  0  0  0  0
   30.1585   -8.3151  -18.7338 C   0  0  0  0  0  0  0  0  0  0  0  0
   29.7969   -9.8503  -17.7987 S   0  0  0  0  0  0  0  0  0  0  0  0
   28.4350   -9.7026  -16.7143 C   0  0  0  0  0  0  0  0  0  0  0  0
   27.1238  -10.2904  -16.9560 C   0  0  0  0  0  0  0  0  0  0  0  0
   25.9303  -10.0536  -16.1175 C   0  0  2  0  0  0  0  0  0  0  0  0
   24.9445  -11.1541  -16.4001 N   0  0  0  0  0  0  0  0  0  0  0  0
   25.1511   -8.8209  -16.5170 C   0  0  0  0  0  0  0  0  0  0  0  0
   25.3166   -7.7218  -15.8881 O   0  0  0  0  0  0  0  0  0  0  0  0
   24.2683   -8.8300  -17.5272 O   0  0  0  0  0  0  0  0  0  0  0  0
  1  2  1  0
  2  4  1  0
  2  3  2  0
  5  4  1  0
  5  6  1  6
  7  5  1  0
  7  9  1  0
  8  7  2  0
 10 11  1  1
 10  9  1  0
 10 16  1  0
 11 12  1  0
 12 13  1  0
 13 14  1  0
 14 15  1  0
 16 23  1  0
 17 16  2  0
 19 20  1  0
 19 18  1  0
 21 20  1  0
 22 21  1  6
 23 22  1  0
 24 22  1  0
 24 26  1  0
 25 24  2  0
M  END
$$$$
