NKM.pdb
     RDKit          3D

 26 25  0  0  1  0  0  0  0  0999 V2000
   30.6785  -23.0507  -17.9832 N   0  0  0  0  0  0  0  0  0  0  0  0
   30.3331  -21.6848  -18.2850 C   0  0  0  0  0  0  0  0  0  0  0  0
   31.0412  -21.0414  -19.0846 O   0  0  0  0  0  0  0  0  0  0  0  0
   29.1464  -21.1395  -17.6137 C   0  0  0  0  0  0  0  0  0  0  0  0
   28.5303  -22.0903  -16.6160 C   0  0  2  0  0  0  0  0  0  0  0  0
   27.9996  -23.1999  -17.3851 N   0  0  0  0  0  0  0  0  0  0  0  0
   27.5026  -21.3969  -15.8397 C   0  0  0  0  0  0  0  0  0  0  0  0
   27.7685  -20.4784  -15.0311 O   0  0  0  0  0  0  0  0  0  0  0  0
   26.0930  -21.7298  -15.9556 N   0  0  0  0  0  0  0  0  0  0  0  0
   25.1043  -21.0066  -15.2539 C   0  0  1  0  0  0  0  0  0  0  0  0
   23.7669  -20.8135  -15.8384 C   0  0  0  0  0  0  0  0  0  0  0  0
   22.7169  -20.0620  -15.1495 C   0  0  0  0  0  0  0  0  0  0  0  0
   21.3659  -19.9742  -15.7836 C   0  0  0  0  0  0  0  0  0  0  0  0
   21.4452  -19.1942  -17.1050 C   0  0  0  0  0  0  0  0  0  0  0  0
   20.1782  -19.1186  -17.7655 N   0  0  0  0  0  0  0  0  0  0  0  0
   25.0065  -21.4248  -13.8050 C   0  0  0  0  0  0  0  0  0  0  0  0
   25.0456  -22.6656  -13.6042 O   0  0  0  0  0  0  0  0  0  0  0  0
   26.9620  -20.1771   -6.3364 C   0  0  0  0  0  0  0  0  0  0  0  0
   27.1400  -19.8351   -8.1290 S   0  0  0  0  0  0  0  0  0  0  0  0
   25.8828  -20.5557   -9.1051 C   0  0  0  0  0  0  0  0  0  0  0  0
   25.8126  -20.4598  -10.5574 C   0  0  0  0  0  0  0  0  0  0  0  0
   24.7220  -21.0180  -11.3837 C   0  0  2  0  0  0  0  0  0  0  0  0
   24.8804  -20.4783  -12.7789 N   0  0  0  0  0  0  0  0  0  0  0  0
   23.3535  -20.5029  -10.9989 C   0  0  0  0  0  0  0  0  0  0  0  0
   22.8247  -19.5349  -11.6425 O   0  0  0  0  0  0  0  0  0  0  0  0
   22.6517  -21.0288   -9.9836 O   0  0  0  0  0  0  0  0  0  0  0  0
  1  2  1  0
  2  4  1  0
  2  3  2  0
  5  4  1  0
  5  6  1  6
  7  5  1  0
  7  9  1  0
  8  7  2  0
 10 11  1  6
 10  9  1  0
 10 16  1  0
 11 12  1  0
 12 13  1  0
 13 14  1  0
 14 15  1  0
 16 23  1  0
 17 16  2  0
 19 20  1  0
 19 18  1  0
 21 20  1  0
 22 21  1  1
 23 22  1  0
 24 22  1  0
 24 26  1  0
 25 24  2  0
M  END
$$$$
