NKM.pdb
     RDKit          3D

 26 25  0  0  1  0  0  0  0  0999 V2000
   20.2616  -20.1421  -13.2443 N   0  0  0  0  0  0  0  0  0  0  0  0
   20.1939  -21.3823  -12.5138 C   0  0  0  0  0  0  0  0  0  0  0  0
   19.4194  -22.2772  -12.9063 O   0  0  0  0  0  0  0  0  0  0  0  0
   21.0614  -21.5032  -11.3351 C   0  0  0  0  0  0  0  0  0  0  0  0
   21.9480  -20.3012  -11.1158 C   0  0  2  0  0  0  0  0  0  0  0  0
   21.9591  -19.5694  -12.3683 N   0  0  0  0  0  0  0  0  0  0  0  0
   23.2820  -20.7377  -10.7036 C   0  0  0  0  0  0  0  0  0  0  0  0
   23.4704  -21.5528   -9.7718 O   0  0  0  0  0  0  0  0  0  0  0  0
   24.4874  -20.2511  -11.3528 N   0  0  0  0  0  0  0  0  0  0  0  0
   25.7699  -20.6636  -10.9311 C   0  0  1  0  0  0  0  0  0  0  0  0
   26.8950  -20.6855  -11.8804 C   0  0  0  0  0  0  0  0  0  0  0  0
   26.7804  -21.2854  -13.2104 C   0  0  0  0  0  0  0  0  0  0  0  0
   27.9825  -21.2912  -14.0992 C   0  0  0  0  0  0  0  0  0  0  0  0
   27.6319  -21.8928  -15.4688 C   0  0  0  0  0  0  0  0  0  0  0  0
   28.7220  -21.8085  -16.3917 N   0  0  0  0  0  0  0  0  0  0  0  0
   26.1776  -20.0253   -9.6233 C   0  0  0  0  0  0  0  0  0  0  0  0
   25.7865  -18.8410   -9.4632 O   0  0  0  0  0  0  0  0  0  0  0  0
   25.6494  -19.4214   -3.0627 C   0  0  0  0  0  0  0  0  0  0  0  0
   27.2612  -20.1814   -3.4946 S   0  0  0  0  0  0  0  0  0  0  0  0
   27.8265  -19.7580   -5.0926 C   0  0  0  0  0  0  0  0  0  0  0  0
   27.2587  -20.2772   -6.3301 C   0  0  0  0  0  0  0  0  0  0  0  0
   27.7054  -19.8922   -7.6851 C   0  0  2  0  0  0  0  0  0  0  0  0
   26.9378  -20.7243   -8.6756 N   0  0  0  0  0  0  0  0  0  0  0  0
   29.1347  -20.2870   -7.9807 C   0  0  0  0  0  0  0  0  0  0  0  0
   29.3844  -21.2964   -8.7221 O   0  0  0  0  0  0  0  0  0  0  0  0
   30.1805  -19.6088   -7.4844 O   0  0  0  0  0  0  0  0  0  0  0  0
  1  2  1  0
  2  4  1  0
  2  3  2  0
  5  4  1  0
  5  6  1  6
  7  5  1  0
  7  9  1  0
  8  7  2  0
 10 11  1  6
 10  9  1  0
 10 16  1  0
 11 12  1  0
 12 13  1  0
 13 14  1  0
 14 15  1  0
 16 23  1  0
 17 16  2  0
 19 20  1  0
 19 18  1  0
 21 20  1  0
 22 21  1  1
 23 22  1  0
 24 22  1  0
 24 26  1  0
 25 24  2  0
M  END
$$$$
