NKM.pdb
     RDKit          3D

 26 25  0  0  1  0  0  0  0  0999 V2000
   25.0215  -21.5894   -9.7088 N   0  0  0  0  0  0  0  0  0  0  0  0
   25.9916  -20.5247   -9.6697 C   0  0  0  0  0  0  0  0  0  0  0  0
   26.4829  -20.1904   -8.5735 O   0  0  0  0  0  0  0  0  0  0  0  0
   26.3375  -19.8984  -10.9520 C   0  0  0  0  0  0  0  0  0  0  0  0
   25.5107  -20.4034  -12.1098 C   0  0  2  0  0  0  0  0  0  0  0  0
   25.9444  -21.7656  -12.3563 N   0  0  0  0  0  0  0  0  0  0  0  0
   25.6970  -19.5316  -13.2695 C   0  0  0  0  0  0  0  0  0  0  0  0
   25.3604  -18.3254  -13.2715 O   0  0  0  0  0  0  0  0  0  0  0  0
   26.2898  -20.0102  -14.5067 N   0  0  0  0  0  0  0  0  0  0  0  0
   26.3855  -19.1834  -15.6469 C   0  0  1  0  0  0  0  0  0  0  0  0
   27.5119  -19.3327  -16.5831 C   0  0  0  0  0  0  0  0  0  0  0  0
   28.0487  -20.6429  -16.9532 C   0  0  0  0  0  0  0  0  0  0  0  0
   29.2065  -20.7015  -17.8970 C   0  0  0  0  0  0  0  0  0  0  0  0
   29.5881  -22.1617  -18.1850 C   0  0  0  0  0  0  0  0  0  0  0  0
   30.6830  -22.2643  -19.1005 N   0  0  0  0  0  0  0  0  0  0  0  0
   25.0742  -19.0762  -16.3905 C   0  0  0  0  0  0  0  0  0  0  0  0
   25.0815  -18.2931  -17.3744 O   0  0  0  0  0  0  0  0  0  0  0  0
   21.9458  -24.0828  -18.4697 C   0  0  0  0  0  0  0  0  0  0  0  0
   20.6345  -22.8167  -18.6687 S   0  0  0  0  0  0  0  0  0  0  0  0
   21.0925  -21.2385  -18.0754 C   0  0  0  0  0  0  0  0  0  0  0  0
   22.3242  -20.9586  -17.3489 C   0  0  0  0  0  0  0  0  0  0  0  0
   22.7047  -19.6317  -16.8215 C   0  0  2  0  0  0  0  0  0  0  0  0
   23.9465  -19.8063  -15.9907 N   0  0  0  0  0  0  0  0  0  0  0  0
   21.7227  -19.0832  -15.8111 C   0  0  0  0  0  0  0  0  0  0  0  0
   21.7041  -19.5379  -14.6178 O   0  0  0  0  0  0  0  0  0  0  0  0
   20.8450  -18.1166  -16.1197 O   0  0  0  0  0  0  0  0  0  0  0  0
  1  2  1  0
  2  4  1  0
  2  3  2  0
  5  4  1  0
  5  6  1  6
  7  5  1  0
  7  9  1  0
  8  7  2  0
 10 11  1  6
 10  9  1  0
 10 16  1  0
 11 12  1  0
 12 13  1  0
 13 14  1  0
 14 15  1  0
 16 23  1  0
 17 16  2  0
 19 20  1  0
 19 18  1  0
 21 20  1  0
 22 21  1  1
 23 22  1  0
 24 22  1  0
 24 26  1  0
 25 24  2  0
M  END
$$$$
