NKM.pdb
     RDKit          3D

 26 25  0  0  1  0  0  0  0  0999 V2000
   20.6893  -19.7836  -16.1095 N   0  0  0  0  0  0  0  0  0  0  0  0
   21.5828  -20.7434  -16.7067 C   0  0  0  0  0  0  0  0  0  0  0  0
   21.2536  -21.2982  -17.7737 O   0  0  0  0  0  0  0  0  0  0  0  0
   22.8430  -21.0026  -15.9989 C   0  0  0  0  0  0  0  0  0  0  0  0
   22.9013  -20.3763  -14.6265 C   0  0  2  0  0  0  0  0  0  0  0  0
   22.7872  -18.9441  -14.8275 N   0  0  0  0  0  0  0  0  0  0  0  0
   24.1467  -20.7568  -13.9604 C   0  0  0  0  0  0  0  0  0  0  0  0
   24.4984  -21.9494  -13.8110 O   0  0  0  0  0  0  0  0  0  0  0  0
   25.0668  -19.7689  -13.4231 N   0  0  0  0  0  0  0  0  0  0  0  0
   26.2614  -20.1496  -12.7743 C   0  0  1  0  0  0  0  0  0  0  0  0
   27.5507  -19.5719  -13.1883 C   0  0  0  0  0  0  0  0  0  0  0  0
   28.3165  -20.1041  -14.3162 C   0  0  0  0  0  0  0  0  0  0  0  0
   28.0376  -19.5724  -15.6853 C   0  0  0  0  0  0  0  0  0  0  0  0
   28.9340  -20.2675  -16.7217 C   0  0  0  0  0  0  0  0  0  0  0  0
   28.7575  -19.7309  -18.0363 N   0  0  0  0  0  0  0  0  0  0  0  0
   26.1245  -20.1449  -11.2693 C   0  0  0  0  0  0  0  0  0  0  0  0
   25.7780  -19.0446  -10.7687 O   0  0  0  0  0  0  0  0  0  0  0  0
   28.5122  -20.3457   -4.9846 C   0  0  0  0  0  0  0  0  0  0  0  0
   28.1957  -19.0203   -6.2114 S   0  0  0  0  0  0  0  0  0  0  0  0
   26.8476  -19.3571   -7.2705 C   0  0  0  0  0  0  0  0  0  0  0  0
   26.9680  -19.9800   -8.5823 C   0  0  0  0  0  0  0  0  0  0  0  0
   26.2060  -21.1677   -9.0208 C   0  0  2  0  0  0  0  0  0  0  0  0
   26.3731  -21.2967  -10.5102 N   0  0  0  0  0  0  0  0  0  0  0  0
   24.7091  -21.0048   -8.8834 C   0  0  0  0  0  0  0  0  0  0  0  0
   24.1796  -20.8601   -7.7304 O   0  0  0  0  0  0  0  0  0  0  0  0
   23.8897  -21.0080   -9.9457 O   0  0  0  0  0  0  0  0  0  0  0  0
  1  2  1  0
  2  4  1  0
  2  3  2  0
  5  4  1  0
  5  6  1  6
  7  5  1  0
  7  9  1  0
  8  7  2  0
 10 11  1  1
 10  9  1  0
 10 16  1  0
 11 12  1  0
 12 13  1  0
 13 14  1  0
 14 15  1  0
 16 23  1  0
 17 16  2  0
 19 20  1  0
 19 18  1  0
 21 20  1  0
 22 21  1  6
 23 22  1  0
 24 22  1  0
 24 26  1  0
 25 24  2  0
M  END
$$$$
