NKM.pdb
     RDKit          3D

 26 25  0  0  1  0  0  0  0  0999 V2000
   28.5087  -19.9288  -15.5436 N   0  0  0  0  0  0  0  0  0  0  0  0
   27.4248  -18.9821  -15.6139 C   0  0  0  0  0  0  0  0  0  0  0  0
   27.6128  -17.8836  -16.1731 O   0  0  0  0  0  0  0  0  0  0  0  0
   26.1506  -19.3901  -15.0085 C   0  0  0  0  0  0  0  0  0  0  0  0
   26.2257  -20.7127  -14.2845 C   0  0  2  0  0  0  0  0  0  0  0  0
   26.6433  -21.6928  -15.2691 N   0  0  0  0  0  0  0  0  0  0  0  0
   24.9268  -21.0264  -13.6894 C   0  0  0  0  0  0  0  0  0  0  0  0
   24.0203  -21.6213  -14.3159 O   0  0  0  0  0  0  0  0  0  0  0  0
   24.5985  -20.6661  -12.3206 N   0  0  0  0  0  0  0  0  0  0  0  0
   23.3447  -20.9836  -11.7549 C   0  0  1  0  0  0  0  0  0  0  0  0
   23.2045  -21.1479  -10.2986 C   0  0  0  0  0  0  0  0  0  0  0  0
   21.9469  -21.5689   -9.6796 C   0  0  0  0  0  0  0  0  0  0  0  0
   21.8668  -21.6252   -8.1879 C   0  0  0  0  0  0  0  0  0  0  0  0
   20.5404  -22.2635   -7.7474 C   0  0  0  0  0  0  0  0  0  0  0  0
   20.3671  -22.2258   -6.3276 N   0  0  0  0  0  0  0  0  0  0  0  0
   22.2298  -20.1294  -12.3129 C   0  0  0  0  0  0  0  0  0  0  0  0
   22.5495  -18.9429  -12.5798 O   0  0  0  0  0  0  0  0  0  0  0  0
   19.6974  -18.8994  -18.9416 C   0  0  0  0  0  0  0  0  0  0  0  0
   20.8185  -19.1408  -17.5109 S   0  0  0  0  0  0  0  0  0  0  0  0
   20.0066  -19.7266  -16.0791 C   0  0  0  0  0  0  0  0  0  0  0  0
   20.6779  -20.0480  -14.8265 C   0  0  0  0  0  0  0  0  0  0  0  0
   20.0660  -19.9150  -13.4879 C   0  0  2  0  0  0  0  0  0  0  0  0
   20.9416  -20.6465  -12.5077 N   0  0  0  0  0  0  0  0  0  0  0  0
   18.7536  -20.6533  -13.3519 C   0  0  0  0  0  0  0  0  0  0  0  0
   17.6481  -20.0441  -13.5459 O   0  0  0  0  0  0  0  0  0  0  0  0
   18.6958  -21.9534  -13.0254 O   0  0  0  0  0  0  0  0  0  0  0  0
  1  2  1  0
  2  4  1  0
  2  3  2  0
  5  4  1  0
  5  6  1  6
  7  5  1  0
  7  9  1  0
  8  7  2  0
 10 11  1  1
 10  9  1  0
 10 16  1  0
 11 12  1  0
 12 13  1  0
 13 14  1  0
 14 15  1  0
 16 23  1  0
 17 16  2  0
 19 20  1  0
 19 18  1  0
 21 20  1  0
 22 21  1  6
 23 22  1  0
 24 22  1  0
 24 26  1  0
 25 24  2  0
M  END
$$$$
