LWL.pdb
     RDKit          3D

 31 32  0  0  1  0  0  0  0  0999 V2000
   29.5515  -18.4078  -15.6521 C   0  0  0  0  0  0  0  0  0  0  0  0
   28.2339  -18.5404  -14.9195 C   0  0  1  0  0  0  0  0  0  0  0  0
   27.1517  -17.9852  -15.7703 C   0  0  0  0  0  0  0  0  0  0  0  0
   28.0178  -19.9435  -14.4451 C   0  0  0  0  0  0  0  0  0  0  0  0
   28.5977  -20.1825  -13.0775 C   0  0  2  0  0  0  0  0  0  0  0  0
   29.5945  -21.2338  -13.1760 N   0  0  0  0  0  0  0  0  0  0  0  0
   27.5995  -20.6178  -12.0939 C   0  0  0  0  0  0  0  0  0  0  0  0
   27.2617  -21.8289  -12.0882 O   0  0  0  0  0  0  0  0  0  0  0  0
   26.9856  -19.7721  -11.1465 N   0  0  0  0  0  0  0  0  0  0  0  0
   25.9399  -20.2498  -10.2097 C   0  0  1  0  0  0  0  0  0  0  0  0
   26.0353  -19.3766   -9.0159 C   0  0  0  0  0  0  0  0  0  0  0  0
   27.2608  -19.5182   -8.2106 C   0  0  0  0  0  0  0  0  0  0  0  0
   28.5660  -19.1452   -8.4419 C   0  0  0  0  0  0  0  0  0  0  0  0
   29.3726  -19.4944   -7.4444 N   0  0  0  0  0  0  0  0  0  0  0  0
   28.6049  -20.1108   -6.5273 C   0  0  0  0  0  0  0  0  0  0  0  0
   28.9704  -20.6569   -5.3132 C   0  0  0  0  0  0  0  0  0  0  0  0
   28.0303  -21.2519   -4.5057 C   0  0  0  0  0  0  0  0  0  0  0  0
   26.7151  -21.2909   -4.9354 C   0  0  0  0  0  0  0  0  0  0  0  0
   26.3650  -20.7419   -6.1491 C   0  0  0  0  0  0  0  0  0  0  0  0
   27.3081  -20.1455   -6.9583 C   0  0  0  0  0  0  0  0  0  0  0  0
   24.6558  -20.3560  -10.8868 C   0  0  0  0  0  0  0  0  0  0  0  0
   24.3683  -19.4308  -11.7254 O   0  0  0  0  0  0  0  0  0  0  0  0
   22.6536  -24.2951  -14.2674 C   0  0  0  0  0  0  0  0  0  0  0  0
   22.6089  -22.9159  -13.6951 C   0  0  1  0  0  0  0  0  0  0  0  0
   21.5570  -22.0604  -14.4197 C   0  0  0  0  0  0  0  0  0  0  0  0
   22.5504  -22.7609  -12.2395 C   0  0  0  0  0  0  0  0  0  0  0  0
   22.5255  -21.4260  -11.5996 C   0  0  2  0  0  0  0  0  0  0  0  0
   23.7180  -21.3947  -10.6922 N   0  0  0  0  0  0  0  0  0  0  0  0
   21.3699  -21.0711  -10.7803 C   0  0  0  0  0  0  0  0  0  0  0  0
   20.1556  -20.5981  -11.2497 O   0  0  0  0  0  0  0  0  0  0  0  0
   21.4403  -21.1844   -9.5296 O   0  0  0  0  0  0  0  0  0  0  0  0
  2  1  1  6
  2  3  1  0
  4  2  1  0
  5  4  1  0
  5  6  1  6
  7  8  2  0
  7  5  1  0
  9  7  1  0
 10  9  1  0
 10 11  1  1
 12 11  1  0
 13 12  2  0
 14 13  1  0
 15 14  1  0
 15 20  2  0
 16 15  1  0
 17 16  2  0
 17 18  1  0
 18 19  2  0
 19 20  1  0
 20 12  1  0
 21 10  1  0
 21 28  1  0
 22 21  2  0
 24 23  1  1
 24 25  1  0
 24 26  1  0
 27 26  1  1
 27 28  1  0
 27 29  1  0
 29 31  2  0
 29 30  1  0
M  END
$$$$
