LWL.pdb
     RDKit          3D

 31 32  0  0  1  0  0  0  0  0999 V2000
   27.3595  -17.6385  -17.1328 C   0  0  0  0  0  0  0  0  0  0  0  0
   28.1625  -18.6974  -16.4087 C   0  0  1  0  0  0  0  0  0  0  0  0
   29.4120  -18.0850  -15.8919 C   0  0  0  0  0  0  0  0  0  0  0  0
   27.3275  -19.4050  -15.3875 C   0  0  0  0  0  0  0  0  0  0  0  0
   28.1265  -20.3853  -14.5725 C   0  0  2  0  0  0  0  0  0  0  0  0
   28.4146  -21.5448  -15.3977 N   0  0  0  0  0  0  0  0  0  0  0  0
   27.4148  -20.8628  -13.3814 C   0  0  0  0  0  0  0  0  0  0  0  0
   26.4834  -21.6924  -13.5400 O   0  0  0  0  0  0  0  0  0  0  0  0
   27.6999  -20.4574  -12.0608 N   0  0  0  0  0  0  0  0  0  0  0  0
   26.8504  -20.8410  -10.9073 C   0  0  1  0  0  0  0  0  0  0  0  0
   27.6524  -20.5444   -9.6967 C   0  0  0  0  0  0  0  0  0  0  0  0
   26.9517  -20.6887   -8.4087 C   0  0  0  0  0  0  0  0  0  0  0  0
   25.6872  -21.1310   -8.0899 C   0  0  0  0  0  0  0  0  0  0  0  0
   25.4489  -21.0718   -6.7833 N   0  0  0  0  0  0  0  0  0  0  0  0
   26.5647  -20.5841   -6.2109 C   0  0  0  0  0  0  0  0  0  0  0  0
   26.8196  -20.3347   -4.8772 C   0  0  0  0  0  0  0  0  0  0  0  0
   28.0357  -19.8289   -4.4832 C   0  0  0  0  0  0  0  0  0  0  0  0
   28.9942  -19.5764   -5.4493 C   0  0  0  0  0  0  0  0  0  0  0  0
   28.7258  -19.8302   -6.7762 C   0  0  0  0  0  0  0  0  0  0  0  0
   27.5063  -20.3373   -7.1707 C   0  0  0  0  0  0  0  0  0  0  0  0
   25.5286  -20.2430  -11.0237 C   0  0  0  0  0  0  0  0  0  0  0  0
   25.4699  -18.9634  -10.9885 O   0  0  0  0  0  0  0  0  0  0  0  0
   22.3604  -21.5467  -14.0378 C   0  0  0  0  0  0  0  0  0  0  0  0
   23.2336  -20.3665  -13.7619 C   0  0  1  0  0  0  0  0  0  0  0  0
   23.3804  -19.4931  -15.0186 C   0  0  0  0  0  0  0  0  0  0  0  0
   22.9830  -19.5738  -12.5556 C   0  0  0  0  0  0  0  0  0  0  0  0
   23.0478  -20.1731  -11.2034 C   0  0  2  0  0  0  0  0  0  0  0  0
   24.3219  -20.9620  -11.1756 N   0  0  0  0  0  0  0  0  0  0  0  0
   21.9835  -21.0872  -10.7981 C   0  0  0  0  0  0  0  0  0  0  0  0
   22.1376  -22.4297  -10.4938 O   0  0  0  0  0  0  0  0  0  0  0  0
   20.8033  -20.6616  -10.7091 O   0  0  0  0  0  0  0  0  0  0  0  0
  2  1  1  1
  2  3  1  0
  4  2  1  0
  5  4  1  0
  5  6  1  6
  7  8  2  0
  7  5  1  0
  9  7  1  0
 10  9  1  0
 10 11  1  1
 12 11  1  0
 13 12  2  0
 14 13  1  0
 15 14  1  0
 15 20  2  0
 16 15  1  0
 17 16  2  0
 17 18  1  0
 18 19  2  0
 19 20  1  0
 20 12  1  0
 21 10  1  0
 21 28  1  0
 22 21  2  0
 24 23  1  6
 24 25  1  0
 24 26  1  0
 27 26  1  6
 27 28  1  0
 27 29  1  0
 29 31  2  0
 29 30  1  0
M  END
$$$$
