LWL.pdb
     RDKit          3D

 31 32  0  0  1  0  0  0  0  0999 V2000
   20.0805  -11.6836    4.7328 C   0  0  0  0  0  0  0  0  0  0  0  0
   18.7171  -12.3355    4.6516 C   0  0  1  0  0  0  0  0  0  0  0  0
   18.4634  -12.7484    3.2486 C   0  0  0  0  0  0  0  0  0  0  0  0
   18.5750  -13.4205    5.6729 C   0  0  0  0  0  0  0  0  0  0  0  0
   17.2602  -14.1434    5.5628 C   0  0  2  0  0  0  0  0  0  0  0  0
   16.2118  -13.2740    6.0665 N   0  0  0  0  0  0  0  0  0  0  0  0
   17.2140  -15.3829    6.3470 C   0  0  0  0  0  0  0  0  0  0  0  0
   17.1345  -15.2901    7.5984 O   0  0  0  0  0  0  0  0  0  0  0  0
   17.2522  -16.6813    5.7973 N   0  0  0  0  0  0  0  0  0  0  0  0
   17.3589  -17.8999    6.6357 C   0  0  1  0  0  0  0  0  0  0  0  0
   16.7888  -19.0015    5.8244 C   0  0  0  0  0  0  0  0  0  0  0  0
   16.3932  -20.2106    6.5675 C   0  0  0  0  0  0  0  0  0  0  0  0
   16.0128  -20.4069    7.8763 C   0  0  0  0  0  0  0  0  0  0  0  0
   15.7622  -21.6856    8.1403 N   0  0  0  0  0  0  0  0  0  0  0  0
   15.9752  -22.3628    6.9972 C   0  0  0  0  0  0  0  0  0  0  0  0
   15.8516  -23.7158    6.7527 C   0  0  0  0  0  0  0  0  0  0  0  0
   16.1172  -24.2251    5.5036 C   0  0  0  0  0  0  0  0  0  0  0  0
   16.5096  -23.3546    4.5015 C   0  0  0  0  0  0  0  0  0  0  0  0
   16.6286  -22.0070    4.7600 C   0  0  0  0  0  0  0  0  0  0  0  0
   16.3621  -21.4970    6.0126 C   0  0  0  0  0  0  0  0  0  0  0  0
   18.7120  -18.0503    7.1506 C   0  0  0  0  0  0  0  0  0  0  0  0
   19.6673  -17.9244    6.3059 O   0  0  0  0  0  0  0  0  0  0  0  0
   22.4100  -15.2170    9.8931 C   0  0  0  0  0  0  0  0  0  0  0  0
   21.9618  -16.3604    9.0426 C   0  0  1  0  0  0  0  0  0  0  0  0
   23.1679  -17.1750    8.5472 C   0  0  0  0  0  0  0  0  0  0  0  0
   20.8724  -17.2116    9.5271 C   0  0  0  0  0  0  0  0  0  0  0  0
   20.4969  -18.4648    8.8339 C   0  0  2  0  0  0  0  0  0  0  0  0
   19.0438  -18.3166    8.4979 N   0  0  0  0  0  0  0  0  0  0  0  0
   20.6298  -19.7252    9.5593 C   0  0  0  0  0  0  0  0  0  0  0  0
   21.6950  -20.6060    9.4694 O   0  0  0  0  0  0  0  0  0  0  0  0
   19.7156  -20.0864   10.3440 O   0  0  0  0  0  0  0  0  0  0  0  0
  2  1  1  6
  2  3  1  0
  4  2  1  0
  5  4  1  0
  5  6  1  1
  7  8  2  0
  7  5  1  0
  9  7  1  0
 10  9  1  0
 10 11  1  6
 12 11  1  0
 13 12  2  0
 14 13  1  0
 15 14  1  0
 15 20  2  0
 16 15  1  0
 17 16  2  0
 17 18  1  0
 18 19  2  0
 19 20  1  0
 20 12  1  0
 21 10  1  0
 21 28  1  0
 22 21  2  0
 24 23  1  1
 24 25  1  0
 24 26  1  0
 27 26  1  1
 27 28  1  0
 27 29  1  0
 29 31  2  0
 29 30  1  0
M  END
$$$$
