LWL.pdb
     RDKit          3D

 31 32  0  0  1  0  0  0  0  0999 V2000
   26.7155  -19.6522  -17.6491 C   0  0  0  0  0  0  0  0  0  0  0  0
   27.5324  -19.1425  -16.4816 C   0  0  1  0  0  0  0  0  0  0  0  0
   27.5671  -17.6592  -16.5290 C   0  0  0  0  0  0  0  0  0  0  0  0
   27.0548  -19.7297  -15.1902 C   0  0  0  0  0  0  0  0  0  0  0  0
   28.1578  -20.4115  -14.4273 C   0  0  2  0  0  0  0  0  0  0  0  0
   28.5611  -21.5982  -15.1606 N   0  0  0  0  0  0  0  0  0  0  0  0
   27.7512  -20.8444  -13.0854 C   0  0  0  0  0  0  0  0  0  0  0  0
   26.8000  -21.6609  -12.9887 O   0  0  0  0  0  0  0  0  0  0  0  0
   28.3528  -20.4094  -11.8861 N   0  0  0  0  0  0  0  0  0  0  0  0
   27.8663  -20.8319  -10.5504 C   0  0  1  0  0  0  0  0  0  0  0  0
   28.9500  -20.4925   -9.5980 C   0  0  0  0  0  0  0  0  0  0  0  0
   28.7086  -20.8568   -8.1911 C   0  0  0  0  0  0  0  0  0  0  0  0
   28.7407  -22.0652   -7.5315 C   0  0  0  0  0  0  0  0  0  0  0  0
   28.4279  -21.9438   -6.2451 N   0  0  0  0  0  0  0  0  0  0  0  0
   28.1810  -20.6385   -6.0311 C   0  0  0  0  0  0  0  0  0  0  0  0
   27.8164  -20.0033   -4.8609 C   0  0  0  0  0  0  0  0  0  0  0  0
   27.6057  -18.6449   -4.8421 C   0  0  0  0  0  0  0  0  0  0  0  0
   27.7667  -17.9318   -6.0175 C   0  0  0  0  0  0  0  0  0  0  0  0
   28.1308  -18.5790   -7.1776 C   0  0  0  0  0  0  0  0  0  0  0  0
   28.3419  -19.9410   -7.1958 C   0  0  0  0  0  0  0  0  0  0  0  0
   26.5346  -20.3009  -10.2990 C   0  0  0  0  0  0  0  0  0  0  0  0
   26.2606  -19.1624  -10.8192 O   0  0  0  0  0  0  0  0  0  0  0  0
   22.2026  -20.5290  -13.1012 C   0  0  0  0  0  0  0  0  0  0  0  0
   22.4595  -20.3339  -11.6426 C   0  0  1  0  0  0  0  0  0  0  0  0
   21.3429  -20.9760  -10.8032 C   0  0  0  0  0  0  0  0  0  0  0  0
   23.7949  -20.6308  -11.1185 C   0  0  0  0  0  0  0  0  0  0  0  0
   24.1273  -20.4488   -9.6873 C   0  0  2  0  0  0  0  0  0  0  0  0
   25.5338  -20.9441   -9.5368 N   0  0  0  0  0  0  0  0  0  0  0  0
   23.3273  -21.1596   -8.6936 C   0  0  0  0  0  0  0  0  0  0  0  0
   23.3600  -22.5224   -8.4481 O   0  0  0  0  0  0  0  0  0  0  0  0
   22.5180  -20.5170   -7.9767 O   0  0  0  0  0  0  0  0  0  0  0  0
  2  1  1  6
  2  3  1  0
  4  2  1  0
  5  4  1  0
  5  6  1  6
  7  8  2  0
  7  5  1  0
  9  7  1  0
 10  9  1  0
 10 11  1  1
 12 11  1  0
 13 12  2  0
 14 13  1  0
 15 14  1  0
 15 20  2  0
 16 15  1  0
 17 16  2  0
 17 18  1  0
 18 19  2  0
 19 20  1  0
 20 12  1  0
 21 10  1  0
 21 28  1  0
 22 21  2  0
 24 23  1  6
 24 25  1  0
 24 26  1  0
 27 26  1  6
 27 28  1  0
 27 29  1  0
 29 31  2  0
 29 30  1  0
M  END
$$$$
