LWL.pdb
     RDKit          3D

 31 32  0  0  1  0  0  0  0  0999 V2000
   28.8212  -17.3681  -19.4527 C   0  0  0  0  0  0  0  0  0  0  0  0
   28.9496  -18.5249  -18.4853 C   0  0  1  0  0  0  0  0  0  0  0  0
   30.3888  -18.7739  -18.2205 C   0  0  0  0  0  0  0  0  0  0  0  0
   28.1039  -18.3091  -17.2693 C   0  0  0  0  0  0  0  0  0  0  0  0
   28.3736  -19.3271  -16.1949 C   0  0  2  0  0  0  0  0  0  0  0  0
   28.2657  -20.6528  -16.7776 N   0  0  0  0  0  0  0  0  0  0  0  0
   27.4195  -19.2603  -15.0819 C   0  0  0  0  0  0  0  0  0  0  0  0
   27.3204  -18.1777  -14.4502 O   0  0  0  0  0  0  0  0  0  0  0  0
   26.5984  -20.3286  -14.6645 N   0  0  0  0  0  0  0  0  0  0  0  0
   25.4286  -20.1350  -13.7739 C   0  0  1  0  0  0  0  0  0  0  0  0
   24.2407  -20.5082  -14.5778 C   0  0  0  0  0  0  0  0  0  0  0  0
   22.9455  -20.4511  -13.8779 C   0  0  0  0  0  0  0  0  0  0  0  0
   22.4232  -19.5533  -12.9738 C   0  0  0  0  0  0  0  0  0  0  0  0
   21.2069  -19.9015  -12.5655 N   0  0  0  0  0  0  0  0  0  0  0  0
   20.9020  -21.0481  -13.2003 C   0  0  0  0  0  0  0  0  0  0  0  0
   19.7537  -21.8097  -13.1156 C   0  0  0  0  0  0  0  0  0  0  0  0
   19.6278  -22.9643  -13.8511 C   0  0  0  0  0  0  0  0  0  0  0  0
   20.6734  -23.3441  -14.6747 C   0  0  0  0  0  0  0  0  0  0  0  0
   21.8131  -22.5743  -14.7492 C   0  0  0  0  0  0  0  0  0  0  0  0
   21.9388  -21.4168  -14.0115 C   0  0  0  0  0  0  0  0  0  0  0  0
   25.6387  -20.8062  -12.4995 C   0  0  0  0  0  0  0  0  0  0  0  0
   26.0086  -22.0322  -12.5481 O   0  0  0  0  0  0  0  0  0  0  0  0
   27.9329  -18.6840   -8.5828 C   0  0  0  0  0  0  0  0  0  0  0  0
   27.4919  -19.7851   -9.4909 C   0  0  1  0  0  0  0  0  0  0  0  0
   28.6982  -20.6052   -9.9766 C   0  0  0  0  0  0  0  0  0  0  0  0
   26.3703  -20.6312   -9.0761 C   0  0  0  0  0  0  0  0  0  0  0  0
   25.3670  -21.1244  -10.0467 C   0  0  2  0  0  0  0  0  0  0  0  0
   25.4711  -20.2099  -11.2297 N   0  0  0  0  0  0  0  0  0  0  0  0
   23.9620  -21.1315   -9.6487 C   0  0  0  0  0  0  0  0  0  0  0  0
   22.9389  -20.4318  -10.2670 O   0  0  0  0  0  0  0  0  0  0  0  0
   23.6037  -21.8169   -8.6569 O   0  0  0  0  0  0  0  0  0  0  0  0
  2  1  1  6
  2  3  1  0
  4  2  1  0
  5  4  1  0
  5  6  1  6
  7  8  2  0
  7  5  1  0
  9  7  1  0
 10  9  1  0
 10 11  1  6
 12 11  1  0
 13 12  2  0
 14 13  1  0
 15 14  1  0
 15 20  2  0
 16 15  1  0
 17 16  2  0
 17 18  1  0
 18 19  2  0
 19 20  1  0
 20 12  1  0
 21 10  1  0
 21 28  1  0
 22 21  2  0
 24 23  1  1
 24 25  1  0
 24 26  1  0
 27 26  1  1
 27 28  1  0
 27 29  1  0
 29 31  2  0
 29 30  1  0
M  END
$$$$
