LWL.pdb
     RDKit          3D

 31 32  0  0  1  0  0  0  0  0999 V2000
   25.8225  -20.6655  -17.5771 C   0  0  0  0  0  0  0  0  0  0  0  0
   24.9035  -20.3096  -16.4286 C   0  0  1  0  0  0  0  0  0  0  0  0
   23.5363  -20.7991  -16.7360 C   0  0  0  0  0  0  0  0  0  0  0  0
   25.4686  -20.7705  -15.1213 C   0  0  0  0  0  0  0  0  0  0  0  0
   24.5634  -20.4547  -13.9618 C   0  0  2  0  0  0  0  0  0  0  0  0
   24.3964  -19.0143  -13.8856 N   0  0  0  0  0  0  0  0  0  0  0  0
   25.0998  -20.9011  -12.6709 C   0  0  0  0  0  0  0  0  0  0  0  0
   25.3361  -22.1266  -12.5189 O   0  0  0  0  0  0  0  0  0  0  0  0
   25.3724  -20.0510  -11.5788 N   0  0  0  0  0  0  0  0  0  0  0  0
   26.0248  -20.5318  -10.3369 C   0  0  1  0  0  0  0  0  0  0  0  0
   27.1268  -19.5792  -10.0628 C   0  0  0  0  0  0  0  0  0  0  0  0
   28.1110  -20.0062   -9.0531 C   0  0  0  0  0  0  0  0  0  0  0  0
   29.2495  -20.7759   -9.1409 C   0  0  0  0  0  0  0  0  0  0  0  0
   29.8385  -20.9384   -7.9602 N   0  0  0  0  0  0  0  0  0  0  0  0
   29.0903  -20.2712   -7.0625 C   0  0  0  0  0  0  0  0  0  0  0  0
   29.2803  -20.1359   -5.7019 C   0  0  0  0  0  0  0  0  0  0  0  0
   28.3954  -19.4059   -4.9442 C   0  0  0  0  0  0  0  0  0  0  0  0
   27.3149  -18.8124   -5.5734 C   0  0  0  0  0  0  0  0  0  0  0  0
   27.1380  -18.9559   -6.9319 C   0  0  0  0  0  0  0  0  0  0  0  0
   28.0255  -19.6880   -7.6910 C   0  0  0  0  0  0  0  0  0  0  0  0
   25.0353  -20.7614   -9.2945 C   0  0  0  0  0  0  0  0  0  0  0  0
   24.0888  -19.9028   -9.1993 O   0  0  0  0  0  0  0  0  0  0  0  0
   23.1938  -25.7419   -7.8808 C   0  0  0  0  0  0  0  0  0  0  0  0
   23.1839  -24.2722   -8.1482 C   0  0  1  0  0  0  0  0  0  0  0  0
   21.8046  -23.8213   -8.6562 C   0  0  0  0  0  0  0  0  0  0  0  0
   23.7283  -23.3693   -7.1311 C   0  0  0  0  0  0  0  0  0  0  0  0
   23.9249  -21.9262   -7.3967 C   0  0  2  0  0  0  0  0  0  0  0  0
   25.0401  -21.8511   -8.3952 N   0  0  0  0  0  0  0  0  0  0  0  0
   24.3049  -21.0615   -6.2829 C   0  0  0  0  0  0  0  0  0  0  0  0
   25.5964  -20.8257   -5.8412 O   0  0  0  0  0  0  0  0  0  0  0  0
   23.4109  -20.4602   -5.6339 O   0  0  0  0  0  0  0  0  0  0  0  0
  2  1  1  6
  2  3  1  0
  4  2  1  0
  5  4  1  0
  5  6  1  1
  7  8  2  0
  7  5  1  0
  9  7  1  0
 10  9  1  0
 10 11  1  1
 12 11  1  0
 13 12  2  0
 14 13  1  0
 15 14  1  0
 15 20  2  0
 16 15  1  0
 17 16  2  0
 17 18  1  0
 18 19  2  0
 19 20  1  0
 20 12  1  0
 21 10  1  0
 21 28  1  0
 22 21  2  0
 24 23  1  1
 24 25  1  0
 24 26  1  0
 27 26  1  1
 27 28  1  0
 27 29  1  0
 29 31  2  0
 29 30  1  0
M  END
$$$$
