LWL.pdb
     RDKit          3D

 31 32  0  0  1  0  0  0  0  0999 V2000
   28.7247  -17.7943  -18.4209 C   0  0  0  0  0  0  0  0  0  0  0  0
   28.9078  -18.3958  -17.0443 C   0  0  1  0  0  0  0  0  0  0  0  0
   29.0022  -17.2994  -16.0482 C   0  0  0  0  0  0  0  0  0  0  0  0
   27.8611  -19.4279  -16.7617 C   0  0  0  0  0  0  0  0  0  0  0  0
   28.1127  -20.1622  -15.4729 C   0  0  2  0  0  0  0  0  0  0  0  0
   27.8282  -21.5709  -15.6811 N   0  0  0  0  0  0  0  0  0  0  0  0
   27.2610  -19.7030  -14.3696 C   0  0  0  0  0  0  0  0  0  0  0  0
   26.5315  -18.6974  -14.5628 O   0  0  0  0  0  0  0  0  0  0  0  0
   27.1990  -20.3107  -13.0982 N   0  0  0  0  0  0  0  0  0  0  0  0
   25.9660  -20.3130  -12.2742 C   0  0  1  0  0  0  0  0  0  0  0  0
   24.9740  -21.1130  -13.0310 C   0  0  0  0  0  0  0  0  0  0  0  0
   23.5588  -20.8378  -12.7282 C   0  0  0  0  0  0  0  0  0  0  0  0
   22.6884  -21.3811  -11.8096 C   0  0  0  0  0  0  0  0  0  0  0  0
   21.4728  -20.8496  -11.8939 N   0  0  0  0  0  0  0  0  0  0  0  0
   21.5203  -19.9361  -12.8807 C   0  0  0  0  0  0  0  0  0  0  0  0
   20.5163  -19.1159  -13.3550 C   0  0  0  0  0  0  0  0  0  0  0  0
   20.7620  -18.2374  -14.3835 C   0  0  0  0  0  0  0  0  0  0  0  0
   22.0329  -18.1939  -14.9301 C   0  0  0  0  0  0  0  0  0  0  0  0
   23.0249  -19.0182  -14.4467 C   0  0  0  0  0  0  0  0  0  0  0  0
   22.7779  -19.8989  -13.4155 C   0  0  0  0  0  0  0  0  0  0  0  0
   26.2664  -20.7022  -10.9042 C   0  0  0  0  0  0  0  0  0  0  0  0
   26.8816  -21.8146  -10.7429 O   0  0  0  0  0  0  0  0  0  0  0  0
   28.5243  -18.2584   -6.0950 C   0  0  0  0  0  0  0  0  0  0  0  0
   28.1850  -19.3121   -7.0981 C   0  0  1  0  0  0  0  0  0  0  0  0
   28.6764  -20.6904   -6.6261 C   0  0  0  0  0  0  0  0  0  0  0  0
   26.8232  -19.3575   -7.6362 C   0  0  0  0  0  0  0  0  0  0  0  0
   26.3360  -20.5122   -8.4242 C   0  0  2  0  0  0  0  0  0  0  0  0
   25.9373  -19.9493   -9.7549 N   0  0  0  0  0  0  0  0  0  0  0  0
   25.1827  -21.2558   -7.9247 C   0  0  0  0  0  0  0  0  0  0  0  0
   25.2151  -22.2639   -6.9753 O   0  0  0  0  0  0  0  0  0  0  0  0
   24.0370  -20.9942   -8.3727 O   0  0  0  0  0  0  0  0  0  0  0  0
  2  1  1  6
  2  3  1  0
  4  2  1  0
  5  4  1  0
  5  6  1  6
  7  8  2  0
  7  5  1  0
  9  7  1  0
 10  9  1  0
 10 11  1  6
 12 11  1  0
 13 12  2  0
 14 13  1  0
 15 14  1  0
 15 20  2  0
 16 15  1  0
 17 16  2  0
 17 18  1  0
 18 19  2  0
 19 20  1  0
 20 12  1  0
 21 10  1  0
 21 28  1  0
 22 21  2  0
 24 23  1  1
 24 25  1  0
 24 26  1  0
 27 26  1  1
 27 28  1  0
 27 29  1  0
 29 31  2  0
 29 30  1  0
M  END
$$$$
