LWL.pdb
     RDKit          3D

 31 32  0  0  1  0  0  0  0  0999 V2000
   29.8704  -16.1396  -19.1208 C   0  0  0  0  0  0  0  0  0  0  0  0
   29.4857  -17.4876  -18.5505 C   0  0  1  0  0  0  0  0  0  0  0  0
   30.7212  -18.2510  -18.2433 C   0  0  0  0  0  0  0  0  0  0  0  0
   28.5264  -17.3387  -17.4111 C   0  0  0  0  0  0  0  0  0  0  0  0
   28.2741  -18.6402  -16.6997 C   0  0  2  0  0  0  0  0  0  0  0  0
   28.0652  -19.6771  -17.6946 N   0  0  0  0  0  0  0  0  0  0  0  0
   27.0827  -18.6100  -15.8435 C   0  0  0  0  0  0  0  0  0  0  0  0
   27.0330  -17.7509  -14.9269 O   0  0  0  0  0  0  0  0  0  0  0  0
   25.9799  -19.4798  -15.9733 N   0  0  0  0  0  0  0  0  0  0  0  0
   24.7212  -19.2913  -15.2122 C   0  0  1  0  0  0  0  0  0  0  0  0
   23.6263  -19.4052  -16.2047 C   0  0  0  0  0  0  0  0  0  0  0  0
   22.2576  -19.3196  -15.6664 C   0  0  0  0  0  0  0  0  0  0  0  0
   21.5611  -18.2901  -15.0736 C   0  0  0  0  0  0  0  0  0  0  0  0
   20.3377  -18.6577  -14.7054 N   0  0  0  0  0  0  0  0  0  0  0  0
   20.2042  -19.9508  -15.0528 C   0  0  0  0  0  0  0  0  0  0  0  0
   19.1199  -20.7885  -14.8843 C   0  0  0  0  0  0  0  0  0  0  0  0
   19.1759  -22.0945  -15.3098 C   0  0  0  0  0  0  0  0  0  0  0  0
   20.3385  -22.5485  -15.9082 C   0  0  0  0  0  0  0  0  0  0  0  0
   21.4125  -21.7013  -16.0697 C   0  0  0  0  0  0  0  0  0  0  0  0
   21.3557  -20.3919  -15.6428 C   0  0  0  0  0  0  0  0  0  0  0  0
   24.6912  -20.1642  -14.0478 C   0  0  0  0  0  0  0  0  0  0  0  0
   25.0960  -21.3678  -14.2193 O   0  0  0  0  0  0  0  0  0  0  0  0
   26.9088  -19.6961   -9.2333 C   0  0  0  0  0  0  0  0  0  0  0  0
   26.2780  -20.3397  -10.4247 C   0  0  1  0  0  0  0  0  0  0  0  0
   26.8977  -21.7219  -10.6878 C   0  0  0  0  0  0  0  0  0  0  0  0
   24.8165  -20.3534  -10.5245 C   0  0  0  0  0  0  0  0  0  0  0  0
   24.1235  -20.8648  -11.7287 C   0  0  2  0  0  0  0  0  0  0  0  0
   24.2584  -19.7835  -12.7578 N   0  0  0  0  0  0  0  0  0  0  0  0
   22.6991  -21.1713  -11.6316 C   0  0  0  0  0  0  0  0  0  0  0  0
   22.1524  -22.3485  -11.1478 O   0  0  0  0  0  0  0  0  0  0  0  0
   21.8559  -20.3205  -12.0152 O   0  0  0  0  0  0  0  0  0  0  0  0
  2  1  1  1
  2  3  1  0
  4  2  1  0
  5  4  1  0
  5  6  1  6
  7  8  2  0
  7  5  1  0
  9  7  1  0
 10  9  1  0
 10 11  1  6
 12 11  1  0
 13 12  2  0
 14 13  1  0
 15 14  1  0
 15 20  2  0
 16 15  1  0
 17 16  2  0
 17 18  1  0
 18 19  2  0
 19 20  1  0
 20 12  1  0
 21 10  1  0
 21 28  1  0
 22 21  2  0
 24 23  1  1
 24 25  1  0
 24 26  1  0
 27 26  1  1
 27 28  1  0
 27 29  1  0
 29 31  2  0
 29 30  1  0
M  END
$$$$
