LWL.pdb
     RDKit          3D

 31 32  0  0  1  0  0  0  0  0999 V2000
   29.6661  -18.2618  -20.5123 C   0  0  0  0  0  0  0  0  0  0  0  0
   29.3794  -19.4654  -19.6408 C   0  0  1  0  0  0  0  0  0  0  0  0
   30.5827  -20.3338  -19.6077 C   0  0  0  0  0  0  0  0  0  0  0  0
   28.8534  -19.0506  -18.3022 C   0  0  0  0  0  0  0  0  0  0  0  0
   28.7089  -20.2126  -17.3574 C   0  0  2  0  0  0  0  0  0  0  0  0
   28.3001  -21.3790  -18.1195 N   0  0  0  0  0  0  0  0  0  0  0  0
   27.6952  -19.9917  -16.3196 C   0  0  0  0  0  0  0  0  0  0  0  0
   27.8046  -18.9727  -15.5912 O   0  0  0  0  0  0  0  0  0  0  0  0
   26.5980  -20.8441  -16.0762 N   0  0  0  0  0  0  0  0  0  0  0  0
   25.5398  -20.5206  -15.0889 C   0  0  1  0  0  0  0  0  0  0  0  0
   24.2546  -20.8511  -15.7490 C   0  0  0  0  0  0  0  0  0  0  0  0
   23.0565  -20.7882  -14.8939 C   0  0  0  0  0  0  0  0  0  0  0  0
   22.3423  -21.7617  -14.2319 C   0  0  0  0  0  0  0  0  0  0  0  0
   21.2937  -21.2629  -13.5846 N   0  0  0  0  0  0  0  0  0  0  0  0
   21.2978  -19.9366  -13.8108 C   0  0  0  0  0  0  0  0  0  0  0  0
   20.4165  -18.9750  -13.3587 C   0  0  0  0  0  0  0  0  0  0  0  0
   20.5893  -17.6550  -13.7020 C   0  0  0  0  0  0  0  0  0  0  0  0
   21.6619  -17.3136  -14.5076 C   0  0  0  0  0  0  0  0  0  0  0  0
   22.5332  -18.2837  -14.9512 C   0  0  0  0  0  0  0  0  0  0  0  0
   22.3594  -19.6070  -14.6066 C   0  0  0  0  0  0  0  0  0  0  0  0
   25.8340  -21.1357  -13.8030 C   0  0  0  0  0  0  0  0  0  0  0  0
   26.4728  -22.2462  -13.8281 O   0  0  0  0  0  0  0  0  0  0  0  0
   25.9741  -19.5811   -8.7237 C   0  0  0  0  0  0  0  0  0  0  0  0
   26.8738  -19.6174   -9.9156 C   0  0  1  0  0  0  0  0  0  0  0  0
   28.2634  -19.0606   -9.5651 C   0  0  0  0  0  0  0  0  0  0  0  0
   26.9473  -20.8505  -10.7031 C   0  0  0  0  0  0  0  0  0  0  0  0
   25.7467  -21.4427  -11.3353 C   0  0  2  0  0  0  0  0  0  0  0  0
   25.4749  -20.6011  -12.5454 N   0  0  0  0  0  0  0  0  0  0  0  0
   24.5053  -21.4799  -10.5671 C   0  0  0  0  0  0  0  0  0  0  0  0
   23.3577  -20.7545  -10.8419 O   0  0  0  0  0  0  0  0  0  0  0  0
   24.4276  -22.2197   -9.5529 O   0  0  0  0  0  0  0  0  0  0  0  0
  2  1  1  6
  2  3  1  0
  4  2  1  0
  5  4  1  0
  5  6  1  6
  7  8  2  0
  7  5  1  0
  9  7  1  0
 10  9  1  0
 10 11  1  6
 12 11  1  0
 13 12  2  0
 14 13  1  0
 15 14  1  0
 15 20  2  0
 16 15  1  0
 17 16  2  0
 17 18  1  0
 18 19  2  0
 19 20  1  0
 20 12  1  0
 21 10  1  0
 21 28  1  0
 22 21  2  0
 24 23  1  1
 24 25  1  0
 24 26  1  0
 27 26  1  1
 27 28  1  0
 27 29  1  0
 29 31  2  0
 29 30  1  0
M  END
$$$$
