STV.pdb
     RDKit          3D

 21 20  0  0  1  0  0  0  0  0999 V2000
   13.0711  -19.1076   22.1157 O   0  0  0  0  0  0  0  0  0  0  0  0
   11.8472  -18.4854   22.3529 C   0  0  0  0  0  0  0  0  0  0  0  0
   11.5621  -17.4400   21.2894 C   0  0  2  0  0  0  0  0  0  0  0  0
   12.8348  -16.9094   20.8565 N   0  0  0  0  0  0  0  0  0  0  0  0
   10.7277  -16.3314   21.8111 C   0  0  0  0  0  0  0  0  0  0  0  0
   11.2571  -15.2370   22.1661 O   0  0  0  0  0  0  0  0  0  0  0  0
    6.4832  -13.8749   22.3043 C   0  0  0  0  0  0  0  0  0  0  0  0
    7.1686  -15.1636   21.9044 C   0  0  1  0  0  0  0  0  0  0  0  0
    7.0591  -15.4165   20.5391 O   0  0  0  0  0  0  0  0  0  0  0  0
    8.5496  -15.2912   22.4237 C   0  0  2  0  0  0  0  0  0  0  0  0
    9.3321  -16.3748   21.9598 N   0  0  0  0  0  0  0  0  0  0  0  0
    8.4995  -15.3245   23.9039 C   0  0  0  0  0  0  0  0  0  0  0  0
    8.8930  -16.3900   24.4745 O   0  0  0  0  0  0  0  0  0  0  0  0
    6.1133  -12.6747   26.1255 C   0  0  0  0  0  0  0  0  0  0  0  0
    7.3956  -13.1609   26.7814 C   0  0  2  0  0  0  0  0  0  0  0  0
    8.4505  -12.0913   26.6078 C   0  0  0  0  0  0  0  0  0  0  0  0
    7.8844  -14.4420   26.1370 C   0  0  2  0  0  0  0  0  0  0  0  0
    8.0424  -14.2450   24.7107 N   0  0  0  0  0  0  0  0  0  0  0  0
    6.9168  -15.5238   26.4244 C   0  0  0  0  0  0  0  0  0  0  0  0
    6.9993  -16.2091   27.6268 O   0  0  0  0  0  0  0  0  0  0  0  0
    6.0117  -15.8476   25.6074 O   0  0  0  0  0  0  0  0  0  0  0  0
  2  1  1  0
  3  2  1  0
  3  4  1  1
  5 11  1  0
  5  3  1  0
  6  5  2  0
  8  7  1  6
  9  8  1  0
 10  8  1  0
 10 12  1  0
 10 11  1  6
 12 18  1  0
 13 12  2  0
 15 16  1  6
 15 14  1  0
 17 15  1  0
 17 18  1  6
 19 20  1  0
 19 17  1  0
 21 19  2  0
M  END
$$$$
