STV.pdb
     RDKit          3D

 21 20  0  0  1  0  0  0  0  0999 V2000
   13.2303  -18.1301   20.8106 O   0  0  0  0  0  0  0  0  0  0  0  0
   12.4355  -17.1199   21.3483 C   0  0  0  0  0  0  0  0  0  0  0  0
   11.1873  -16.9153   20.5085 C   0  0  2  0  0  0  0  0  0  0  0  0
   11.6164  -16.4668   19.2034 N   0  0  0  0  0  0  0  0  0  0  0  0
   10.2836  -15.8983   21.0970 C   0  0  0  0  0  0  0  0  0  0  0  0
   10.3088  -14.6994   20.6893 O   0  0  0  0  0  0  0  0  0  0  0  0
    6.6373  -15.2323   20.7626 C   0  0  0  0  0  0  0  0  0  0  0  0
    6.9697  -15.4574   22.2218 C   0  0  1  0  0  0  0  0  0  0  0  0
    6.4967  -16.6822   22.6867 O   0  0  0  0  0  0  0  0  0  0  0  0
    8.3896  -15.2027   22.5567 C   0  0  2  0  0  0  0  0  0  0  0  0
    9.3507  -16.1436   22.1173 N   0  0  0  0  0  0  0  0  0  0  0  0
    8.5089  -15.0326   24.0234 C   0  0  0  0  0  0  0  0  0  0  0  0
    9.3161  -15.8018   24.6336 O   0  0  0  0  0  0  0  0  0  0  0  0
    5.6369  -13.1638   26.4654 C   0  0  0  0  0  0  0  0  0  0  0  0
    7.0989  -12.9021   26.7898 C   0  0  2  0  0  0  0  0  0  0  0  0
    7.4861  -11.5706   26.1862 C   0  0  0  0  0  0  0  0  0  0  0  0
    7.9873  -13.9823   26.2071 C   0  0  2  0  0  0  0  0  0  0  0  0
    7.7807  -14.0690   24.7761 N   0  0  0  0  0  0  0  0  0  0  0  0
    7.6791  -15.2678   26.8717 C   0  0  0  0  0  0  0  0  0  0  0  0
    8.2257  -15.5386   28.1168 O   0  0  0  0  0  0  0  0  0  0  0  0
    6.9304  -16.1336   26.3413 O   0  0  0  0  0  0  0  0  0  0  0  0
  2  1  1  0
  3  2  1  0
  3  4  1  6
  5 11  1  0
  5  3  1  0
  6  5  2  0
  8  7  1  6
  9  8  1  0
 10  8  1  0
 10 12  1  0
 10 11  1  1
 12 18  1  0
 13 12  2  0
 15 16  1  6
 15 14  1  0
 17 15  1  0
 17 18  1  6
 19 20  1  0
 19 17  1  0
 21 19  2  0
M  END
$$$$
