STV.pdb
     RDKit          3D

 21 20  0  0  1  0  0  0  0  0999 V2000
   11.0064  -13.1506   19.9958 O   0  0  0  0  0  0  0  0  0  0  0  0
   10.4422  -14.3059   19.4591 C   0  0  0  0  0  0  0  0  0  0  0  0
    8.9407  -14.1456   19.3008 C   0  0  2  0  0  0  0  0  0  0  0  0
    8.7029  -12.8191   18.7791 N   0  0  0  0  0  0  0  0  0  0  0  0
    8.2281  -14.2928   20.5923 C   0  0  0  0  0  0  0  0  0  0  0  0
    7.5078  -13.3535   21.0427 O   0  0  0  0  0  0  0  0  0  0  0  0
    6.0444  -17.1521   23.9785 C   0  0  0  0  0  0  0  0  0  0  0  0
    7.0079  -17.0364   22.8172 C   0  0  1  0  0  0  0  0  0  0  0  0
    6.5697  -17.7392   21.6974 O   0  0  0  0  0  0  0  0  0  0  0  0
    7.4220  -15.6456   22.5215 C   0  0  2  0  0  0  0  0  0  0  0  0
    8.2738  -15.4319   21.4122 N   0  0  0  0  0  0  0  0  0  0  0  0
    8.0465  -15.0677   23.7342 C   0  0  0  0  0  0  0  0  0  0  0  0
    9.3164  -15.0658   23.7889 O   0  0  0  0  0  0  0  0  0  0  0  0
    5.8337  -13.3922   27.0066 C   0  0  0  0  0  0  0  0  0  0  0  0
    7.1889  -12.8518   26.5795 C   0  0  2  0  0  0  0  0  0  0  0  0
    6.9615  -11.7492   25.5698 C   0  0  0  0  0  0  0  0  0  0  0  0
    8.0306  -13.9373   25.9401 C   0  0  2  0  0  0  0  0  0  0  0  0
    7.3138  -14.5217   24.8253 N   0  0  0  0  0  0  0  0  0  0  0  0
    8.3559  -14.9571   26.9615 C   0  0  0  0  0  0  0  0  0  0  0  0
    9.3086  -14.6728   27.9279 O   0  0  0  0  0  0  0  0  0  0  0  0
    7.7926  -16.0857   26.9847 O   0  0  0  0  0  0  0  0  0  0  0  0
  2  1  1  0
  3  2  1  0
  3  4  1  1
  5 11  1  0
  5  3  1  0
  6  5  2  0
  8  7  1  1
  9  8  1  0
 10  8  1  0
 10 12  1  0
 10 11  1  6
 12 18  1  0
 13 12  2  0
 15 16  1  6
 15 14  1  0
 17 15  1  0
 17 18  1  6
 19 20  1  0
 19 17  1  0
 21 19  2  0
M  END
$$$$
