STV.pdb
     RDKit          3D

 21 20  0  0  1  0  0  0  0  0999 V2000
    9.1465  -14.9027   18.1917 O   0  0  0  0  0  0  0  0  0  0  0  0
    8.2347  -14.9267   19.2450 C   0  0  0  0  0  0  0  0  0  0  0  0
    8.1685  -16.3108   19.8655 C   0  0  2  0  0  0  0  0  0  0  0  0
    7.3924  -17.1439   18.9755 N   0  0  0  0  0  0  0  0  0  0  0  0
    7.5200  -16.2906   21.1983 C   0  0  0  0  0  0  0  0  0  0  0  0
    6.2582  -16.2530   21.3015 O   0  0  0  0  0  0  0  0  0  0  0  0
    6.7891  -17.5978   25.7221 C   0  0  0  0  0  0  0  0  0  0  0  0
    7.5393  -17.6450   24.4085 C   0  0  1  0  0  0  0  0  0  0  0  0
    7.1456  -18.7202   23.6156 O   0  0  0  0  0  0  0  0  0  0  0  0
    7.5620  -16.3516   23.6875 C   0  0  2  0  0  0  0  0  0  0  0  0
    8.2012  -16.3100   22.4260 N   0  0  0  0  0  0  0  0  0  0  0  0
    8.1611  -15.3250   24.5717 C   0  0  0  0  0  0  0  0  0  0  0  0
    9.4255  -15.1993   24.5422 O   0  0  0  0  0  0  0  0  0  0  0  0
    5.9055  -12.7590   27.1930 C   0  0  0  0  0  0  0  0  0  0  0  0
    7.1867  -12.3164   26.5049 C   0  0  2  0  0  0  0  0  0  0  0  0
    6.8182  -11.6806   25.1831 C   0  0  0  0  0  0  0  0  0  0  0  0
    8.1001  -13.4968   26.2444 C   0  0  2  0  0  0  0  0  0  0  0  0
    7.4098  -14.4835   25.4393 N   0  0  0  0  0  0  0  0  0  0  0  0
    8.5287  -14.0676   27.5403 C   0  0  0  0  0  0  0  0  0  0  0  0
    8.0391  -15.3033   27.9351 O   0  0  0  0  0  0  0  0  0  0  0  0
    9.3305  -13.4650   28.3055 O   0  0  0  0  0  0  0  0  0  0  0  0
  2  1  1  0
  3  2  1  0
  3  4  1  6
  5 11  1  0
  5  3  1  0
  6  5  2  0
  8  7  1  1
  9  8  1  0
 10  8  1  0
 10 12  1  0
 10 11  1  6
 12 18  1  0
 13 12  2  0
 15 16  1  6
 15 14  1  0
 17 15  1  0
 17 18  1  6
 19 20  1  0
 19 17  1  0
 21 19  2  0
M  END
$$$$
