STV.pdb
     RDKit          3D

 21 20  0  0  1  0  0  0  0  0999 V2000
   10.3428  -15.7700   18.1601 O   0  0  0  0  0  0  0  0  0  0  0  0
    9.2129  -15.3512   18.8595 C   0  0  0  0  0  0  0  0  0  0  0  0
    8.5594  -16.5215   19.5726 C   0  0  2  0  0  0  0  0  0  0  0  0
    7.7462  -17.2168   18.6011 N   0  0  0  0  0  0  0  0  0  0  0  0
    7.6988  -16.0766   20.6947 C   0  0  0  0  0  0  0  0  0  0  0  0
    6.4485  -15.9490   20.5378 O   0  0  0  0  0  0  0  0  0  0  0  0
    6.1545  -17.9642   22.7221 C   0  0  0  0  0  0  0  0  0  0  0  0
    6.9620  -17.1210   23.6850 C   0  0  1  0  0  0  0  0  0  0  0  0
    8.0282  -17.8270   24.2368 O   0  0  0  0  0  0  0  0  0  0  0  0
    7.3430  -15.7963   23.1434 C   0  0  2  0  0  0  0  0  0  0  0  0
    8.1554  -15.7651   21.9855 N   0  0  0  0  0  0  0  0  0  0  0  0
    7.9958  -15.0133   24.2182 C   0  0  0  0  0  0  0  0  0  0  0  0
    9.2663  -15.0218   24.2533 O   0  0  0  0  0  0  0  0  0  0  0  0
    5.8761  -12.8386   27.2682 C   0  0  0  0  0  0  0  0  0  0  0  0
    7.2071  -12.3647   26.7070 C   0  0  2  0  0  0  0  0  0  0  0  0
    6.9272  -11.4297   25.5519 C   0  0  0  0  0  0  0  0  0  0  0  0
    8.0325  -13.5319   26.2052 C   0  0  2  0  0  0  0  0  0  0  0  0
    7.2893  -14.2623   25.1992 N   0  0  0  0  0  0  0  0  0  0  0  0
    8.3808  -14.4014   27.3505 C   0  0  0  0  0  0  0  0  0  0  0  0
    9.3121  -13.9631   28.2794 O   0  0  0  0  0  0  0  0  0  0  0  0
    7.8562  -15.5371   27.5134 O   0  0  0  0  0  0  0  0  0  0  0  0
  2  1  1  0
  3  2  1  0
  3  4  1  6
  5 11  1  0
  5  3  1  0
  6  5  2  0
  8  7  1  6
  9  8  1  0
 10  8  1  0
 10 12  1  0
 10 11  1  6
 12 18  1  0
 13 12  2  0
 15 16  1  6
 15 14  1  0
 17 15  1  0
 17 18  1  6
 19 20  1  0
 19 17  1  0
 21 19  2  0
M  END
$$$$
