STV.pdb
     RDKit          3D

 21 20  0  0  1  0  0  0  0  0999 V2000
    8.9356  -13.4038   18.2726 O   0  0  0  0  0  0  0  0  0  0  0  0
    8.0652  -13.6715   19.3271 C   0  0  0  0  0  0  0  0  0  0  0  0
    8.0340  -15.1586   19.6322 C   0  0  2  0  0  0  0  0  0  0  0  0
    7.2448  -15.7923   18.6006 N   0  0  0  0  0  0  0  0  0  0  0  0
    7.4219  -15.4410   20.9523 C   0  0  0  0  0  0  0  0  0  0  0  0
    6.1651  -15.3983   21.1034 O   0  0  0  0  0  0  0  0  0  0  0  0
    6.8110  -17.5628   25.2074 C   0  0  0  0  0  0  0  0  0  0  0  0
    7.5030  -17.4054   23.8707 C   0  0  1  0  0  0  0  0  0  0  0  0
    7.0456  -18.3245   22.9296 O   0  0  0  0  0  0  0  0  0  0  0  0
    7.5318  -16.0105   23.3742 C   0  0  2  0  0  0  0  0  0  0  0  0
    8.1343  -15.7694   22.1169 N   0  0  0  0  0  0  0  0  0  0  0  0
    8.1782  -15.1553   24.3966 C   0  0  0  0  0  0  0  0  0  0  0  0
    9.4442  -15.0520   24.3513 O   0  0  0  0  0  0  0  0  0  0  0  0
    6.0229  -12.7955   27.2404 C   0  0  0  0  0  0  0  0  0  0  0  0
    7.3979  -12.4109   26.7184 C   0  0  2  0  0  0  0  0  0  0  0  0
    7.2133  -11.5651   25.4784 C   0  0  0  0  0  0  0  0  0  0  0  0
    8.2066  -13.6404   26.3583 C   0  0  2  0  0  0  0  0  0  0  0  0
    7.4702  -14.4526   25.4116 N   0  0  0  0  0  0  0  0  0  0  0  0
    8.5063  -14.3971   27.5939 C   0  0  0  0  0  0  0  0  0  0  0  0
    9.4519  -13.9054   28.4807 O   0  0  0  0  0  0  0  0  0  0  0  0
    7.9271  -15.4828   27.8718 O   0  0  0  0  0  0  0  0  0  0  0  0
  2  1  1  0
  3  2  1  0
  3  4  1  6
  5 11  1  0
  5  3  1  0
  6  5  2  0
  8  7  1  1
  9  8  1  0
 10  8  1  0
 10 12  1  0
 10 11  1  6
 12 18  1  0
 13 12  2  0
 15 16  1  6
 15 14  1  0
 17 15  1  0
 17 18  1  6
 19 20  1  0
 19 17  1  0
 21 19  2  0
M  END
$$$$
