STV.pdb
     RDKit          3D

 21 20  0  0  1  0  0  0  0  0999 V2000
    8.7251  -15.1751   18.3332 O   0  0  0  0  0  0  0  0  0  0  0  0
    7.9329  -15.1175   19.4779 C   0  0  0  0  0  0  0  0  0  0  0  0
    7.7200  -16.5065   20.0530 C   0  0  2  0  0  0  0  0  0  0  0  0
    6.7740  -17.1855   19.1972 N   0  0  0  0  0  0  0  0  0  0  0  0
    7.1778  -16.4586   21.4318 C   0  0  0  0  0  0  0  0  0  0  0  0
    5.9400  -16.2809   21.6328 O   0  0  0  0  0  0  0  0  0  0  0  0
    6.1351  -18.7972   23.7870 C   0  0  0  0  0  0  0  0  0  0  0  0
    7.1552  -17.9561   24.5235 C   0  0  1  0  0  0  0  0  0  0  0  0
    8.3234  -18.6639   24.7957 O   0  0  0  0  0  0  0  0  0  0  0  0
    7.3931  -16.6309   23.9068 C   0  0  2  0  0  0  0  0  0  0  0  0
    7.9405  -16.5981   22.6026 N   0  0  0  0  0  0  0  0  0  0  0  0
    8.2479  -15.8308   24.8145 C   0  0  0  0  0  0  0  0  0  0  0  0
    9.4580  -15.6546   24.4676 O   0  0  0  0  0  0  0  0  0  0  0  0
    7.2128  -12.4487   26.5434 C   0  0  0  0  0  0  0  0  0  0  0  0
    7.9289  -13.3535   27.5331 C   0  0  2  0  0  0  0  0  0  0  0  0
    8.8959  -12.5088   28.3320 C   0  0  0  0  0  0  0  0  0  0  0  0
    8.7032  -14.4401   26.8151 C   0  0  2  0  0  0  0  0  0  0  0  0
    7.7955  -15.2564   26.0354 N   0  0  0  0  0  0  0  0  0  0  0  0
    9.4299  -15.2528   27.8152 C   0  0  0  0  0  0  0  0  0  0  0  0
   10.6071  -14.7660   28.3625 O   0  0  0  0  0  0  0  0  0  0  0  0
    9.0131  -16.3827   28.1910 O   0  0  0  0  0  0  0  0  0  0  0  0
  2  1  1  0
  3  2  1  0
  3  4  1  6
  5 11  1  0
  5  3  1  0
  6  5  2  0
  8  7  1  6
  9  8  1  0
 10  8  1  0
 10 12  1  0
 10 11  1  6
 12 18  1  0
 13 12  2  0
 15 16  1  6
 15 14  1  0
 17 15  1  0
 17 18  1  1
 19 20  1  0
 19 17  1  0
 21 19  2  0
M  END
$$$$
