STV.pdb
     RDKit          3D

 21 20  0  0  1  0  0  0  0  0999 V2000
   12.2249  -17.2331   22.1098 O   0  0  0  0  0  0  0  0  0  0  0  0
   11.6817  -17.8643   20.9928 C   0  0  0  0  0  0  0  0  0  0  0  0
   10.8186  -16.9000   20.1989 C   0  0  2  0  0  0  0  0  0  0  0  0
   11.6614  -15.7945   19.8037 N   0  0  0  0  0  0  0  0  0  0  0  0
    9.6847  -16.3817   21.0008 C   0  0  0  0  0  0  0  0  0  0  0  0
    9.4321  -15.1410   21.0348 O   0  0  0  0  0  0  0  0  0  0  0  0
    5.4450  -16.9931   23.5400 C   0  0  0  0  0  0  0  0  0  0  0  0
    6.5965  -17.6206   22.7846 C   0  0  1  0  0  0  0  0  0  0  0  0
    6.1636  -18.3771   21.6983 O   0  0  0  0  0  0  0  0  0  0  0  0
    7.6812  -16.6689   22.4518 C   0  0  2  0  0  0  0  0  0  0  0  0
    8.8141  -17.1712   21.7692 N   0  0  0  0  0  0  0  0  0  0  0  0
    8.1206  -15.9951   23.6957 C   0  0  0  0  0  0  0  0  0  0  0  0
    9.2698  -16.2986   24.1459 O   0  0  0  0  0  0  0  0  0  0  0  0
    6.9271  -12.2286   25.0604 C   0  0  0  0  0  0  0  0  0  0  0  0
    6.9579  -13.3428   26.0941 C   0  0  2  0  0  0  0  0  0  0  0  0
    7.5073  -12.7760   27.3840 C   0  0  0  0  0  0  0  0  0  0  0  0
    7.8478  -14.4819   25.6399 C   0  0  2  0  0  0  0  0  0  0  0  0
    7.3386  -15.0400   24.4040 N   0  0  0  0  0  0  0  0  0  0  0  0
    7.9013  -15.5047   26.7076 C   0  0  0  0  0  0  0  0  0  0  0  0
    8.9863  -15.5319   27.5704 O   0  0  0  0  0  0  0  0  0  0  0  0
    6.9872  -16.3602   26.8623 O   0  0  0  0  0  0  0  0  0  0  0  0
  2  1  1  0
  3  2  1  0
  3  4  1  1
  5 11  1  0
  5  3  1  0
  6  5  2  0
  8  7  1  6
  9  8  1  0
 10  8  1  0
 10 12  1  0
 10 11  1  1
 12 18  1  0
 13 12  2  0
 15 16  1  1
 15 14  1  0
 17 15  1  0
 17 18  1  6
 19 20  1  0
 19 17  1  0
 21 19  2  0
M  END
$$$$
