HSH.pdb
     RDKit          3D

 27 28  0  0  1  0  0  0  0  0999 V2000
   20.0126  -13.4232  -17.0457 N   0  0  0  0  0  0  0  0  0  0  0  0
   19.3202  -12.1935  -16.7551 C   0  0  1  0  0  0  0  0  0  0  0  0
   18.1955  -12.4341  -15.7976 C   0  0  0  0  0  0  0  0  0  0  0  0
   17.1943  -13.2934  -16.4828 C   0  0  0  0  0  0  0  0  0  0  0  0
   16.6152  -14.4600  -16.0360 C   0  0  0  0  0  0  0  0  0  0  0  0
   15.7548  -14.9365  -16.9541 N   0  0  0  0  0  0  0  0  0  0  0  0
   15.7962  -14.0650  -17.9782 C   0  0  0  0  0  0  0  0  0  0  0  0
   16.6655  -13.0619  -17.7072 N   0  0  0  0  0  0  0  0  0  0  0  0
   20.3099  -11.2095  -16.2454 C   0  0  0  0  0  0  0  0  0  0  0  0
   20.6843  -11.1929  -15.0396 O   0  0  0  0  0  0  0  0  0  0  0  0
   21.4841   -7.8327  -18.4993 O   0  0  0  0  0  0  0  0  0  0  0  0
   22.4658   -8.4126  -17.6914 C   0  0  0  0  0  0  0  0  0  0  0  0
   21.7803   -9.1981  -16.6273 C   0  0  2  0  0  0  0  0  0  0  0  0
   20.9027  -10.2164  -17.0911 N   0  0  0  0  0  0  0  0  0  0  0  0
   21.0859   -8.2881  -15.6490 C   0  0  0  0  0  0  0  0  0  0  0  0
   19.8812   -7.9750  -15.7857 O   0  0  0  0  0  0  0  0  0  0  0  0
   21.7749   -7.7487  -14.5299 N   0  0  0  0  0  0  0  0  0  0  0  0
   21.1537   -6.8116  -13.5969 C   0  0  1  0  0  0  0  0  0  0  0  0
   21.2944   -7.2660  -12.1861 C   0  0  0  0  0  0  0  0  0  0  0  0
   20.6182   -6.3551  -11.2434 C   0  0  0  0  0  0  0  0  0  0  0  0
   19.8879   -5.1903  -11.5006 C   0  0  0  0  0  0  0  0  0  0  0  0
   19.4607   -4.6546  -10.3404 N   0  0  0  0  0  0  0  0  0  0  0  0
   19.9016   -5.4494   -9.3579 C   0  0  0  0  0  0  0  0  0  0  0  0
   20.5938   -6.4672   -9.8895 N   0  0  0  0  0  0  0  0  0  0  0  0
   21.6141   -5.4338  -13.8278 C   0  0  0  0  0  0  0  0  0  0  0  0
   20.7403   -4.3853  -13.8907 O   0  0  0  0  0  0  0  0  0  0  0  0
   22.8404   -5.2242  -13.9711 O   0  0  0  0  0  0  0  0  0  0  0  0
  2  1  1  1
  3  2  1  0
  3  4  1  0
  4  8  1  0
  5  4  2  0
  5  6  1  0
  6  7  1  0
  8  7  2  0
  9  2  1  0
  9 10  2  0
 11 12  1  0
 13 12  1  6
 13 15  1  0
 13 14  1  0
 14  9  1  0
 15 17  1  0
 16 15  2  0
 17 18  1  0
 18 19  1  1
 19 20  1  0
 20 21  2  0
 20 24  1  0
 21 22  1  0
 22 23  1  0
 24 23  2  0
 25 26  1  0
 25 18  1  0
 27 25  2  0
M  END
$$$$
