HSH.pdb
     RDKit          3D

 27 28  0  0  1  0  0  0  0  0999 V2000
   20.7358  -11.0394  -15.9334 N   0  0  0  0  0  0  0  0  0  0  0  0
   19.8568   -9.9933  -15.4764 C   0  0  1  0  0  0  0  0  0  0  0  0
   18.9254  -10.5082  -14.4243 C   0  0  0  0  0  0  0  0  0  0  0  0
   17.9610  -11.4272  -15.0844 C   0  0  0  0  0  0  0  0  0  0  0  0
   17.3453  -11.2905  -16.3083 C   0  0  0  0  0  0  0  0  0  0  0  0
   16.5394  -12.3413  -16.5464 N   0  0  0  0  0  0  0  0  0  0  0  0
   16.6517  -13.1376  -15.4678 C   0  0  0  0  0  0  0  0  0  0  0  0
   17.5112  -12.5963  -14.5712 N   0  0  0  0  0  0  0  0  0  0  0  0
   20.6893   -8.8575  -15.0027 C   0  0  0  0  0  0  0  0  0  0  0  0
   21.4477   -8.9508  -13.9976 O   0  0  0  0  0  0  0  0  0  0  0  0
   21.8578   -5.8565  -17.4556 O   0  0  0  0  0  0  0  0  0  0  0  0
   22.4827   -5.9980  -16.2137 C   0  0  0  0  0  0  0  0  0  0  0  0
   21.4616   -6.4696  -15.2366 C   0  0  2  0  0  0  0  0  0  0  0  0
   20.6838   -7.5831  -15.6576 N   0  0  0  0  0  0  0  0  0  0  0  0
   20.5823   -5.3332  -14.7860 C   0  0  0  0  0  0  0  0  0  0  0  0
   19.4884   -5.0892  -15.3443 O   0  0  0  0  0  0  0  0  0  0  0  0
   20.9630   -4.4925  -13.7062 N   0  0  0  0  0  0  0  0  0  0  0  0
   20.2435   -3.2667  -13.3683 C   0  0  1  0  0  0  0  0  0  0  0  0
   19.9941   -3.1615  -11.9042 C   0  0  0  0  0  0  0  0  0  0  0  0
   18.9403   -4.0912  -11.4561 C   0  0  0  0  0  0  0  0  0  0  0  0
   18.1716   -4.9909  -12.2019 C   0  0  0  0  0  0  0  0  0  0  0  0
   17.3066   -5.6320  -11.3917 N   0  0  0  0  0  0  0  0  0  0  0  0
   17.5083   -5.1615  -10.1550 C   0  0  0  0  0  0  0  0  0  0  0  0
   18.4826   -4.2408  -10.1856 N   0  0  0  0  0  0  0  0  0  0  0  0
   20.8928   -2.0813  -13.9487 C   0  0  0  0  0  0  0  0  0  0  0  0
   22.0644   -2.1727  -14.6458 O   0  0  0  0  0  0  0  0  0  0  0  0
   20.3526   -0.9620  -13.7945 O   0  0  0  0  0  0  0  0  0  0  0  0
  2  1  1  1
  3  2  1  0
  3  4  1  0
  4  8  1  0
  5  4  2  0
  5  6  1  0
  6  7  1  0
  8  7  2  0
  9  2  1  0
  9 10  2  0
 11 12  1  0
 13 12  1  6
 13 15  1  0
 13 14  1  0
 14  9  1  0
 15 17  1  0
 16 15  2  0
 17 18  1  0
 18 19  1  1
 19 20  1  0
 20 21  2  0
 20 24  1  0
 21 22  1  0
 22 23  1  0
 24 23  2  0
 25 26  1  0
 25 18  1  0
 27 25  2  0
M  END
$$$$
