HSH.pdb
     RDKit          3D

 27 28  0  0  1  0  0  0  0  0999 V2000
   21.9110  -12.6913  -20.0060 N   0  0  0  0  0  0  0  0  0  0  0  0
   22.6304  -11.8865  -19.0516 C   0  0  1  0  0  0  0  0  0  0  0  0
   23.9188  -11.3991  -19.6365 C   0  0  0  0  0  0  0  0  0  0  0  0
   24.7841  -12.5842  -19.8753 C   0  0  0  0  0  0  0  0  0  0  0  0
   24.7776  -13.4501  -20.9459 C   0  0  0  0  0  0  0  0  0  0  0  0
   25.7193  -14.3978  -20.7866 N   0  0  0  0  0  0  0  0  0  0  0  0
   26.3164  -14.1236  -19.6126 C   0  0  0  0  0  0  0  0  0  0  0  0
   25.7599  -13.0254  -19.0472 N   0  0  0  0  0  0  0  0  0  0  0  0
   21.7428  -10.7796  -18.6110 C   0  0  0  0  0  0  0  0  0  0  0  0
   21.4379   -9.8173  -19.3696 O   0  0  0  0  0  0  0  0  0  0  0  0
   18.4066   -9.1246  -15.5744 O   0  0  0  0  0  0  0  0  0  0  0  0
   19.2979  -10.1756  -15.8065 C   0  0  0  0  0  0  0  0  0  0  0  0
   20.2575   -9.7402  -16.8597 C   0  0  2  0  0  0  0  0  0  0  0  0
   21.1761  -10.7342  -17.2958 N   0  0  0  0  0  0  0  0  0  0  0  0
   20.9751   -8.4822  -16.4475 C   0  0  0  0  0  0  0  0  0  0  0  0
   22.0351   -8.5198  -15.7819 O   0  0  0  0  0  0  0  0  0  0  0  0
   20.4738   -7.2006  -16.7999 N   0  0  0  0  0  0  0  0  0  0  0  0
   21.0781   -5.9583  -16.3244 C   0  0  1  0  0  0  0  0  0  0  0  0
   20.7022   -4.8007  -17.1819 C   0  0  0  0  0  0  0  0  0  0  0  0
   21.3362   -3.5489  -16.7273 C   0  0  0  0  0  0  0  0  0  0  0  0
   22.3689   -2.8104  -17.3143 C   0  0  0  0  0  0  0  0  0  0  0  0
   22.6546   -1.7386  -16.5492 N   0  0  0  0  0  0  0  0  0  0  0  0
   21.8304   -1.7805  -15.4955 C   0  0  0  0  0  0  0  0  0  0  0  0
   21.0399   -2.8589  -15.5949 N   0  0  0  0  0  0  0  0  0  0  0  0
   20.8218   -5.7464  -14.8916 C   0  0  0  0  0  0  0  0  0  0  0  0
   21.7138   -5.0896  -14.0916 O   0  0  0  0  0  0  0  0  0  0  0  0
   19.7569   -6.1836  -14.3986 O   0  0  0  0  0  0  0  0  0  0  0  0
  2  1  1  6
  3  2  1  0
  3  4  1  0
  4  8  1  0
  5  4  2  0
  5  6  1  0
  6  7  1  0
  8  7  2  0
  9  2  1  0
  9 10  2  0
 11 12  1  0
 13 12  1  1
 13 15  1  0
 13 14  1  0
 14  9  1  0
 15 17  1  0
 16 15  2  0
 17 18  1  0
 18 19  1  6
 19 20  1  0
 20 21  2  0
 20 24  1  0
 21 22  1  0
 22 23  1  0
 24 23  2  0
 25 26  1  0
 25 18  1  0
 27 25  2  0
M  END
$$$$
