HSH.pdb
     RDKit          3D

 27 28  0  0  1  0  0  0  0  0999 V2000
   17.4735  -13.2886    4.5512 N   0  0  0  0  0  0  0  0  0  0  0  0
   17.6009  -12.6044    5.8128 C   0  0  1  0  0  0  0  0  0  0  0  0
   16.5954  -13.1169    6.7956 C   0  0  0  0  0  0  0  0  0  0  0  0
   15.2502  -12.6835    6.3341 C   0  0  0  0  0  0  0  0  0  0  0  0
   14.0471  -13.3415    6.4580 C   0  0  0  0  0  0  0  0  0  0  0  0
   13.0575  -12.6139    5.9088 N   0  0  0  0  0  0  0  0  0  0  0  0
   13.6438  -11.4975    5.4400 C   0  0  0  0  0  0  0  0  0  0  0  0
   14.9750  -11.5248    5.6906 N   0  0  0  0  0  0  0  0  0  0  0  0
   19.0004  -12.7574    6.2878 C   0  0  0  0  0  0  0  0  0  0  0  0
   19.6337  -13.8444    6.1799 O   0  0  0  0  0  0  0  0  0  0  0  0
   20.8227   -9.9026    8.7968 O   0  0  0  0  0  0  0  0  0  0  0  0
   21.6658  -10.5341    7.8787 C   0  0  0  0  0  0  0  0  0  0  0  0
   21.0190  -11.8103    7.4632 C   0  0  2  0  0  0  0  0  0  0  0  0
   19.7203  -11.6798    6.8989 N   0  0  0  0  0  0  0  0  0  0  0  0
   21.0223  -12.8078    8.5911 C   0  0  0  0  0  0  0  0  0  0  0  0
   19.9663  -13.1396    9.1765 O   0  0  0  0  0  0  0  0  0  0  0  0
   22.2290  -13.4121    9.0348 N   0  0  0  0  0  0  0  0  0  0  0  0
   22.2927  -14.2785   10.2094 C   0  0  1  0  0  0  0  0  0  0  0  0
   21.6278  -15.5878    9.9635 C   0  0  0  0  0  0  0  0  0  0  0  0
   21.6656  -16.4577   11.1541 C   0  0  0  0  0  0  0  0  0  0  0  0
   22.1397  -16.1840   12.4413 C   0  0  0  0  0  0  0  0  0  0  0  0
   22.0018  -17.2754   13.2194 N   0  0  0  0  0  0  0  0  0  0  0  0
   21.4538  -18.2304   12.4585 C   0  0  0  0  0  0  0  0  0  0  0  0
   21.2501  -17.7494   11.2236 N   0  0  0  0  0  0  0  0  0  0  0  0
   23.6668  -14.3950   10.7213 C   0  0  0  0  0  0  0  0  0  0  0  0
   24.7351  -13.8936   10.0325 O   0  0  0  0  0  0  0  0  0  0  0  0
   23.8549  -14.9715   11.8170 O   0  0  0  0  0  0  0  0  0  0  0  0
  2  1  1  6
  3  2  1  0
  3  4  1  0
  4  8  1  0
  5  4  2  0
  5  6  1  0
  6  7  1  0
  8  7  2  0
  9  2  1  0
  9 10  2  0
 11 12  1  0
 13 12  1  1
 13 15  1  0
 13 14  1  0
 14  9  1  0
 15 17  1  0
 16 15  2  0
 17 18  1  0
 18 19  1  6
 19 20  1  0
 20 21  2  0
 20 24  1  0
 21 22  1  0
 22 23  1  0
 24 23  2  0
 25 26  1  0
 25 18  1  0
 27 25  2  0
M  END
$$$$
