HSH.pdb
     RDKit          3D

 27 28  0  0  1  0  0  0  0  0999 V2000
   15.5100  -16.3868  -15.6685 N   0  0  0  0  0  0  0  0  0  0  0  0
   16.2984  -16.9326  -14.5931 C   0  0  1  0  0  0  0  0  0  0  0  0
   16.4584  -15.9298  -13.4938 C   0  0  0  0  0  0  0  0  0  0  0  0
   17.2567  -14.7955  -14.0291 C   0  0  0  0  0  0  0  0  0  0  0  0
   16.8317  -13.5292  -14.3635 C   0  0  0  0  0  0  0  0  0  0  0  0
   17.8641  -12.7931  -14.8136 N   0  0  0  0  0  0  0  0  0  0  0  0
   18.9380  -13.6018  -14.7605 C   0  0  0  0  0  0  0  0  0  0  0  0
   18.5854  -14.8210  -14.2863 N   0  0  0  0  0  0  0  0  0  0  0  0
   15.6557  -18.1915  -14.1351 C   0  0  0  0  0  0  0  0  0  0  0  0
   14.4032  -18.3079  -14.0262 O   0  0  0  0  0  0  0  0  0  0  0  0
   17.7069  -21.5128  -14.4149 O   0  0  0  0  0  0  0  0  0  0  0  0
   16.7397  -21.7691  -13.4394 C   0  0  0  0  0  0  0  0  0  0  0  0
   15.8435  -20.5818  -13.3577 C   0  0  2  0  0  0  0  0  0  0  0  0
   16.4177  -19.3540  -13.7879 N   0  0  0  0  0  0  0  0  0  0  0  0
   15.2494  -20.4494  -11.9804 C   0  0  0  0  0  0  0  0  0  0  0  0
   15.7928  -19.7488  -11.0963 O   0  0  0  0  0  0  0  0  0  0  0  0
   14.0452  -21.1174  -11.6318 N   0  0  0  0  0  0  0  0  0  0  0  0
   13.4104  -20.9695  -10.3243 C   0  0  1  0  0  0  0  0  0  0  0  0
   11.9520  -20.6969  -10.4489 C   0  0  0  0  0  0  0  0  0  0  0  0
   11.6873  -19.3790  -11.0563 C   0  0  0  0  0  0  0  0  0  0  0  0
   12.3517  -18.1628  -10.8676 C   0  0  0  0  0  0  0  0  0  0  0  0
   11.7634  -17.2025  -11.6074 N   0  0  0  0  0  0  0  0  0  0  0  0
   10.7459  -17.7794  -12.2579 C   0  0  0  0  0  0  0  0  0  0  0  0
   10.6941  -19.0795  -11.9338 N   0  0  0  0  0  0  0  0  0  0  0  0
   13.7319  -22.0975   -9.4366 C   0  0  0  0  0  0  0  0  0  0  0  0
   14.5222  -23.1333   -9.8484 O   0  0  0  0  0  0  0  0  0  0  0  0
   13.2640  -22.1027   -8.2750 O   0  0  0  0  0  0  0  0  0  0  0  0
  2  1  1  6
  3  2  1  0
  3  4  1  0
  4  8  1  0
  5  4  2  0
  5  6  1  0
  6  7  1  0
  8  7  2  0
  9  2  1  0
  9 10  2  0
 11 12  1  0
 13 12  1  1
 13 15  1  0
 13 14  1  0
 14  9  1  0
 15 17  1  0
 16 15  2  0
 17 18  1  0
 18 19  1  6
 19 20  1  0
 20 21  2  0
 20 24  1  0
 21 22  1  0
 22 23  1  0
 24 23  2  0
 25 26  1  0
 25 18  1  0
 27 25  2  0
M  END
$$$$
