HSH.pdb
     RDKit          3D

 27 28  0  0  1  0  0  0  0  0999 V2000
   17.2489  -12.9645  -17.5028 N   0  0  0  0  0  0  0  0  0  0  0  0
   18.3541  -12.5422  -16.6806 C   0  0  1  0  0  0  0  0  0  0  0  0
   19.5818  -13.3375  -16.9969 C   0  0  0  0  0  0  0  0  0  0  0  0
   19.3402  -14.7367  -16.5562 C   0  0  0  0  0  0  0  0  0  0  0  0
   19.7754  -15.3627  -15.4096 C   0  0  0  0  0  0  0  0  0  0  0  0
   19.3431  -16.6365  -15.3795 N   0  0  0  0  0  0  0  0  0  0  0  0
   18.6354  -16.8074  -16.5108 C   0  0  0  0  0  0  0  0  0  0  0  0
   18.6244  -15.6630  -17.2359 N   0  0  0  0  0  0  0  0  0  0  0  0
   18.5484  -11.0819  -16.8736 C   0  0  0  0  0  0  0  0  0  0  0  0
   19.0501  -10.6022  -17.9282 O   0  0  0  0  0  0  0  0  0  0  0  0
   17.2037   -8.3344  -13.9961 O   0  0  0  0  0  0  0  0  0  0  0  0
   17.1567   -7.9503  -15.3388 C   0  0  0  0  0  0  0  0  0  0  0  0
   18.2021   -8.7170  -16.0729 C   0  0  2  0  0  0  0  0  0  0  0  0
   18.1781  -10.1248  -15.8736 N   0  0  0  0  0  0  0  0  0  0  0  0
   19.5723   -8.1543  -15.8022 C   0  0  0  0  0  0  0  0  0  0  0  0
   20.2742   -8.5662  -14.8506 O   0  0  0  0  0  0  0  0  0  0  0  0
   20.1216   -7.1309  -16.6200 N   0  0  0  0  0  0  0  0  0  0  0  0
   21.3995   -6.4866  -16.3266 C   0  0  1  0  0  0  0  0  0  0  0  0
   21.8655   -5.6464  -17.4641 C   0  0  0  0  0  0  0  0  0  0  0  0
   23.2225   -5.1145  -17.2371 C   0  0  0  0  0  0  0  0  0  0  0  0
   24.4404   -5.7955  -17.1405 C   0  0  0  0  0  0  0  0  0  0  0  0
   25.4359   -4.9180  -16.9068 N   0  0  0  0  0  0  0  0  0  0  0  0
   24.8796   -3.7018  -16.8533 C   0  0  0  0  0  0  0  0  0  0  0  0
   23.5577   -3.8112  -17.0497 N   0  0  0  0  0  0  0  0  0  0  0  0
   21.3646   -5.7783  -15.0379 C   0  0  0  0  0  0  0  0  0  0  0  0
   22.4339   -5.7812  -14.1873 O   0  0  0  0  0  0  0  0  0  0  0  0
   20.3236   -5.1601  -14.7180 O   0  0  0  0  0  0  0  0  0  0  0  0
  2  1  1  6
  3  2  1  0
  3  4  1  0
  4  8  1  0
  5  4  2  0
  5  6  1  0
  6  7  1  0
  8  7  2  0
  9  2  1  0
  9 10  2  0
 11 12  1  0
 13 12  1  1
 13 15  1  0
 13 14  1  0
 14  9  1  0
 15 17  1  0
 16 15  2  0
 17 18  1  0
 18 19  1  6
 19 20  1  0
 20 21  2  0
 20 24  1  0
 21 22  1  0
 22 23  1  0
 24 23  2  0
 25 26  1  0
 25 18  1  0
 27 25  2  0
M  END
$$$$
