HSH.pdb
     RDKit          3D

 27 28  0  0  1  0  0  0  0  0999 V2000
   19.4197  -14.8166  -17.3714 N   0  0  0  0  0  0  0  0  0  0  0  0
   19.0554  -13.9692  -16.2645 C   0  0  1  0  0  0  0  0  0  0  0  0
   20.0430  -14.1046  -15.1483 C   0  0  0  0  0  0  0  0  0  0  0  0
   19.9746  -15.5040  -14.6511 C   0  0  0  0  0  0  0  0  0  0  0  0
   18.9161  -16.1524  -14.0552 C   0  0  0  0  0  0  0  0  0  0  0  0
   19.2555  -17.4177  -13.7485 N   0  0  0  0  0  0  0  0  0  0  0  0
   20.5303  -17.5608  -14.1538 C   0  0  0  0  0  0  0  0  0  0  0  0
   20.9811  -16.4076  -14.7038 N   0  0  0  0  0  0  0  0  0  0  0  0
   18.9374  -12.5746  -16.7631 C   0  0  0  0  0  0  0  0  0  0  0  0
   19.9165  -11.9514  -17.2601 O   0  0  0  0  0  0  0  0  0  0  0  0
   15.3607  -10.4196  -16.3663 O   0  0  0  0  0  0  0  0  0  0  0  0
   16.1338  -10.1203  -17.4911 C   0  0  0  0  0  0  0  0  0  0  0  0
   17.5387  -10.5245  -17.2039 C   0  0  2  0  0  0  0  0  0  0  0  0
   17.7034  -11.8483  -16.7113 N   0  0  0  0  0  0  0  0  0  0  0  0
   18.2139   -9.5234  -16.3043 C   0  0  0  0  0  0  0  0  0  0  0  0
   18.3051   -9.7083  -15.0692 O   0  0  0  0  0  0  0  0  0  0  0  0
   18.7746   -8.3269  -16.8258 N   0  0  0  0  0  0  0  0  0  0  0  0
   19.3386   -7.2825  -15.9740 C   0  0  1  0  0  0  0  0  0  0  0  0
   20.3979   -6.5100  -16.6796 C   0  0  0  0  0  0  0  0  0  0  0  0
   20.9428   -5.4270  -15.8394 C   0  0  0  0  0  0  0  0  0  0  0  0
   21.8766   -5.4915  -14.8001 C   0  0  0  0  0  0  0  0  0  0  0  0
   22.0740   -4.2609  -14.2878 N   0  0  0  0  0  0  0  0  0  0  0  0
   21.2902   -3.4217  -14.9753 C   0  0  0  0  0  0  0  0  0  0  0  0
   20.6115   -4.1109  -15.9038 N   0  0  0  0  0  0  0  0  0  0  0  0
   18.2868   -6.4444  -15.3782 C   0  0  0  0  0  0  0  0  0  0  0  0
   18.4229   -5.8974  -14.1335 O   0  0  0  0  0  0  0  0  0  0  0  0
   17.2413   -6.2322  -16.0341 O   0  0  0  0  0  0  0  0  0  0  0  0
  2  1  1  6
  3  2  1  0
  3  4  1  0
  4  8  1  0
  5  4  2  0
  5  6  1  0
  6  7  1  0
  8  7  2  0
  9  2  1  0
  9 10  2  0
 11 12  1  0
 13 12  1  1
 13 15  1  0
 13 14  1  0
 14  9  1  0
 15 17  1  0
 16 15  2  0
 17 18  1  0
 18 19  1  6
 19 20  1  0
 20 21  2  0
 20 24  1  0
 21 22  1  0
 22 23  1  0
 24 23  2  0
 25 26  1  0
 25 18  1  0
 27 25  2  0
M  END
$$$$
