HSH.pdb
     RDKit          3D

 27 28  0  0  1  0  0  0  0  0999 V2000
   20.5138  -13.0123  -19.3119 N   0  0  0  0  0  0  0  0  0  0  0  0
   21.4907  -12.0725  -18.8236 C   0  0  1  0  0  0  0  0  0  0  0  0
   22.5256  -11.7956  -19.8685 C   0  0  0  0  0  0  0  0  0  0  0  0
   23.2655  -13.0606  -20.1187 C   0  0  0  0  0  0  0  0  0  0  0  0
   24.4830  -13.4575  -19.6125 C   0  0  0  0  0  0  0  0  0  0  0  0
   24.8100  -14.6752  -20.0818 N   0  0  0  0  0  0  0  0  0  0  0  0
   23.7938  -15.0410  -20.8839 C   0  0  0  0  0  0  0  0  0  0  0  0
   22.8482  -14.0713  -20.9167 N   0  0  0  0  0  0  0  0  0  0  0  0
   20.7782  -10.8467  -18.3796 C   0  0  0  0  0  0  0  0  0  0  0  0
   20.1852  -10.0810  -19.1896 O   0  0  0  0  0  0  0  0  0  0  0  0
   20.2052   -9.9854  -14.3061 O   0  0  0  0  0  0  0  0  0  0  0  0
   19.3088   -9.4669  -15.2443 C   0  0  0  0  0  0  0  0  0  0  0  0
   20.0379   -9.2993  -16.5327 C   0  0  2  0  0  0  0  0  0  0  0  0
   20.7191  -10.4558  -17.0024 N   0  0  0  0  0  0  0  0  0  0  0  0
   20.9611   -8.1109  -16.4782 C   0  0  0  0  0  0  0  0  0  0  0  0
   22.1905   -8.2439  -16.2814 O   0  0  0  0  0  0  0  0  0  0  0  0
   20.4692   -6.7893  -16.6489 N   0  0  0  0  0  0  0  0  0  0  0  0
   21.3271   -5.6100  -16.5609 C   0  0  1  0  0  0  0  0  0  0  0  0
   20.6744   -4.4098  -17.1529 C   0  0  0  0  0  0  0  0  0  0  0  0
   21.5619   -3.2319  -17.1303 C   0  0  0  0  0  0  0  0  0  0  0  0
   22.0578   -2.4710  -18.1940 C   0  0  0  0  0  0  0  0  0  0  0  0
   22.8548   -1.4925  -17.7217 N   0  0  0  0  0  0  0  0  0  0  0  0
   22.8755   -1.6151  -16.3891 C   0  0  0  0  0  0  0  0  0  0  0  0
   22.1055   -2.6519  -16.0284 N   0  0  0  0  0  0  0  0  0  0  0  0
   21.8236   -5.4037  -15.1917 C   0  0  0  0  0  0  0  0  0  0  0  0
   23.0328   -4.8165  -14.9468 O   0  0  0  0  0  0  0  0  0  0  0  0
   21.1146   -5.7800  -14.2304 O   0  0  0  0  0  0  0  0  0  0  0  0
  2  1  1  6
  3  2  1  0
  3  4  1  0
  4  8  1  0
  5  4  2  0
  5  6  1  0
  6  7  1  0
  8  7  2  0
  9  2  1  0
  9 10  2  0
 11 12  1  0
 13 12  1  1
 13 15  1  0
 13 14  1  0
 14  9  1  0
 15 17  1  0
 16 15  2  0
 17 18  1  0
 18 19  1  1
 19 20  1  0
 20 21  2  0
 20 24  1  0
 21 22  1  0
 22 23  1  0
 24 23  2  0
 25 26  1  0
 25 18  1  0
 27 25  2  0
M  END
$$$$
