HSH.pdb
     RDKit          3D

 27 28  0  0  1  0  0  0  0  0999 V2000
   17.7431  -12.4770  -15.6141 N   0  0  0  0  0  0  0  0  0  0  0  0
   18.7953  -11.5740  -16.0061 C   0  0  1  0  0  0  0  0  0  0  0  0
   18.9835  -11.5949  -17.4906 C   0  0  0  0  0  0  0  0  0  0  0  0
   19.4943  -12.9406  -17.8629 C   0  0  0  0  0  0  0  0  0  0  0  0
   20.7933  -13.3973  -17.8572 C   0  0  0  0  0  0  0  0  0  0  0  0
   20.8400  -14.6791  -18.2634 N   0  0  0  0  0  0  0  0  0  0  0  0
   19.5662  -15.0249  -18.5238 C   0  0  0  0  0  0  0  0  0  0  0  0
   18.7373  -13.9801  -18.2855 N   0  0  0  0  0  0  0  0  0  0  0  0
   18.4677  -10.2214  -15.4860 C   0  0  0  0  0  0  0  0  0  0  0  0
   17.4289   -9.5967  -15.8395 O   0  0  0  0  0  0  0  0  0  0  0  0
   19.8286   -8.8913  -11.8989 O   0  0  0  0  0  0  0  0  0  0  0  0
   18.7615   -8.2458  -12.5292 C   0  0  0  0  0  0  0  0  0  0  0  0
   19.0163   -8.2630  -13.9970 C   0  0  2  0  0  0  0  0  0  0  0  0
   19.3110   -9.5398  -14.5495 N   0  0  0  0  0  0  0  0  0  0  0  0
   20.0687   -7.2536  -14.3727 C   0  0  0  0  0  0  0  0  0  0  0  0
   21.2548   -7.5921  -14.5884 O   0  0  0  0  0  0  0  0  0  0  0  0
   19.7534   -5.8742  -14.4968 N   0  0  0  0  0  0  0  0  0  0  0  0
   20.7513   -4.8640  -14.8406 C   0  0  1  0  0  0  0  0  0  0  0  0
   20.1220   -3.5465  -15.1322 C   0  0  0  0  0  0  0  0  0  0  0  0
   21.1010   -2.5689  -15.6437 C   0  0  0  0  0  0  0  0  0  0  0  0
   21.3733   -2.1889  -16.9619 C   0  0  0  0  0  0  0  0  0  0  0  0
   22.3641   -1.2758  -16.9776 N   0  0  0  0  0  0  0  0  0  0  0  0
   22.7246   -1.0692  -15.7054 C   0  0  0  0  0  0  0  0  0  0  0  0
   21.9745   -1.8380  -14.9028 N   0  0  0  0  0  0  0  0  0  0  0  0
   21.8257   -4.8022  -13.8379 C   0  0  0  0  0  0  0  0  0  0  0  0
   23.1287   -4.5948  -14.1929 O   0  0  0  0  0  0  0  0  0  0  0  0
   21.5311   -4.9459  -12.6292 O   0  0  0  0  0  0  0  0  0  0  0  0
  2  1  1  6
  3  2  1  0
  3  4  1  0
  4  8  1  0
  5  4  2  0
  5  6  1  0
  6  7  1  0
  8  7  2  0
  9  2  1  0
  9 10  2  0
 11 12  1  0
 13 12  1  1
 13 15  1  0
 13 14  1  0
 14  9  1  0
 15 17  1  0
 16 15  2  0
 17 18  1  0
 18 19  1  1
 19 20  1  0
 20 21  2  0
 20 24  1  0
 21 22  1  0
 22 23  1  0
 24 23  2  0
 25 26  1  0
 25 18  1  0
 27 25  2  0
M  END
$$$$
