QID.pdb
     RDKit          3D

 26 25  0  0  1  0  0  0  0  0999 V2000
    8.0466  -12.1502   18.4403 N   0  0  0  0  0  0  0  0  0  0  0  0
    8.0246  -13.4675   17.8491 C   0  0  0  0  0  0  0  0  0  0  0  0
    8.1103  -13.5111   16.6157 O   0  0  0  0  0  0  0  0  0  0  0  0
    7.9035  -14.5851   18.7513 C   0  0  0  0  0  0  0  0  0  0  0  0
    7.7697  -14.3460   20.2032 C   0  0  0  0  0  0  0  0  0  0  0  0
    7.9348  -15.5032   21.1188 C   0  0  2  0  0  0  0  0  0  0  0  0
    6.6732  -16.0815   21.4513 N   0  0  0  0  0  0  0  0  0  0  0  0
    8.5373  -14.9884   22.3913 C   0  0  0  0  0  0  0  0  0  0  0  0
    9.6937  -14.5106   22.3219 O   0  0  0  0  0  0  0  0  0  0  0  0
    6.9524  -11.9071   27.2034 C   0  0  0  0  0  0  0  0  0  0  0  0
    8.0054  -12.8815   26.7142 C   0  0  0  0  0  0  0  0  0  0  0  0
    7.4879  -13.5471   25.4741 C   0  0  2  0  0  0  0  0  0  0  0  0
    6.2786  -14.3811   25.8886 C   0  0  0  0  0  0  0  0  0  0  0  0
    8.4774  -14.4850   24.8534 C   0  0  2  0  0  0  0  0  0  0  0  0
    7.8756  -15.0176   23.6384 N   0  0  0  0  0  0  0  0  0  0  0  0
    8.8819  -15.5851   25.7480 C   0  0  0  0  0  0  0  0  0  0  0  0
    8.0431  -16.4923   26.0112 O   0  0  0  0  0  0  0  0  0  0  0  0
   10.1477  -15.7060   26.3405 N   0  0  0  0  0  0  0  0  0  0  0  0
   10.5089  -16.7701   27.2642 C   0  0  1  0  0  0  0  0  0  0  0  0
   11.7901  -17.4312   26.9207 C   0  0  0  0  0  0  0  0  0  0  0  0
   11.7514  -17.9438   25.5381 C   0  0  0  0  0  0  0  0  0  0  0  0
   10.6854  -18.3666   25.0260 O   0  0  0  0  0  0  0  0  0  0  0  0
   10.5064  -16.3015   28.6618 C   0  0  0  0  0  0  0  0  0  0  0  0
   10.5549  -17.2657   29.6840 O   0  0  0  0  0  0  0  0  0  0  0  0
   12.8981  -17.9741   24.7577 O   0  0  0  0  0  0  0  0  0  0  0  0
   10.4636  -15.0986   28.9745 O   0  0  0  0  0  0  0  0  0  0  0  0
  1  2  1  0
  2  4  1  0
  2  3  2  0
  4  5  1  0
  5  6  1  0
  6  8  1  0
  6  7  1  1
  8  9  2  0
 11 10  1  0
 12 11  1  0
 12 14  1  0
 12 13  1  1
 14 15  1  6
 15  8  1  0
 16 17  2  0
 16 14  1  0
 18 16  1  0
 19 18  1  0
 19 23  1  0
 19 20  1  6
 21 20  1  0
 22 21  2  0
 23 24  1  0
 25 21  1  0
 26 23  2  0
M  END
$$$$
