QID.pdb
     RDKit          3D

 26 25  0  0  1  0  0  0  0  0999 V2000
    8.2520  -18.4174   27.9645 N   0  0  0  0  0  0  0  0  0  0  0  0
    7.6153  -19.7122   28.0223 C   0  0  0  0  0  0  0  0  0  0  0  0
    7.5359  -20.2292   29.1434 O   0  0  0  0  0  0  0  0  0  0  0  0
    7.1445  -20.2635   26.7764 C   0  0  0  0  0  0  0  0  0  0  0  0
    7.2417  -19.4655   25.5368 C   0  0  0  0  0  0  0  0  0  0  0  0
    6.1065  -18.5729   25.1910 C   0  0  2  0  0  0  0  0  0  0  0  0
    5.3463  -19.1027   24.1056 N   0  0  0  0  0  0  0  0  0  0  0  0
    6.6833  -17.2669   24.7342 C   0  0  0  0  0  0  0  0  0  0  0  0
    6.9532  -17.1583   23.5153 O   0  0  0  0  0  0  0  0  0  0  0  0
    5.2845  -12.5594   26.9108 C   0  0  0  0  0  0  0  0  0  0  0  0
    5.6902  -13.5675   25.8540 C   0  0  0  0  0  0  0  0  0  0  0  0
    7.1574  -13.8389   26.0039 C   0  0  2  0  0  0  0  0  0  0  0  0
    7.8919  -12.5884   25.5278 C   0  0  0  0  0  0  0  0  0  0  0  0
    7.6343  -14.9787   25.1567 C   0  0  2  0  0  0  0  0  0  0  0  0
    6.9322  -16.1768   25.5966 N   0  0  0  0  0  0  0  0  0  0  0  0
    9.0924  -15.1873   25.2233 C   0  0  0  0  0  0  0  0  0  0  0  0
    9.6350  -15.3193   26.3564 O   0  0  0  0  0  0  0  0  0  0  0  0
    9.9399  -15.2522   24.1073 N   0  0  0  0  0  0  0  0  0  0  0  0
   11.2632  -15.8558   24.1318 C   0  0  1  0  0  0  0  0  0  0  0  0
   11.2672  -17.2310   24.6843 C   0  0  0  0  0  0  0  0  0  0  0  0
   12.6354  -17.7822   24.6856 C   0  0  0  0  0  0  0  0  0  0  0  0
   13.5885  -17.1674   25.2251 O   0  0  0  0  0  0  0  0  0  0  0  0
   11.9070  -15.8095   22.8066 C   0  0  0  0  0  0  0  0  0  0  0  0
   11.1552  -15.3261   21.7212 O   0  0  0  0  0  0  0  0  0  0  0  0
   12.9116  -19.0033   24.0876 O   0  0  0  0  0  0  0  0  0  0  0  0
   13.0783  -16.1769   22.6077 O   0  0  0  0  0  0  0  0  0  0  0  0
  1  2  1  0
  2  4  1  0
  2  3  2  0
  4  5  1  0
  5  6  1  0
  6  8  1  0
  6  7  1  6
  8  9  2  0
 11 10  1  0
 12 11  1  0
 12 14  1  0
 12 13  1  6
 14 15  1  1
 15  8  1  0
 16 17  2  0
 16 14  1  0
 18 16  1  0
 19 18  1  0
 19 23  1  0
 19 20  1  6
 21 20  1  0
 22 21  2  0
 23 24  1  0
 25 21  1  0
 26 23  2  0
M  END
$$$$
