QID.pdb
     RDKit          3D

 26 25  0  0  1  0  0  0  0  0999 V2000
   11.3091  -22.1723   17.6183 N   0  0  0  0  0  0  0  0  0  0  0  0
   11.2040  -20.9395   16.8737 C   0  0  0  0  0  0  0  0  0  0  0  0
   12.1720  -20.6521   16.1590 O   0  0  0  0  0  0  0  0  0  0  0  0
    9.9921  -20.1775   17.0419 C   0  0  0  0  0  0  0  0  0  0  0  0
    9.9215  -19.1295   18.0811 C   0  0  0  0  0  0  0  0  0  0  0  0
    8.9547  -18.0193   17.8875 C   0  0  2  0  0  0  0  0  0  0  0  0
    8.8839  -17.6307   16.5162 N   0  0  0  0  0  0  0  0  0  0  0  0
    9.4641  -16.8389   18.6585 C   0  0  0  0  0  0  0  0  0  0  0  0
   10.5962  -16.4007   18.3478 O   0  0  0  0  0  0  0  0  0  0  0  0
    6.2459  -12.7591   19.8505 C   0  0  0  0  0  0  0  0  0  0  0  0
    7.5063  -13.5034   19.4569 C   0  0  0  0  0  0  0  0  0  0  0  0
    8.0726  -14.1490   20.6862 C   0  0  2  0  0  0  0  0  0  0  0  0
    8.5743  -13.0244   21.5881 C   0  0  0  0  0  0  0  0  0  0  0  0
    9.2438  -15.0373   20.3976 C   0  0  2  0  0  0  0  0  0  0  0  0
    8.7422  -16.2122   19.6978 N   0  0  0  0  0  0  0  0  0  0  0  0
    9.9847  -15.4403   21.6070 C   0  0  0  0  0  0  0  0  0  0  0  0
   10.5765  -14.5503   22.2804 O   0  0  0  0  0  0  0  0  0  0  0  0
   10.0860  -16.7580   22.0774 N   0  0  0  0  0  0  0  0  0  0  0  0
   10.8307  -17.1356   23.2685 C   0  0  1  0  0  0  0  0  0  0  0  0
   10.1490  -18.1725   24.0788 C   0  0  0  0  0  0  0  0  0  0  0  0
   11.0082  -18.5986   25.1996 C   0  0  0  0  0  0  0  0  0  0  0  0
   11.3697  -17.7913   26.0912 O   0  0  0  0  0  0  0  0  0  0  0  0
   12.2123  -17.5333   22.9432 C   0  0  0  0  0  0  0  0  0  0  0  0
   12.6114  -17.5006   21.5954 O   0  0  0  0  0  0  0  0  0  0  0  0
   11.4448  -19.9115   25.3027 O   0  0  0  0  0  0  0  0  0  0  0  0
   13.0353  -17.8941   23.8030 O   0  0  0  0  0  0  0  0  0  0  0  0
  1  2  1  0
  2  4  1  0
  2  3  2  0
  4  5  1  0
  5  6  1  0
  6  8  1  0
  6  7  1  6
  8  9  2  0
 11 10  1  0
 12 11  1  0
 12 14  1  0
 12 13  1  1
 14 15  1  1
 15  8  1  0
 16 17  2  0
 16 14  1  0
 18 16  1  0
 19 18  1  0
 19 23  1  0
 19 20  1  6
 21 20  1  0
 22 21  2  0
 23 24  1  0
 25 21  1  0
 26 23  2  0
M  END
$$$$
