QID.pdb
     RDKit          3D

 26 25  0  0  1  0  0  0  0  0999 V2000
    7.6959  -17.8021   17.6772 N   0  0  0  0  0  0  0  0  0  0  0  0
    8.5087  -16.8105   18.3416 C   0  0  0  0  0  0  0  0  0  0  0  0
    9.7260  -17.0300   18.3614 O   0  0  0  0  0  0  0  0  0  0  0  0
    7.8210  -15.6783   18.9101 C   0  0  0  0  0  0  0  0  0  0  0  0
    8.2050  -15.1814   20.2475 C   0  0  0  0  0  0  0  0  0  0  0  0
    7.6870  -15.9056   21.4358 C   0  0  2  0  0  0  0  0  0  0  0  0
    6.2815  -15.7095   21.5868 N   0  0  0  0  0  0  0  0  0  0  0  0
    8.3504  -15.3190   22.6453 C   0  0  0  0  0  0  0  0  0  0  0  0
    9.5953  -15.1822   22.6026 O   0  0  0  0  0  0  0  0  0  0  0  0
    5.7832  -11.8266   25.8239 C   0  0  0  0  0  0  0  0  0  0  0  0
    6.9434  -12.4451   25.0697 C   0  0  0  0  0  0  0  0  0  0  0  0
    7.3894  -13.6671   25.8158 C   0  0  2  0  0  0  0  0  0  0  0  0
    8.1446  -13.1831   27.0508 C   0  0  0  0  0  0  0  0  0  0  0  0
    8.3341  -14.5238   25.0299 C   0  0  2  0  0  0  0  0  0  0  0  0
    7.6514  -14.9228   23.8066 N   0  0  0  0  0  0  0  0  0  0  0  0
    8.7972  -15.7134   25.7679 C   0  0  0  0  0  0  0  0  0  0  0  0
    7.9647  -16.6266   26.0301 O   0  0  0  0  0  0  0  0  0  0  0  0
   10.1133  -15.9147   26.2098 N   0  0  0  0  0  0  0  0  0  0  0  0
   10.5756  -17.1424   26.8383 C   0  0  1  0  0  0  0  0  0  0  0  0
   11.8451  -17.6491   26.2657 C   0  0  0  0  0  0  0  0  0  0  0  0
   12.3155  -18.8281   27.0171 C   0  0  0  0  0  0  0  0  0  0  0  0
   11.8159  -19.9652   26.8311 O   0  0  0  0  0  0  0  0  0  0  0  0
   10.6672  -17.0029   28.3029 C   0  0  0  0  0  0  0  0  0  0  0  0
   10.4581  -18.1477   29.0920 O   0  0  0  0  0  0  0  0  0  0  0  0
   13.3299  -18.7151   27.9569 O   0  0  0  0  0  0  0  0  0  0  0  0
   10.9196  -15.9241   28.8676 O   0  0  0  0  0  0  0  0  0  0  0  0
  1  2  1  0
  2  4  1  0
  2  3  2  0
  4  5  1  0
  5  6  1  0
  6  8  1  0
  6  7  1  1
  8  9  2  0
 11 10  1  0
 12 11  1  0
 12 14  1  0
 12 13  1  1
 14 15  1  6
 15  8  1  0
 16 17  2  0
 16 14  1  0
 18 16  1  0
 19 18  1  0
 19 23  1  0
 19 20  1  6
 21 20  1  0
 22 21  2  0
 23 24  1  0
 25 21  1  0
 26 23  2  0
M  END
$$$$
