QID.pdb
     RDKit          3D

 26 25  0  0  1  0  0  0  0  0999 V2000
    8.1759  -20.8743   27.2259 N   0  0  0  0  0  0  0  0  0  0  0  0
    6.7618  -21.0102   26.9665 C   0  0  0  0  0  0  0  0  0  0  0  0
    6.0996  -21.5742   27.8463 O   0  0  0  0  0  0  0  0  0  0  0  0
    6.2742  -20.4806   25.7177 C   0  0  0  0  0  0  0  0  0  0  0  0
    6.8156  -19.2078   25.1982 C   0  0  0  0  0  0  0  0  0  0  0  0
    5.8689  -18.2518   24.5700 C   0  0  2  0  0  0  0  0  0  0  0  0
    5.2818  -18.8059   23.3932 N   0  0  0  0  0  0  0  0  0  0  0  0
    6.6571  -17.0481   24.1493 C   0  0  0  0  0  0  0  0  0  0  0  0
    7.1487  -17.0630   22.9967 O   0  0  0  0  0  0  0  0  0  0  0  0
    7.5735  -12.6845   27.6663 C   0  0  0  0  0  0  0  0  0  0  0  0
    7.1713  -13.9089   26.8684 C   0  0  0  0  0  0  0  0  0  0  0  0
    7.6016  -13.7040   25.4466 C   0  0  2  0  0  0  0  0  0  0  0  0
    6.4110  -13.1035   24.7038 C   0  0  0  0  0  0  0  0  0  0  0  0
    7.9564  -14.9816   24.7495 C   0  0  2  0  0  0  0  0  0  0  0  0
    6.8674  -15.9223   24.9754 N   0  0  0  0  0  0  0  0  0  0  0  0
    9.2343  -15.5606   25.2032 C   0  0  0  0  0  0  0  0  0  0  0  0
    9.7009  -15.1997   26.3202 O   0  0  0  0  0  0  0  0  0  0  0  0
    9.9863  -16.4976   24.4792 N   0  0  0  0  0  0  0  0  0  0  0  0
   11.4358  -16.4552   24.3646 C   0  0  1  0  0  0  0  0  0  0  0  0
   11.9204  -15.3611   23.4902 C   0  0  0  0  0  0  0  0  0  0  0  0
   13.3834  -15.4450   23.3220 C   0  0  0  0  0  0  0  0  0  0  0  0
   14.1695  -15.0186   24.2038 O   0  0  0  0  0  0  0  0  0  0  0  0
   12.0851  -16.4107   25.6872 C   0  0  0  0  0  0  0  0  0  0  0  0
   13.4606  -16.6930   25.7599 O   0  0  0  0  0  0  0  0  0  0  0  0
   13.9377  -16.0007   22.1780 O   0  0  0  0  0  0  0  0  0  0  0  0
   11.4737  -16.1361   26.7347 O   0  0  0  0  0  0  0  0  0  0  0  0
  1  2  1  0
  2  4  1  0
  2  3  2  0
  4  5  1  0
  5  6  1  0
  6  8  1  0
  6  7  1  6
  8  9  2  0
 11 10  1  0
 12 11  1  0
 12 14  1  0
 12 13  1  6
 14 15  1  1
 15  8  1  0
 16 17  2  0
 16 14  1  0
 18 16  1  0
 19 18  1  0
 19 23  1  0
 19 20  1  6
 21 20  1  0
 22 21  2  0
 23 24  1  0
 25 21  1  0
 26 23  2  0
M  END
$$$$
