QID.pdb
     RDKit          3D

 26 25  0  0  1  0  0  0  0  0999 V2000
   10.0056  -17.1824   17.8678 N   0  0  0  0  0  0  0  0  0  0  0  0
    8.7133  -17.1807   18.5123 C   0  0  0  0  0  0  0  0  0  0  0  0
    8.0567  -18.2248   18.4160 O   0  0  0  0  0  0  0  0  0  0  0  0
    8.3260  -15.9708   19.1933 C   0  0  0  0  0  0  0  0  0  0  0  0
    8.7971  -15.7204   20.5712 C   0  0  0  0  0  0  0  0  0  0  0  0
    7.8766  -16.0391   21.6919 C   0  0  2  0  0  0  0  0  0  0  0  0
    6.6088  -15.4089   21.5125 N   0  0  0  0  0  0  0  0  0  0  0  0
    8.4796  -15.4768   22.9438 C   0  0  0  0  0  0  0  0  0  0  0  0
    9.7280  -15.3742   22.9789 O   0  0  0  0  0  0  0  0  0  0  0  0
    6.1805  -11.6410   25.7454 C   0  0  0  0  0  0  0  0  0  0  0  0
    7.3179  -12.4574   25.1645 C   0  0  0  0  0  0  0  0  0  0  0  0
    7.4792  -13.6947   25.9962 C   0  0  2  0  0  0  0  0  0  0  0  0
    8.1874  -13.2768   27.2823 C   0  0  0  0  0  0  0  0  0  0  0  0
    8.3342  -14.7361   25.3416 C   0  0  2  0  0  0  0  0  0  0  0  0
    7.7211  -15.0671   24.0623 N   0  0  0  0  0  0  0  0  0  0  0  0
    8.5027  -15.9526   26.1575 C   0  0  0  0  0  0  0  0  0  0  0  0
    7.5733  -16.8080   26.1701 O   0  0  0  0  0  0  0  0  0  0  0  0
    9.6343  -16.2402   26.9351 N   0  0  0  0  0  0  0  0  0  0  0  0
   10.0061  -17.5823   27.3550 C   0  0  1  0  0  0  0  0  0  0  0  0
   10.1781  -18.5218   26.2217 C   0  0  0  0  0  0  0  0  0  0  0  0
   10.6493  -19.8331   26.7058 C   0  0  0  0  0  0  0  0  0  0  0  0
    9.8836  -20.6193   27.3166 O   0  0  0  0  0  0  0  0  0  0  0  0
   11.1958  -17.5703   28.2253 C   0  0  0  0  0  0  0  0  0  0  0  0
   11.9159  -16.3687   28.3466 O   0  0  0  0  0  0  0  0  0  0  0  0
   11.9597  -20.2393   26.4994 O   0  0  0  0  0  0  0  0  0  0  0  0
   11.5880  -18.5696   28.8529 O   0  0  0  0  0  0  0  0  0  0  0  0
  1  2  1  0
  2  4  1  0
  2  3  2  0
  4  5  1  0
  5  6  1  0
  6  8  1  0
  6  7  1  6
  8  9  2  0
 11 10  1  0
 12 11  1  0
 12 14  1  0
 12 13  1  1
 14 15  1  6
 15  8  1  0
 16 17  2  0
 16 14  1  0
 18 16  1  0
 19 18  1  0
 19 23  1  0
 19 20  1  6
 21 20  1  0
 22 21  2  0
 23 24  1  0
 25 21  1  0
 26 23  2  0
M  END
$$$$
