QID.pdb
     RDKit          3D

 26 25  0  0  1  0  0  0  0  0999 V2000
    9.3271  -12.7978   18.1814 N   0  0  0  0  0  0  0  0  0  0  0  0
    8.0809  -13.4400   17.8356 C   0  0  0  0  0  0  0  0  0  0  0  0
    7.8317  -13.5276   16.6270 O   0  0  0  0  0  0  0  0  0  0  0  0
    7.2627  -13.9061   18.9270 C   0  0  0  0  0  0  0  0  0  0  0  0
    7.7398  -13.7589   20.3176 C   0  0  0  0  0  0  0  0  0  0  0  0
    7.7851  -14.9728   21.1716 C   0  0  2  0  0  0  0  0  0  0  0  0
    6.4761  -15.4965   21.3927 N   0  0  0  0  0  0  0  0  0  0  0  0
    8.3320  -14.5645   22.5062 C   0  0  0  0  0  0  0  0  0  0  0  0
    9.4277  -13.9564   22.5113 O   0  0  0  0  0  0  0  0  0  0  0  0
    5.7729  -11.9364   26.0472 C   0  0  0  0  0  0  0  0  0  0  0  0
    6.8617  -12.5450   25.1860 C   0  0  0  0  0  0  0  0  0  0  0  0
    7.3423  -13.7984   25.8544 C   0  0  2  0  0  0  0  0  0  0  0  0
    8.0790  -13.3723   27.1215 C   0  0  0  0  0  0  0  0  0  0  0  0
    8.3147  -14.5743   25.0199 C   0  0  2  0  0  0  0  0  0  0  0  0
    7.6832  -14.8290   23.7322 N   0  0  0  0  0  0  0  0  0  0  0  0
    8.7377  -15.8427   25.6414 C   0  0  0  0  0  0  0  0  0  0  0  0
    7.8557  -16.6980   25.9350 O   0  0  0  0  0  0  0  0  0  0  0  0
   10.0666  -16.1807   25.9378 N   0  0  0  0  0  0  0  0  0  0  0  0
   10.4678  -17.4587   26.5050 C   0  0  1  0  0  0  0  0  0  0  0  0
   11.8417  -17.8616   26.1222 C   0  0  0  0  0  0  0  0  0  0  0  0
   11.9478  -18.0057   24.6580 C   0  0  0  0  0  0  0  0  0  0  0  0
   10.9538  -18.3188   23.9571 O   0  0  0  0  0  0  0  0  0  0  0  0
   10.2907  -17.4841   27.9682 C   0  0  0  0  0  0  0  0  0  0  0  0
   10.3456  -18.7284   28.6207 O   0  0  0  0  0  0  0  0  0  0  0  0
   13.1558  -17.7982   24.0080 O   0  0  0  0  0  0  0  0  0  0  0  0
   10.0963  -16.4601   28.6465 O   0  0  0  0  0  0  0  0  0  0  0  0
  1  2  1  0
  2  4  1  0
  2  3  2  0
  4  5  1  0
  5  6  1  0
  6  8  1  0
  6  7  1  1
  8  9  2  0
 11 10  1  0
 12 11  1  0
 12 14  1  0
 12 13  1  1
 14 15  1  6
 15  8  1  0
 16 17  2  0
 16 14  1  0
 18 16  1  0
 19 18  1  0
 19 23  1  0
 19 20  1  1
 21 20  1  0
 22 21  2  0
 23 24  1  0
 25 21  1  0
 26 23  2  0
M  END
$$$$
