QID.pdb
     RDKit          3D

 26 25  0  0  1  0  0  0  0  0999 V2000
    8.0871  -12.1909   17.6195 N   0  0  0  0  0  0  0  0  0  0  0  0
    8.0205  -13.6224   17.7977 C   0  0  0  0  0  0  0  0  0  0  0  0
    8.4386  -14.3073   16.8561 O   0  0  0  0  0  0  0  0  0  0  0  0
    7.4758  -14.0997   19.0440 C   0  0  0  0  0  0  0  0  0  0  0  0
    8.3851  -14.5188   20.1305 C   0  0  0  0  0  0  0  0  0  0  0  0
    7.8513  -15.4304   21.1741 C   0  0  2  0  0  0  0  0  0  0  0  0
    6.4440  -15.2588   21.3375 N   0  0  0  0  0  0  0  0  0  0  0  0
    8.4988  -15.0560   22.4732 C   0  0  0  0  0  0  0  0  0  0  0  0
    9.7465  -14.9393   22.4754 O   0  0  0  0  0  0  0  0  0  0  0  0
    5.9172  -11.9425   25.9910 C   0  0  0  0  0  0  0  0  0  0  0  0
    7.0710  -12.4986   25.1804 C   0  0  0  0  0  0  0  0  0  0  0  0
    7.4934  -13.7986   25.7970 C   0  0  2  0  0  0  0  0  0  0  0  0
    8.2287  -13.4591   27.0908 C   0  0  0  0  0  0  0  0  0  0  0  0
    8.4463  -14.5740   24.9397 C   0  0  2  0  0  0  0  0  0  0  0  0
    7.7823  -14.8347   23.6697 N   0  0  0  0  0  0  0  0  0  0  0  0
    8.8895  -15.8391   25.5539 C   0  0  0  0  0  0  0  0  0  0  0  0
    8.0331  -16.7434   25.7650 O   0  0  0  0  0  0  0  0  0  0  0  0
   10.2111  -16.1228   25.9290 N   0  0  0  0  0  0  0  0  0  0  0  0
   10.6552  -17.4253   26.4005 C   0  0  1  0  0  0  0  0  0  0  0  0
   12.0435  -17.7501   25.9962 C   0  0  0  0  0  0  0  0  0  0  0  0
   12.4684  -19.0302   26.5935 C   0  0  0  0  0  0  0  0  0  0  0  0
   12.7279  -19.1270   27.8186 O   0  0  0  0  0  0  0  0  0  0  0  0
   10.4746  -17.5675   27.8565 C   0  0  0  0  0  0  0  0  0  0  0  0
   10.6857  -16.4360   28.6641 O   0  0  0  0  0  0  0  0  0  0  0  0
   12.5946  -20.1718   25.8153 O   0  0  0  0  0  0  0  0  0  0  0  0
   10.1459  -18.6374   28.3986 O   0  0  0  0  0  0  0  0  0  0  0  0
  1  2  1  0
  2  4  1  0
  2  3  2  0
  4  5  1  0
  5  6  1  0
  6  8  1  0
  6  7  1  1
  8  9  2  0
 11 10  1  0
 12 11  1  0
 12 14  1  0
 12 13  1  1
 14 15  1  6
 15  8  1  0
 16 17  2  0
 16 14  1  0
 18 16  1  0
 19 18  1  0
 19 23  1  0
 19 20  1  1
 21 20  1  0
 22 21  2  0
 23 24  1  0
 25 21  1  0
 26 23  2  0
M  END
$$$$
