QID.pdb
     RDKit          3D

 26 25  0  0  1  0  0  0  0  0999 V2000
    8.4385  -17.9166   18.7758 N   0  0  0  0  0  0  0  0  0  0  0  0
    7.0765  -18.2994   19.0651 C   0  0  0  0  0  0  0  0  0  0  0  0
    6.4779  -18.9002   18.1645 O   0  0  0  0  0  0  0  0  0  0  0  0
    6.5603  -17.9416   20.3625 C   0  0  0  0  0  0  0  0  0  0  0  0
    7.4506  -17.3110   21.3590 C   0  0  0  0  0  0  0  0  0  0  0  0
    7.2965  -15.8556   21.6099 C   0  0  2  0  0  0  0  0  0  0  0  0
    7.7982  -15.0881   20.5163 N   0  0  0  0  0  0  0  0  0  0  0  0
    8.1272  -15.5151   22.8103 C   0  0  0  0  0  0  0  0  0  0  0  0
    9.3716  -15.5887   22.6818 O   0  0  0  0  0  0  0  0  0  0  0  0
    6.0136  -11.9893   26.2338 C   0  0  0  0  0  0  0  0  0  0  0  0
    7.0716  -12.6296   25.3572 C   0  0  0  0  0  0  0  0  0  0  0  0
    7.5938  -13.8445   26.0644 C   0  0  2  0  0  0  0  0  0  0  0  0
    8.5089  -13.3499   27.1815 C   0  0  0  0  0  0  0  0  0  0  0  0
    8.4172  -14.7308   25.1809 C   0  0  2  0  0  0  0  0  0  0  0  0
    7.5831  -15.1245   24.0535 N   0  0  0  0  0  0  0  0  0  0  0  0
    8.9389  -15.9242   25.8720 C   0  0  0  0  0  0  0  0  0  0  0  0
    8.1193  -16.7902   26.2891 O   0  0  0  0  0  0  0  0  0  0  0  0
   10.2984  -16.1784   26.1070 N   0  0  0  0  0  0  0  0  0  0  0  0
   10.8016  -17.4188   26.6763 C   0  0  1  0  0  0  0  0  0  0  0  0
   12.0586  -17.8838   26.0435 C   0  0  0  0  0  0  0  0  0  0  0  0
   12.5365  -19.1191   26.6927 C   0  0  0  0  0  0  0  0  0  0  0  0
   11.8752  -20.1855   26.6381 O   0  0  0  0  0  0  0  0  0  0  0  0
   10.9416  -17.3280   28.1409 C   0  0  0  0  0  0  0  0  0  0  0  0
   10.8723  -16.0557   28.7355 O   0  0  0  0  0  0  0  0  0  0  0  0
   13.7377  -19.1398   27.3866 O   0  0  0  0  0  0  0  0  0  0  0  0
   11.1171  -18.3207   28.8690 O   0  0  0  0  0  0  0  0  0  0  0  0
  1  2  1  0
  2  4  1  0
  2  3  2  0
  4  5  1  0
  5  6  1  0
  6  8  1  0
  6  7  1  6
  8  9  2  0
 11 10  1  0
 12 11  1  0
 12 14  1  0
 12 13  1  1
 14 15  1  6
 15  8  1  0
 16 17  2  0
 16 14  1  0
 18 16  1  0
 19 18  1  0
 19 23  1  0
 19 20  1  6
 21 20  1  0
 22 21  2  0
 23 24  1  0
 25 21  1  0
 26 23  2  0
M  END
$$$$
