QID.pdb
     RDKit          3D

 26 25  0  0  1  0  0  0  0  0999 V2000
    6.7417  -20.2607   22.3704 N   0  0  0  0  0  0  0  0  0  0  0  0
    7.3451  -19.9904   21.0866 C   0  0  0  0  0  0  0  0  0  0  0  0
    7.0206  -20.7473   20.1634 O   0  0  0  0  0  0  0  0  0  0  0  0
    8.2573  -18.8765   21.0165 C   0  0  0  0  0  0  0  0  0  0  0  0
    8.4703  -18.0255   22.2055 C   0  0  0  0  0  0  0  0  0  0  0  0
    8.3760  -16.5534   22.0354 C   0  0  2  0  0  0  0  0  0  0  0  0
    9.2537  -16.0961   21.0073 N   0  0  0  0  0  0  0  0  0  0  0  0
    8.8267  -15.9221   23.3182 C   0  0  0  0  0  0  0  0  0  0  0  0
   10.0601  -15.7623   23.4723 O   0  0  0  0  0  0  0  0  0  0  0  0
    6.0986  -11.9831   25.4725 C   0  0  0  0  0  0  0  0  0  0  0  0
    7.2567  -12.8544   25.0284 C   0  0  0  0  0  0  0  0  0  0  0  0
    7.4566  -13.9280   26.0560 C   0  0  2  0  0  0  0  0  0  0  0  0
    8.0621  -13.2583   27.2868 C   0  0  0  0  0  0  0  0  0  0  0  0
    8.4160  -14.9913   25.6168 C   0  0  2  0  0  0  0  0  0  0  0  0
    7.9438  -15.5089   24.3398 N   0  0  0  0  0  0  0  0  0  0  0  0
    8.5599  -16.0886   26.5912 C   0  0  0  0  0  0  0  0  0  0  0  0
    7.7980  -17.0913   26.4923 O   0  0  0  0  0  0  0  0  0  0  0  0
    9.4931  -16.1071   27.6385 N   0  0  0  0  0  0  0  0  0  0  0  0
   10.2026  -17.3024   28.0671 C   0  0  1  0  0  0  0  0  0  0  0  0
   10.9514  -17.9613   26.9710 C   0  0  0  0  0  0  0  0  0  0  0  0
   11.7029  -19.1220   27.4847 C   0  0  0  0  0  0  0  0  0  0  0  0
   12.9561  -19.1066   27.5668 O   0  0  0  0  0  0  0  0  0  0  0  0
   11.0751  -17.0318   29.2240 C   0  0  0  0  0  0  0  0  0  0  0  0
   11.3053  -15.6915   29.5812 O   0  0  0  0  0  0  0  0  0  0  0  0
   11.0438  -20.2718   27.8951 O   0  0  0  0  0  0  0  0  0  0  0  0
   11.6130  -17.9311   29.8937 O   0  0  0  0  0  0  0  0  0  0  0  0
  1  2  1  0
  2  4  1  0
  2  3  2  0
  4  5  1  0
  5  6  1  0
  6  8  1  0
  6  7  1  6
  8  9  2  0
 11 10  1  0
 12 11  1  0
 12 14  1  0
 12 13  1  1
 14 15  1  6
 15  8  1  0
 16 17  2  0
 16 14  1  0
 18 16  1  0
 19 18  1  0
 19 23  1  0
 19 20  1  6
 21 20  1  0
 22 21  2  0
 23 24  1  0
 25 21  1  0
 26 23  2  0
M  END
$$$$
