LPC.pdb
     RDKit          3D

 22 22  0  0  1  0  0  0  0  0999 V2000
    7.0895  -13.7121   27.5343 C   0  0  0  0  0  0  0  0  0  0  0  0
    7.1842  -13.6025   26.0218 C   0  0  2  0  0  0  0  0  0  0  0  0
    7.3445  -12.1356   25.6593 C   0  0  0  0  0  0  0  0  0  0  0  0
    5.9729  -14.2016   25.3498 C   0  0  0  0  0  0  0  0  0  0  0  0
    6.1713  -15.7188   25.3479 C   0  0  2  0  0  0  0  0  0  0  0  0
    6.3837  -16.1426   26.6809 N   0  0  0  0  0  0  0  0  0  0  0  0
    7.2080  -16.0735   24.3637 C   0  0  0  0  0  0  0  0  0  0  0  0
    7.7929  -17.2018   24.5605 O   0  0  0  0  0  0  0  0  0  0  0  0
    7.6267  -15.3289   23.2485 N   0  0  0  0  0  0  0  0  0  0  0  0
    7.2183  -14.0351   22.8014 C   0  0  0  0  0  0  0  0  0  0  0  0
    7.2280  -14.2072   21.2732 C   0  0  0  0  0  0  0  0  0  0  0  0
    7.9919  -15.4576   20.9853 C   0  0  0  0  0  0  0  0  0  0  0  0
    8.6207  -15.7862   22.3008 C   0  0  1  0  0  0  0  0  0  0  0  0
    9.9446  -15.1440   22.5157 C   0  0  0  0  0  0  0  0  0  0  0  0
    9.9741  -13.9547   22.8976 O   0  0  0  0  0  0  0  0  0  0  0  0
   11.1687  -15.8047   22.3117 N   0  0  0  0  0  0  0  0  0  0  0  0
   12.1382  -16.0445   23.3636 C   0  0  1  0  0  0  0  0  0  0  0  0
   11.4811  -17.0170   24.3362 C   0  0  0  0  0  0  0  0  0  0  0  0
   12.1087  -16.7683   26.0178 S   0  0  0  0  0  0  0  0  0  0  0  0
   13.3110  -16.7586   22.7852 C   0  0  0  0  0  0  0  0  0  0  0  0
   14.6123  -16.4692   23.1651 O   0  0  0  0  0  0  0  0  0  0  0  0
   13.1618  -17.6664   21.9157 O   0  0  0  0  0  0  0  0  0  0  0  0
  2  1  1  1
  2  4  1  0
  2  3  1  0
  5  7  1  0
  5  4  1  0
  5  6  1  1
  7  8  2  0
  9 13  1  0
  9  7  1  0
 10  9  1  0
 11 10  1  0
 11 12  1  0
 12 13  1  0
 13 14  1  1
 14 15  2  0
 16 14  1  0
 17 16  1  0
 17 20  1  0
 17 18  1  1
 19 18  1  0
 20 22  2  0
 20 21  1  0
M  END
$$$$
