LPC.pdb
     RDKit          3D

 22 22  0  0  1  0  0  0  0  0999 V2000
    8.9198  -13.5026   26.6312 C   0  0  0  0  0  0  0  0  0  0  0  0
    7.5867  -13.9286   26.0396 C   0  0  2  0  0  0  0  0  0  0  0  0
    6.5861  -12.8070   26.2622 C   0  0  0  0  0  0  0  0  0  0  0  0
    7.1021  -15.2214   26.6493 C   0  0  0  0  0  0  0  0  0  0  0  0
    6.2032  -15.8932   25.6093 C   0  0  2  0  0  0  0  0  0  0  0  0
    5.5168  -16.9602   26.2354 N   0  0  0  0  0  0  0  0  0  0  0  0
    7.0012  -16.2243   24.4164 C   0  0  0  0  0  0  0  0  0  0  0  0
    7.2474  -17.4750   24.2467 O   0  0  0  0  0  0  0  0  0  0  0  0
    7.5187  -15.3405   23.4548 N   0  0  0  0  0  0  0  0  0  0  0  0
    7.4416  -13.9161   23.3798 C   0  0  0  0  0  0  0  0  0  0  0  0
    7.2878  -13.6835   21.8675 C   0  0  0  0  0  0  0  0  0  0  0  0
    7.6616  -14.9630   21.1945 C   0  0  0  0  0  0  0  0  0  0  0  0
    8.2771  -15.7634   22.2966 C   0  0  1  0  0  0  0  0  0  0  0  0
    9.7375  -15.5392   22.4642 C   0  0  0  0  0  0  0  0  0  0  0  0
   10.2226  -14.4572   22.0702 O   0  0  0  0  0  0  0  0  0  0  0  0
   10.6048  -16.4818   23.0438 N   0  0  0  0  0  0  0  0  0  0  0  0
   11.9322  -16.1598   23.5320 C   0  0  1  0  0  0  0  0  0  0  0  0
   11.7331  -15.2801   24.7609 C   0  0  0  0  0  0  0  0  0  0  0  0
   10.7973  -16.1611   26.0384 S   0  0  0  0  0  0  0  0  0  0  0  0
   12.5858  -17.4094   24.0126 C   0  0  0  0  0  0  0  0  0  0  0  0
   11.9257  -18.6282   24.0300 O   0  0  0  0  0  0  0  0  0  0  0  0
   13.7818  -17.4054   24.4278 O   0  0  0  0  0  0  0  0  0  0  0  0
  2  1  1  1
  2  4  1  0
  2  3  1  0
  5  7  1  0
  5  4  1  0
  5  6  1  1
  7  8  2  0
  9 13  1  0
  9  7  1  0
 10  9  1  0
 11 10  1  0
 11 12  1  0
 12 13  1  0
 13 14  1  1
 14 15  2  0
 16 14  1  0
 17 16  1  0
 17 20  1  0
 17 18  1  1
 19 18  1  0
 20 22  2  0
 20 21  1  0
M  END
$$$$
