LPC.pdb
     RDKit          3D

 22 22  0  0  1  0  0  0  0  0999 V2000
    8.7695  -14.2294   19.0712 C   0  0  0  0  0  0  0  0  0  0  0  0
    7.5610  -13.7434   19.8535 C   0  0  2  0  0  0  0  0  0  0  0  0
    7.4402  -12.2412   19.6594 C   0  0  0  0  0  0  0  0  0  0  0  0
    7.6737  -14.0975   21.3162 C   0  0  0  0  0  0  0  0  0  0  0  0
    7.5599  -15.6202   21.4144 C   0  0  2  0  0  0  0  0  0  0  0  0
    6.2439  -15.9935   21.0533 N   0  0  0  0  0  0  0  0  0  0  0  0
    8.0374  -16.0604   22.7364 C   0  0  0  0  0  0  0  0  0  0  0  0
    7.1198  -16.2728   23.6120 O   0  0  0  0  0  0  0  0  0  0  0  0
    9.3646  -16.2714   23.1455 N   0  0  0  0  0  0  0  0  0  0  0  0
   10.5884  -16.0613   22.4394 C   0  0  0  0  0  0  0  0  0  0  0  0
   11.4424  -17.2464   22.9201 C   0  0  0  0  0  0  0  0  0  0  0  0
   10.7630  -17.8058   24.1265 C   0  0  0  0  0  0  0  0  0  0  0  0
    9.7356  -16.7703   24.4527 C   0  0  1  0  0  0  0  0  0  0  0  0
   10.2274  -15.6922   25.3510 C   0  0  0  0  0  0  0  0  0  0  0  0
   11.1546  -14.9581   24.9474 O   0  0  0  0  0  0  0  0  0  0  0  0
    9.7039  -15.4532   26.6337 N   0  0  0  0  0  0  0  0  0  0  0  0
   10.1977  -14.4201   27.5242 C   0  0  1  0  0  0  0  0  0  0  0  0
    9.0027  -13.5325   27.8523 C   0  0  0  0  0  0  0  0  0  0  0  0
    8.1303  -13.0431   26.3413 S   0  0  0  0  0  0  0  0  0  0  0  0
   10.6172  -15.0495   28.8078 C   0  0  0  0  0  0  0  0  0  0  0  0
   11.2406  -14.3287   29.8143 O   0  0  0  0  0  0  0  0  0  0  0  0
   10.4178  -16.2797   29.0303 O   0  0  0  0  0  0  0  0  0  0  0  0
  2  1  1  6
  2  4  1  0
  2  3  1  0
  5  7  1  0
  5  4  1  0
  5  6  1  1
  7  8  2  0
  9 13  1  0
  9  7  1  0
 10  9  1  0
 11 10  1  0
 11 12  1  0
 12 13  1  0
 13 14  1  1
 14 15  2  0
 16 14  1  0
 17 16  1  0
 17 20  1  0
 17 18  1  1
 19 18  1  0
 20 22  2  0
 20 21  1  0
M  END
$$$$
