LPC.pdb
     RDKit          3D

 22 22  0  0  1  0  0  0  0  0999 V2000
    5.3578  -12.4125   26.2057 C   0  0  0  0  0  0  0  0  0  0  0  0
    6.4879  -13.1471   26.9071 C   0  0  2  0  0  0  0  0  0  0  0  0
    7.3103  -12.1298   27.6801 C   0  0  0  0  0  0  0  0  0  0  0  0
    7.3439  -13.9072   25.9237 C   0  0  0  0  0  0  0  0  0  0  0  0
    6.4678  -15.0158   25.3366 C   0  0  2  0  0  0  0  0  0  0  0  0
    6.0873  -15.8861   26.3851 N   0  0  0  0  0  0  0  0  0  0  0  0
    7.1565  -15.6228   24.1848 C   0  0  0  0  0  0  0  0  0  0  0  0
    7.2802  -16.9021   24.2272 O   0  0  0  0  0  0  0  0  0  0  0  0
    7.6881  -14.9718   23.0592 N   0  0  0  0  0  0  0  0  0  0  0  0
    7.6892  -13.5855   22.7144 C   0  0  0  0  0  0  0  0  0  0  0  0
    7.4940  -13.6351   21.1899 C   0  0  0  0  0  0  0  0  0  0  0  0
    7.7700  -15.0400   20.7655 C   0  0  0  0  0  0  0  0  0  0  0  0
    8.3787  -15.6535   21.9851 C   0  0  1  0  0  0  0  0  0  0  0  0
    9.8546  -15.4934   22.0703 C   0  0  0  0  0  0  0  0  0  0  0  0
   10.3188  -14.3503   22.2684 O   0  0  0  0  0  0  0  0  0  0  0  0
   10.7589  -16.5620   21.9397 N   0  0  0  0  0  0  0  0  0  0  0  0
   11.8661  -16.7941   22.8475 C   0  0  1  0  0  0  0  0  0  0  0  0
   11.2593  -17.3664   24.1233 C   0  0  0  0  0  0  0  0  0  0  0  0
   11.4684  -16.2162   25.5078 S   0  0  0  0  0  0  0  0  0  0  0  0
   12.7377  -17.8622   22.2823 C   0  0  0  0  0  0  0  0  0  0  0  0
   14.1137  -17.8574   22.4494 O   0  0  0  0  0  0  0  0  0  0  0  0
   12.2493  -18.8248   21.6209 O   0  0  0  0  0  0  0  0  0  0  0  0
  2  1  1  6
  2  4  1  0
  2  3  1  0
  5  7  1  0
  5  4  1  0
  5  6  1  1
  7  8  2  0
  9 13  1  0
  9  7  1  0
 10  9  1  0
 11 10  1  0
 11 12  1  0
 12 13  1  0
 13 14  1  1
 14 15  2  0
 16 14  1  0
 17 16  1  0
 17 20  1  0
 17 18  1  1
 19 18  1  0
 20 22  2  0
 20 21  1  0
M  END
$$$$
