LPC.pdb
     RDKit          3D

 22 22  0  0  1  0  0  0  0  0999 V2000
    5.5967  -12.4148   26.2191 C   0  0  0  0  0  0  0  0  0  0  0  0
    6.7891  -13.1212   26.8418 C   0  0  2  0  0  0  0  0  0  0  0  0
    7.6479  -12.0808   27.5410 C   0  0  0  0  0  0  0  0  0  0  0  0
    7.5836  -13.8775   25.8052 C   0  0  0  0  0  0  0  0  0  0  0  0
    6.7440  -15.0910   25.4007 C   0  0  2  0  0  0  0  0  0  0  0  0
    6.4739  -15.8536   26.5613 N   0  0  0  0  0  0  0  0  0  0  0  0
    7.4032  -15.7895   24.2840 C   0  0  0  0  0  0  0  0  0  0  0  0
    7.5951  -17.0492   24.4573 O   0  0  0  0  0  0  0  0  0  0  0  0
    7.8420  -15.2434   23.0664 N   0  0  0  0  0  0  0  0  0  0  0  0
    7.7437  -13.9076   22.5698 C   0  0  0  0  0  0  0  0  0  0  0  0
    7.4815  -14.1416   21.0727 C   0  0  0  0  0  0  0  0  0  0  0  0
    7.8216  -15.5686   20.7935 C   0  0  0  0  0  0  0  0  0  0  0  0
    8.5219  -16.0046   22.0400 C   0  0  1  0  0  0  0  0  0  0  0  0
    9.9879  -15.7556   22.0288 C   0  0  0  0  0  0  0  0  0  0  0  0
   10.3916  -14.5751   22.0992 O   0  0  0  0  0  0  0  0  0  0  0  0
   10.9473  -16.7797   21.9430 N   0  0  0  0  0  0  0  0  0  0  0  0
   12.2162  -16.7538   22.6453 C   0  0  1  0  0  0  0  0  0  0  0  0
   11.8806  -16.7169   24.1318 C   0  0  0  0  0  0  0  0  0  0  0  0
   11.9136  -18.3842   24.8408 S   0  0  0  0  0  0  0  0  0  0  0  0
   12.9255  -18.0423   22.4078 C   0  0  0  0  0  0  0  0  0  0  0  0
   12.2867  -19.1482   21.8690 O   0  0  0  0  0  0  0  0  0  0  0  0
   14.1517  -18.1773   22.6921 O   0  0  0  0  0  0  0  0  0  0  0  0
  2  1  1  6
  2  4  1  0
  2  3  1  0
  5  7  1  0
  5  4  1  0
  5  6  1  1
  7  8  2  0
  9 13  1  0
  9  7  1  0
 10  9  1  0
 11 10  1  0
 11 12  1  0
 12 13  1  0
 13 14  1  6
 14 15  2  0
 16 14  1  0
 17 16  1  0
 17 20  1  0
 17 18  1  1
 19 18  1  0
 20 22  2  0
 20 21  1  0
M  END
$$$$
