LPC.pdb
     RDKit          3D

 22 22  0  0  1  0  0  0  0  0999 V2000
    8.1715  -13.1922   27.1640 C   0  0  0  0  0  0  0  0  0  0  0  0
    7.0983  -13.5603   26.1534 C   0  0  2  0  0  0  0  0  0  0  0  0
    6.1757  -12.3653   25.9811 C   0  0  0  0  0  0  0  0  0  0  0  0
    6.3302  -14.7847   26.5878 C   0  0  0  0  0  0  0  0  0  0  0  0
    5.9794  -15.5624   25.3177 C   0  0  2  0  0  0  0  0  0  0  0  0
    5.0025  -16.5324   25.6441 N   0  0  0  0  0  0  0  0  0  0  0  0
    7.2178  -16.0510   24.6877 C   0  0  0  0  0  0  0  0  0  0  0  0
    7.4077  -17.3211   24.7556 O   0  0  0  0  0  0  0  0  0  0  0  0
    8.2039  -15.2973   24.0297 N   0  0  0  0  0  0  0  0  0  0  0  0
    8.2664  -13.8944   23.7682 C   0  0  0  0  0  0  0  0  0  0  0  0
    8.9090  -13.8578   22.3716 C   0  0  0  0  0  0  0  0  0  0  0  0
    9.4877  -15.2127   22.1279 C   0  0  0  0  0  0  0  0  0  0  0  0
    9.4129  -15.8643   23.4711 C   0  0  1  0  0  0  0  0  0  0  0  0
   10.6020  -15.6188   24.3296 C   0  0  0  0  0  0  0  0  0  0  0  0
   11.7097  -15.4477   23.7772 O   0  0  0  0  0  0  0  0  0  0  0  0
   10.5472  -15.5687   25.7335 N   0  0  0  0  0  0  0  0  0  0  0  0
   11.7218  -15.5150   26.5828 C   0  0  1  0  0  0  0  0  0  0  0  0
   11.3131  -14.7361   27.8277 C   0  0  0  0  0  0  0  0  0  0  0  0
   10.5669  -13.1475   27.3770 S   0  0  0  0  0  0  0  0  0  0  0  0
   12.0498  -16.8944   27.0404 C   0  0  0  0  0  0  0  0  0  0  0  0
   11.3067  -17.9977   26.6507 O   0  0  0  0  0  0  0  0  0  0  0  0
   13.0301  -17.1134   27.8109 O   0  0  0  0  0  0  0  0  0  0  0  0
  2  1  1  1
  2  4  1  0
  2  3  1  0
  5  7  1  0
  5  4  1  0
  5  6  1  1
  7  8  2  0
  9 13  1  0
  9  7  1  0
 10  9  1  0
 11 10  1  0
 11 12  1  0
 12 13  1  0
 13 14  1  1
 14 15  2  0
 16 14  1  0
 17 16  1  0
 17 20  1  0
 17 18  1  1
 19 18  1  0
 20 22  2  0
 20 21  1  0
M  END
$$$$
