LPC.pdb
     RDKit          3D

 22 22  0  0  1  0  0  0  0  0999 V2000
    5.2850  -12.7230   26.2385 C   0  0  0  0  0  0  0  0  0  0  0  0
    6.6130  -13.2078   26.7950 C   0  0  2  0  0  0  0  0  0  0  0  0
    7.3859  -12.0021   27.3026 C   0  0  0  0  0  0  0  0  0  0  0  0
    7.4026  -13.9637   25.7544 C   0  0  0  0  0  0  0  0  0  0  0  0
    6.6504  -15.2693   25.4882 C   0  0  2  0  0  0  0  0  0  0  0  0
    6.5993  -16.0085   26.6934 N   0  0  0  0  0  0  0  0  0  0  0  0
    7.2414  -15.9427   24.3191 C   0  0  0  0  0  0  0  0  0  0  0  0
    7.2107  -17.2280   24.3486 O   0  0  0  0  0  0  0  0  0  0  0  0
    7.8286  -15.3486   23.1896 N   0  0  0  0  0  0  0  0  0  0  0  0
    8.1800  -13.9857   22.9461 C   0  0  0  0  0  0  0  0  0  0  0  0
    7.8432  -13.8305   21.4537 C   0  0  0  0  0  0  0  0  0  0  0  0
    7.6832  -15.2090   20.9024 C   0  0  0  0  0  0  0  0  0  0  0  0
    8.2063  -16.0799   21.9989 C   0  0  1  0  0  0  0  0  0  0  0  0
    9.6708  -16.3276   21.9280 C   0  0  0  0  0  0  0  0  0  0  0  0
   10.2868  -15.9652   20.9030 O   0  0  0  0  0  0  0  0  0  0  0  0
   10.4022  -16.9495   22.9551 N   0  0  0  0  0  0  0  0  0  0  0  0
   11.8478  -16.8940   23.0601 C   0  0  1  0  0  0  0  0  0  0  0  0
   12.2041  -15.4277   23.2761 C   0  0  0  0  0  0  0  0  0  0  0  0
   13.9731  -15.2391   23.6205 S   0  0  0  0  0  0  0  0  0  0  0  0
   12.2700  -17.6140   24.2943 C   0  0  0  0  0  0  0  0  0  0  0  0
   11.4977  -17.6212   25.4454 O   0  0  0  0  0  0  0  0  0  0  0  0
   13.3617  -18.2533   24.3389 O   0  0  0  0  0  0  0  0  0  0  0  0
  2  1  1  6
  2  4  1  0
  2  3  1  0
  5  7  1  0
  5  4  1  0
  5  6  1  1
  7  8  2  0
  9 13  1  0
  9  7  1  0
 10  9  1  0
 11 10  1  0
 11 12  1  0
 12 13  1  0
 13 14  1  6
 14 15  2  0
 16 14  1  0
 17 16  1  0
 17 20  1  0
 17 18  1  1
 19 18  1  0
 20 22  2  0
 20 21  1  0
M  END
$$$$
