LPC.pdb
     RDKit          3D

 22 22  0  0  1  0  0  0  0  0999 V2000
    2.9106  -17.5883   20.2639 C   0  0  0  0  0  0  0  0  0  0  0  0
    3.9379  -18.5976   20.7481 C   0  0  2  0  0  0  0  0  0  0  0  0
    3.4144  -19.2363   22.0236 C   0  0  0  0  0  0  0  0  0  0  0  0
    5.2820  -17.9495   20.9740 C   0  0  0  0  0  0  0  0  0  0  0  0
    5.8184  -17.5488   19.5983 C   0  0  2  0  0  0  0  0  0  0  0  0
    5.7637  -18.6805   18.7511 N   0  0  0  0  0  0  0  0  0  0  0  0
    7.1309  -16.8994   19.7571 C   0  0  0  0  0  0  0  0  0  0  0  0
    8.1341  -17.5643   19.3040 O   0  0  0  0  0  0  0  0  0  0  0  0
    7.4089  -15.6522   20.3408 N   0  0  0  0  0  0  0  0  0  0  0  0
    6.5218  -14.6751   20.8874 C   0  0  0  0  0  0  0  0  0  0  0  0
    7.1946  -13.3592   20.4623 C   0  0  0  0  0  0  0  0  0  0  0  0
    8.5844  -13.7032   20.0381 C   0  0  0  0  0  0  0  0  0  0  0  0
    8.7441  -15.1160   20.4992 C   0  0  1  0  0  0  0  0  0  0  0  0
    9.2433  -15.2444   21.8940 C   0  0  0  0  0  0  0  0  0  0  0  0
    8.5582  -14.7573   22.8185 O   0  0  0  0  0  0  0  0  0  0  0  0
   10.4482  -15.8862   22.2299 N   0  0  0  0  0  0  0  0  0  0  0  0
   10.8940  -16.0970   23.5940 C   0  0  1  0  0  0  0  0  0  0  0  0
   10.7929  -17.5964   23.8492 C   0  0  0  0  0  0  0  0  0  0  0  0
    9.0646  -18.1401   23.8152 S   0  0  0  0  0  0  0  0  0  0  0  0
   12.3405  -15.7526   23.6876 C   0  0  0  0  0  0  0  0  0  0  0  0
   13.0017  -15.6664   24.9029 O   0  0  0  0  0  0  0  0  0  0  0  0
   13.0279  -15.5231   22.6497 O   0  0  0  0  0  0  0  0  0  0  0  0
  2  1  1  1
  2  4  1  0
  2  3  1  0
  5  7  1  0
  5  4  1  0
  5  6  1  6
  7  8  2  0
  9 13  1  0
  9  7  1  0
 10  9  1  0
 11 10  1  0
 11 12  1  0
 12 13  1  0
 13 14  1  1
 14 15  2  0
 16 14  1  0
 17 16  1  0
 17 20  1  0
 17 18  1  6
 19 18  1  0
 20 22  2  0
 20 21  1  0
M  END
$$$$
