LPC.pdb
     RDKit          3D

 22 22  0  0  1  0  0  0  0  0999 V2000
    5.9757  -12.3554   26.2577 C   0  0  0  0  0  0  0  0  0  0  0  0
    7.0020  -13.2376   26.9483 C   0  0  2  0  0  0  0  0  0  0  0  0
    7.9883  -12.3405   27.6774 C   0  0  0  0  0  0  0  0  0  0  0  0
    7.7075  -14.1364   25.9624 C   0  0  0  0  0  0  0  0  0  0  0  0
    6.6698  -15.1401   25.4554 C   0  0  2  0  0  0  0  0  0  0  0  0
    6.2695  -15.9547   26.5407 N   0  0  0  0  0  0  0  0  0  0  0  0
    7.1987  -15.8291   24.2659 C   0  0  0  0  0  0  0  0  0  0  0  0
    7.1271  -17.1128   24.2942 O   0  0  0  0  0  0  0  0  0  0  0  0
    7.7664  -15.2514   23.1181 N   0  0  0  0  0  0  0  0  0  0  0  0
    7.8517  -13.8806   22.7254 C   0  0  0  0  0  0  0  0  0  0  0  0
    7.6501  -13.9709   21.2036 C   0  0  0  0  0  0  0  0  0  0  0  0
    7.8383  -15.4039   20.8282 C   0  0  0  0  0  0  0  0  0  0  0  0
    8.4113  -16.0110   22.0681 C   0  0  1  0  0  0  0  0  0  0  0  0
    9.8944  -15.9390   22.1473 C   0  0  0  0  0  0  0  0  0  0  0  0
   10.4900  -15.1163   21.4194 O   0  0  0  0  0  0  0  0  0  0  0  0
   10.6653  -16.7490   22.9995 N   0  0  0  0  0  0  0  0  0  0  0  0
   11.9942  -16.3950   23.4606 C   0  0  1  0  0  0  0  0  0  0  0  0
   12.0150  -16.6758   24.9587 C   0  0  0  0  0  0  0  0  0  0  0  0
   10.6761  -15.7894   25.7984 S   0  0  0  0  0  0  0  0  0  0  0  0
   12.9821  -17.3258   22.8460 C   0  0  0  0  0  0  0  0  0  0  0  0
   14.3487  -17.1704   23.0179 O   0  0  0  0  0  0  0  0  0  0  0  0
   12.6066  -18.3043   22.1360 O   0  0  0  0  0  0  0  0  0  0  0  0
  2  1  1  6
  2  4  1  0
  2  3  1  0
  5  7  1  0
  5  4  1  0
  5  6  1  1
  7  8  2  0
  9 13  1  0
  9  7  1  0
 10  9  1  0
 11 10  1  0
 11 12  1  0
 12 13  1  0
 13 14  1  6
 14 15  2  0
 16 14  1  0
 17 16  1  0
 17 20  1  0
 17 18  1  1
 19 18  1  0
 20 22  2  0
 20 21  1  0
M  END
$$$$
