LPC.pdb
     RDKit          3D

 22 22  0  0  1  0  0  0  0  0999 V2000
    5.5914  -12.3800   26.3599 C   0  0  0  0  0  0  0  0  0  0  0  0
    6.7601  -13.2156   26.8542 C   0  0  2  0  0  0  0  0  0  0  0  0
    7.7427  -12.2930   27.5559 C   0  0  0  0  0  0  0  0  0  0  0  0
    7.4235  -13.9588   25.7205 C   0  0  0  0  0  0  0  0  0  0  0  0
    6.4478  -15.0494   25.2736 C   0  0  2  0  0  0  0  0  0  0  0  0
    6.1616  -15.8752   26.3861 N   0  0  0  0  0  0  0  0  0  0  0  0
    6.9772  -15.7139   24.0705 C   0  0  0  0  0  0  0  0  0  0  0  0
    6.7134  -16.9686   23.9716 O   0  0  0  0  0  0  0  0  0  0  0  0
    7.7292  -15.1408   23.0314 N   0  0  0  0  0  0  0  0  0  0  0  0
    8.1423  -13.7877   22.8341 C   0  0  0  0  0  0  0  0  0  0  0  0
    8.0199  -13.6353   21.3088 C   0  0  0  0  0  0  0  0  0  0  0  0
    7.9064  -15.0137   20.7457 C   0  0  0  0  0  0  0  0  0  0  0  0
    8.2519  -15.8884   21.9075 C   0  0  1  0  0  0  0  0  0  0  0  0
    9.7059  -16.1693   22.0420 C   0  0  0  0  0  0  0  0  0  0  0  0
   10.3688  -16.3848   21.0049 O   0  0  0  0  0  0  0  0  0  0  0  0
   10.3773  -16.2055   23.2767 N   0  0  0  0  0  0  0  0  0  0  0  0
   11.8100  -16.3896   23.4079 C   0  0  1  0  0  0  0  0  0  0  0  0
   12.1298  -16.2091   24.8873 C   0  0  0  0  0  0  0  0  0  0  0  0
   11.0841  -14.9230   25.6197 S   0  0  0  0  0  0  0  0  0  0  0  0
   12.1475  -17.8022   23.0756 C   0  0  0  0  0  0  0  0  0  0  0  0
   13.4523  -18.2700   23.0796 O   0  0  0  0  0  0  0  0  0  0  0  0
   11.2456  -18.6378   22.7738 O   0  0  0  0  0  0  0  0  0  0  0  0
  2  1  1  6
  2  4  1  0
  2  3  1  0
  5  7  1  0
  5  4  1  0
  5  6  1  1
  7  8  2  0
  9 13  1  0
  9  7  1  0
 10  9  1  0
 11 10  1  0
 11 12  1  0
 12 13  1  0
 13 14  1  1
 14 15  2  0
 16 14  1  0
 17 16  1  0
 17 20  1  0
 17 18  1  1
 19 18  1  0
 20 22  2  0
 20 21  1  0
M  END
$$$$
