LPC.pdb
     RDKit          3D

 22 22  0  0  1  0  0  0  0  0999 V2000
    6.7578  -12.4940   24.9212 C   0  0  0  0  0  0  0  0  0  0  0  0
    6.3180  -13.1896   26.1984 C   0  0  2  0  0  0  0  0  0  0  0  0
    6.4642  -12.2090   27.3500 C   0  0  0  0  0  0  0  0  0  0  0  0
    7.1189  -14.4447   26.4452 C   0  0  0  0  0  0  0  0  0  0  0  0
    6.5074  -15.5407   25.5700 C   0  0  2  0  0  0  0  0  0  0  0  0
    5.9860  -16.5480   26.4156 N   0  0  0  0  0  0  0  0  0  0  0  0
    7.4923  -15.9641   24.5599 C   0  0  0  0  0  0  0  0  0  0  0  0
    8.0925  -17.0745   24.8057 O   0  0  0  0  0  0  0  0  0  0  0  0
    7.8475  -15.3010   23.3735 N   0  0  0  0  0  0  0  0  0  0  0  0
    7.4710  -14.0089   22.8947 C   0  0  0  0  0  0  0  0  0  0  0  0
    7.3322  -14.2560   21.3832 C   0  0  0  0  0  0  0  0  0  0  0  0
    7.9976  -15.5619   21.0972 C   0  0  0  0  0  0  0  0  0  0  0  0
    8.7249  -15.8621   22.3681 C   0  0  1  0  0  0  0  0  0  0  0  0
   10.0957  -15.2893   22.4304 C   0  0  0  0  0  0  0  0  0  0  0  0
   10.2226  -14.0463   22.4146 O   0  0  0  0  0  0  0  0  0  0  0  0
   11.2604  -16.0731   22.5063 N   0  0  0  0  0  0  0  0  0  0  0  0
   12.1381  -16.0995   23.6608 C   0  0  1  0  0  0  0  0  0  0  0  0
   11.3084  -16.6493   24.8152 C   0  0  0  0  0  0  0  0  0  0  0  0
   11.7619  -15.8445   26.3743 S   0  0  0  0  0  0  0  0  0  0  0  0
   13.2254  -17.0888   23.4177 C   0  0  0  0  0  0  0  0  0  0  0  0
   12.9627  -18.3969   23.0420 O   0  0  0  0  0  0  0  0  0  0  0  0
   14.4434  -16.7686   23.5465 O   0  0  0  0  0  0  0  0  0  0  0  0
  2  1  1  6
  2  4  1  0
  2  3  1  0
  5  7  1  0
  5  4  1  0
  5  6  1  1
  7  8  2  0
  9 13  1  0
  9  7  1  0
 10  9  1  0
 11 10  1  0
 11 12  1  0
 12 13  1  0
 13 14  1  6
 14 15  2  0
 16 14  1  0
 17 16  1  0
 17 20  1  0
 17 18  1  1
 19 18  1  0
 20 22  2  0
 20 21  1  0
M  END
$$$$
