LPC.pdb
     RDKit          3D

 22 22  0  0  1  0  0  0  0  0999 V2000
    6.1097  -12.9506   27.4185 C   0  0  0  0  0  0  0  0  0  0  0  0
    6.8773  -13.3923   26.1839 C   0  0  2  0  0  0  0  0  0  0  0  0
    7.7956  -12.2575   25.7623 C   0  0  0  0  0  0  0  0  0  0  0  0
    5.9424  -13.7823   25.0651 C   0  0  0  0  0  0  0  0  0  0  0  0
    5.9321  -15.3113   25.0079 C   0  0  2  0  0  0  0  0  0  0  0  0
    5.9137  -15.8072   26.3328 N   0  0  0  0  0  0  0  0  0  0  0  0
    7.0281  -15.7739   24.1395 C   0  0  0  0  0  0  0  0  0  0  0  0
    7.5007  -16.9368   24.4192 O   0  0  0  0  0  0  0  0  0  0  0  0
    7.6099  -15.0979   23.0541 N   0  0  0  0  0  0  0  0  0  0  0  0
    7.4478  -13.7470   22.6190 C   0  0  0  0  0  0  0  0  0  0  0  0
    7.4842  -13.8974   21.0890 C   0  0  0  0  0  0  0  0  0  0  0  0
    8.0309  -15.2572   20.8025 C   0  0  0  0  0  0  0  0  0  0  0  0
    8.5445  -15.7076   22.1320 C   0  0  1  0  0  0  0  0  0  0  0  0
    9.9504  -15.3074   22.4045 C   0  0  0  0  0  0  0  0  0  0  0  0
   10.2397  -14.0921   22.3747 O   0  0  0  0  0  0  0  0  0  0  0  0
   10.9751  -16.2252   22.6947 N   0  0  0  0  0  0  0  0  0  0  0  0
   11.6670  -16.2819   23.9684 C   0  0  1  0  0  0  0  0  0  0  0  0
   10.6100  -16.6198   25.0135 C   0  0  0  0  0  0  0  0  0  0  0  0
   11.3674  -16.8511   26.6434 S   0  0  0  0  0  0  0  0  0  0  0  0
   12.6191  -17.4278   23.9496 C   0  0  0  0  0  0  0  0  0  0  0  0
   13.8572  -17.3690   24.5703 O   0  0  0  0  0  0  0  0  0  0  0  0
   12.3303  -18.5101   23.3599 O   0  0  0  0  0  0  0  0  0  0  0  0
  2  1  1  1
  2  4  1  0
  2  3  1  0
  5  7  1  0
  5  4  1  0
  5  6  1  1
  7  8  2  0
  9 13  1  0
  9  7  1  0
 10  9  1  0
 11 10  1  0
 11 12  1  0
 12 13  1  0
 13 14  1  1
 14 15  2  0
 16 14  1  0
 17 16  1  0
 17 20  1  0
 17 18  1  1
 19 18  1  0
 20 22  2  0
 20 21  1  0
M  END
$$$$
