HHW.pdb
     RDKit          3D

 35 38  0  0  1  0  0  0  0  0999 V2000
   22.4049  -31.3476  -11.4839 N   0  0  0  0  0  0  0  0  0  0  0  0
   21.0043  -31.0973  -11.3864 C   0  0  1  0  0  0  0  0  0  0  0  0
   20.1588  -32.3350  -11.2413 C   0  0  0  0  0  0  0  0  0  0  0  0
   20.2994  -33.2530  -12.3989 C   0  0  0  0  0  0  0  0  0  0  0  0
   20.8224  -34.5312  -12.3676 C   0  0  0  0  0  0  0  0  0  0  0  0
   20.7651  -35.0104  -13.6213 N   0  0  0  0  0  0  0  0  0  0  0  0
   20.2254  -34.0698  -14.4172 C   0  0  0  0  0  0  0  0  0  0  0  0
   19.9420  -32.9952  -13.6637 N   0  0  0  0  0  0  0  0  0  0  0  0
   20.6861  -30.1958  -10.2066 C   0  0  0  0  0  0  0  0  0  0  0  0
   21.2578  -30.4164   -9.1276 O   0  0  0  0  0  0  0  0  0  0  0  0
   19.7779  -29.1417  -10.3108 N   0  0  0  0  0  0  0  0  0  0  0  0
   19.3371  -28.1583   -9.4107 C   0  0  1  0  0  0  0  0  0  0  0  0
   19.4593  -26.7172   -9.7366 C   0  0  0  0  0  0  0  0  0  0  0  0
   18.8255  -25.7575   -8.8476 C   0  0  0  0  0  0  0  0  0  0  0  0
   17.9950  -25.8577   -7.7511 C   0  0  0  0  0  0  0  0  0  0  0  0
   17.6489  -24.6131   -7.3869 N   0  0  0  0  0  0  0  0  0  0  0  0
   18.2276  -23.7260   -8.2099 C   0  0  0  0  0  0  0  0  0  0  0  0
   18.9356  -24.4139   -9.0890 N   0  0  0  0  0  0  0  0  0  0  0  0
   18.0893  -28.4015   -8.6889 C   0  0  0  0  0  0  0  0  0  0  0  0
   16.9711  -28.4550   -9.3157 O   0  0  0  0  0  0  0  0  0  0  0  0
   17.9707  -28.5970   -7.2873 N   0  0  0  0  0  0  0  0  0  0  0  0
   16.7061  -28.9188   -6.6224 C   0  0  1  0  0  0  0  0  0  0  0  0
   16.9313  -29.5382   -5.3000 C   0  0  0  0  0  0  0  0  0  0  0  0
   17.5900  -28.6383   -4.3482 C   0  0  0  0  0  0  0  0  0  0  0  0
   17.3516  -27.2654   -4.1877 C   0  0  0  0  0  0  0  0  0  0  0  0
   18.1725  -26.7634   -3.2502 N   0  0  0  0  0  0  0  0  0  0  0  0
   18.9604  -27.7446   -2.7657 C   0  0  0  0  0  0  0  0  0  0  0  0
   19.9422  -27.7046   -1.7779 C   0  0  0  0  0  0  0  0  0  0  0  0
   20.5676  -28.8974   -1.4821 C   0  0  0  0  0  0  0  0  0  0  0  0
   20.2395  -30.0647   -2.1282 C   0  0  0  0  0  0  0  0  0  0  0  0
   19.2699  -30.0694   -3.0959 C   0  0  0  0  0  0  0  0  0  0  0  0
   18.6095  -28.9007   -3.4342 C   0  0  0  0  0  0  0  0  0  0  0  0
   15.7666  -27.8044   -6.5984 C   0  0  0  0  0  0  0  0  0  0  0  0
   16.1702  -26.6243   -6.7125 O   0  0  0  0  0  0  0  0  0  0  0  0
   14.3753  -27.9510   -6.4504 O   0  0  0  0  0  0  0  0  0  0  0  0
  2  1  1  1
  2  3  1  0
  4  5  2  0
  4  3  1  0
  6  5  1  0
  7  8  2  0
  7  6  1  0
  8  4  1  0
  9  2  1  0
 10  9  2  0
 11  9  1  0
 12 11  1  0
 12 13  1  6
 14 13  1  0
 14 18  1  0
 15 14  2  0
 16 15  1  0
 16 17  1  0
 17 18  2  0
 19 21  1  0
 19 12  1  0
 20 19  2  0
 22 33  1  0
 22 21  1  0
 22 23  1  1
 24 23  1  0
 24 32  1  0
 25 24  2  0
 26 25  1  0
 26 27  1  0
 27 28  1  0
 27 32  2  0
 28 29  2  0
 29 30  1  0
 31 30  2  0
 32 31  1  0
 33 35  1  0
 34 33  2  0
M  END
$$$$
