HHW.pdb
     RDKit          3D

 35 38  0  0  1  0  0  0  0  0999 V2000
   28.9538  -27.7022  -18.2384 N   0  0  0  0  0  0  0  0  0  0  0  0
   27.7971  -27.3793  -17.4690 C   0  0  1  0  0  0  0  0  0  0  0  0
   27.7027  -28.1035  -16.1521 C   0  0  0  0  0  0  0  0  0  0  0  0
   27.5289  -29.5672  -16.3244 C   0  0  0  0  0  0  0  0  0  0  0  0
   26.3371  -30.2252  -16.5598 C   0  0  0  0  0  0  0  0  0  0  0  0
   26.6225  -31.5346  -16.6527 N   0  0  0  0  0  0  0  0  0  0  0  0
   27.9466  -31.6995  -16.4825 C   0  0  0  0  0  0  0  0  0  0  0  0
   28.4972  -30.4916  -16.2816 N   0  0  0  0  0  0  0  0  0  0  0  0
   27.7320  -25.8922  -17.1689 C   0  0  0  0  0  0  0  0  0  0  0  0
   28.7972  -25.2824  -16.9864 O   0  0  0  0  0  0  0  0  0  0  0  0
   26.5174  -25.2096  -17.0954 N   0  0  0  0  0  0  0  0  0  0  0  0
   26.1820  -23.8583  -16.9133 C   0  0  1  0  0  0  0  0  0  0  0  0
   25.8516  -22.9926  -18.0706 C   0  0  0  0  0  0  0  0  0  0  0  0
   26.7952  -22.9350  -19.1748 C   0  0  0  0  0  0  0  0  0  0  0  0
   26.9444  -23.6311  -20.3561 C   0  0  0  0  0  0  0  0  0  0  0  0
   28.0691  -23.1965  -20.9459 N   0  0  0  0  0  0  0  0  0  0  0  0
   28.6401  -22.2512  -20.1846 C   0  0  0  0  0  0  0  0  0  0  0  0
   27.8743  -22.0935  -19.1189 N   0  0  0  0  0  0  0  0  0  0  0  0
   25.3344  -23.5113  -15.7739 C   0  0  0  0  0  0  0  0  0  0  0  0
   24.3253  -24.2403  -15.4636 O   0  0  0  0  0  0  0  0  0  0  0  0
   25.5153  -22.3900  -14.9215 N   0  0  0  0  0  0  0  0  0  0  0  0
   24.6849  -22.1308  -13.7432 C   0  0  1  0  0  0  0  0  0  0  0  0
   25.1792  -20.9683  -12.9769 C   0  0  0  0  0  0  0  0  0  0  0  0
   24.4651  -20.7675  -11.7121 C   0  0  0  0  0  0  0  0  0  0  0  0
   24.9234  -21.0956  -10.4278 C   0  0  0  0  0  0  0  0  0  0  0  0
   23.9802  -20.8065   -9.5159 N   0  0  0  0  0  0  0  0  0  0  0  0
   22.8966  -20.2926  -10.1325 C   0  0  0  0  0  0  0  0  0  0  0  0
   21.6924  -19.8347   -9.6019 C   0  0  0  0  0  0  0  0  0  0  0  0
   20.7733  -19.3358  -10.5005 C   0  0  0  0  0  0  0  0  0  0  0  0
   21.0317  -19.2925  -11.8492 C   0  0  0  0  0  0  0  0  0  0  0  0
   22.2257  -19.7520  -12.3387 C   0  0  0  0  0  0  0  0  0  0  0  0
   23.1853  -20.2644  -11.4825 C   0  0  0  0  0  0  0  0  0  0  0  0
   23.2593  -22.0758  -14.0425 C   0  0  0  0  0  0  0  0  0  0  0  0
   22.8303  -21.3759  -14.9883 O   0  0  0  0  0  0  0  0  0  0  0  0
   22.2761  -22.7780  -13.3218 O   0  0  0  0  0  0  0  0  0  0  0  0
  2  1  1  1
  2  3  1  0
  4  5  2  0
  4  3  1  0
  6  5  1  0
  7  8  2  0
  7  6  1  0
  8  4  1  0
  9  2  1  0
 10  9  2  0
 11  9  1  0
 12 11  1  0
 12 13  1  6
 14 13  1  0
 14 18  1  0
 15 14  2  0
 16 15  1  0
 16 17  1  0
 17 18  2  0
 19 21  1  0
 19 12  1  0
 20 19  2  0
 22 33  1  0
 22 21  1  0
 22 23  1  6
 24 23  1  0
 24 32  1  0
 25 24  2  0
 26 25  1  0
 26 27  1  0
 27 28  1  0
 27 32  2  0
 28 29  2  0
 29 30  1  0
 31 30  2  0
 32 31  1  0
 33 35  1  0
 34 33  2  0
M  END
$$$$
