HHW.pdb
     RDKit          3D

 35 38  0  0  1  0  0  0  0  0999 V2000
   26.8418  -28.2403  -19.0304 N   0  0  0  0  0  0  0  0  0  0  0  0
   26.3739  -28.2067  -17.6836 C   0  0  1  0  0  0  0  0  0  0  0  0
   25.6404  -26.9456  -17.3102 C   0  0  0  0  0  0  0  0  0  0  0  0
   26.4856  -25.7354  -17.4622 C   0  0  0  0  0  0  0  0  0  0  0  0
   27.3579  -25.2257  -16.5199 C   0  0  0  0  0  0  0  0  0  0  0  0
   27.9202  -24.1300  -17.0564 N   0  0  0  0  0  0  0  0  0  0  0  0
   27.4222  -23.9525  -18.2933 C   0  0  0  0  0  0  0  0  0  0  0  0
   26.5438  -24.9383  -18.5371 N   0  0  0  0  0  0  0  0  0  0  0  0
   25.4418  -29.3702  -17.3945 C   0  0  0  0  0  0  0  0  0  0  0  0
   24.5996  -29.6757  -18.2530 O   0  0  0  0  0  0  0  0  0  0  0  0
   25.5131  -30.0902  -16.2016 N   0  0  0  0  0  0  0  0  0  0  0  0
   24.7840  -31.1739  -15.6863 C   0  0  1  0  0  0  0  0  0  0  0  0
   25.3947  -32.1082  -14.7105 C   0  0  0  0  0  0  0  0  0  0  0  0
   26.3806  -33.0591  -15.1970 C   0  0  0  0  0  0  0  0  0  0  0  0
   26.8164  -33.4452  -16.4472 C   0  0  0  0  0  0  0  0  0  0  0  0
   27.6956  -34.4457  -16.2814 N   0  0  0  0  0  0  0  0  0  0  0  0
   27.8350  -34.7102  -14.9738 C   0  0  0  0  0  0  0  0  0  0  0  0
   27.0441  -33.8764  -14.3209 N   0  0  0  0  0  0  0  0  0  0  0  0
   23.3773  -30.9557  -15.3534 C   0  0  0  0  0  0  0  0  0  0  0  0
   23.0384  -30.0566  -14.5031 O   0  0  0  0  0  0  0  0  0  0  0  0
   22.2789  -31.6710  -15.8998 N   0  0  0  0  0  0  0  0  0  0  0  0
   20.8865  -31.4244  -15.5187 C   0  0  1  0  0  0  0  0  0  0  0  0
   20.0359  -31.1795  -16.7018 C   0  0  0  0  0  0  0  0  0  0  0  0
   20.3600  -29.9282  -17.3939 C   0  0  0  0  0  0  0  0  0  0  0  0
   21.3355  -29.7451  -18.3849 C   0  0  0  0  0  0  0  0  0  0  0  0
   21.3767  -28.4545  -18.7557 N   0  0  0  0  0  0  0  0  0  0  0  0
   20.4641  -27.7523  -18.0540 C   0  0  0  0  0  0  0  0  0  0  0  0
   20.1344  -26.3997  -18.1078 C   0  0  0  0  0  0  0  0  0  0  0  0
   19.1247  -25.9777  -17.2690 C   0  0  0  0  0  0  0  0  0  0  0  0
   18.4774  -26.8464  -16.4239 C   0  0  0  0  0  0  0  0  0  0  0  0
   18.8267  -28.1706  -16.3946 C   0  0  0  0  0  0  0  0  0  0  0  0
   19.8340  -28.6495  -17.2147 C   0  0  0  0  0  0  0  0  0  0  0  0
   20.3514  -32.4274  -14.6062 C   0  0  0  0  0  0  0  0  0  0  0  0
   20.9766  -33.4897  -14.3847 O   0  0  0  0  0  0  0  0  0  0  0  0
   19.1307  -32.2954  -13.9195 O   0  0  0  0  0  0  0  0  0  0  0  0
  2  1  1  6
  2  3  1  0
  4  5  2  0
  4  3  1  0
  6  5  1  0
  7  8  2  0
  7  6  1  0
  8  4  1  0
  9  2  1  0
 10  9  2  0
 11  9  1  0
 12 11  1  0
 12 13  1  1
 14 13  1  0
 14 18  1  0
 15 14  2  0
 16 15  1  0
 16 17  1  0
 17 18  2  0
 19 21  1  0
 19 12  1  0
 20 19  2  0
 22 33  1  0
 22 21  1  0
 22 23  1  6
 24 23  1  0
 24 32  1  0
 25 24  2  0
 26 25  1  0
 26 27  1  0
 27 28  1  0
 27 32  2  0
 28 29  2  0
 29 30  1  0
 31 30  2  0
 32 31  1  0
 33 35  1  0
 34 33  2  0
M  END
$$$$
