HHW.pdb
     RDKit          3D

 35 38  0  0  1  0  0  0  0  0999 V2000
   28.6753  -20.7592  -19.4736 N   0  0  0  0  0  0  0  0  0  0  0  0
   27.7383  -21.4984  -18.6930 C   0  0  1  0  0  0  0  0  0  0  0  0
   27.7485  -22.9825  -18.9478 C   0  0  0  0  0  0  0  0  0  0  0  0
   26.9918  -23.3501  -20.1704 C   0  0  0  0  0  0  0  0  0  0  0  0
   25.8841  -24.1737  -20.2275 C   0  0  0  0  0  0  0  0  0  0  0  0
   25.5100  -24.2410  -21.5160 N   0  0  0  0  0  0  0  0  0  0  0  0
   26.3503  -23.4875  -22.2479 C   0  0  0  0  0  0  0  0  0  0  0  0
   27.2561  -22.9441  -21.4190 N   0  0  0  0  0  0  0  0  0  0  0  0
   27.9781  -21.2968  -17.2071 C   0  0  0  0  0  0  0  0  0  0  0  0
   29.0480  -21.6995  -16.7245 O   0  0  0  0  0  0  0  0  0  0  0  0
   27.0338  -20.6777  -16.3875 N   0  0  0  0  0  0  0  0  0  0  0  0
   27.0761  -20.1819  -15.0745 C   0  0  1  0  0  0  0  0  0  0  0  0
   27.3319  -18.7457  -14.8102 C   0  0  0  0  0  0  0  0  0  0  0  0
   28.3895  -18.0887  -15.5604 C   0  0  0  0  0  0  0  0  0  0  0  0
   29.7675  -18.1089  -15.5081 C   0  0  0  0  0  0  0  0  0  0  0  0
   30.2223  -17.2163  -16.4014 N   0  0  0  0  0  0  0  0  0  0  0  0
   29.1862  -16.6297  -17.0190 C   0  0  0  0  0  0  0  0  0  0  0  0
   28.0832  -17.1540  -16.5134 N   0  0  0  0  0  0  0  0  0  0  0  0
   26.1002  -20.6984  -14.1164 C   0  0  0  0  0  0  0  0  0  0  0  0
   24.8767  -20.8752  -14.4601 O   0  0  0  0  0  0  0  0  0  0  0  0
   26.3726  -21.0472  -12.7670 N   0  0  0  0  0  0  0  0  0  0  0  0
   25.4092  -21.7298  -11.9005 C   0  0  1  0  0  0  0  0  0  0  0  0
   26.0534  -22.2467  -10.6754 C   0  0  0  0  0  0  0  0  0  0  0  0
   26.2118  -21.2261   -9.6346 C   0  0  0  0  0  0  0  0  0  0  0  0
   25.1926  -20.4676   -9.0403 C   0  0  0  0  0  0  0  0  0  0  0  0
   25.7193  -19.6022   -8.1581 N   0  0  0  0  0  0  0  0  0  0  0  0
   27.0599  -19.7444   -8.1292 C   0  0  0  0  0  0  0  0  0  0  0  0
   28.0183  -19.0840   -7.3633 C   0  0  0  0  0  0  0  0  0  0  0  0
   29.3282  -19.4744   -7.5449 C   0  0  0  0  0  0  0  0  0  0  0  0
   29.6704  -20.4635   -8.4351 C   0  0  0  0  0  0  0  0  0  0  0  0
   28.7035  -21.0924   -9.1739 C   0  0  0  0  0  0  0  0  0  0  0  0
   27.3720  -20.7405   -9.0331 C   0  0  0  0  0  0  0  0  0  0  0  0
   24.2051  -20.9481  -11.6477 C   0  0  0  0  0  0  0  0  0  0  0  0
   24.2232  -19.6988  -11.7335 O   0  0  0  0  0  0  0  0  0  0  0  0
   22.9625  -21.5075  -11.2981 O   0  0  0  0  0  0  0  0  0  0  0  0
  2  1  1  6
  2  3  1  0
  4  5  2  0
  4  3  1  0
  6  5  1  0
  7  8  2  0
  7  6  1  0
  8  4  1  0
  9  2  1  0
 10  9  2  0
 11  9  1  0
 12 11  1  0
 12 13  1  6
 14 13  1  0
 14 18  1  0
 15 14  2  0
 16 15  1  0
 16 17  1  0
 17 18  2  0
 19 21  1  0
 19 12  1  0
 20 19  2  0
 22 33  1  0
 22 21  1  0
 22 23  1  1
 24 23  1  0
 24 32  1  0
 25 24  2  0
 26 25  1  0
 26 27  1  0
 27 28  1  0
 27 32  2  0
 28 29  2  0
 29 30  1  0
 31 30  2  0
 32 31  1  0
 33 35  1  0
 34 33  2  0
M  END
$$$$
