HHW.pdb
     RDKit          3D

 35 38  0  0  1  0  0  0  0  0999 V2000
   14.5894  -14.7952  -21.0669 N   0  0  0  0  0  0  0  0  0  0  0  0
   14.2200  -15.2523  -19.7674 C   0  0  1  0  0  0  0  0  0  0  0  0
   12.7398  -15.2196  -19.4929 C   0  0  0  0  0  0  0  0  0  0  0  0
   12.1894  -13.8419  -19.5308 C   0  0  0  0  0  0  0  0  0  0  0  0
   12.0182  -13.0016  -18.4477 C   0  0  0  0  0  0  0  0  0  0  0  0
   11.4969  -11.8560  -18.9172 N   0  0  0  0  0  0  0  0  0  0  0  0
   11.3437  -11.9669  -20.2490 C   0  0  0  0  0  0  0  0  0  0  0  0
   11.7692  -13.1852  -20.6199 N   0  0  0  0  0  0  0  0  0  0  0  0
   14.6888  -16.6771  -19.5303 C   0  0  0  0  0  0  0  0  0  0  0  0
   14.4114  -17.5363  -20.3815 O   0  0  0  0  0  0  0  0  0  0  0  0
   15.4134  -17.0328  -18.3922 N   0  0  0  0  0  0  0  0  0  0  0  0
   16.0402  -18.2204  -17.9823 C   0  0  1  0  0  0  0  0  0  0  0  0
   17.3857  -18.1965  -17.3600 C   0  0  0  0  0  0  0  0  0  0  0  0
   18.4437  -17.4706  -18.0432 C   0  0  0  0  0  0  0  0  0  0  0  0
   18.9439  -17.4739  -19.3285 C   0  0  0  0  0  0  0  0  0  0  0  0
   20.0005  -16.6466  -19.3566 N   0  0  0  0  0  0  0  0  0  0  0  0
   20.1908  -16.1180  -18.1386 C   0  0  0  0  0  0  0  0  0  0  0  0
   19.2546  -16.6135  -17.3480 N   0  0  0  0  0  0  0  0  0  0  0  0
   15.2148  -19.2447  -17.3445 C   0  0  0  0  0  0  0  0  0  0  0  0
   14.4049  -18.9363  -16.3984 O   0  0  0  0  0  0  0  0  0  0  0  0
   15.2098  -20.6256  -17.6760 N   0  0  0  0  0  0  0  0  0  0  0  0
   14.4102  -21.6232  -16.9617 C   0  0  1  0  0  0  0  0  0  0  0  0
   14.0786  -22.7733  -17.8279 C   0  0  0  0  0  0  0  0  0  0  0  0
   13.1644  -23.7273  -17.1922 C   0  0  0  0  0  0  0  0  0  0  0  0
   11.7822  -23.5725  -17.0110 C   0  0  0  0  0  0  0  0  0  0  0  0
   11.2842  -24.6319  -16.3517 N   0  0  0  0  0  0  0  0  0  0  0  0
   12.2767  -25.5028  -16.0784 C   0  0  0  0  0  0  0  0  0  0  0  0
   12.2379  -26.7377  -15.4345 C   0  0  0  0  0  0  0  0  0  0  0  0
   13.4344  -27.4144  -15.3268 C   0  0  0  0  0  0  0  0  0  0  0  0
   14.6043  -26.8974  -15.8287 C   0  0  0  0  0  0  0  0  0  0  0  0
   14.6083  -25.6795  -16.4556 C   0  0  0  0  0  0  0  0  0  0  0  0
   13.4361  -24.9557  -16.5915 C   0  0  0  0  0  0  0  0  0  0  0  0
   14.9758  -22.0009  -15.6724 C   0  0  0  0  0  0  0  0  0  0  0  0
   16.2156  -22.0879  -15.5181 O   0  0  0  0  0  0  0  0  0  0  0  0
   14.2073  -22.2904  -14.5301 O   0  0  0  0  0  0  0  0  0  0  0  0
  2  1  1  6
  2  3  1  0
  4  5  2  0
  4  3  1  0
  6  5  1  0
  7  8  2  0
  7  6  1  0
  8  4  1  0
  9  2  1  0
 10  9  2  0
 11  9  1  0
 12 11  1  0
 12 13  1  1
 14 13  1  0
 14 18  1  0
 15 14  2  0
 16 15  1  0
 16 17  1  0
 17 18  2  0
 19 21  1  0
 19 12  1  0
 20 19  2  0
 22 33  1  0
 22 21  1  0
 22 23  1  6
 24 23  1  0
 24 32  1  0
 25 24  2  0
 26 25  1  0
 26 27  1  0
 27 28  1  0
 27 32  2  0
 28 29  2  0
 29 30  1  0
 31 30  2  0
 32 31  1  0
 33 35  1  0
 34 33  2  0
M  END
$$$$
