HHW.pdb
     RDKit          3D

 35 38  0  0  1  0  0  0  0  0999 V2000
   28.1701  -22.5724  -18.0624 N   0  0  0  0  0  0  0  0  0  0  0  0
   28.5499  -22.6695  -16.6911 C   0  0  1  0  0  0  0  0  0  0  0  0
   30.0371  -22.6646  -16.4547 C   0  0  0  0  0  0  0  0  0  0  0  0
   30.7004  -23.8704  -17.0100 C   0  0  0  0  0  0  0  0  0  0  0  0
   31.7199  -23.8844  -17.9422 C   0  0  0  0  0  0  0  0  0  0  0  0
   32.0288  -25.1722  -18.1680 N   0  0  0  0  0  0  0  0  0  0  0  0
   31.2339  -25.9452  -17.4064 C   0  0  0  0  0  0  0  0  0  0  0  0
   30.4220  -25.1431  -16.6991 N   0  0  0  0  0  0  0  0  0  0  0  0
   27.9621  -21.5322  -15.8744 C   0  0  0  0  0  0  0  0  0  0  0  0
   28.6058  -20.4747  -15.7910 O   0  0  0  0  0  0  0  0  0  0  0  0
   26.7323  -21.6518  -15.2263 N   0  0  0  0  0  0  0  0  0  0  0  0
   25.9617  -20.7686  -14.4532 C   0  0  1  0  0  0  0  0  0  0  0  0
   24.9348  -19.9032  -15.0814 C   0  0  0  0  0  0  0  0  0  0  0  0
   25.2946  -19.1792  -16.2894 C   0  0  0  0  0  0  0  0  0  0  0  0
   25.2596  -19.4701  -17.6371 C   0  0  0  0  0  0  0  0  0  0  0  0
   25.8115  -18.4363  -18.2915 N   0  0  0  0  0  0  0  0  0  0  0  0
   26.1959  -17.5000  -17.4113 C   0  0  0  0  0  0  0  0  0  0  0  0
   25.8853  -17.9464  -16.2066 N   0  0  0  0  0  0  0  0  0  0  0  0
   25.4917  -21.2327  -13.1490 C   0  0  0  0  0  0  0  0  0  0  0  0
   24.9785  -22.4011  -13.0167 O   0  0  0  0  0  0  0  0  0  0  0  0
   25.5436  -20.4892  -11.9402 N   0  0  0  0  0  0  0  0  0  0  0  0
   24.8716  -20.9065  -10.7076 C   0  0  1  0  0  0  0  0  0  0  0  0
   25.4744  -20.2686   -9.5190 C   0  0  0  0  0  0  0  0  0  0  0  0
   26.8900  -20.6063   -9.3408 C   0  0  0  0  0  0  0  0  0  0  0  0
   27.6742  -21.4089  -10.1823 C   0  0  0  0  0  0  0  0  0  0  0  0
   28.9132  -21.5302   -9.6774 N   0  0  0  0  0  0  0  0  0  0  0  0
   29.0016  -20.8385   -8.5232 C   0  0  0  0  0  0  0  0  0  0  0  0
   30.0825  -20.6590   -7.6627 C   0  0  0  0  0  0  0  0  0  0  0  0
   29.8645  -19.8646   -6.5569 C   0  0  0  0  0  0  0  0  0  0  0  0
   28.6444  -19.2804   -6.3164 C   0  0  0  0  0  0  0  0  0  0  0  0
   27.6014  -19.4781   -7.1821 C   0  0  0  0  0  0  0  0  0  0  0  0
   27.7632  -20.2669   -8.3082 C   0  0  0  0  0  0  0  0  0  0  0  0
   23.4206  -20.7820  -10.7705 C   0  0  0  0  0  0  0  0  0  0  0  0
   22.8750  -20.0995  -11.6678 O   0  0  0  0  0  0  0  0  0  0  0  0
   22.5379  -21.3948   -9.8625 O   0  0  0  0  0  0  0  0  0  0  0  0
  2  1  1  6
  2  3  1  0
  4  5  2  0
  4  3  1  0
  6  5  1  0
  7  8  2  0
  7  6  1  0
  8  4  1  0
  9  2  1  0
 10  9  2  0
 11  9  1  0
 12 11  1  0
 12 13  1  6
 14 13  1  0
 14 18  1  0
 15 14  2  0
 16 15  1  0
 16 17  1  0
 17 18  2  0
 19 21  1  0
 19 12  1  0
 20 19  2  0
 22 33  1  0
 22 21  1  0
 22 23  1  1
 24 23  1  0
 24 32  1  0
 25 24  2  0
 26 25  1  0
 26 27  1  0
 27 28  1  0
 27 32  2  0
 28 29  2  0
 29 30  1  0
 31 30  2  0
 32 31  1  0
 33 35  1  0
 34 33  2  0
M  END
$$$$
