HHW.pdb
     RDKit          3D

 35 38  0  0  1  0  0  0  0  0999 V2000
   26.0836  -17.0369  -18.6240 N   0  0  0  0  0  0  0  0  0  0  0  0
   25.0713  -17.0947  -17.6210 C   0  0  1  0  0  0  0  0  0  0  0  0
   23.8563  -16.2542  -17.9129 C   0  0  0  0  0  0  0  0  0  0  0  0
   24.1774  -14.8076  -17.9934 C   0  0  0  0  0  0  0  0  0  0  0  0
   25.4273  -14.2395  -17.8400 C   0  0  0  0  0  0  0  0  0  0  0  0
   25.2773  -12.9128  -17.9882 N   0  0  0  0  0  0  0  0  0  0  0  0
   23.9796  -12.6505  -18.2268 C   0  0  0  0  0  0  0  0  0  0  0  0
   23.3102  -13.8144  -18.2288 N   0  0  0  0  0  0  0  0  0  0  0  0
   24.5902  -18.5187  -17.4048 C   0  0  0  0  0  0  0  0  0  0  0  0
   24.4670  -19.2544  -18.3964 O   0  0  0  0  0  0  0  0  0  0  0  0
   24.2887  -19.0076  -16.1332 N   0  0  0  0  0  0  0  0  0  0  0  0
   23.8107  -20.2420  -15.6649 C   0  0  1  0  0  0  0  0  0  0  0  0
   24.7444  -21.2858  -15.1784 C   0  0  0  0  0  0  0  0  0  0  0  0
   26.0292  -21.4204  -15.8450 C   0  0  0  0  0  0  0  0  0  0  0  0
   26.6132  -20.8303  -16.9463 C   0  0  0  0  0  0  0  0  0  0  0  0
   27.7994  -21.4255  -17.1465 N   0  0  0  0  0  0  0  0  0  0  0  0
   27.9913  -22.3712  -16.2148 C   0  0  0  0  0  0  0  0  0  0  0  0
   26.9266  -22.3687  -15.4316 N   0  0  0  0  0  0  0  0  0  0  0  0
   22.5968  -20.2411  -14.8503 C   0  0  0  0  0  0  0  0  0  0  0  0
   22.5679  -19.6339  -13.7204 O   0  0  0  0  0  0  0  0  0  0  0  0
   21.3729  -20.8754  -15.1916 N   0  0  0  0  0  0  0  0  0  0  0  0
   20.1461  -20.7369  -14.4038 C   0  0  1  0  0  0  0  0  0  0  0  0
   19.0908  -20.0345  -15.1630 C   0  0  0  0  0  0  0  0  0  0  0  0
   19.4494  -18.6542  -15.5035 C   0  0  0  0  0  0  0  0  0  0  0  0
   20.0500  -18.2113  -16.6911 C   0  0  0  0  0  0  0  0  0  0  0  0
   20.2676  -16.8870  -16.6294 N   0  0  0  0  0  0  0  0  0  0  0  0
   19.8361  -16.4119  -15.4435 C   0  0  0  0  0  0  0  0  0  0  0  0
   19.8362  -15.1123  -14.9413 C   0  0  0  0  0  0  0  0  0  0  0  0
   19.2961  -14.9372  -13.6848 C   0  0  0  0  0  0  0  0  0  0  0  0
   18.7842  -15.9900  -12.9654 C   0  0  0  0  0  0  0  0  0  0  0  0
   18.8004  -17.2561  -13.4879 C   0  0  0  0  0  0  0  0  0  0  0  0
   19.3312  -17.4906  -14.7448 C   0  0  0  0  0  0  0  0  0  0  0  0
   19.7035  -21.9876  -13.7998 C   0  0  0  0  0  0  0  0  0  0  0  0
   20.2450  -23.0741  -14.1080 O   0  0  0  0  0  0  0  0  0  0  0  0
   18.6675  -22.0810  -12.8527 O   0  0  0  0  0  0  0  0  0  0  0  0
  2  1  1  6
  2  3  1  0
  4  5  2  0
  4  3  1  0
  6  5  1  0
  7  8  2  0
  7  6  1  0
  8  4  1  0
  9  2  1  0
 10  9  2  0
 11  9  1  0
 12 11  1  0
 12 13  1  1
 14 13  1  0
 14 18  1  0
 15 14  2  0
 16 15  1  0
 16 17  1  0
 17 18  2  0
 19 21  1  0
 19 12  1  0
 20 19  2  0
 22 33  1  0
 22 21  1  0
 22 23  1  6
 24 23  1  0
 24 32  1  0
 25 24  2  0
 26 25  1  0
 26 27  1  0
 27 28  1  0
 27 32  2  0
 28 29  2  0
 29 30  1  0
 31 30  2  0
 32 31  1  0
 33 35  1  0
 34 33  2  0
M  END
$$$$
