HHW.pdb
     RDKit          3D

 35 38  0  0  1  0  0  0  0  0999 V2000
   21.4895  -16.0963  -20.7125 N   0  0  0  0  0  0  0  0  0  0  0  0
   21.9404  -15.7145  -19.4145 C   0  0  1  0  0  0  0  0  0  0  0  0
   22.9373  -16.6600  -18.7981 C   0  0  0  0  0  0  0  0  0  0  0  0
   22.4545  -18.0633  -18.7917 C   0  0  0  0  0  0  0  0  0  0  0  0
   23.1069  -19.1531  -19.3352 C   0  0  0  0  0  0  0  0  0  0  0  0
   22.3314  -20.2271  -19.1123 N   0  0  0  0  0  0  0  0  0  0  0  0
   21.2283  -19.8317  -18.4517 C   0  0  0  0  0  0  0  0  0  0  0  0
   21.3085  -18.5055  -18.2579 N   0  0  0  0  0  0  0  0  0  0  0  0
   22.5816  -14.3382  -19.4363 C   0  0  0  0  0  0  0  0  0  0  0  0
   23.7752  -14.2407  -19.1115 O   0  0  0  0  0  0  0  0  0  0  0  0
   21.8659  -13.1997  -19.8082 N   0  0  0  0  0  0  0  0  0  0  0  0
   22.1719  -11.8293  -19.8133 C   0  0  1  0  0  0  0  0  0  0  0  0
   22.0408  -11.0238  -21.0510 C   0  0  0  0  0  0  0  0  0  0  0  0
   22.5670   -9.6688  -21.0457 C   0  0  0  0  0  0  0  0  0  0  0  0
   23.8089   -9.1151  -20.8149 C   0  0  0  0  0  0  0  0  0  0  0  0
   23.6743   -7.7803  -20.8576 N   0  0  0  0  0  0  0  0  0  0  0  0
   22.3946   -7.4648  -21.1065 C   0  0  0  0  0  0  0  0  0  0  0  0
   21.7279   -8.6005  -21.2197 N   0  0  0  0  0  0  0  0  0  0  0  0
   21.7662  -11.0335  -18.6560 C   0  0  0  0  0  0  0  0  0  0  0  0
   20.5575  -11.0718  -18.2273 O   0  0  0  0  0  0  0  0  0  0  0  0
   22.6123  -10.1715  -17.9091 N   0  0  0  0  0  0  0  0  0  0  0  0
   22.1396   -9.3413  -16.7990 C   0  0  1  0  0  0  0  0  0  0  0  0
   23.2327   -9.0215  -15.8577 C   0  0  0  0  0  0  0  0  0  0  0  0
   22.8397   -8.0554  -14.8271 C   0  0  0  0  0  0  0  0  0  0  0  0
   22.2428   -8.3427  -13.5908 C   0  0  0  0  0  0  0  0  0  0  0  0
   21.9870   -7.2023  -12.9284 N   0  0  0  0  0  0  0  0  0  0  0  0
   22.3889   -6.1490  -13.6682 C   0  0  0  0  0  0  0  0  0  0  0  0
   22.3453   -4.7846  -13.3890 C   0  0  0  0  0  0  0  0  0  0  0  0
   22.8634   -3.9422  -14.3498 C   0  0  0  0  0  0  0  0  0  0  0  0
   23.3952   -4.4234  -15.5217 C   0  0  0  0  0  0  0  0  0  0  0  0
   23.4218   -5.7710  -15.7658 C   0  0  0  0  0  0  0  0  0  0  0  0
   22.9147   -6.6633  -14.8368 C   0  0  0  0  0  0  0  0  0  0  0  0
   21.3766   -8.1774  -17.2327 C   0  0  0  0  0  0  0  0  0  0  0  0
   21.7442   -7.5034  -18.2222 O   0  0  0  0  0  0  0  0  0  0  0  0
   20.2035   -7.7254  -16.6013 O   0  0  0  0  0  0  0  0  0  0  0  0
  2  1  1  6
  2  3  1  0
  4  5  2  0
  4  3  1  0
  6  5  1  0
  7  8  2  0
  7  6  1  0
  8  4  1  0
  9  2  1  0
 10  9  2  0
 11  9  1  0
 12 11  1  0
 12 13  1  6
 14 13  1  0
 14 18  1  0
 15 14  2  0
 16 15  1  0
 16 17  1  0
 17 18  2  0
 19 21  1  0
 19 12  1  0
 20 19  2  0
 22 33  1  0
 22 21  1  0
 22 23  1  6
 24 23  1  0
 24 32  1  0
 25 24  2  0
 26 25  1  0
 26 27  1  0
 27 28  1  0
 27 32  2  0
 28 29  2  0
 29 30  1  0
 31 30  2  0
 32 31  1  0
 33 35  1  0
 34 33  2  0
M  END
$$$$
