DDD.pdb
     RDKit          3D

 25 24  0  0  1  0  0  0  0  0999 V2000
   15.1485  -11.2417  -12.3543 N   0  0  0  0  0  0  0  0  0  0  0  0
   15.5328  -11.3346  -10.9545 C   0  0  1  0  0  0  0  0  0  0  0  0
   16.0400  -12.7438  -10.7015 C   0  0  0  0  0  0  0  0  0  0  0  0
   14.9189  -13.6773  -10.9691 C   0  0  0  0  0  0  0  0  0  0  0  0
   13.8246  -13.2256  -11.3672 O   0  0  0  0  0  0  0  0  0  0  0  0
   16.5681  -10.3324  -10.6158 C   0  0  0  0  0  0  0  0  0  0  0  0
   16.9375  -10.1806   -9.4326 O   0  0  0  0  0  0  0  0  0  0  0  0
   15.0790  -15.0402  -10.7809 O   0  0  0  0  0  0  0  0  0  0  0  0
   17.1451   -9.5410  -11.6335 N   0  0  0  0  0  0  0  0  0  0  0  0
   18.0106   -8.4257  -11.3296 C   0  0  1  0  0  0  0  0  0  0  0  0
   19.1715   -8.2898  -12.2751 C   0  0  0  0  0  0  0  0  0  0  0  0
   20.0751   -7.1824  -11.8818 C   0  0  0  0  0  0  0  0  0  0  0  0
   20.0595   -6.7821  -10.7066 O   0  0  0  0  0  0  0  0  0  0  0  0
   17.2252   -7.1674  -11.2328 C   0  0  0  0  0  0  0  0  0  0  0  0
   16.5819   -6.7918  -12.2437 O   0  0  0  0  0  0  0  0  0  0  0  0
   20.9214   -6.5983  -12.7924 O   0  0  0  0  0  0  0  0  0  0  0  0
   17.1700   -6.3817  -10.0654 N   0  0  0  0  0  0  0  0  0  0  0  0
   16.2771   -5.2140   -9.9797 C   0  0  1  0  0  0  0  0  0  0  0  0
   16.1008   -4.8396   -8.5304 C   0  0  0  0  0  0  0  0  0  0  0  0
   15.1966   -3.7197   -8.3475 C   0  0  0  0  0  0  0  0  0  0  0  0
   14.5634   -3.2684   -9.3528 O   0  0  0  0  0  0  0  0  0  0  0  0
   17.0236   -4.0823  -10.6311 C   0  0  0  0  0  0  0  0  0  0  0  0
   18.2788   -4.0707  -10.7376 O   0  0  0  0  0  0  0  0  0  0  0  0
   15.0098   -3.1335   -7.1115 O   0  0  0  0  0  0  0  0  0  0  0  0
   16.3017   -3.0248  -11.1265 O   0  0  0  0  0  0  0  0  0  0  0  0
  2  1  1  6
  2  6  1  0
  3  2  1  0
  4  3  1  0
  5  4  2  0
  6  7  2  0
  8  4  1  0
  9  6  1  0
  9 10  1  0
 10 14  1  0
 10 11  1  6
 12 11  1  0
 13 12  2  0
 14 17  1  0
 15 14  2  0
 16 12  1  0
 17 18  1  0
 18 19  1  1
 19 20  1  0
 20 24  1  0
 21 20  2  0
 22 25  1  0
 22 18  1  0
 23 22  2  0
M  END
$$$$
