DDD.pdb
     RDKit          3D

 25 24  0  0  1  0  0  0  0  0999 V2000
   14.9521  -11.0236   -9.4434 N   0  0  0  0  0  0  0  0  0  0  0  0
   14.1496  -10.5131  -10.5440 C   0  0  1  0  0  0  0  0  0  0  0  0
   12.7334  -10.3086  -10.0344 C   0  0  0  0  0  0  0  0  0  0  0  0
   12.1675  -11.6469   -9.7371 C   0  0  0  0  0  0  0  0  0  0  0  0
   12.8586  -12.6664   -9.9447 O   0  0  0  0  0  0  0  0  0  0  0  0
   14.7082   -9.2482  -11.0722 C   0  0  0  0  0  0  0  0  0  0  0  0
   14.1494   -8.6580  -12.0203 O   0  0  0  0  0  0  0  0  0  0  0  0
   10.8834  -11.7708   -9.2327 O   0  0  0  0  0  0  0  0  0  0  0  0
   15.8797   -8.7012  -10.5035 N   0  0  0  0  0  0  0  0  0  0  0  0
   16.3949   -7.4163  -10.9143 C   0  0  1  0  0  0  0  0  0  0  0  0
   16.9600   -6.6047   -9.7820 C   0  0  0  0  0  0  0  0  0  0  0  0
   15.8939   -6.0745   -8.8990 C   0  0  0  0  0  0  0  0  0  0  0  0
   15.0133   -5.3488   -9.3884 O   0  0  0  0  0  0  0  0  0  0  0  0
   17.3724   -7.5765  -12.0225 C   0  0  0  0  0  0  0  0  0  0  0  0
   18.2706   -8.4452  -11.8987 O   0  0  0  0  0  0  0  0  0  0  0  0
   15.8680   -6.3725   -7.5583 O   0  0  0  0  0  0  0  0  0  0  0  0
   17.3372   -6.8025  -13.1985 N   0  0  0  0  0  0  0  0  0  0  0  0
   18.3095   -7.0256  -14.2815 C   0  0  1  0  0  0  0  0  0  0  0  0
   17.6842   -7.9179  -15.3229 C   0  0  0  0  0  0  0  0  0  0  0  0
   18.4908   -8.0272  -16.5239 C   0  0  0  0  0  0  0  0  0  0  0  0
   19.7126   -8.3608  -16.4175 O   0  0  0  0  0  0  0  0  0  0  0  0
   18.5134   -5.6830  -14.9283 C   0  0  0  0  0  0  0  0  0  0  0  0
   17.6809   -4.7440  -14.8177 O   0  0  0  0  0  0  0  0  0  0  0  0
   17.9647   -7.7764  -17.7756 O   0  0  0  0  0  0  0  0  0  0  0  0
   19.6535   -5.4810  -15.6659 O   0  0  0  0  0  0  0  0  0  0  0  0
  2  1  1  1
  2  6  1  0
  3  2  1  0
  4  3  1  0
  5  4  2  0
  6  7  2  0
  8  4  1  0
  9  6  1  0
  9 10  1  0
 10 14  1  0
 10 11  1  1
 12 11  1  0
 13 12  2  0
 14 17  1  0
 15 14  2  0
 16 12  1  0
 17 18  1  0
 18 19  1  6
 19 20  1  0
 20 24  1  0
 21 20  2  0
 22 25  1  0
 22 18  1  0
 23 22  2  0
M  END
$$$$
