DDD.pdb
     RDKit          3D

 25 24  0  0  1  0  0  0  0  0999 V2000
   19.1777  -11.4035  -17.7858 N   0  0  0  0  0  0  0  0  0  0  0  0
   19.1737  -11.1541  -16.3528 C   0  0  1  0  0  0  0  0  0  0  0  0
   19.2840  -12.4933  -15.6448 C   0  0  0  0  0  0  0  0  0  0  0  0
   18.0241  -13.2354  -15.8928 C   0  0  0  0  0  0  0  0  0  0  0  0
   17.1618  -12.7460  -16.6524 O   0  0  0  0  0  0  0  0  0  0  0  0
   20.2848  -10.2575  -15.9623 C   0  0  0  0  0  0  0  0  0  0  0  0
   20.4039   -9.8774  -14.7787 O   0  0  0  0  0  0  0  0  0  0  0  0
   17.8005  -14.4622  -15.2897 O   0  0  0  0  0  0  0  0  0  0  0  0
   21.2188   -9.8269  -16.9304 N   0  0  0  0  0  0  0  0  0  0  0  0
   22.2853   -8.9104  -16.6020 C   0  0  1  0  0  0  0  0  0  0  0  0
   23.5311   -9.1199  -17.4170 C   0  0  0  0  0  0  0  0  0  0  0  0
   24.6247   -8.2129  -16.9939 C   0  0  0  0  0  0  0  0  0  0  0  0
   24.5109   -7.5914  -15.9251 O   0  0  0  0  0  0  0  0  0  0  0  0
   21.8060   -7.5052  -16.6744 C   0  0  0  0  0  0  0  0  0  0  0  0
   21.6813   -6.9799  -17.8081 O   0  0  0  0  0  0  0  0  0  0  0  0
   25.7519   -8.0521  -17.7623 O   0  0  0  0  0  0  0  0  0  0  0  0
   21.4874   -6.7404  -15.5356 N   0  0  0  0  0  0  0  0  0  0  0  0
   21.0933   -5.3270  -15.6584 C   0  0  1  0  0  0  0  0  0  0  0  0
   19.6104   -5.2107  -15.4144 C   0  0  0  0  0  0  0  0  0  0  0  0
   19.1384   -3.8402  -15.4778 C   0  0  0  0  0  0  0  0  0  0  0  0
   19.6617   -3.0466  -16.3214 O   0  0  0  0  0  0  0  0  0  0  0  0
   21.7756   -4.6142  -14.5232 C   0  0  0  0  0  0  0  0  0  0  0  0
   22.4034   -5.2259  -13.6183 O   0  0  0  0  0  0  0  0  0  0  0  0
   18.1387   -3.3787  -14.6448 O   0  0  0  0  0  0  0  0  0  0  0  0
   21.7073   -3.2438  -14.4789 O   0  0  0  0  0  0  0  0  0  0  0  0
  2  1  1  6
  2  6  1  0
  3  2  1  0
  4  3  1  0
  5  4  2  0
  6  7  2  0
  8  4  1  0
  9  6  1  0
  9 10  1  0
 10 14  1  0
 10 11  1  6
 12 11  1  0
 13 12  2  0
 14 17  1  0
 15 14  2  0
 16 12  1  0
 17 18  1  0
 18 19  1  1
 19 20  1  0
 20 24  1  0
 21 20  2  0
 22 25  1  0
 22 18  1  0
 23 22  2  0
M  END
$$$$
