REA.pdb
     RDKit          3D

 26 25  0  0  1  0  0  0  0  0999 V2000
    7.3214  -14.7351   17.9659 N   0  0  0  0  0  0  0  0  0  0  0  0
    7.7201  -13.4488   17.5209 C   0  0  0  0  0  0  0  0  0  0  0  0
    7.2444  -13.0140   16.4017 N   0  0  0  0  0  0  0  0  0  0  0  0
    8.6259  -12.6340   18.2765 N   0  0  0  0  0  0  0  0  0  0  0  0
    9.3220  -13.1813   19.4388 C   0  0  0  0  0  0  0  0  0  0  0  0
   10.3376  -14.1794   19.0083 C   0  0  0  0  0  0  0  0  0  0  0  0
   11.7555  -13.8261   19.2417 C   0  0  0  0  0  0  0  0  0  0  0  0
   12.7801  -14.8143   18.7999 C   0  0  2  0  0  0  0  0  0  0  0  0
   12.3997  -15.2974   17.4674 N   0  0  0  0  0  0  0  0  0  0  0  0
   12.6501  -16.0048   19.7162 C   0  0  0  0  0  0  0  0  0  0  0  0
   11.5367  -16.5930   19.8257 O   0  0  0  0  0  0  0  0  0  0  0  0
    7.4894  -12.0852   15.9862 N   0  0  0  0  0  0  0  0  0  0  0  0
   13.7579  -16.4640   20.4481 C   0  0  1  0  0  0  0  0  0  0  0  0
   13.7254  -17.6533   21.3234 C   0  0  0  0  0  0  0  0  0  0  0  0
   15.1381  -18.2053   21.4162 C   0  0  0  0  0  0  0  0  0  0  0  0
   15.3014  -19.3861   22.3089 C   0  0  0  0  0  0  0  0  0  0  0  0
   16.7817  -19.7223   22.2783 O   0  0  0  0  0  0  0  0  0  0  0  0
   17.3136  -20.4577   23.1251 C   0  0  0  0  0  0  0  0  0  0  0  0
   13.1384  -17.2471   22.5913 O   0  0  0  0  0  0  0  0  0  0  0  0
   13.5727  -16.2189   23.2187 O   0  0  0  0  0  0  0  0  0  0  0  0
   17.5664  -19.1875   21.2669 C   0  0  0  0  0  0  0  0  0  0  0  0
   10.0457  -17.2351   24.4746 C   0  0  2  0  0  0  0  0  0  0  0  0
   11.5220  -17.4496   24.5400 N   0  0  0  0  0  0  0  0  0  0  0  0
   12.0587  -17.9059   23.2601 C   0  0  0  0  0  0  0  0  0  0  0  0
   11.9464  -18.3667   25.6319 O   0  0  0  0  0  0  0  0  0  0  0  0
   12.6539  -19.4992   25.3070 O   0  0  0  0  0  0  0  0  0  0  0  0
  2  3  2  0
  2  1  1  0
  4  2  1  0
  5  4  1  0
  6  5  1  0
  7  6  1  0
  8 10  1  0
  8  7  1  0
  8  9  1  6
 10 11  2  0
 12 10  1  0
 12 13  1  0
 13 14  1  1
 15 14  1  0
 15 16  1  0
 16 17  2  0
 18 23  1  0
 18 13  1  0
 19 18  2  0
 20 16  1  0
 22 21  1  6
 22 24  1  0
 22 23  1  0
 24 25  1  0
 26 24  2  0
M  END
$$$$
