REA.pdb
     RDKit          3D

 26 25  0  0  1  0  0  0  0  0999 V2000
    7.9656  -13.7251   14.8614 N   0  0  0  0  0  0  0  0  0  0  0  0
    8.3563  -14.2956   16.0998 C   0  0  0  0  0  0  0  0  0  0  0  0
    9.3419  -15.1302   16.1050 N   0  0  0  0  0  0  0  0  0  0  0  0
    7.6903  -13.9694   17.3266 N   0  0  0  0  0  0  0  0  0  0  0  0
    8.4431  -13.4355   18.4595 C   0  0  0  0  0  0  0  0  0  0  0  0
    7.5324  -13.1755   19.6067 C   0  0  0  0  0  0  0  0  0  0  0  0
    7.4818  -14.2119   20.6617 C   0  0  0  0  0  0  0  0  0  0  0  0
    8.4992  -15.2988   20.5910 C   0  0  2  0  0  0  0  0  0  0  0  0
    7.9922  -16.3368   19.6860 N   0  0  0  0  0  0  0  0  0  0  0  0
    8.5412  -15.9356   21.9572 C   0  0  0  0  0  0  0  0  0  0  0  0
    7.5181  -16.5280   22.4044 O   0  0  0  0  0  0  0  0  0  0  0  0
    9.7440  -15.5514   16.9747 N   0  0  0  0  0  0  0  0  0  0  0  0
    9.7093  -15.8750   22.7353 C   0  0  1  0  0  0  0  0  0  0  0  0
    9.8309  -16.4770   24.0786 C   0  0  0  0  0  0  0  0  0  0  0  0
   10.9886  -17.4608   24.0480 C   0  0  0  0  0  0  0  0  0  0  0  0
   11.9966  -17.2227   22.9779 C   0  0  0  0  0  0  0  0  0  0  0  0
   13.0257  -18.3286   23.1299 O   0  0  0  0  0  0  0  0  0  0  0  0
   12.9483  -19.1906   24.0197 C   0  0  0  0  0  0  0  0  0  0  0  0
    9.9727  -15.3888   25.0341 O   0  0  0  0  0  0  0  0  0  0  0  0
   10.7848  -14.4231   24.8167 O   0  0  0  0  0  0  0  0  0  0  0  0
   14.0902  -18.3759   22.2414 C   0  0  0  0  0  0  0  0  0  0  0  0
    8.4000  -13.3185   27.4739 C   0  0  2  0  0  0  0  0  0  0  0  0
    9.5613  -14.2320   27.2576 N   0  0  0  0  0  0  0  0  0  0  0  0
    9.2597  -15.2640   26.2683 C   0  0  0  0  0  0  0  0  0  0  0  0
   10.0762  -14.8528   28.5077 O   0  0  0  0  0  0  0  0  0  0  0  0
   10.5575  -14.0357   29.5024 O   0  0  0  0  0  0  0  0  0  0  0  0
  2  3  2  0
  2  1  1  0
  4  2  1  0
  5  4  1  0
  6  5  1  0
  7  6  1  0
  8 10  1  0
  8  7  1  0
  8  9  1  6
 10 11  2  0
 12 10  1  0
 12 13  1  0
 13 14  1  6
 15 14  1  0
 15 16  1  0
 16 17  2  0
 18 23  1  0
 18 13  1  0
 19 18  2  0
 20 16  1  0
 22 21  1  6
 22 24  1  0
 22 23  1  0
 24 25  1  0
 26 24  2  0
M  END
$$$$
