REA.pdb
     RDKit          3D

 26 25  0  0  1  0  0  0  0  0999 V2000
    8.0467  -11.9536   19.6458 N   0  0  0  0  0  0  0  0  0  0  0  0
    9.1619  -12.8061   19.4429 C   0  0  0  0  0  0  0  0  0  0  0  0
   10.3442  -12.2885   19.4901 N   0  0  0  0  0  0  0  0  0  0  0  0
    9.0060  -14.2087   19.1910 N   0  0  0  0  0  0  0  0  0  0  0  0
    7.7465  -14.8820   19.5001 C   0  0  0  0  0  0  0  0  0  0  0  0
    7.4547  -14.7861   20.9557 C   0  0  0  0  0  0  0  0  0  0  0  0
    6.3605  -15.6391   21.4705 C   0  0  0  0  0  0  0  0  0  0  0  0
    6.7001  -17.0549   21.7898 C   0  0  2  0  0  0  0  0  0  0  0  0
    5.4729  -17.8519   21.6791 N   0  0  0  0  0  0  0  0  0  0  0  0
    7.0751  -17.0865   23.2499 C   0  0  0  0  0  0  0  0  0  0  0  0
    6.2027  -16.8270   24.1270 O   0  0  0  0  0  0  0  0  0  0  0  0
   11.2268  -12.8418   19.3887 N   0  0  0  0  0  0  0  0  0  0  0  0
    8.3868  -17.4026   23.6413 C   0  0  2  0  0  0  0  0  0  0  0  0
    8.8542  -17.3695   25.0421 C   0  0  0  0  0  0  0  0  0  0  0  0
    9.9350  -18.4258   25.2004 C   0  0  0  0  0  0  0  0  0  0  0  0
   10.5643  -18.4938   26.5484 C   0  0  0  0  0  0  0  0  0  0  0  0
   11.6413  -19.5591   26.4455 O   0  0  0  0  0  0  0  0  0  0  0  0
   11.8083  -20.2381   25.4200 C   0  0  0  0  0  0  0  0  0  0  0  0
    9.2775  -16.0074   25.3296 O   0  0  0  0  0  0  0  0  0  0  0  0
   10.1284  -15.4106   24.5820 O   0  0  0  0  0  0  0  0  0  0  0  0
   12.4675  -19.7801   27.5379 C   0  0  0  0  0  0  0  0  0  0  0  0
    8.5227  -12.8103   26.8188 C   0  0  1  0  0  0  0  0  0  0  0  0
    9.4745  -13.9609   26.8210 N   0  0  0  0  0  0  0  0  0  0  0  0
    8.8197  -15.2044   26.4218 C   0  0  0  0  0  0  0  0  0  0  0  0
   10.1868  -14.1469   28.1139 O   0  0  0  0  0  0  0  0  0  0  0  0
   10.9797  -13.1280   28.5848 O   0  0  0  0  0  0  0  0  0  0  0  0
  2  3  2  0
  2  1  1  0
  4  2  1  0
  5  4  1  0
  6  5  1  0
  7  6  1  0
  8 10  1  0
  8  7  1  0
  8  9  1  1
 10 11  2  0
 12 10  1  0
 12 13  1  0
 13 14  1  6
 15 14  1  0
 15 16  1  0
 16 17  2  0
 18 23  1  0
 18 13  1  0
 19 18  2  0
 20 16  1  0
 22 21  1  6
 22 24  1  0
 22 23  1  0
 24 25  1  0
 26 24  2  0
M  END
$$$$
