REA.pdb
     RDKit          3D

 26 25  0  0  1  0  0  0  0  0999 V2000
    9.0721  -11.9730   18.5005 N   0  0  0  0  0  0  0  0  0  0  0  0
    9.6987  -13.1174   19.0566 C   0  0  0  0  0  0  0  0  0  0  0  0
   10.9878  -13.1873   19.0203 N   0  0  0  0  0  0  0  0  0  0  0  0
    8.9423  -14.1812   19.6493 N   0  0  0  0  0  0  0  0  0  0  0  0
    7.4844  -14.1078   19.7135 C   0  0  0  0  0  0  0  0  0  0  0  0
    7.0459  -13.7672   21.0936 C   0  0  0  0  0  0  0  0  0  0  0  0
    6.7550  -14.9030   21.9965 C   0  0  0  0  0  0  0  0  0  0  0  0
    7.6224  -16.1082   21.8680 C   0  0  2  0  0  0  0  0  0  0  0  0
    6.8210  -17.1825   21.2704 N   0  0  0  0  0  0  0  0  0  0  0  0
    7.9321  -16.5646   23.2713 C   0  0  0  0  0  0  0  0  0  0  0  0
    6.9891  -16.8943   24.0458 O   0  0  0  0  0  0  0  0  0  0  0  0
   11.5395  -13.9826   19.4183 N   0  0  0  0  0  0  0  0  0  0  0  0
    9.2609  -16.6259   23.7230 C   0  0  2  0  0  0  0  0  0  0  0  0
    9.6452  -17.0602   25.0815 C   0  0  0  0  0  0  0  0  0  0  0  0
   10.8408  -17.9896   24.9556 C   0  0  0  0  0  0  0  0  0  0  0  0
   10.5902  -19.2483   24.2002 C   0  0  0  0  0  0  0  0  0  0  0  0
   11.9406  -19.9321   24.0821 O   0  0  0  0  0  0  0  0  0  0  0  0
   12.4034  -20.3053   22.9925 C   0  0  0  0  0  0  0  0  0  0  0  0
    9.8772  -15.8623   25.8742 O   0  0  0  0  0  0  0  0  0  0  0  0
   10.8311  -15.0578   25.5880 O   0  0  0  0  0  0  0  0  0  0  0  0
   12.6826  -20.1467   25.2346 C   0  0  0  0  0  0  0  0  0  0  0  0
    8.4138  -13.5085   28.3205 C   0  0  1  0  0  0  0  0  0  0  0  0
    9.5456  -14.3977   27.9227 N   0  0  0  0  0  0  0  0  0  0  0  0
    9.1094  -15.4514   27.0095 C   0  0  0  0  0  0  0  0  0  0  0  0
   10.2784  -14.9870   29.0755 O   0  0  0  0  0  0  0  0  0  0  0  0
   10.9740  -14.1501   29.9147 O   0  0  0  0  0  0  0  0  0  0  0  0
  2  3  2  0
  2  1  1  0
  4  2  1  0
  5  4  1  0
  6  5  1  0
  7  6  1  0
  8 10  1  0
  8  7  1  0
  8  9  1  6
 10 11  2  0
 12 10  1  0
 12 13  1  0
 13 14  1  6
 15 14  1  0
 15 16  1  0
 16 17  2  0
 18 23  1  0
 18 13  1  0
 19 18  2  0
 20 16  1  0
 22 21  1  6
 22 24  1  0
 22 23  1  0
 24 25  1  0
 26 24  2  0
M  END
$$$$
