REA.pdb
     RDKit          3D

 26 25  0  0  1  0  0  0  0  0999 V2000
    8.9167  -11.8675   19.3639 N   0  0  0  0  0  0  0  0  0  0  0  0
    7.7909  -12.6345   18.9688 C   0  0  0  0  0  0  0  0  0  0  0  0
    7.5590  -12.7751   17.7061 N   0  0  0  0  0  0  0  0  0  0  0  0
    6.9191  -13.2476   19.9275 N   0  0  0  0  0  0  0  0  0  0  0  0
    7.4610  -14.0975   20.9854 C   0  0  0  0  0  0  0  0  0  0  0  0
    7.5856  -15.5003   20.5062 C   0  0  0  0  0  0  0  0  0  0  0  0
    8.1108  -16.4880   21.4749 C   0  0  0  0  0  0  0  0  0  0  0  0
    9.2046  -17.3832   21.0019 C   0  0  2  0  0  0  0  0  0  0  0  0
    8.5980  -18.6394   20.5465 N   0  0  0  0  0  0  0  0  0  0  0  0
   10.0198  -17.7430   22.2184 C   0  0  0  0  0  0  0  0  0  0  0  0
    9.6834  -18.7334   22.9279 O   0  0  0  0  0  0  0  0  0  0  0  0
    6.7343  -13.2903   17.3191 N   0  0  0  0  0  0  0  0  0  0  0  0
   11.1500  -16.9851   22.5675 C   0  0  2  0  0  0  0  0  0  0  0  0
   11.9850  -17.2588   23.7548 C   0  0  0  0  0  0  0  0  0  0  0  0
   13.2424  -16.4122   23.6485 C   0  0  0  0  0  0  0  0  0  0  0  0
   14.2230  -16.8575   22.6200 C   0  0  0  0  0  0  0  0  0  0  0  0
   15.3469  -15.8373   22.6554 O   0  0  0  0  0  0  0  0  0  0  0  0
   16.0755  -15.6855   23.6488 C   0  0  0  0  0  0  0  0  0  0  0  0
   11.1684  -17.0036   24.9318 O   0  0  0  0  0  0  0  0  0  0  0  0
   10.8774  -15.8077   25.2847 O   0  0  0  0  0  0  0  0  0  0  0  0
   15.5660  -15.0472   21.5362 C   0  0  0  0  0  0  0  0  0  0  0  0
    8.5136  -18.3596   26.9934 C   0  0  2  0  0  0  0  0  0  0  0  0
    9.8402  -17.6741   26.9903 N   0  0  0  0  0  0  0  0  0  0  0  0
   10.6142  -18.0009   25.7951 C   0  0  0  0  0  0  0  0  0  0  0  0
   10.6492  -17.9289   28.2125 O   0  0  0  0  0  0  0  0  0  0  0  0
   10.1739  -17.4877   29.4242 O   0  0  0  0  0  0  0  0  0  0  0  0
  2  3  2  0
  2  1  1  0
  4  2  1  0
  5  4  1  0
  6  5  1  0
  7  6  1  0
  8 10  1  0
  8  7  1  0
  8  9  1  1
 10 11  2  0
 12 10  1  0
 12 13  1  0
 13 14  1  6
 15 14  1  0
 15 16  1  0
 16 17  2  0
 18 23  1  0
 18 13  1  0
 19 18  2  0
 20 16  1  0
 22 21  1  6
 22 24  1  0
 22 23  1  0
 24 25  1  0
 26 24  2  0
M  END
$$$$
