REA.pdb
     RDKit          3D

 26 25  0  0  1  0  0  0  0  0999 V2000
    9.7490  -13.3120   18.6663 N   0  0  0  0  0  0  0  0  0  0  0  0
    8.4691  -13.5373   18.0982 C   0  0  0  0  0  0  0  0  0  0  0  0
    8.3370  -13.4139   16.8195 N   0  0  0  0  0  0  0  0  0  0  0  0
    7.3369  -13.8940   18.9019 N   0  0  0  0  0  0  0  0  0  0  0  0
    7.4665  -14.0175   20.3521 C   0  0  0  0  0  0  0  0  0  0  0  0
    6.6566  -15.1634   20.8461 C   0  0  0  0  0  0  0  0  0  0  0  0
    7.4043  -16.3531   21.3101 C   0  0  0  0  0  0  0  0  0  0  0  0
    6.6051  -17.4716   21.8861 C   0  0  2  0  0  0  0  0  0  0  0  0
    5.2459  -17.3867   21.3395 N   0  0  0  0  0  0  0  0  0  0  0  0
    6.4691  -17.1859   23.3604 C   0  0  0  0  0  0  0  0  0  0  0  0
    5.5173  -16.4641   23.7738 O   0  0  0  0  0  0  0  0  0  0  0  0
    7.4402  -13.5839   16.3074 N   0  0  0  0  0  0  0  0  0  0  0  0
    7.3924  -17.7167   24.2766 C   0  0  2  0  0  0  0  0  0  0  0  0
    7.3464  -17.4564   25.7298 C   0  0  0  0  0  0  0  0  0  0  0  0
    7.9102  -18.6747   26.4419 C   0  0  0  0  0  0  0  0  0  0  0  0
    8.1102  -18.5170   27.9091 C   0  0  0  0  0  0  0  0  0  0  0  0
    8.6662  -19.8445   28.3928 O   0  0  0  0  0  0  0  0  0  0  0  0
    9.7400  -20.3066   27.9757 C   0  0  0  0  0  0  0  0  0  0  0  0
    8.0628  -16.2139   25.9743 O   0  0  0  0  0  0  0  0  0  0  0  0
    9.2242  -16.0138   25.4740 O   0  0  0  0  0  0  0  0  0  0  0  0
    7.9468  -20.5654   29.3349 C   0  0  0  0  0  0  0  0  0  0  0  0
    7.5871  -12.7354   27.3142 C   0  0  1  0  0  0  0  0  0  0  0  0
    8.4136  -13.9583   27.0882 N   0  0  0  0  0  0  0  0  0  0  0  0
    7.5860  -15.1163   26.7587 C   0  0  0  0  0  0  0  0  0  0  0  0
    9.3252  -14.2826   28.2184 O   0  0  0  0  0  0  0  0  0  0  0  0
   10.3509  -13.4159   28.5105 O   0  0  0  0  0  0  0  0  0  0  0  0
  2  3  2  0
  2  1  1  0
  4  2  1  0
  5  4  1  0
  6  5  1  0
  7  6  1  0
  8 10  1  0
  8  7  1  0
  8  9  1  6
 10 11  2  0
 12 10  1  0
 12 13  1  0
 13 14  1  6
 15 14  1  0
 15 16  1  0
 16 17  2  0
 18 23  1  0
 18 13  1  0
 19 18  2  0
 20 16  1  0
 22 21  1  6
 22 24  1  0
 22 23  1  0
 24 25  1  0
 26 24  2  0
M  END
$$$$
