REA.pdb
     RDKit          3D

 26 25  0  0  1  0  0  0  0  0999 V2000
    8.1093  -12.6901   17.4619 N   0  0  0  0  0  0  0  0  0  0  0  0
    7.7725  -12.5411   18.8316 C   0  0  0  0  0  0  0  0  0  0  0  0
    8.0946  -11.4399   19.4245 N   0  0  0  0  0  0  0  0  0  0  0  0
    7.0921  -13.5716   19.5598 N   0  0  0  0  0  0  0  0  0  0  0  0
    7.8243  -14.4309   20.4875 C   0  0  0  0  0  0  0  0  0  0  0  0
    6.8992  -15.4037   21.1282 C   0  0  0  0  0  0  0  0  0  0  0  0
    7.5101  -16.4044   22.0311 C   0  0  0  0  0  0  0  0  0  0  0  0
    8.4249  -17.4048   21.4114 C   0  0  2  0  0  0  0  0  0  0  0  0
    7.6310  -18.5867   21.0558 N   0  0  0  0  0  0  0  0  0  0  0  0
    9.3641  -17.8586   22.5003 C   0  0  0  0  0  0  0  0  0  0  0  0
    8.9991  -18.7603   23.3075 O   0  0  0  0  0  0  0  0  0  0  0  0
    7.9714  -11.2730   20.4503 N   0  0  0  0  0  0  0  0  0  0  0  0
   10.6412  -17.2863   22.6231 C   0  0  2  0  0  0  0  0  0  0  0  0
   11.6351  -17.7096   23.6304 C   0  0  0  0  0  0  0  0  0  0  0  0
   12.9233  -16.9480   23.3662 C   0  0  0  0  0  0  0  0  0  0  0  0
   14.0029  -17.1583   24.3701 C   0  0  0  0  0  0  0  0  0  0  0  0
   15.1893  -16.3521   23.8721 O   0  0  0  0  0  0  0  0  0  0  0  0
   16.2652  -16.3029   24.4891 C   0  0  0  0  0  0  0  0  0  0  0  0
   11.0479  -17.4896   24.9433 O   0  0  0  0  0  0  0  0  0  0  0  0
   10.5749  -16.3456   25.2699 O   0  0  0  0  0  0  0  0  0  0  0  0
   15.0645  -15.6459   22.6845 C   0  0  0  0  0  0  0  0  0  0  0  0
    8.9420  -18.6749   27.3900 C   0  0  2  0  0  0  0  0  0  0  0  0
   10.3455  -18.1759   27.2858 N   0  0  0  0  0  0  0  0  0  0  0  0
   10.9276  -18.4701   25.9784 C   0  0  0  0  0  0  0  0  0  0  0  0
   11.2386  -18.6685   28.3689 O   0  0  0  0  0  0  0  0  0  0  0  0
   10.9024  -18.4038   29.6749 O   0  0  0  0  0  0  0  0  0  0  0  0
  2  3  2  0
  2  1  1  0
  4  2  1  0
  5  4  1  0
  6  5  1  0
  7  6  1  0
  8 10  1  0
  8  7  1  0
  8  9  1  1
 10 11  2  0
 12 10  1  0
 12 13  1  0
 13 14  1  6
 15 14  1  0
 15 16  1  0
 16 17  2  0
 18 23  1  0
 18 13  1  0
 19 18  2  0
 20 16  1  0
 22 21  1  6
 22 24  1  0
 22 23  1  0
 24 25  1  0
 26 24  2  0
M  END
$$$$
