REA.pdb
     RDKit          3D

 26 25  0  0  1  0  0  0  0  0999 V2000
    7.7890  -11.6553   19.2756 N   0  0  0  0  0  0  0  0  0  0  0  0
    8.7301  -12.6541   18.9177 C   0  0  0  0  0  0  0  0  0  0  0  0
    9.9786  -12.4354   19.1656 N   0  0  0  0  0  0  0  0  0  0  0  0
    8.3301  -13.8827   18.2965 N   0  0  0  0  0  0  0  0  0  0  0  0
    7.1661  -14.6169   18.7874 C   0  0  0  0  0  0  0  0  0  0  0  0
    7.1199  -14.5755   20.2737 C   0  0  0  0  0  0  0  0  0  0  0  0
    7.3177  -15.8609   20.9796 C   0  0  0  0  0  0  0  0  0  0  0  0
    8.1647  -16.8820   20.3003 C   0  0  2  0  0  0  0  0  0  0  0  0
    7.3517  -18.0877   20.1031 N   0  0  0  0  0  0  0  0  0  0  0  0
    9.2380  -17.2720   21.2851 C   0  0  0  0  0  0  0  0  0  0  0  0
    8.9806  -18.1140   22.1921 O   0  0  0  0  0  0  0  0  0  0  0  0
   10.7560  -13.0483   18.8262 N   0  0  0  0  0  0  0  0  0  0  0  0
   10.5211  -16.7062   21.2008 C   0  0  2  0  0  0  0  0  0  0  0  0
   11.6059  -16.9891   22.1625 C   0  0  0  0  0  0  0  0  0  0  0  0
   12.8230  -16.1795   21.7472 C   0  0  0  0  0  0  0  0  0  0  0  0
   13.9690  -16.2226   22.6972 C   0  0  0  0  0  0  0  0  0  0  0  0
   15.0953  -15.4654   22.0165 O   0  0  0  0  0  0  0  0  0  0  0  0
   15.3260  -14.2680   22.2481 C   0  0  0  0  0  0  0  0  0  0  0  0
   11.0970  -16.6971   23.4939 O   0  0  0  0  0  0  0  0  0  0  0  0
   10.8620  -15.4928   23.8597 O   0  0  0  0  0  0  0  0  0  0  0  0
   15.8943  -16.1377   21.1031 C   0  0  0  0  0  0  0  0  0  0  0  0
    9.1694  -17.8680   26.3111 C   0  0  2  0  0  0  0  0  0  0  0  0
   10.4822  -17.2989   25.8837 N   0  0  0  0  0  0  0  0  0  0  0  0
   10.8071  -17.6649   24.5072 C   0  0  0  0  0  0  0  0  0  0  0  0
   11.6100  -17.6487   26.7887 O   0  0  0  0  0  0  0  0  0  0  0  0
   11.5508  -17.2519   28.1032 O   0  0  0  0  0  0  0  0  0  0  0  0
  2  3  2  0
  2  1  1  0
  4  2  1  0
  5  4  1  0
  6  5  1  0
  7  6  1  0
  8 10  1  0
  8  7  1  0
  8  9  1  1
 10 11  2  0
 12 10  1  0
 12 13  1  0
 13 14  1  6
 15 14  1  0
 15 16  1  0
 16 17  2  0
 18 23  1  0
 18 13  1  0
 19 18  2  0
 20 16  1  0
 22 21  1  6
 22 24  1  0
 22 23  1  0
 24 25  1  0
 26 24  2  0
M  END
$$$$
