YYC.pdb
     RDKit          3D

 31 32  0  0  1  0  0  0  0  0999 V2000
   33.1686  -31.8768  -18.0866 O   0  0  0  0  0  0  0  0  0  0  0  0
   31.9478  -31.6928  -17.4832 C   0  0  0  0  0  0  0  0  0  0  0  0
   31.2493  -30.5174  -17.7320 C   0  0  0  0  0  0  0  0  0  0  0  0
   30.0173  -30.3313  -17.1233 C   0  0  0  0  0  0  0  0  0  0  0  0
   29.4471  -31.2708  -16.2740 C   0  0  0  0  0  0  0  0  0  0  0  0
   28.1410  -31.1074  -15.5949 C   0  0  0  0  0  0  0  0  0  0  0  0
   27.1420  -31.9641  -16.3623 C   0  0  2  0  0  0  0  0  0  0  0  0
   26.7515  -31.1219  -17.5169 N   0  0  0  0  0  0  0  0  0  0  0  0
   25.8981  -32.1673  -15.5847 C   0  0  0  0  0  0  0  0  0  0  0  0
   25.0631  -31.2307  -15.5405 O   0  0  0  0  0  0  0  0  0  0  0  0
   30.1941  -32.4095  -16.0745 C   0  0  0  0  0  0  0  0  0  0  0  0
   31.4261  -32.6513  -16.6508 C   0  0  0  0  0  0  0  0  0  0  0  0
   20.8219  -31.5276  -19.1843 O   0  0  0  0  0  0  0  0  0  0  0  0
   21.4128  -32.1539  -18.0818 C   0  0  0  0  0  0  0  0  0  0  0  0
   22.3892  -33.1061  -18.3226 C   0  0  0  0  0  0  0  0  0  0  0  0
   23.0005  -33.7553  -17.2642 C   0  0  0  0  0  0  0  0  0  0  0  0
   22.6592  -33.4775  -15.9704 C   0  0  0  0  0  0  0  0  0  0  0  0
   23.2162  -34.1081  -14.7912 C   0  0  0  0  0  0  0  0  0  0  0  0
   24.3606  -33.4957  -14.0940 C   0  0  2  0  0  0  0  0  0  0  0  0
   25.5516  -33.3359  -14.8705 N   0  0  0  0  0  0  0  0  0  0  0  0
   24.6293  -34.0243  -12.7388 C   0  0  0  0  0  0  0  0  0  0  0  0
   25.7368  -34.5913  -12.5654 O   0  0  0  0  0  0  0  0  0  0  0  0
   21.6695  -32.5092  -15.7611 C   0  0  0  0  0  0  0  0  0  0  0  0
   21.0535  -31.8546  -16.8061 C   0  0  0  0  0  0  0  0  0  0  0  0
   23.7206  -33.9229  -11.6545 N   0  0  0  0  0  0  0  0  0  0  0  0
   23.9380  -34.4504  -10.3503 C   0  0  1  0  0  0  0  0  0  0  0  0
   25.2441  -33.8980   -9.7508 C   0  0  0  0  0  0  0  0  0  0  0  0
   25.3989  -34.5927   -8.0877 S   0  0  0  0  0  0  0  0  0  0  0  0
   22.8155  -34.2646   -9.4196 C   0  0  0  0  0  0  0  0  0  0  0  0
   22.4072  -35.3512   -8.6498 O   0  0  0  0  0  0  0  0  0  0  0  0
   22.1845  -33.1906   -9.2564 O   0  0  0  0  0  0  0  0  0  0  0  0
  2  3  2  0
  2  1  1  0
  4  3  1  0
  5  4  2  0
  6  5  1  0
  7  6  1  0
  7  8  1  6
  9  7  1  0
  9 10  2  0
 11  5  1  0
 11 12  2  0
 12  2  1  0
 13 14  1  0
 14 15  2  0
 15 16  1  0
 17 16  2  0
 17 18  1  0
 19 18  1  6
 19 20  1  0
 20  9  1  0
 21 19  1  0
 22 21  2  0
 23 17  1  0
 24 14  1  0
 24 23  2  0
 25 21  1  0
 26 25  1  0
 26 27  1  1
 27 28  1  0
 29 30  1  0
 29 26  1  0
 31 29  2  0
M  END
$$$$
