YYC.pdb
     RDKit          3D

 31 32  0  0  1  0  0  0  0  0999 V2000
   32.3332   -8.5366  -18.2367 O   0  0  0  0  0  0  0  0  0  0  0  0
   30.9804   -8.5861  -18.0007 C   0  0  0  0  0  0  0  0  0  0  0  0
   30.4308   -9.7623  -17.5048 C   0  0  0  0  0  0  0  0  0  0  0  0
   29.0657   -9.8128  -17.2665 C   0  0  0  0  0  0  0  0  0  0  0  0
   28.2197   -8.7363  -17.5008 C   0  0  0  0  0  0  0  0  0  0  0  0
   26.7565   -8.7511  -17.2715 C   0  0  0  0  0  0  0  0  0  0  0  0
   26.2160   -9.9788  -17.9936 C   0  0  2  0  0  0  0  0  0  0  0  0
   26.3098   -9.6272  -19.4298 N   0  0  0  0  0  0  0  0  0  0  0  0
   24.7712  -10.1668  -17.7279 C   0  0  0  0  0  0  0  0  0  0  0  0
   23.9530   -9.4352  -18.3375 O   0  0  0  0  0  0  0  0  0  0  0  0
   28.8329   -7.6056  -17.9905 C   0  0  0  0  0  0  0  0  0  0  0  0
   30.1854   -7.4952  -18.2489 C   0  0  0  0  0  0  0  0  0  0  0  0
   16.8433  -13.4665  -15.4105 O   0  0  0  0  0  0  0  0  0  0  0  0
   18.2024  -13.2625  -15.6709 C   0  0  0  0  0  0  0  0  0  0  0  0
   19.0818  -13.3063  -14.6019 C   0  0  0  0  0  0  0  0  0  0  0  0
   20.4355  -13.1071  -14.8090 C   0  0  0  0  0  0  0  0  0  0  0  0
   20.9327  -12.8637  -16.0586 C   0  0  0  0  0  0  0  0  0  0  0  0
   22.3225  -12.6210  -16.3870 C   0  0  0  0  0  0  0  0  0  0  0  0
   22.8126  -11.2427  -16.5630 C   0  0  2  0  0  0  0  0  0  0  0  0
   24.2106  -11.1075  -16.8354 N   0  0  0  0  0  0  0  0  0  0  0  0
   22.3297  -10.2691  -15.5595 C   0  0  0  0  0  0  0  0  0  0  0  0
   22.9735  -10.2047  -14.4827 O   0  0  0  0  0  0  0  0  0  0  0  0
   20.0176  -12.8269  -17.1178 C   0  0  0  0  0  0  0  0  0  0  0  0
   18.6671  -13.0245  -16.9253 C   0  0  0  0  0  0  0  0  0  0  0  0
   21.2050   -9.4264  -15.7508 N   0  0  0  0  0  0  0  0  0  0  0  0
   20.7344   -8.4618  -14.8155 C   0  0  1  0  0  0  0  0  0  0  0  0
   21.6220   -7.2041  -14.8382 C   0  0  0  0  0  0  0  0  0  0  0  0
   21.2464   -6.3183  -16.3701 S   0  0  0  0  0  0  0  0  0  0  0  0
   19.3166   -8.1043  -14.9654 C   0  0  0  0  0  0  0  0  0  0  0  0
   18.7377   -7.2766  -14.0062 O   0  0  0  0  0  0  0  0  0  0  0  0
   18.5715   -8.4873  -15.9016 O   0  0  0  0  0  0  0  0  0  0  0  0
  2  3  2  0
  2  1  1  0
  4  3  1  0
  5  4  2  0
  6  5  1  0
  7  6  1  0
  7  8  1  6
  9  7  1  0
  9 10  2  0
 11  5  1  0
 11 12  2  0
 12  2  1  0
 13 14  1  0
 14 15  2  0
 15 16  1  0
 17 16  2  0
 17 18  1  0
 19 18  1  1
 19 20  1  0
 20  9  1  0
 21 19  1  0
 22 21  2  0
 23 17  1  0
 24 14  1  0
 24 23  2  0
 25 21  1  0
 26 25  1  0
 26 27  1  6
 27 28  1  0
 29 30  1  0
 29 26  1  0
 31 29  2  0
M  END
$$$$
