YYC.pdb
     RDKit          3D

 31 32  0  0  1  0  0  0  0  0999 V2000
   18.0397  -15.5650  -22.8096 O   0  0  0  0  0  0  0  0  0  0  0  0
   18.5008  -14.6856  -21.8596 C   0  0  0  0  0  0  0  0  0  0  0  0
   18.4641  -13.3239  -22.1351 C   0  0  0  0  0  0  0  0  0  0  0  0
   18.9293  -12.4361  -21.1767 C   0  0  0  0  0  0  0  0  0  0  0  0
   19.4310  -12.8480  -19.9487 C   0  0  0  0  0  0  0  0  0  0  0  0
   19.9481  -11.9356  -18.9028 C   0  0  0  0  0  0  0  0  0  0  0  0
   21.3558  -11.5391  -19.3293 C   0  0  2  0  0  0  0  0  0  0  0  0
   22.1940  -12.6969  -18.9397 N   0  0  0  0  0  0  0  0  0  0  0  0
   21.8603  -10.4004  -18.5279 C   0  0  0  0  0  0  0  0  0  0  0  0
   22.1869  -10.6103  -17.3339 O   0  0  0  0  0  0  0  0  0  0  0  0
   19.4361  -14.2091  -19.7451 C   0  0  0  0  0  0  0  0  0  0  0  0
   18.9881  -15.1417  -20.6604 C   0  0  0  0  0  0  0  0  0  0  0  0
   24.5303   -2.0211  -16.5499 O   0  0  0  0  0  0  0  0  0  0  0  0
   24.2069   -3.2481  -17.1387 C   0  0  0  0  0  0  0  0  0  0  0  0
   25.0752   -4.3096  -16.9454 C   0  0  0  0  0  0  0  0  0  0  0  0
   24.7998   -5.5424  -17.5108 C   0  0  0  0  0  0  0  0  0  0  0  0
   23.6783   -5.7407  -18.2662 C   0  0  0  0  0  0  0  0  0  0  0  0
   23.3028   -6.9775  -18.9202 C   0  0  0  0  0  0  0  0  0  0  0  0
   22.5157   -7.9900  -18.1947 C   0  0  2  0  0  0  0  0  0  0  0  0
   22.0121   -9.0719  -18.9838 N   0  0  0  0  0  0  0  0  0  0  0  0
   21.5080   -7.4509  -17.2555 C   0  0  0  0  0  0  0  0  0  0  0  0
   20.3847   -7.1642  -17.7392 O   0  0  0  0  0  0  0  0  0  0  0  0
   22.8206   -4.6477  -18.4414 C   0  0  0  0  0  0  0  0  0  0  0  0
   23.0826   -3.4150  -17.8832 C   0  0  0  0  0  0  0  0  0  0  0  0
   21.7433   -7.2489  -15.8715 N   0  0  0  0  0  0  0  0  0  0  0  0
   20.8271   -6.6475  -14.9631 C   0  0  1  0  0  0  0  0  0  0  0  0
   20.3356   -7.6744  -13.9266 C   0  0  0  0  0  0  0  0  0  0  0  0
   21.7527   -8.0933  -12.8830 S   0  0  0  0  0  0  0  0  0  0  0  0
   21.3281   -5.4346  -14.3009 C   0  0  0  0  0  0  0  0  0  0  0  0
   20.4137   -4.6107  -13.6489 O   0  0  0  0  0  0  0  0  0  0  0  0
   22.5310   -5.0736  -14.2719 O   0  0  0  0  0  0  0  0  0  0  0  0
  2  3  2  0
  2  1  1  0
  4  3  1  0
  5  4  2  0
  6  5  1  0
  7  6  1  0
  7  8  1  1
  9  7  1  0
  9 10  2  0
 11  5  1  0
 11 12  2  0
 12  2  1  0
 13 14  1  0
 14 15  2  0
 15 16  1  0
 17 16  2  0
 17 18  1  0
 19 18  1  6
 19 20  1  0
 20  9  1  0
 21 19  1  0
 22 21  2  0
 23 17  1  0
 24 14  1  0
 24 23  2  0
 25 21  1  0
 26 25  1  0
 26 27  1  1
 27 28  1  0
 29 30  1  0
 29 26  1  0
 31 29  2  0
M  END
$$$$
