YYC.pdb
     RDKit          3D

 31 32  0  0  1  0  0  0  0  0999 V2000
   23.7344  -17.0096  -22.1319 O   0  0  0  0  0  0  0  0  0  0  0  0
   23.6999  -17.7139  -20.9524 C   0  0  0  0  0  0  0  0  0  0  0  0
   23.6537  -19.1019  -21.0035 C   0  0  0  0  0  0  0  0  0  0  0  0
   23.6189  -19.8129  -19.8135 C   0  0  0  0  0  0  0  0  0  0  0  0
   23.6296  -19.1981  -18.5679 C   0  0  0  0  0  0  0  0  0  0  0  0
   23.5818  -19.9180  -17.2744 C   0  0  0  0  0  0  0  0  0  0  0  0
   25.0117  -20.3368  -16.9571 C   0  0  2  0  0  0  0  0  0  0  0  0
   25.2086  -21.5806  -17.7375 N   0  0  0  0  0  0  0  0  0  0  0  0
   25.1534  -20.7358  -15.5379 C   0  0  0  0  0  0  0  0  0  0  0  0
   24.5364  -21.7548  -15.1409 O   0  0  0  0  0  0  0  0  0  0  0  0
   23.6767  -17.8229  -18.5942 C   0  0  0  0  0  0  0  0  0  0  0  0
   23.7116  -17.0603  -19.7456 C   0  0  0  0  0  0  0  0  0  0  0  0
   27.0517  -20.4697   -6.7801 O   0  0  0  0  0  0  0  0  0  0  0  0
   27.0519  -20.3030   -8.1689 C   0  0  0  0  0  0  0  0  0  0  0  0
   26.3750  -19.2140   -8.6920 C   0  0  0  0  0  0  0  0  0  0  0  0
   26.3441  -19.0087  -10.0603 C   0  0  0  0  0  0  0  0  0  0  0  0
   26.9722  -19.8659  -10.9196 C   0  0  0  0  0  0  0  0  0  0  0  0
   26.9874  -19.7603  -12.3643 C   0  0  0  0  0  0  0  0  0  0  0  0
   25.8931  -20.3417  -13.1613 C   0  0  2  0  0  0  0  0  0  0  0  0
   25.9297  -20.0676  -14.5650 N   0  0  0  0  0  0  0  0  0  0  0  0
   24.5403  -20.1845  -12.5839 C   0  0  0  0  0  0  0  0  0  0  0  0
   23.9581  -19.0933  -12.8039 O   0  0  0  0  0  0  0  0  0  0  0  0
   27.6486  -20.9563  -10.3588 C   0  0  0  0  0  0  0  0  0  0  0  0
   27.6878  -21.1717   -8.9979 C   0  0  0  0  0  0  0  0  0  0  0  0
   23.8865  -21.1810  -11.8152 N   0  0  0  0  0  0  0  0  0  0  0  0
   22.6582  -21.0043  -11.1176 C   0  0  1  0  0  0  0  0  0  0  0  0
   21.5879  -21.9770  -11.6456 C   0  0  0  0  0  0  0  0  0  0  0  0
   21.2460  -21.5088  -13.3593 S   0  0  0  0  0  0  0  0  0  0  0  0
   22.7671  -21.0903   -9.6543 C   0  0  0  0  0  0  0  0  0  0  0  0
   21.6388  -20.8053   -8.8888 O   0  0  0  0  0  0  0  0  0  0  0  0
   23.8082  -21.4057   -9.0261 O   0  0  0  0  0  0  0  0  0  0  0  0
  2  3  2  0
  2  1  1  0
  4  3  1  0
  5  4  2  0
  6  5  1  0
  7  6  1  0
  7  8  1  6
  9  7  1  0
  9 10  2  0
 11  5  1  0
 11 12  2  0
 12  2  1  0
 13 14  1  0
 14 15  2  0
 15 16  1  0
 17 16  2  0
 17 18  1  0
 19 18  1  1
 19 20  1  0
 20  9  1  0
 21 19  1  0
 22 21  2  0
 23 17  1  0
 24 14  1  0
 24 23  2  0
 25 21  1  0
 26 25  1  0
 26 27  1  6
 27 28  1  0
 29 30  1  0
 29 26  1  0
 31 29  2  0
M  END
$$$$
