YYC.pdb
     RDKit          3D

 31 32  0  0  1  0  0  0  0  0999 V2000
   22.6833  -12.8307  -23.0051 O   0  0  0  0  0  0  0  0  0  0  0  0
   22.1570  -11.9916  -22.0525 C   0  0  0  0  0  0  0  0  0  0  0  0
   22.9887  -11.5199  -21.0440 C   0  0  0  0  0  0  0  0  0  0  0  0
   22.4582  -10.6731  -20.0825 C   0  0  0  0  0  0  0  0  0  0  0  0
   21.1283  -10.2724  -20.0828 C   0  0  0  0  0  0  0  0  0  0  0  0
   20.5186   -9.3800  -19.0701 C   0  0  0  0  0  0  0  0  0  0  0  0
   20.6288  -10.1012  -17.7328 C   0  0  2  0  0  0  0  0  0  0  0  0
   19.6417  -11.2017  -17.8300 N   0  0  0  0  0  0  0  0  0  0  0  0
   20.1566   -9.2461  -16.6196 C   0  0  0  0  0  0  0  0  0  0  0  0
   18.9198   -9.1457  -16.4285 O   0  0  0  0  0  0  0  0  0  0  0  0
   20.3648  -10.7774  -21.1107 C   0  0  0  0  0  0  0  0  0  0  0  0
   20.8353  -11.6244  -22.0954 C   0  0  0  0  0  0  0  0  0  0  0  0
   19.7202   -4.8938   -8.8371 O   0  0  0  0  0  0  0  0  0  0  0  0
   20.1221   -5.5780   -9.9891 C   0  0  0  0  0  0  0  0  0  0  0  0
   19.7918   -6.9186  -10.0962 C   0  0  0  0  0  0  0  0  0  0  0  0
   20.1703   -7.6387  -11.2158 C   0  0  0  0  0  0  0  0  0  0  0  0
   20.8722   -7.0523  -12.2313 C   0  0  0  0  0  0  0  0  0  0  0  0
   21.3363   -7.7123  -13.4344 C   0  0  0  0  0  0  0  0  0  0  0  0
   20.5001   -7.7150  -14.6476 C   0  0  2  0  0  0  0  0  0  0  0  0
   20.9784   -8.5147  -15.7332 N   0  0  0  0  0  0  0  0  0  0  0  0
   20.0204   -6.3860  -15.0854 C   0  0  0  0  0  0  0  0  0  0  0  0
   20.8058   -5.7104  -15.7960 O   0  0  0  0  0  0  0  0  0  0  0  0
   21.1893   -5.6954  -12.0928 C   0  0  0  0  0  0  0  0  0  0  0  0
   20.8177   -4.9666  -10.9834 C   0  0  0  0  0  0  0  0  0  0  0  0
   18.7494   -5.8530  -14.7510 N   0  0  0  0  0  0  0  0  0  0  0  0
   18.2851   -4.5550  -15.1061 C   0  0  1  0  0  0  0  0  0  0  0  0
   16.7714   -4.5766  -15.3864 C   0  0  0  0  0  0  0  0  0  0  0  0
   16.2969   -2.8969  -15.8621 S   0  0  0  0  0  0  0  0  0  0  0  0
   18.6236   -3.4985  -14.1419 C   0  0  0  0  0  0  0  0  0  0  0  0
   19.4298   -2.4460  -14.5691 O   0  0  0  0  0  0  0  0  0  0  0  0
   18.2395   -3.4635  -12.9463 O   0  0  0  0  0  0  0  0  0  0  0  0
  2  3  2  0
  2  1  1  0
  4  3  1  0
  5  4  2  0
  6  5  1  0
  7  6  1  0
  7  8  1  6
  9  7  1  0
  9 10  2  0
 11  5  1  0
 11 12  2  0
 12  2  1  0
 13 14  1  0
 14 15  2  0
 15 16  1  0
 17 16  2  0
 17 18  1  0
 19 18  1  1
 19 20  1  0
 20  9  1  0
 21 19  1  0
 22 21  2  0
 23 17  1  0
 24 14  1  0
 24 23  2  0
 25 21  1  0
 26 25  1  0
 26 27  1  1
 27 28  1  0
 29 30  1  0
 29 26  1  0
 31 29  2  0
M  END
$$$$
