YYC.pdb
     RDKit          3D

 31 32  0  0  1  0  0  0  0  0999 V2000
   18.4150   -6.9084  -17.6518 O   0  0  0  0  0  0  0  0  0  0  0  0
   17.7493   -8.0672  -17.9722 C   0  0  0  0  0  0  0  0  0  0  0  0
   17.2310   -8.2079  -19.2540 C   0  0  0  0  0  0  0  0  0  0  0  0
   16.5592   -9.3769  -19.5778 C   0  0  0  0  0  0  0  0  0  0  0  0
   16.3814  -10.4182  -18.6759 C   0  0  0  0  0  0  0  0  0  0  0  0
   15.6613  -11.6772  -18.9761 C   0  0  0  0  0  0  0  0  0  0  0  0
   16.7255  -12.7272  -19.2687 C   0  0  2  0  0  0  0  0  0  0  0  0
   17.1313  -12.4547  -20.6673 N   0  0  0  0  0  0  0  0  0  0  0  0
   16.1465  -14.0903  -19.2853 C   0  0  0  0  0  0  0  0  0  0  0  0
   15.7614  -14.5609  -20.3838 O   0  0  0  0  0  0  0  0  0  0  0  0
   16.9212  -10.2097  -17.4271 C   0  0  0  0  0  0  0  0  0  0  0  0
   17.5989   -9.0680  -17.0453 C   0  0  0  0  0  0  0  0  0  0  0  0
   14.2412  -22.5001  -19.5377 O   0  0  0  0  0  0  0  0  0  0  0  0
   14.6616  -21.1686  -19.4533 C   0  0  0  0  0  0  0  0  0  0  0  0
   13.9791  -20.2238  -20.2014 C   0  0  0  0  0  0  0  0  0  0  0  0
   14.3601  -18.8942  -20.1534 C   0  0  0  0  0  0  0  0  0  0  0  0
   15.4077  -18.4851  -19.3770 C   0  0  0  0  0  0  0  0  0  0  0  0
   15.9043  -17.1287  -19.2672 C   0  0  0  0  0  0  0  0  0  0  0  0
   15.4071  -16.2416  -18.2010 C   0  0  2  0  0  0  0  0  0  0  0  0
   15.9793  -14.9309  -18.1623 N   0  0  0  0  0  0  0  0  0  0  0  0
   15.3074  -16.8609  -16.8613 C   0  0  0  0  0  0  0  0  0  0  0  0
   16.3675  -16.9236  -16.1902 O   0  0  0  0  0  0  0  0  0  0  0  0
   16.0760  -19.4647  -18.6322 C   0  0  0  0  0  0  0  0  0  0  0  0
   15.7062  -20.7920  -18.6703 C   0  0  0  0  0  0  0  0  0  0  0  0
   14.1037  -17.3723  -16.3127 N   0  0  0  0  0  0  0  0  0  0  0  0
   13.9953  -18.0590  -15.0704 C   0  0  1  0  0  0  0  0  0  0  0  0
   12.5210  -18.3531  -14.7383 C   0  0  0  0  0  0  0  0  0  0  0  0
   12.4886  -19.1059  -13.0937 S   0  0  0  0  0  0  0  0  0  0  0  0
   14.8073  -19.2803  -14.9728 C   0  0  0  0  0  0  0  0  0  0  0  0
   15.7051  -19.3954  -13.9141 O   0  0  0  0  0  0  0  0  0  0  0  0
   14.7577  -20.2452  -15.7758 O   0  0  0  0  0  0  0  0  0  0  0  0
  2  3  2  0
  2  1  1  0
  4  3  1  0
  5  4  2  0
  6  5  1  0
  7  6  1  0
  7  8  1  6
  9  7  1  0
  9 10  2  0
 11  5  1  0
 11 12  2  0
 12  2  1  0
 13 14  1  0
 14 15  2  0
 15 16  1  0
 17 16  2  0
 17 18  1  0
 19 18  1  6
 19 20  1  0
 20  9  1  0
 21 19  1  0
 22 21  2  0
 23 17  1  0
 24 14  1  0
 24 23  2  0
 25 21  1  0
 26 25  1  0
 26 27  1  6
 27 28  1  0
 29 30  1  0
 29 26  1  0
 31 29  2  0
M  END
$$$$
