YYC.pdb
     RDKit          3D

 31 32  0  0  1  0  0  0  0  0999 V2000
   29.2612  -28.2925  -17.4089 O   0  0  0  0  0  0  0  0  0  0  0  0
   28.2825  -27.3418  -17.2455 C   0  0  0  0  0  0  0  0  0  0  0  0
   28.6536  -26.0601  -16.8571 C   0  0  0  0  0  0  0  0  0  0  0  0
   27.6664  -25.1003  -16.6921 C   0  0  0  0  0  0  0  0  0  0  0  0
   26.3183  -25.3628  -16.8997 C   0  0  0  0  0  0  0  0  0  0  0  0
   25.2318  -24.3718  -16.7238 C   0  0  0  0  0  0  0  0  0  0  0  0
   25.1127  -24.1187  -15.2263 C   0  0  2  0  0  0  0  0  0  0  0  0
   24.3748  -25.2972  -14.7152 N   0  0  0  0  0  0  0  0  0  0  0  0
   24.2404  -22.9555  -14.9447 C   0  0  0  0  0  0  0  0  0  0  0  0
   23.0118  -23.1573  -14.7827 O   0  0  0  0  0  0  0  0  0  0  0  0
   26.0251  -26.6518  -17.2831 C   0  0  0  0  0  0  0  0  0  0  0  0
   26.9628  -27.6502  -17.4623 C   0  0  0  0  0  0  0  0  0  0  0  0
   24.8247  -21.1031   -8.1344 O   0  0  0  0  0  0  0  0  0  0  0  0
   24.7177  -20.7132   -9.4736 C   0  0  0  0  0  0  0  0  0  0  0  0
   23.4562  -20.4246   -9.9667 C   0  0  0  0  0  0  0  0  0  0  0  0
   23.2994  -20.0378  -11.2862 C   0  0  0  0  0  0  0  0  0  0  0  0
   24.3723  -19.9334  -12.1262 C   0  0  0  0  0  0  0  0  0  0  0  0
   24.3226  -19.5594  -13.5247 C   0  0  0  0  0  0  0  0  0  0  0  0
   23.8076  -20.5081  -14.5276 C   0  0  2  0  0  0  0  0  0  0  0  0
   24.6630  -21.6116  -14.8398 N   0  0  0  0  0  0  0  0  0  0  0  0
   23.2104  -19.8901  -15.7315 C   0  0  0  0  0  0  0  0  0  0  0  0
   24.0106  -19.4674  -16.6027 O   0  0  0  0  0  0  0  0  0  0  0  0
   25.6339  -20.2311  -11.5963 C   0  0  0  0  0  0  0  0  0  0  0  0
   25.8040  -20.6166  -10.2839 C   0  0  0  0  0  0  0  0  0  0  0  0
   21.8144  -19.7569  -15.9439 N   0  0  0  0  0  0  0  0  0  0  0  0
   21.2128  -19.0914  -17.0492 C   0  0  1  0  0  0  0  0  0  0  0  0
   20.0234  -19.9045  -17.5919 C   0  0  0  0  0  0  0  0  0  0  0  0
   20.5794  -21.6193  -17.7437 S   0  0  0  0  0  0  0  0  0  0  0  0
   20.8186  -17.7000  -16.7858 C   0  0  0  0  0  0  0  0  0  0  0  0
   20.3484  -16.9327  -17.8489 O   0  0  0  0  0  0  0  0  0  0  0  0
   20.8695  -17.1362  -15.6643 O   0  0  0  0  0  0  0  0  0  0  0  0
  2  3  2  0
  2  1  1  0
  4  3  1  0
  5  4  2  0
  6  5  1  0
  7  6  1  0
  7  8  1  1
  9  7  1  0
  9 10  2  0
 11  5  1  0
 11 12  2  0
 12  2  1  0
 13 14  1  0
 14 15  2  0
 15 16  1  0
 17 16  2  0
 17 18  1  0
 19 18  1  6
 19 20  1  0
 20  9  1  0
 21 19  1  0
 22 21  2  0
 23 17  1  0
 24 14  1  0
 24 23  2  0
 25 21  1  0
 26 25  1  0
 26 27  1  1
 27 28  1  0
 29 30  1  0
 29 26  1  0
 31 29  2  0
M  END
$$$$
