YYC.pdb
     RDKit          3D

 31 32  0  0  1  0  0  0  0  0999 V2000
   33.3560   -7.8429  -18.4414 O   0  0  0  0  0  0  0  0  0  0  0  0
   32.0428   -8.2448  -18.3912 C   0  0  0  0  0  0  0  0  0  0  0  0
   31.5909   -8.9131  -17.2596 C   0  0  0  0  0  0  0  0  0  0  0  0
   30.2659   -9.3188  -17.2084 C   0  0  0  0  0  0  0  0  0  0  0  0
   29.3662   -9.0853  -18.2405 C   0  0  0  0  0  0  0  0  0  0  0  0
   27.9476   -9.5111  -18.2320 C   0  0  0  0  0  0  0  0  0  0  0  0
   27.9453  -11.0095  -17.9572 C   0  0  2  0  0  0  0  0  0  0  0  0
   28.5254  -11.6055  -19.1832 N   0  0  0  0  0  0  0  0  0  0  0  0
   26.5649  -11.5399  -17.8768 C   0  0  0  0  0  0  0  0  0  0  0  0
   26.0455  -12.0101  -18.9187 O   0  0  0  0  0  0  0  0  0  0  0  0
   29.8829   -8.4185  -19.3281 C   0  0  0  0  0  0  0  0  0  0  0  0
   31.1919   -7.9910  -19.4377 C   0  0  0  0  0  0  0  0  0  0  0  0
   26.4593  -18.2495  -16.4508 O   0  0  0  0  0  0  0  0  0  0  0  0
   25.8931  -16.9827  -16.2737 C   0  0  0  0  0  0  0  0  0  0  0  0
   26.3499  -16.2092  -15.2196 C   0  0  0  0  0  0  0  0  0  0  0  0
   25.8179  -14.9503  -15.0018 C   0  0  0  0  0  0  0  0  0  0  0  0
   24.8392  -14.4452  -15.8109 C   0  0  0  0  0  0  0  0  0  0  0  0
   24.1984  -13.1543  -15.6641 C   0  0  0  0  0  0  0  0  0  0  0  0
   24.4277  -12.0954  -16.6625 C   0  0  2  0  0  0  0  0  0  0  0  0
   25.7564  -11.5678  -16.7187 N   0  0  0  0  0  0  0  0  0  0  0  0
   23.3920  -11.0404  -16.7115 C   0  0  0  0  0  0  0  0  0  0  0  0
   23.5557  -10.0553  -15.9494 O   0  0  0  0  0  0  0  0  0  0  0  0
   24.4002  -15.2517  -16.8681 C   0  0  0  0  0  0  0  0  0  0  0  0
   24.9222  -16.5068  -17.0965 C   0  0  0  0  0  0  0  0  0  0  0  0
   22.2538  -11.0865  -17.5565 N   0  0  0  0  0  0  0  0  0  0  0  0
   21.2177  -10.1109  -17.5907 C   0  0  1  0  0  0  0  0  0  0  0  0
   20.7077   -9.9093  -19.0293 C   0  0  0  0  0  0  0  0  0  0  0  0
   19.4298   -8.6305  -18.9639 S   0  0  0  0  0  0  0  0  0  0  0  0
   20.1008  -10.3711  -16.6714 C   0  0  0  0  0  0  0  0  0  0  0  0
   19.6916   -9.3471  -15.8203 O   0  0  0  0  0  0  0  0  0  0  0  0
   19.4731  -11.4562  -16.5883 O   0  0  0  0  0  0  0  0  0  0  0  0
  2  3  2  0
  2  1  1  0
  4  3  1  0
  5  4  2  0
  6  5  1  0
  7  6  1  0
  7  8  1  6
  9  7  1  0
  9 10  2  0
 11  5  1  0
 11 12  2  0
 12  2  1  0
 13 14  1  0
 14 15  2  0
 15 16  1  0
 17 16  2  0
 17 18  1  0
 19 18  1  1
 19 20  1  0
 20  9  1  0
 21 19  1  0
 22 21  2  0
 23 17  1  0
 24 14  1  0
 24 23  2  0
 25 21  1  0
 26 25  1  0
 26 27  1  6
 27 28  1  0
 29 30  1  0
 29 26  1  0
 31 29  2  0
M  END
$$$$
