YYC.pdb
     RDKit          3D

 31 32  0  0  1  0  0  0  0  0999 V2000
   27.2687   -2.9254  -17.6177 O   0  0  0  0  0  0  0  0  0  0  0  0
   26.3807   -3.9063  -17.2466 C   0  0  0  0  0  0  0  0  0  0  0  0
   25.9597   -3.9612  -15.9233 C   0  0  0  0  0  0  0  0  0  0  0  0
   25.0636   -4.9509  -15.5483 C   0  0  0  0  0  0  0  0  0  0  0  0
   24.5649   -5.8925  -16.4394 C   0  0  0  0  0  0  0  0  0  0  0  0
   23.6169   -6.9719  -16.0790 C   0  0  0  0  0  0  0  0  0  0  0  0
   22.2248   -6.4629  -16.4308 C   0  0  2  0  0  0  0  0  0  0  0  0
   21.8159   -5.6724  -15.2464 N   0  0  0  0  0  0  0  0  0  0  0  0
   21.2508   -7.5752  -16.5170 C   0  0  0  0  0  0  0  0  0  0  0  0
   20.8044   -8.0606  -15.4486 O   0  0  0  0  0  0  0  0  0  0  0  0
   25.0246   -5.7769  -17.7315 C   0  0  0  0  0  0  0  0  0  0  0  0
   25.9166   -4.8150  -18.1645 C   0  0  0  0  0  0  0  0  0  0  0  0
   15.2355   -5.0319  -15.8471 O   0  0  0  0  0  0  0  0  0  0  0  0
   16.0455   -5.9784  -16.4834 C   0  0  0  0  0  0  0  0  0  0  0  0
   16.0614   -7.2662  -15.9743 C   0  0  0  0  0  0  0  0  0  0  0  0
   16.8497   -8.2367  -16.5678 C   0  0  0  0  0  0  0  0  0  0  0  0
   17.6240   -7.9517  -17.6573 C   0  0  0  0  0  0  0  0  0  0  0  0
   18.4995   -8.8800  -18.3429 C   0  0  0  0  0  0  0  0  0  0  0  0
   19.8119   -9.2233  -17.7678 C   0  0  2  0  0  0  0  0  0  0  0  0
   20.7652   -8.1581  -17.7088 N   0  0  0  0  0  0  0  0  0  0  0  0
   20.4009  -10.4904  -18.2533 C   0  0  0  0  0  0  0  0  0  0  0  0
   21.1280  -10.4177  -19.2751 O   0  0  0  0  0  0  0  0  0  0  0  0
   17.5844   -6.6408  -18.1480 C   0  0  0  0  0  0  0  0  0  0  0  0
   16.8031   -5.6651  -17.5669 C   0  0  0  0  0  0  0  0  0  0  0  0
   20.1902  -11.7496  -17.6357 N   0  0  0  0  0  0  0  0  0  0  0  0
   20.6878  -12.9931  -18.1180 C   0  0  1  0  0  0  0  0  0  0  0  0
   22.1925  -13.1287  -17.8216 C   0  0  0  0  0  0  0  0  0  0  0  0
   22.4046  -12.8937  -16.0404 S   0  0  0  0  0  0  0  0  0  0  0  0
   19.9523  -14.1733  -17.6418 C   0  0  0  0  0  0  0  0  0  0  0  0
   20.2838  -15.4181  -18.1716 O   0  0  0  0  0  0  0  0  0  0  0  0
   19.0363  -14.1536  -16.7823 O   0  0  0  0  0  0  0  0  0  0  0  0
  2  3  2  0
  2  1  1  0
  4  3  1  0
  5  4  2  0
  6  5  1  0
  7  6  1  0
  7  8  1  1
  9  7  1  0
  9 10  2  0
 11  5  1  0
 11 12  2  0
 12  2  1  0
 13 14  1  0
 14 15  2  0
 15 16  1  0
 17 16  2  0
 17 18  1  0
 19 18  1  6
 19 20  1  0
 20  9  1  0
 21 19  1  0
 22 21  2  0
 23 17  1  0
 24 14  1  0
 24 23  2  0
 25 21  1  0
 26 25  1  0
 26 27  1  1
 27 28  1  0
 29 30  1  0
 29 26  1  0
 31 29  2  0
M  END
$$$$
