YYC.pdb
     RDKit          3D

 31 32  0  0  1  0  0  0  0  0999 V2000
   21.2622  -14.5420  -19.0408 O   0  0  0  0  0  0  0  0  0  0  0  0
   21.0580  -13.3542  -18.3805 C   0  0  0  0  0  0  0  0  0  0  0  0
   20.5329  -13.3860  -17.0942 C   0  0  0  0  0  0  0  0  0  0  0  0
   20.3267  -12.1877  -16.4275 C   0  0  0  0  0  0  0  0  0  0  0  0
   20.6237  -10.9524  -16.9890 C   0  0  0  0  0  0  0  0  0  0  0  0
   20.4085   -9.6499  -16.3176 C   0  0  0  0  0  0  0  0  0  0  0  0
   21.7884   -9.0471  -16.0862 C   0  0  2  0  0  0  0  0  0  0  0  0
   22.3374   -9.8202  -14.9480 N   0  0  0  0  0  0  0  0  0  0  0  0
   21.6915   -7.6504  -15.6033 C   0  0  0  0  0  0  0  0  0  0  0  0
   21.2888   -7.4519  -14.4307 O   0  0  0  0  0  0  0  0  0  0  0  0
   21.1407  -10.9978  -18.2637 C   0  0  0  0  0  0  0  0  0  0  0  0
   21.3671  -12.1581  -18.9784 C   0  0  0  0  0  0  0  0  0  0  0  0
   22.1523    1.2634  -15.1434 O   0  0  0  0  0  0  0  0  0  0  0  0
   22.3540   -0.1000  -15.3823 C   0  0  0  0  0  0  0  0  0  0  0  0
   22.3965   -0.5290  -16.6984 C   0  0  0  0  0  0  0  0  0  0  0  0
   22.5904   -1.8690  -16.9850 C   0  0  0  0  0  0  0  0  0  0  0  0
   22.7418   -2.7919  -15.9884 C   0  0  0  0  0  0  0  0  0  0  0  0
   22.9286   -4.2166  -16.1717 C   0  0  0  0  0  0  0  0  0  0  0  0
   21.8234   -5.1506  -15.8941 C   0  0  2  0  0  0  0  0  0  0  0  0
   22.0127   -6.4940  -16.3484 N   0  0  0  0  0  0  0  0  0  0  0  0
   20.4704   -4.6325  -16.1922 C   0  0  0  0  0  0  0  0  0  0  0  0
   20.0858   -4.7167  -17.3851 O   0  0  0  0  0  0  0  0  0  0  0  0
   22.6950   -2.3255  -14.6688 C   0  0  0  0  0  0  0  0  0  0  0  0
   22.5033   -0.9937  -14.3698 C   0  0  0  0  0  0  0  0  0  0  0  0
   19.6091   -4.0615  -15.2207 N   0  0  0  0  0  0  0  0  0  0  0  0
   18.3873   -3.3875  -15.5026 C   0  0  1  0  0  0  0  0  0  0  0  0
   17.1827   -4.2344  -15.0532 C   0  0  0  0  0  0  0  0  0  0  0  0
   15.6995   -3.2384  -15.3374 S   0  0  0  0  0  0  0  0  0  0  0  0
   18.3003   -2.0244  -14.9596 C   0  0  0  0  0  0  0  0  0  0  0  0
   17.8615   -1.0039  -15.7999 O   0  0  0  0  0  0  0  0  0  0  0  0
   18.5915   -1.6975  -13.7821 O   0  0  0  0  0  0  0  0  0  0  0  0
  2  3  2  0
  2  1  1  0
  4  3  1  0
  5  4  2  0
  6  5  1  0
  7  6  1  0
  7  8  1  1
  9  7  1  0
  9 10  2  0
 11  5  1  0
 11 12  2  0
 12  2  1  0
 13 14  1  0
 14 15  2  0
 15 16  1  0
 17 16  2  0
 17 18  1  0
 19 18  1  6
 19 20  1  0
 20  9  1  0
 21 19  1  0
 22 21  2  0
 23 17  1  0
 24 14  1  0
 24 23  2  0
 25 21  1  0
 26 25  1  0
 26 27  1  1
 27 28  1  0
 29 30  1  0
 29 26  1  0
 31 29  2  0
M  END
$$$$
