YYC.pdb
     RDKit          3D

 31 32  0  0  1  0  0  0  0  0999 V2000
   17.6733  -32.9701  -18.6905 O   0  0  0  0  0  0  0  0  0  0  0  0
   18.6454  -32.2016  -18.0963 C   0  0  0  0  0  0  0  0  0  0  0  0
   19.4902  -31.4501  -18.9043 C   0  0  0  0  0  0  0  0  0  0  0  0
   20.4712  -30.6744  -18.3053 C   0  0  0  0  0  0  0  0  0  0  0  0
   20.6475  -30.6136  -16.9288 C   0  0  0  0  0  0  0  0  0  0  0  0
   21.6885  -29.8086  -16.2491 C   0  0  0  0  0  0  0  0  0  0  0  0
   23.0198  -30.4936  -16.5300 C   0  0  2  0  0  0  0  0  0  0  0  0
   23.0611  -31.6185  -15.5667 N   0  0  0  0  0  0  0  0  0  0  0  0
   24.1608  -29.6221  -16.1666 C   0  0  0  0  0  0  0  0  0  0  0  0
   24.5029  -29.5602  -14.9601 O   0  0  0  0  0  0  0  0  0  0  0  0
   19.7753  -31.3824  -16.1923 C   0  0  0  0  0  0  0  0  0  0  0  0
   18.7802  -32.1751  -16.7308 C   0  0  0  0  0  0  0  0  0  0  0  0
   28.6651  -33.8578  -15.7403 O   0  0  0  0  0  0  0  0  0  0  0  0
   28.3421  -32.5398  -16.0798 C   0  0  0  0  0  0  0  0  0  0  0  0
   28.6290  -31.5440  -15.1610 C   0  0  0  0  0  0  0  0  0  0  0  0
   28.3250  -30.2252  -15.4503 C   0  0  0  0  0  0  0  0  0  0  0  0
   27.7398  -29.8766  -16.6351 C   0  0  0  0  0  0  0  0  0  0  0  0
   27.3604  -28.5363  -17.0327 C   0  0  0  0  0  0  0  0  0  0  0  0
   26.0268  -28.0114  -16.6905 C   0  0  2  0  0  0  0  0  0  0  0  0
   24.9177  -28.8349  -17.0628 N   0  0  0  0  0  0  0  0  0  0  0  0
   25.8105  -26.5835  -17.0102 C   0  0  0  0  0  0  0  0  0  0  0  0
   24.7512  -26.2982  -17.6223 O   0  0  0  0  0  0  0  0  0  0  0  0
   27.4638  -30.9067  -17.5426 C   0  0  0  0  0  0  0  0  0  0  0  0
   27.7623  -32.2240  -17.2673 C   0  0  0  0  0  0  0  0  0  0  0  0
   26.7174  -25.5486  -16.6666 N   0  0  0  0  0  0  0  0  0  0  0  0
   26.5475  -24.1709  -16.9821 C   0  0  1  0  0  0  0  0  0  0  0  0
   25.4041  -23.5597  -16.1517 C   0  0  0  0  0  0  0  0  0  0  0  0
   25.3953  -21.7826  -16.4899 S   0  0  0  0  0  0  0  0  0  0  0  0
   27.7686  -23.3610  -16.8668 C   0  0  0  0  0  0  0  0  0  0  0  0
   27.9448  -22.2994  -17.7512 O   0  0  0  0  0  0  0  0  0  0  0  0
   28.6807  -23.5477  -16.0233 O   0  0  0  0  0  0  0  0  0  0  0  0
  2  3  2  0
  2  1  1  0
  4  3  1  0
  5  4  2  0
  6  5  1  0
  7  6  1  0
  7  8  1  1
  9  7  1  0
  9 10  2  0
 11  5  1  0
 11 12  2  0
 12  2  1  0
 13 14  1  0
 14 15  2  0
 15 16  1  0
 17 16  2  0
 17 18  1  0
 19 18  1  6
 19 20  1  0
 20  9  1  0
 21 19  1  0
 22 21  2  0
 23 17  1  0
 24 14  1  0
 24 23  2  0
 25 21  1  0
 26 25  1  0
 26 27  1  1
 27 28  1  0
 29 30  1  0
 29 26  1  0
 31 29  2  0
M  END
$$$$
