GHV.pdb
     RDKit          3D

 22 22  0  0  1  0  0  0  0  0999 V2000
    9.8054  -15.8785   18.8304 N   0  0  0  0  0  0  0  0  0  0  0  0
   10.3987  -15.8692   20.1495 C   0  0  0  0  0  0  0  0  0  0  0  0
    9.3558  -16.0248   21.1941 C   0  0  0  0  0  0  0  0  0  0  0  0
    8.1267  -15.9050   20.9149 O   0  0  0  0  0  0  0  0  0  0  0  0
    9.7593  -16.3109   22.5155 N   0  0  0  0  0  0  0  0  0  0  0  0
    8.7520  -16.4381   23.5602 C   0  0  1  0  0  0  0  0  0  0  0  0
    8.8705  -17.7623   24.2710 C   0  0  0  0  0  0  0  0  0  0  0  0
    8.5854  -18.8920   23.3584 C   0  0  0  0  0  0  0  0  0  0  0  0
    8.1478  -18.7901   22.0529 C   0  0  0  0  0  0  0  0  0  0  0  0
    8.0063  -20.0354   21.5643 N   0  0  0  0  0  0  0  0  0  0  0  0
    8.3404  -20.9277   22.5188 C   0  0  0  0  0  0  0  0  0  0  0  0
    8.6892  -20.2070   23.6008 N   0  0  0  0  0  0  0  0  0  0  0  0
    8.8409  -15.2662   24.4490 C   0  0  0  0  0  0  0  0  0  0  0  0
    9.9837  -14.8147   24.7106 O   0  0  0  0  0  0  0  0  0  0  0  0
    6.8623  -11.5594   27.0523 C   0  0  0  0  0  0  0  0  0  0  0  0
    6.6343  -12.7479   26.1634 C   0  0  1  0  0  0  0  0  0  0  0  0
    6.0566  -12.3137   24.8347 C   0  0  0  0  0  0  0  0  0  0  0  0
    7.9016  -13.5208   25.8830 C   0  0  2  0  0  0  0  0  0  0  0  0
    7.6979  -14.6348   25.0145 N   0  0  0  0  0  0  0  0  0  0  0  0
    8.4074  -14.0222   27.1864 C   0  0  0  0  0  0  0  0  0  0  0  0
    8.1944  -15.2121   27.5445 O   0  0  0  0  0  0  0  0  0  0  0  0
    9.1224  -13.1830   28.0266 O   0  0  0  0  0  0  0  0  0  0  0  0
  2  1  1  0
  3  5  1  0
  3  2  1  0
  4  3  2  0
  6  5  1  0
  6 13  1  0
  6  7  1  1
  8  7  1  0
  9  8  2  0
 10  9  1  0
 10 11  1  0
 11 12  2  0
 12  8  1  0
 13 19  1  0
 13 14  2  0
 16 15  1  1
 16 17  1  0
 18 16  1  0
 18 19  1  6
 20 18  1  0
 20 22  1  0
 21 20  2  0
M  END
$$$$
