GHV.pdb
     RDKit          3D

 22 22  0  0  1  0  0  0  0  0999 V2000
    7.9439  -12.6809   18.2811 N   0  0  0  0  0  0  0  0  0  0  0  0
    8.8533  -13.3054   19.2165 C   0  0  0  0  0  0  0  0  0  0  0  0
    8.1073  -13.9084   20.3493 C   0  0  0  0  0  0  0  0  0  0  0  0
    6.8506  -13.7871   20.4439 O   0  0  0  0  0  0  0  0  0  0  0  0
    8.8272  -14.6256   21.3281 N   0  0  0  0  0  0  0  0  0  0  0  0
    8.1036  -15.3093   22.3917 C   0  0  1  0  0  0  0  0  0  0  0  0
    8.2391  -16.8054   22.2665 C   0  0  0  0  0  0  0  0  0  0  0  0
    7.6126  -17.5018   23.4123 C   0  0  0  0  0  0  0  0  0  0  0  0
    8.0720  -17.4972   24.7143 C   0  0  0  0  0  0  0  0  0  0  0  0
    7.2313  -18.2431   25.4535 N   0  0  0  0  0  0  0  0  0  0  0  0
    6.2503  -18.7229   24.6621 C   0  0  0  0  0  0  0  0  0  0  0  0
    6.5048  -18.2577   23.4249 N   0  0  0  0  0  0  0  0  0  0  0  0
    8.5474  -14.7697   23.6890 C   0  0  0  0  0  0  0  0  0  0  0  0
    9.7780  -14.5777   23.8535 O   0  0  0  0  0  0  0  0  0  0  0  0
    7.1354  -11.6132   25.5885 C   0  0  0  0  0  0  0  0  0  0  0  0
    7.2872  -12.7917   26.5065 C   0  0  1  0  0  0  0  0  0  0  0  0
    5.9401  -13.4147   26.7975 C   0  0  0  0  0  0  0  0  0  0  0  0
    8.1777  -13.8691   25.9334 C   0  0  2  0  0  0  0  0  0  0  0  0
    7.6483  -14.4619   24.7481 N   0  0  0  0  0  0  0  0  0  0  0  0
    8.3140  -14.9235   26.9706 C   0  0  0  0  0  0  0  0  0  0  0  0
    7.7988  -16.0619   26.8024 O   0  0  0  0  0  0  0  0  0  0  0  0
    9.0124  -14.6657   28.1398 O   0  0  0  0  0  0  0  0  0  0  0  0
  2  1  1  0
  3  5  1  0
  3  2  1  0
  4  3  2  0
  6  5  1  0
  6 13  1  0
  6  7  1  1
  8  7  1  0
  9  8  2  0
 10  9  1  0
 10 11  1  0
 11 12  2  0
 12  8  1  0
 13 19  1  0
 13 14  2  0
 16 15  1  6
 16 17  1  0
 18 16  1  0
 18 19  1  6
 20 18  1  0
 20 22  1  0
 21 20  2  0
M  END
$$$$
