GHV.pdb
     RDKit          3D

 22 22  0  0  1  0  0  0  0  0999 V2000
    6.4291  -20.0432   22.9231 N   0  0  0  0  0  0  0  0  0  0  0  0
    6.3274  -18.7607   23.5840 C   0  0  0  0  0  0  0  0  0  0  0  0
    7.4904  -17.9030   23.2450 C   0  0  0  0  0  0  0  0  0  0  0  0
    8.6733  -18.3504   23.3051 O   0  0  0  0  0  0  0  0  0  0  0  0
    7.2549  -16.5687   22.8511 N   0  0  0  0  0  0  0  0  0  0  0  0
    8.3862  -15.6859   22.6001 C   0  0  1  0  0  0  0  0  0  0  0  0
    8.2540  -14.9995   21.2644 C   0  0  0  0  0  0  0  0  0  0  0  0
    8.3050  -15.9724   20.1503 C   0  0  0  0  0  0  0  0  0  0  0  0
    9.4339  -16.3413   19.4462 C   0  0  0  0  0  0  0  0  0  0  0  0
    9.0676  -17.2435   18.5181 N   0  0  0  0  0  0  0  0  0  0  0  0
    7.7397  -17.4607   18.6093 C   0  0  0  0  0  0  0  0  0  0  0  0
    7.2989  -16.6755   19.6099 N   0  0  0  0  0  0  0  0  0  0  0  0
    8.5297  -14.7640   23.7406 C   0  0  0  0  0  0  0  0  0  0  0  0
    8.4667  -13.5309   23.5087 O   0  0  0  0  0  0  0  0  0  0  0  0
    7.2752  -12.5963   27.3863 C   0  0  0  0  0  0  0  0  0  0  0  0
    7.3562  -13.5324   26.2151 C   0  0  1  0  0  0  0  0  0  0  0  0
    7.1504  -12.7800   24.9192 C   0  0  0  0  0  0  0  0  0  0  0  0
    8.6851  -14.2454   26.1264 C   0  0  2  0  0  0  0  0  0  0  0  0
    8.7342  -15.2105   25.0762 N   0  0  0  0  0  0  0  0  0  0  0  0
    8.8965  -14.9423   27.4209 C   0  0  0  0  0  0  0  0  0  0  0  0
    9.0447  -14.2868   28.4877 O   0  0  0  0  0  0  0  0  0  0  0  0
    8.9333  -16.3270   27.4698 O   0  0  0  0  0  0  0  0  0  0  0  0
  2  1  1  0
  3  5  1  0
  3  2  1  0
  4  3  2  0
  6  5  1  0
  6 13  1  0
  6  7  1  6
  8  7  1  0
  9  8  2  0
 10  9  1  0
 10 11  1  0
 11 12  2  0
 12  8  1  0
 13 19  1  0
 13 14  2  0
 16 15  1  1
 16 17  1  0
 18 16  1  0
 18 19  1  6
 20 18  1  0
 20 22  1  0
 21 20  2  0
M  END
$$$$
