GHV.pdb
     RDKit          3D

 22 22  0  0  1  0  0  0  0  0999 V2000
    9.0750  -18.9295   19.2630 N   0  0  0  0  0  0  0  0  0  0  0  0
    8.1144  -18.4763   20.2448 C   0  0  0  0  0  0  0  0  0  0  0  0
    8.5577  -17.2011   20.8617 C   0  0  0  0  0  0  0  0  0  0  0  0
    9.7834  -16.9709   21.0801 O   0  0  0  0  0  0  0  0  0  0  0  0
    7.5827  -16.2404   21.2042 N   0  0  0  0  0  0  0  0  0  0  0  0
    7.9987  -14.9821   21.8092 C   0  0  1  0  0  0  0  0  0  0  0  0
    7.1883  -13.8284   21.2755 C   0  0  0  0  0  0  0  0  0  0  0  0
    7.4233  -13.6277   19.8281 C   0  0  0  0  0  0  0  0  0  0  0  0
    8.1259  -12.5854   19.2570 C   0  0  0  0  0  0  0  0  0  0  0  0
    8.1152  -12.7594   17.9232 N   0  0  0  0  0  0  0  0  0  0  0  0
    7.4271  -13.8808   17.6270 C   0  0  0  0  0  0  0  0  0  0  0  0
    7.0165  -14.3909   18.8031 N   0  0  0  0  0  0  0  0  0  0  0  0
    7.9539  -15.1239   23.2751 C   0  0  0  0  0  0  0  0  0  0  0  0
    6.8543  -14.9256   23.8495 O   0  0  0  0  0  0  0  0  0  0  0  0
    7.9223  -17.7812   26.8046 C   0  0  0  0  0  0  0  0  0  0  0  0
    7.9679  -17.1519   25.4421 C   0  0  1  0  0  0  0  0  0  0  0  0
    6.5874  -16.7014   25.0191 C   0  0  0  0  0  0  0  0  0  0  0  0
    8.8817  -15.9504   25.3825 C   0  0  2  0  0  0  0  0  0  0  0  0
    9.0924  -15.4719   24.0546 N   0  0  0  0  0  0  0  0  0  0  0  0
   10.1900  -16.3655   25.9501 C   0  0  0  0  0  0  0  0  0  0  0  0
   11.1356  -16.7197   25.1950 O   0  0  0  0  0  0  0  0  0  0  0  0
   10.3860  -16.3677   27.3223 O   0  0  0  0  0  0  0  0  0  0  0  0
  2  1  1  0
  3  5  1  0
  3  2  1  0
  4  3  2  0
  6  5  1  0
  6 13  1  0
  6  7  1  1
  8  7  1  0
  9  8  2  0
 10  9  1  0
 10 11  1  0
 11 12  2  0
 12  8  1  0
 13 19  1  0
 13 14  2  0
 16 15  1  1
 16 17  1  0
 18 16  1  0
 18 19  1  6
 20 18  1  0
 20 22  1  0
 21 20  2  0
M  END
$$$$
