GHV.pdb
     RDKit          3D

 22 22  0  0  1  0  0  0  0  0999 V2000
   12.4881  -17.1280   20.9353 N   0  0  0  0  0  0  0  0  0  0  0  0
   11.5945  -17.3918   22.0416 C   0  0  0  0  0  0  0  0  0  0  0  0
   10.7947  -16.1848   22.3684 C   0  0  0  0  0  0  0  0  0  0  0  0
   11.3545  -15.0991   22.7014 O   0  0  0  0  0  0  0  0  0  0  0  0
    9.3878  -16.2670   22.3015 N   0  0  0  0  0  0  0  0  0  0  0  0
    8.5904  -15.0621   22.4875 C   0  0  1  0  0  0  0  0  0  0  0  0
    7.3616  -15.0835   21.6145 C   0  0  0  0  0  0  0  0  0  0  0  0
    7.6566  -14.5790   20.2548 C   0  0  0  0  0  0  0  0  0  0  0  0
    8.8845  -14.1403   19.8009 C   0  0  0  0  0  0  0  0  0  0  0  0
    8.7421  -13.7646   18.5171 N   0  0  0  0  0  0  0  0  0  0  0  0
    7.4610  -13.9505   18.1392 C   0  0  0  0  0  0  0  0  0  0  0  0
    6.8208  -14.4469   19.2143 N   0  0  0  0  0  0  0  0  0  0  0  0
    8.3071  -14.8988   23.9243 C   0  0  0  0  0  0  0  0  0  0  0  0
    8.7927  -15.7440   24.7168 O   0  0  0  0  0  0  0  0  0  0  0  0
    6.2590  -12.5255   27.7602 C   0  0  0  0  0  0  0  0  0  0  0  0
    6.4265  -12.6196   26.2711 C   0  0  1  0  0  0  0  0  0  0  0  0
    7.0170  -11.3402   25.7216 C   0  0  0  0  0  0  0  0  0  0  0  0
    7.3277  -13.7580   25.8541 C   0  0  2  0  0  0  0  0  0  0  0  0
    7.5156  -13.8355   24.4415 N   0  0  0  0  0  0  0  0  0  0  0  0
    6.6884  -15.0162   26.3171 C   0  0  0  0  0  0  0  0  0  0  0  0
    6.9961  -15.5224   27.4301 O   0  0  0  0  0  0  0  0  0  0  0  0
    5.7423  -15.6497   25.5267 O   0  0  0  0  0  0  0  0  0  0  0  0
  2  1  1  0
  3  5  1  0
  3  2  1  0
  4  3  2  0
  6  5  1  0
  6 13  1  0
  6  7  1  6
  8  7  1  0
  9  8  2  0
 10  9  1  0
 10 11  1  0
 11 12  2  0
 12  8  1  0
 13 19  1  0
 13 14  2  0
 16 15  1  1
 16 17  1  0
 18 16  1  0
 18 19  1  6
 20 18  1  0
 20 22  1  0
 21 20  2  0
M  END
$$$$
