GHV.pdb
     RDKit          3D

 22 22  0  0  1  0  0  0  0  0999 V2000
   12.3816  -17.0721   19.9251 N   0  0  0  0  0  0  0  0  0  0  0  0
   11.6081  -17.5594   21.0459 C   0  0  0  0  0  0  0  0  0  0  0  0
   11.1340  -16.4309   21.8855 C   0  0  0  0  0  0  0  0  0  0  0  0
   11.8682  -15.4223   22.1015 O   0  0  0  0  0  0  0  0  0  0  0  0
    9.8403  -16.5004   22.4443 N   0  0  0  0  0  0  0  0  0  0  0  0
    9.3760  -15.4255   23.3110 C   0  0  1  0  0  0  0  0  0  0  0  0
    7.9157  -15.1323   23.0784 C   0  0  0  0  0  0  0  0  0  0  0  0
    7.6802  -14.6143   21.7122 C   0  0  0  0  0  0  0  0  0  0  0  0
    7.7414  -13.2906   21.3245 C   0  0  0  0  0  0  0  0  0  0  0  0
    7.4669  -13.2305   20.0090 N   0  0  0  0  0  0  0  0  0  0  0  0
    7.2328  -14.4755   19.5466 C   0  0  0  0  0  0  0  0  0  0  0  0
    7.3686  -15.2996   20.6023 N   0  0  0  0  0  0  0  0  0  0  0  0
    9.7086  -15.7647   24.7059 C   0  0  0  0  0  0  0  0  0  0  0  0
   10.2435  -16.8800   24.9259 O   0  0  0  0  0  0  0  0  0  0  0  0
   10.5139  -14.3963   29.3904 C   0  0  0  0  0  0  0  0  0  0  0  0
    9.7598  -14.1507   28.1154 C   0  0  1  0  0  0  0  0  0  0  0  0
   10.1364  -12.8097   27.5260 C   0  0  0  0  0  0  0  0  0  0  0  0
   10.0250  -15.2047   27.0662 C   0  0  2  0  0  0  0  0  0  0  0  0
    9.4509  -14.8899   25.7981 N   0  0  0  0  0  0  0  0  0  0  0  0
    9.4258  -16.4724   27.5563 C   0  0  0  0  0  0  0  0  0  0  0  0
    8.2553  -16.8018   27.2231 O   0  0  0  0  0  0  0  0  0  0  0  0
   10.1508  -17.3104   28.3889 O   0  0  0  0  0  0  0  0  0  0  0  0
  2  1  1  0
  3  5  1  0
  3  2  1  0
  4  3  2  0
  6  5  1  0
  6 13  1  0
  6  7  1  1
  8  7  1  0
  9  8  2  0
 10  9  1  0
 10 11  1  0
 11 12  2  0
 12  8  1  0
 13 19  1  0
 13 14  2  0
 16 15  1  1
 16 17  1  0
 18 16  1  0
 18 19  1  6
 20 18  1  0
 20 22  1  0
 21 20  2  0
M  END
$$$$
