GHV.pdb
     RDKit          3D

 22 22  0  0  1  0  0  0  0  0999 V2000
   12.0219  -16.6884   19.9590 N   0  0  0  0  0  0  0  0  0  0  0  0
   11.3226  -16.9923   21.1880 C   0  0  0  0  0  0  0  0  0  0  0  0
   10.6008  -15.7961   21.6895 C   0  0  0  0  0  0  0  0  0  0  0  0
   11.2258  -14.7476   22.0254 O   0  0  0  0  0  0  0  0  0  0  0  0
    9.1941  -15.8464   21.7870 N   0  0  0  0  0  0  0  0  0  0  0  0
    8.4587  -14.6451   22.1588 C   0  0  1  0  0  0  0  0  0  0  0  0
    7.1972  -14.5065   21.3452 C   0  0  0  0  0  0  0  0  0  0  0  0
    7.4959  -14.4083   19.8990 C   0  0  0  0  0  0  0  0  0  0  0  0
    7.9759  -13.2920   19.2435 C   0  0  0  0  0  0  0  0  0  0  0  0
    8.1161  -13.6031   17.9424 N   0  0  0  0  0  0  0  0  0  0  0  0
    7.7401  -14.8837   17.7487 C   0  0  0  0  0  0  0  0  0  0  0  0
    7.3669  -15.3517   18.9544 N   0  0  0  0  0  0  0  0  0  0  0  0
    8.2388  -14.6563   23.6158 C   0  0  0  0  0  0  0  0  0  0  0  0
    8.7548  -15.5904   24.2789 O   0  0  0  0  0  0  0  0  0  0  0  0
    6.6599  -12.5602   27.8149 C   0  0  0  0  0  0  0  0  0  0  0  0
    6.6169  -12.5757   26.3141 C   0  0  1  0  0  0  0  0  0  0  0  0
    7.1564  -11.2784   25.7543 C   0  0  0  0  0  0  0  0  0  0  0  0
    7.4237  -13.7047   25.7170 C   0  0  2  0  0  0  0  0  0  0  0  0
    7.4750  -13.6638   24.2914 N   0  0  0  0  0  0  0  0  0  0  0  0
    6.7751  -14.9749   26.1318 C   0  0  0  0  0  0  0  0  0  0  0  0
    5.8117  -15.4507   25.4721 O   0  0  0  0  0  0  0  0  0  0  0  0
    7.2243  -15.6536   27.2538 O   0  0  0  0  0  0  0  0  0  0  0  0
  2  1  1  0
  3  5  1  0
  3  2  1  0
  4  3  2  0
  6  5  1  0
  6 13  1  0
  6  7  1  6
  8  7  1  0
  9  8  2  0
 10  9  1  0
 10 11  1  0
 11 12  2  0
 12  8  1  0
 13 19  1  0
 13 14  2  0
 16 15  1  1
 16 17  1  0
 18 16  1  0
 18 19  1  6
 20 18  1  0
 20 22  1  0
 21 20  2  0
M  END
$$$$
