GHV.pdb
     RDKit          3D

 22 22  0  0  1  0  0  0  0  0999 V2000
    8.9383  -19.1967   20.9343 N   0  0  0  0  0  0  0  0  0  0  0  0
    8.3431  -18.4247   22.0029 C   0  0  0  0  0  0  0  0  0  0  0  0
    8.9313  -17.0629   22.0558 C   0  0  0  0  0  0  0  0  0  0  0  0
    9.9750  -16.7748   21.3997 O   0  0  0  0  0  0  0  0  0  0  0  0
    8.3031  -16.0854   22.8562 N   0  0  0  0  0  0  0  0  0  0  0  0
    8.8872  -14.7542   22.9513 C   0  0  1  0  0  0  0  0  0  0  0  0
    7.8986  -13.6958   22.5332 C   0  0  0  0  0  0  0  0  0  0  0  0
    7.6462  -13.7386   21.0755 C   0  0  0  0  0  0  0  0  0  0  0  0
    8.1213  -12.8380   20.1430 C   0  0  0  0  0  0  0  0  0  0  0  0
    7.6746  -13.2194   18.9328 N   0  0  0  0  0  0  0  0  0  0  0  0
    6.9294  -14.3355   19.0658 C   0  0  0  0  0  0  0  0  0  0  0  0
    6.9274  -14.6312   20.3790 N   0  0  0  0  0  0  0  0  0  0  0  0
    9.4295  -14.5708   24.3090 C   0  0  0  0  0  0  0  0  0  0  0  0
    9.8461  -13.4282   24.6240 O   0  0  0  0  0  0  0  0  0  0  0  0
    9.6224  -13.8608   28.6060 C   0  0  0  0  0  0  0  0  0  0  0  0
    9.0722  -14.2885   27.2760 C   0  0  1  0  0  0  0  0  0  0  0  0
    8.9347  -13.0995   26.3514 C   0  0  0  0  0  0  0  0  0  0  0  0
    9.9427  -15.3108   26.5837 C   0  0  2  0  0  0  0  0  0  0  0  0
    9.4984  -15.6235   25.2640 N   0  0  0  0  0  0  0  0  0  0  0  0
    9.9024  -16.5488   27.4034 C   0  0  0  0  0  0  0  0  0  0  0  0
    9.2580  -17.5591   27.0114 O   0  0  0  0  0  0  0  0  0  0  0  0
   10.5760  -16.6064   28.6134 O   0  0  0  0  0  0  0  0  0  0  0  0
  2  1  1  0
  3  5  1  0
  3  2  1  0
  4  3  2  0
  6  5  1  0
  6 13  1  0
  6  7  1  1
  8  7  1  0
  9  8  2  0
 10  9  1  0
 10 11  1  0
 11 12  2  0
 12  8  1  0
 13 19  1  0
 13 14  2  0
 16 15  1  1
 16 17  1  0
 18 16  1  0
 18 19  1  6
 20 18  1  0
 20 22  1  0
 21 20  2  0
M  END
$$$$
