GHV.pdb
     RDKit          3D

 22 22  0  0  1  0  0  0  0  0999 V2000
   11.9523  -17.2433   20.2813 N   0  0  0  0  0  0  0  0  0  0  0  0
   10.9707  -17.3906   21.3333 C   0  0  0  0  0  0  0  0  0  0  0  0
   10.4037  -16.0713   21.7093 C   0  0  0  0  0  0  0  0  0  0  0  0
   11.1477  -15.0579   21.8593 O   0  0  0  0  0  0  0  0  0  0  0  0
    9.0097  -15.9633   21.8988 N   0  0  0  0  0  0  0  0  0  0  0  0
    8.4541  -14.7303   22.4403 C   0  0  1  0  0  0  0  0  0  0  0  0
    7.2168  -14.3145   21.6861 C   0  0  0  0  0  0  0  0  0  0  0  0
    7.5122  -14.0726   20.2562 C   0  0  0  0  0  0  0  0  0  0  0  0
    8.0383  -12.9136   19.7211 C   0  0  0  0  0  0  0  0  0  0  0  0
    8.1579  -13.0871   18.3925 N   0  0  0  0  0  0  0  0  0  0  0  0
    7.7241  -14.3212   18.0648 C   0  0  0  0  0  0  0  0  0  0  0  0
    7.3365  -14.9009   19.2162 N   0  0  0  0  0  0  0  0  0  0  0  0
    8.2489  -14.8998   23.8896 C   0  0  0  0  0  0  0  0  0  0  0  0
    8.4667  -16.0343   24.3833 O   0  0  0  0  0  0  0  0  0  0  0  0
    8.1945  -11.8178   26.9217 C   0  0  0  0  0  0  0  0  0  0  0  0
    7.1766  -12.9217   26.9193 C   0  0  1  0  0  0  0  0  0  0  0  0
    5.8707  -12.4380   26.3292 C   0  0  0  0  0  0  0  0  0  0  0  0
    7.6218  -14.1266   26.1243 C   0  0  2  0  0  0  0  0  0  0  0  0
    7.8194  -13.8426   24.7397 N   0  0  0  0  0  0  0  0  0  0  0  0
    6.5561  -15.1537   26.2502 C   0  0  0  0  0  0  0  0  0  0  0  0
    6.3669  -15.7538   27.3427 O   0  0  0  0  0  0  0  0  0  0  0  0
    5.7549  -15.4644   25.1627 O   0  0  0  0  0  0  0  0  0  0  0  0
  2  1  1  0
  3  5  1  0
  3  2  1  0
  4  3  2  0
  6  5  1  0
  6 13  1  0
  6  7  1  6
  8  7  1  0
  9  8  2  0
 10  9  1  0
 10 11  1  0
 11 12  2  0
 12  8  1  0
 13 19  1  0
 13 14  2  0
 16 15  1  6
 16 17  1  0
 18 16  1  0
 18 19  1  6
 20 18  1  0
 20 22  1  0
 21 20  2  0
M  END
$$$$
