GHV.pdb
     RDKit          3D

 22 22  0  0  1  0  0  0  0  0999 V2000
    8.5176  -19.4275   18.4054 N   0  0  0  0  0  0  0  0  0  0  0  0
    7.5630  -18.7940   19.2883 C   0  0  0  0  0  0  0  0  0  0  0  0
    8.1839  -17.6446   19.9931 C   0  0  0  0  0  0  0  0  0  0  0  0
    9.4417  -17.5087   20.0419 O   0  0  0  0  0  0  0  0  0  0  0  0
    7.3426  -16.6970   20.6136 N   0  0  0  0  0  0  0  0  0  0  0  0
    7.9328  -15.6177   21.3940 C   0  0  1  0  0  0  0  0  0  0  0  0
    7.1921  -14.3227   21.1775 C   0  0  0  0  0  0  0  0  0  0  0  0
    7.4032  -13.8027   19.8080 C   0  0  0  0  0  0  0  0  0  0  0  0
    8.2221  -12.7477   19.4579 C   0  0  0  0  0  0  0  0  0  0  0  0
    8.1424  -12.5852   18.1250 N   0  0  0  0  0  0  0  0  0  0  0  0
    7.2977  -13.5045   17.6151 C   0  0  0  0  0  0  0  0  0  0  0  0
    6.8612  -14.2332   18.6593 N   0  0  0  0  0  0  0  0  0  0  0  0
    8.0103  -16.0402   22.8035 C   0  0  0  0  0  0  0  0  0  0  0  0
    6.9534  -16.4361   23.3554 O   0  0  0  0  0  0  0  0  0  0  0  0
   10.3763  -18.3843   26.2666 C   0  0  0  0  0  0  0  0  0  0  0  0
   10.3033  -17.7503   24.9075 C   0  0  1  0  0  0  0  0  0  0  0  0
    9.9963  -18.7898   23.8527 C   0  0  0  0  0  0  0  0  0  0  0  0
    9.2430  -16.6779   24.8181 C   0  0  2  0  0  0  0  0  0  0  0  0
    9.2195  -16.0173   23.5533 N   0  0  0  0  0  0  0  0  0  0  0  0
    9.5435  -15.6747   25.8715 C   0  0  0  0  0  0  0  0  0  0  0  0
   10.1637  -14.6134   25.5909 O   0  0  0  0  0  0  0  0  0  0  0  0
    9.1434  -15.8960   27.1799 O   0  0  0  0  0  0  0  0  0  0  0  0
  2  1  1  0
  3  5  1  0
  3  2  1  0
  4  3  2  0
  6  5  1  0
  6 13  1  0
  6  7  1  1
  8  7  1  0
  9  8  2  0
 10  9  1  0
 10 11  1  0
 11 12  2  0
 12  8  1  0
 13 19  1  0
 13 14  2  0
 16 15  1  1
 16 17  1  0
 18 16  1  0
 18 19  1  6
 20 18  1  0
 20 22  1  0
 21 20  2  0
M  END
$$$$
