GHV.pdb
     RDKit          3D

 22 22  0  0  1  0  0  0  0  0999 V2000
    8.0586  -12.9804   18.2176 N   0  0  0  0  0  0  0  0  0  0  0  0
    8.9695  -13.2926   19.2969 C   0  0  0  0  0  0  0  0  0  0  0  0
    8.2325  -13.8435   20.4616 C   0  0  0  0  0  0  0  0  0  0  0  0
    7.0167  -13.5537   20.6636 O   0  0  0  0  0  0  0  0  0  0  0  0
    8.9144  -14.7034   21.3485 N   0  0  0  0  0  0  0  0  0  0  0  0
    8.1715  -15.3791   22.4038 C   0  0  1  0  0  0  0  0  0  0  0  0
    8.4355  -16.8632   22.3896 C   0  0  0  0  0  0  0  0  0  0  0  0
    7.9305  -17.4893   21.1472 C   0  0  0  0  0  0  0  0  0  0  0  0
    6.6213  -17.8459   20.8924 C   0  0  0  0  0  0  0  0  0  0  0  0
    6.5696  -18.3820   19.6598 N   0  0  0  0  0  0  0  0  0  0  0  0
    7.8061  -18.3778   19.1213 C   0  0  0  0  0  0  0  0  0  0  0  0
    8.6163  -17.8296   20.0460 N   0  0  0  0  0  0  0  0  0  0  0  0
    8.4736  -14.7248   23.6891 C   0  0  0  0  0  0  0  0  0  0  0  0
    9.6798  -14.5135   23.9696 O   0  0  0  0  0  0  0  0  0  0  0  0
    7.2180  -12.1014   27.6591 C   0  0  0  0  0  0  0  0  0  0  0  0
    6.7683  -12.8413   26.4324 C   0  0  1  0  0  0  0  0  0  0  0  0
    6.2713  -11.8738   25.3815 C   0  0  0  0  0  0  0  0  0  0  0  0
    7.8692  -13.6688   25.8115 C   0  0  2  0  0  0  0  0  0  0  0  0
    7.4657  -14.3285   24.6121 N   0  0  0  0  0  0  0  0  0  0  0  0
    8.2614  -14.6969   26.8092 C   0  0  0  0  0  0  0  0  0  0  0  0
    7.7485  -15.8484   26.7820 O   0  0  0  0  0  0  0  0  0  0  0  0
    9.1998  -14.3997   27.7850 O   0  0  0  0  0  0  0  0  0  0  0  0
  2  1  1  0
  3  5  1  0
  3  2  1  0
  4  3  2  0
  6  5  1  0
  6 13  1  0
  6  7  1  1
  8  7  1  0
  9  8  2  0
 10  9  1  0
 10 11  1  0
 11 12  2  0
 12  8  1  0
 13 19  1  0
 13 14  2  0
 16 15  1  1
 16 17  1  0
 18 16  1  0
 18 19  1  6
 20 18  1  0
 20 22  1  0
 21 20  2  0
M  END
$$$$
