VND.pdb
     RDKit          3D

 24 23  0  0  1  0  0  0  0  0999 V2000
   16.4302  -12.8148  -16.0451 C   0  0  0  0  0  0  0  0  0  0  0  0
   17.4149  -12.8181  -17.2090 C   0  0  2  0  0  0  0  0  0  0  0  0
   17.6717  -14.1938  -17.7200 C   0  0  0  0  0  0  0  0  0  0  0  0
   18.6291  -12.0162  -16.8697 C   0  0  2  0  0  0  0  0  0  0  0  0
   19.6048  -12.7724  -16.1422 N   0  0  0  0  0  0  0  0  0  0  0  0
   18.3470  -10.7386  -16.1861 C   0  0  0  0  0  0  0  0  0  0  0  0
   17.6328   -9.8316  -16.6839 O   0  0  0  0  0  0  0  0  0  0  0  0
   18.1522   -6.9807  -12.7606 N   0  0  0  0  0  0  0  0  0  0  0  0
   18.0314   -8.1878  -12.0662 C   0  0  0  0  0  0  0  0  0  0  0  0
   17.6692   -8.1842  -10.8374 O   0  0  0  0  0  0  0  0  0  0  0  0
   18.3157   -9.4708  -12.7354 C   0  0  0  0  0  0  0  0  0  0  0  0
   18.7236   -9.2649  -14.1856 C   0  0  2  0  0  0  0  0  0  0  0  0
   18.9007  -10.5044  -14.9041 N   0  0  0  0  0  0  0  0  0  0  0  0
   19.9763   -8.4349  -14.2493 C   0  0  0  0  0  0  0  0  0  0  0  0
   21.1044   -8.9920  -14.3425 O   0  0  0  0  0  0  0  0  0  0  0  0
   19.9263   -7.0189  -14.2076 N   0  0  0  0  0  0  0  0  0  0  0  0
   21.0987   -6.1879  -14.5288 C   0  0  1  0  0  0  0  0  0  0  0  0
   21.4603   -6.5148  -15.9610 C   0  0  0  0  0  0  0  0  0  0  0  0
   22.5712   -5.7229  -16.4969 C   0  0  0  0  0  0  0  0  0  0  0  0
   23.6108   -5.5481  -15.8137 O   0  0  0  0  0  0  0  0  0  0  0  0
   20.7360   -4.7478  -14.4014 C   0  0  0  0  0  0  0  0  0  0  0  0
   21.6234   -3.8535  -13.7727 O   0  0  0  0  0  0  0  0  0  0  0  0
   22.5685   -5.1177  -17.7644 O   0  0  0  0  0  0  0  0  0  0  0  0
   19.6580   -4.2908  -14.8367 O   0  0  0  0  0  0  0  0  0  0  0  0
  2  1  1  1
  2  3  1  0
  4  2  1  0
  4  6  1  0
  4  5  1  1
  6 13  1  0
  6  7  2  0
  9  8  1  0
  9 11  1  0
 10  9  2  0
 12 11  1  1
 12 14  1  0
 13 12  1  0
 14 16  1  0
 14 15  2  0
 16 17  1  0
 17 21  1  0
 17 18  1  6
 18 19  1  0
 19 23  1  0
 20 19  2  0
 21 22  1  0
 24 21  2  0
M  END
$$$$
