VND.pdb
     RDKit          3D

 24 23  0  0  1  0  0  0  0  0999 V2000
   13.0050  -11.9083  -10.2501 C   0  0  0  0  0  0  0  0  0  0  0  0
   13.5875  -12.0302  -11.6537 C   0  0  2  0  0  0  0  0  0  0  0  0
   13.7303  -13.4511  -12.0783 C   0  0  0  0  0  0  0  0  0  0  0  0
   14.8147  -11.1883  -11.7860 C   0  0  2  0  0  0  0  0  0  0  0  0
   15.9536  -11.7665  -11.1365 N   0  0  0  0  0  0  0  0  0  0  0  0
   14.6395   -9.7822  -11.3724 C   0  0  0  0  0  0  0  0  0  0  0  0
   13.7246   -9.0412  -11.8135 O   0  0  0  0  0  0  0  0  0  0  0  0
   14.4290   -5.7271   -7.8406 N   0  0  0  0  0  0  0  0  0  0  0  0
   15.6930   -6.2568   -8.1150 C   0  0  0  0  0  0  0  0  0  0  0  0
   16.7339   -5.5194   -7.9974 O   0  0  0  0  0  0  0  0  0  0  0  0
   15.8428   -7.6614   -8.5386 C   0  0  0  0  0  0  0  0  0  0  0  0
   15.4669   -7.8461  -10.0003 C   0  0  2  0  0  0  0  0  0  0  0  0
   15.5380   -9.2216  -10.4325 N   0  0  0  0  0  0  0  0  0  0  0  0
   16.3384   -6.9762  -10.8641 C   0  0  0  0  0  0  0  0  0  0  0  0
   17.5605   -7.2504  -11.0147 O   0  0  0  0  0  0  0  0  0  0  0  0
   15.8176   -5.8365  -11.5268 N   0  0  0  0  0  0  0  0  0  0  0  0
   16.6636   -4.9643  -12.3586 C   0  0  1  0  0  0  0  0  0  0  0  0
   16.4388   -5.4072  -13.7876 C   0  0  0  0  0  0  0  0  0  0  0  0
   17.2023   -4.6459  -14.7807 C   0  0  0  0  0  0  0  0  0  0  0  0
   17.9681   -3.7195  -14.4154 O   0  0  0  0  0  0  0  0  0  0  0  0
   16.2389   -3.5466  -12.1823 C   0  0  0  0  0  0  0  0  0  0  0  0
   17.2084   -2.5390  -12.0161 O   0  0  0  0  0  0  0  0  0  0  0  0
   17.1452   -4.8765  -16.1650 O   0  0  0  0  0  0  0  0  0  0  0  0
   15.0370   -3.2066  -12.1754 O   0  0  0  0  0  0  0  0  0  0  0  0
  2  1  1  1
  2  3  1  0
  4  2  1  0
  4  6  1  0
  4  5  1  1
  6 13  1  0
  6  7  2  0
  9  8  1  0
  9 11  1  0
 10  9  2  0
 12 11  1  1
 12 14  1  0
 13 12  1  0
 14 16  1  0
 14 15  2  0
 16 17  1  0
 17 21  1  0
 17 18  1  6
 18 19  1  0
 19 23  1  0
 20 19  2  0
 21 22  1  0
 24 21  2  0
M  END
$$$$
