VND.pdb
     RDKit          3D

 24 23  0  0  1  0  0  0  0  0999 V2000
   20.1023  -13.2775  -19.3006 C   0  0  0  0  0  0  0  0  0  0  0  0
   21.5486  -12.8249  -19.4666 C   0  0  2  0  0  0  0  0  0  0  0  0
   22.4825  -13.9773  -19.6058 C   0  0  0  0  0  0  0  0  0  0  0  0
   21.9074  -11.8236  -18.4173 C   0  0  2  0  0  0  0  0  0  0  0  0
   22.2833  -12.4343  -17.1768 N   0  0  0  0  0  0  0  0  0  0  0  0
   20.8882  -10.7794  -18.1941 C   0  0  0  0  0  0  0  0  0  0  0  0
   20.4876  -10.0009  -19.0963 O   0  0  0  0  0  0  0  0  0  0  0  0
   17.3581   -7.7737  -16.1110 N   0  0  0  0  0  0  0  0  0  0  0  0
   17.0443   -9.1094  -15.8441 C   0  0  0  0  0  0  0  0  0  0  0  0
   15.8888   -9.4140  -15.3822 O   0  0  0  0  0  0  0  0  0  0  0  0
   18.0318  -10.1766  -16.0907 C   0  0  0  0  0  0  0  0  0  0  0  0
   19.3538   -9.6099  -16.5837 C   0  0  2  0  0  0  0  0  0  0  0  0
   20.3217  -10.6315  -16.9048 N   0  0  0  0  0  0  0  0  0  0  0  0
   19.9119   -8.6570  -15.5625 C   0  0  0  0  0  0  0  0  0  0  0  0
   20.3000   -9.0831  -14.4403 O   0  0  0  0  0  0  0  0  0  0  0  0
   20.0172   -7.2687  -15.8285 N   0  0  0  0  0  0  0  0  0  0  0  0
   20.5735   -6.3264  -14.8431 C   0  0  1  0  0  0  0  0  0  0  0  0
   21.8675   -5.8173  -15.4392 C   0  0  0  0  0  0  0  0  0  0  0  0
   22.5320   -4.7833  -14.6406 C   0  0  0  0  0  0  0  0  0  0  0  0
   22.0690   -4.4545  -13.5201 O   0  0  0  0  0  0  0  0  0  0  0  0
   19.6184   -5.2006  -14.6391 C   0  0  0  0  0  0  0  0  0  0  0  0
   19.0187   -4.5787  -15.7510 O   0  0  0  0  0  0  0  0  0  0  0  0
   23.6923   -4.1012  -15.0423 O   0  0  0  0  0  0  0  0  0  0  0  0
   19.3208   -4.7764  -13.5025 O   0  0  0  0  0  0  0  0  0  0  0  0
  2  1  1  1
  2  3  1  0
  4  2  1  0
  4  6  1  0
  4  5  1  1
  6 13  1  0
  6  7  2  0
  9  8  1  0
  9 11  1  0
 10  9  2  0
 12 11  1  1
 12 14  1  0
 13 12  1  0
 14 16  1  0
 14 15  2  0
 16 17  1  0
 17 21  1  0
 17 18  1  6
 18 19  1  0
 19 23  1  0
 20 19  2  0
 21 22  1  0
 24 21  2  0
M  END
$$$$
