VND.pdb
     RDKit          3D

 24 23  0  0  1  0  0  0  0  0999 V2000
   22.9597  -17.1077  -15.6574 C   0  0  0  0  0  0  0  0  0  0  0  0
   21.8832  -16.7211  -16.6653 C   0  0  2  0  0  0  0  0  0  0  0  0
   21.4384  -17.8848  -17.4823 C   0  0  0  0  0  0  0  0  0  0  0  0
   22.2981  -15.5099  -17.4356 C   0  0  2  0  0  0  0  0  0  0  0  0
   23.3313  -15.7887  -18.3885 N   0  0  0  0  0  0  0  0  0  0  0  0
   22.6620  -14.3486  -16.6002 C   0  0  0  0  0  0  0  0  0  0  0  0
   21.9742  -13.9578  -15.6231 O   0  0  0  0  0  0  0  0  0  0  0  0
   27.2582  -14.1678  -16.3279 N   0  0  0  0  0  0  0  0  0  0  0  0
   26.5001  -13.2664  -15.5753 C   0  0  0  0  0  0  0  0  0  0  0  0
   26.4621  -13.3733  -14.2993 O   0  0  0  0  0  0  0  0  0  0  0  0
   25.7416  -12.1881  -16.2363 C   0  0  0  0  0  0  0  0  0  0  0  0
   24.2437  -12.4423  -16.1761 C   0  0  2  0  0  0  0  0  0  0  0  0
   23.8419  -13.6251  -16.8994 N   0  0  0  0  0  0  0  0  0  0  0  0
   23.5017  -11.2364  -16.6836 C   0  0  0  0  0  0  0  0  0  0  0  0
   23.3423  -11.0627  -17.9229 O   0  0  0  0  0  0  0  0  0  0  0  0
   22.9658  -10.2714  -15.7942 N   0  0  0  0  0  0  0  0  0  0  0  0
   22.1630   -9.1328  -16.2713 C   0  0  1  0  0  0  0  0  0  0  0  0
   20.9559   -9.7337  -16.9573 C   0  0  0  0  0  0  0  0  0  0  0  0
   19.9703   -8.7489  -17.4126 C   0  0  0  0  0  0  0  0  0  0  0  0
   20.2580   -7.9458  -18.3347 O   0  0  0  0  0  0  0  0  0  0  0  0
   21.7387   -8.3030  -15.1082 C   0  0  0  0  0  0  0  0  0  0  0  0
   22.0778   -8.7014  -13.8009 O   0  0  0  0  0  0  0  0  0  0  0  0
   18.6767   -8.6239  -16.8798 O   0  0  0  0  0  0  0  0  0  0  0  0
   21.0826   -7.2489  -15.2452 O   0  0  0  0  0  0  0  0  0  0  0  0
  2  1  1  6
  2  3  1  0
  4  2  1  0
  4  6  1  0
  4  5  1  1
  6 13  1  0
  6  7  2  0
  9  8  1  0
  9 11  1  0
 10  9  2  0
 12 11  1  6
 12 14  1  0
 13 12  1  0
 14 16  1  0
 14 15  2  0
 16 17  1  0
 17 21  1  0
 17 18  1  1
 18 19  1  0
 19 23  1  0
 20 19  2  0
 21 22  1  0
 24 21  2  0
M  END
$$$$
