VND.pdb
     RDKit          3D

 24 23  0  0  1  0  0  0  0  0999 V2000
   19.8757  -10.9898  -16.6475 C   0  0  0  0  0  0  0  0  0  0  0  0
   20.9589  -10.3279  -17.4918 C   0  0  2  0  0  0  0  0  0  0  0  0
   21.7672  -11.3260  -18.2467 C   0  0  0  0  0  0  0  0  0  0  0  0
   21.7373   -9.3507  -16.6722 C   0  0  2  0  0  0  0  0  0  0  0  0
   22.6993   -9.9864  -15.8215 N   0  0  0  0  0  0  0  0  0  0  0  0
   20.9095   -8.4021  -15.9017 C   0  0  0  0  0  0  0  0  0  0  0  0
   20.0191   -7.6823  -16.4209 O   0  0  0  0  0  0  0  0  0  0  0  0
   18.5778   -5.9638  -12.1156 N   0  0  0  0  0  0  0  0  0  0  0  0
   19.0869   -7.1370  -11.5517 C   0  0  0  0  0  0  0  0  0  0  0  0
   18.7224   -7.4909  -10.3757 O   0  0  0  0  0  0  0  0  0  0  0  0
   20.0417   -7.9765  -12.2990 C   0  0  0  0  0  0  0  0  0  0  0  0
   20.3418   -7.3936  -13.6709 C   0  0  2  0  0  0  0  0  0  0  0  0
   21.1144   -8.2824  -14.5057 N   0  0  0  0  0  0  0  0  0  0  0  0
   21.0413   -6.0706  -13.5202 C   0  0  0  0  0  0  0  0  0  0  0  0
   22.2565   -6.0283  -13.1840 O   0  0  0  0  0  0  0  0  0  0  0  0
   20.3633   -4.8470  -13.7494 N   0  0  0  0  0  0  0  0  0  0  0  0
   21.0841   -3.6079  -14.0859 C   0  0  1  0  0  0  0  0  0  0  0  0
   21.7705   -3.8721  -15.4079 C   0  0  0  0  0  0  0  0  0  0  0  0
   22.4916   -2.7181  -15.9528 C   0  0  0  0  0  0  0  0  0  0  0  0
   22.5441   -1.6423  -15.3063 O   0  0  0  0  0  0  0  0  0  0  0  0
   20.1096   -2.4885  -14.2223 C   0  0  0  0  0  0  0  0  0  0  0  0
   20.4661   -1.1924  -13.8029 O   0  0  0  0  0  0  0  0  0  0  0  0
   23.1561   -2.7162  -17.1902 O   0  0  0  0  0  0  0  0  0  0  0  0
   18.9679   -2.6531  -14.7019 O   0  0  0  0  0  0  0  0  0  0  0  0
  2  1  1  1
  2  3  1  0
  4  2  1  0
  4  6  1  0
  4  5  1  1
  6 13  1  0
  6  7  2  0
  9  8  1  0
  9 11  1  0
 10  9  2  0
 12 11  1  1
 12 14  1  0
 13 12  1  0
 14 16  1  0
 14 15  2  0
 16 17  1  0
 17 21  1  0
 17 18  1  6
 18 19  1  0
 19 23  1  0
 20 19  2  0
 21 22  1  0
 24 21  2  0
M  END
$$$$
