TWE.pdb
     RDKit          3D

 31 32  0  0  1  0  0  0  0  0999 V2000
    7.0197  -15.4852   18.1785 C   0  0  0  0  0  0  0  0  0  0  0  0
    7.9133  -15.5628   19.3956 C   0  0  1  0  0  0  0  0  0  0  0  0
    9.2316  -15.3240   19.0520 O   0  0  0  0  0  0  0  0  0  0  0  0
    7.4380  -14.5424   20.3986 C   0  0  2  0  0  0  0  0  0  0  0  0
    7.6135  -13.2310   19.7656 N   0  0  0  0  0  0  0  0  0  0  0  0
    8.3173  -14.6080   21.5902 C   0  0  0  0  0  0  0  0  0  0  0  0
    9.3580  -13.8681   21.6423 O   0  0  0  0  0  0  0  0  0  0  0  0
    8.0084  -15.4761   22.6556 N   0  0  0  0  0  0  0  0  0  0  0  0
    8.9342  -15.5752   23.7812 C   0  0  1  0  0  0  0  0  0  0  0  0
    8.1157  -15.8681   24.9790 C   0  0  0  0  0  0  0  0  0  0  0  0
    7.1753  -14.8311   25.4133 C   0  0  0  0  0  0  0  0  0  0  0  0
    5.7904  -14.9278   25.4992 C   0  0  0  0  0  0  0  0  0  0  0  0
    5.2649  -13.7638   25.9120 N   0  0  0  0  0  0  0  0  0  0  0  0
    6.2840  -12.8951   26.1021 C   0  0  0  0  0  0  0  0  0  0  0  0
    6.3102  -11.5874   26.5278 C   0  0  0  0  0  0  0  0  0  0  0  0
    7.4942  -10.8852   26.6660 C   0  0  0  0  0  0  0  0  0  0  0  0
    8.6859  -11.5231   26.3652 C   0  0  0  0  0  0  0  0  0  0  0  0
    8.6459  -12.8252   25.9419 C   0  0  0  0  0  0  0  0  0  0  0  0
    7.4662  -13.5431   25.7976 C   0  0  0  0  0  0  0  0  0  0  0  0
   10.0891  -16.3994   23.4925 C   0  0  0  0  0  0  0  0  0  0  0  0
    9.8796  -17.4716   22.8212 O   0  0  0  0  0  0  0  0  0  0  0  0
   11.3913  -16.0958   23.8977 N   0  0  0  0  0  0  0  0  0  0  0  0
   12.4817  -17.0182   23.5980 C   0  0  1  0  0  0  0  0  0  0  0  0
   13.6621  -16.2388   23.0988 C   0  0  0  0  0  0  0  0  0  0  0  0
   14.8692  -17.0431   22.7671 C   0  0  0  0  0  0  0  0  0  0  0  0
   15.9738  -16.1073   22.3710 C   0  0  0  0  0  0  0  0  0  0  0  0
   15.8549  -15.4420   21.3152 O   0  0  0  0  0  0  0  0  0  0  0  0
   12.7696  -17.8981   24.7463 C   0  0  0  0  0  0  0  0  0  0  0  0
   12.3940  -17.6198   25.9301 O   0  0  0  0  0  0  0  0  0  0  0  0
   17.1189  -15.9522   23.1291 O   0  0  0  0  0  0  0  0  0  0  0  0
   13.4674  -19.0833   24.6001 O   0  0  0  0  0  0  0  0  0  0  0  0
  2  3  1  0
  2  1  1  6
  4  6  1  0
  4  2  1  0
  4  5  1  6
  6  7  2  0
  8  6  1  0
  8  9  1  0
  9 10  1  1
 11 10  1  0
 11 12  2  0
 13 12  1  0
 14 19  2  0
 14 13  1  0
 15 14  1  0
 16 15  2  0
 17 16  1  0
 17 18  2  0
 18 19  1  0
 19 11  1  0
 20 21  2  0
 20  9  1  0
 22 20  1  0
 23 22  1  0
 23 24  1  1
 25 24  1  0
 26 25  1  0
 27 26  2  0
 28 31  1  0
 28 23  1  0
 29 28  2  0
 30 26  1  0
M  END
$$$$
