TWE.pdb
     RDKit          3D

 31 32  0  0  1  0  0  0  0  0999 V2000
    6.7506  -16.0735   18.5572 C   0  0  0  0  0  0  0  0  0  0  0  0
    7.7722  -15.9972   19.6693 C   0  0  1  0  0  0  0  0  0  0  0  0
    9.0228  -15.6887   19.1658 O   0  0  0  0  0  0  0  0  0  0  0  0
    7.3260  -14.9440   20.6515 C   0  0  2  0  0  0  0  0  0  0  0  0
    7.3761  -13.6655   19.9344 N   0  0  0  0  0  0  0  0  0  0  0  0
    8.3029  -14.8943   21.7652 C   0  0  0  0  0  0  0  0  0  0  0  0
    9.3158  -14.1201   21.6760 O   0  0  0  0  0  0  0  0  0  0  0  0
    8.1165  -15.6913   22.9115 N   0  0  0  0  0  0  0  0  0  0  0  0
    9.1007  -15.6258   23.9889 C   0  0  1  0  0  0  0  0  0  0  0  0
    8.3515  -15.7710   25.2571 C   0  0  0  0  0  0  0  0  0  0  0  0
    7.3522  -14.7431   25.5621 C   0  0  0  0  0  0  0  0  0  0  0  0
    5.9678  -14.8703   25.5181 C   0  0  0  0  0  0  0  0  0  0  0  0
    5.3807  -13.7063   25.8370 N   0  0  0  0  0  0  0  0  0  0  0  0
    6.3583  -12.8074   26.0930 C   0  0  0  0  0  0  0  0  0  0  0  0
    6.3160  -11.4859   26.4726 C   0  0  0  0  0  0  0  0  0  0  0  0
    7.4662  -10.7511   26.6988 C   0  0  0  0  0  0  0  0  0  0  0  0
    8.6943  -11.3698   26.5366 C   0  0  0  0  0  0  0  0  0  0  0  0
    8.7227  -12.6858   26.1578 C   0  0  0  0  0  0  0  0  0  0  0  0
    7.5777  -13.4364   25.9265 C   0  0  0  0  0  0  0  0  0  0  0  0
   10.2581  -16.4620   23.7491 C   0  0  0  0  0  0  0  0  0  0  0  0
   10.0394  -17.6170   23.2368 O   0  0  0  0  0  0  0  0  0  0  0  0
   11.5720  -16.0864   24.0401 N   0  0  0  0  0  0  0  0  0  0  0  0
   12.6714  -17.0047   23.7616 C   0  0  1  0  0  0  0  0  0  0  0  0
   13.8533  -16.2224   23.2706 C   0  0  0  0  0  0  0  0  0  0  0  0
   14.3401  -16.5797   21.9107 C   0  0  0  0  0  0  0  0  0  0  0  0
   15.6777  -15.9337   21.6961 C   0  0  0  0  0  0  0  0  0  0  0  0
   16.1421  -15.1897   22.5919 O   0  0  0  0  0  0  0  0  0  0  0  0
   12.9502  -17.8733   24.9207 C   0  0  0  0  0  0  0  0  0  0  0  0
   13.4613  -19.0324   24.7973 O   0  0  0  0  0  0  0  0  0  0  0  0
   16.4172  -16.1293   20.5450 O   0  0  0  0  0  0  0  0  0  0  0  0
   12.6710  -17.4742   26.2152 O   0  0  0  0  0  0  0  0  0  0  0  0
  2  3  1  0
  2  1  1  6
  4  6  1  0
  4  2  1  0
  4  5  1  6
  6  7  2  0
  8  6  1  0
  8  9  1  0
  9 10  1  1
 11 10  1  0
 11 12  2  0
 13 12  1  0
 14 19  2  0
 14 13  1  0
 15 14  1  0
 16 15  2  0
 17 16  1  0
 17 18  2  0
 18 19  1  0
 19 11  1  0
 20 21  2  0
 20  9  1  0
 22 20  1  0
 23 22  1  0
 23 24  1  1
 25 24  1  0
 26 25  1  0
 27 26  2  0
 28 31  1  0
 28 23  1  0
 29 28  2  0
 30 26  1  0
M  END
$$$$
