TWE.pdb
     RDKit          3D

 31 32  0  0  1  0  0  0  0  0999 V2000
    6.7050  -15.4147   19.1012 C   0  0  0  0  0  0  0  0  0  0  0  0
    7.4790  -15.1074   20.3632 C   0  0  1  0  0  0  0  0  0  0  0  0
    6.6287  -14.6858   21.3693 O   0  0  0  0  0  0  0  0  0  0  0  0
    8.2143  -16.3545   20.7839 C   0  0  2  0  0  0  0  0  0  0  0  0
    7.1878  -17.3180   21.1953 N   0  0  0  0  0  0  0  0  0  0  0  0
    9.0525  -16.0319   21.9632 C   0  0  0  0  0  0  0  0  0  0  0  0
   10.0066  -15.1902   21.8424 O   0  0  0  0  0  0  0  0  0  0  0  0
    8.7993  -16.6455   23.2055 N   0  0  0  0  0  0  0  0  0  0  0  0
    9.6554  -16.3222   24.3441 C   0  0  1  0  0  0  0  0  0  0  0  0
    8.7952  -16.3670   25.5477 C   0  0  0  0  0  0  0  0  0  0  0  0
    7.7057  -15.3895   25.6248 C   0  0  0  0  0  0  0  0  0  0  0  0
    6.3560  -15.6058   25.3676 C   0  0  0  0  0  0  0  0  0  0  0  0
    5.6630  -14.4660   25.5161 N   0  0  0  0  0  0  0  0  0  0  0  0
    6.5359  -13.4952   25.8695 C   0  0  0  0  0  0  0  0  0  0  0  0
    6.3612  -12.1610   26.1553 C   0  0  0  0  0  0  0  0  0  0  0  0
    7.4178  -11.3445   26.5171 C   0  0  0  0  0  0  0  0  0  0  0  0
    8.6874  -11.8922   26.5921 C   0  0  0  0  0  0  0  0  0  0  0  0
    8.8479  -13.2218   26.3046 C   0  0  0  0  0  0  0  0  0  0  0  0
    7.7981  -14.0540   25.9395 C   0  0  0  0  0  0  0  0  0  0  0  0
   10.9048  -17.0536   24.3377 C   0  0  0  0  0  0  0  0  0  0  0  0
   10.8245  -18.3328   24.2988 O   0  0  0  0  0  0  0  0  0  0  0  0
   12.1661  -16.4535   24.3714 N   0  0  0  0  0  0  0  0  0  0  0  0
   13.3679  -17.2813   24.3598 C   0  0  1  0  0  0  0  0  0  0  0  0
   14.4795  -16.5253   23.6944 C   0  0  0  0  0  0  0  0  0  0  0  0
   15.8024  -17.2063   23.6825 C   0  0  0  0  0  0  0  0  0  0  0  0
   16.7900  -16.3212   22.9797 C   0  0  0  0  0  0  0  0  0  0  0  0
   17.8383  -16.8302   22.5177 O   0  0  0  0  0  0  0  0  0  0  0  0
   13.6882  -17.7793   25.7107 C   0  0  0  0  0  0  0  0  0  0  0  0
   13.3959  -17.1287   26.7648 O   0  0  0  0  0  0  0  0  0  0  0  0
   16.5854  -14.9634   22.8232 O   0  0  0  0  0  0  0  0  0  0  0  0
   14.3275  -18.9897   25.9093 O   0  0  0  0  0  0  0  0  0  0  0  0
  2  3  1  0
  2  1  1  6
  4  6  1  0
  4  2  1  0
  4  5  1  1
  6  7  2  0
  8  6  1  0
  8  9  1  0
  9 10  1  1
 11 10  1  0
 11 12  2  0
 13 12  1  0
 14 19  2  0
 14 13  1  0
 15 14  1  0
 16 15  2  0
 17 16  1  0
 17 18  2  0
 18 19  1  0
 19 11  1  0
 20 21  2  0
 20  9  1  0
 22 20  1  0
 23 22  1  0
 23 24  1  1
 25 24  1  0
 26 25  1  0
 27 26  2  0
 28 31  1  0
 28 23  1  0
 29 28  2  0
 30 26  1  0
M  END
$$$$
