TWE.pdb
     RDKit          3D

 31 32  0  0  1  0  0  0  0  0999 V2000
    7.9269  -14.9724   16.4341 C   0  0  0  0  0  0  0  0  0  0  0  0
    8.3572  -15.0956   17.8783 C   0  0  1  0  0  0  0  0  0  0  0  0
    9.7361  -15.0746   17.9826 O   0  0  0  0  0  0  0  0  0  0  0  0
    7.7536  -13.9511   18.6522 C   0  0  2  0  0  0  0  0  0  0  0  0
    8.3284  -12.7252   18.0883 N   0  0  0  0  0  0  0  0  0  0  0  0
    8.1821  -14.0611   20.0669 C   0  0  0  0  0  0  0  0  0  0  0  0
    9.2892  -13.5351   20.4288 O   0  0  0  0  0  0  0  0  0  0  0  0
    7.3768  -14.7373   21.0040 N   0  0  0  0  0  0  0  0  0  0  0  0
    7.8034  -14.7884   22.4001 C   0  0  1  0  0  0  0  0  0  0  0  0
    6.5723  -14.7572   23.2212 C   0  0  0  0  0  0  0  0  0  0  0  0
    6.7428  -14.7043   24.6760 C   0  0  0  0  0  0  0  0  0  0  0  0
    6.8714  -15.7772   25.5517 C   0  0  0  0  0  0  0  0  0  0  0  0
    6.9826  -15.3388   26.8154 N   0  0  0  0  0  0  0  0  0  0  0  0
    6.9301  -13.9875   26.7897 C   0  0  0  0  0  0  0  0  0  0  0  0
    7.0088  -13.0451   27.7886 C   0  0  0  0  0  0  0  0  0  0  0  0
    6.9461  -11.6887   27.5231 C   0  0  0  0  0  0  0  0  0  0  0  0
    6.7995  -11.2732   26.2104 C   0  0  0  0  0  0  0  0  0  0  0  0
    6.7217  -12.2216   25.2253 C   0  0  0  0  0  0  0  0  0  0  0  0
    6.7825  -13.5861   25.4755 C   0  0  0  0  0  0  0  0  0  0  0  0
    8.7971  -15.8112   22.6505 C   0  0  0  0  0  0  0  0  0  0  0  0
    8.6832  -16.9017   21.9856 O   0  0  0  0  0  0  0  0  0  0  0  0
    9.8505  -15.6768   23.5585 N   0  0  0  0  0  0  0  0  0  0  0  0
   10.8631  -16.7227   23.6603 C   0  0  1  0  0  0  0  0  0  0  0  0
   12.1548  -16.2135   23.0925 C   0  0  0  0  0  0  0  0  0  0  0  0
   13.3193  -17.1308   23.2219 C   0  0  0  0  0  0  0  0  0  0  0  0
   14.5095  -16.4879   22.5718 C   0  0  0  0  0  0  0  0  0  0  0  0
   14.9592  -16.9795   21.5100 O   0  0  0  0  0  0  0  0  0  0  0  0
   10.9612  -17.2409   25.0377 C   0  0  0  0  0  0  0  0  0  0  0  0
   10.3704  -16.6862   26.0191 O   0  0  0  0  0  0  0  0  0  0  0  0
   15.1287  -15.3719   23.1022 O   0  0  0  0  0  0  0  0  0  0  0  0
   11.7047  -18.3668   25.3423 O   0  0  0  0  0  0  0  0  0  0  0  0
  2  3  1  0
  2  1  1  6
  4  6  1  0
  4  2  1  0
  4  5  1  6
  6  7  2  0
  8  6  1  0
  8  9  1  0
  9 10  1  1
 11 10  1  0
 11 12  2  0
 13 12  1  0
 14 19  2  0
 14 13  1  0
 15 14  1  0
 16 15  2  0
 17 16  1  0
 17 18  2  0
 18 19  1  0
 19 11  1  0
 20 21  2  0
 20  9  1  0
 22 20  1  0
 23 22  1  0
 23 24  1  1
 25 24  1  0
 26 25  1  0
 27 26  2  0
 28 31  1  0
 28 23  1  0
 29 28  2  0
 30 26  1  0
M  END
$$$$
