TWE.pdb
     RDKit          3D

 31 32  0  0  1  0  0  0  0  0999 V2000
    7.9621  -18.9611   17.5841 C   0  0  0  0  0  0  0  0  0  0  0  0
    8.4044  -18.3643   18.9011 C   0  0  1  0  0  0  0  0  0  0  0  0
    9.7608  -18.5531   19.0939 O   0  0  0  0  0  0  0  0  0  0  0  0
    8.0743  -16.8933   18.8897 C   0  0  2  0  0  0  0  0  0  0  0  0
    8.8999  -16.2949   17.8353 N   0  0  0  0  0  0  0  0  0  0  0  0
    8.4806  -16.3092   20.1901 C   0  0  0  0  0  0  0  0  0  0  0  0
    9.6813  -15.9000   20.3452 O   0  0  0  0  0  0  0  0  0  0  0  0
    7.5524  -16.2046   21.2443 N   0  0  0  0  0  0  0  0  0  0  0  0
    7.9919  -15.6557   22.5247 C   0  0  1  0  0  0  0  0  0  0  0  0
    6.7691  -15.2590   23.2582 C   0  0  0  0  0  0  0  0  0  0  0  0
    6.9194  -14.9408   24.6811 C   0  0  0  0  0  0  0  0  0  0  0  0
    7.0868  -15.8339   25.7341 C   0  0  0  0  0  0  0  0  0  0  0  0
    7.1623  -15.1735   26.9001 N   0  0  0  0  0  0  0  0  0  0  0  0
    7.0477  -13.8523   26.6344 C   0  0  0  0  0  0  0  0  0  0  0  0
    7.0708  -12.7449   27.4501 C   0  0  0  0  0  0  0  0  0  0  0  0
    6.9486  -11.4617   26.9475 C   0  0  0  0  0  0  0  0  0  0  0  0
    6.7988  -11.2931   25.5813 C   0  0  0  0  0  0  0  0  0  0  0  0
    6.7769  -12.4039   24.7802 C   0  0  0  0  0  0  0  0  0  0  0  0
    6.8977  -13.6979   25.2692 C   0  0  0  0  0  0  0  0  0  0  0  0
    8.9785  -16.4838   23.1861 C   0  0  0  0  0  0  0  0  0  0  0  0
    8.8224  -17.7531   23.0932 O   0  0  0  0  0  0  0  0  0  0  0  0
   10.0677  -15.9847   23.9049 N   0  0  0  0  0  0  0  0  0  0  0  0
   11.1619  -16.8740   24.2811 C   0  0  1  0  0  0  0  0  0  0  0  0
   12.4346  -16.3769   23.6621 C   0  0  0  0  0  0  0  0  0  0  0  0
   13.6648  -17.1281   24.0316 C   0  0  0  0  0  0  0  0  0  0  0  0
   14.8271  -16.5389   23.2869 C   0  0  0  0  0  0  0  0  0  0  0  0
   14.9958  -16.8484   22.0839 O   0  0  0  0  0  0  0  0  0  0  0  0
   11.2230  -17.0590   25.7432 C   0  0  0  0  0  0  0  0  0  0  0  0
   10.5811  -16.3153   26.5524 O   0  0  0  0  0  0  0  0  0  0  0  0
   15.7196  -15.6662   23.8802 O   0  0  0  0  0  0  0  0  0  0  0  0
   11.9853  -18.0581   26.3208 O   0  0  0  0  0  0  0  0  0  0  0  0
  2  3  1  0
  2  1  1  6
  4  6  1  0
  4  2  1  0
  4  5  1  6
  6  7  2  0
  8  6  1  0
  8  9  1  0
  9 10  1  1
 11 10  1  0
 11 12  2  0
 13 12  1  0
 14 19  2  0
 14 13  1  0
 15 14  1  0
 16 15  2  0
 17 16  1  0
 17 18  2  0
 18 19  1  0
 19 11  1  0
 20 21  2  0
 20  9  1  0
 22 20  1  0
 23 22  1  0
 23 24  1  1
 25 24  1  0
 26 25  1  0
 27 26  2  0
 28 31  1  0
 28 23  1  0
 29 28  2  0
 30 26  1  0
M  END
$$$$
