TWE.pdb
     RDKit          3D

 31 32  0  0  1  0  0  0  0  0999 V2000
    7.9334  -15.1350   16.3964 C   0  0  0  0  0  0  0  0  0  0  0  0
    8.3856  -15.1473   17.8392 C   0  0  1  0  0  0  0  0  0  0  0  0
    9.7498  -14.9370   17.9271 O   0  0  0  0  0  0  0  0  0  0  0  0
    7.6380  -14.0677   18.5797 C   0  0  2  0  0  0  0  0  0  0  0  0
    8.0387  -12.7964   17.9677 N   0  0  0  0  0  0  0  0  0  0  0  0
    8.0862  -14.0685   19.9926 C   0  0  0  0  0  0  0  0  0  0  0  0
    9.1734  -13.4739   20.3053 O   0  0  0  0  0  0  0  0  0  0  0  0
    7.3210  -14.7169   20.9816 N   0  0  0  0  0  0  0  0  0  0  0  0
    7.8029  -14.7235   22.3605 C   0  0  1  0  0  0  0  0  0  0  0  0
    6.6049  -14.6807   23.2286 C   0  0  0  0  0  0  0  0  0  0  0  0
    6.8320  -14.6434   24.6762 C   0  0  0  0  0  0  0  0  0  0  0  0
    6.9168  -15.7247   25.5468 C   0  0  0  0  0  0  0  0  0  0  0  0
    7.1048  -15.2982   26.8055 N   0  0  0  0  0  0  0  0  0  0  0  0
    7.1465  -13.9465   26.7815 C   0  0  0  0  0  0  0  0  0  0  0  0
    7.3280  -13.0143   27.7766 C   0  0  0  0  0  0  0  0  0  0  0  0
    7.3510  -11.6563   27.5133 C   0  0  0  0  0  0  0  0  0  0  0  0
    7.1859  -11.2283   26.2068 C   0  0  0  0  0  0  0  0  0  0  0  0
    7.0056  -12.1666   25.2254 C   0  0  0  0  0  0  0  0  0  0  0  0
    6.9795  -13.5325   25.4734 C   0  0  0  0  0  0  0  0  0  0  0  0
    8.8169  -15.7287   22.6003 C   0  0  0  0  0  0  0  0  0  0  0  0
    8.7199  -16.8176   21.9302 O   0  0  0  0  0  0  0  0  0  0  0  0
    9.8725  -15.5794   23.5035 N   0  0  0  0  0  0  0  0  0  0  0  0
   10.8877  -16.6214   23.6170 C   0  0  1  0  0  0  0  0  0  0  0  0
   12.2007  -16.0841   23.1298 C   0  0  0  0  0  0  0  0  0  0  0  0
   13.3435  -17.0356   23.1822 C   0  0  0  0  0  0  0  0  0  0  0  0
   14.5463  -16.3727   22.5767 C   0  0  0  0  0  0  0  0  0  0  0  0
   15.6793  -16.6230   23.0513 O   0  0  0  0  0  0  0  0  0  0  0  0
   10.9245  -17.1872   24.9787 C   0  0  0  0  0  0  0  0  0  0  0  0
   11.2294  -18.4021   25.2047 O   0  0  0  0  0  0  0  0  0  0  0  0
   14.4500  -15.4951   21.5134 O   0  0  0  0  0  0  0  0  0  0  0  0
   10.6288  -16.4243   26.0938 O   0  0  0  0  0  0  0  0  0  0  0  0
  2  3  1  0
  2  1  1  6
  4  6  1  0
  4  2  1  0
  4  5  1  6
  6  7  2  0
  8  6  1  0
  8  9  1  0
  9 10  1  1
 11 10  1  0
 11 12  2  0
 13 12  1  0
 14 19  2  0
 14 13  1  0
 15 14  1  0
 16 15  2  0
 17 16  1  0
 17 18  2  0
 18 19  1  0
 19 11  1  0
 20 21  2  0
 20  9  1  0
 22 20  1  0
 23 22  1  0
 23 24  1  1
 25 24  1  0
 26 25  1  0
 27 26  2  0
 28 31  1  0
 28 23  1  0
 29 28  2  0
 30 26  1  0
M  END
$$$$
