TWE.pdb
     RDKit          3D

 31 32  0  0  1  0  0  0  0  0999 V2000
    8.4184  -13.0840   20.2153 C   0  0  0  0  0  0  0  0  0  0  0  0
    7.3215  -14.0952   20.4611 C   0  0  1  0  0  0  0  0  0  0  0  0
    6.4593  -14.1554   19.3814 O   0  0  0  0  0  0  0  0  0  0  0  0
    7.9607  -15.4396   20.6996 C   0  0  2  0  0  0  0  0  0  0  0  0
    6.8625  -16.3770   20.9576 N   0  0  0  0  0  0  0  0  0  0  0  0
    8.7984  -15.3533   21.9194 C   0  0  0  0  0  0  0  0  0  0  0  0
    9.8070  -14.5685   21.9325 O   0  0  0  0  0  0  0  0  0  0  0  0
    8.4855  -16.1272   23.0539 N   0  0  0  0  0  0  0  0  0  0  0  0
    9.3431  -16.0371   24.2329 C   0  0  1  0  0  0  0  0  0  0  0  0
    8.4524  -16.1153   25.4123 C   0  0  0  0  0  0  0  0  0  0  0  0
    7.3833  -15.1171   25.5072 C   0  0  0  0  0  0  0  0  0  0  0  0
    6.0277  -15.3040   25.2583 C   0  0  0  0  0  0  0  0  0  0  0  0
    5.3587  -14.1521   25.4230 N   0  0  0  0  0  0  0  0  0  0  0  0
    6.2535  -13.2023   25.7789 C   0  0  0  0  0  0  0  0  0  0  0  0
    6.1076  -11.8678   26.0788 C   0  0  0  0  0  0  0  0  0  0  0  0
    7.1831  -11.0760   26.4403 C   0  0  0  0  0  0  0  0  0  0  0  0
    8.4420  -11.6496   26.5002 C   0  0  0  0  0  0  0  0  0  0  0  0
    8.5737  -12.9792   26.1987 C   0  0  0  0  0  0  0  0  0  0  0  0
    7.5047  -13.7868   25.8339 C   0  0  0  0  0  0  0  0  0  0  0  0
   10.4994  -16.9053   24.1585 C   0  0  0  0  0  0  0  0  0  0  0  0
   10.2732  -18.1522   23.9623 O   0  0  0  0  0  0  0  0  0  0  0  0
   11.8199  -16.4671   24.2868 N   0  0  0  0  0  0  0  0  0  0  0  0
   12.9022  -17.4387   24.4057 C   0  0  1  0  0  0  0  0  0  0  0  0
   14.1758  -16.8192   23.9118 C   0  0  0  0  0  0  0  0  0  0  0  0
   14.1712  -16.3902   22.4870 C   0  0  0  0  0  0  0  0  0  0  0  0
   15.5013  -15.7719   22.1691 C   0  0  0  0  0  0  0  0  0  0  0  0
   16.3239  -15.5928   23.0980 O   0  0  0  0  0  0  0  0  0  0  0  0
   12.9786  -17.9907   25.7714 C   0  0  0  0  0  0  0  0  0  0  0  0
   12.4008  -17.4404   26.7630 O   0  0  0  0  0  0  0  0  0  0  0  0
   15.8529  -15.3922   20.8876 O   0  0  0  0  0  0  0  0  0  0  0  0
   13.6860  -19.1454   26.0529 O   0  0  0  0  0  0  0  0  0  0  0  0
  2  3  1  0
  2  1  1  6
  4  6  1  0
  4  2  1  0
  4  5  1  1
  6  7  2  0
  8  6  1  0
  8  9  1  0
  9 10  1  1
 11 10  1  0
 11 12  2  0
 13 12  1  0
 14 19  2  0
 14 13  1  0
 15 14  1  0
 16 15  2  0
 17 16  1  0
 17 18  2  0
 18 19  1  0
 19 11  1  0
 20 21  2  0
 20  9  1  0
 22 20  1  0
 23 22  1  0
 23 24  1  1
 25 24  1  0
 26 25  1  0
 27 26  2  0
 28 31  1  0
 28 23  1  0
 29 28  2  0
 30 26  1  0
M  END
$$$$
