TWE.pdb
     RDKit          3D

 31 32  0  0  1  0  0  0  0  0999 V2000
    6.9148  -15.7236   18.6240 C   0  0  0  0  0  0  0  0  0  0  0  0
    7.8167  -15.7680   19.8367 C   0  0  1  0  0  0  0  0  0  0  0  0
    9.1215  -15.4699   19.4884 O   0  0  0  0  0  0  0  0  0  0  0  0
    7.3018  -14.7745   20.8472 C   0  0  2  0  0  0  0  0  0  0  0  0
    7.4268  -13.4524   20.2243 N   0  0  0  0  0  0  0  0  0  0  0  0
    8.1824  -14.8152   22.0388 C   0  0  0  0  0  0  0  0  0  0  0  0
    9.1535  -13.9893   22.1288 O   0  0  0  0  0  0  0  0  0  0  0  0
    7.9506  -15.7539   23.0632 N   0  0  0  0  0  0  0  0  0  0  0  0
    8.8893  -15.8318   24.1797 C   0  0  1  0  0  0  0  0  0  0  0  0
    8.0756  -15.8850   25.4149 C   0  0  0  0  0  0  0  0  0  0  0  0
    7.0927  -14.8156   25.6119 C   0  0  0  0  0  0  0  0  0  0  0  0
    5.7150  -14.8908   25.4371 C   0  0  0  0  0  0  0  0  0  0  0  0
    5.1462  -13.7008   25.6859 N   0  0  0  0  0  0  0  0  0  0  0  0
    6.1295  -12.8360   26.0244 C   0  0  0  0  0  0  0  0  0  0  0  0
    6.1030  -11.5086   26.3840 C   0  0  0  0  0  0  0  0  0  0  0  0
    7.2544  -10.8147   26.7112 C   0  0  0  0  0  0  0  0  0  0  0  0
    8.4672  -11.4818   26.6738 C   0  0  0  0  0  0  0  0  0  0  0  0
    8.4799  -12.8033   26.3137 C   0  0  0  0  0  0  0  0  0  0  0  0
    7.3336  -13.5132   25.9821 C   0  0  0  0  0  0  0  0  0  0  0  0
    9.9317  -16.8154   23.9743 C   0  0  0  0  0  0  0  0  0  0  0  0
    9.5531  -18.0066   23.6884 O   0  0  0  0  0  0  0  0  0  0  0  0
   11.2987  -16.5422   24.0693 N   0  0  0  0  0  0  0  0  0  0  0  0
   12.2539  -17.6379   24.1979 C   0  0  1  0  0  0  0  0  0  0  0  0
   13.5205  -17.2727   23.4820 C   0  0  0  0  0  0  0  0  0  0  0  0
   13.7888  -15.8147   23.3544 C   0  0  0  0  0  0  0  0  0  0  0  0
   15.0974  -15.6294   22.6432 C   0  0  0  0  0  0  0  0  0  0  0  0
   15.4110  -14.4847   22.2396 O   0  0  0  0  0  0  0  0  0  0  0  0
   12.4375  -18.0255   25.6092 C   0  0  0  0  0  0  0  0  0  0  0  0
   11.8806  -17.3988   26.5668 O   0  0  0  0  0  0  0  0  0  0  0  0
   15.9706  -16.6765   22.4166 O   0  0  0  0  0  0  0  0  0  0  0  0
   13.2294  -19.0993   25.9736 O   0  0  0  0  0  0  0  0  0  0  0  0
  2  3  1  0
  2  1  1  6
  4  6  1  0
  4  2  1  0
  4  5  1  6
  6  7  2  0
  8  6  1  0
  8  9  1  0
  9 10  1  1
 11 10  1  0
 11 12  2  0
 13 12  1  0
 14 19  2  0
 14 13  1  0
 15 14  1  0
 16 15  2  0
 17 16  1  0
 17 18  2  0
 18 19  1  0
 19 11  1  0
 20 21  2  0
 20  9  1  0
 22 20  1  0
 23 22  1  0
 23 24  1  1
 25 24  1  0
 26 25  1  0
 27 26  2  0
 28 31  1  0
 28 23  1  0
 29 28  2  0
 30 26  1  0
M  END
$$$$
