TWE.pdb
     RDKit          3D

 31 32  0  0  1  0  0  0  0  0999 V2000
    7.5833  -19.1173   18.0355 C   0  0  0  0  0  0  0  0  0  0  0  0
    8.1521  -18.4901   19.2881 C   0  0  1  0  0  0  0  0  0  0  0  0
    9.5339  -18.4596   19.2370 O   0  0  0  0  0  0  0  0  0  0  0  0
    7.5993  -17.0929   19.4118 C   0  0  2  0  0  0  0  0  0  0  0  0
    8.0865  -16.3530   18.2428 N   0  0  0  0  0  0  0  0  0  0  0  0
    8.1664  -16.4681   20.6305 C   0  0  0  0  0  0  0  0  0  0  0  0
    9.2609  -15.8136   20.5477 O   0  0  0  0  0  0  0  0  0  0  0  0
    7.5050  -16.5930   21.8679 N   0  0  0  0  0  0  0  0  0  0  0  0
    8.0942  -15.9745   23.0529 C   0  0  1  0  0  0  0  0  0  0  0  0
    6.9712  -15.6222   23.9502 C   0  0  0  0  0  0  0  0  0  0  0  0
    7.3158  -15.0809   25.2680 C   0  0  0  0  0  0  0  0  0  0  0  0
    7.7568  -15.7861   26.3828 C   0  0  0  0  0  0  0  0  0  0  0  0
    7.9462  -14.9534   27.4182 N   0  0  0  0  0  0  0  0  0  0  0  0
    7.6370  -13.7034   27.0047 C   0  0  0  0  0  0  0  0  0  0  0  0
    7.6655  -12.4883   27.6489 C   0  0  0  0  0  0  0  0  0  0  0  0
    7.3142  -11.3121   27.0108 C   0  0  0  0  0  0  0  0  0  0  0  0
    6.9229  -11.3656   25.6836 C   0  0  0  0  0  0  0  0  0  0  0  0
    6.8983  -12.5817   25.0539 C   0  0  0  0  0  0  0  0  0  0  0  0
    7.2473  -13.7707   25.6804 C   0  0  0  0  0  0  0  0  0  0  0  0
    9.2168  -16.7209   23.5811 C   0  0  0  0  0  0  0  0  0  0  0  0
    9.1528  -17.9986   23.4938 O   0  0  0  0  0  0  0  0  0  0  0  0
   10.3417  -16.1363   24.1685 N   0  0  0  0  0  0  0  0  0  0  0  0
   11.4964  -16.9602   24.5112 C   0  0  1  0  0  0  0  0  0  0  0  0
   12.7215  -16.3824   23.8667 C   0  0  0  0  0  0  0  0  0  0  0  0
   14.0013  -17.0704   24.1874 C   0  0  0  0  0  0  0  0  0  0  0  0
   15.0888  -16.4774   23.3399 C   0  0  0  0  0  0  0  0  0  0  0  0
   15.4260  -15.2856   23.5333 O   0  0  0  0  0  0  0  0  0  0  0  0
   11.6037  -17.1516   25.9698 C   0  0  0  0  0  0  0  0  0  0  0  0
   10.8802  -16.5100   26.7972 O   0  0  0  0  0  0  0  0  0  0  0  0
   15.7330  -17.1987   22.3525 O   0  0  0  0  0  0  0  0  0  0  0  0
   12.5017  -18.0458   26.5240 O   0  0  0  0  0  0  0  0  0  0  0  0
  2  3  1  0
  2  1  1  6
  4  6  1  0
  4  2  1  0
  4  5  1  6
  6  7  2  0
  8  6  1  0
  8  9  1  0
  9 10  1  1
 11 10  1  0
 11 12  2  0
 13 12  1  0
 14 19  2  0
 14 13  1  0
 15 14  1  0
 16 15  2  0
 17 16  1  0
 17 18  2  0
 18 19  1  0
 19 11  1  0
 20 21  2  0
 20  9  1  0
 22 20  1  0
 23 22  1  0
 23 24  1  1
 25 24  1  0
 26 25  1  0
 27 26  2  0
 28 31  1  0
 28 23  1  0
 29 28  2  0
 30 26  1  0
M  END
$$$$
