DWH.pdb
     RDKit          3D

 33 35  0  0  1  0  0  0  0  0999 V2000
   27.8280  -22.9220  -18.5062 N   0  0  0  0  0  0  0  0  0  0  0  0
   28.1113  -22.5669  -17.1331 C   0  0  1  0  0  0  0  0  0  0  0  0
   29.5599  -22.2650  -16.9518 C   0  0  0  0  0  0  0  0  0  0  0  0
   30.3529  -23.4156  -17.4564 C   0  0  0  0  0  0  0  0  0  0  0  0
   29.7823  -24.4434  -17.9005 O   0  0  0  0  0  0  0  0  0  0  0  0
   27.1906  -21.5453  -16.6810 C   0  0  0  0  0  0  0  0  0  0  0  0
   27.2992  -21.0895  -15.5149 O   0  0  0  0  0  0  0  0  0  0  0  0
   31.7470  -23.4138  -17.4630 O   0  0  0  0  0  0  0  0  0  0  0  0
   26.1360  -20.9991  -17.4831 N   0  0  0  0  0  0  0  0  0  0  0  0
   25.2369  -19.9951  -16.9688 C   0  0  1  0  0  0  0  0  0  0  0  0
   24.6863  -19.0598  -18.0012 C   0  0  0  0  0  0  0  0  0  0  0  0
   23.8594  -17.9609  -17.5017 C   0  0  0  0  0  0  0  0  0  0  0  0
   23.6861  -17.6609  -16.1643 C   0  0  0  0  0  0  0  0  0  0  0  0
   22.8552  -16.6121  -16.1169 N   0  0  0  0  0  0  0  0  0  0  0  0
   22.4966  -16.2369  -17.3724 C   0  0  0  0  0  0  0  0  0  0  0  0
   21.6835  -15.2308  -17.8560 C   0  0  0  0  0  0  0  0  0  0  0  0
   21.5170  -15.0907  -19.2053 C   0  0  0  0  0  0  0  0  0  0  0  0
   22.1208  -15.9056  -20.1366 C   0  0  0  0  0  0  0  0  0  0  0  0
   22.9282  -16.9044  -19.6433 C   0  0  0  0  0  0  0  0  0  0  0  0
   23.1127  -17.0676  -18.2836 C   0  0  0  0  0  0  0  0  0  0  0  0
   24.2174  -20.5747  -16.0641 C   0  0  0  0  0  0  0  0  0  0  0  0
   23.4982  -21.5622  -16.4220 O   0  0  0  0  0  0  0  0  0  0  0  0
   24.0479  -20.0167  -14.7778 N   0  0  0  0  0  0  0  0  0  0  0  0
   23.0425  -20.5709  -13.8345 C   0  0  1  0  0  0  0  0  0  0  0  0
   23.4758  -20.0328  -12.4716 C   0  0  0  0  0  0  0  0  0  0  0  0
   22.4715  -20.3412  -11.4481 C   0  0  0  0  0  0  0  0  0  0  0  0
   21.2837  -21.0249  -11.7455 C   0  0  0  0  0  0  0  0  0  0  0  0
   20.5719  -21.1591  -10.6204 N   0  0  0  0  0  0  0  0  0  0  0  0
   21.2461  -20.5938   -9.6136 C   0  0  0  0  0  0  0  0  0  0  0  0
   22.3908  -20.1056  -10.1345 N   0  0  0  0  0  0  0  0  0  0  0  0
   21.7343  -20.0265  -14.2269 C   0  0  0  0  0  0  0  0  0  0  0  0
   20.6075  -20.8170  -14.1618 O   0  0  0  0  0  0  0  0  0  0  0  0
   21.6151  -18.8567  -14.6220 O   0  0  0  0  0  0  0  0  0  0  0  0
  2  1  1  6
  2  3  1  0
  3  4  1  0
  4  8  1  0
  5  4  2  0
  6  2  1  0
  6  7  2  0
  9  6  1  0
 10 11  1  6
 10  9  1  0
 12 11  1  0
 12 20  1  0
 13 14  1  0
 13 12  2  0
 14 15  1  0
 15 20  2  0
 15 16  1  0
 16 17  2  0
 17 18  1  0
 19 18  2  0
 20 19  1  0
 21 10  1  0
 22 21  2  0
 23 21  1  0
 24 25  1  1
 24 23  1  0
 25 26  1  0
 26 30  1  0
 27 26  2  0
 27 28  1  0
 28 29  1  0
 30 29  2  0
 31 32  1  0
 31 24  1  0
 33 31  2  0
M  END
$$$$
