DWH.pdb
     RDKit          3D

 33 35  0  0  1  0  0  0  0  0999 V2000
   28.3103  -21.4706  -14.5891 N   0  0  0  0  0  0  0  0  0  0  0  0
   27.8433  -20.4628  -13.6629 C   0  0  1  0  0  0  0  0  0  0  0  0
   27.1456  -19.3612  -14.3857 C   0  0  0  0  0  0  0  0  0  0  0  0
   28.1150  -18.7014  -15.2979 C   0  0  0  0  0  0  0  0  0  0  0  0
   28.2287  -19.0741  -16.4927 O   0  0  0  0  0  0  0  0  0  0  0  0
   27.1019  -21.0808  -12.5840 C   0  0  0  0  0  0  0  0  0  0  0  0
   26.0786  -21.7606  -12.8490 O   0  0  0  0  0  0  0  0  0  0  0  0
   28.9342  -17.6527  -14.8822 O   0  0  0  0  0  0  0  0  0  0  0  0
   27.4549  -20.9739  -11.1991 N   0  0  0  0  0  0  0  0  0  0  0  0
   26.5688  -21.4280  -10.1554 C   0  0  1  0  0  0  0  0  0  0  0  0
   27.2329  -21.6824   -8.8370 C   0  0  0  0  0  0  0  0  0  0  0  0
   27.2817  -20.5518   -7.9095 C   0  0  0  0  0  0  0  0  0  0  0  0
   26.6385  -19.3465   -8.1148 C   0  0  0  0  0  0  0  0  0  0  0  0
   26.9381  -18.5744   -7.0628 N   0  0  0  0  0  0  0  0  0  0  0  0
   27.7454  -19.2448   -6.2001 C   0  0  0  0  0  0  0  0  0  0  0  0
   28.3165  -18.9033   -4.9898 C   0  0  0  0  0  0  0  0  0  0  0  0
   29.0945  -19.8144   -4.3323 C   0  0  0  0  0  0  0  0  0  0  0  0
   29.3529  -21.0805   -4.8079 C   0  0  0  0  0  0  0  0  0  0  0  0
   28.7793  -21.4094   -6.0144 C   0  0  0  0  0  0  0  0  0  0  0  0
   27.9889  -20.5063   -6.6993 C   0  0  0  0  0  0  0  0  0  0  0  0
   25.3414  -20.6030  -10.0718 C   0  0  0  0  0  0  0  0  0  0  0  0
   25.3910  -19.3718   -9.7521 O   0  0  0  0  0  0  0  0  0  0  0  0
   24.0944  -21.2013  -10.3574 N   0  0  0  0  0  0  0  0  0  0  0  0
   22.9942  -20.4119  -10.9693 C   0  0  1  0  0  0  0  0  0  0  0  0
   23.5620  -19.9651  -12.3156 C   0  0  0  0  0  0  0  0  0  0  0  0
   22.6201  -19.0796  -13.0085 C   0  0  0  0  0  0  0  0  0  0  0  0
   21.3940  -18.7001  -12.4436 C   0  0  0  0  0  0  0  0  0  0  0  0
   20.7562  -17.8955  -13.3015 N   0  0  0  0  0  0  0  0  0  0  0  0
   21.5145  -17.7398  -14.3918 C   0  0  0  0  0  0  0  0  0  0  0  0
   22.6361  -18.4631  -14.1948 N   0  0  0  0  0  0  0  0  0  0  0  0
   21.8559  -21.3245  -11.1515 C   0  0  0  0  0  0  0  0  0  0  0  0
   20.5909  -20.9398  -10.7634 O   0  0  0  0  0  0  0  0  0  0  0  0
   22.0054  -22.4495  -11.6524 O   0  0  0  0  0  0  0  0  0  0  0  0
  2  1  1  6
  2  3  1  0
  3  4  1  0
  4  8  1  0
  5  4  2  0
  6  2  1  0
  6  7  2  0
  9  6  1  0
 10 11  1  1
 10  9  1  0
 12 11  1  0
 12 20  1  0
 13 14  1  0
 13 12  2  0
 14 15  1  0
 15 20  2  0
 15 16  1  0
 16 17  2  0
 17 18  1  0
 19 18  2  0
 20 19  1  0
 21 10  1  0
 22 21  2  0
 23 21  1  0
 24 25  1  6
 24 23  1  0
 25 26  1  0
 26 30  1  0
 27 26  2  0
 27 28  1  0
 28 29  1  0
 30 29  2  0
 31 32  1  0
 31 24  1  0
 33 31  2  0
M  END
$$$$
