DWH.pdb
     RDKit          3D

 33 35  0  0  1  0  0  0  0  0999 V2000
   21.5120  -14.0982  -17.4140 N   0  0  0  0  0  0  0  0  0  0  0  0
   20.1872  -13.5307  -17.5335 C   0  0  1  0  0  0  0  0  0  0  0  0
   19.1514  -14.5022  -17.0799 C   0  0  0  0  0  0  0  0  0  0  0  0
   19.2390  -15.7209  -17.9253 C   0  0  0  0  0  0  0  0  0  0  0  0
   20.1749  -15.8633  -18.7517 O   0  0  0  0  0  0  0  0  0  0  0  0
   20.1451  -12.2244  -16.9110 C   0  0  0  0  0  0  0  0  0  0  0  0
   19.0556  -11.6000  -16.8605 O   0  0  0  0  0  0  0  0  0  0  0  0
   18.3034  -16.7514  -17.8460 O   0  0  0  0  0  0  0  0  0  0  0  0
   21.2816  -11.5708  -16.3322 N   0  0  0  0  0  0  0  0  0  0  0  0
   21.1691  -10.2824  -15.6933 C   0  0  1  0  0  0  0  0  0  0  0  0
   22.2816   -9.9544  -14.7453 C   0  0  0  0  0  0  0  0  0  0  0  0
   22.2480   -8.6195  -14.1471 C   0  0  0  0  0  0  0  0  0  0  0  0
   21.5501   -8.2966  -12.9993 C   0  0  0  0  0  0  0  0  0  0  0  0
   21.7525   -6.9900  -12.7889 N   0  0  0  0  0  0  0  0  0  0  0  0
   22.5517   -6.4741  -13.7589 C   0  0  0  0  0  0  0  0  0  0  0  0
   23.0529   -5.2077  -13.9881 C   0  0  0  0  0  0  0  0  0  0  0  0
   23.8592   -4.9892  -15.0697 C   0  0  0  0  0  0  0  0  0  0  0  0
   24.2135   -5.9713  -15.9674 C   0  0  0  0  0  0  0  0  0  0  0  0
   23.7081   -7.2286  -15.7292 C   0  0  0  0  0  0  0  0  0  0  0  0
   22.8903   -7.4757  -14.6431 C   0  0  0  0  0  0  0  0  0  0  0  0
   20.8566   -9.2075  -16.6633 C   0  0  0  0  0  0  0  0  0  0  0  0
   21.4710   -9.1186  -17.7747 O   0  0  0  0  0  0  0  0  0  0  0  0
   19.8525   -8.2676  -16.3427 N   0  0  0  0  0  0  0  0  0  0  0  0
   19.5457   -7.1394  -17.2597 C   0  0  1  0  0  0  0  0  0  0  0  0
   18.4440   -7.6868  -18.1662 C   0  0  0  0  0  0  0  0  0  0  0  0
   18.0102   -6.6690  -19.1290 C   0  0  0  0  0  0  0  0  0  0  0  0
   18.7673   -5.5194  -19.3969 C   0  0  0  0  0  0  0  0  0  0  0  0
   18.1231   -4.7837  -20.3102 N   0  0  0  0  0  0  0  0  0  0  0  0
   16.9873   -5.4062  -20.6423 C   0  0  0  0  0  0  0  0  0  0  0  0
   16.9379   -6.5430  -19.9177 N   0  0  0  0  0  0  0  0  0  0  0  0
   19.0478   -6.0313  -16.4315 C   0  0  0  0  0  0  0  0  0  0  0  0
   19.2050   -4.7283  -16.8511 O   0  0  0  0  0  0  0  0  0  0  0  0
   18.4817   -6.2403  -15.3477 O   0  0  0  0  0  0  0  0  0  0  0  0
  2  1  1  1
  2  3  1  0
  3  4  1  0
  4  8  1  0
  5  4  2  0
  6  2  1  0
  6  7  2  0
  9  6  1  0
 10 11  1  6
 10  9  1  0
 12 11  1  0
 12 20  1  0
 13 14  1  0
 13 12  2  0
 14 15  1  0
 15 20  2  0
 15 16  1  0
 16 17  2  0
 17 18  1  0
 19 18  2  0
 20 19  1  0
 21 10  1  0
 22 21  2  0
 23 21  1  0
 24 25  1  6
 24 23  1  0
 25 26  1  0
 26 30  1  0
 27 26  2  0
 27 28  1  0
 28 29  1  0
 30 29  2  0
 31 32  1  0
 31 24  1  0
 33 31  2  0
M  END
$$$$
