DWH.pdb
     RDKit          3D

 33 35  0  0  1  0  0  0  0  0999 V2000
   27.4772  -22.6880  -16.6226 N   0  0  0  0  0  0  0  0  0  0  0  0
   27.6422  -21.4742  -15.8539 C   0  0  1  0  0  0  0  0  0  0  0  0
   27.2783  -20.2785  -16.6664 C   0  0  0  0  0  0  0  0  0  0  0  0
   28.4524  -19.8856  -17.4877 C   0  0  0  0  0  0  0  0  0  0  0  0
   29.5642  -20.4499  -17.3300 O   0  0  0  0  0  0  0  0  0  0  0  0
   26.9741  -21.5977  -14.5755 C   0  0  0  0  0  0  0  0  0  0  0  0
   25.7684  -21.9506  -14.5412 O   0  0  0  0  0  0  0  0  0  0  0  0
   28.3820  -18.8879  -18.4589 O   0  0  0  0  0  0  0  0  0  0  0  0
   27.5992  -21.3413  -13.3116 N   0  0  0  0  0  0  0  0  0  0  0  0
   26.8503  -21.3632  -12.0790 C   0  0  1  0  0  0  0  0  0  0  0  0
   27.6878  -21.3459  -10.8372 C   0  0  0  0  0  0  0  0  0  0  0  0
   27.0317  -20.8615   -9.6223 C   0  0  0  0  0  0  0  0  0  0  0  0
   25.6646  -20.7284   -9.4745 C   0  0  0  0  0  0  0  0  0  0  0  0
   25.4631  -20.2444   -8.2425 N   0  0  0  0  0  0  0  0  0  0  0  0
   26.6497  -20.0666   -7.6054 C   0  0  0  0  0  0  0  0  0  0  0  0
   26.9798  -19.6094   -6.3447 C   0  0  0  0  0  0  0  0  0  0  0  0
   28.2938  -19.5492   -5.9738 C   0  0  0  0  0  0  0  0  0  0  0  0
   29.3352  -19.9232   -6.7933 C   0  0  0  0  0  0  0  0  0  0  0  0
   28.9945  -20.3766   -8.0468 C   0  0  0  0  0  0  0  0  0  0  0  0
   27.6735  -20.4468   -8.4464 C   0  0  0  0  0  0  0  0  0  0  0  0
   25.7450  -20.3771  -12.0839 C   0  0  0  0  0  0  0  0  0  0  0  0
   25.9711  -19.1286  -12.1861 O   0  0  0  0  0  0  0  0  0  0  0  0
   24.4151  -20.8400  -11.9759 N   0  0  0  0  0  0  0  0  0  0  0  0
   23.2794  -20.0099  -12.4546 C   0  0  1  0  0  0  0  0  0  0  0  0
   23.5243  -19.8765  -13.9570 C   0  0  0  0  0  0  0  0  0  0  0  0
   22.3907  -19.2147  -14.6113 C   0  0  0  0  0  0  0  0  0  0  0  0
   22.1557  -17.8374  -14.4914 C   0  0  0  0  0  0  0  0  0  0  0  0
   21.0592  -17.5259  -15.1921 N   0  0  0  0  0  0  0  0  0  0  0  0
   20.5780  -18.6383  -15.7570 C   0  0  0  0  0  0  0  0  0  0  0  0
   21.3966  -19.6472  -15.3938 N   0  0  0  0  0  0  0  0  0  0  0  0
   22.0470  -20.7648  -12.1842 C   0  0  0  0  0  0  0  0  0  0  0  0
   20.8563  -20.0997  -11.9885 O   0  0  0  0  0  0  0  0  0  0  0  0
   22.0499  -22.0039  -12.1257 O   0  0  0  0  0  0  0  0  0  0  0  0
  2  1  1  6
  2  3  1  0
  3  4  1  0
  4  8  1  0
  5  4  2  0
  6  2  1  0
  6  7  2  0
  9  6  1  0
 10 11  1  1
 10  9  1  0
 12 11  1  0
 12 20  1  0
 13 14  1  0
 13 12  2  0
 14 15  1  0
 15 20  2  0
 15 16  1  0
 16 17  2  0
 17 18  1  0
 19 18  2  0
 20 19  1  0
 21 10  1  0
 22 21  2  0
 23 21  1  0
 24 25  1  6
 24 23  1  0
 25 26  1  0
 26 30  1  0
 27 26  2  0
 27 28  1  0
 28 29  1  0
 30 29  2  0
 31 32  1  0
 31 24  1  0
 33 31  2  0
M  END
$$$$
