DWH.pdb
     RDKit          3D

 33 35  0  0  1  0  0  0  0  0999 V2000
   24.9421  -24.3359  -16.2906 N   0  0  0  0  0  0  0  0  0  0  0  0
   26.1474  -23.9211  -15.6074 C   0  0  1  0  0  0  0  0  0  0  0  0
   27.0579  -23.1909  -16.5349 C   0  0  0  0  0  0  0  0  0  0  0  0
   26.2686  -22.1703  -17.2716 C   0  0  0  0  0  0  0  0  0  0  0  0
   26.8122  -21.4407  -18.1385 O   0  0  0  0  0  0  0  0  0  0  0  0
   25.8135  -23.2343  -14.3775 C   0  0  0  0  0  0  0  0  0  0  0  0
   25.5497  -23.9056  -13.3483 O   0  0  0  0  0  0  0  0  0  0  0  0
   24.9076  -21.9732  -17.0428 O   0  0  0  0  0  0  0  0  0  0  0  0
   25.7592  -21.8089  -14.2398 N   0  0  0  0  0  0  0  0  0  0  0  0
   25.4832  -21.1815  -12.9706 C   0  0  1  0  0  0  0  0  0  0  0  0
   26.4825  -20.1465  -12.5533 C   0  0  0  0  0  0  0  0  0  0  0  0
   27.5125  -20.5858  -11.6115 C   0  0  0  0  0  0  0  0  0  0  0  0
   28.7677  -21.0302  -11.9799 C   0  0  0  0  0  0  0  0  0  0  0  0
   29.4020  -21.3535  -10.8460 N   0  0  0  0  0  0  0  0  0  0  0  0
   28.5968  -21.1303   -9.7748 C   0  0  0  0  0  0  0  0  0  0  0  0
   28.7764  -21.2913   -8.4149 C   0  0  0  0  0  0  0  0  0  0  0  0
   27.7619  -20.9651   -7.5592 C   0  0  0  0  0  0  0  0  0  0  0  0
   26.5436  -20.4747   -7.9730 C   0  0  0  0  0  0  0  0  0  0  0  0
   26.3760  -20.3188   -9.3296 C   0  0  0  0  0  0  0  0  0  0  0  0
   27.3858  -20.6418  -10.2159 C   0  0  0  0  0  0  0  0  0  0  0  0
   24.0716  -20.7460  -12.8623 C   0  0  0  0  0  0  0  0  0  0  0  0
   23.6739  -20.0216  -11.8941 O   0  0  0  0  0  0  0  0  0  0  0  0
   23.1546  -21.1440  -13.8600 N   0  0  0  0  0  0  0  0  0  0  0  0
   21.7444  -20.6771  -13.8271 C   0  0  1  0  0  0  0  0  0  0  0  0
   21.4646  -20.2394  -15.2641 C   0  0  0  0  0  0  0  0  0  0  0  0
   22.2300  -19.0337  -15.5982 C   0  0  0  0  0  0  0  0  0  0  0  0
   21.9308  -17.7792  -15.0476 C   0  0  0  0  0  0  0  0  0  0  0  0
   22.7926  -16.8792  -15.5350 N   0  0  0  0  0  0  0  0  0  0  0  0
   23.6321  -17.4960  -16.3733 C   0  0  0  0  0  0  0  0  0  0  0  0
   23.2753  -18.7968  -16.3975 N   0  0  0  0  0  0  0  0  0  0  0  0
   20.9144  -21.8320  -13.4544 C   0  0  0  0  0  0  0  0  0  0  0  0
   19.6764  -21.6389  -12.8811 O   0  0  0  0  0  0  0  0  0  0  0  0
   21.3044  -22.9942  -13.6443 O   0  0  0  0  0  0  0  0  0  0  0  0
  2  1  1  6
  2  3  1  0
  3  4  1  0
  4  8  1  0
  5  4  2  0
  6  2  1  0
  6  7  2  0
  9  6  1  0
 10 11  1  6
 10  9  1  0
 12 11  1  0
 12 20  1  0
 13 14  1  0
 13 12  2  0
 14 15  1  0
 15 20  2  0
 15 16  1  0
 16 17  2  0
 17 18  1  0
 19 18  2  0
 20 19  1  0
 21 10  1  0
 22 21  2  0
 23 21  1  0
 24 25  1  6
 24 23  1  0
 25 26  1  0
 26 30  1  0
 27 26  2  0
 27 28  1  0
 28 29  1  0
 30 29  2  0
 31 32  1  0
 31 24  1  0
 33 31  2  0
M  END
$$$$
