DWH.pdb
     RDKit          3D

 33 35  0  0  1  0  0  0  0  0999 V2000
   27.5775  -22.9254  -15.9831 N   0  0  0  0  0  0  0  0  0  0  0  0
   27.6728  -21.6435  -15.3202 C   0  0  1  0  0  0  0  0  0  0  0  0
   27.1740  -20.5514  -16.2039 C   0  0  0  0  0  0  0  0  0  0  0  0
   28.1366  -20.3652  -17.3203 C   0  0  0  0  0  0  0  0  0  0  0  0
   29.2734  -19.8714  -17.1124 O   0  0  0  0  0  0  0  0  0  0  0  0
   27.0740  -21.7158  -14.0041 C   0  0  0  0  0  0  0  0  0  0  0  0
   25.9216  -22.2008  -13.8767 O   0  0  0  0  0  0  0  0  0  0  0  0
   27.8331  -20.7228  -18.6331 O   0  0  0  0  0  0  0  0  0  0  0  0
   27.7118  -21.2645  -12.8028 N   0  0  0  0  0  0  0  0  0  0  0  0
   26.9968  -21.1788  -11.5529 C   0  0  1  0  0  0  0  0  0  0  0  0
   27.8469  -20.8384  -10.3674 C   0  0  0  0  0  0  0  0  0  0  0  0
   27.1537  -20.7393   -9.0827 C   0  0  0  0  0  0  0  0  0  0  0  0
   25.7912  -20.8978   -8.9175 C   0  0  0  0  0  0  0  0  0  0  0  0
   25.5451  -20.7171   -7.6139 N   0  0  0  0  0  0  0  0  0  0  0  0
   26.6990  -20.4509   -6.9482 C   0  0  0  0  0  0  0  0  0  0  0  0
   26.9809  -20.2018   -5.6193 C   0  0  0  0  0  0  0  0  0  0  0  0
   28.2728  -19.9714   -5.2376 C   0  0  0  0  0  0  0  0  0  0  0  0
   29.3373  -19.9712   -6.1110 C   0  0  0  0  0  0  0  0  0  0  0  0
   29.0446  -20.2200   -7.4321 C   0  0  0  0  0  0  0  0  0  0  0  0
   27.7467  -20.4556   -7.8439 C   0  0  0  0  0  0  0  0  0  0  0  0
   25.7639  -20.3668  -11.6737 C   0  0  0  0  0  0  0  0  0  0  0  0
   25.7835  -19.2056  -12.1947 O   0  0  0  0  0  0  0  0  0  0  0  0
   24.5445  -20.9005  -11.2015 N   0  0  0  0  0  0  0  0  0  0  0  0
   23.2446  -20.3196  -11.6264 C   0  0  1  0  0  0  0  0  0  0  0  0
   23.0687  -20.8133  -13.0617 C   0  0  0  0  0  0  0  0  0  0  0  0
   23.4154  -19.7585  -14.0200 C   0  0  0  0  0  0  0  0  0  0  0  0
   23.8638  -18.4937  -13.6129 C   0  0  0  0  0  0  0  0  0  0  0  0
   24.0995  -17.7506  -14.7005 N   0  0  0  0  0  0  0  0  0  0  0  0
   23.8238  -18.4783  -15.7879 C   0  0  0  0  0  0  0  0  0  0  0  0
   23.4122  -19.6879  -15.3552 N   0  0  0  0  0  0  0  0  0  0  0  0
   22.2108  -20.8795  -10.7436 C   0  0  0  0  0  0  0  0  0  0  0  0
   21.0180  -20.2134  -10.5646 O   0  0  0  0  0  0  0  0  0  0  0  0
   22.3858  -21.9520  -10.1453 O   0  0  0  0  0  0  0  0  0  0  0  0
  2  1  1  6
  2  3  1  0
  3  4  1  0
  4  8  1  0
  5  4  2  0
  6  2  1  0
  6  7  2  0
  9  6  1  0
 10 11  1  1
 10  9  1  0
 12 11  1  0
 12 20  1  0
 13 14  1  0
 13 12  2  0
 14 15  1  0
 15 20  2  0
 15 16  1  0
 16 17  2  0
 17 18  1  0
 19 18  2  0
 20 19  1  0
 21 10  1  0
 22 21  2  0
 23 21  1  0
 24 25  1  6
 24 23  1  0
 25 26  1  0
 26 30  1  0
 27 26  2  0
 27 28  1  0
 28 29  1  0
 30 29  2  0
 31 32  1  0
 31 24  1  0
 33 31  2  0
M  END
$$$$
