DWH.pdb
     RDKit          3D

 33 35  0  0  1  0  0  0  0  0999 V2000
   25.3832  -11.2798  -20.3653 N   0  0  0  0  0  0  0  0  0  0  0  0
   24.0112  -10.9875  -20.0132 C   0  0  1  0  0  0  0  0  0  0  0  0
   23.1447  -12.1829  -20.2199 C   0  0  0  0  0  0  0  0  0  0  0  0
   23.1311  -12.5165  -21.6676 C   0  0  0  0  0  0  0  0  0  0  0  0
   23.1774  -11.6095  -22.5362 O   0  0  0  0  0  0  0  0  0  0  0  0
   23.9506  -10.3815  -18.6999 C   0  0  0  0  0  0  0  0  0  0  0  0
   23.2497  -10.9176  -17.8050 O   0  0  0  0  0  0  0  0  0  0  0  0
   23.0675  -13.8307  -22.1287 O   0  0  0  0  0  0  0  0  0  0  0  0
   24.6476   -9.1846  -18.3319 N   0  0  0  0  0  0  0  0  0  0  0  0
   24.6668   -8.7086  -16.9703 C   0  0  1  0  0  0  0  0  0  0  0  0
   26.0306   -8.6205  -16.3570 C   0  0  0  0  0  0  0  0  0  0  0  0
   26.8282   -9.8471  -16.3768 C   0  0  0  0  0  0  0  0  0  0  0  0
   28.0682   -9.9613  -16.9750 C   0  0  0  0  0  0  0  0  0  0  0  0
   28.4593  -11.2291  -16.7951 N   0  0  0  0  0  0  0  0  0  0  0  0
   27.5148  -11.9209  -16.1059 C   0  0  0  0  0  0  0  0  0  0  0  0
   27.4410  -13.2287  -15.6681 C   0  0  0  0  0  0  0  0  0  0  0  0
   26.3402  -13.6441  -14.9729 C   0  0  0  0  0  0  0  0  0  0  0  0
   25.2744  -12.8256  -14.6728 C   0  0  0  0  0  0  0  0  0  0  0  0
   25.3587  -11.5252  -15.1142 C   0  0  0  0  0  0  0  0  0  0  0  0
   26.4606  -11.0804  -15.8195 C   0  0  0  0  0  0  0  0  0  0  0  0
   23.8392   -7.4926  -16.7961 C   0  0  0  0  0  0  0  0  0  0  0  0
   23.8138   -6.5760  -17.6791 O   0  0  0  0  0  0  0  0  0  0  0  0
   23.0621   -7.3562  -15.6247 N   0  0  0  0  0  0  0  0  0  0  0  0
   22.2056   -6.1603  -15.4149 C   0  0  1  0  0  0  0  0  0  0  0  0
   21.0129   -6.6923  -14.6217 C   0  0  0  0  0  0  0  0  0  0  0  0
   20.0272   -7.3082  -15.5165 C   0  0  0  0  0  0  0  0  0  0  0  0
   20.1878   -7.3267  -16.9095 C   0  0  0  0  0  0  0  0  0  0  0  0
   19.1377   -7.9514  -17.4549 N   0  0  0  0  0  0  0  0  0  0  0  0
   18.3094   -8.3355  -16.4780 C   0  0  0  0  0  0  0  0  0  0  0  0
   18.8649   -7.9375  -15.3149 N   0  0  0  0  0  0  0  0  0  0  0  0
   22.9865   -5.2027  -14.6180 C   0  0  0  0  0  0  0  0  0  0  0  0
   22.4229   -4.0093  -14.2221 O   0  0  0  0  0  0  0  0  0  0  0  0
   24.1577   -5.4431  -14.2875 O   0  0  0  0  0  0  0  0  0  0  0  0
  2  1  1  1
  2  3  1  0
  3  4  1  0
  4  8  1  0
  5  4  2  0
  6  2  1  0
  6  7  2  0
  9  6  1  0
 10 11  1  6
 10  9  1  0
 12 11  1  0
 12 20  1  0
 13 14  1  0
 13 12  2  0
 14 15  1  0
 15 20  2  0
 15 16  1  0
 16 17  2  0
 17 18  1  0
 19 18  2  0
 20 19  1  0
 21 10  1  0
 22 21  2  0
 23 21  1  0
 24 25  1  1
 24 23  1  0
 25 26  1  0
 26 30  1  0
 27 26  2  0
 27 28  1  0
 28 29  1  0
 30 29  2  0
 31 32  1  0
 31 24  1  0
 33 31  2  0
M  END
$$$$
