DWH.pdb
     RDKit          3D

 33 35  0  0  1  0  0  0  0  0999 V2000
   30.0052  -22.5304  -16.9584 N   0  0  0  0  0  0  0  0  0  0  0  0
   28.8005  -22.5439  -17.7584 C   0  0  1  0  0  0  0  0  0  0  0  0
   27.9925  -23.7653  -17.4793 C   0  0  0  0  0  0  0  0  0  0  0  0
   28.8196  -24.9624  -17.7798 C   0  0  0  0  0  0  0  0  0  0  0  0
   29.4248  -25.0660  -18.8762 O   0  0  0  0  0  0  0  0  0  0  0  0
   28.1031  -21.2815  -17.6330 C   0  0  0  0  0  0  0  0  0  0  0  0
   28.3645  -20.5263  -16.6631 O   0  0  0  0  0  0  0  0  0  0  0  0
   28.9641  -26.0140  -16.8760 O   0  0  0  0  0  0  0  0  0  0  0  0
   27.1106  -20.8143  -18.5551 N   0  0  0  0  0  0  0  0  0  0  0  0
   26.4909  -19.5200  -18.4079 C   0  0  1  0  0  0  0  0  0  0  0  0
   27.4507  -18.3792  -18.2622 C   0  0  0  0  0  0  0  0  0  0  0  0
   28.6022  -18.3846  -19.1649 C   0  0  0  0  0  0  0  0  0  0  0  0
   28.5498  -18.7598  -20.4935 C   0  0  0  0  0  0  0  0  0  0  0  0
   29.7969  -18.6469  -20.9675 N   0  0  0  0  0  0  0  0  0  0  0  0
   30.6358  -18.2145  -19.9903 C   0  0  0  0  0  0  0  0  0  0  0  0
   31.9885  -17.9368  -19.9685 C   0  0  0  0  0  0  0  0  0  0  0  0
   32.5663  -17.4975  -18.8105 C   0  0  0  0  0  0  0  0  0  0  0  0
   31.8725  -17.3088  -17.6362 C   0  0  0  0  0  0  0  0  0  0  0  0
   30.5260  -17.5889  -17.6697 C   0  0  0  0  0  0  0  0  0  0  0  0
   29.9178  -18.0348  -18.8275 C   0  0  0  0  0  0  0  0  0  0  0  0
   25.4258  -19.2974  -19.4129 C   0  0  0  0  0  0  0  0  0  0  0  0
   25.5137  -19.7766  -20.5889 O   0  0  0  0  0  0  0  0  0  0  0  0
   24.2907  -18.5394  -19.0501 N   0  0  0  0  0  0  0  0  0  0  0  0
   23.2500  -18.1995  -20.0547 C   0  0  1  0  0  0  0  0  0  0  0  0
   21.9370  -18.3092  -19.2809 C   0  0  0  0  0  0  0  0  0  0  0  0
   21.5160  -19.7097  -19.1682 C   0  0  0  0  0  0  0  0  0  0  0  0
   22.2077  -20.7535  -19.7995 C   0  0  0  0  0  0  0  0  0  0  0  0
   21.5940  -21.9085  -19.5170 N   0  0  0  0  0  0  0  0  0  0  0  0
   20.5401  -21.6564  -18.7336 C   0  0  0  0  0  0  0  0  0  0  0  0
   20.5106  -20.3224  -18.5347 N   0  0  0  0  0  0  0  0  0  0  0  0
   23.4977  -16.8150  -20.4832 C   0  0  0  0  0  0  0  0  0  0  0  0
   24.5135  -16.0831  -19.9077 O   0  0  0  0  0  0  0  0  0  0  0  0
   22.8059  -16.2788  -21.3623 O   0  0  0  0  0  0  0  0  0  0  0  0
  2  1  1  1
  2  3  1  0
  3  4  1  0
  4  8  1  0
  5  4  2  0
  6  2  1  0
  6  7  2  0
  9  6  1  0
 10 11  1  6
 10  9  1  0
 12 11  1  0
 12 20  1  0
 13 14  1  0
 13 12  2  0
 14 15  1  0
 15 20  2  0
 15 16  1  0
 16 17  2  0
 17 18  1  0
 19 18  2  0
 20 19  1  0
 21 10  1  0
 22 21  2  0
 23 21  1  0
 24 25  1  1
 24 23  1  0
 25 26  1  0
 26 30  1  0
 27 26  2  0
 27 28  1  0
 28 29  1  0
 30 29  2  0
 31 32  1  0
 31 24  1  0
 33 31  2  0
M  END
$$$$
