KHS.pdb
     RDKit          3D

 26 26  0  0  1  0  0  0  0  0999 V2000
   27.3979  -14.0386  -20.3378 N   0  0  0  0  0  0  0  0  0  0  0  0
   26.8729  -12.8536  -20.9823 C   0  0  1  0  0  0  0  0  0  0  0  0
   25.5004  -13.1675  -21.4955 C   0  0  0  0  0  0  0  0  0  0  0  0
   25.5118  -14.2687  -22.5320 C   0  0  0  0  0  0  0  0  0  0  0  0
   24.1143  -14.5776  -23.0275 C   0  0  0  0  0  0  0  0  0  0  0  0
   24.1212  -15.7020  -24.0376 C   0  0  0  0  0  0  0  0  0  0  0  0
   22.7927  -16.0581  -24.4815 N   0  0  0  0  0  0  0  0  0  0  0  0
   26.8820  -11.7166  -20.0279 C   0  0  0  0  0  0  0  0  0  0  0  0
   26.6971  -11.8966  -18.7859 O   0  0  0  0  0  0  0  0  0  0  0  0
   27.0940  -10.4177  -20.4692 N   0  0  0  0  0  0  0  0  0  0  0  0
   27.2119   -9.2350  -19.5623 C   0  0  1  0  0  0  0  0  0  0  0  0
   28.6331   -8.7969  -19.8307 C   0  0  0  0  0  0  0  0  0  0  0  0
   29.7155   -9.5336  -19.2204 C   0  0  0  0  0  0  0  0  0  0  0  0
   29.5028  -10.3454  -18.0878 C   0  0  0  0  0  0  0  0  0  0  0  0
   30.6686  -10.8881  -17.7593 N   0  0  0  0  0  0  0  0  0  0  0  0
   31.5893  -10.4460  -18.6399 C   0  0  0  0  0  0  0  0  0  0  0  0
   30.9939   -9.6304  -19.5126 N   0  0  0  0  0  0  0  0  0  0  0  0
   26.2795   -8.2132  -20.0127 C   0  0  0  0  0  0  0  0  0  0  0  0
   25.9187   -8.1951  -21.2198 O   0  0  0  0  0  0  0  0  0  0  0  0
   23.1671   -6.9978  -17.9681 O   0  0  0  0  0  0  0  0  0  0  0  0
   23.8856   -5.9108  -18.4547 C   0  0  0  0  0  0  0  0  0  0  0  0
   24.7329   -6.3234  -19.6540 C   0  0  2  0  0  0  0  0  0  0  0  0
   25.7549   -7.2432  -19.1473 N   0  0  0  0  0  0  0  0  0  0  0  0
   25.3616   -5.1206  -20.2048 C   0  0  0  0  0  0  0  0  0  0  0  0
   24.6465   -4.1344  -20.8684 O   0  0  0  0  0  0  0  0  0  0  0  0
   26.5998   -4.9364  -20.0923 O   0  0  0  0  0  0  0  0  0  0  0  0
  2  1  1  1
  3  2  1  0
  4  5  1  0
  4  3  1  0
  5  6  1  0
  6  7  1  0
  8  2  1  0
  8  9  2  0
 10  8  1  0
 11 12  1  6
 11 10  1  0
 13 17  1  0
 13 12  1  0
 14 13  2  0
 15 14  1  0
 15 16  1  0
 16 17  2  0
 18 11  1  0
 19 18  2  0
 21 20  1  0
 22 21  1  1
 22 23  1  0
 23 18  1  0
 24 22  1  0
 24 25  1  0
 26 24  2  0
M  END
$$$$
