KHS.pdb
     RDKit          3D

 26 26  0  0  1  0  0  0  0  0999 V2000
   21.8986  -32.2104  -12.6281 N   0  0  0  0  0  0  0  0  0  0  0  0
   22.7160  -31.5640  -11.6235 C   0  0  1  0  0  0  0  0  0  0  0  0
   21.8099  -30.8305  -10.6818 C   0  0  0  0  0  0  0  0  0  0  0  0
   21.2349  -29.5748  -11.2979 C   0  0  0  0  0  0  0  0  0  0  0  0
   20.3209  -28.8515  -10.3307 C   0  0  0  0  0  0  0  0  0  0  0  0
   19.6282  -27.6826  -10.9927 C   0  0  0  0  0  0  0  0  0  0  0  0
   18.7988  -26.9358  -10.0745 N   0  0  0  0  0  0  0  0  0  0  0  0
   23.5605  -32.5736  -10.9369 C   0  0  0  0  0  0  0  0  0  0  0  0
   23.2960  -33.8122  -11.0068 O   0  0  0  0  0  0  0  0  0  0  0  0
   24.6690  -32.1892  -10.1950 N   0  0  0  0  0  0  0  0  0  0  0  0
   25.5889  -33.1472   -9.5083 C   0  0  1  0  0  0  0  0  0  0  0  0
   26.8956  -32.8566  -10.2096 C   0  0  0  0  0  0  0  0  0  0  0  0
   27.1266  -33.4284  -11.5158 C   0  0  0  0  0  0  0  0  0  0  0  0
   26.2212  -34.3471  -12.0846 C   0  0  0  0  0  0  0  0  0  0  0  0
   26.6955  -34.6922  -13.2752 N   0  0  0  0  0  0  0  0  0  0  0  0
   27.8529  -34.0263  -13.4641 C   0  0  0  0  0  0  0  0  0  0  0  0
   28.0947  -33.2698  -12.3915 N   0  0  0  0  0  0  0  0  0  0  0  0
   25.6799  -32.7743   -8.1051 C   0  0  0  0  0  0  0  0  0  0  0  0
   25.7377  -31.5551   -7.7924 O   0  0  0  0  0  0  0  0  0  0  0  0
   23.4397  -33.4315   -5.1930 O   0  0  0  0  0  0  0  0  0  0  0  0
   24.6822  -33.9943   -4.9209 C   0  0  0  0  0  0  0  0  0  0  0  0
   25.7798  -33.2640   -5.6881 C   0  0  2  0  0  0  0  0  0  0  0  0
   25.6982  -33.7262   -7.0762 N   0  0  0  0  0  0  0  0  0  0  0  0
   27.0705  -33.6366   -5.1046 C   0  0  0  0  0  0  0  0  0  0  0  0
   27.5102  -33.1545   -3.8805 O   0  0  0  0  0  0  0  0  0  0  0  0
   27.8422  -34.4246   -5.7074 O   0  0  0  0  0  0  0  0  0  0  0  0
  2  1  1  6
  3  2  1  0
  4  5  1  0
  4  3  1  0
  5  6  1  0
  6  7  1  0
  8  2  1  0
  8  9  2  0
 10  8  1  0
 11 12  1  6
 11 10  1  0
 13 17  1  0
 13 12  1  0
 14 13  2  0
 15 14  1  0
 15 16  1  0
 16 17  2  0
 18 11  1  0
 19 18  2  0
 21 20  1  0
 22 21  1  1
 22 23  1  0
 23 18  1  0
 24 22  1  0
 24 25  1  0
 26 24  2  0
M  END
$$$$
