KHS.pdb
     RDKit          3D

 26 26  0  0  1  0  0  0  0  0999 V2000
   20.2928  -12.3545  -17.1665 N   0  0  0  0  0  0  0  0  0  0  0  0
   19.8860  -11.0462  -17.6336 C   0  0  1  0  0  0  0  0  0  0  0  0
   18.4800  -11.1460  -18.1427 C   0  0  0  0  0  0  0  0  0  0  0  0
   18.4027  -11.8336  -19.4875 C   0  0  0  0  0  0  0  0  0  0  0  0
   17.6499  -13.1447  -19.3967 C   0  0  0  0  0  0  0  0  0  0  0  0
   17.5393  -13.8140  -20.7474 C   0  0  0  0  0  0  0  0  0  0  0  0
   16.8424  -15.0786  -20.6854 N   0  0  0  0  0  0  0  0  0  0  0  0
   20.0302  -10.0544  -16.5386 C   0  0  0  0  0  0  0  0  0  0  0  0
   19.6958  -10.3339  -15.3473 O   0  0  0  0  0  0  0  0  0  0  0  0
   20.5373   -8.7865  -16.7881 N   0  0  0  0  0  0  0  0  0  0  0  0
   20.7837   -7.7609  -15.7285 C   0  0  1  0  0  0  0  0  0  0  0  0
   22.2433   -7.4435  -15.9577 C   0  0  0  0  0  0  0  0  0  0  0  0
   23.2405   -8.3783  -15.4902 C   0  0  0  0  0  0  0  0  0  0  0  0
   22.8788   -9.5471  -14.7900 C   0  0  0  0  0  0  0  0  0  0  0  0
   23.9964  -10.1992  -14.4946 N   0  0  0  0  0  0  0  0  0  0  0  0
   25.0298   -9.4832  -14.9823 C   0  0  0  0  0  0  0  0  0  0  0  0
   24.5524   -8.3890  -15.5788 N   0  0  0  0  0  0  0  0  0  0  0  0
   19.9659   -6.5929  -16.0175 C   0  0  0  0  0  0  0  0  0  0  0  0
   19.8010   -6.2353  -17.2144 O   0  0  0  0  0  0  0  0  0  0  0  0
   16.5406   -3.5428  -14.7345 O   0  0  0  0  0  0  0  0  0  0  0  0
   17.3046   -4.6835  -14.5114 C   0  0  0  0  0  0  0  0  0  0  0  0
   18.5546   -4.6693  -15.3852 C   0  0  2  0  0  0  0  0  0  0  0  0
   19.3414   -5.8467  -15.0085 N   0  0  0  0  0  0  0  0  0  0  0  0
   19.3029   -3.4446  -15.0925 C   0  0  0  0  0  0  0  0  0  0  0  0
   18.9652   -2.2105  -15.6283 O   0  0  0  0  0  0  0  0  0  0  0  0
   20.3000   -3.4707  -14.3278 O   0  0  0  0  0  0  0  0  0  0  0  0
  2  1  1  1
  3  2  1  0
  4  5  1  0
  4  3  1  0
  5  6  1  0
  6  7  1  0
  8  2  1  0
  8  9  2  0
 10  8  1  0
 11 12  1  6
 11 10  1  0
 13 17  1  0
 13 12  1  0
 14 13  2  0
 15 14  1  0
 15 16  1  0
 16 17  2  0
 18 11  1  0
 19 18  2  0
 21 20  1  0
 22 21  1  1
 22 23  1  0
 23 18  1  0
 24 22  1  0
 24 25  1  0
 26 24  2  0
M  END
$$$$
