KHS.pdb
     RDKit          3D

 26 26  0  0  1  0  0  0  0  0999 V2000
   25.0554  -20.0894  -14.3117 N   0  0  0  0  0  0  0  0  0  0  0  0
   25.5521  -19.2055  -15.3448 C   0  0  1  0  0  0  0  0  0  0  0  0
   26.2401  -20.0380  -16.3838 C   0  0  0  0  0  0  0  0  0  0  0  0
   27.2654  -20.9743  -15.7844 C   0  0  0  0  0  0  0  0  0  0  0  0
   27.9616  -21.7910  -16.8531 C   0  0  0  0  0  0  0  0  0  0  0  0
   28.9160  -22.7951  -16.2484 C   0  0  0  0  0  0  0  0  0  0  0  0
   29.5257  -23.6498  -17.2416 N   0  0  0  0  0  0  0  0  0  0  0  0
   24.4334  -18.4039  -15.9010 C   0  0  0  0  0  0  0  0  0  0  0  0
   24.6186  -17.5821  -16.8494 O   0  0  0  0  0  0  0  0  0  0  0  0
   23.1464  -18.5309  -15.3966 N   0  0  0  0  0  0  0  0  0  0  0  0
   21.9638  -17.7835  -15.9241 C   0  0  1  0  0  0  0  0  0  0  0  0
   20.8247  -18.6437  -15.4277 C   0  0  0  0  0  0  0  0  0  0  0  0
   20.4265  -19.7906  -16.2103 C   0  0  0  0  0  0  0  0  0  0  0  0
   20.8274  -19.9365  -17.5539 C   0  0  0  0  0  0  0  0  0  0  0  0
   20.3140  -21.0747  -18.0039 N   0  0  0  0  0  0  0  0  0  0  0  0
   19.6148  -21.6356  -16.9964 C   0  0  0  0  0  0  0  0  0  0  0  0
   19.6954  -20.8454  -15.9239 N   0  0  0  0  0  0  0  0  0  0  0  0
   21.9205  -16.4774  -15.2847 C   0  0  0  0  0  0  0  0  0  0  0  0
   21.8994  -16.4059  -14.0270 O   0  0  0  0  0  0  0  0  0  0  0  0
   24.2607  -13.6501  -15.4493 O   0  0  0  0  0  0  0  0  0  0  0  0
   23.0273  -13.1673  -15.8740 C   0  0  0  0  0  0  0  0  0  0  0  0
   21.8951  -14.0095  -15.2950 C   0  0  2  0  0  0  0  0  0  0  0  0
   21.9093  -15.2834  -16.0189 N   0  0  0  0  0  0  0  0  0  0  0  0
   20.6334  -13.3047  -15.5335 C   0  0  0  0  0  0  0  0  0  0  0  0
   20.1899  -12.2635  -14.7315 O   0  0  0  0  0  0  0  0  0  0  0  0
   19.8919  -13.6270  -16.4958 O   0  0  0  0  0  0  0  0  0  0  0  0
  2  1  1  1
  3  2  1  0
  4  5  1  0
  4  3  1  0
  5  6  1  0
  6  7  1  0
  8  2  1  0
  8  9  2  0
 10  8  1  0
 11 12  1  1
 11 10  1  0
 13 17  1  0
 13 12  1  0
 14 13  2  0
 15 14  1  0
 15 16  1  0
 16 17  2  0
 18 11  1  0
 19 18  2  0
 21 20  1  0
 22 21  1  6
 22 23  1  0
 23 18  1  0
 24 22  1  0
 24 25  1  0
 26 24  2  0
M  END
$$$$
