KHS.pdb
     RDKit          3D

 26 26  0  0  1  0  0  0  0  0999 V2000
   25.5817  -13.0389  -15.9321 N   0  0  0  0  0  0  0  0  0  0  0  0
   25.7588  -12.5946  -17.2983 C   0  0  1  0  0  0  0  0  0  0  0  0
   25.7085  -13.7960  -18.1928 C   0  0  0  0  0  0  0  0  0  0  0  0
   26.8547  -14.7496  -17.9400 C   0  0  0  0  0  0  0  0  0  0  0  0
   26.4934  -15.7858  -16.8960 C   0  0  0  0  0  0  0  0  0  0  0  0
   27.6772  -16.6598  -16.5507 C   0  0  0  0  0  0  0  0  0  0  0  0
   27.4159  -17.5304  -15.4272 N   0  0  0  0  0  0  0  0  0  0  0  0
   24.7248  -11.5845  -17.6363 C   0  0  0  0  0  0  0  0  0  0  0  0
   24.6677  -11.0597  -18.7897 O   0  0  0  0  0  0  0  0  0  0  0  0
   23.7865  -11.1832  -16.6953 N   0  0  0  0  0  0  0  0  0  0  0  0
   22.6658  -10.2363  -16.9829 C   0  0  1  0  0  0  0  0  0  0  0  0
   21.4704  -11.0519  -16.5477 C   0  0  0  0  0  0  0  0  0  0  0  0
   20.1801  -10.4074  -16.4672 C   0  0  0  0  0  0  0  0  0  0  0  0
   19.5200   -9.9414  -17.6223 C   0  0  0  0  0  0  0  0  0  0  0  0
   18.3698   -9.4029  -17.2366 N   0  0  0  0  0  0  0  0  0  0  0  0
   18.2931   -9.5171  -15.8951 C   0  0  0  0  0  0  0  0  0  0  0  0
   19.3947  -10.1256  -15.4509 N   0  0  0  0  0  0  0  0  0  0  0  0
   22.8153   -9.0703  -16.1259 C   0  0  0  0  0  0  0  0  0  0  0  0
   23.2845   -9.2129  -14.9653 O   0  0  0  0  0  0  0  0  0  0  0  0
   22.5766   -4.2702  -15.5979 O   0  0  0  0  0  0  0  0  0  0  0  0
   22.4158   -5.3871  -16.4111 C   0  0  0  0  0  0  0  0  0  0  0  0
   22.5999   -6.6677  -15.6033 C   0  0  2  0  0  0  0  0  0  0  0  0
   22.4621   -7.7806  -16.5465 N   0  0  0  0  0  0  0  0  0  0  0  0
   21.5418   -6.7262  -14.5921 C   0  0  0  0  0  0  0  0  0  0  0  0
   21.7409   -6.3493  -13.2721 O   0  0  0  0  0  0  0  0  0  0  0  0
   20.3900   -7.1294  -14.8930 O   0  0  0  0  0  0  0  0  0  0  0  0
  2  1  1  1
  3  2  1  0
  4  5  1  0
  4  3  1  0
  5  6  1  0
  6  7  1  0
  8  2  1  0
  8  9  2  0
 10  8  1  0
 11 12  1  1
 11 10  1  0
 13 17  1  0
 13 12  1  0
 14 13  2  0
 15 14  1  0
 15 16  1  0
 16 17  2  0
 18 11  1  0
 19 18  2  0
 21 20  1  0
 22 21  1  6
 22 23  1  0
 23 18  1  0
 24 22  1  0
 24 25  1  0
 26 24  2  0
M  END
$$$$
