KHS.pdb
     RDKit          3D

 26 26  0  0  1  0  0  0  0  0999 V2000
   26.2343  -21.3443  -15.0781 N   0  0  0  0  0  0  0  0  0  0  0  0
   25.5812  -20.9619  -16.3121 C   0  0  1  0  0  0  0  0  0  0  0  0
   26.0249  -21.9043  -17.3895 C   0  0  0  0  0  0  0  0  0  0  0  0
   27.5028  -22.2149  -17.3093 C   0  0  0  0  0  0  0  0  0  0  0  0
   27.7465  -23.6213  -16.8027 C   0  0  0  0  0  0  0  0  0  0  0  0
   29.2230  -23.9382  -16.7381 C   0  0  0  0  0  0  0  0  0  0  0  0
   29.4859  -25.2529  -16.1986 N   0  0  0  0  0  0  0  0  0  0  0  0
   24.1089  -20.9606  -16.1220 C   0  0  0  0  0  0  0  0  0  0  0  0
   23.3169  -20.8498  -17.1066 O   0  0  0  0  0  0  0  0  0  0  0  0
   23.5541  -21.0809  -14.8553 N   0  0  0  0  0  0  0  0  0  0  0  0
   22.0838  -21.1146  -14.5860 C   0  0  1  0  0  0  0  0  0  0  0  0
   21.9942  -22.2327  -13.5732 C   0  0  0  0  0  0  0  0  0  0  0  0
   21.9928  -23.5987  -14.0429 C   0  0  0  0  0  0  0  0  0  0  0  0
   21.9301  -23.9011  -15.4183 C   0  0  0  0  0  0  0  0  0  0  0  0
   21.9455  -25.2227  -15.5391 N   0  0  0  0  0  0  0  0  0  0  0  0
   22.0151  -25.7469  -14.2985 C   0  0  0  0  0  0  0  0  0  0  0  0
   22.0426  -24.7507  -13.4108 N   0  0  0  0  0  0  0  0  0  0  0  0
   21.6976  -19.8525  -13.9741 C   0  0  0  0  0  0  0  0  0  0  0  0
   22.5452  -19.2075  -13.3010 O   0  0  0  0  0  0  0  0  0  0  0  0
   20.9197  -15.7248  -14.3846 O   0  0  0  0  0  0  0  0  0  0  0  0
   21.0141  -17.0740  -14.7090 C   0  0  0  0  0  0  0  0  0  0  0  0
   20.1855  -17.9155  -13.7436 C   0  0  2  0  0  0  0  0  0  0  0  0
   20.4098  -19.3161  -14.1113 N   0  0  0  0  0  0  0  0  0  0  0  0
   18.7754  -17.5632  -13.9249 C   0  0  0  0  0  0  0  0  0  0  0  0
   18.1268  -16.6249  -13.1355 O   0  0  0  0  0  0  0  0  0  0  0  0
   18.0886  -18.1120  -14.8231 O   0  0  0  0  0  0  0  0  0  0  0  0
  2  1  1  1
  3  2  1  0
  4  5  1  0
  4  3  1  0
  5  6  1  0
  6  7  1  0
  8  2  1  0
  8  9  2  0
 10  8  1  0
 11 12  1  1
 11 10  1  0
 13 17  1  0
 13 12  1  0
 14 13  2  0
 15 14  1  0
 15 16  1  0
 16 17  2  0
 18 11  1  0
 19 18  2  0
 21 20  1  0
 22 21  1  6
 22 23  1  0
 23 18  1  0
 24 22  1  0
 24 25  1  0
 26 24  2  0
M  END
$$$$
