KHS.pdb
     RDKit          3D

 26 26  0  0  1  0  0  0  0  0999 V2000
   21.6046  -12.3120  -19.0041 N   0  0  0  0  0  0  0  0  0  0  0  0
   22.3812  -11.3244  -18.2853 C   0  0  1  0  0  0  0  0  0  0  0  0
   23.4516  -10.8121  -19.2006 C   0  0  0  0  0  0  0  0  0  0  0  0
   24.4184  -11.8971  -19.6190 C   0  0  0  0  0  0  0  0  0  0  0  0
   25.4728  -11.3643  -20.5668 C   0  0  0  0  0  0  0  0  0  0  0  0
   26.3846  -12.4659  -21.0562 C   0  0  0  0  0  0  0  0  0  0  0  0
   27.3558  -11.9968  -22.0181 N   0  0  0  0  0  0  0  0  0  0  0  0
   21.4884  -10.2477  -17.7879 C   0  0  0  0  0  0  0  0  0  0  0  0
   20.5972   -9.7345  -18.5304 O   0  0  0  0  0  0  0  0  0  0  0  0
   21.6040   -9.7693  -16.4900 N   0  0  0  0  0  0  0  0  0  0  0  0
   20.7597   -8.6724  -15.9247 C   0  0  1  0  0  0  0  0  0  0  0  0
   20.0602   -9.3905  -14.7939 C   0  0  0  0  0  0  0  0  0  0  0  0
   18.8228  -10.0833  -15.0691 C   0  0  0  0  0  0  0  0  0  0  0  0
   18.2369  -10.0563  -16.3510 C   0  0  0  0  0  0  0  0  0  0  0  0
   17.1218  -10.7741  -16.2969 N   0  0  0  0  0  0  0  0  0  0  0  0
   16.9958  -11.2416  -15.0383 C   0  0  0  0  0  0  0  0  0  0  0  0
   18.0318  -10.8135  -14.3140 N   0  0  0  0  0  0  0  0  0  0  0  0
   21.6376   -7.6403  -15.3954 C   0  0  0  0  0  0  0  0  0  0  0  0
   22.7394   -7.9706  -14.8810 O   0  0  0  0  0  0  0  0  0  0  0  0
   22.5683   -2.9228  -14.8371 O   0  0  0  0  0  0  0  0  0  0  0  0
   21.7813   -3.9290  -15.3873 C   0  0  0  0  0  0  0  0  0  0  0  0
   22.2726   -5.3002  -14.9345 C   0  0  2  0  0  0  0  0  0  0  0  0
   21.3073   -6.2788  -15.4421 N   0  0  0  0  0  0  0  0  0  0  0  0
   22.2905   -5.3183  -13.4700 C   0  0  0  0  0  0  0  0  0  0  0  0
   23.3969   -4.9348  -12.7263 O   0  0  0  0  0  0  0  0  0  0  0  0
   21.2802   -5.6909  -12.8218 O   0  0  0  0  0  0  0  0  0  0  0  0
  2  1  1  6
  3  2  1  0
  4  5  1  0
  4  3  1  0
  5  6  1  0
  6  7  1  0
  8  2  1  0
  8  9  2  0
 10  8  1  0
 11 12  1  1
 11 10  1  0
 13 17  1  0
 13 12  1  0
 14 13  2  0
 15 14  1  0
 15 16  1  0
 16 17  2  0
 18 11  1  0
 19 18  2  0
 21 20  1  0
 22 21  1  1
 22 23  1  0
 23 18  1  0
 24 22  1  0
 24 25  1  0
 26 24  2  0
M  END
$$$$
