KHS.pdb
     RDKit          3D

 26 26  0  0  1  0  0  0  0  0999 V2000
   22.4511  -10.9969  -15.7437 N   0  0  0  0  0  0  0  0  0  0  0  0
   21.3593  -10.2960  -16.3856 C   0  0  1  0  0  0  0  0  0  0  0  0
   20.4507  -11.3122  -17.0083 C   0  0  0  0  0  0  0  0  0  0  0  0
   21.2012  -12.5286  -17.5026 C   0  0  0  0  0  0  0  0  0  0  0  0
   20.2530  -13.6041  -17.9905 C   0  0  0  0  0  0  0  0  0  0  0  0
   21.0001  -14.8406  -18.4349 C   0  0  0  0  0  0  0  0  0  0  0  0
   20.1158  -15.8977  -18.8696 N   0  0  0  0  0  0  0  0  0  0  0  0
   20.6640   -9.4351  -15.3962 C   0  0  0  0  0  0  0  0  0  0  0  0
   19.8718   -9.9264  -14.5359 O   0  0  0  0  0  0  0  0  0  0  0  0
   20.8616   -8.0611  -15.3840 N   0  0  0  0  0  0  0  0  0  0  0  0
   20.2820   -7.1419  -14.3572 C   0  0  1  0  0  0  0  0  0  0  0  0
   20.9272   -7.6645  -13.0944 C   0  0  0  0  0  0  0  0  0  0  0  0
   20.6646   -6.9859  -11.8466 C   0  0  0  0  0  0  0  0  0  0  0  0
   19.7877   -5.8841  -11.7814 C   0  0  0  0  0  0  0  0  0  0  0  0
   19.7483   -5.4775  -10.5186 N   0  0  0  0  0  0  0  0  0  0  0  0
   20.5625   -6.2805   -9.8038 C   0  0  0  0  0  0  0  0  0  0  0  0
   21.1052   -7.1833  -10.6234 N   0  0  0  0  0  0  0  0  0  0  0  0
   20.7447   -5.7906  -14.6336 C   0  0  0  0  0  0  0  0  0  0  0  0
   21.9680   -5.5909  -14.8601 O   0  0  0  0  0  0  0  0  0  0  0  0
   19.5981   -1.2400  -15.7818 O   0  0  0  0  0  0  0  0  0  0  0  0
   19.1905   -2.5077  -15.3800 C   0  0  0  0  0  0  0  0  0  0  0  0
   20.3993   -3.3875  -15.0778 C   0  0  2  0  0  0  0  0  0  0  0  0
   19.8744   -4.6922  -14.6663 N   0  0  0  0  0  0  0  0  0  0  0  0
   21.1485   -2.7730  -13.9794 C   0  0  0  0  0  0  0  0  0  0  0  0
   22.2879   -2.0080  -14.1812 O   0  0  0  0  0  0  0  0  0  0  0  0
   20.7757   -2.9212  -12.7883 O   0  0  0  0  0  0  0  0  0  0  0  0
  2  1  1  1
  3  2  1  0
  4  5  1  0
  4  3  1  0
  5  6  1  0
  6  7  1  0
  8  2  1  0
  8  9  2  0
 10  8  1  0
 11 12  1  1
 11 10  1  0
 13 17  1  0
 13 12  1  0
 14 13  2  0
 15 14  1  0
 15 16  1  0
 16 17  2  0
 18 11  1  0
 19 18  2  0
 21 20  1  0
 22 21  1  1
 22 23  1  0
 23 18  1  0
 24 22  1  0
 24 25  1  0
 26 24  2  0
M  END
$$$$
