KHS.pdb
     RDKit          3D

 26 26  0  0  1  0  0  0  0  0999 V2000
   21.1174  -33.5667   -4.9754 N   0  0  0  0  0  0  0  0  0  0  0  0
   22.4077  -34.0611   -5.4066 C   0  0  1  0  0  0  0  0  0  0  0  0
   22.9223  -33.1536   -6.4825 C   0  0  0  0  0  0  0  0  0  0  0  0
   24.0972  -33.7501   -7.2248 C   0  0  0  0  0  0  0  0  0  0  0  0
   24.6658  -32.7764   -8.2360 C   0  0  0  0  0  0  0  0  0  0  0  0
   25.8360  -33.3743   -8.9827 C   0  0  0  0  0  0  0  0  0  0  0  0
   26.3014  -32.5266  -10.0567 N   0  0  0  0  0  0  0  0  0  0  0  0
   23.3261  -34.1500   -4.2437 C   0  0  0  0  0  0  0  0  0  0  0  0
   23.3715  -33.2338   -3.3676 O   0  0  0  0  0  0  0  0  0  0  0  0
   24.1656  -35.2434   -4.0810 N   0  0  0  0  0  0  0  0  0  0  0  0
   25.1559  -35.3794   -2.9691 C   0  0  1  0  0  0  0  0  0  0  0  0
   24.5346  -36.4898   -2.1539 C   0  0  0  0  0  0  0  0  0  0  0  0
   24.6057  -36.4187   -0.7128 C   0  0  0  0  0  0  0  0  0  0  0  0
   25.2738  -35.3611   -0.0630 C   0  0  0  0  0  0  0  0  0  0  0  0
   25.1710  -35.5656    1.2444 N   0  0  0  0  0  0  0  0  0  0  0  0
   24.4691  -36.7023    1.4276 C   0  0  0  0  0  0  0  0  0  0  0  0
   24.1377  -37.2010    0.2349 N   0  0  0  0  0  0  0  0  0  0  0  0
   26.4234  -35.8198   -3.5312 C   0  0  0  0  0  0  0  0  0  0  0  0
   26.4427  -36.8093   -4.3110 O   0  0  0  0  0  0  0  0  0  0  0  0
   29.8289  -34.1918   -2.1947 O   0  0  0  0  0  0  0  0  0  0  0  0
   29.9844  -34.7490   -3.4597 C   0  0  0  0  0  0  0  0  0  0  0  0
   28.8825  -35.7672   -3.7347 C   0  0  2  0  0  0  0  0  0  0  0  0
   27.6350  -35.1761   -3.2435 N   0  0  0  0  0  0  0  0  0  0  0  0
   29.1929  -36.9890   -2.9888 C   0  0  0  0  0  0  0  0  0  0  0  0
   30.2931  -37.7848   -3.2726 O   0  0  0  0  0  0  0  0  0  0  0  0
   28.4556  -37.3670   -2.0437 O   0  0  0  0  0  0  0  0  0  0  0  0
  2  1  1  1
  3  2  1  0
  4  5  1  0
  4  3  1  0
  5  6  1  0
  6  7  1  0
  8  2  1  0
  8  9  2  0
 10  8  1  0
 11 12  1  1
 11 10  1  0
 13 17  1  0
 13 12  1  0
 14 13  2  0
 15 14  1  0
 15 16  1  0
 16 17  2  0
 18 11  1  0
 19 18  2  0
 21 20  1  0
 22 21  1  1
 22 23  1  0
 23 18  1  0
 24 22  1  0
 24 25  1  0
 26 24  2  0
M  END
$$$$
