ECH.pdb
     RDKit          3D

 26 26  0  0  1  0  0  0  0  0999 V2000
   11.7045  -19.3448   16.2299 N   0  0  0  0  0  0  0  0  0  0  0  0
   11.7041  -20.5634   17.0561 C   0  0  1  0  0  0  0  0  0  0  0  0
   12.9373  -21.3228   16.6715 C   0  0  0  0  0  0  0  0  0  0  0  0
   14.2175  -20.7215   17.1680 C   0  0  0  0  0  0  0  0  0  0  0  0
   15.3484  -21.5715   16.7166 C   0  0  0  0  0  0  0  0  0  0  0  0
   16.5105  -21.2288   17.0358 O   0  0  0  0  0  0  0  0  0  0  0  0
   11.6567  -20.1514   18.4655 C   0  0  0  0  0  0  0  0  0  0  0  0
   11.6820  -18.9314   18.7621 O   0  0  0  0  0  0  0  0  0  0  0  0
   15.1887  -22.7225   15.9617 O   0  0  0  0  0  0  0  0  0  0  0  0
   11.5821  -21.0927   19.5238 N   0  0  0  0  0  0  0  0  0  0  0  0
   11.4549  -20.5917   20.8729 C   0  0  1  0  0  0  0  0  0  0  0  0
   10.0718  -19.9560   20.9674 C   0  0  0  0  0  0  0  0  0  0  0  0
    8.8485  -21.2898   20.8541 S   0  0  0  0  0  0  0  0  0  0  0  0
   11.6228  -21.6599   21.8858 C   0  0  0  0  0  0  0  0  0  0  0  0
   11.2287  -22.8146   21.5857 O   0  0  0  0  0  0  0  0  0  0  0  0
   12.1967  -21.4651   23.1659 N   0  0  0  0  0  0  0  0  0  0  0  0
   12.4825  -22.5312   24.1025 C   0  0  1  0  0  0  0  0  0  0  0  0
   13.4885  -21.9846   25.0883 C   0  0  0  0  0  0  0  0  0  0  0  0
   14.8260  -21.7604   24.5357 C   0  0  0  0  0  0  0  0  0  0  0  0
   15.2347  -21.9905   23.2484 C   0  0  0  0  0  0  0  0  0  0  0  0
   16.5306  -21.6556   23.1536 N   0  0  0  0  0  0  0  0  0  0  0  0
   16.9156  -21.2251   24.3658 C   0  0  0  0  0  0  0  0  0  0  0  0
   15.8812  -21.2882   25.2065 N   0  0  0  0  0  0  0  0  0  0  0  0
   11.2890  -22.9761   24.8367 C   0  0  0  0  0  0  0  0  0  0  0  0
   11.2295  -24.1015   25.6457 O   0  0  0  0  0  0  0  0  0  0  0  0
   10.2429  -22.2908   24.7274 O   0  0  0  0  0  0  0  0  0  0  0  0
  2  1  1  6
  2  7  1  0
  3  4  1  0
  3  2  1  0
  4  5  1  0
  5  9  1  0
  5  6  2  0
  7  8  2  0
 10  7  1  0
 10 11  1  0
 11 14  1  0
 11 12  1  6
 13 12  1  0
 14 16  1  0
 15 14  2  0
 16 17  1  0
 17 18  1  1
 19 18  1  0
 19 23  1  0
 20 21  1  0
 20 19  2  0
 21 22  1  0
 22 23  2  0
 24 17  1  0
 25 24  1  0
 26 24  2  0
M  END
$$$$
