ECH.pdb
     RDKit          3D

 26 26  0  0  1  0  0  0  0  0999 V2000
    8.6196  -14.5410   20.1934 N   0  0  0  0  0  0  0  0  0  0  0  0
    7.6233  -14.8310   21.2377 C   0  0  1  0  0  0  0  0  0  0  0  0
    7.2592  -16.2749   21.0708 C   0  0  0  0  0  0  0  0  0  0  0  0
    6.9342  -16.6752   19.6634 C   0  0  0  0  0  0  0  0  0  0  0  0
    6.4919  -18.0928   19.6624 C   0  0  0  0  0  0  0  0  0  0  0  0
    6.4172  -18.6902   20.7611 O   0  0  0  0  0  0  0  0  0  0  0  0
    8.2239  -14.5000   22.5369 C   0  0  0  0  0  0  0  0  0  0  0  0
    9.4579  -14.6526   22.7130 O   0  0  0  0  0  0  0  0  0  0  0  0
    6.1575  -18.7907   18.5129 O   0  0  0  0  0  0  0  0  0  0  0  0
    7.4526  -14.0061   23.6199 N   0  0  0  0  0  0  0  0  0  0  0  0
    8.0365  -14.0362   24.9411 C   0  0  1  0  0  0  0  0  0  0  0  0
    7.3737  -12.9122   25.7304 C   0  0  0  0  0  0  0  0  0  0  0  0
    5.5946  -13.2591   25.7861 S   0  0  0  0  0  0  0  0  0  0  0  0
    7.8443  -15.3445   25.6093 C   0  0  0  0  0  0  0  0  0  0  0  0
    6.8947  -16.0665   25.2145 O   0  0  0  0  0  0  0  0  0  0  0  0
    8.6581  -15.8330   26.6605 N   0  0  0  0  0  0  0  0  0  0  0  0
    9.3620  -17.0975   26.6271 C   0  0  1  0  0  0  0  0  0  0  0  0
   10.3003  -17.0406   25.4444 C   0  0  0  0  0  0  0  0  0  0  0  0
   11.0801  -18.2603   25.2238 C   0  0  0  0  0  0  0  0  0  0  0  0
   11.0732  -19.3932   25.9944 C   0  0  0  0  0  0  0  0  0  0  0  0
   11.9253  -20.2756   25.4503 N   0  0  0  0  0  0  0  0  0  0  0  0
   12.4502  -19.6948   24.3594 C   0  0  0  0  0  0  0  0  0  0  0  0
   11.9378  -18.4705   24.2204 N   0  0  0  0  0  0  0  0  0  0  0  0
   10.1461  -17.3423   27.8464 C   0  0  0  0  0  0  0  0  0  0  0  0
   10.5101  -16.3677   28.7640 O   0  0  0  0  0  0  0  0  0  0  0  0
   10.5167  -18.5188   28.0799 O   0  0  0  0  0  0  0  0  0  0  0  0
  2  1  1  6
  2  7  1  0
  3  4  1  0
  3  2  1  0
  4  5  1  0
  5  9  1  0
  5  6  2  0
  7  8  2  0
 10  7  1  0
 10 11  1  0
 11 14  1  0
 11 12  1  1
 13 12  1  0
 14 16  1  0
 15 14  2  0
 16 17  1  0
 17 18  1  6
 19 18  1  0
 19 23  1  0
 20 21  1  0
 20 19  2  0
 21 22  1  0
 22 23  2  0
 24 17  1  0
 25 24  1  0
 26 24  2  0
M  END
$$$$
