ECH.pdb
     RDKit          3D

 26 26  0  0  1  0  0  0  0  0999 V2000
    8.7486  -14.7571   13.9353 N   0  0  0  0  0  0  0  0  0  0  0  0
    8.1716  -15.3915   15.1320 C   0  0  1  0  0  0  0  0  0  0  0  0
    8.2926  -16.8691   14.9143 C   0  0  0  0  0  0  0  0  0  0  0  0
    7.8599  -17.7064   16.0798 C   0  0  0  0  0  0  0  0  0  0  0  0
    8.0628  -19.1374   15.7385 C   0  0  0  0  0  0  0  0  0  0  0  0
    8.5230  -19.4164   14.6071 O   0  0  0  0  0  0  0  0  0  0  0  0
    8.8992  -14.8864   16.3040 C   0  0  0  0  0  0  0  0  0  0  0  0
   10.1118  -14.5762   16.2021 O   0  0  0  0  0  0  0  0  0  0  0  0
    7.7711  -20.1805   16.6028 O   0  0  0  0  0  0  0  0  0  0  0  0
    8.2763  -14.7322   17.5690 N   0  0  0  0  0  0  0  0  0  0  0  0
    9.0627  -14.1916   18.6537 C   0  0  1  0  0  0  0  0  0  0  0  0
    8.2954  -12.9840   19.1816 C   0  0  0  0  0  0  0  0  0  0  0  0
    6.6661  -13.5666   19.7244 S   0  0  0  0  0  0  0  0  0  0  0  0
    9.2975  -15.1867   19.7261 C   0  0  0  0  0  0  0  0  0  0  0  0
    8.3391  -15.9322   20.0491 O   0  0  0  0  0  0  0  0  0  0  0  0
   10.5275  -15.3518   20.4085 N   0  0  0  0  0  0  0  0  0  0  0  0
   10.7307  -16.2630   21.5148 C   0  0  1  0  0  0  0  0  0  0  0  0
   12.2154  -16.2828   21.7936 C   0  0  0  0  0  0  0  0  0  0  0  0
   13.0138  -17.0070   20.8025 C   0  0  0  0  0  0  0  0  0  0  0  0
   13.0081  -16.8211   19.4450 C   0  0  0  0  0  0  0  0  0  0  0  0
   13.8801  -17.6832   18.9001 N   0  0  0  0  0  0  0  0  0  0  0  0
   14.4160  -18.3907   19.9076 C   0  0  0  0  0  0  0  0  0  0  0  0
   13.8908  -17.9811   21.0639 N   0  0  0  0  0  0  0  0  0  0  0  0
   10.0225  -15.8428   22.7328 C   0  0  0  0  0  0  0  0  0  0  0  0
    9.9709  -16.5725   23.9115 O   0  0  0  0  0  0  0  0  0  0  0  0
    9.4178  -14.7429   22.7106 O   0  0  0  0  0  0  0  0  0  0  0  0
  2  1  1  6
  2  7  1  0
  3  4  1  0
  3  2  1  0
  4  5  1  0
  5  9  1  0
  5  6  2  0
  7  8  2  0
 10  7  1  0
 10 11  1  0
 11 14  1  0
 11 12  1  1
 13 12  1  0
 14 16  1  0
 15 14  2  0
 16 17  1  0
 17 18  1  1
 19 18  1  0
 19 23  1  0
 20 21  1  0
 20 19  2  0
 21 22  1  0
 22 23  2  0
 24 17  1  0
 25 24  1  0
 26 24  2  0
M  END
$$$$
