ECH.pdb
     RDKit          3D

 26 26  0  0  1  0  0  0  0  0999 V2000
    9.8087  -18.4772   18.2519 N   0  0  0  0  0  0  0  0  0  0  0  0
    9.0265  -17.8597   19.3355 C   0  0  1  0  0  0  0  0  0  0  0  0
    7.7118  -18.5783   19.3563 C   0  0  0  0  0  0  0  0  0  0  0  0
    7.1059  -18.8049   18.0041 C   0  0  0  0  0  0  0  0  0  0  0  0
    5.8039  -19.4979   18.1766 C   0  0  0  0  0  0  0  0  0  0  0  0
    5.0597  -19.6169   17.1757 O   0  0  0  0  0  0  0  0  0  0  0  0
    9.8051  -17.9771   20.5757 C   0  0  0  0  0  0  0  0  0  0  0  0
   10.5940  -18.9418   20.7305 O   0  0  0  0  0  0  0  0  0  0  0  0
    5.3672  -20.0198   19.3837 O   0  0  0  0  0  0  0  0  0  0  0  0
    9.7000  -17.0278   21.6244 N   0  0  0  0  0  0  0  0  0  0  0  0
   10.4479  -17.2674   22.8370 C   0  0  1  0  0  0  0  0  0  0  0  0
   11.3381  -16.0462   23.0421 C   0  0  0  0  0  0  0  0  0  0  0  0
   12.2909  -16.3135   24.5617 S   0  0  0  0  0  0  0  0  0  0  0  0
    9.5647  -17.4879   24.0061 C   0  0  0  0  0  0  0  0  0  0  0  0
    8.8785  -16.5157   24.4095 O   0  0  0  0  0  0  0  0  0  0  0  0
    9.4439  -18.7187   24.6962 N   0  0  0  0  0  0  0  0  0  0  0  0
    8.5857  -18.9303   25.8426 C   0  0  1  0  0  0  0  0  0  0  0  0
    7.6097  -20.0179   25.4592 C   0  0  0  0  0  0  0  0  0  0  0  0
    6.7516  -19.6943   24.3175 C   0  0  0  0  0  0  0  0  0  0  0  0
    6.1262  -18.5008   24.0692 C   0  0  0  0  0  0  0  0  0  0  0  0
    5.4379  -18.6185   22.9234 N   0  0  0  0  0  0  0  0  0  0  0  0
    5.6362  -19.8672   22.4715 C   0  0  0  0  0  0  0  0  0  0  0  0
    6.4341  -20.5220   23.3173 N   0  0  0  0  0  0  0  0  0  0  0  0
    9.3297  -19.3569   27.0368 C   0  0  0  0  0  0  0  0  0  0  0  0
    8.7635  -19.5944   28.2808 O   0  0  0  0  0  0  0  0  0  0  0  0
   10.5697  -19.5201   26.9290 O   0  0  0  0  0  0  0  0  0  0  0  0
  2  1  1  6
  2  7  1  0
  3  4  1  0
  3  2  1  0
  4  5  1  0
  5  9  1  0
  5  6  2  0
  7  8  2  0
 10  7  1  0
 10 11  1  0
 11 14  1  0
 11 12  1  1
 13 12  1  0
 14 16  1  0
 15 14  2  0
 16 17  1  0
 17 18  1  6
 19 18  1  0
 19 23  1  0
 20 21  1  0
 20 19  2  0
 21 22  1  0
 22 23  2  0
 24 17  1  0
 25 24  1  0
 26 24  2  0
M  END
$$$$
