ECH.pdb
     RDKit          3D

 26 26  0  0  1  0  0  0  0  0999 V2000
    8.4019  -13.9519   20.2262 N   0  0  0  0  0  0  0  0  0  0  0  0
    7.3154  -14.1269   21.2041 C   0  0  1  0  0  0  0  0  0  0  0  0
    6.6374  -15.4131   20.8415 C   0  0  0  0  0  0  0  0  0  0  0  0
    7.4954  -16.6326   20.9946 C   0  0  0  0  0  0  0  0  0  0  0  0
    6.6762  -17.8321   20.6862 C   0  0  0  0  0  0  0  0  0  0  0  0
    6.3134  -18.5617   21.6380 O   0  0  0  0  0  0  0  0  0  0  0  0
    7.9113  -14.1095   22.5468 C   0  0  0  0  0  0  0  0  0  0  0  0
    9.1033  -14.4709   22.7072 O   0  0  0  0  0  0  0  0  0  0  0  0
    6.2911  -18.1885   19.4037 O   0  0  0  0  0  0  0  0  0  0  0  0
    7.1819  -13.6935   23.6898 N   0  0  0  0  0  0  0  0  0  0  0  0
    7.8389  -13.7522   24.9753 C   0  0  1  0  0  0  0  0  0  0  0  0
    7.1032  -12.7695   25.8801 C   0  0  0  0  0  0  0  0  0  0  0  0
    5.3683  -13.2916   25.9576 S   0  0  0  0  0  0  0  0  0  0  0  0
    7.8277  -15.1184   25.5486 C   0  0  0  0  0  0  0  0  0  0  0  0
    6.8035  -15.8213   25.3595 O   0  0  0  0  0  0  0  0  0  0  0  0
    8.8925  -15.6819   26.2933 N   0  0  0  0  0  0  0  0  0  0  0  0
    8.8495  -16.9867   26.9188 C   0  0  1  0  0  0  0  0  0  0  0  0
    8.7320  -17.9989   25.8034 C   0  0  0  0  0  0  0  0  0  0  0  0
    9.8175  -17.9551   24.8215 C   0  0  0  0  0  0  0  0  0  0  0  0
   10.8634  -17.0707   24.7886 C   0  0  0  0  0  0  0  0  0  0  0  0
   11.6339  -17.3714   23.7319 N   0  0  0  0  0  0  0  0  0  0  0  0
   11.0707  -18.4267   23.1218 C   0  0  0  0  0  0  0  0  0  0  0  0
    9.9672  -18.7824   23.7824 N   0  0  0  0  0  0  0  0  0  0  0  0
   10.0581  -17.2797   27.7030 C   0  0  0  0  0  0  0  0  0  0  0  0
   10.2885  -18.4609   28.3929 O   0  0  0  0  0  0  0  0  0  0  0  0
   10.9515  -16.3994   27.7560 O   0  0  0  0  0  0  0  0  0  0  0  0
  2  1  1  6
  2  7  1  0
  3  4  1  0
  3  2  1  0
  4  5  1  0
  5  9  1  0
  5  6  2  0
  7  8  2  0
 10  7  1  0
 10 11  1  0
 11 14  1  0
 11 12  1  1
 13 12  1  0
 14 16  1  0
 15 14  2  0
 16 17  1  0
 17 18  1  6
 19 18  1  0
 19 23  1  0
 20 21  1  0
 20 19  2  0
 21 22  1  0
 22 23  2  0
 24 17  1  0
 25 24  1  0
 26 24  2  0
M  END
$$$$
