ECH.pdb
     RDKit          3D

 26 26  0  0  1  0  0  0  0  0999 V2000
   12.8481  -17.8423   17.9211 N   0  0  0  0  0  0  0  0  0  0  0  0
   12.3534  -18.8447   18.8792 C   0  0  1  0  0  0  0  0  0  0  0  0
   13.2597  -20.0299   18.7408 C   0  0  0  0  0  0  0  0  0  0  0  0
   13.1397  -20.7549   17.4344 C   0  0  0  0  0  0  0  0  0  0  0  0
   14.0712  -21.9113   17.4451 C   0  0  0  0  0  0  0  0  0  0  0  0
   13.7284  -22.9416   18.0703 O   0  0  0  0  0  0  0  0  0  0  0  0
   12.3530  -18.2300   20.2134 C   0  0  0  0  0  0  0  0  0  0  0  0
   13.2833  -17.4544   20.5455 O   0  0  0  0  0  0  0  0  0  0  0  0
   15.2984  -21.9133   16.8015 O   0  0  0  0  0  0  0  0  0  0  0  0
   11.3261  -18.4815   21.1589 N   0  0  0  0  0  0  0  0  0  0  0  0
   11.4112  -17.8304   22.4459 C   0  0  1  0  0  0  0  0  0  0  0  0
   10.1815  -16.9353   22.5576 C   0  0  0  0  0  0  0  0  0  0  0  0
   10.2011  -16.1834   24.2076 S   0  0  0  0  0  0  0  0  0  0  0  0
   11.4687  -18.8021   23.5629 C   0  0  0  0  0  0  0  0  0  0  0  0
   10.5433  -19.6477   23.6479 O   0  0  0  0  0  0  0  0  0  0  0  0
   12.4953  -18.8399   24.5379 N   0  0  0  0  0  0  0  0  0  0  0  0
   12.5619  -19.8043   25.6154 C   0  0  1  0  0  0  0  0  0  0  0  0
   14.0179  -19.9252   26.0001 C   0  0  0  0  0  0  0  0  0  0  0  0
   14.8628  -20.5778   24.9977 C   0  0  0  0  0  0  0  0  0  0  0  0
   14.4445  -21.2561   23.8833 C   0  0  0  0  0  0  0  0  0  0  0  0
   15.5297  -21.6997   23.2304 N   0  0  0  0  0  0  0  0  0  0  0  0
   16.6021  -21.3004   23.9327 C   0  0  0  0  0  0  0  0  0  0  0  0
   16.1987  -20.6187   25.0066 N   0  0  0  0  0  0  0  0  0  0  0  0
   11.7898  -19.3900   26.7959 C   0  0  0  0  0  0  0  0  0  0  0  0
   11.0896  -18.1976   26.9067 O   0  0  0  0  0  0  0  0  0  0  0  0
   11.7580  -20.1689   27.7799 O   0  0  0  0  0  0  0  0  0  0  0  0
  2  1  1  6
  2  7  1  0
  3  4  1  0
  3  2  1  0
  4  5  1  0
  5  9  1  0
  5  6  2  0
  7  8  2  0
 10  7  1  0
 10 11  1  0
 11 14  1  0
 11 12  1  1
 13 12  1  0
 14 16  1  0
 15 14  2  0
 16 17  1  0
 17 18  1  1
 19 18  1  0
 19 23  1  0
 20 21  1  0
 20 19  2  0
 21 22  1  0
 22 23  2  0
 24 17  1  0
 25 24  1  0
 26 24  2  0
M  END
$$$$
