LTI.pdb
     RDKit          3D

 24 23  0  0  1  0  0  0  0  0999 V2000
   18.3122  -15.3773  -17.0645 C   0  0  0  0  0  0  0  0  0  0  0  0
   18.2071  -13.8903  -17.1504 C   0  0  1  0  0  0  0  0  0  0  0  0
   16.7635  -13.4534  -17.0077 C   0  0  0  0  0  0  0  0  0  0  0  0
   19.1062  -13.1578  -16.2130 C   0  0  0  0  0  0  0  0  0  0  0  0
   18.9450  -11.6611  -16.3514 C   0  0  2  0  0  0  0  0  0  0  0  0
   19.3639  -11.2764  -17.6950 N   0  0  0  0  0  0  0  0  0  0  0  0
   19.7552  -10.9174  -15.3661 C   0  0  0  0  0  0  0  0  0  0  0  0
   19.6069  -11.1063  -14.1313 O   0  0  0  0  0  0  0  0  0  0  0  0
   23.3252  -10.9783  -14.8695 C   0  0  0  0  0  0  0  0  0  0  0  0
   22.9980   -9.5767  -15.2528 C   0  0  1  0  0  0  0  0  0  0  0  0
   23.0234   -9.5074  -16.6656 O   0  0  0  0  0  0  0  0  0  0  0  0
   21.5546   -9.2154  -14.8735 C   0  0  2  0  0  0  0  0  0  0  0  0
   20.7169   -9.9747  -15.8060 N   0  0  0  0  0  0  0  0  0  0  0  0
   21.2958   -7.7785  -15.1407 C   0  0  0  0  0  0  0  0  0  0  0  0
   20.6767   -7.3872  -16.1887 O   0  0  0  0  0  0  0  0  0  0  0  0
   18.1560   -3.4937  -15.3030 C   0  0  0  0  0  0  0  0  0  0  0  0
   19.6171   -3.6132  -14.9636 C   0  0  0  0  0  0  0  0  0  0  0  0
   20.0212   -5.0134  -14.7210 C   0  0  2  0  0  0  0  0  0  0  0  0
   19.2473   -5.6552  -13.5749 C   0  0  0  0  0  0  0  0  0  0  0  0
   21.4489   -5.3232  -14.5388 C   0  0  2  0  0  0  0  0  0  0  0  0
   21.7081   -6.7386  -14.2682 N   0  0  0  0  0  0  0  0  0  0  0  0
   22.1533   -4.5238  -13.5274 C   0  0  0  0  0  0  0  0  0  0  0  0
   22.3761   -3.2849  -13.6282 O   0  0  0  0  0  0  0  0  0  0  0  0
   22.6116   -5.1488  -12.3770 O   0  0  0  0  0  0  0  0  0  0  0  0
  2  1  1  1
  3  2  1  0
  4  2  1  0
  4  5  1  0
  5  6  1  6
  7  5  1  0
  7  8  2  0
 10  9  1  6
 10 12  1  0
 11 10  1  0
 12 13  1  6
 13  7  1  0
 14 12  1  0
 15 14  2  0
 17 16  1  0
 17 18  1  0
 18 20  1  0
 18 19  1  1
 20 21  1  1
 20 22  1  0
 21 14  1  0
 22 24  1  0
 23 22  2  0
M  END
$$$$
