LTI.pdb
     RDKit          3D

 24 23  0  0  1  0  0  0  0  0999 V2000
   27.2463  -19.1547   -7.1630 C   0  0  0  0  0  0  0  0  0  0  0  0
   26.8470  -20.2946   -8.0409 C   0  0  1  0  0  0  0  0  0  0  0  0
   25.6072  -20.9729   -7.4950 C   0  0  0  0  0  0  0  0  0  0  0  0
   26.6976  -19.9358   -9.4805 C   0  0  0  0  0  0  0  0  0  0  0  0
   26.4538  -21.1612  -10.3314 C   0  0  2  0  0  0  0  0  0  0  0  0
   27.6413  -22.0066  -10.2701 N   0  0  0  0  0  0  0  0  0  0  0  0
   26.1826  -20.8182  -11.7418 C   0  0  0  0  0  0  0  0  0  0  0  0
   27.1173  -20.7354  -12.5793 O   0  0  0  0  0  0  0  0  0  0  0  0
   26.4149  -21.8725  -14.1293 C   0  0  0  0  0  0  0  0  0  0  0  0
   24.9557  -21.6294  -14.3025 C   0  0  1  0  0  0  0  0  0  0  0  0
   24.2708  -22.6733  -13.6373 O   0  0  0  0  0  0  0  0  0  0  0  0
   24.5115  -20.3511  -13.5768 C   0  0  2  0  0  0  0  0  0  0  0  0
   24.8537  -20.5765  -12.1697 N   0  0  0  0  0  0  0  0  0  0  0  0
   23.0353  -20.2094  -13.6393 C   0  0  0  0  0  0  0  0  0  0  0  0
   22.3038  -20.2938  -12.5941 O   0  0  0  0  0  0  0  0  0  0  0  0
   19.4028  -16.4112  -16.5771 C   0  0  0  0  0  0  0  0  0  0  0  0
   19.3998  -17.7207  -15.8358 C   0  0  0  0  0  0  0  0  0  0  0  0
   20.7610  -18.2696  -15.6667 C   0  0  2  0  0  0  0  0  0  0  0  0
   21.4879  -18.4503  -16.9946 C   0  0  0  0  0  0  0  0  0  0  0  0
   20.9424  -19.4977  -14.8752 C   0  0  2  0  0  0  0  0  0  0  0  0
   22.3273  -19.9724  -14.8455 N   0  0  0  0  0  0  0  0  0  0  0  0
   20.0756  -20.6268  -15.2380 C   0  0  0  0  0  0  0  0  0  0  0  0
   18.8272  -20.6549  -15.0493 O   0  0  0  0  0  0  0  0  0  0  0  0
   20.6426  -21.7461  -15.8293 O   0  0  0  0  0  0  0  0  0  0  0  0
  2  1  1  1
  3  2  1  0
  4  2  1  0
  4  5  1  0
  5  6  1  6
  7  5  1  0
  7  8  2  0
 10  9  1  1
 10 12  1  0
 11 10  1  0
 12 13  1  1
 13  7  1  0
 14 12  1  0
 15 14  2  0
 17 16  1  0
 17 18  1  0
 18 20  1  0
 18 19  1  6
 20 21  1  6
 20 22  1  0
 21 14  1  0
 22 24  1  0
 23 22  2  0
M  END
$$$$
