LTI.pdb
     RDKit          3D

 24 23  0  0  1  0  0  0  0  0999 V2000
   16.8052  -19.2376  -18.0989 C   0  0  0  0  0  0  0  0  0  0  0  0
   17.6058  -18.0572  -18.5410 C   0  0  1  0  0  0  0  0  0  0  0  0
   16.9782  -17.4214  -19.7646 C   0  0  0  0  0  0  0  0  0  0  0  0
   17.8677  -17.0575  -17.4661 C   0  0  0  0  0  0  0  0  0  0  0  0
   18.7559  -15.9381  -17.9590 C   0  0  2  0  0  0  0  0  0  0  0  0
   20.0520  -16.5041  -18.3172 N   0  0  0  0  0  0  0  0  0  0  0  0
   18.9564  -14.8914  -16.9370 C   0  0  0  0  0  0  0  0  0  0  0  0
   18.7401  -15.1248  -15.7201 O   0  0  0  0  0  0  0  0  0  0  0  0
   21.8428  -13.5206  -15.7128 C   0  0  0  0  0  0  0  0  0  0  0  0
   21.1617  -12.3471  -16.3272 C   0  0  1  0  0  0  0  0  0  0  0  0
   21.5341  -12.3080  -17.6915 O   0  0  0  0  0  0  0  0  0  0  0  0
   19.6375  -12.5322  -16.3472 C   0  0  2  0  0  0  0  0  0  0  0  0
   19.3989  -13.6014  -17.3207 N   0  0  0  0  0  0  0  0  0  0  0  0
   18.9774  -11.3145  -16.8808 C   0  0  0  0  0  0  0  0  0  0  0  0
   18.6580  -11.2047  -18.1139 O   0  0  0  0  0  0  0  0  0  0  0  0
   14.3158   -8.1132  -17.1320 C   0  0  0  0  0  0  0  0  0  0  0  0
   15.7955   -7.8489  -17.0634 C   0  0  0  0  0  0  0  0  0  0  0  0
   16.5552   -9.0375  -16.6242 C   0  0  2  0  0  0  0  0  0  0  0  0
   16.0942   -9.5576  -15.2672 C   0  0  0  0  0  0  0  0  0  0  0  0
   18.0264   -8.9821  -16.6170 C   0  0  2  0  0  0  0  0  0  0  0  0
   18.6524  -10.1910  -16.0779 N   0  0  0  0  0  0  0  0  0  0  0  0
   18.6198   -7.8174  -15.9466 C   0  0  0  0  0  0  0  0  0  0  0  0
   18.4628   -6.6226  -16.3240 O   0  0  0  0  0  0  0  0  0  0  0  0
   19.4067   -8.0183  -14.8221 O   0  0  0  0  0  0  0  0  0  0  0  0
  2  1  1  1
  3  2  1  0
  4  2  1  0
  4  5  1  0
  5  6  1  1
  7  5  1  0
  7  8  2  0
 10  9  1  1
 10 12  1  0
 11 10  1  0
 12 13  1  6
 13  7  1  0
 14 12  1  0
 15 14  2  0
 17 16  1  0
 17 18  1  0
 18 20  1  0
 18 19  1  1
 20 21  1  1
 20 22  1  0
 21 14  1  0
 22 24  1  0
 23 22  2  0
M  END
$$$$
