LTI.pdb
     RDKit          3D

 24 23  0  0  1  0  0  0  0  0999 V2000
   16.1386  -16.9681  -15.6962 C   0  0  0  0  0  0  0  0  0  0  0  0
   15.7986  -15.5727  -16.1048 C   0  0  1  0  0  0  0  0  0  0  0  0
   14.3532  -15.2625  -15.7735 C   0  0  0  0  0  0  0  0  0  0  0  0
   16.7275  -14.5351  -15.5720 C   0  0  0  0  0  0  0  0  0  0  0  0
   16.3163  -13.1487  -16.0127 C   0  0  2  0  0  0  0  0  0  0  0  0
   16.5095  -13.0493  -17.4554 N   0  0  0  0  0  0  0  0  0  0  0  0
   17.1077  -12.0930  -15.3498 C   0  0  0  0  0  0  0  0  0  0  0  0
   17.1815  -12.0302  -14.0957 O   0  0  0  0  0  0  0  0  0  0  0  0
   20.6748  -11.3337  -15.4353 C   0  0  0  0  0  0  0  0  0  0  0  0
   19.9781  -10.1758  -16.0616 C   0  0  1  0  0  0  0  0  0  0  0  0
   19.8131  -10.4734  -17.4348 O   0  0  0  0  0  0  0  0  0  0  0  0
   18.5477  -10.0257  -15.5235 C   0  0  2  0  0  0  0  0  0  0  0  0
   17.7984  -11.1310  -16.1274 N   0  0  0  0  0  0  0  0  0  0  0  0
   17.9365   -8.7705  -16.0275 C   0  0  0  0  0  0  0  0  0  0  0  0
   17.2019   -8.7495  -17.0737 O   0  0  0  0  0  0  0  0  0  0  0  0
   14.1125   -4.6490  -15.5246 C   0  0  0  0  0  0  0  0  0  0  0  0
   15.5642   -4.7108  -15.9160 C   0  0  0  0  0  0  0  0  0  0  0  0
   16.2003   -5.9785  -15.5027 C   0  0  2  0  0  0  0  0  0  0  0  0
   16.1311   -6.2036  -13.9964 C   0  0  0  0  0  0  0  0  0  0  0  0
   17.5749   -6.2651  -15.9452 C   0  0  2  0  0  0  0  0  0  0  0  0
   18.1151   -7.5115  -15.3986 N   0  0  0  0  0  0  0  0  0  0  0  0
   18.5571   -5.1971  -15.7157 C   0  0  0  0  0  0  0  0  0  0  0  0
   18.5253   -4.0678  -16.2800 O   0  0  0  0  0  0  0  0  0  0  0  0
   19.5956   -5.4199  -14.8236 O   0  0  0  0  0  0  0  0  0  0  0  0
  2  1  1  1
  3  2  1  0
  4  2  1  0
  4  5  1  0
  5  6  1  6
  7  5  1  0
  7  8  2  0
 10  9  1  1
 10 12  1  0
 11 10  1  0
 12 13  1  6
 13  7  1  0
 14 12  1  0
 15 14  2  0
 17 16  1  0
 17 18  1  0
 18 20  1  0
 18 19  1  1
 20 21  1  1
 20 22  1  0
 21 14  1  0
 22 24  1  0
 23 22  2  0
M  END
$$$$
