LTI.pdb
     RDKit          3D

 24 23  0  0  1  0  0  0  0  0999 V2000
   21.5354  -19.9752  -16.0471 C   0  0  0  0  0  0  0  0  0  0  0  0
   21.6102  -20.3772  -14.6109 C   0  0  1  0  0  0  0  0  0  0  0  0
   20.5413  -21.4027  -14.2929 C   0  0  0  0  0  0  0  0  0  0  0  0
   22.9620  -20.8265  -14.1704 C   0  0  0  0  0  0  0  0  0  0  0  0
   22.9576  -21.2443  -12.7176 C   0  0  2  0  0  0  0  0  0  0  0  0
   22.4537  -20.1306  -11.9210 N   0  0  0  0  0  0  0  0  0  0  0  0
   24.3054  -21.6066  -12.2353 C   0  0  0  0  0  0  0  0  0  0  0  0
   24.9879  -22.4860  -12.8210 O   0  0  0  0  0  0  0  0  0  0  0  0
   27.1936  -20.7931  -12.8309 C   0  0  0  0  0  0  0  0  0  0  0  0
   27.1317  -20.3628  -11.4063 C   0  0  1  0  0  0  0  0  0  0  0  0
   26.5219  -19.0866  -11.3757 O   0  0  0  0  0  0  0  0  0  0  0  0
   26.1905  -21.2611  -10.5908 C   0  0  2  0  0  0  0  0  0  0  0  0
   24.8483  -20.9611  -11.0970 N   0  0  0  0  0  0  0  0  0  0  0  0
   26.2065  -20.8614   -9.1614 C   0  0  0  0  0  0  0  0  0  0  0  0
   25.1628  -20.4149   -8.5732 O   0  0  0  0  0  0  0  0  0  0  0  0
   29.7200  -21.4864   -4.0584 C   0  0  0  0  0  0  0  0  0  0  0  0
   28.5125  -20.8607   -4.7023 C   0  0  0  0  0  0  0  0  0  0  0  0
   28.4780  -21.0868   -6.1619 C   0  0  2  0  0  0  0  0  0  0  0  0
   29.7977  -20.7350   -6.8395 C   0  0  0  0  0  0  0  0  0  0  0  0
   27.3862  -20.4926   -6.9509 C   0  0  2  0  0  0  0  0  0  0  0  0
   27.3636  -20.9412   -8.3446 N   0  0  0  0  0  0  0  0  0  0  0  0
   27.3118  -19.0255   -6.9374 C   0  0  0  0  0  0  0  0  0  0  0  0
   27.5567  -18.2914   -7.9353 O   0  0  0  0  0  0  0  0  0  0  0  0
   26.9491  -18.3821   -5.7633 O   0  0  0  0  0  0  0  0  0  0  0  0
  2  1  1  6
  3  2  1  0
  4  2  1  0
  4  5  1  0
  5  6  1  1
  7  5  1  0
  7  8  2  0
 10  9  1  6
 10 12  1  0
 11 10  1  0
 12 13  1  6
 13  7  1  0
 14 12  1  0
 15 14  2  0
 17 16  1  0
 17 18  1  0
 18 20  1  0
 18 19  1  6
 20 21  1  6
 20 22  1  0
 21 14  1  0
 22 24  1  0
 23 22  2  0
M  END
$$$$
