LTI.pdb
     RDKit          3D

 24 23  0  0  1  0  0  0  0  0999 V2000
   28.0555  -16.8594  -16.5573 C   0  0  0  0  0  0  0  0  0  0  0  0
   27.8818  -18.1305  -15.7932 C   0  0  1  0  0  0  0  0  0  0  0  0
   29.1954  -18.5561  -15.1699 C   0  0  0  0  0  0  0  0  0  0  0  0
   26.7755  -18.0980  -14.7939 C   0  0  0  0  0  0  0  0  0  0  0  0
   26.8363  -19.2895  -13.8655 C   0  0  2  0  0  0  0  0  0  0  0  0
   26.3693  -20.4639  -14.5944 N   0  0  0  0  0  0  0  0  0  0  0  0
   25.9972  -19.1064  -12.6644 C   0  0  0  0  0  0  0  0  0  0  0  0
   24.9116  -18.4737  -12.7232 O   0  0  0  0  0  0  0  0  0  0  0  0
   23.5853  -19.9261  -11.7724 C   0  0  0  0  0  0  0  0  0  0  0  0
   24.3417  -20.5270  -10.6387 C   0  0  1  0  0  0  0  0  0  0  0  0
   24.9164  -21.7327  -11.1052 O   0  0  0  0  0  0  0  0  0  0  0  0
   25.5414  -19.6546  -10.2417 C   0  0  2  0  0  0  0  0  0  0  0  0
   26.4105  -19.6469  -11.4217 N   0  0  0  0  0  0  0  0  0  0  0  0
   26.3105  -20.3020   -9.1497 C   0  0  0  0  0  0  0  0  0  0  0  0
   27.1303  -21.2569   -9.3752 O   0  0  0  0  0  0  0  0  0  0  0  0
   29.0690  -17.7851   -5.3088 C   0  0  0  0  0  0  0  0  0  0  0  0
   28.6507  -18.8284   -6.3092 C   0  0  0  0  0  0  0  0  0  0  0  0
   27.5976  -19.7190   -5.7797 C   0  0  2  0  0  0  0  0  0  0  0  0
   28.0724  -20.5414   -4.5869 C   0  0  0  0  0  0  0  0  0  0  0  0
   26.8931  -20.6211   -6.7057 C   0  0  2  0  0  0  0  0  0  0  0  0
   26.2000  -19.9196   -7.7881 N   0  0  0  0  0  0  0  0  0  0  0  0
   25.9497  -21.5628   -6.0883 C   0  0  0  0  0  0  0  0  0  0  0  0
   24.7078  -21.3596   -5.9826 O   0  0  0  0  0  0  0  0  0  0  0  0
   26.4311  -22.7614   -5.5826 O   0  0  0  0  0  0  0  0  0  0  0  0
  2  1  1  1
  3  2  1  0
  4  2  1  0
  4  5  1  0
  5  6  1  6
  7  5  1  0
  7  8  2  0
 10  9  1  6
 10 12  1  0
 11 10  1  0
 12 13  1  6
 13  7  1  0
 14 12  1  0
 15 14  2  0
 17 16  1  0
 17 18  1  0
 18 20  1  0
 18 19  1  1
 20 21  1  6
 20 22  1  0
 21 14  1  0
 22 24  1  0
 23 22  2  0
M  END
$$$$
