WLT.pdb
     RDKit          3D

 30 31  0  0  1  0  0  0  0  0999 V2000
    5.6815  -17.8001   23.6665 N   0  0  0  0  0  0  0  0  0  0  0  0
    6.5743  -16.7042   23.7514 C   0  0  1  0  0  0  0  0  0  0  0  0
    7.4596  -16.6412   24.9438 C   0  0  0  0  0  0  0  0  0  0  0  0
    6.9824  -15.5789   25.8560 C   0  0  0  0  0  0  0  0  0  0  0  0
    6.0880  -15.7241   26.9125 C   0  0  0  0  0  0  0  0  0  0  0  0
    5.9429  -14.5456   27.4902 N   0  0  0  0  0  0  0  0  0  0  0  0
    6.6931  -13.6088   26.8787 C   0  0  0  0  0  0  0  0  0  0  0  0
    6.8367  -12.2478   27.1526 C   0  0  0  0  0  0  0  0  0  0  0  0
    7.6750  -11.4916   26.3610 C   0  0  0  0  0  0  0  0  0  0  0  0
    8.3298  -12.1297   25.3337 C   0  0  0  0  0  0  0  0  0  0  0  0
    8.1887  -13.4785   25.0610 C   0  0  0  0  0  0  0  0  0  0  0  0
    7.3474  -14.2496   25.8527 C   0  0  0  0  0  0  0  0  0  0  0  0
    7.4756  -16.6843   22.5410 C   0  0  0  0  0  0  0  0  0  0  0  0
    7.6544  -17.7309   21.8716 O   0  0  0  0  0  0  0  0  0  0  0  0
    7.1079  -14.4471   19.0049 C   0  0  0  0  0  0  0  0  0  0  0  0
    7.7302  -13.5455   20.0874 C   0  0  2  0  0  0  0  0  0  0  0  0
    7.8128  -12.1249   19.6351 C   0  0  0  0  0  0  0  0  0  0  0  0
    9.0433  -14.1473   20.4228 C   0  0  0  0  0  0  0  0  0  0  0  0
    9.0174  -15.5393   20.9768 C   0  0  2  0  0  0  0  0  0  0  0  0
    8.1260  -15.4951   22.1478 N   0  0  0  0  0  0  0  0  0  0  0  0
   10.3904  -15.9060   21.4047 C   0  0  0  0  0  0  0  0  0  0  0  0
   11.3519  -15.8640   20.6113 O   0  0  0  0  0  0  0  0  0  0  0  0
   11.5805  -15.3189   25.2893 C   0  0  0  0  0  0  0  0  0  0  0  0
   11.8669  -16.6999   24.7410 C   0  0  1  0  0  0  0  0  0  0  0  0
   10.8302  -17.5330   25.1515 O   0  0  0  0  0  0  0  0  0  0  0  0
   11.9607  -16.6590   23.2306 C   0  0  2  0  0  0  0  0  0  0  0  0
   10.6387  -16.3161   22.7397 N   0  0  0  0  0  0  0  0  0  0  0  0
   12.3631  -17.9431   22.6542 C   0  0  0  0  0  0  0  0  0  0  0  0
   11.5897  -18.6054   21.9134 O   0  0  0  0  0  0  0  0  0  0  0  0
   13.6159  -18.4891   22.8982 O   0  0  0  0  0  0  0  0  0  0  0  0
  2  1  1  1
  2 13  1  0
  2  3  1  0
  3  4  1  0
  4  5  2  0
  6  5  1  0
  7  6  1  0
  8  7  2  0
  9  8  1  0
 10  9  2  0
 10 11  1  0
 11 12  2  0
 12  7  1  0
 12  4  1  0
 13 14  2  0
 16 15  1  6
 17 16  1  0
 19 18  1  1
 18 16  1  0
 20 19  1  0
 20 13  1  0
 21 22  2  0
 21 19  1  0
 24 23  1  6
 24 26  1  0
 25 24  1  0
 26 28  1  0
 26 27  1  6
 27 21  1  0
 28 30  1  0
 29 28  2  0
M  END
$$$$
