WLT.pdb
     RDKit          3D

 30 31  0  0  1  0  0  0  0  0999 V2000
    6.3265  -17.1856   25.2180 N   0  0  0  0  0  0  0  0  0  0  0  0
    7.1400  -16.1288   24.7419 C   0  0  1  0  0  0  0  0  0  0  0  0
    8.4140  -15.8750   25.4643 C   0  0  0  0  0  0  0  0  0  0  0  0
    8.1727  -14.9201   26.5680 C   0  0  0  0  0  0  0  0  0  0  0  0
    8.4633  -15.1099   27.9158 C   0  0  0  0  0  0  0  0  0  0  0  0
    8.1175  -14.0142   28.5668 N   0  0  0  0  0  0  0  0  0  0  0  0
    7.6070  -13.0916   27.7288 C   0  0  0  0  0  0  0  0  0  0  0  0
    7.1177  -11.8104   27.9875 C   0  0  0  0  0  0  0  0  0  0  0  0
    6.6356  -11.0549   26.9396 C   0  0  0  0  0  0  0  0  0  0  0  0
    6.6647  -11.6141   25.6836 C   0  0  0  0  0  0  0  0  0  0  0  0
    7.1495  -12.8837   25.4255 C   0  0  0  0  0  0  0  0  0  0  0  0
    7.6382  -13.6530   26.4737 C   0  0  0  0  0  0  0  0  0  0  0  0
    7.5022  -16.3735   23.2974 C   0  0  0  0  0  0  0  0  0  0  0  0
    7.1070  -17.4137   22.7165 O   0  0  0  0  0  0  0  0  0  0  0  0
    6.3169  -13.9956   20.2185 C   0  0  0  0  0  0  0  0  0  0  0  0
    7.6090  -13.3866   20.7944 C   0  0  2  0  0  0  0  0  0  0  0  0
    7.8636  -12.0223   20.2435 C   0  0  0  0  0  0  0  0  0  0  0  0
    8.6891  -14.3617   20.5093 C   0  0  0  0  0  0  0  0  0  0  0  0
    8.5657  -15.7043   21.1629 C   0  0  2  0  0  0  0  0  0  0  0  0
    8.2859  -15.4412   22.5842 N   0  0  0  0  0  0  0  0  0  0  0  0
    9.8600  -16.4183   21.0299 C   0  0  0  0  0  0  0  0  0  0  0  0
   10.2932  -16.7778   19.9169 O   0  0  0  0  0  0  0  0  0  0  0  0
   13.1487  -15.3074   21.7998 C   0  0  0  0  0  0  0  0  0  0  0  0
   12.9523  -16.5098   22.6973 C   0  0  1  0  0  0  0  0  0  0  0  0
   12.5697  -16.0358   23.9488 O   0  0  0  0  0  0  0  0  0  0  0  0
   11.8967  -17.4303   22.1228 C   0  0  2  0  0  0  0  0  0  0  0  0
   10.6386  -16.7091   22.1794 N   0  0  0  0  0  0  0  0  0  0  0  0
   11.7633  -18.6778   22.8772 C   0  0  0  0  0  0  0  0  0  0  0  0
   10.6944  -18.9790   23.4708 O   0  0  0  0  0  0  0  0  0  0  0  0
   12.8093  -19.5855   22.9724 O   0  0  0  0  0  0  0  0  0  0  0  0
  2  1  1  1
  2 13  1  0
  2  3  1  0
  3  4  1  0
  4  5  2  0
  6  5  1  0
  7  6  1  0
  8  7  2  0
  9  8  1  0
 10  9  2  0
 10 11  1  0
 11 12  2  0
 12  7  1  0
 12  4  1  0
 13 14  2  0
 16 15  1  6
 17 16  1  0
 19 18  1  6
 18 16  1  0
 20 19  1  0
 20 13  1  0
 21 22  2  0
 21 19  1  0
 24 23  1  6
 24 26  1  0
 25 24  1  0
 26 28  1  0
 26 27  1  1
 27 21  1  0
 28 30  1  0
 29 28  2  0
M  END
$$$$
