WLT.pdb
     RDKit          3D

 30 31  0  0  1  0  0  0  0  0999 V2000
    9.6884  -15.5554   23.9934 N   0  0  0  0  0  0  0  0  0  0  0  0
    8.5924  -16.3261   23.5352 C   0  0  1  0  0  0  0  0  0  0  0  0
    7.2469  -15.9690   24.0563 C   0  0  0  0  0  0  0  0  0  0  0  0
    7.3715  -15.4767   25.4457 C   0  0  0  0  0  0  0  0  0  0  0  0
    7.7931  -16.2035   26.5552 C   0  0  0  0  0  0  0  0  0  0  0  0
    7.7862  -15.3958   27.5998 N   0  0  0  0  0  0  0  0  0  0  0  0
    7.3809  -14.1585   27.2550 C   0  0  0  0  0  0  0  0  0  0  0  0
    7.2226  -13.0111   28.0337 C   0  0  0  0  0  0  0  0  0  0  0  0
    6.7798  -11.8516   27.4331 C   0  0  0  0  0  0  0  0  0  0  0  0
    6.5160  -11.8925   26.0840 C   0  0  0  0  0  0  0  0  0  0  0  0
    6.6725  -13.0288   25.3108 C   0  0  0  0  0  0  0  0  0  0  0  0
    7.1187  -14.2020   25.9056 C   0  0  0  0  0  0  0  0  0  0  0  0
    8.5082  -16.2507   22.0302 C   0  0  0  0  0  0  0  0  0  0  0  0
    7.7274  -17.0085   21.4043 O   0  0  0  0  0  0  0  0  0  0  0  0
    6.6936  -13.7272   20.0073 C   0  0  0  0  0  0  0  0  0  0  0  0
    8.0741  -13.0856   20.2410 C   0  0  2  0  0  0  0  0  0  0  0  0
    8.0663  -11.6316   19.9010 C   0  0  0  0  0  0  0  0  0  0  0  0
    9.0408  -13.8834   19.4485 C   0  0  0  0  0  0  0  0  0  0  0  0
    9.2005  -15.3205   19.8415 C   0  0  2  0  0  0  0  0  0  0  0  0
    9.3020  -15.3323   21.3103 N   0  0  0  0  0  0  0  0  0  0  0  0
   10.4580  -15.8386   19.2473 C   0  0  0  0  0  0  0  0  0  0  0  0
   10.5752  -16.0059   18.0169 O   0  0  0  0  0  0  0  0  0  0  0  0
   13.3966  -14.4398   18.5642 C   0  0  0  0  0  0  0  0  0  0  0  0
   13.7917  -15.4787   19.5911 C   0  0  1  0  0  0  0  0  0  0  0  0
   13.7776  -14.8578   20.8367 O   0  0  0  0  0  0  0  0  0  0  0  0
   12.8281  -16.6459   19.5588 C   0  0  2  0  0  0  0  0  0  0  0  0
   11.5636  -16.1573   20.0767 N   0  0  0  0  0  0  0  0  0  0  0  0
   13.2754  -17.7712   20.3814 C   0  0  0  0  0  0  0  0  0  0  0  0
   12.5813  -18.2069   21.3373 O   0  0  0  0  0  0  0  0  0  0  0  0
   14.4855  -18.4093   20.1448 O   0  0  0  0  0  0  0  0  0  0  0  0
  2  1  1  1
  2 13  1  0
  2  3  1  0
  3  4  1  0
  4  5  2  0
  6  5  1  0
  7  6  1  0
  8  7  2  0
  9  8  1  0
 10  9  2  0
 10 11  1  0
 11 12  2  0
 12  7  1  0
 12  4  1  0
 13 14  2  0
 16 15  1  6
 17 16  1  0
 19 18  1  6
 18 16  1  0
 20 19  1  0
 20 13  1  0
 21 22  2  0
 21 19  1  0
 24 23  1  6
 24 26  1  0
 25 24  1  0
 26 28  1  0
 26 27  1  1
 27 21  1  0
 28 30  1  0
 29 28  2  0
M  END
$$$$
