WLT.pdb
     RDKit          3D

 30 31  0  0  1  0  0  0  0  0999 V2000
    6.3277  -17.1571   25.4034 N   0  0  0  0  0  0  0  0  0  0  0  0
    6.9958  -16.1375   24.6828 C   0  0  1  0  0  0  0  0  0  0  0  0
    8.3767  -15.7957   25.1135 C   0  0  0  0  0  0  0  0  0  0  0  0
    8.3188  -14.9228   26.3064 C   0  0  0  0  0  0  0  0  0  0  0  0
    8.8994  -15.1648   27.5480 C   0  0  0  0  0  0  0  0  0  0  0  0
    8.6352  -14.1345   28.3306 N   0  0  0  0  0  0  0  0  0  0  0  0
    7.9047  -13.2066   27.6828 C   0  0  0  0  0  0  0  0  0  0  0  0
    7.4062  -11.9804   28.1253 C   0  0  0  0  0  0  0  0  0  0  0  0
    6.6688  -11.2056   27.2552 C   0  0  0  0  0  0  0  0  0  0  0  0
    6.4639  -11.6914   25.9851 C   0  0  0  0  0  0  0  0  0  0  0  0
    6.9574  -12.9064   25.5449 C   0  0  0  0  0  0  0  0  0  0  0  0
    7.7022  -13.6945   26.4130 C   0  0  0  0  0  0  0  0  0  0  0  0
    7.0774  -16.5128   23.2232 C   0  0  0  0  0  0  0  0  0  0  0  0
    6.7690  -17.6717   22.8527 O   0  0  0  0  0  0  0  0  0  0  0  0
    8.1151  -13.1465   21.5956 C   0  0  0  0  0  0  0  0  0  0  0  0
    8.1338  -13.6252   20.1318 C   0  0  2  0  0  0  0  0  0  0  0  0
    7.8288  -12.5096   19.1874 C   0  0  0  0  0  0  0  0  0  0  0  0
    7.1789  -14.7570   20.0542 C   0  0  0  0  0  0  0  0  0  0  0  0
    7.5278  -15.9800   20.8466 C   0  0  2  0  0  0  0  0  0  0  0  0
    7.4994  -15.5708   22.2607 N   0  0  0  0  0  0  0  0  0  0  0  0
    8.8988  -16.4110   20.4762 C   0  0  0  0  0  0  0  0  0  0  0  0
    9.1376  -16.9440   19.3741 O   0  0  0  0  0  0  0  0  0  0  0  0
   11.5535  -16.1430   18.8952 C   0  0  0  0  0  0  0  0  0  0  0  0
   12.0945  -16.0628   20.3062 C   0  0  1  0  0  0  0  0  0  0  0  0
   12.0719  -14.7234   20.6841 O   0  0  0  0  0  0  0  0  0  0  0  0
   11.2520  -16.9022   21.2428 C   0  0  2  0  0  0  0  0  0  0  0  0
    9.9768  -16.2231   21.3788 N   0  0  0  0  0  0  0  0  0  0  0  0
   11.8559  -17.0487   22.5684 C   0  0  0  0  0  0  0  0  0  0  0  0
   11.2761  -16.6357   23.6070 O   0  0  0  0  0  0  0  0  0  0  0  0
   13.0954  -17.6497   22.7405 O   0  0  0  0  0  0  0  0  0  0  0  0
  2  1  1  1
  2 13  1  0
  2  3  1  0
  3  4  1  0
  4  5  2  0
  6  5  1  0
  7  6  1  0
  8  7  2  0
  9  8  1  0
 10  9  2  0
 10 11  1  0
 11 12  2  0
 12  7  1  0
 12  4  1  0
 13 14  2  0
 16 15  1  1
 17 16  1  0
 19 18  1  6
 18 16  1  0
 20 19  1  0
 20 13  1  0
 21 22  2  0
 21 19  1  0
 24 23  1  6
 24 26  1  0
 25 24  1  0
 26 28  1  0
 26 27  1  1
 27 21  1  0
 28 30  1  0
 29 28  2  0
M  END
$$$$
