WLT.pdb
     RDKit          3D

 30 31  0  0  1  0  0  0  0  0999 V2000
    9.9069  -15.3838   24.3536 N   0  0  0  0  0  0  0  0  0  0  0  0
    8.9835  -16.4400   24.1620 C   0  0  1  0  0  0  0  0  0  0  0  0
    7.8017  -16.4798   25.0626 C   0  0  0  0  0  0  0  0  0  0  0  0
    7.7117  -15.2085   25.8137 C   0  0  0  0  0  0  0  0  0  0  0  0
    6.6700  -14.2864   25.7740 C   0  0  0  0  0  0  0  0  0  0  0  0
    6.9632  -13.3024   26.6043 N   0  0  0  0  0  0  0  0  0  0  0  0
    8.1509  -13.5103   27.2045 C   0  0  0  0  0  0  0  0  0  0  0  0
    8.8390  -12.7327   28.1371 C   0  0  0  0  0  0  0  0  0  0  0  0
   10.0621  -13.1701   28.5996 C   0  0  0  0  0  0  0  0  0  0  0  0
   10.5403  -14.3627   28.1092 C   0  0  0  0  0  0  0  0  0  0  0  0
    9.8595  -15.1347   27.1851 C   0  0  0  0  0  0  0  0  0  0  0  0
    8.6262  -14.7037   26.7132 C   0  0  0  0  0  0  0  0  0  0  0  0
    8.4513  -16.4038   22.7501 C   0  0  0  0  0  0  0  0  0  0  0  0
    7.5724  -17.2231   22.3872 O   0  0  0  0  0  0  0  0  0  0  0  0
    7.0739  -13.5606   21.7800 C   0  0  0  0  0  0  0  0  0  0  0  0
    8.2061  -13.2159   20.7944 C   0  0  2  0  0  0  0  0  0  0  0  0
    7.9874  -11.8849   20.1538 C   0  0  0  0  0  0  0  0  0  0  0  0
    8.2748  -14.3423   19.8325 C   0  0  0  0  0  0  0  0  0  0  0  0
    8.6680  -15.6752   20.3927 C   0  0  2  0  0  0  0  0  0  0  0  0
    8.9322  -15.4534   21.8241 N   0  0  0  0  0  0  0  0  0  0  0  0
    9.9100  -16.1269   19.7172 C   0  0  0  0  0  0  0  0  0  0  0  0
    9.9294  -16.3862   18.4974 O   0  0  0  0  0  0  0  0  0  0  0  0
   12.7717  -14.6263   18.7358 C   0  0  0  0  0  0  0  0  0  0  0  0
   13.2902  -15.6217   19.7509 C   0  0  1  0  0  0  0  0  0  0  0  0
   13.4138  -14.9512   20.9643 O   0  0  0  0  0  0  0  0  0  0  0  0
   12.3386  -16.7925   19.8756 C   0  0  2  0  0  0  0  0  0  0  0  0
   11.1129  -16.2741   20.4543 N   0  0  0  0  0  0  0  0  0  0  0  0
   12.8592  -17.8546   20.7383 C   0  0  0  0  0  0  0  0  0  0  0  0
   12.2842  -18.1739   21.8120 O   0  0  0  0  0  0  0  0  0  0  0  0
   14.0106  -18.5580   20.4116 O   0  0  0  0  0  0  0  0  0  0  0  0
  2  1  1  1
  2 13  1  0
  2  3  1  0
  3  4  1  0
  4  5  2  0
  6  5  1  0
  7  6  1  0
  8  7  2  0
  9  8  1  0
 10  9  2  0
 10 11  1  0
 11 12  2  0
 12  7  1  0
 12  4  1  0
 13 14  2  0
 16 15  1  1
 17 16  1  0
 19 18  1  6
 18 16  1  0
 20 19  1  0
 20 13  1  0
 21 22  2  0
 21 19  1  0
 24 23  1  6
 24 26  1  0
 25 24  1  0
 26 28  1  0
 26 27  1  1
 27 21  1  0
 28 30  1  0
 29 28  2  0
M  END
$$$$
