WLT.pdb
     RDKit          3D

 30 31  0  0  1  0  0  0  0  0999 V2000
    6.1147  -18.7593   24.2998 N   0  0  0  0  0  0  0  0  0  0  0  0
    6.4613  -17.3865   24.3196 C   0  0  1  0  0  0  0  0  0  0  0  0
    7.3023  -16.9153   25.4509 C   0  0  0  0  0  0  0  0  0  0  0  0
    6.8061  -15.6031   25.9204 C   0  0  0  0  0  0  0  0  0  0  0  0
    5.4916  -15.2703   26.2342 C   0  0  0  0  0  0  0  0  0  0  0  0
    5.4730  -14.0122   26.6348 N   0  0  0  0  0  0  0  0  0  0  0  0
    6.7078  -13.4750   26.6080 C   0  0  0  0  0  0  0  0  0  0  0  0
    7.1402  -12.1902   26.9398 C   0  0  0  0  0  0  0  0  0  0  0  0
    8.4789  -11.8831   26.8172 C   0  0  0  0  0  0  0  0  0  0  0  0
    9.3221  -12.8728   26.3692 C   0  0  0  0  0  0  0  0  0  0  0  0
    8.8951  -14.1468   26.0401 C   0  0  0  0  0  0  0  0  0  0  0  0
    7.5489  -14.4670   26.1607 C   0  0  0  0  0  0  0  0  0  0  0  0
    7.1986  -17.0272   23.0526 C   0  0  0  0  0  0  0  0  0  0  0  0
    7.5597  -17.9284   22.2569 O   0  0  0  0  0  0  0  0  0  0  0  0
    8.0686  -11.8918   19.9193 C   0  0  0  0  0  0  0  0  0  0  0  0
    8.2587  -13.4185   19.8492 C   0  0  2  0  0  0  0  0  0  0  0  0
    7.5873  -13.9989   18.6483 C   0  0  0  0  0  0  0  0  0  0  0  0
    7.7590  -13.9575   21.1370 C   0  0  0  0  0  0  0  0  0  0  0  0
    8.1198  -15.3775   21.4511 C   0  0  2  0  0  0  0  0  0  0  0  0
    7.4904  -15.6806   22.7471 N   0  0  0  0  0  0  0  0  0  0  0  0
    9.5956  -15.4766   21.5744 C   0  0  0  0  0  0  0  0  0  0  0  0
   10.3499  -15.1525   20.6355 O   0  0  0  0  0  0  0  0  0  0  0  0
   11.2955  -14.7747   25.1631 C   0  0  0  0  0  0  0  0  0  0  0  0
   11.8185  -16.0319   24.5029 C   0  0  1  0  0  0  0  0  0  0  0  0
   11.1241  -17.1075   25.0490 O   0  0  0  0  0  0  0  0  0  0  0  0
   11.6167  -15.9640   23.0041 C   0  0  2  0  0  0  0  0  0  0  0  0
   10.1835  -15.9472   22.7764 N   0  0  0  0  0  0  0  0  0  0  0  0
   12.1955  -17.1116   22.3032 C   0  0  0  0  0  0  0  0  0  0  0  0
   13.4387  -17.3098   22.2759 O   0  0  0  0  0  0  0  0  0  0  0  0
   11.3999  -18.0336   21.6367 O   0  0  0  0  0  0  0  0  0  0  0  0
  2  1  1  1
  2 13  1  0
  2  3  1  0
  3  4  1  0
  4  5  2  0
  6  5  1  0
  7  6  1  0
  8  7  2  0
  9  8  1  0
 10  9  2  0
 10 11  1  0
 11 12  2  0
 12  7  1  0
 12  4  1  0
 13 14  2  0
 16 15  1  1
 17 16  1  0
 19 18  1  1
 18 16  1  0
 20 19  1  0
 20 13  1  0
 21 22  2  0
 21 19  1  0
 24 23  1  1
 24 26  1  0
 25 24  1  0
 26 28  1  0
 26 27  1  1
 27 21  1  0
 28 30  1  0
 29 28  2  0
M  END
$$$$
