WLT.pdb
     RDKit          3D

 30 31  0  0  1  0  0  0  0  0999 V2000
    8.2328  -17.5771   22.3879 N   0  0  0  0  0  0  0  0  0  0  0  0
    8.3523  -16.1702   22.2811 C   0  0  1  0  0  0  0  0  0  0  0  0
    7.1306  -15.4122   21.9038 C   0  0  0  0  0  0  0  0  0  0  0  0
    7.1798  -15.0847   20.4620 C   0  0  0  0  0  0  0  0  0  0  0  0
    6.5751  -15.7879   19.4242 C   0  0  0  0  0  0  0  0  0  0  0  0
    6.8396  -15.1572   18.2946 N   0  0  0  0  0  0  0  0  0  0  0  0
    7.5931  -14.0625   18.5138 C   0  0  0  0  0  0  0  0  0  0  0  0
    8.1001  -13.1216   17.6163 C   0  0  0  0  0  0  0  0  0  0  0  0
    8.8623  -12.0794   18.1002 C   0  0  0  0  0  0  0  0  0  0  0  0
    9.0822  -12.0260   19.4567 C   0  0  0  0  0  0  0  0  0  0  0  0
    8.5802  -12.9576   20.3476 C   0  0  0  0  0  0  0  0  0  0  0  0
    7.8106  -14.0110   19.8709 C   0  0  0  0  0  0  0  0  0  0  0  0
    8.8301  -15.5968   23.5929 C   0  0  0  0  0  0  0  0  0  0  0  0
    9.9415  -15.0171   23.6592 O   0  0  0  0  0  0  0  0  0  0  0  0
    8.3476  -12.2350   26.1993 C   0  0  0  0  0  0  0  0  0  0  0  0
    7.1127  -13.1454   26.0648 C   0  0  2  0  0  0  0  0  0  0  0  0
    5.8988  -12.5123   26.6609 C   0  0  0  0  0  0  0  0  0  0  0  0
    7.4829  -14.4397   26.6865 C   0  0  0  0  0  0  0  0  0  0  0  0
    8.5895  -15.2046   26.0266 C   0  0  2  0  0  0  0  0  0  0  0  0
    8.0381  -15.7041   24.7561 N   0  0  0  0  0  0  0  0  0  0  0  0
    8.9612  -16.3482   26.8966 C   0  0  0  0  0  0  0  0  0  0  0  0
    8.6371  -16.3817   28.1006 O   0  0  0  0  0  0  0  0  0  0  0  0
    9.2187  -20.2205   25.6637 C   0  0  0  0  0  0  0  0  0  0  0  0
   10.5017  -19.6752   26.2525 C   0  0  1  0  0  0  0  0  0  0  0  0
   11.3011  -19.2585   25.1921 O   0  0  0  0  0  0  0  0  0  0  0  0
   10.2047  -18.5240   27.1897 C   0  0  2  0  0  0  0  0  0  0  0  0
    9.7006  -17.4379   26.3697 N   0  0  0  0  0  0  0  0  0  0  0  0
   11.3915  -18.0625   27.9120 C   0  0  0  0  0  0  0  0  0  0  0  0
   11.8823  -16.9202   27.7133 O   0  0  0  0  0  0  0  0  0  0  0  0
   12.0298  -18.8637   28.8491 O   0  0  0  0  0  0  0  0  0  0  0  0
  2  1  1  1
  2 13  1  0
  2  3  1  0
  3  4  1  0
  4  5  2  0
  6  5  1  0
  7  6  1  0
  8  7  2  0
  9  8  1  0
 10  9  2  0
 10 11  1  0
 11 12  2  0
 12  7  1  0
 12  4  1  0
 13 14  2  0
 16 15  1  1
 17 16  1  0
 19 18  1  1
 18 16  1  0
 20 19  1  0
 20 13  1  0
 21 22  2  0
 21 19  1  0
 24 23  1  6
 24 26  1  0
 25 24  1  0
 26 28  1  0
 26 27  1  6
 27 21  1  0
 28 30  1  0
 29 28  2  0
M  END
$$$$
