WLT.pdb
     RDKit          3D

 30 31  0  0  1  0  0  0  0  0999 V2000
    7.0669  -16.5166   21.6307 N   0  0  0  0  0  0  0  0  0  0  0  0
    8.3085  -17.0960   21.9883 C   0  0  1  0  0  0  0  0  0  0  0  0
    9.3888  -17.0689   20.9678 C   0  0  0  0  0  0  0  0  0  0  0  0
    9.4636  -15.7198   20.3653 C   0  0  0  0  0  0  0  0  0  0  0  0
   10.4845  -15.2182   19.5633 C   0  0  0  0  0  0  0  0  0  0  0  0
   10.1609  -13.9871   19.2121 N   0  0  0  0  0  0  0  0  0  0  0  0
    8.9729  -13.6285   19.7356 C   0  0  0  0  0  0  0  0  0  0  0  0
    8.2632  -12.4317   19.6265 C   0  0  0  0  0  0  0  0  0  0  0  0
    7.0521  -12.3115   20.2747 C   0  0  0  0  0  0  0  0  0  0  0  0
    6.6072  -13.3912   21.0009 C   0  0  0  0  0  0  0  0  0  0  0  0
    7.3093  -14.5781   21.1099 C   0  0  0  0  0  0  0  0  0  0  0  0
    8.5299  -14.7102   20.4603 C   0  0  0  0  0  0  0  0  0  0  0  0
    8.8562  -16.4127   23.2175 C   0  0  0  0  0  0  0  0  0  0  0  0
   10.0964  -16.3340   23.3944 O   0  0  0  0  0  0  0  0  0  0  0  0
    8.3783  -12.5294   25.6023 C   0  0  0  0  0  0  0  0  0  0  0  0
    7.1136  -13.4068   25.5496 C   0  0  2  0  0  0  0  0  0  0  0  0
    5.9476  -12.7247   26.1859 C   0  0  0  0  0  0  0  0  0  0  0  0
    7.4771  -14.6958   26.1863 C   0  0  0  0  0  0  0  0  0  0  0  0
    8.5352  -15.5043   25.4993 C   0  0  2  0  0  0  0  0  0  0  0  0
    7.9861  -15.8561   24.1793 N   0  0  0  0  0  0  0  0  0  0  0  0
    8.7768  -16.7384   26.2875 C   0  0  0  0  0  0  0  0  0  0  0  0
    7.8327  -17.4349   26.7110 O   0  0  0  0  0  0  0  0  0  0  0  0
   11.0229  -19.6085   25.4103 C   0  0  0  0  0  0  0  0  0  0  0  0
   11.5096  -19.0659   26.7365 C   0  0  1  0  0  0  0  0  0  0  0  0
   12.6025  -18.2452   26.4735 O   0  0  0  0  0  0  0  0  0  0  0  0
   10.4067  -18.2917   27.4265 C   0  0  2  0  0  0  0  0  0  0  0  0
   10.1013  -17.1546   26.5780 N   0  0  0  0  0  0  0  0  0  0  0  0
   10.8006  -17.8046   28.7497 C   0  0  0  0  0  0  0  0  0  0  0  0
   10.9360  -16.5755   28.9872 O   0  0  0  0  0  0  0  0  0  0  0  0
   11.0427  -18.6760   29.8030 O   0  0  0  0  0  0  0  0  0  0  0  0
  2  1  1  6
  2 13  1  0
  2  3  1  0
  3  4  1  0
  4  5  2  0
  6  5  1  0
  7  6  1  0
  8  7  2  0
  9  8  1  0
 10  9  2  0
 10 11  1  0
 11 12  2  0
 12  7  1  0
 12  4  1  0
 13 14  2  0
 16 15  1  1
 17 16  1  0
 19 18  1  1
 18 16  1  0
 20 19  1  0
 20 13  1  0
 21 22  2  0
 21 19  1  0
 24 23  1  6
 24 26  1  0
 25 24  1  0
 26 28  1  0
 26 27  1  6
 27 21  1  0
 28 30  1  0
 29 28  2  0
M  END
$$$$
