WLT.pdb
     RDKit          3D

 30 31  0  0  1  0  0  0  0  0999 V2000
    6.0129  -18.1965   24.1503 N   0  0  0  0  0  0  0  0  0  0  0  0
    6.7488  -16.9869   24.1284 C   0  0  1  0  0  0  0  0  0  0  0  0
    7.7196  -16.7633   25.2316 C   0  0  0  0  0  0  0  0  0  0  0  0
    7.1702  -15.7668   26.1768 C   0  0  0  0  0  0  0  0  0  0  0  0
    6.4188  -16.0245   27.3196 C   0  0  0  0  0  0  0  0  0  0  0  0
    6.1441  -14.8692   27.8973 N   0  0  0  0  0  0  0  0  0  0  0  0
    6.6706  -13.8415   27.2039 C   0  0  0  0  0  0  0  0  0  0  0  0
    6.6204  -12.4684   27.4484 C   0  0  0  0  0  0  0  0  0  0  0  0
    7.2448  -11.6097   26.5685 C   0  0  0  0  0  0  0  0  0  0  0  0
    7.8893  -12.1623   25.4867 C   0  0  0  0  0  0  0  0  0  0  0  0
    7.9401  -13.5230   25.2431 C   0  0  0  0  0  0  0  0  0  0  0  0
    7.3152  -14.3970   26.1234 C   0  0  0  0  0  0  0  0  0  0  0  0
    7.5269  -16.8854   22.8392 C   0  0  0  0  0  0  0  0  0  0  0  0
    7.5977  -17.8724   22.0669 O   0  0  0  0  0  0  0  0  0  0  0  0
    6.7670  -14.1194   19.7337 C   0  0  0  0  0  0  0  0  0  0  0  0
    7.6352  -13.4428   20.8110 C   0  0  2  0  0  0  0  0  0  0  0  0
    7.7678  -11.9760   20.5649 C   0  0  0  0  0  0  0  0  0  0  0  0
    8.9271  -14.1706   20.8188 C   0  0  0  0  0  0  0  0  0  0  0  0
    8.8733  -15.6217   21.1884 C   0  0  2  0  0  0  0  0  0  0  0  0
    8.1818  -15.6859   22.4866 N   0  0  0  0  0  0  0  0  0  0  0  0
   10.2613  -16.1268   21.3335 C   0  0  0  0  0  0  0  0  0  0  0  0
   11.0779  -16.0639   20.3928 O   0  0  0  0  0  0  0  0  0  0  0  0
   12.9033  -15.1856   23.8257 C   0  0  0  0  0  0  0  0  0  0  0  0
   12.5566  -16.6437   24.0346 C   0  0  1  0  0  0  0  0  0  0  0  0
   11.6049  -16.7032   25.0485 O   0  0  0  0  0  0  0  0  0  0  0  0
   12.0199  -17.2473   22.7543 C   0  0  2  0  0  0  0  0  0  0  0  0
   10.6911  -16.6975   22.5589 N   0  0  0  0  0  0  0  0  0  0  0  0
   11.9260  -18.7070   22.8133 C   0  0  0  0  0  0  0  0  0  0  0  0
   10.8277  -19.3043   22.6636 O   0  0  0  0  0  0  0  0  0  0  0  0
   13.0438  -19.4992   23.0372 O   0  0  0  0  0  0  0  0  0  0  0  0
  2  1  1  1
  2 13  1  0
  2  3  1  0
  3  4  1  0
  4  5  2  0
  6  5  1  0
  7  6  1  0
  8  7  2  0
  9  8  1  0
 10  9  2  0
 10 11  1  0
 11 12  2  0
 12  7  1  0
 12  4  1  0
 13 14  2  0
 16 15  1  6
 17 16  1  0
 19 18  1  1
 18 16  1  0
 20 19  1  0
 20 13  1  0
 21 22  2  0
 21 19  1  0
 24 23  1  6
 24 26  1  0
 25 24  1  0
 26 28  1  0
 26 27  1  1
 27 21  1  0
 28 30  1  0
 29 28  2  0
M  END
$$$$
