EPS.pdb
     RDKit          3D

 23 23  0  0  1  0  0  0  0  0999 V2000
    9.6236  -14.6021   14.7886 N   0  0  0  0  0  0  0  0  0  0  0  0
    8.6744  -15.1113   15.8068 C   0  0  1  0  0  0  0  0  0  0  0  0
    8.3195  -16.5272   15.4009 C   0  0  0  0  0  0  0  0  0  0  0  0
    7.4416  -17.2558   16.3694 C   0  0  0  0  0  0  0  0  0  0  0  0
    7.1367  -18.6424   15.8644 C   0  0  0  0  0  0  0  0  0  0  0  0
    6.0567  -19.1803   16.2006 O   0  0  0  0  0  0  0  0  0  0  0  0
    9.3697  -15.0597   17.1234 C   0  0  0  0  0  0  0  0  0  0  0  0
   10.3774  -15.8456   17.2039 O   0  0  0  0  0  0  0  0  0  0  0  0
    8.0047  -19.3175   15.0562 O   0  0  0  0  0  0  0  0  0  0  0  0
    8.9743  -14.2323   18.1893 N   0  0  0  0  0  0  0  0  0  0  0  0
    8.3844  -12.8950   17.9551 C   0  0  0  0  0  0  0  0  0  0  0  0
    7.1727  -12.9627   18.8491 C   0  0  0  0  0  0  0  0  0  0  0  0
    7.4553  -14.0439   19.8634 C   0  0  0  0  0  0  0  0  0  0  0  0
    8.9666  -14.2959   19.6091 C   0  0  1  0  0  0  0  0  0  0  0  0
    9.3167  -15.5290   20.2781 C   0  0  0  0  0  0  0  0  0  0  0  0
    8.7210  -16.6194   20.1990 O   0  0  0  0  0  0  0  0  0  0  0  0
   13.2312  -15.7300   21.7168 O   0  0  0  0  0  0  0  0  0  0  0  0
   12.4997  -16.8574   21.4202 C   0  0  0  0  0  0  0  0  0  0  0  0
   11.0189  -16.6673   21.7528 C   0  0  2  0  0  0  0  0  0  0  0  0
   10.4692  -15.5106   21.1258 N   0  0  0  0  0  0  0  0  0  0  0  0
   10.9317  -16.5250   23.2151 C   0  0  0  0  0  0  0  0  0  0  0  0
   11.3755  -17.5209   24.0478 O   0  0  0  0  0  0  0  0  0  0  0  0
   10.4467  -15.4823   23.6905 O   0  0  0  0  0  0  0  0  0  0  0  0
  2  1  1  6
  2  7  1  0
  3  2  1  0
  4  3  1  0
  5  4  1  0
  6  5  2  0
  7  8  2  0
  9  5  1  0
 10  7  1  0
 11 10  1  0
 12 11  1  0
 13 12  1  0
 13 14  1  0
 14 15  1  6
 14 10  1  0
 15 16  2  0
 19 18  1  1
 18 17  1  0
 20 19  1  0
 20 15  1  0
 21 22  1  0
 21 19  1  0
 23 21  2  0
M  END
$$$$
