EPS.pdb
     RDKit          3D

 23 23  0  0  1  0  0  0  0  0999 V2000
    9.7788  -15.0652   15.0126 N   0  0  0  0  0  0  0  0  0  0  0  0
    8.7129  -15.0789   16.0424 C   0  0  1  0  0  0  0  0  0  0  0  0
    7.9136  -16.3474   15.8242 C   0  0  0  0  0  0  0  0  0  0  0  0
    8.4107  -17.5396   16.5798 C   0  0  0  0  0  0  0  0  0  0  0  0
    7.4702  -18.7039   16.4052 C   0  0  0  0  0  0  0  0  0  0  0  0
    6.4518  -18.5519   15.6921 O   0  0  0  0  0  0  0  0  0  0  0  0
    9.3838  -15.0570   17.3724 C   0  0  0  0  0  0  0  0  0  0  0  0
   10.3230  -15.9196   17.4889 O   0  0  0  0  0  0  0  0  0  0  0  0
    7.7030  -19.9088   17.0023 O   0  0  0  0  0  0  0  0  0  0  0  0
    9.0354  -14.1794   18.4143 N   0  0  0  0  0  0  0  0  0  0  0  0
    8.5025  -12.8256   18.1420 C   0  0  0  0  0  0  0  0  0  0  0  0
    7.2978  -12.8112   19.0478 C   0  0  0  0  0  0  0  0  0  0  0  0
    7.5426  -13.8709   20.0941 C   0  0  0  0  0  0  0  0  0  0  0  0
    9.0388  -14.1973   19.8355 C   0  0  1  0  0  0  0  0  0  0  0  0
    9.3411  -15.4226   20.5410 C   0  0  0  0  0  0  0  0  0  0  0  0
    8.6862  -16.4813   20.5181 O   0  0  0  0  0  0  0  0  0  0  0  0
   13.1338  -15.5476   22.4218 O   0  0  0  0  0  0  0  0  0  0  0  0
   12.5280  -16.6993   21.9735 C   0  0  0  0  0  0  0  0  0  0  0  0
   11.0037  -16.5910   22.0371 C   0  0  2  0  0  0  0  0  0  0  0  0
   10.5159  -15.4363   21.3576 N   0  0  0  0  0  0  0  0  0  0  0  0
   10.6472  -16.5125   23.4630 C   0  0  0  0  0  0  0  0  0  0  0  0
   10.9387  -17.5433   24.3201 O   0  0  0  0  0  0  0  0  0  0  0  0
   10.0739  -15.4917   23.8847 O   0  0  0  0  0  0  0  0  0  0  0  0
  2  1  1  6
  2  7  1  0
  3  2  1  0
  4  3  1  0
  5  4  1  0
  6  5  2  0
  7  8  2  0
  9  5  1  0
 10  7  1  0
 11 10  1  0
 12 11  1  0
 13 12  1  0
 13 14  1  0
 14 15  1  6
 14 10  1  0
 15 16  2  0
 19 18  1  1
 18 17  1  0
 20 19  1  0
 20 15  1  0
 21 22  1  0
 21 19  1  0
 23 21  2  0
M  END
$$$$
