EPS.pdb
     RDKit          3D

 23 23  0  0  1  0  0  0  0  0999 V2000
   11.1254  -15.1975   16.2780 N   0  0  0  0  0  0  0  0  0  0  0  0
    9.7727  -15.3532   16.8635 C   0  0  1  0  0  0  0  0  0  0  0  0
    9.2666  -16.7149   16.4332 C   0  0  0  0  0  0  0  0  0  0  0  0
    7.9366  -17.0981   17.0023 C   0  0  0  0  0  0  0  0  0  0  0  0
    7.5231  -18.4592   16.5052 C   0  0  0  0  0  0  0  0  0  0  0  0
    7.5541  -19.4249   17.3024 O   0  0  0  0  0  0  0  0  0  0  0  0
    9.9170  -15.2468   18.3425 C   0  0  0  0  0  0  0  0  0  0  0  0
   10.6633  -16.1535   18.8530 O   0  0  0  0  0  0  0  0  0  0  0  0
    7.1195  -18.6594   15.2171 O   0  0  0  0  0  0  0  0  0  0  0  0
    9.3019  -14.2519   19.1228 N   0  0  0  0  0  0  0  0  0  0  0  0
    9.0144  -12.9063   18.5774 C   0  0  0  0  0  0  0  0  0  0  0  0
    7.5748  -12.7378   18.9912 C   0  0  0  0  0  0  0  0  0  0  0  0
    7.3477  -13.6983   20.1329 C   0  0  0  0  0  0  0  0  0  0  0  0
    8.8066  -14.1271   20.4492 C   0  0  1  0  0  0  0  0  0  0  0  0
    8.7382  -15.2895   21.3063 C   0  0  0  0  0  0  0  0  0  0  0  0
    7.8955  -16.2048   21.2613 O   0  0  0  0  0  0  0  0  0  0  0  0
   11.9674  -17.2944   22.2926 O   0  0  0  0  0  0  0  0  0  0  0  0
   10.6690  -17.6768   22.5417 C   0  0  0  0  0  0  0  0  0  0  0  0
    9.8654  -16.5444   23.1831 C   0  0  2  0  0  0  0  0  0  0  0  0
    9.7396  -15.4161   22.3204 N   0  0  0  0  0  0  0  0  0  0  0  0
   10.5896  -16.1545   24.4038 C   0  0  0  0  0  0  0  0  0  0  0  0
   10.8087  -17.0584   25.4123 O   0  0  0  0  0  0  0  0  0  0  0  0
   11.0038  -14.9860   24.5105 O   0  0  0  0  0  0  0  0  0  0  0  0
  2  1  1  6
  2  7  1  0
  3  2  1  0
  4  3  1  0
  5  4  1  0
  6  5  2  0
  7  8  2  0
  9  5  1  0
 10  7  1  0
 11 10  1  0
 12 11  1  0
 13 12  1  0
 13 14  1  0
 14 15  1  6
 14 10  1  0
 15 16  2  0
 19 18  1  6
 18 17  1  0
 20 19  1  0
 20 15  1  0
 21 22  1  0
 21 19  1  0
 23 21  2  0
M  END
$$$$
