EPS.pdb
     RDKit          3D

 23 23  0  0  1  0  0  0  0  0999 V2000
   11.9460  -14.1757   16.7086 N   0  0  0  0  0  0  0  0  0  0  0  0
   10.5818  -14.6644   17.0197 C   0  0  1  0  0  0  0  0  0  0  0  0
   10.4269  -15.9980   16.3176 C   0  0  0  0  0  0  0  0  0  0  0  0
    9.4771  -16.9476   16.9777 C   0  0  0  0  0  0  0  0  0  0  0  0
    9.0510  -18.0232   16.0121 C   0  0  0  0  0  0  0  0  0  0  0  0
    9.7153  -19.0839   15.9630 O   0  0  0  0  0  0  0  0  0  0  0  0
   10.4858  -14.7924   18.5009 C   0  0  0  0  0  0  0  0  0  0  0  0
   11.2548  -15.6918   18.9902 O   0  0  0  0  0  0  0  0  0  0  0  0
    7.9669  -17.8669   15.1981 O   0  0  0  0  0  0  0  0  0  0  0  0
    9.6389  -14.0088   19.3044 N   0  0  0  0  0  0  0  0  0  0  0  0
    9.1415  -12.6905   18.8511 C   0  0  0  0  0  0  0  0  0  0  0  0
    7.6701  -12.8289   19.1478 C   0  0  0  0  0  0  0  0  0  0  0  0
    7.5479  -13.9235   20.1796 C   0  0  0  0  0  0  0  0  0  0  0  0
    9.0350  -14.1088   20.5872 C   0  0  1  0  0  0  0  0  0  0  0  0
    9.1268  -15.3437   21.3337 C   0  0  0  0  0  0  0  0  0  0  0  0
    8.6586  -16.4510   21.0103 O   0  0  0  0  0  0  0  0  0  0  0  0
   12.4043  -15.9329   23.4471 O   0  0  0  0  0  0  0  0  0  0  0  0
   11.3388  -16.3174   24.2287 C   0  0  0  0  0  0  0  0  0  0  0  0
   10.0575  -16.4469   23.4036 C   0  0  2  0  0  0  0  0  0  0  0  0
    9.8282  -15.3056   22.5802 N   0  0  0  0  0  0  0  0  0  0  0  0
    8.9520  -16.5930   24.3643 C   0  0  0  0  0  0  0  0  0  0  0  0
    8.8621  -17.6979   25.1725 O   0  0  0  0  0  0  0  0  0  0  0  0
    8.0935  -15.6950   24.4350 O   0  0  0  0  0  0  0  0  0  0  0  0
  2  1  1  1
  2  7  1  0
  3  2  1  0
  4  3  1  0
  5  4  1  0
  6  5  2  0
  7  8  2  0
  9  5  1  0
 10  7  1  0
 11 10  1  0
 12 11  1  0
 13 12  1  0
 13 14  1  0
 14 15  1  6
 14 10  1  0
 15 16  2  0
 19 18  1  1
 18 17  1  0
 20 19  1  0
 20 15  1  0
 21 22  1  0
 21 19  1  0
 23 21  2  0
M  END
$$$$
