EPS.pdb
     RDKit          3D

 23 23  0  0  1  0  0  0  0  0999 V2000
    9.7253  -15.3963   15.5473 N   0  0  0  0  0  0  0  0  0  0  0  0
    8.7173  -15.6465   16.6047 C   0  0  1  0  0  0  0  0  0  0  0  0
    8.2492  -17.0768   16.4297 C   0  0  0  0  0  0  0  0  0  0  0  0
    7.3261  -17.5699   17.4994 C   0  0  0  0  0  0  0  0  0  0  0  0
    6.9188  -18.9951   17.2283 C   0  0  0  0  0  0  0  0  0  0  0  0
    7.7549  -19.9067   17.4249 O   0  0  0  0  0  0  0  0  0  0  0  0
    9.3902  -15.4299   17.9162 C   0  0  0  0  0  0  0  0  0  0  0  0
   10.3484  -16.2482   18.1439 O   0  0  0  0  0  0  0  0  0  0  0  0
    5.6698  -19.3099   16.7773 O   0  0  0  0  0  0  0  0  0  0  0  0
    9.0245  -14.4269   18.8312 N   0  0  0  0  0  0  0  0  0  0  0  0
    8.5277  -13.1082   18.3784 C   0  0  0  0  0  0  0  0  0  0  0  0
    7.2938  -12.9651   19.2323 C   0  0  0  0  0  0  0  0  0  0  0  0
    7.4826  -13.8934   20.4072 C   0  0  0  0  0  0  0  0  0  0  0  0
    8.9800  -14.2720   20.2433 C   0  0  1  0  0  0  0  0  0  0  0  0
    9.2343  -15.4070   21.1022 C   0  0  0  0  0  0  0  0  0  0  0  0
    8.5984  -16.4768   21.1377 O   0  0  0  0  0  0  0  0  0  0  0  0
   12.4745  -17.1885   24.3048 O   0  0  0  0  0  0  0  0  0  0  0  0
   12.1549  -16.2230   23.3775 C   0  0  0  0  0  0  0  0  0  0  0  0
   10.6895  -16.3207   22.9502 C   0  0  2  0  0  0  0  0  0  0  0  0
   10.3312  -15.3055   22.0151 N   0  0  0  0  0  0  0  0  0  0  0  0
    9.8844  -16.1720   24.1733 C   0  0  0  0  0  0  0  0  0  0  0  0
    9.8113  -17.1844   25.0963 O   0  0  0  0  0  0  0  0  0  0  0  0
    9.2663  -15.1086   24.3614 O   0  0  0  0  0  0  0  0  0  0  0  0
  2  1  1  6
  2  7  1  0
  3  2  1  0
  4  3  1  0
  5  4  1  0
  6  5  2  0
  7  8  2  0
  9  5  1  0
 10  7  1  0
 11 10  1  0
 12 11  1  0
 13 12  1  0
 13 14  1  0
 14 15  1  1
 14 10  1  0
 15 16  2  0
 19 18  1  1
 18 17  1  0
 20 19  1  0
 20 15  1  0
 21 22  1  0
 21 19  1  0
 23 21  2  0
M  END
$$$$
