EPS.pdb
     RDKit          3D

 23 23  0  0  1  0  0  0  0  0999 V2000
    9.6594  -15.7757   15.6859 N   0  0  0  0  0  0  0  0  0  0  0  0
    8.6369  -15.4147   16.6964 C   0  0  1  0  0  0  0  0  0  0  0  0
    7.6221  -16.5396   16.7094 C   0  0  0  0  0  0  0  0  0  0  0  0
    8.1980  -17.9060   16.5081 C   0  0  0  0  0  0  0  0  0  0  0  0
    7.2691  -18.9561   17.0605 C   0  0  0  0  0  0  0  0  0  0  0  0
    7.6489  -20.1496   17.0694 O   0  0  0  0  0  0  0  0  0  0  0  0
    9.3384  -15.2730   18.0030 C   0  0  0  0  0  0  0  0  0  0  0  0
   10.2787  -16.1247   18.1769 O   0  0  0  0  0  0  0  0  0  0  0  0
    6.0346  -18.6366   17.5464 O   0  0  0  0  0  0  0  0  0  0  0  0
    9.0156  -14.3019   18.9674 N   0  0  0  0  0  0  0  0  0  0  0  0
    8.6428  -12.9219   18.5834 C   0  0  0  0  0  0  0  0  0  0  0  0
    7.3902  -12.7324   19.4000 C   0  0  0  0  0  0  0  0  0  0  0  0
    7.4573  -13.7436   20.5183 C   0  0  0  0  0  0  0  0  0  0  0  0
    8.9257  -14.2313   20.3841 C   0  0  1  0  0  0  0  0  0  0  0  0
    9.0548  -15.4340   21.1762 C   0  0  0  0  0  0  0  0  0  0  0  0
    8.2019  -16.3289   21.3237 O   0  0  0  0  0  0  0  0  0  0  0  0
   12.8160  -15.9829   23.0684 O   0  0  0  0  0  0  0  0  0  0  0  0
   12.0804  -17.0880   22.7055 C   0  0  0  0  0  0  0  0  0  0  0  0
   10.5834  -16.7765   22.6692 C   0  0  2  0  0  0  0  0  0  0  0  0
   10.2896  -15.6317   21.8714 N   0  0  0  0  0  0  0  0  0  0  0  0
   10.1721  -16.5278   24.0604 C   0  0  0  0  0  0  0  0  0  0  0  0
   10.3215  -17.4940   25.0228 O   0  0  0  0  0  0  0  0  0  0  0  0
    9.6836  -15.4219   24.3550 O   0  0  0  0  0  0  0  0  0  0  0  0
  2  1  1  6
  2  7  1  0
  3  2  1  0
  4  3  1  0
  5  4  1  0
  6  5  2  0
  7  8  2  0
  9  5  1  0
 10  7  1  0
 11 10  1  0
 12 11  1  0
 13 12  1  0
 13 14  1  0
 14 15  1  1
 14 10  1  0
 15 16  2  0
 19 18  1  1
 18 17  1  0
 20 19  1  0
 20 15  1  0
 21 22  1  0
 21 19  1  0
 23 21  2  0
M  END
$$$$
