EPS.pdb
     RDKit          3D

 23 23  0  0  1  0  0  0  0  0999 V2000
    9.4678  -16.2831   16.2016 N   0  0  0  0  0  0  0  0  0  0  0  0
    8.4771  -15.8013   17.1932 C   0  0  1  0  0  0  0  0  0  0  0  0
    7.4055  -16.8679   17.2910 C   0  0  0  0  0  0  0  0  0  0  0  0
    7.9220  -18.2612   17.4680 C   0  0  0  0  0  0  0  0  0  0  0  0
    7.0496  -19.0286   18.4276 C   0  0  0  0  0  0  0  0  0  0  0  0
    7.4319  -19.1607   19.6130 O   0  0  0  0  0  0  0  0  0  0  0  0
    9.2001  -15.6085   18.4815 C   0  0  0  0  0  0  0  0  0  0  0  0
   10.1256  -16.4695   18.6857 O   0  0  0  0  0  0  0  0  0  0  0  0
    5.8632  -19.5773   18.0354 O   0  0  0  0  0  0  0  0  0  0  0  0
    8.9105  -14.5838   19.3998 N   0  0  0  0  0  0  0  0  0  0  0  0
    8.5102  -13.2312   18.9512 C   0  0  0  0  0  0  0  0  0  0  0  0
    7.2919  -13.0008   19.8084 C   0  0  0  0  0  0  0  0  0  0  0  0
    7.4152  -13.9433   20.9807 C   0  0  0  0  0  0  0  0  0  0  0  0
    8.8806  -14.4295   20.8123 C   0  0  1  0  0  0  0  0  0  0  0  0
    9.0534  -15.5822   21.6679 C   0  0  0  0  0  0  0  0  0  0  0  0
    8.2548  -16.5241   21.8261 O   0  0  0  0  0  0  0  0  0  0  0  0
   12.9408  -16.1489   23.2235 O   0  0  0  0  0  0  0  0  0  0  0  0
   12.0713  -17.2024   23.0555 C   0  0  0  0  0  0  0  0  0  0  0  0
   10.6187  -16.7663   23.2539 C   0  0  2  0  0  0  0  0  0  0  0  0
   10.2676  -15.6640   22.4203 N   0  0  0  0  0  0  0  0  0  0  0  0
   10.4859  -16.3786   24.6676 C   0  0  0  0  0  0  0  0  0  0  0  0
   10.1047  -15.1078   25.0169 O   0  0  0  0  0  0  0  0  0  0  0  0
   10.7254  -17.2240   25.5486 O   0  0  0  0  0  0  0  0  0  0  0  0
  2  1  1  6
  2  7  1  0
  3  2  1  0
  4  3  1  0
  5  4  1  0
  6  5  2  0
  7  8  2  0
  9  5  1  0
 10  7  1  0
 11 10  1  0
 12 11  1  0
 13 12  1  0
 13 14  1  0
 14 15  1  1
 14 10  1  0
 15 16  2  0
 19 18  1  1
 18 17  1  0
 20 19  1  0
 20 15  1  0
 21 22  1  0
 21 19  1  0
 23 21  2  0
M  END
$$$$
