EPS.pdb
     RDKit          3D

 23 23  0  0  1  0  0  0  0  0999 V2000
    8.0509  -15.0553   20.0285 N   0  0  0  0  0  0  0  0  0  0  0  0
    7.2899  -14.7940   21.2732 C   0  0  1  0  0  0  0  0  0  0  0  0
    6.1213  -15.7582   21.2791 C   0  0  0  0  0  0  0  0  0  0  0  0
    6.4895  -17.1912   21.0547 C   0  0  0  0  0  0  0  0  0  0  0  0
    5.3893  -18.1001   21.5385 C   0  0  0  0  0  0  0  0  0  0  0  0
    5.4374  -18.5286   22.7145 O   0  0  0  0  0  0  0  0  0  0  0  0
    8.2182  -15.0262   22.4151 C   0  0  0  0  0  0  0  0  0  0  0  0
    9.0745  -15.9540   22.2013 O   0  0  0  0  0  0  0  0  0  0  0  0
    4.3516  -18.4625   20.7296 O   0  0  0  0  0  0  0  0  0  0  0  0
    8.1763  -14.3051   23.6215 N   0  0  0  0  0  0  0  0  0  0  0  0
    7.7666  -12.8833   23.6610 C   0  0  0  0  0  0  0  0  0  0  0  0
    6.7616  -12.9123   24.7839 C   0  0  0  0  0  0  0  0  0  0  0  0
    7.0691  -14.1473   25.5950 C   0  0  0  0  0  0  0  0  0  0  0  0
    8.4416  -14.5573   24.9948 C   0  0  1  0  0  0  0  0  0  0  0  0
    8.7220  -15.9040   25.4402 C   0  0  0  0  0  0  0  0  0  0  0  0
    7.9409  -16.8735   25.4323 O   0  0  0  0  0  0  0  0  0  0  0  0
   12.3378  -18.9738   26.3893 O   0  0  0  0  0  0  0  0  0  0  0  0
   11.9152  -17.7430   25.9413 C   0  0  0  0  0  0  0  0  0  0  0  0
   10.4804  -17.4494   26.3824 C   0  0  2  0  0  0  0  0  0  0  0  0
   10.0338  -16.1670   25.9473 N   0  0  0  0  0  0  0  0  0  0  0  0
   10.4739  -17.5018   27.8533 C   0  0  0  0  0  0  0  0  0  0  0  0
   10.6748  -18.6854   28.5172 O   0  0  0  0  0  0  0  0  0  0  0  0
   10.2826  -16.4512   28.4921 O   0  0  0  0  0  0  0  0  0  0  0  0
  2  1  1  6
  2  7  1  0
  3  2  1  0
  4  3  1  0
  5  4  1  0
  6  5  2  0
  7  8  2  0
  9  5  1  0
 10  7  1  0
 11 10  1  0
 12 11  1  0
 13 12  1  0
 13 14  1  0
 14 15  1  6
 14 10  1  0
 15 16  2  0
 19 18  1  1
 18 17  1  0
 20 19  1  0
 20 15  1  0
 21 22  1  0
 21 19  1  0
 23 21  2  0
M  END
$$$$
