EPS.pdb
     RDKit          3D

 23 23  0  0  1  0  0  0  0  0999 V2000
   10.4992  -15.2234   15.9488 N   0  0  0  0  0  0  0  0  0  0  0  0
    9.2510  -15.3939   16.7298 C   0  0  1  0  0  0  0  0  0  0  0  0
    8.6998  -16.7601   16.3761 C   0  0  0  0  0  0  0  0  0  0  0  0
    7.5084  -17.1822   17.1773 C   0  0  0  0  0  0  0  0  0  0  0  0
    7.0393  -18.5473   16.7449 C   0  0  0  0  0  0  0  0  0  0  0  0
    7.2101  -18.8916   15.5528 O   0  0  0  0  0  0  0  0  0  0  0  0
    9.6141  -15.2881   18.1708 C   0  0  0  0  0  0  0  0  0  0  0  0
   10.4203  -16.2010   18.5664 O   0  0  0  0  0  0  0  0  0  0  0  0
    6.4380  -19.4078   17.6169 O   0  0  0  0  0  0  0  0  0  0  0  0
    9.1300  -14.2876   19.0321 N   0  0  0  0  0  0  0  0  0  0  0  0
    8.8072  -12.9299   18.5391 C   0  0  0  0  0  0  0  0  0  0  0  0
    7.4380  -12.7324   19.1378 C   0  0  0  0  0  0  0  0  0  0  0  0
    7.3376  -13.6997   20.2919 C   0  0  0  0  0  0  0  0  0  0  0  0
    8.8142  -14.1657   20.4125 C   0  0  1  0  0  0  0  0  0  0  0  0
    8.8293  -15.3353   21.2623 C   0  0  0  0  0  0  0  0  0  0  0  0
    7.9704  -16.2352   21.3135 O   0  0  0  0  0  0  0  0  0  0  0  0
   11.7320  -17.7527   21.5354 O   0  0  0  0  0  0  0  0  0  0  0  0
   10.5067  -17.8790   22.1493 C   0  0  0  0  0  0  0  0  0  0  0  0
   10.1601  -16.6344   22.9680 C   0  0  2  0  0  0  0  0  0  0  0  0
    9.9446  -15.4900   22.1451 N   0  0  0  0  0  0  0  0  0  0  0  0
   11.3013  -16.3901   23.8648 C   0  0  0  0  0  0  0  0  0  0  0  0
   11.9990  -15.2101   23.8122 O   0  0  0  0  0  0  0  0  0  0  0  0
   11.6281  -17.2740   24.6775 O   0  0  0  0  0  0  0  0  0  0  0  0
  2  1  1  6
  2  7  1  0
  3  2  1  0
  4  3  1  0
  5  4  1  0
  6  5  2  0
  7  8  2  0
  9  5  1  0
 10  7  1  0
 11 10  1  0
 12 11  1  0
 13 12  1  0
 13 14  1  0
 14 15  1  1
 14 10  1  0
 15 16  2  0
 19 18  1  6
 18 17  1  0
 20 19  1  0
 20 15  1  0
 21 22  1  0
 21 19  1  0
 23 21  2  0
M  END
$$$$
