KFK.pdb
     RDKit          3D

 30 30  0  0  1  0  0  0  0  0999 V2000
   28.2168  -21.2805  -15.2410 N   0  0  0  0  0  0  0  0  0  0  0  0
   27.2215  -20.2758  -14.8806 C   0  0  1  0  0  0  0  0  0  0  0  0
   26.7493  -19.6651  -16.1633 C   0  0  0  0  0  0  0  0  0  0  0  0
   27.8114  -19.4955  -17.2165 C   0  0  0  0  0  0  0  0  0  0  0  0
   27.4466  -20.2669  -18.4904 C   0  0  0  0  0  0  0  0  0  0  0  0
   28.5220  -20.1397  -19.5417 C   0  0  0  0  0  0  0  0  0  0  0  0
   28.0869  -20.8877  -20.7181 N   0  0  0  0  0  0  0  0  0  0  0  0
   26.1193  -20.8490  -14.1229 C   0  0  0  0  0  0  0  0  0  0  0  0
   25.8057  -22.0698  -14.2755 O   0  0  0  0  0  0  0  0  0  0  0  0
   25.3152  -20.1572  -13.1875 N   0  0  0  0  0  0  0  0  0  0  0  0
   24.3115  -20.8095  -12.3464 C   0  0  1  0  0  0  0  0  0  0  0  0
   24.4061  -20.2146  -10.9818 C   0  0  0  0  0  0  0  0  0  0  0  0
   25.6968  -20.4746  -10.3079 C   0  0  0  0  0  0  0  0  0  0  0  0
   26.1721  -21.7790  -10.2453 C   0  0  0  0  0  0  0  0  0  0  0  0
   27.3786  -22.0415   -9.6444 C   0  0  0  0  0  0  0  0  0  0  0  0
   28.1476  -21.0415   -9.0923 C   0  0  0  0  0  0  0  0  0  0  0  0
   27.6877  -19.7510   -9.1487 C   0  0  0  0  0  0  0  0  0  0  0  0
   26.4568  -19.4734   -9.7600 C   0  0  0  0  0  0  0  0  0  0  0  0
   22.9848  -20.7643  -12.9738 C   0  0  0  0  0  0  0  0  0  0  0  0
   22.6003  -19.6545  -13.4531 O   0  0  0  0  0  0  0  0  0  0  0  0
   22.1086  -21.9026  -13.0684 N   0  0  0  0  0  0  0  0  0  0  0  0
   20.8239  -21.7078  -13.6525 C   0  0  1  0  0  0  0  0  0  0  0  0
   20.1297  -23.0012  -14.0168 C   0  0  0  0  0  0  0  0  0  0  0  0
   18.7443  -22.7602  -14.5538 C   0  0  0  0  0  0  0  0  0  0  0  0
   18.1579  -24.0846  -14.9730 C   0  0  0  0  0  0  0  0  0  0  0  0
   16.7321  -23.9674  -15.4759 C   0  0  0  0  0  0  0  0  0  0  0  0
   16.2728  -25.3234  -15.7191 N   0  0  0  0  0  0  0  0  0  0  0  0
   19.9118  -20.9149  -12.7315 C   0  0  0  0  0  0  0  0  0  0  0  0
   20.1319  -20.8807  -11.5039 O   0  0  0  0  0  0  0  0  0  0  0  0
   18.8620  -20.2572  -13.3289 O   0  0  0  0  0  0  0  0  0  0  0  0
  2  3  1  0
  2  1  1  6
  4  3  1  0
  5  4  1  0
  6  5  1  0
  7  6  1  0
  8 10  1  0
  8  2  1  0
  9  8  2  0
 11 10  1  0
 11 12  1  1
 12 13  1  0
 13 18  2  0
 14 15  2  0
 14 13  1  0
 15 16  1  0
 16 17  2  0
 18 17  1  0
 19 20  2  0
 19 11  1  0
 21 19  1  0
 22 28  1  0
 22 21  1  0
 22 23  1  1
 24 23  1  0
 25 24  1  0
 26 27  1  0
 26 25  1  0
 28 30  1  0
 29 28  2  0
M  END
$$$$
