KFK.pdb
     RDKit          3D

 30 30  0  0  1  0  0  0  0  0999 V2000
   29.8882  -15.5637  -20.3424 N   0  0  0  0  0  0  0  0  0  0  0  0
   28.8415  -16.5773  -20.2587 C   0  0  1  0  0  0  0  0  0  0  0  0
   29.4175  -17.7211  -19.4836 C   0  0  0  0  0  0  0  0  0  0  0  0
   30.3041  -18.6445  -20.2758 C   0  0  0  0  0  0  0  0  0  0  0  0
   30.8644  -19.7609  -19.3866 C   0  0  0  0  0  0  0  0  0  0  0  0
   31.7540  -20.6970  -20.1679 C   0  0  0  0  0  0  0  0  0  0  0  0
   30.9010  -21.4986  -21.0411 N   0  0  0  0  0  0  0  0  0  0  0  0
   27.6331  -16.0613  -19.6332 C   0  0  0  0  0  0  0  0  0  0  0  0
   27.6938  -15.4898  -18.5010 O   0  0  0  0  0  0  0  0  0  0  0  0
   26.3294  -16.1329  -20.1765 N   0  0  0  0  0  0  0  0  0  0  0  0
   25.1546  -15.5386  -19.5385 C   0  0  1  0  0  0  0  0  0  0  0  0
   24.6197  -14.4918  -20.4568 C   0  0  0  0  0  0  0  0  0  0  0  0
   23.3121  -13.9435  -20.0362 C   0  0  0  0  0  0  0  0  0  0  0  0
   22.1493  -14.5575  -20.4857 C   0  0  0  0  0  0  0  0  0  0  0  0
   20.9241  -14.0798  -20.0903 C   0  0  0  0  0  0  0  0  0  0  0  0
   20.8043  -12.9957  -19.2497 C   0  0  0  0  0  0  0  0  0  0  0  0
   21.9455  -12.3825  -18.8006 C   0  0  0  0  0  0  0  0  0  0  0  0
   23.2009  -12.8631  -19.1992 C   0  0  0  0  0  0  0  0  0  0  0  0
   24.1992  -16.5724  -19.1208 C   0  0  0  0  0  0  0  0  0  0  0  0
   23.9055  -17.4741  -19.9632 O   0  0  0  0  0  0  0  0  0  0  0  0
   23.5851  -16.6111  -17.8193 N   0  0  0  0  0  0  0  0  0  0  0  0
   22.6615  -17.6616  -17.5495 C   0  0  1  0  0  0  0  0  0  0  0  0
   22.4927  -17.9457  -16.0735 C   0  0  0  0  0  0  0  0  0  0  0  0
   21.4731  -19.0248  -15.8248 C   0  0  0  0  0  0  0  0  0  0  0  0
   21.3072  -19.1904  -14.3353 C   0  0  0  0  0  0  0  0  0  0  0  0
   20.2833  -20.2470  -13.9682 C   0  0  0  0  0  0  0  0  0  0  0  0
   20.1857  -20.2342  -12.5193 N   0  0  0  0  0  0  0  0  0  0  0  0
   21.2944  -17.3619  -18.1412 C   0  0  0  0  0  0  0  0  0  0  0  0
   20.7037  -18.2195  -18.8283 O   0  0  0  0  0  0  0  0  0  0  0  0
   20.7709  -16.1189  -17.8717 O   0  0  0  0  0  0  0  0  0  0  0  0
  2  3  1  0
  2  1  1  1
  4  3  1  0
  5  4  1  0
  6  5  1  0
  7  6  1  0
  8 10  1  0
  8  2  1  0
  9  8  2  0
 11 10  1  0
 11 12  1  6
 12 13  1  0
 13 18  2  0
 14 15  2  0
 14 13  1  0
 15 16  1  0
 16 17  2  0
 18 17  1  0
 19 20  2  0
 19 11  1  0
 21 19  1  0
 22 28  1  0
 22 21  1  0
 22 23  1  1
 24 23  1  0
 25 24  1  0
 26 27  1  0
 26 25  1  0
 28 30  1  0
 29 28  2  0
M  END
$$$$
