KFK.pdb
     RDKit          3D

 30 30  0  0  1  0  0  0  0  0999 V2000
   29.3129  -21.1322  -14.2675 N   0  0  0  0  0  0  0  0  0  0  0  0
   28.0955  -20.3274  -14.2829 C   0  0  1  0  0  0  0  0  0  0  0  0
   27.5521  -20.4041  -15.6756 C   0  0  0  0  0  0  0  0  0  0  0  0
   28.3406  -19.6452  -16.7093 C   0  0  0  0  0  0  0  0  0  0  0  0
   28.2354  -18.1335  -16.4763 C   0  0  0  0  0  0  0  0  0  0  0  0
   29.0126  -17.3582  -17.5121 C   0  0  0  0  0  0  0  0  0  0  0  0
   28.8832  -15.9382  -17.1969 N   0  0  0  0  0  0  0  0  0  0  0  0
   27.1245  -20.7908  -13.3031 C   0  0  0  0  0  0  0  0  0  0  0  0
   26.6101  -21.9466  -13.4106 O   0  0  0  0  0  0  0  0  0  0  0  0
   26.6653  -20.0542  -12.1865 N   0  0  0  0  0  0  0  0  0  0  0  0
   25.6374  -20.5398  -11.2656 C   0  0  1  0  0  0  0  0  0  0  0  0
   25.7345  -19.7369  -10.0123 C   0  0  0  0  0  0  0  0  0  0  0  0
   26.8967  -20.0899   -9.1683 C   0  0  0  0  0  0  0  0  0  0  0  0
   27.7614  -21.0892   -9.5984 C   0  0  0  0  0  0  0  0  0  0  0  0
   28.8595  -21.4185   -8.8425 C   0  0  0  0  0  0  0  0  0  0  0  0
   29.1394  -20.7830   -7.6533 C   0  0  0  0  0  0  0  0  0  0  0  0
   28.2925  -19.7957   -7.2200 C   0  0  0  0  0  0  0  0  0  0  0  0
   27.1686  -19.4529   -7.9850 C   0  0  0  0  0  0  0  0  0  0  0  0
   24.3182  -20.5640  -11.9098 C   0  0  0  0  0  0  0  0  0  0  0  0
   23.9837  -19.5531  -12.5991 O   0  0  0  0  0  0  0  0  0  0  0  0
   23.3961  -21.6637  -11.7968 N   0  0  0  0  0  0  0  0  0  0  0  0
   22.1527  -21.5639  -12.4849 C   0  0  1  0  0  0  0  0  0  0  0  0
   21.6793  -22.8805  -13.0597 C   0  0  0  0  0  0  0  0  0  0  0  0
   20.3106  -22.7622  -13.6748 C   0  0  0  0  0  0  0  0  0  0  0  0
   19.9393  -24.0957  -14.2727 C   0  0  0  0  0  0  0  0  0  0  0  0
   18.5985  -24.0735  -14.9808 C   0  0  0  0  0  0  0  0  0  0  0  0
   18.4347  -25.3839  -15.5848 N   0  0  0  0  0  0  0  0  0  0  0  0
   21.0625  -21.0140  -11.5806 C   0  0  0  0  0  0  0  0  0  0  0  0
   21.2468  -20.9333  -10.3493 O   0  0  0  0  0  0  0  0  0  0  0  0
   19.8971  -20.6220  -12.1969 O   0  0  0  0  0  0  0  0  0  0  0  0
  2  3  1  0
  2  1  1  6
  4  3  1  0
  5  4  1  0
  6  5  1  0
  7  6  1  0
  8 10  1  0
  8  2  1  0
  9  8  2  0
 11 10  1  0
 11 12  1  1
 12 13  1  0
 13 18  2  0
 14 15  2  0
 14 13  1  0
 15 16  1  0
 16 17  2  0
 18 17  1  0
 19 20  2  0
 19 11  1  0
 21 19  1  0
 22 28  1  0
 22 21  1  0
 22 23  1  1
 24 23  1  0
 25 24  1  0
 26 27  1  0
 26 25  1  0
 28 30  1  0
 29 28  2  0
M  END
$$$$
