KFK.pdb
     RDKit          3D

 30 30  0  0  1  0  0  0  0  0999 V2000
   25.8634  -20.6565  -13.7971 N   0  0  0  0  0  0  0  0  0  0  0  0
   26.7479  -21.4094  -12.9136 C   0  0  1  0  0  0  0  0  0  0  0  0
   28.1078  -20.7989  -13.0515 C   0  0  0  0  0  0  0  0  0  0  0  0
   28.5719  -20.5919  -14.4685 C   0  0  0  0  0  0  0  0  0  0  0  0
   28.4447  -19.1192  -14.8760 C   0  0  0  0  0  0  0  0  0  0  0  0
   28.8367  -18.9081  -16.3182 C   0  0  0  0  0  0  0  0  0  0  0  0
   28.4464  -17.5517  -16.6929 N   0  0  0  0  0  0  0  0  0  0  0  0
   26.2876  -21.3850  -11.5333 C   0  0  0  0  0  0  0  0  0  0  0  0
   26.8880  -22.0682  -10.6474 O   0  0  0  0  0  0  0  0  0  0  0  0
   25.1847  -20.6461  -11.0458 N   0  0  0  0  0  0  0  0  0  0  0  0
   24.6226  -20.8225   -9.7066 C   0  0  1  0  0  0  0  0  0  0  0  0
   24.8458  -19.5566   -8.9499 C   0  0  0  0  0  0  0  0  0  0  0  0
   25.9491  -19.6373   -7.9681 C   0  0  0  0  0  0  0  0  0  0  0  0
   26.9945  -18.7258   -8.0549 C   0  0  0  0  0  0  0  0  0  0  0  0
   28.0184  -18.7673   -7.1408 C   0  0  0  0  0  0  0  0  0  0  0  0
   28.0469  -19.6953   -6.1239 C   0  0  0  0  0  0  0  0  0  0  0  0
   27.0203  -20.5992   -6.0295 C   0  0  0  0  0  0  0  0  0  0  0  0
   25.9706  -20.5648   -6.9585 C   0  0  0  0  0  0  0  0  0  0  0  0
   23.2329  -21.2918   -9.7734 C   0  0  0  0  0  0  0  0  0  0  0  0
   22.6423  -21.2180  -10.8936 O   0  0  0  0  0  0  0  0  0  0  0  0
   22.5157  -21.8225   -8.6437 N   0  0  0  0  0  0  0  0  0  0  0  0
   21.1937  -22.3067   -8.8615 C   0  0  1  0  0  0  0  0  0  0  0  0
   20.5661  -22.9107   -7.6249 C   0  0  0  0  0  0  0  0  0  0  0  0
   19.2352  -23.5458   -7.9266 C   0  0  0  0  0  0  0  0  0  0  0  0
   18.7215  -24.1982   -6.6680 C   0  0  0  0  0  0  0  0  0  0  0  0
   17.3984  -24.9113   -6.8691 C   0  0  0  0  0  0  0  0  0  0  0  0
   17.0412  -25.4789   -5.5811 N   0  0  0  0  0  0  0  0  0  0  0  0
   20.2798  -21.2076   -9.3770 C   0  0  0  0  0  0  0  0  0  0  0  0
   19.3075  -21.4876  -10.1069 O   0  0  0  0  0  0  0  0  0  0  0  0
   20.5899  -19.9242   -8.9918 O   0  0  0  0  0  0  0  0  0  0  0  0
  2  3  1  0
  2  1  1  6
  4  3  1  0
  5  4  1  0
  6  5  1  0
  7  6  1  0
  8 10  1  0
  8  2  1  0
  9  8  2  0
 11 10  1  0
 11 12  1  6
 12 13  1  0
 13 18  2  0
 14 15  2  0
 14 13  1  0
 15 16  1  0
 16 17  2  0
 18 17  1  0
 19 20  2  0
 19 11  1  0
 21 19  1  0
 22 28  1  0
 22 21  1  0
 22 23  1  1
 24 23  1  0
 25 24  1  0
 26 27  1  0
 26 25  1  0
 28 30  1  0
 29 28  2  0
M  END
$$$$
