KFK.pdb
     RDKit          3D

 30 30  0  0  1  0  0  0  0  0999 V2000
   27.8703  -21.9920  -13.7548 N   0  0  0  0  0  0  0  0  0  0  0  0
   27.9561  -20.7994  -12.9180 C   0  0  1  0  0  0  0  0  0  0  0  0
   27.0403  -19.7845  -13.5280 C   0  0  0  0  0  0  0  0  0  0  0  0
   27.2788  -19.5080  -14.9885 C   0  0  0  0  0  0  0  0  0  0  0  0
   28.4693  -18.5607  -15.1785 C   0  0  0  0  0  0  0  0  0  0  0  0
   28.7198  -18.2724  -16.6387 C   0  0  0  0  0  0  0  0  0  0  0  0
   27.7837  -17.2318  -17.0553 N   0  0  0  0  0  0  0  0  0  0  0  0
   27.6006  -21.0784  -11.5348 C   0  0  0  0  0  0  0  0  0  0  0  0
   26.6943  -21.9262  -11.2666 O   0  0  0  0  0  0  0  0  0  0  0  0
   28.1837  -20.4746  -10.3966 N   0  0  0  0  0  0  0  0  0  0  0  0
   27.7173  -20.7084   -9.0297 C   0  0  1  0  0  0  0  0  0  0  0  0
   28.7319  -20.1344   -8.0991 C   0  0  0  0  0  0  0  0  0  0  0  0
   28.2862  -20.0865   -6.6896 C   0  0  0  0  0  0  0  0  0  0  0  0
   27.6616  -18.9371   -6.2205 C   0  0  0  0  0  0  0  0  0  0  0  0
   27.2192  -18.8781   -4.9218 C   0  0  0  0  0  0  0  0  0  0  0  0
   27.3747  -19.9350   -4.0530 C   0  0  0  0  0  0  0  0  0  0  0  0
   27.9899  -21.0736   -4.5059 C   0  0  0  0  0  0  0  0  0  0  0  0
   28.4451  -21.1430   -5.8302 C   0  0  0  0  0  0  0  0  0  0  0  0
   26.3410  -20.2293   -8.8508 C   0  0  0  0  0  0  0  0  0  0  0  0
   26.0890  -19.0316   -9.1845 O   0  0  0  0  0  0  0  0  0  0  0  0
   25.2773  -21.0408   -8.3194 N   0  0  0  0  0  0  0  0  0  0  0  0
   23.9366  -20.6271   -8.5667 C   0  0  1  0  0  0  0  0  0  0  0  0
   23.5029  -20.8292  -10.0015 C   0  0  0  0  0  0  0  0  0  0  0  0
   22.1076  -20.3176  -10.2412 C   0  0  0  0  0  0  0  0  0  0  0  0
   21.7300  -20.6131  -11.6707 C   0  0  0  0  0  0  0  0  0  0  0  0
   20.3740  -20.0517  -12.0524 C   0  0  0  0  0  0  0  0  0  0  0  0
   20.2070  -20.3178  -13.4702 N   0  0  0  0  0  0  0  0  0  0  0  0
   22.9572  -21.3546   -7.6610 C   0  0  0  0  0  0  0  0  0  0  0  0
   21.7313  -21.1460   -7.7624 O   0  0  0  0  0  0  0  0  0  0  0  0
   23.5010  -22.2327   -6.7527 O   0  0  0  0  0  0  0  0  0  0  0  0
  2  3  1  0
  2  1  1  6
  4  3  1  0
  5  4  1  0
  6  5  1  0
  7  6  1  0
  8 10  1  0
  8  2  1  0
  9  8  2  0
 11 10  1  0
 11 12  1  1
 12 13  1  0
 13 18  2  0
 14 15  2  0
 14 13  1  0
 15 16  1  0
 16 17  2  0
 18 17  1  0
 19 20  2  0
 19 11  1  0
 21 19  1  0
 22 28  1  0
 22 21  1  0
 22 23  1  6
 24 23  1  0
 25 24  1  0
 26 27  1  0
 26 25  1  0
 28 30  1  0
 29 28  2  0
M  END
$$$$
