KFK.pdb
     RDKit          3D

 30 30  0  0  1  0  0  0  0  0999 V2000
   28.2021  -20.3664  -15.7967 N   0  0  0  0  0  0  0  0  0  0  0  0
   27.4198  -21.5881  -15.6376 C   0  0  1  0  0  0  0  0  0  0  0  0
   28.3913  -22.7258  -15.6917 C   0  0  0  0  0  0  0  0  0  0  0  0
   29.0616  -22.9277  -17.0244 C   0  0  0  0  0  0  0  0  0  0  0  0
   28.0226  -23.0974  -18.1391 C   0  0  0  0  0  0  0  0  0  0  0  0
   28.6790  -23.2411  -19.4906 C   0  0  0  0  0  0  0  0  0  0  0  0
   27.6248  -23.2411  -20.5012 N   0  0  0  0  0  0  0  0  0  0  0  0
   26.6611  -21.5907  -14.3958 C   0  0  0  0  0  0  0  0  0  0  0  0
   26.0395  -22.6352  -14.0291 O   0  0  0  0  0  0  0  0  0  0  0  0
   26.5320  -20.4979  -13.5073 N   0  0  0  0  0  0  0  0  0  0  0  0
   25.5949  -20.4765  -12.3840 C   0  0  1  0  0  0  0  0  0  0  0  0
   26.1107  -19.5008  -11.3807 C   0  0  0  0  0  0  0  0  0  0  0  0
   26.8827  -20.1264  -10.2851 C   0  0  0  0  0  0  0  0  0  0  0  0
   28.1376  -20.6546  -10.5629 C   0  0  0  0  0  0  0  0  0  0  0  0
   28.8820  -21.2203   -9.5571 C   0  0  0  0  0  0  0  0  0  0  0  0
   28.4217  -21.2839   -8.2609 C   0  0  0  0  0  0  0  0  0  0  0  0
   27.1846  -20.7657   -7.9761 C   0  0  0  0  0  0  0  0  0  0  0  0
   26.4172  -20.1864   -8.9967 C   0  0  0  0  0  0  0  0  0  0  0  0
   24.2194  -20.2523  -12.8464 C   0  0  0  0  0  0  0  0  0  0  0  0
   23.9989  -19.2224  -13.5533 O   0  0  0  0  0  0  0  0  0  0  0  0
   23.1218  -21.1316  -12.5386 N   0  0  0  0  0  0  0  0  0  0  0  0
   21.8536  -20.8426  -13.1197 C   0  0  1  0  0  0  0  0  0  0  0  0
   21.4708  -21.7989  -14.2273 C   0  0  0  0  0  0  0  0  0  0  0  0
   20.0981  -21.5047  -14.7703 C   0  0  0  0  0  0  0  0  0  0  0  0
   19.7676  -22.5383  -15.8173 C   0  0  0  0  0  0  0  0  0  0  0  0
   18.4108  -22.3182  -16.4580 C   0  0  0  0  0  0  0  0  0  0  0  0
   18.1854  -23.4533  -17.3353 N   0  0  0  0  0  0  0  0  0  0  0  0
   20.7511  -20.8512  -12.0741 C   0  0  0  0  0  0  0  0  0  0  0  0
   19.5663  -20.6454  -12.4064 O   0  0  0  0  0  0  0  0  0  0  0  0
   21.1400  -21.0966  -10.7779 O   0  0  0  0  0  0  0  0  0  0  0  0
  2  3  1  0
  2  1  1  1
  4  3  1  0
  5  4  1  0
  6  5  1  0
  7  6  1  0
  8 10  1  0
  8  2  1  0
  9  8  2  0
 11 10  1  0
 11 12  1  1
 12 13  1  0
 13 18  2  0
 14 15  2  0
 14 13  1  0
 15 16  1  0
 16 17  2  0
 18 17  1  0
 19 20  2  0
 19 11  1  0
 21 19  1  0
 22 28  1  0
 22 21  1  0
 22 23  1  6
 24 23  1  0
 25 24  1  0
 26 27  1  0
 26 25  1  0
 28 30  1  0
 29 28  2  0
M  END
$$$$
