KFK.pdb
     RDKit          3D

 30 30  0  0  1  0  0  0  0  0999 V2000
   18.9512  -25.2051  -10.0650 N   0  0  0  0  0  0  0  0  0  0  0  0
   17.7547  -24.9967   -9.2558 C   0  0  1  0  0  0  0  0  0  0  0  0
   16.5901  -25.3974  -10.1068 C   0  0  0  0  0  0  0  0  0  0  0  0
   15.9736  -24.2819  -10.9080 C   0  0  0  0  0  0  0  0  0  0  0  0
   15.4507  -23.1722   -9.9882 C   0  0  0  0  0  0  0  0  0  0  0  0
   13.9671  -22.9590  -10.1662 C   0  0  0  0  0  0  0  0  0  0  0  0
   13.5019  -22.1181   -9.0665 N   0  0  0  0  0  0  0  0  0  0  0  0
   17.7977  -25.7564   -8.0153 C   0  0  0  0  0  0  0  0  0  0  0  0
   18.3364  -26.9058   -7.9883 O   0  0  0  0  0  0  0  0  0  0  0  0
   17.2751  -25.3324   -6.7714 N   0  0  0  0  0  0  0  0  0  0  0  0
   17.3460  -26.1344   -5.5498 C   0  0  1  0  0  0  0  0  0  0  0  0
   17.8562  -25.2553   -4.4582 C   0  0  0  0  0  0  0  0  0  0  0  0
   17.8158  -25.8843   -3.1201 C   0  0  0  0  0  0  0  0  0  0  0  0
   16.7306  -25.6304   -2.2901 C   0  0  0  0  0  0  0  0  0  0  0  0
   16.6605  -26.2210   -1.0524 C   0  0  0  0  0  0  0  0  0  0  0  0
   17.6437  -27.0706   -0.5965 C   0  0  0  0  0  0  0  0  0  0  0  0
   18.7188  -27.3276   -1.4077 C   0  0  0  0  0  0  0  0  0  0  0  0
   18.7992  -26.7288   -2.6730 C   0  0  0  0  0  0  0  0  0  0  0  0
   16.0690  -26.8088   -5.2845 C   0  0  0  0  0  0  0  0  0  0  0  0
   15.0079  -26.1249   -5.4086 O   0  0  0  0  0  0  0  0  0  0  0  0
   15.9634  -28.1900   -4.8927 N   0  0  0  0  0  0  0  0  0  0  0  0
   14.6634  -28.7105   -4.6301 C   0  0  1  0  0  0  0  0  0  0  0  0
   14.5130  -30.1661   -5.0127 C   0  0  0  0  0  0  0  0  0  0  0  0
   14.5650  -30.3604   -6.5044 C   0  0  0  0  0  0  0  0  0  0  0  0
   14.3781  -31.8269   -6.8014 C   0  0  0  0  0  0  0  0  0  0  0  0
   14.3971  -32.1368   -8.2857 C   0  0  0  0  0  0  0  0  0  0  0  0
   14.2372  -33.5753   -8.4039 N   0  0  0  0  0  0  0  0  0  0  0  0
   14.2917  -28.5572   -3.1648 C   0  0  0  0  0  0  0  0  0  0  0  0
   13.2762  -27.9108   -2.8369 O   0  0  0  0  0  0  0  0  0  0  0  0
   15.1264  -29.1643   -2.2557 O   0  0  0  0  0  0  0  0  0  0  0  0
  2  3  1  0
  2  1  1  6
  4  3  1  0
  5  4  1  0
  6  5  1  0
  7  6  1  0
  8 10  1  0
  8  2  1  0
  9  8  2  0
 11 10  1  0
 11 12  1  1
 12 13  1  0
 13 18  2  0
 14 15  2  0
 14 13  1  0
 15 16  1  0
 16 17  2  0
 18 17  1  0
 19 20  2  0
 19 11  1  0
 21 19  1  0
 22 28  1  0
 22 21  1  0
 22 23  1  1
 24 23  1  0
 25 24  1  0
 26 27  1  0
 26 25  1  0
 28 30  1  0
 29 28  2  0
M  END
$$$$
