KFK.pdb
     RDKit          3D

 30 30  0  0  1  0  0  0  0  0999 V2000
   26.8612  -22.1036  -17.4752 N   0  0  0  0  0  0  0  0  0  0  0  0
   26.6023  -20.8996  -16.6920 C   0  0  1  0  0  0  0  0  0  0  0  0
   25.3658  -20.2781  -17.2628 C   0  0  0  0  0  0  0  0  0  0  0  0
   25.6070  -19.2507  -18.3362 C   0  0  0  0  0  0  0  0  0  0  0  0
   25.3418  -19.8398  -19.7267 C   0  0  0  0  0  0  0  0  0  0  0  0
   25.6151  -18.8318  -20.8163 C   0  0  0  0  0  0  0  0  0  0  0  0
   25.4557  -19.5084  -22.1007 N   0  0  0  0  0  0  0  0  0  0  0  0
   26.4481  -21.1947  -15.2754 C   0  0  0  0  0  0  0  0  0  0  0  0
   25.8274  -22.2381  -14.9039 O   0  0  0  0  0  0  0  0  0  0  0  0
   26.9382  -20.4028  -14.2110 N   0  0  0  0  0  0  0  0  0  0  0  0
   26.6897  -20.7019  -12.8006 C   0  0  1  0  0  0  0  0  0  0  0  0
   27.7667  -20.0493  -12.0012 C   0  0  0  0  0  0  0  0  0  0  0  0
   27.5925  -20.1930  -10.5395 C   0  0  0  0  0  0  0  0  0  0  0  0
   28.2116  -21.2539   -9.8895 C   0  0  0  0  0  0  0  0  0  0  0  0
   28.0825  -21.3948   -8.5297 C   0  0  0  0  0  0  0  0  0  0  0  0
   27.3492  -20.5073   -7.7741 C   0  0  0  0  0  0  0  0  0  0  0  0
   26.7343  -19.4571   -8.4058 C   0  0  0  0  0  0  0  0  0  0  0  0
   26.8603  -19.3053   -9.7939 C   0  0  0  0  0  0  0  0  0  0  0  0
   25.3135  -20.3585  -12.4211 C   0  0  0  0  0  0  0  0  0  0  0  0
   24.8423  -19.2626  -12.8528 O   0  0  0  0  0  0  0  0  0  0  0  0
   24.4837  -21.1925  -11.5915 N   0  0  0  0  0  0  0  0  0  0  0  0
   23.1444  -20.7706  -11.3509 C   0  0  1  0  0  0  0  0  0  0  0  0
   22.1144  -21.6022  -12.0824 C   0  0  0  0  0  0  0  0  0  0  0  0
   20.7122  -21.1388  -11.7910 C   0  0  0  0  0  0  0  0  0  0  0  0
   19.7485  -22.0690  -12.4835 C   0  0  0  0  0  0  0  0  0  0  0  0
   18.2982  -21.6732  -12.2847 C   0  0  0  0  0  0  0  0  0  0  0  0
   17.5100  -22.6023  -13.0748 N   0  0  0  0  0  0  0  0  0  0  0  0
   22.8154  -20.7929   -9.8676 C   0  0  0  0  0  0  0  0  0  0  0  0
   21.7881  -20.2272   -9.4417 O   0  0  0  0  0  0  0  0  0  0  0  0
   23.7010  -21.4616   -9.0550 O   0  0  0  0  0  0  0  0  0  0  0  0
  2  3  1  0
  2  1  1  6
  4  3  1  0
  5  4  1  0
  6  5  1  0
  7  6  1  0
  8 10  1  0
  8  2  1  0
  9  8  2  0
 11 10  1  0
 11 12  1  1
 12 13  1  0
 13 18  2  0
 14 15  2  0
 14 13  1  0
 15 16  1  0
 16 17  2  0
 18 17  1  0
 19 20  2  0
 19 11  1  0
 21 19  1  0
 22 28  1  0
 22 21  1  0
 22 23  1  6
 24 23  1  0
 25 24  1  0
 26 27  1  0
 26 25  1  0
 28 30  1  0
 29 28  2  0
M  END
$$$$
