AKF.pdb
     RDKit          3D

 26 26  0  0  1  0  0  0  0  0999 V2000
   16.9539  -14.3638  -15.4780 C   0  0  0  0  0  0  0  0  0  0  0  0
   16.9226  -12.8602  -15.5699 C   0  0  2  0  0  0  0  0  0  0  0  0
   16.1673  -12.5009  -16.7530 N   0  0  0  0  0  0  0  0  0  0  0  0
   18.2587  -12.2565  -15.6611 C   0  0  0  0  0  0  0  0  0  0  0  0
   19.1087  -12.3496  -14.7373 O   0  0  0  0  0  0  0  0  0  0  0  0
   18.6403  -11.5334  -16.8204 N   0  0  0  0  0  0  0  0  0  0  0  0
   19.9843  -10.9566  -16.9894 C   0  0  1  0  0  0  0  0  0  0  0  0
   20.4702  -11.1970  -18.3937 C   0  0  0  0  0  0  0  0  0  0  0  0
   21.6401  -12.1331  -18.3770 C   0  0  0  0  0  0  0  0  0  0  0  0
   21.5151  -13.2056  -19.4607 C   0  0  0  0  0  0  0  0  0  0  0  0
   22.7274  -14.1050  -19.5134 C   0  0  0  0  0  0  0  0  0  0  0  0
   22.5509  -14.9605  -20.6794 N   0  0  0  0  0  0  0  0  0  0  0  0
   19.9843   -9.5466  -16.5747 C   0  0  0  0  0  0  0  0  0  0  0  0
   19.0293   -8.7553  -16.7141 O   0  0  0  0  0  0  0  0  0  0  0  0
   21.1419   -8.9511  -15.9483 N   0  0  0  0  0  0  0  0  0  0  0  0
   21.2036   -7.5225  -15.6372 C   0  0  1  0  0  0  0  0  0  0  0  0
   22.2445   -7.2388  -14.6093 C   0  0  0  0  0  0  0  0  0  0  0  0
   22.3862   -5.7896  -14.3962 C   0  0  0  0  0  0  0  0  0  0  0  0
   23.3059   -4.9964  -15.0297 C   0  0  0  0  0  0  0  0  0  0  0  0
   23.4046   -3.6262  -14.8110 C   0  0  0  0  0  0  0  0  0  0  0  0
   22.5519   -3.0114  -13.9218 C   0  0  0  0  0  0  0  0  0  0  0  0
   21.6240   -3.7974  -13.2790 C   0  0  0  0  0  0  0  0  0  0  0  0
   21.5363   -5.1434  -13.5022 C   0  0  0  0  0  0  0  0  0  0  0  0
   21.4793   -6.7770  -16.8802 C   0  0  0  0  0  0  0  0  0  0  0  0
   22.2902   -7.1270  -17.7727 O   0  0  0  0  0  0  0  0  0  0  0  0
   20.7813   -5.5706  -17.0961 O   0  0  0  0  0  0  0  0  0  0  0  0
  2  4  1  0
  2  1  1  6
  3  2  1  0
  4  5  2  0
  6  7  1  0
  6  4  1  0
  7  8  1  6
  8  9  1  0
 10  9  1  0
 11 10  1  0
 12 11  1  0
 13 14  2  0
 13  7  1  0
 15 13  1  0
 16 24  1  0
 16 15  1  0
 16 17  1  1
 18 17  1  0
 19 18  2  0
 20 19  1  0
 21 20  2  0
 21 22  1  0
 22 23  2  0
 23 18  1  0
 24 26  1  0
 25 24  2  0
M  END
$$$$
