AKF.pdb
     RDKit          3D

 26 26  0  0  1  0  0  0  0  0999 V2000
   24.6832  -11.7984  -23.7212 C   0  0  0  0  0  0  0  0  0  0  0  0
   23.7463  -12.8938  -23.2826 C   0  0  2  0  0  0  0  0  0  0  0  0
   23.4908  -13.7469  -24.4254 N   0  0  0  0  0  0  0  0  0  0  0  0
   22.4637  -12.3908  -22.7726 C   0  0  0  0  0  0  0  0  0  0  0  0
   21.7309  -11.6099  -23.4342 O   0  0  0  0  0  0  0  0  0  0  0  0
   22.0017  -12.7790  -21.4888 N   0  0  0  0  0  0  0  0  0  0  0  0
   20.7097  -12.3325  -20.9417 C   0  0  1  0  0  0  0  0  0  0  0  0
   20.2802  -13.2530  -19.8309 C   0  0  0  0  0  0  0  0  0  0  0  0
   19.7250  -14.5216  -20.4034 C   0  0  0  0  0  0  0  0  0  0  0  0
   19.3093  -15.4986  -19.3022 C   0  0  0  0  0  0  0  0  0  0  0  0
   18.8396  -16.8204  -19.8620 C   0  0  0  0  0  0  0  0  0  0  0  0
   18.5871  -17.6831  -18.7155 N   0  0  0  0  0  0  0  0  0  0  0  0
   20.7837  -10.9135  -20.5667 C   0  0  0  0  0  0  0  0  0  0  0  0
   21.7947  -10.3412  -20.1106 O   0  0  0  0  0  0  0  0  0  0  0  0
   19.6397  -10.0423  -20.7060 N   0  0  0  0  0  0  0  0  0  0  0  0
   19.7065   -8.6190  -20.3726 C   0  0  1  0  0  0  0  0  0  0  0  0
   19.3550   -7.7726  -21.5476 C   0  0  0  0  0  0  0  0  0  0  0  0
   19.3838   -6.3454  -21.1901 C   0  0  0  0  0  0  0  0  0  0  0  0
   18.3140   -5.6445  -20.6996 C   0  0  0  0  0  0  0  0  0  0  0  0
   18.3804   -4.2967  -20.3621 C   0  0  0  0  0  0  0  0  0  0  0  0
   19.5630   -3.6091  -20.5180 C   0  0  0  0  0  0  0  0  0  0  0  0
   20.6446   -4.3018  -21.0101 C   0  0  0  0  0  0  0  0  0  0  0  0
   20.5674   -5.6268  -21.3383 C   0  0  0  0  0  0  0  0  0  0  0  0
   18.7941   -8.3521  -19.2442 C   0  0  0  0  0  0  0  0  0  0  0  0
   18.9726   -7.4834  -18.3553 O   0  0  0  0  0  0  0  0  0  0  0  0
   17.6215   -9.1293  -19.1442 O   0  0  0  0  0  0  0  0  0  0  0  0
  2  4  1  0
  2  1  1  6
  3  2  1  0
  4  5  2  0
  6  7  1  0
  6  4  1  0
  7  8  1  1
  8  9  1  0
 10  9  1  0
 11 10  1  0
 12 11  1  0
 13 14  2  0
 13  7  1  0
 15 13  1  0
 16 24  1  0
 16 15  1  0
 16 17  1  6
 18 17  1  0
 19 18  2  0
 20 19  1  0
 21 20  2  0
 21 22  1  0
 22 23  2  0
 23 18  1  0
 24 26  1  0
 25 24  2  0
M  END
$$$$
