AKF.pdb
     RDKit          3D

 26 26  0  0  1  0  0  0  0  0999 V2000
   25.5882  -21.2127   -7.3189 C   0  0  0  0  0  0  0  0  0  0  0  0
   26.6750  -20.7306   -8.2445 C   0  0  2  0  0  0  0  0  0  0  0  0
   27.2986  -19.5730   -7.6359 N   0  0  0  0  0  0  0  0  0  0  0  0
   26.1795  -20.3552   -9.5755 C   0  0  0  0  0  0  0  0  0  0  0  0
   25.5948  -19.2628   -9.7975 O   0  0  0  0  0  0  0  0  0  0  0  0
   26.3490  -21.2333  -10.6767 N   0  0  0  0  0  0  0  0  0  0  0  0
   25.9065  -20.8926  -12.0390 C   0  0  1  0  0  0  0  0  0  0  0  0
   26.9397  -21.3398  -13.0381 C   0  0  0  0  0  0  0  0  0  0  0  0
   26.5090  -20.9629  -14.4229 C   0  0  0  0  0  0  0  0  0  0  0  0
   27.5153  -21.4393  -15.4719 C   0  0  0  0  0  0  0  0  0  0  0  0
   27.1040  -21.0510  -16.8724 C   0  0  0  0  0  0  0  0  0  0  0  0
   28.1854  -21.4797  -17.7495 N   0  0  0  0  0  0  0  0  0  0  0  0
   24.5556  -21.4198  -12.2776 C   0  0  0  0  0  0  0  0  0  0  0  0
   24.1965  -22.5978  -12.0750 O   0  0  0  0  0  0  0  0  0  0  0  0
   23.5013  -20.5734  -12.7864 N   0  0  0  0  0  0  0  0  0  0  0  0
   22.1323  -21.0614  -12.9571 C   0  0  1  0  0  0  0  0  0  0  0  0
   21.1423  -20.0957  -12.4024 C   0  0  0  0  0  0  0  0  0  0  0  0
   19.7682  -20.5803  -12.6089 C   0  0  0  0  0  0  0  0  0  0  0  0
   19.1200  -21.4577  -11.7805 C   0  0  0  0  0  0  0  0  0  0  0  0
   17.8154  -21.8868  -12.0014 C   0  0  0  0  0  0  0  0  0  0  0  0
   17.1187  -21.4254  -13.0958 C   0  0  0  0  0  0  0  0  0  0  0  0
   17.7590  -20.5441  -13.9355 C   0  0  0  0  0  0  0  0  0  0  0  0
   19.0417  -20.1293  -13.7079 C   0  0  0  0  0  0  0  0  0  0  0  0
   21.8868  -21.2951  -14.3931 C   0  0  0  0  0  0  0  0  0  0  0  0
   22.3464  -20.5989  -15.3315 O   0  0  0  0  0  0  0  0  0  0  0  0
   21.0707  -22.3870  -14.7551 O   0  0  0  0  0  0  0  0  0  0  0  0
  2  4  1  0
  2  1  1  1
  3  2  1  0
  4  5  2  0
  6  7  1  0
  6  4  1  0
  7  8  1  6
  8  9  1  0
 10  9  1  0
 11 10  1  0
 12 11  1  0
 13 14  2  0
 13  7  1  0
 15 13  1  0
 16 24  1  0
 16 15  1  0
 16 17  1  6
 18 17  1  0
 19 18  2  0
 20 19  1  0
 21 20  2  0
 21 22  1  0
 22 23  2  0
 23 18  1  0
 24 26  1  0
 25 24  2  0
M  END
$$$$
