AKF.pdb
     RDKit          3D

 26 26  0  0  1  0  0  0  0  0999 V2000
   22.3534  -19.5764  -13.9392 C   0  0  0  0  0  0  0  0  0  0  0  0
   23.2354  -19.3407  -12.7405 C   0  0  2  0  0  0  0  0  0  0  0  0
   23.8775  -18.0524  -12.9052 N   0  0  0  0  0  0  0  0  0  0  0  0
   24.2726  -20.3674  -12.5724 C   0  0  0  0  0  0  0  0  0  0  0  0
   24.0022  -21.5916  -12.4604 O   0  0  0  0  0  0  0  0  0  0  0  0
   25.6425  -20.0013  -12.5303 N   0  0  0  0  0  0  0  0  0  0  0  0
   26.7217  -20.9854  -12.3442 C   0  0  1  0  0  0  0  0  0  0  0  0
   27.8432  -20.7014  -13.3072 C   0  0  0  0  0  0  0  0  0  0  0  0
   27.3410  -20.7848  -14.7165 C   0  0  0  0  0  0  0  0  0  0  0  0
   27.2167  -22.2367  -15.1821 C   0  0  0  0  0  0  0  0  0  0  0  0
   26.7184  -22.3372  -16.6044 C   0  0  0  0  0  0  0  0  0  0  0  0
   26.5718  -23.7590  -16.8864 N   0  0  0  0  0  0  0  0  0  0  0  0
   27.1246  -21.0316  -10.9316 C   0  0  0  0  0  0  0  0  0  0  0  0
   28.2997  -21.1228  -10.5209 O   0  0  0  0  0  0  0  0  0  0  0  0
   26.1448  -20.9719   -9.8718 N   0  0  0  0  0  0  0  0  0  0  0  0
   26.5330  -20.9157   -8.4620 C   0  0  1  0  0  0  0  0  0  0  0  0
   27.3880  -19.7272   -8.1849 C   0  0  0  0  0  0  0  0  0  0  0  0
   27.7295  -19.6518   -6.7554 C   0  0  0  0  0  0  0  0  0  0  0  0
   28.0289  -20.7326   -5.9690 C   0  0  0  0  0  0  0  0  0  0  0  0
   28.3577  -20.6228   -4.6219 C   0  0  0  0  0  0  0  0  0  0  0  0
   28.3914  -19.3829   -4.0240 C   0  0  0  0  0  0  0  0  0  0  0  0
   28.0922  -18.2897   -4.8032 C   0  0  0  0  0  0  0  0  0  0  0  0
   27.7706  -18.4100   -6.1266 C   0  0  0  0  0  0  0  0  0  0  0  0
   25.3122  -20.8861   -7.6339 C   0  0  0  0  0  0  0  0  0  0  0  0
   25.2647  -21.1190   -6.4010 O   0  0  0  0  0  0  0  0  0  0  0  0
   24.0916  -20.5716   -8.2667 O   0  0  0  0  0  0  0  0  0  0  0  0
  2  4  1  0
  2  1  1  6
  3  2  1  0
  4  5  2  0
  6  7  1  0
  6  4  1  0
  7  8  1  6
  8  9  1  0
 10  9  1  0
 11 10  1  0
 12 11  1  0
 13 14  2  0
 13  7  1  0
 15 13  1  0
 16 24  1  0
 16 15  1  0
 16 17  1  6
 18 17  1  0
 19 18  2  0
 20 19  1  0
 21 20  2  0
 21 22  1  0
 22 23  2  0
 23 18  1  0
 24 26  1  0
 25 24  2  0
M  END
$$$$
