AKF.pdb
     RDKit          3D

 26 26  0  0  1  0  0  0  0  0999 V2000
   23.1412  -23.3616  -23.2448 C   0  0  0  0  0  0  0  0  0  0  0  0
   23.2622  -23.6068  -21.7631 C   0  0  2  0  0  0  0  0  0  0  0  0
   22.9533  -22.3677  -21.0788 N   0  0  0  0  0  0  0  0  0  0  0  0
   24.6024  -24.0499  -21.3559 C   0  0  0  0  0  0  0  0  0  0  0  0
   25.1493  -25.0791  -21.8314 O   0  0  0  0  0  0  0  0  0  0  0  0
   25.3378  -23.3138  -20.3917 N   0  0  0  0  0  0  0  0  0  0  0  0
   26.6884  -23.7052  -19.9553 C   0  0  1  0  0  0  0  0  0  0  0  0
   27.4770  -22.4808  -19.5750 C   0  0  0  0  0  0  0  0  0  0  0  0
   27.9594  -21.7795  -20.8082 C   0  0  0  0  0  0  0  0  0  0  0  0
   28.6885  -20.4793  -20.4645 C   0  0  0  0  0  0  0  0  0  0  0  0
   29.2927  -19.8262  -21.6850 C   0  0  0  0  0  0  0  0  0  0  0  0
   30.0311  -18.6660  -21.2042 N   0  0  0  0  0  0  0  0  0  0  0  0
   26.6024  -24.7288  -18.9043 C   0  0  0  0  0  0  0  0  0  0  0  0
   25.8738  -24.6628  -17.8931 O   0  0  0  0  0  0  0  0  0  0  0  0
   27.3908  -25.9376  -18.9708 N   0  0  0  0  0  0  0  0  0  0  0  0
   27.3351  -26.9559  -17.9215 C   0  0  1  0  0  0  0  0  0  0  0  0
   27.7865  -28.2813  -18.4314 C   0  0  0  0  0  0  0  0  0  0  0  0
   27.6683  -29.3105  -17.3863 C   0  0  0  0  0  0  0  0  0  0  0  0
   28.6175  -29.5619  -16.4312 C   0  0  0  0  0  0  0  0  0  0  0  0
   28.4674  -30.5373  -15.4508 C   0  0  0  0  0  0  0  0  0  0  0  0
   27.3224  -31.3011  -15.4142 C   0  0  0  0  0  0  0  0  0  0  0  0
   26.3619  -31.0584  -16.3684 C   0  0  0  0  0  0  0  0  0  0  0  0
   26.5205  -30.0967  -17.3272 C   0  0  0  0  0  0  0  0  0  0  0  0
   28.1739  -26.5179  -16.7894 C   0  0  0  0  0  0  0  0  0  0  0  0
   29.3234  -26.0221  -16.8861 O   0  0  0  0  0  0  0  0  0  0  0  0
   27.6537  -26.6624  -15.4865 O   0  0  0  0  0  0  0  0  0  0  0  0
  2  4  1  0
  2  1  1  6
  3  2  1  0
  4  5  2  0
  6  7  1  0
  6  4  1  0
  7  8  1  1
  8  9  1  0
 10  9  1  0
 11 10  1  0
 12 11  1  0
 13 14  2  0
 13  7  1  0
 15 13  1  0
 16 24  1  0
 16 15  1  0
 16 17  1  6
 18 17  1  0
 19 18  2  0
 20 19  1  0
 21 20  2  0
 21 22  1  0
 22 23  2  0
 23 18  1  0
 24 26  1  0
 25 24  2  0
M  END
$$$$
