AKF.pdb
     RDKit          3D

 26 26  0  0  1  0  0  0  0  0999 V2000
   19.7192    3.0722  -13.6813 C   0  0  0  0  0  0  0  0  0  0  0  0
   20.8935    3.2551  -14.6074 C   0  0  2  0  0  0  0  0  0  0  0  0
   20.8693    2.1789  -15.5770 N   0  0  0  0  0  0  0  0  0  0  0  0
   22.1882    3.2367  -13.9134 C   0  0  0  0  0  0  0  0  0  0  0  0
   22.7131    2.1751  -13.4866 O   0  0  0  0  0  0  0  0  0  0  0  0
   22.9028    4.4431  -13.6982 N   0  0  0  0  0  0  0  0  0  0  0  0
   24.2007    4.4839  -13.0045 C   0  0  1  0  0  0  0  0  0  0  0  0
   24.8999    5.7825  -13.3054 C   0  0  0  0  0  0  0  0  0  0  0  0
   25.5286    5.7222  -14.6642 C   0  0  0  0  0  0  0  0  0  0  0  0
   26.2057    7.0449  -15.0276 C   0  0  0  0  0  0  0  0  0  0  0  0
   26.8882    6.9835  -16.3736 C   0  0  0  0  0  0  0  0  0  0  0  0
   27.3516    8.3350  -16.6587 N   0  0  0  0  0  0  0  0  0  0  0  0
   24.0171    4.2049  -11.5733 C   0  0  0  0  0  0  0  0  0  0  0  0
   23.2200    4.8009  -10.8202 O   0  0  0  0  0  0  0  0  0  0  0  0
   24.7808    3.1748  -10.9078 N   0  0  0  0  0  0  0  0  0  0  0  0
   24.6525    2.9227   -9.4721 C   0  0  1  0  0  0  0  0  0  0  0  0
   24.7784    1.4697   -9.1662 C   0  0  0  0  0  0  0  0  0  0  0  0
   24.7549    1.2383   -7.7131 C   0  0  0  0  0  0  0  0  0  0  0  0
   23.6153    1.1009   -6.9656 C   0  0  0  0  0  0  0  0  0  0  0  0
   23.6310    0.8725   -5.5935 C   0  0  0  0  0  0  0  0  0  0  0  0
   24.8331    0.7756   -4.9291 C   0  0  0  0  0  0  0  0  0  0  0  0
   25.9846    0.9122   -5.6687 C   0  0  0  0  0  0  0  0  0  0  0  0
   25.9567    1.1365   -7.0172 C   0  0  0  0  0  0  0  0  0  0  0  0
   25.6854    3.6986   -8.7593 C   0  0  0  0  0  0  0  0  0  0  0  0
   25.5849    4.1371   -7.5871 O   0  0  0  0  0  0  0  0  0  0  0  0
   26.8892    3.9775   -9.4391 O   0  0  0  0  0  0  0  0  0  0  0  0
  2  4  1  0
  2  1  1  1
  3  2  1  0
  4  5  2  0
  6  7  1  0
  6  4  1  0
  7  8  1  1
  8  9  1  0
 10  9  1  0
 11 10  1  0
 12 11  1  0
 13 14  2  0
 13  7  1  0
 15 13  1  0
 16 24  1  0
 16 15  1  0
 16 17  1  6
 18 17  1  0
 19 18  2  0
 20 19  1  0
 21 20  2  0
 21 22  1  0
 22 23  2  0
 23 18  1  0
 24 26  1  0
 25 24  2  0
M  END
$$$$
