AKF.pdb
     RDKit          3D

 26 26  0  0  1  0  0  0  0  0999 V2000
   21.8898  -17.3528  -12.8863 C   0  0  0  0  0  0  0  0  0  0  0  0
   21.7001  -18.7843  -13.3166 C   0  0  2  0  0  0  0  0  0  0  0  0
   20.2909  -19.1013  -13.2040 N   0  0  0  0  0  0  0  0  0  0  0  0
   22.4656  -19.7404  -12.5054 C   0  0  0  0  0  0  0  0  0  0  0  0
   22.0906  -20.1123  -11.3629 O   0  0  0  0  0  0  0  0  0  0  0  0
   23.6793  -20.2861  -12.9970 N   0  0  0  0  0  0  0  0  0  0  0  0
   24.5492  -21.1495  -12.1813 C   0  0  1  0  0  0  0  0  0  0  0  0
   25.4020  -22.0073  -13.0772 C   0  0  0  0  0  0  0  0  0  0  0  0
   24.5490  -23.0186  -13.7805 C   0  0  0  0  0  0  0  0  0  0  0  0
   25.3700  -23.8615  -14.7581 C   0  0  0  0  0  0  0  0  0  0  0  0
   24.5064  -24.8094  -15.5562 C   0  0  0  0  0  0  0  0  0  0  0  0
   23.9242  -25.7381  -14.5964 N   0  0  0  0  0  0  0  0  0  0  0  0
   25.3012  -20.3383  -11.2136 C   0  0  0  0  0  0  0  0  0  0  0  0
   25.8352  -19.2371  -11.4584 O   0  0  0  0  0  0  0  0  0  0  0  0
   25.4832  -20.7786   -9.8498 N   0  0  0  0  0  0  0  0  0  0  0  0
   26.5031  -20.1942   -8.9781 C   0  0  1  0  0  0  0  0  0  0  0  0
   25.9467  -19.8805   -7.6318 C   0  0  0  0  0  0  0  0  0  0  0  0
   27.0162  -19.4713   -6.7075 C   0  0  0  0  0  0  0  0  0  0  0  0
   27.4691  -18.1868   -6.5615 C   0  0  0  0  0  0  0  0  0  0  0  0
   28.4762  -17.8343   -5.6692 C   0  0  0  0  0  0  0  0  0  0  0  0
   29.0640  -18.8002   -4.8834 C   0  0  0  0  0  0  0  0  0  0  0  0
   28.6181  -20.0940   -5.0211 C   0  0  0  0  0  0  0  0  0  0  0  0
   27.6272  -20.4285   -5.9016 C   0  0  0  0  0  0  0  0  0  0  0  0
   27.6329  -21.1370   -8.8703 C   0  0  0  0  0  0  0  0  0  0  0  0
   27.5363  -22.3889   -8.8637 O   0  0  0  0  0  0  0  0  0  0  0  0
   28.9333  -20.6013   -8.7655 O   0  0  0  0  0  0  0  0  0  0  0  0
  2  4  1  0
  2  1  1  1
  3  2  1  0
  4  5  2  0
  6  7  1  0
  6  4  1  0
  7  8  1  6
  8  9  1  0
 10  9  1  0
 11 10  1  0
 12 11  1  0
 13 14  2  0
 13  7  1  0
 15 13  1  0
 16 24  1  0
 16 15  1  0
 16 17  1  1
 18 17  1  0
 19 18  2  0
 20 19  1  0
 21 20  2  0
 21 22  1  0
 22 23  2  0
 23 18  1  0
 24 26  1  0
 25 24  2  0
M  END
$$$$
