AKF.pdb
     RDKit          3D

 26 26  0  0  1  0  0  0  0  0999 V2000
   21.9228  -13.3731  -17.1897 C   0  0  0  0  0  0  0  0  0  0  0  0
   20.5899  -12.6707  -17.1724 C   0  0  2  0  0  0  0  0  0  0  0  0
   19.7775  -13.2285  -18.2345 N   0  0  0  0  0  0  0  0  0  0  0  0
   20.6963  -11.2192  -17.3718 C   0  0  0  0  0  0  0  0  0  0  0  0
   21.8031  -10.6217  -17.4237 O   0  0  0  0  0  0  0  0  0  0  0  0
   19.5274  -10.4283  -17.5151 N   0  0  0  0  0  0  0  0  0  0  0  0
   19.5759   -8.9817  -17.7843 C   0  0  1  0  0  0  0  0  0  0  0  0
   18.4245   -8.5884  -18.6707 C   0  0  0  0  0  0  0  0  0  0  0  0
   18.7011   -9.0043  -20.0834 C   0  0  0  0  0  0  0  0  0  0  0  0
   17.5645   -8.5935  -21.0212 C   0  0  0  0  0  0  0  0  0  0  0  0
   17.7928   -9.0720  -22.4354 C   0  0  0  0  0  0  0  0  0  0  0  0
   16.6002   -8.7063  -23.1881 N   0  0  0  0  0  0  0  0  0  0  0  0
   19.6583   -8.2356  -16.5208 C   0  0  0  0  0  0  0  0  0  0  0  0
   18.9791   -8.4706  -15.5005 O   0  0  0  0  0  0  0  0  0  0  0  0
   20.5726   -7.1281  -16.3643 N   0  0  0  0  0  0  0  0  0  0  0  0
   20.6713   -6.3780  -15.1116 C   0  0  1  0  0  0  0  0  0  0  0  0
   22.0703   -6.3665  -14.5986 C   0  0  0  0  0  0  0  0  0  0  0  0
   22.5778   -7.7382  -14.4357 C   0  0  0  0  0  0  0  0  0  0  0  0
   23.5309   -8.3149  -15.2327 C   0  0  0  0  0  0  0  0  0  0  0  0
   23.9949   -9.6125  -15.0428 C   0  0  0  0  0  0  0  0  0  0  0  0
   23.4907  -10.3764  -14.0142 C   0  0  0  0  0  0  0  0  0  0  0  0
   22.5327   -9.8086  -13.2070 C   0  0  0  0  0  0  0  0  0  0  0  0
   22.0844   -8.5319  -13.4033 C   0  0  0  0  0  0  0  0  0  0  0  0
   20.1875   -5.0033  -15.3417 C   0  0  0  0  0  0  0  0  0  0  0  0
   19.8747   -4.5204  -16.4577 O   0  0  0  0  0  0  0  0  0  0  0  0
   20.0611   -4.1514  -14.2248 O   0  0  0  0  0  0  0  0  0  0  0  0
  2  4  1  0
  2  1  1  6
  3  2  1  0
  4  5  2  0
  6  7  1  0
  6  4  1  0
  7  8  1  1
  8  9  1  0
 10  9  1  0
 11 10  1  0
 12 11  1  0
 13 14  2  0
 13  7  1  0
 15 13  1  0
 16 24  1  0
 16 15  1  0
 16 17  1  6
 18 17  1  0
 19 18  2  0
 20 19  1  0
 21 20  2  0
 21 22  1  0
 22 23  2  0
 23 18  1  0
 24 26  1  0
 25 24  2  0
M  END
$$$$
