AKF.pdb
     RDKit          3D

 26 26  0  0  1  0  0  0  0  0999 V2000
   29.2847  -17.2676  -14.3204 C   0  0  0  0  0  0  0  0  0  0  0  0
   28.3643  -18.2413  -15.0097 C   0  0  2  0  0  0  0  0  0  0  0  0
   27.7082  -17.5427  -16.0963 N   0  0  0  0  0  0  0  0  0  0  0  0
   27.3380  -18.7995  -14.1191 C   0  0  0  0  0  0  0  0  0  0  0  0
   26.3467  -18.1313  -13.7249 O   0  0  0  0  0  0  0  0  0  0  0  0
   27.4355  -20.1402  -13.6658 N   0  0  0  0  0  0  0  0  0  0  0  0
   26.3819  -20.7862  -12.8656 C   0  0  1  0  0  0  0  0  0  0  0  0
   26.0132  -22.1098  -13.4802 C   0  0  0  0  0  0  0  0  0  0  0  0
   24.8029  -22.6712  -12.7980 C   0  0  0  0  0  0  0  0  0  0  0  0
   24.4105  -24.0297  -13.3815 C   0  0  0  0  0  0  0  0  0  0  0  0
   23.0973  -24.5290  -12.8270 C   0  0  0  0  0  0  0  0  0  0  0  0
   22.8379  -25.8061  -13.4783 N   0  0  0  0  0  0  0  0  0  0  0  0
   26.7916  -20.8586  -11.4560 C   0  0  0  0  0  0  0  0  0  0  0  0
   27.8827  -21.3044  -11.0455 O   0  0  0  0  0  0  0  0  0  0  0  0
   25.9208  -20.3983  -10.3993 N   0  0  0  0  0  0  0  0  0  0  0  0
   26.2682  -20.5572   -8.9866 C   0  0  1  0  0  0  0  0  0  0  0  0
   26.7605  -19.2766   -8.4049 C   0  0  0  0  0  0  0  0  0  0  0  0
   27.4343  -19.5129   -7.1182 C   0  0  0  0  0  0  0  0  0  0  0  0
   27.0684  -18.9359   -5.9309 C   0  0  0  0  0  0  0  0  0  0  0  0
   27.7229  -19.1907   -4.7302 C   0  0  0  0  0  0  0  0  0  0  0  0
   28.7916  -20.0583   -4.7034 C   0  0  0  0  0  0  0  0  0  0  0  0
   29.1690  -20.6438   -5.8894 C   0  0  0  0  0  0  0  0  0  0  0  0
   28.5179  -20.3858   -7.0636 C   0  0  0  0  0  0  0  0  0  0  0  0
   25.0806  -21.0406   -8.2568 C   0  0  0  0  0  0  0  0  0  0  0  0
   23.8889  -20.8671   -8.6122 O   0  0  0  0  0  0  0  0  0  0  0  0
   25.2868  -21.7582   -7.0602 O   0  0  0  0  0  0  0  0  0  0  0  0
  2  4  1  0
  2  1  1  1
  3  2  1  0
  4  5  2  0
  6  7  1  0
  6  4  1  0
  7  8  1  6
  8  9  1  0
 10  9  1  0
 11 10  1  0
 12 11  1  0
 13 14  2  0
 13  7  1  0
 15 13  1  0
 16 24  1  0
 16 15  1  0
 16 17  1  1
 18 17  1  0
 19 18  2  0
 20 19  1  0
 21 20  2  0
 21 22  1  0
 22 23  2  0
 23 18  1  0
 24 26  1  0
 25 24  2  0
M  END
$$$$
