AKF.pdb
     RDKit          3D

 26 26  0  0  1  0  0  0  0  0999 V2000
   24.6995  -25.4244  -15.3799 C   0  0  0  0  0  0  0  0  0  0  0  0
   25.7544  -25.3204  -16.4507 C   0  0  2  0  0  0  0  0  0  0  0  0
   25.2276  -24.4937  -17.5176 N   0  0  0  0  0  0  0  0  0  0  0  0
   26.1437  -26.6219  -17.0100 C   0  0  0  0  0  0  0  0  0  0  0  0
   25.4282  -27.2452  -17.8371 O   0  0  0  0  0  0  0  0  0  0  0  0
   27.3665  -27.2297  -16.6257 N   0  0  0  0  0  0  0  0  0  0  0  0
   27.8292  -28.5082  -17.1903 C   0  0  1  0  0  0  0  0  0  0  0  0
   29.3336  -28.5583  -17.1753 C   0  0  0  0  0  0  0  0  0  0  0  0
   29.8706  -28.2110  -18.5303 C   0  0  0  0  0  0  0  0  0  0  0  0
   31.4000  -28.2357  -18.5502 C   0  0  0  0  0  0  0  0  0  0  0  0
   31.9582  -27.8271  -19.8929 C   0  0  0  0  0  0  0  0  0  0  0  0
   33.4062  -27.7857  -19.7379 N   0  0  0  0  0  0  0  0  0  0  0  0
   27.1725  -29.6300  -16.5046 C   0  0  0  0  0  0  0  0  0  0  0  0
   27.1719  -29.8185  -15.2708 O   0  0  0  0  0  0  0  0  0  0  0  0
   26.4491  -30.6385  -17.2438 N   0  0  0  0  0  0  0  0  0  0  0  0
   25.7801  -31.7557  -16.5762 C   0  0  1  0  0  0  0  0  0  0  0  0
   24.3393  -31.8234  -16.9506 C   0  0  0  0  0  0  0  0  0  0  0  0
   23.6809  -32.9609  -16.2887 C   0  0  0  0  0  0  0  0  0  0  0  0
   23.5054  -34.1955  -16.8555 C   0  0  0  0  0  0  0  0  0  0  0  0
   22.8867  -35.2522  -16.1956 C   0  0  0  0  0  0  0  0  0  0  0  0
   22.4186  -35.0783  -14.9124 C   0  0  0  0  0  0  0  0  0  0  0  0
   22.5886  -33.8427  -14.3324 C   0  0  0  0  0  0  0  0  0  0  0  0
   23.1985  -32.8115  -14.9911 C   0  0  0  0  0  0  0  0  0  0  0  0
   26.4731  -33.0077  -16.9356 C   0  0  0  0  0  0  0  0  0  0  0  0
   26.8677  -33.3149  -18.0873 O   0  0  0  0  0  0  0  0  0  0  0  0
   26.7187  -33.9450  -15.9107 O   0  0  0  0  0  0  0  0  0  0  0  0
  2  4  1  0
  2  1  1  1
  3  2  1  0
  4  5  2  0
  6  7  1  0
  6  4  1  0
  7  8  1  1
  8  9  1  0
 10  9  1  0
 11 10  1  0
 12 11  1  0
 13 14  2  0
 13  7  1  0
 15 13  1  0
 16 24  1  0
 16 15  1  0
 16 17  1  6
 18 17  1  0
 19 18  2  0
 20 19  1  0
 21 20  2  0
 21 22  1  0
 22 23  2  0
 23 18  1  0
 24 26  1  0
 25 24  2  0
M  END
$$$$
