SEE.pdb
     RDKit          3D

 25 24  0  0  1  0  0  0  0  0999 V2000
   13.9226  -13.7507   20.1502 O   0  0  0  0  0  0  0  0  0  0  0  0
   13.7681  -15.1320   19.9930 C   0  0  0  0  0  0  0  0  0  0  0  0
   12.4365  -15.4553   19.3489 C   0  0  2  0  0  0  0  0  0  0  0  0
   11.8434  -14.2098   18.9379 N   0  0  0  0  0  0  0  0  0  0  0  0
   11.5855  -16.1057   20.3772 C   0  0  0  0  0  0  0  0  0  0  0  0
   10.6102  -15.4539   20.8231 O   0  0  0  0  0  0  0  0  0  0  0  0
   11.8336  -17.4146   20.8634 N   0  0  0  0  0  0  0  0  0  0  0  0
   10.9845  -17.9897   21.9064 C   0  0  1  0  0  0  0  0  0  0  0  0
   11.2127  -19.4594   21.9815 C   0  0  0  0  0  0  0  0  0  0  0  0
   10.7165  -20.2804   20.8520 C   0  0  0  0  0  0  0  0  0  0  0  0
   10.9859  -21.7412   21.0447 C   0  0  0  0  0  0  0  0  0  0  0  0
   10.2656  -22.6314   20.5749 O   0  0  0  0  0  0  0  0  0  0  0  0
   11.3548  -17.3880   23.2306 C   0  0  0  0  0  0  0  0  0  0  0  0
   12.5163  -16.9935   23.3936 O   0  0  0  0  0  0  0  0  0  0  0  0
   12.1064  -22.1507   21.7927 O   0  0  0  0  0  0  0  0  0  0  0  0
   10.4315  -17.2577   24.2876 N   0  0  0  0  0  0  0  0  0  0  0  0
   10.7273  -16.6365   25.5778 C   0  0  1  0  0  0  0  0  0  0  0  0
    9.7593  -15.5567   25.8815 C   0  0  0  0  0  0  0  0  0  0  0  0
    9.8808  -14.8591   27.1876 C   0  0  0  0  0  0  0  0  0  0  0  0
    8.9060  -13.7918   27.4498 C   0  0  0  0  0  0  0  0  0  0  0  0
    8.8030  -13.1601   28.5582 O   0  0  0  0  0  0  0  0  0  0  0  0
   11.0674  -17.6244   26.5625 C   0  0  0  0  0  0  0  0  0  0  0  0
   10.6342  -18.8215   26.5812 O   0  0  0  0  0  0  0  0  0  0  0  0
    8.0170  -13.4051   26.4671 O   0  0  0  0  0  0  0  0  0  0  0  0
   11.9499  -17.3226   27.6138 O   0  0  0  0  0  0  0  0  0  0  0  0
  1  2  1  0
  2  3  1  0
  3  4  1  1
  5  7  1  0
  5  3  1  0
  6  5  2  0
  8  7  1  0
  8  9  1  1
  9 10  1  0
 10 11  1  0
 11 15  1  0
 12 11  2  0
 13  8  1  0
 14 13  2  0
 16 13  1  0
 17 22  1  0
 17 16  1  0
 18 19  1  0
 17 18  1  1
 19 20  1  0
 20 21  2  0
 22 25  1  0
 23 22  2  0
 24 20  1  0
M  END
$$$$
