SEE.pdb
     RDKit          3D

 25 24  0  0  1  0  0  0  0  0999 V2000
   11.5892  -16.6084   20.1113 O   0  0  0  0  0  0  0  0  0  0  0  0
   10.2819  -16.9310   19.7322 C   0  0  0  0  0  0  0  0  0  0  0  0
    9.2750  -16.1817   20.5792 C   0  0  2  0  0  0  0  0  0  0  0  0
    9.6834  -14.8019   20.6136 N   0  0  0  0  0  0  0  0  0  0  0  0
    9.3211  -16.7572   21.9472 C   0  0  0  0  0  0  0  0  0  0  0  0
    9.9385  -16.1126   22.8294 O   0  0  0  0  0  0  0  0  0  0  0  0
    8.7023  -17.9879   22.2837 N   0  0  0  0  0  0  0  0  0  0  0  0
    8.7883  -18.5107   23.6471 C   0  0  1  0  0  0  0  0  0  0  0  0
    7.7913  -19.6024   23.8266 C   0  0  0  0  0  0  0  0  0  0  0  0
    7.7897  -20.3106   25.1284 C   0  0  0  0  0  0  0  0  0  0  0  0
    6.7633  -21.4000   25.1858 C   0  0  0  0  0  0  0  0  0  0  0  0
    6.5608  -22.0886   26.1942 O   0  0  0  0  0  0  0  0  0  0  0  0
   10.1576  -19.0832   23.8700 C   0  0  0  0  0  0  0  0  0  0  0  0
   10.8795  -19.2830   22.8848 O   0  0  0  0  0  0  0  0  0  0  0  0
    5.9758  -21.6763   24.0516 O   0  0  0  0  0  0  0  0  0  0  0  0
   10.6465  -19.3988   25.1538 N   0  0  0  0  0  0  0  0  0  0  0  0
   11.9849  -19.0647   25.6388 C   0  0  1  0  0  0  0  0  0  0  0  0
   12.5897  -17.9837   24.8258 C   0  0  0  0  0  0  0  0  0  0  0  0
   14.0409  -18.0710   24.5196 C   0  0  0  0  0  0  0  0  0  0  0  0
   14.6012  -16.9858   23.7032 C   0  0  0  0  0  0  0  0  0  0  0  0
   13.9185  -16.0206   23.2130 O   0  0  0  0  0  0  0  0  0  0  0  0
   12.0197  -19.0201   27.0734 C   0  0  0  0  0  0  0  0  0  0  0  0
   11.0794  -18.5917   27.8174 O   0  0  0  0  0  0  0  0  0  0  0  0
   15.9510  -16.9576   23.4156 O   0  0  0  0  0  0  0  0  0  0  0  0
   13.1432  -19.4769   27.7834 O   0  0  0  0  0  0  0  0  0  0  0  0
  1  2  1  0
  2  3  1  0
  3  4  1  1
  5  7  1  0
  5  3  1  0
  6  5  2  0
  8  7  1  0
  8  9  1  6
  9 10  1  0
 10 11  1  0
 11 15  1  0
 12 11  2  0
 13  8  1  0
 14 13  2  0
 16 13  1  0
 17 22  1  0
 17 16  1  0
 18 19  1  0
 17 18  1  6
 19 20  1  0
 20 21  2  0
 22 25  1  0
 23 22  2  0
 24 20  1  0
M  END
$$$$
