SEE.pdb
     RDKit          3D

 25 24  0  0  1  0  0  0  0  0999 V2000
    7.9718  -13.6730   20.9931 O   0  0  0  0  0  0  0  0  0  0  0  0
    8.3467  -12.6309   20.1386 C   0  0  0  0  0  0  0  0  0  0  0  0
    8.6574  -13.1559   18.7528 C   0  0  2  0  0  0  0  0  0  0  0  0
    7.4629  -13.7841   18.2526 N   0  0  0  0  0  0  0  0  0  0  0  0
    9.7407  -14.1625   18.8856 C   0  0  0  0  0  0  0  0  0  0  0  0
    9.4252  -15.3734   18.7900 O   0  0  0  0  0  0  0  0  0  0  0  0
   11.0949  -13.8079   19.1127 N   0  0  0  0  0  0  0  0  0  0  0  0
   12.1296  -14.8399   19.1741 C   0  0  1  0  0  0  0  0  0  0  0  0
   13.2094  -14.5224   18.1989 C   0  0  0  0  0  0  0  0  0  0  0  0
   14.3854  -15.4239   18.1734 C   0  0  0  0  0  0  0  0  0  0  0  0
   15.4249  -14.9806   17.1903 C   0  0  0  0  0  0  0  0  0  0  0  0
   16.3380  -14.1955   17.4766 O   0  0  0  0  0  0  0  0  0  0  0  0
   12.7286  -14.8559   20.5502 C   0  0  0  0  0  0  0  0  0  0  0  0
   13.2082  -13.8056   20.9956 O   0  0  0  0  0  0  0  0  0  0  0  0
   15.3860  -15.4647   15.8686 O   0  0  0  0  0  0  0  0  0  0  0  0
   12.7634  -16.0179   21.3472 N   0  0  0  0  0  0  0  0  0  0  0  0
   13.2863  -16.0746   22.7115 C   0  0  1  0  0  0  0  0  0  0  0  0
   12.5971  -17.1219   23.5011 C   0  0  0  0  0  0  0  0  0  0  0  0
   12.9465  -17.2533   24.9392 C   0  0  0  0  0  0  0  0  0  0  0  0
   12.1856  -18.2484   25.7066 C   0  0  0  0  0  0  0  0  0  0  0  0
   11.0231  -18.6772   25.3859 O   0  0  0  0  0  0  0  0  0  0  0  0
   14.7175  -15.9606   22.7229 C   0  0  0  0  0  0  0  0  0  0  0  0
   15.4902  -16.3234   21.7782 O   0  0  0  0  0  0  0  0  0  0  0  0
   12.7151  -18.7902   26.8605 O   0  0  0  0  0  0  0  0  0  0  0  0
   15.3893  -15.4059   23.8256 O   0  0  0  0  0  0  0  0  0  0  0  0
  1  2  1  0
  2  3  1  0
  3  4  1  1
  5  7  1  0
  5  3  1  0
  6  5  2  0
  8  7  1  0
  8  9  1  6
  9 10  1  0
 10 11  1  0
 11 15  1  0
 12 11  2  0
 13  8  1  0
 14 13  2  0
 16 13  1  0
 17 22  1  0
 17 16  1  0
 18 19  1  0
 17 18  1  6
 19 20  1  0
 20 21  2  0
 22 25  1  0
 23 22  2  0
 24 20  1  0
M  END
$$$$
