SEE.pdb
     RDKit          3D

 25 24  0  0  1  0  0  0  0  0999 V2000
   10.1054  -16.2816   20.4891 O   0  0  0  0  0  0  0  0  0  0  0  0
    9.4440  -17.4692   20.1590 C   0  0  0  0  0  0  0  0  0  0  0  0
   10.1899  -18.2176   19.0746 C   0  0  2  0  0  0  0  0  0  0  0  0
    9.4425  -19.4130   18.7843 N   0  0  0  0  0  0  0  0  0  0  0  0
   11.5268  -18.5751   19.6128 C   0  0  0  0  0  0  0  0  0  0  0  0
   11.5786  -19.4556   20.5054 O   0  0  0  0  0  0  0  0  0  0  0  0
   12.7247  -17.9659   19.1602 N   0  0  0  0  0  0  0  0  0  0  0  0
   14.0070  -18.3085   19.7750 C   0  0  1  0  0  0  0  0  0  0  0  0
   15.0136  -18.5796   18.7115 C   0  0  0  0  0  0  0  0  0  0  0  0
   14.7328  -18.0404   17.3600 C   0  0  0  0  0  0  0  0  0  0  0  0
   15.9765  -17.6047   16.6480 C   0  0  0  0  0  0  0  0  0  0  0  0
   16.7709  -16.7783   17.1149 O   0  0  0  0  0  0  0  0  0  0  0  0
   14.4881  -17.1453   20.5923 C   0  0  0  0  0  0  0  0  0  0  0  0
   13.9338  -16.0494   20.4396 O   0  0  0  0  0  0  0  0  0  0  0  0
   16.2819  -18.1450   15.3840 O   0  0  0  0  0  0  0  0  0  0  0  0
   15.5421  -17.2573   21.5214 N   0  0  0  0  0  0  0  0  0  0  0  0
   15.3918  -17.1197   22.9694 C   0  0  1  0  0  0  0  0  0  0  0  0
   14.1544  -17.7848   23.4403 C   0  0  0  0  0  0  0  0  0  0  0  0
   13.8445  -17.7321   24.8924 C   0  0  0  0  0  0  0  0  0  0  0  0
   12.7400  -16.8496   25.2916 C   0  0  0  0  0  0  0  0  0  0  0  0
   11.5615  -17.2516   25.5878 O   0  0  0  0  0  0  0  0  0  0  0  0
   16.6439  -17.3238   23.6417 C   0  0  0  0  0  0  0  0  0  0  0  0
   17.4729  -18.2548   23.3826 O   0  0  0  0  0  0  0  0  0  0  0  0
   12.9331  -15.4849   25.3684 O   0  0  0  0  0  0  0  0  0  0  0  0
   17.0596  -16.4627   24.6716 O   0  0  0  0  0  0  0  0  0  0  0  0
  1  2  1  0
  2  3  1  0
  3  4  1  1
  5  7  1  0
  5  3  1  0
  6  5  2  0
  8  7  1  0
  8  9  1  6
  9 10  1  0
 10 11  1  0
 11 15  1  0
 12 11  2  0
 13  8  1  0
 14 13  2  0
 16 13  1  0
 17 22  1  0
 17 16  1  0
 18 19  1  0
 17 18  1  1
 19 20  1  0
 20 21  2  0
 22 25  1  0
 23 22  2  0
 24 20  1  0
M  END
$$$$
