SEE.pdb
     RDKit          3D

 25 24  0  0  1  0  0  0  0  0999 V2000
    6.6365  -13.5648   20.7181 O   0  0  0  0  0  0  0  0  0  0  0  0
    7.7714  -14.3653   20.8859 C   0  0  0  0  0  0  0  0  0  0  0  0
    8.3352  -14.7883   19.5459 C   0  0  2  0  0  0  0  0  0  0  0  0
    7.4428  -15.7744   18.9953 N   0  0  0  0  0  0  0  0  0  0  0  0
    9.6691  -15.3931   19.7897 C   0  0  0  0  0  0  0  0  0  0  0  0
    9.7062  -16.5931   20.1553 O   0  0  0  0  0  0  0  0  0  0  0  0
   10.8800  -14.6734   19.6264 N   0  0  0  0  0  0  0  0  0  0  0  0
   12.1669  -15.3280   19.8607 C   0  0  1  0  0  0  0  0  0  0  0  0
   13.2516  -14.5441   19.2074 C   0  0  0  0  0  0  0  0  0  0  0  0
   14.6361  -15.0523   19.3525 C   0  0  0  0  0  0  0  0  0  0  0  0
   15.6414  -14.1776   18.6685 C   0  0  0  0  0  0  0  0  0  0  0  0
   16.5859  -13.6393   19.2601 O   0  0  0  0  0  0  0  0  0  0  0  0
   12.4385  -15.3672   21.3362 C   0  0  0  0  0  0  0  0  0  0  0  0
   12.2294  -14.3443   22.0006 O   0  0  0  0  0  0  0  0  0  0  0  0
   15.5309  -13.9385   17.2852 O   0  0  0  0  0  0  0  0  0  0  0  0
   12.9199  -16.5211   21.9870 N   0  0  0  0  0  0  0  0  0  0  0  0
   13.2269  -16.6034   23.4142 C   0  0  1  0  0  0  0  0  0  0  0  0
   12.6132  -17.8080   24.0206 C   0  0  0  0  0  0  0  0  0  0  0  0
   12.8472  -18.0561   25.4667 C   0  0  0  0  0  0  0  0  0  0  0  0
   12.2483  -19.2764   26.0239 C   0  0  0  0  0  0  0  0  0  0  0  0
   11.0138  -19.5947   25.9115 O   0  0  0  0  0  0  0  0  0  0  0  0
   14.5981  -16.2628   23.6696 C   0  0  0  0  0  0  0  0  0  0  0  0
   15.5302  -16.2712   22.8023 O   0  0  0  0  0  0  0  0  0  0  0  0
   13.0264  -20.1751   26.7255 O   0  0  0  0  0  0  0  0  0  0  0  0
   15.0182  -15.8700   24.9519 O   0  0  0  0  0  0  0  0  0  0  0  0
  1  2  1  0
  2  3  1  0
  3  4  1  1
  5  7  1  0
  5  3  1  0
  6  5  2  0
  8  7  1  0
  8  9  1  6
  9 10  1  0
 10 11  1  0
 11 15  1  0
 12 11  2  0
 13  8  1  0
 14 13  2  0
 16 13  1  0
 17 22  1  0
 17 16  1  0
 18 19  1  0
 17 18  1  6
 19 20  1  0
 20 21  2  0
 22 25  1  0
 23 22  2  0
 24 20  1  0
M  END
$$$$
