GGG.pdb
     RDKit          3D

 13 12  0  0  0  0  0  0  0  0999 V2000
   20.6881  -12.8677  -16.6388 N   0  0  0  0  0  0  0  0  0  0  0  0
   19.3126  -12.7598  -16.1986 C   0  0  0  0  0  0  0  0  0  0  0  0
   19.0197  -11.3617  -15.8597 C   0  0  0  0  0  0  0  0  0  0  0  0
   17.9714  -11.0870  -15.2287 O   0  0  0  0  0  0  0  0  0  0  0  0
   19.8641  -10.2716  -16.2064 N   0  0  0  0  0  0  0  0  0  0  0  0
   19.5815   -8.9119  -15.8477 C   0  0  0  0  0  0  0  0  0  0  0  0
   20.6676   -8.1747  -15.2204 C   0  0  0  0  0  0  0  0  0  0  0  0
   21.2985   -8.7835  -14.2855 O   0  0  0  0  0  0  0  0  0  0  0  0
   21.1189   -6.8756  -15.5062 N   0  0  0  0  0  0  0  0  0  0  0  0
   22.2690   -6.2727  -14.8524 C   0  0  0  0  0  0  0  0  0  0  0  0
   21.8728   -5.5309  -13.6391 C   0  0  0  0  0  0  0  0  0  0  0  0
   22.5746   -5.5716  -12.5999 O   0  0  0  0  0  0  0  0  0  0  0  0
   20.7150   -4.7734  -13.6250 O   0  0  0  0  0  0  0  0  0  0  0  0
  1  2  1  0
  3  2  1  0
  4  3  2  0
  5  3  1  0
  6  5  1  0
  7  9  1  0
  7  6  1  0
  8  7  2  0
 10  9  1  0
 11 13  1  0
 11 10  1  0
 12 11  2  0
M  END
$$$$
