GGG.pdb
     RDKit          3D

 13 12  0  0  0  0  0  0  0  0999 V2000
   25.3633  -32.9925  -11.2916 N   0  0  0  0  0  0  0  0  0  0  0  0
   25.6068  -33.6892  -10.0454 C   0  0  0  0  0  0  0  0  0  0  0  0
   25.4274  -32.7572   -8.9253 C   0  0  0  0  0  0  0  0  0  0  0  0
   25.4097  -31.5231   -9.1472 O   0  0  0  0  0  0  0  0  0  0  0  0
   25.2686  -33.1684   -7.5737 N   0  0  0  0  0  0  0  0  0  0  0  0
   25.2969  -32.2582   -6.4655 C   0  0  0  0  0  0  0  0  0  0  0  0
   26.2317  -32.5768   -5.3971 C   0  0  0  0  0  0  0  0  0  0  0  0
   26.1506  -31.8554   -4.3408 O   0  0  0  0  0  0  0  0  0  0  0  0
   27.2176  -33.5770   -5.3705 N   0  0  0  0  0  0  0  0  0  0  0  0
   28.1440  -33.7496   -4.2636 C   0  0  0  0  0  0  0  0  0  0  0  0
   27.5389  -34.5367   -3.1710 C   0  0  0  0  0  0  0  0  0  0  0  0
   26.3424  -34.9097   -3.2302 O   0  0  0  0  0  0  0  0  0  0  0  0
   28.2832  -34.8796   -2.0560 O   0  0  0  0  0  0  0  0  0  0  0  0
  1  2  1  0
  3  2  1  0
  4  3  2  0
  5  3  1  0
  6  5  1  0
  7  9  1  0
  7  6  1  0
  8  7  2  0
 10  9  1  0
 11 13  1  0
 11 10  1  0
 12 11  2  0
M  END
$$$$
