GGG.pdb
     RDKit          3D

 13 12  0  0  0  0  0  0  0  0999 V2000
   14.1390  -22.1903    1.9413 N   0  0  0  0  0  0  0  0  0  0  0  0
   15.5249  -22.0803    2.3469 C   0  0  0  0  0  0  0  0  0  0  0  0
   15.8434  -20.6714    2.6094 C   0  0  0  0  0  0  0  0  0  0  0  0
   14.9111  -19.8436    2.7440 O   0  0  0  0  0  0  0  0  0  0  0  0
   17.1687  -20.1696    2.7242 N   0  0  0  0  0  0  0  0  0  0  0  0
   17.4685  -18.7942    2.9994 C   0  0  0  0  0  0  0  0  0  0  0  0
   18.1272  -18.5224    4.2678 C   0  0  0  0  0  0  0  0  0  0  0  0
   18.4408  -17.3001    4.4919 O   0  0  0  0  0  0  0  0  0  0  0  0
   18.4669  -19.4288    5.2858 N   0  0  0  0  0  0  0  0  0  0  0  0
   19.3670  -19.0957    6.3777 C   0  0  0  0  0  0  0  0  0  0  0  0
   18.6378  -18.5057    7.5176 C   0  0  0  0  0  0  0  0  0  0  0  0
   19.2121  -18.2992    8.6139 O   0  0  0  0  0  0  0  0  0  0  0  0
   17.3014  -18.1677    7.3981 O   0  0  0  0  0  0  0  0  0  0  0  0
  1  2  1  0
  3  2  1  0
  4  3  2  0
  5  3  1  0
  6  5  1  0
  7  9  1  0
  7  6  1  0
  8  7  2  0
 10  9  1  0
 11 13  1  0
 11 10  1  0
 12 11  2  0
M  END
$$$$
