GGG.pdb
     RDKit          3D

 13 12  0  0  0  0  0  0  0  0999 V2000
   21.0937  -13.8998  -16.7137 N   0  0  0  0  0  0  0  0  0  0  0  0
   21.8161  -12.7306  -17.1704 C   0  0  0  0  0  0  0  0  0  0  0  0
   21.1175  -11.5211  -16.7181 C   0  0  0  0  0  0  0  0  0  0  0  0
   20.0599  -11.6325  -16.0534 O   0  0  0  0  0  0  0  0  0  0  0  0
   21.5691  -10.2005  -16.9888 N   0  0  0  0  0  0  0  0  0  0  0  0
   20.9146   -9.0266  -16.4879 C   0  0  0  0  0  0  0  0  0  0  0  0
   21.5934   -8.3243  -15.4096 C   0  0  0  0  0  0  0  0  0  0  0  0
   22.3378   -9.0389  -14.6495 O   0  0  0  0  0  0  0  0  0  0  0  0
   21.5401   -6.9575  -15.0897 N   0  0  0  0  0  0  0  0  0  0  0  0
   22.3329   -6.3589  -14.0283 C   0  0  0  0  0  0  0  0  0  0  0  0
   22.1383   -4.8968  -13.9682 C   0  0  0  0  0  0  0  0  0  0  0  0
   21.3509   -4.3176  -14.7548 O   0  0  0  0  0  0  0  0  0  0  0  0
   22.8236   -4.1341  -13.0390 O   0  0  0  0  0  0  0  0  0  0  0  0
  1  2  1  0
  3  2  1  0
  4  3  2  0
  5  3  1  0
  6  5  1  0
  7  9  1  0
  7  6  1  0
  8  7  2  0
 10  9  1  0
 11 13  1  0
 11 10  1  0
 12 11  2  0
M  END
$$$$
