GGG.pdb
     RDKit          3D

 13 12  0  0  0  0  0  0  0  0999 V2000
   17.0267  -11.4968  -14.8035 N   0  0  0  0  0  0  0  0  0  0  0  0
   18.1602  -10.7788  -14.2583 C   0  0  0  0  0  0  0  0  0  0  0  0
   18.7379   -9.9209  -15.3003 C   0  0  0  0  0  0  0  0  0  0  0  0
   18.0812   -8.9411  -15.7261 O   0  0  0  0  0  0  0  0  0  0  0  0
   20.0222  -10.1303  -15.8732 N   0  0  0  0  0  0  0  0  0  0  0  0
   20.5407   -9.3410  -16.9528 C   0  0  0  0  0  0  0  0  0  0  0  0
   21.0627   -8.0305  -16.5967 C   0  0  0  0  0  0  0  0  0  0  0  0
   21.1770   -7.1875  -17.5553 O   0  0  0  0  0  0  0  0  0  0  0  0
   21.4604   -7.5644  -15.3327 N   0  0  0  0  0  0  0  0  0  0  0  0
   21.7248   -6.1631  -15.0502 C   0  0  0  0  0  0  0  0  0  0  0  0
   22.0302   -5.9486  -13.6218 C   0  0  0  0  0  0  0  0  0  0  0  0
   21.7488   -6.8197  -12.7638 O   0  0  0  0  0  0  0  0  0  0  0  0
   22.6352   -4.7777  -13.2005 O   0  0  0  0  0  0  0  0  0  0  0  0
  1  2  1  0
  3  2  1  0
  4  3  2  0
  5  3  1  0
  6  5  1  0
  7  9  1  0
  7  6  1  0
  8  7  2  0
 10  9  1  0
 11 13  1  0
 11 10  1  0
 12 11  2  0
M  END
$$$$
