GGG.pdb
     RDKit          3D

 13 12  0  0  0  0  0  0  0  0999 V2000
   19.1051  -24.5098  -12.9539 N   0  0  0  0  0  0  0  0  0  0  0  0
   18.9091  -23.3425  -13.7883 C   0  0  0  0  0  0  0  0  0  0  0  0
   20.1796  -22.6179  -13.9154 C   0  0  0  0  0  0  0  0  0  0  0  0
   21.0042  -22.9689  -14.7926 O   0  0  0  0  0  0  0  0  0  0  0  0
   20.5477  -21.5190  -13.0919 N   0  0  0  0  0  0  0  0  0  0  0  0
   21.7871  -20.8107  -13.2320 C   0  0  0  0  0  0  0  0  0  0  0  0
   21.7156  -19.5170  -13.8937 C   0  0  0  0  0  0  0  0  0  0  0  0
   20.7112  -18.7811  -13.5901 O   0  0  0  0  0  0  0  0  0  0  0  0
   22.6080  -18.9646  -14.8273 N   0  0  0  0  0  0  0  0  0  0  0  0
   22.4578  -17.6257  -15.3734 C   0  0  0  0  0  0  0  0  0  0  0  0
   21.5689  -17.6200  -16.5521 C   0  0  0  0  0  0  0  0  0  0  0  0
   21.3817  -18.6627  -17.2243 O   0  0  0  0  0  0  0  0  0  0  0  0
   20.9226  -16.4594  -16.9394 O   0  0  0  0  0  0  0  0  0  0  0  0
  1  2  1  0
  3  2  1  0
  4  3  2  0
  5  3  1  0
  6  5  1  0
  7  9  1  0
  7  6  1  0
  8  7  2  0
 10  9  1  0
 11 13  1  0
 11 10  1  0
 12 11  2  0
M  END
$$$$
