GGG.pdb
     RDKit          3D

 13 12  0  0  0  0  0  0  0  0999 V2000
   16.0584  -25.9346    0.6179 N   0  0  0  0  0  0  0  0  0  0  0  0
   16.5942  -26.7126   -0.4799 C   0  0  0  0  0  0  0  0  0  0  0  0
   17.8758  -27.3039   -0.0757 C   0  0  0  0  0  0  0  0  0  0  0  0
   18.3990  -26.9577    1.0102 O   0  0  0  0  0  0  0  0  0  0  0  0
   18.5809  -28.2653   -0.8500 N   0  0  0  0  0  0  0  0  0  0  0  0
   19.8627  -28.7898   -0.4767 C   0  0  0  0  0  0  0  0  0  0  0  0
   20.3801  -29.8690   -1.3039 C   0  0  0  0  0  0  0  0  0  0  0  0
   20.1528  -29.7765   -2.5618 O   0  0  0  0  0  0  0  0  0  0  0  0
   21.1005  -31.0064   -0.9031 N   0  0  0  0  0  0  0  0  0  0  0  0
   21.7551  -31.9032   -1.8415 C   0  0  0  0  0  0  0  0  0  0  0  0
   22.5148  -32.9572   -1.1406 C   0  0  0  0  0  0  0  0  0  0  0  0
   23.0710  -33.8840   -1.7777 O   0  0  0  0  0  0  0  0  0  0  0  0
   22.6283  -32.9429    0.2384 O   0  0  0  0  0  0  0  0  0  0  0  0
  1  2  1  0
  3  2  1  0
  4  3  2  0
  5  3  1  0
  6  5  1  0
  7  9  1  0
  7  6  1  0
  8  7  2  0
 10  9  1  0
 11 13  1  0
 11 10  1  0
 12 11  2  0
M  END
$$$$
