YAA.pdb
     RDKit          3D

 23 23  0  0  1  0  0  0  0  0999 V2000
    7.4556  -12.9952   16.8704 O   0  0  0  0  0  0  0  0  0  0  0  0
    7.5505  -13.4651   18.1771 C   0  0  0  0  0  0  0  0  0  0  0  0
    8.5105  -13.0320   19.0539 C   0  0  0  0  0  0  0  0  0  0  0  0
    8.5630  -13.5257   20.3332 C   0  0  0  0  0  0  0  0  0  0  0  0
    7.6603  -14.4739   20.7960 C   0  0  0  0  0  0  0  0  0  0  0  0
    7.7624  -14.9741   22.1891 C   0  0  0  0  0  0  0  0  0  0  0  0
    9.1059  -14.4643   22.7279 C   0  0  2  0  0  0  0  0  0  0  0  0
   10.1267  -15.2959   22.1591 N   0  0  0  0  0  0  0  0  0  0  0  0
    9.1473  -14.4845   24.1933 C   0  0  0  0  0  0  0  0  0  0  0  0
   10.0946  -15.0798   24.7678 O   0  0  0  0  0  0  0  0  0  0  0  0
    6.7003  -14.9007   19.9043 C   0  0  0  0  0  0  0  0  0  0  0  0
    6.6249  -14.4176   18.6047 C   0  0  0  0  0  0  0  0  0  0  0  0
    7.3197  -12.6774   26.9150 C   0  0  0  0  0  0  0  0  0  0  0  0
    8.2634  -13.7849   26.4448 C   0  0  2  0  0  0  0  0  0  0  0  0
    8.1743  -13.8673   25.0011 N   0  0  0  0  0  0  0  0  0  0  0  0
    7.8211  -15.0335   27.1029 C   0  0  0  0  0  0  0  0  0  0  0  0
    7.8260  -15.0939   28.3453 O   0  0  0  0  0  0  0  0  0  0  0  0
    7.0563  -18.4907   25.7639 C   0  0  0  0  0  0  0  0  0  0  0  0
    7.3043  -17.4832   26.8403 C   0  0  2  0  0  0  0  0  0  0  0  0
    7.4041  -16.1287   26.3439 N   0  0  0  0  0  0  0  0  0  0  0  0
    8.5176  -17.8576   27.6301 C   0  0  0  0  0  0  0  0  0  0  0  0
    9.6726  -17.5725   27.2709 O   0  0  0  0  0  0  0  0  0  0  0  0
    8.3407  -18.5534   28.8147 O   0  0  0  0  0  0  0  0  0  0  0  0
  2  1  1  0
  2  3  2  0
  4  3  1  0
  5  4  2  0
  6  5  1  0
  7  6  1  0
  7  8  1  6
  9  7  1  0
  9 10  2  0
 11 12  2  0
 11  5  1  0
 12  2  1  0
 14 13  1  1
 14 15  1  0
 15  9  1  0
 16 14  1  0
 16 20  1  0
 17 16  2  0
 19 18  1  6
 19 20  1  0
 19 21  1  0
 21 22  2  0
 21 23  1  0
M  END
$$$$
