YAA.pdb
     RDKit          3D

 23 23  0  0  1  0  0  0  0  0999 V2000
    6.2619  -10.5219   27.6508 O   0  0  0  0  0  0  0  0  0  0  0  0
    6.7206  -11.7499   27.1830 C   0  0  0  0  0  0  0  0  0  0  0  0
    7.8997  -12.3100   27.6002 C   0  0  0  0  0  0  0  0  0  0  0  0
    8.3095  -13.5241   27.1093 C   0  0  0  0  0  0  0  0  0  0  0  0
    7.5616  -14.2349   26.1798 C   0  0  0  0  0  0  0  0  0  0  0  0
    8.0515  -15.5438   25.6819 C   0  0  0  0  0  0  0  0  0  0  0  0
    6.8530  -16.2159   24.9986 C   0  0  2  0  0  0  0  0  0  0  0  0
    6.4482  -17.3040   25.8408 N   0  0  0  0  0  0  0  0  0  0  0  0
    7.1846  -16.6745   23.6461 C   0  0  0  0  0  0  0  0  0  0  0  0
    7.4379  -17.8923   23.4607 O   0  0  0  0  0  0  0  0  0  0  0  0
    6.3784  -13.6605   25.7690 C   0  0  0  0  0  0  0  0  0  0  0  0
    5.9406  -12.4337   26.2496 C   0  0  0  0  0  0  0  0  0  0  0  0
    7.2491  -15.1388   20.2188 C   0  0  0  0  0  0  0  0  0  0  0  0
    7.6217  -16.2477   21.2034 C   0  0  2  0  0  0  0  0  0  0  0  0
    7.2355  -15.8169   22.5316 N   0  0  0  0  0  0  0  0  0  0  0  0
    9.0818  -16.4528   21.0861 C   0  0  0  0  0  0  0  0  0  0  0  0
    9.5415  -16.9197   20.0289 O   0  0  0  0  0  0  0  0  0  0  0  0
   12.0839  -15.2631   22.9579 C   0  0  0  0  0  0  0  0  0  0  0  0
   11.3716  -16.2730   22.1165 C   0  0  2  0  0  0  0  0  0  0  0  0
    9.9331  -16.1282   22.1441 N   0  0  0  0  0  0  0  0  0  0  0  0
   11.7808  -17.6562   22.5106 C   0  0  0  0  0  0  0  0  0  0  0  0
   12.9549  -18.0582   22.4458 O   0  0  0  0  0  0  0  0  0  0  0  0
   10.8033  -18.5246   22.9679 O   0  0  0  0  0  0  0  0  0  0  0  0
  2  1  1  0
  2  3  2  0
  4  3  1  0
  5  4  2  0
  6  5  1  0
  7  6  1  0
  7  8  1  1
  9  7  1  0
  9 10  2  0
 11 12  2  0
 11  5  1  0
 12  2  1  0
 14 13  1  6
 14 15  1  0
 15  9  1  0
 16 14  1  0
 16 20  1  0
 17 16  2  0
 19 18  1  1
 19 20  1  0
 19 21  1  0
 21 22  2  0
 21 23  1  0
M  END
$$$$
