YAA.pdb
     RDKit          3D

 23 23  0  0  1  0  0  0  0  0999 V2000
   -3.9530  -17.9543   19.2446 O   0  0  0  0  0  0  0  0  0  0  0  0
   -3.1975  -18.4294   20.3127 C   0  0  0  0  0  0  0  0  0  0  0  0
   -2.0352  -19.1356   20.1439 C   0  0  0  0  0  0  0  0  0  0  0  0
   -1.3251  -19.5831   21.2294 C   0  0  0  0  0  0  0  0  0  0  0  0
   -1.7420  -19.3467   22.5327 C   0  0  0  0  0  0  0  0  0  0  0  0
   -0.9357  -19.8535   23.6705 C   0  0  0  0  0  0  0  0  0  0  0  0
    0.0693  -20.8469   23.0720 C   0  0  2  0  0  0  0  0  0  0  0  0
   -0.6855  -21.7901   22.2988 N   0  0  0  0  0  0  0  0  0  0  0  0
    0.8618  -21.5116   24.1110 C   0  0  0  0  0  0  0  0  0  0  0  0
    1.5406  -20.8086   24.9026 O   0  0  0  0  0  0  0  0  0  0  0  0
   -2.9120  -18.6356   22.6882 C   0  0  0  0  0  0  0  0  0  0  0  0
   -3.6495  -18.1713   21.6073 C   0  0  0  0  0  0  0  0  0  0  0  0
    1.0103  -24.8945   25.6349 C   0  0  0  0  0  0  0  0  0  0  0  0
    1.7008  -23.5765   25.2826 C   0  0  2  0  0  0  0  0  0  0  0  0
    0.9048  -22.9088   24.2728 N   0  0  0  0  0  0  0  0  0  0  0  0
    3.0530  -23.9186   24.7904 C   0  0  0  0  0  0  0  0  0  0  0  0
    3.8719  -24.4217   25.5800 O   0  0  0  0  0  0  0  0  0  0  0  0
    4.5543  -24.4762   21.4385 C   0  0  0  0  0  0  0  0  0  0  0  0
    4.6725  -24.0543   22.8680 C   0  0  2  0  0  0  0  0  0  0  0  0
    3.4074  -23.6818   23.4609 N   0  0  0  0  0  0  0  0  0  0  0  0
    5.6744  -22.9523   23.0012 C   0  0  0  0  0  0  0  0  0  0  0  0
    5.3538  -21.7652   23.1808 O   0  0  0  0  0  0  0  0  0  0  0  0
    7.0192  -23.2746   22.9202 O   0  0  0  0  0  0  0  0  0  0  0  0
  2  1  1  0
  2  3  2  0
  4  3  1  0
  5  4  2  0
  6  5  1  0
  7  6  1  0
  7  8  1  1
  9  7  1  0
  9 10  2  0
 11 12  2  0
 11  5  1  0
 12  2  1  0
 14 13  1  6
 14 15  1  0
 15  9  1  0
 16 14  1  0
 16 20  1  0
 17 16  2  0
 19 18  1  6
 19 20  1  0
 19 21  1  0
 21 22  2  0
 21 23  1  0
M  END
$$$$
