YAA.pdb
     RDKit          3D

 23 23  0  0  1  0  0  0  0  0999 V2000
    6.7168  -10.9563   26.6842 O   0  0  0  0  0  0  0  0  0  0  0  0
    6.8935  -12.3250   26.5030 C   0  0  0  0  0  0  0  0  0  0  0  0
    8.1283  -12.9195   26.4950 C   0  0  0  0  0  0  0  0  0  0  0  0
    8.2510  -14.2740   26.3125 C   0  0  0  0  0  0  0  0  0  0  0  0
    7.1476  -15.0971   26.1296 C   0  0  0  0  0  0  0  0  0  0  0  0
    7.3372  -16.5559   25.9366 C   0  0  0  0  0  0  0  0  0  0  0  0
    6.4314  -16.9521   24.7629 C   0  0  2  0  0  0  0  0  0  0  0  0
    6.0028  -18.2997   25.0024 N   0  0  0  0  0  0  0  0  0  0  0  0
    7.1221  -16.8259   23.4758 C   0  0  0  0  0  0  0  0  0  0  0  0
    7.7730  -17.8075   23.0349 O   0  0  0  0  0  0  0  0  0  0  0  0
    5.9123  -14.4865   26.1398 C   0  0  0  0  0  0  0  0  0  0  0  0
    5.7601  -13.1186   26.3224 C   0  0  0  0  0  0  0  0  0  0  0  0
    7.3462  -14.1783   20.8085 C   0  0  0  0  0  0  0  0  0  0  0  0
    7.7230  -15.5384   21.3971 C   0  0  2  0  0  0  0  0  0  0  0  0
    7.0963  -15.6534   22.6982 N   0  0  0  0  0  0  0  0  0  0  0  0
    9.1991  -15.5742   21.4839 C   0  0  0  0  0  0  0  0  0  0  0  0
    9.8652  -15.5391   20.4341 O   0  0  0  0  0  0  0  0  0  0  0  0
   11.7441  -15.2644   24.2253 C   0  0  0  0  0  0  0  0  0  0  0  0
   11.2653  -15.7819   22.9069 C   0  0  2  0  0  0  0  0  0  0  0  0
    9.8374  -15.6463   22.7236 N   0  0  0  0  0  0  0  0  0  0  0  0
   11.6995  -17.2004   22.7190 C   0  0  0  0  0  0  0  0  0  0  0  0
   10.9013  -18.1299   22.5110 O   0  0  0  0  0  0  0  0  0  0  0  0
   13.0536  -17.4859   22.7805 O   0  0  0  0  0  0  0  0  0  0  0  0
  2  1  1  0
  2  3  2  0
  4  3  1  0
  5  4  2  0
  6  5  1  0
  7  6  1  0
  7  8  1  1
  9  7  1  0
  9 10  2  0
 11 12  2  0
 11  5  1  0
 12  2  1  0
 14 13  1  1
 14 15  1  0
 15  9  1  0
 16 14  1  0
 16 20  1  0
 17 16  2  0
 19 18  1  1
 19 20  1  0
 19 21  1  0
 21 22  2  0
 21 23  1  0
M  END
$$$$
