YAA.pdb
     RDKit          3D

 23 23  0  0  1  0  0  0  0  0999 V2000
    5.6467  -10.1991   27.6819 O   0  0  0  0  0  0  0  0  0  0  0  0
    6.3043  -11.3093   27.1601 C   0  0  0  0  0  0  0  0  0  0  0  0
    6.8886  -12.2650   27.9495 C   0  0  0  0  0  0  0  0  0  0  0  0
    7.5259  -13.3424   27.3873 C   0  0  0  0  0  0  0  0  0  0  0  0
    7.6094  -13.5154   26.0121 C   0  0  0  0  0  0  0  0  0  0  0  0
    8.3107  -14.6993   25.4569 C   0  0  0  0  0  0  0  0  0  0  0  0
    7.2579  -15.4858   24.6644 C   0  0  2  0  0  0  0  0  0  0  0  0
    6.6236  -16.3819   25.5873 N   0  0  0  0  0  0  0  0  0  0  0  0
    7.8535  -16.2064   23.5350 C   0  0  0  0  0  0  0  0  0  0  0  0
    8.3187  -17.3593   23.7251 O   0  0  0  0  0  0  0  0  0  0  0  0
    7.0177  -12.5473   25.2301 C   0  0  0  0  0  0  0  0  0  0  0  0
    6.3668  -11.4477   25.7730 C   0  0  0  0  0  0  0  0  0  0  0  0
    8.4990  -15.4356   19.9044 C   0  0  0  0  0  0  0  0  0  0  0  0
    8.5683  -16.3538   21.1251 C   0  0  2  0  0  0  0  0  0  0  0  0
    7.9341  -15.6727   22.2355 N   0  0  0  0  0  0  0  0  0  0  0  0
   10.0005  -16.6215   21.3799 C   0  0  0  0  0  0  0  0  0  0  0  0
   10.7126  -15.7082   21.8336 O   0  0  0  0  0  0  0  0  0  0  0  0
   12.1280  -19.7447   21.3538 C   0  0  0  0  0  0  0  0  0  0  0  0
   11.9035  -18.2686   21.4313 C   0  0  2  0  0  0  0  0  0  0  0  0
   10.5472  -17.8789   21.1161 N   0  0  0  0  0  0  0  0  0  0  0  0
   12.8856  -17.5494   20.5628 C   0  0  0  0  0  0  0  0  0  0  0  0
   14.0667  -17.3539   20.8961 O   0  0  0  0  0  0  0  0  0  0  0  0
   12.4544  -17.0820   19.3321 O   0  0  0  0  0  0  0  0  0  0  0  0
  2  1  1  0
  2  3  2  0
  4  3  1  0
  5  4  2  0
  6  5  1  0
  7  6  1  0
  7  8  1  1
  9  7  1  0
  9 10  2  0
 11 12  2  0
 11  5  1  0
 12  2  1  0
 14 13  1  6
 14 15  1  0
 15  9  1  0
 16 14  1  0
 16 20  1  0
 17 16  2  0
 19 18  1  6
 19 20  1  0
 19 21  1  0
 21 22  2  0
 21 23  1  0
M  END
$$$$
