YAA.pdb
     RDKit          3D

 23 23  0  0  1  0  0  0  0  0999 V2000
    5.7369  -10.5799   27.8942 O   0  0  0  0  0  0  0  0  0  0  0  0
    6.3459  -11.6607   27.2632 C   0  0  0  0  0  0  0  0  0  0  0  0
    7.2619  -12.4657   27.8885 C   0  0  0  0  0  0  0  0  0  0  0  0
    7.8353  -13.5202   27.2234 C   0  0  0  0  0  0  0  0  0  0  0  0
    7.5209  -13.8197   25.9044 C   0  0  0  0  0  0  0  0  0  0  0  0
    8.1708  -14.9721   25.2328 C   0  0  0  0  0  0  0  0  0  0  0  0
    7.0343  -15.8208   24.6470 C   0  0  2  0  0  0  0  0  0  0  0  0
    6.7365  -16.8417   25.6094 N   0  0  0  0  0  0  0  0  0  0  0  0
    7.3973  -16.3934   23.3471 C   0  0  0  0  0  0  0  0  0  0  0  0
    7.8232  -17.5759   23.2999 O   0  0  0  0  0  0  0  0  0  0  0  0
    6.5986  -13.0025   25.2877 C   0  0  0  0  0  0  0  0  0  0  0  0
    6.0037  -11.9293   25.9374 C   0  0  0  0  0  0  0  0  0  0  0  0
    7.2770  -15.2188   19.7712 C   0  0  0  0  0  0  0  0  0  0  0  0
    7.6415  -16.2441   20.8455 C   0  0  2  0  0  0  0  0  0  0  0  0
    7.2941  -15.6845   22.1359 N   0  0  0  0  0  0  0  0  0  0  0  0
    9.0931  -16.4987   20.7206 C   0  0  0  0  0  0  0  0  0  0  0  0
    9.5287  -16.9985   19.6682 O   0  0  0  0  0  0  0  0  0  0  0  0
   12.2279  -15.3465   22.2209 C   0  0  0  0  0  0  0  0  0  0  0  0
   11.3755  -16.4940   21.7825 C   0  0  2  0  0  0  0  0  0  0  0  0
    9.9633  -16.1839   21.7662 N   0  0  0  0  0  0  0  0  0  0  0  0
   11.6526  -17.6967   22.6268 C   0  0  0  0  0  0  0  0  0  0  0  0
   12.7814  -18.2068   22.7270 O   0  0  0  0  0  0  0  0  0  0  0  0
   10.6004  -18.2639   23.3266 O   0  0  0  0  0  0  0  0  0  0  0  0
  2  1  1  0
  2  3  2  0
  4  3  1  0
  5  4  2  0
  6  5  1  0
  7  6  1  0
  7  8  1  1
  9  7  1  0
  9 10  2  0
 11 12  2  0
 11  5  1  0
 12  2  1  0
 14 13  1  6
 14 15  1  0
 15  9  1  0
 16 14  1  0
 16 20  1  0
 17 16  2  0
 19 18  1  1
 19 20  1  0
 19 21  1  0
 21 22  2  0
 21 23  1  0
M  END
$$$$
