YAA.pdb
     RDKit          3D

 23 23  0  0  1  0  0  0  0  0999 V2000
    8.9213  -12.7581   17.3045 O   0  0  0  0  0  0  0  0  0  0  0  0
    8.4802  -13.1233   18.5731 C   0  0  0  0  0  0  0  0  0  0  0  0
    9.3256  -13.5809   19.5500 C   0  0  0  0  0  0  0  0  0  0  0  0
    8.8424  -13.9288   20.7862 C   0  0  0  0  0  0  0  0  0  0  0  0
    7.4938  -13.8362   21.1044 C   0  0  0  0  0  0  0  0  0  0  0  0
    7.0248  -14.2259   22.4571 C   0  0  0  0  0  0  0  0  0  0  0  0
    7.0476  -15.7599   22.4909 C   0  0  2  0  0  0  0  0  0  0  0  0
    5.9220  -16.2114   21.7251 N   0  0  0  0  0  0  0  0  0  0  0  0
    7.0083  -16.2745   23.8633 C   0  0  0  0  0  0  0  0  0  0  0  0
    5.9946  -16.0446   24.5713 O   0  0  0  0  0  0  0  0  0  0  0  0
    6.6550  -13.3749   20.1134 C   0  0  0  0  0  0  0  0  0  0  0  0
    7.1177  -13.0161   18.8544 C   0  0  0  0  0  0  0  0  0  0  0  0
    8.4955  -18.8112   25.9889 C   0  0  0  0  0  0  0  0  0  0  0  0
    8.1373  -17.3311   25.8504 C   0  0  2  0  0  0  0  0  0  0  0  0
    8.0544  -17.0198   24.4379 N   0  0  0  0  0  0  0  0  0  0  0  0
    9.2062  -16.5658   26.5283 C   0  0  0  0  0  0  0  0  0  0  0  0
   10.3305  -16.5039   25.9999 O   0  0  0  0  0  0  0  0  0  0  0  0
    9.2491  -14.0478   29.3046 C   0  0  0  0  0  0  0  0  0  0  0  0
    9.9031  -15.0647   28.4251 C   0  0  2  0  0  0  0  0  0  0  0  0
    8.9598  -15.9220   27.7425 N   0  0  0  0  0  0  0  0  0  0  0  0
   10.8909  -15.8683   29.2090 C   0  0  0  0  0  0  0  0  0  0  0  0
   10.7631  -17.0881   29.4093 O   0  0  0  0  0  0  0  0  0  0  0  0
   11.9965  -15.2191   29.7335 O   0  0  0  0  0  0  0  0  0  0  0  0
  2  1  1  0
  2  3  2  0
  4  3  1  0
  5  4  2  0
  6  5  1  0
  7  6  1  0
  7  8  1  6
  9  7  1  0
  9 10  2  0
 11 12  2  0
 11  5  1  0
 12  2  1  0
 14 13  1  6
 14 15  1  0
 15  9  1  0
 16 14  1  0
 16 20  1  0
 17 16  2  0
 19 18  1  1
 19 20  1  0
 19 21  1  0
 21 22  2  0
 21 23  1  0
M  END
$$$$
