YAA.pdb
     RDKit          3D

 23 23  0  0  1  0  0  0  0  0999 V2000
  -10.3887  -22.7535   29.4791 O   0  0  0  0  0  0  0  0  0  0  0  0
   -9.2586  -22.6072   28.6799 C   0  0  0  0  0  0  0  0  0  0  0  0
   -9.0759  -21.5393   27.8406 C   0  0  0  0  0  0  0  0  0  0  0  0
   -7.9436  -21.4399   27.0718 C   0  0  0  0  0  0  0  0  0  0  0  0
   -6.9420  -22.4011   27.1053 C   0  0  0  0  0  0  0  0  0  0  0  0
   -5.7378  -22.2441   26.2528 C   0  0  0  0  0  0  0  0  0  0  0  0
   -6.2522  -21.9287   24.8418 C   0  0  2  0  0  0  0  0  0  0  0  0
   -7.0988  -23.0190   24.4524 N   0  0  0  0  0  0  0  0  0  0  0  0
   -5.1519  -21.7338   23.8926 C   0  0  0  0  0  0  0  0  0  0  0  0
   -4.8120  -22.6897   23.1493 O   0  0  0  0  0  0  0  0  0  0  0  0
   -7.1383  -23.4693   27.9532 C   0  0  0  0  0  0  0  0  0  0  0  0
   -8.2744  -23.5943   28.7416 C   0  0  0  0  0  0  0  0  0  0  0  0
   -2.9815  -18.8387   22.8574 C   0  0  0  0  0  0  0  0  0  0  0  0
   -3.3545  -20.3215   22.8367 C   0  0  2  0  0  0  0  0  0  0  0  0
   -4.4475  -20.5222   23.7663 N   0  0  0  0  0  0  0  0  0  0  0  0
   -2.1433  -21.0741   23.2294 C   0  0  0  0  0  0  0  0  0  0  0  0
   -1.1669  -21.0884   22.4589 O   0  0  0  0  0  0  0  0  0  0  0  0
   -0.7239  -22.3291   26.4034 C   0  0  0  0  0  0  0  0  0  0  0  0
   -0.9438  -22.4869   24.9330 C   0  0  2  0  0  0  0  0  0  0  0  0
   -2.0939  -21.7587   24.4452 N   0  0  0  0  0  0  0  0  0  0  0  0
   -1.0333  -23.9361   24.5756 C   0  0  0  0  0  0  0  0  0  0  0  0
   -2.0864  -24.5901   24.6628 O   0  0  0  0  0  0  0  0  0  0  0  0
    0.1120  -24.5736   24.1277 O   0  0  0  0  0  0  0  0  0  0  0  0
  2  1  1  0
  2  3  2  0
  4  3  1  0
  5  4  2  0
  6  5  1  0
  7  6  1  0
  7  8  1  6
  9  7  1  0
  9 10  2  0
 11 12  2  0
 11  5  1  0
 12  2  1  0
 14 13  1  1
 14 15  1  0
 15  9  1  0
 16 14  1  0
 16 20  1  0
 17 16  2  0
 19 18  1  1
 19 20  1  0
 19 21  1  0
 21 22  2  0
 21 23  1  0
M  END
$$$$
