YAA.pdb
     RDKit          3D

 23 23  0  0  1  0  0  0  0  0999 V2000
    6.3262  -11.0228   27.3592 O   0  0  0  0  0  0  0  0  0  0  0  0
    6.5661  -12.3209   26.9181 C   0  0  0  0  0  0  0  0  0  0  0  0
    5.6790  -13.3472   27.1130 C   0  0  0  0  0  0  0  0  0  0  0  0
    5.9610  -14.6110   26.6590 C   0  0  0  0  0  0  0  0  0  0  0  0
    7.1409  -14.9087   25.9900 C   0  0  0  0  0  0  0  0  0  0  0  0
    7.3956  -16.2929   25.5203 C   0  0  0  0  0  0  0  0  0  0  0  0
    6.4338  -16.5292   24.3481 C   0  0  2  0  0  0  0  0  0  0  0  0
    5.8574  -17.8290   24.5361 N   0  0  0  0  0  0  0  0  0  0  0  0
    7.1161  -16.4231   23.0547 C   0  0  0  0  0  0  0  0  0  0  0  0
    7.6231  -17.4559   22.5469 O   0  0  0  0  0  0  0  0  0  0  0  0
    8.0240  -13.8680   25.8008 C   0  0  0  0  0  0  0  0  0  0  0  0
    7.7633  -12.5802   26.2499 C   0  0  0  0  0  0  0  0  0  0  0  0
    7.7336  -13.6568   20.5726 C   0  0  0  0  0  0  0  0  0  0  0  0
    7.7896  -15.1219   21.0069 C   0  0  2  0  0  0  0  0  0  0  0  0
    7.2359  -15.2154   22.3425 N   0  0  0  0  0  0  0  0  0  0  0  0
    9.2110  -15.5285   20.9628 C   0  0  0  0  0  0  0  0  0  0  0  0
    9.7913  -15.5714   19.8635 O   0  0  0  0  0  0  0  0  0  0  0  0
   12.0541  -15.6160   23.2786 C   0  0  0  0  0  0  0  0  0  0  0  0
   11.2744  -16.2833   22.1914 C   0  0  2  0  0  0  0  0  0  0  0  0
    9.8931  -15.8595   22.1353 N   0  0  0  0  0  0  0  0  0  0  0  0
   11.3763  -17.7698   22.3190 C   0  0  0  0  0  0  0  0  0  0  0  0
   10.3900  -18.5011   22.5104 O   0  0  0  0  0  0  0  0  0  0  0  0
   12.6289  -18.3528   22.2186 O   0  0  0  0  0  0  0  0  0  0  0  0
  2  1  1  0
  2  3  2  0
  4  3  1  0
  5  4  2  0
  6  5  1  0
  7  6  1  0
  7  8  1  1
  9  7  1  0
  9 10  2  0
 11 12  2  0
 11  5  1  0
 12  2  1  0
 14 13  1  1
 14 15  1  0
 15  9  1  0
 16 14  1  0
 16 20  1  0
 17 16  2  0
 19 18  1  1
 19 20  1  0
 19 21  1  0
 21 22  2  0
 21 23  1  0
M  END
$$$$
