YAA.pdb
     RDKit          3D

 23 23  0  0  1  0  0  0  0  0999 V2000
    6.3936  -10.7917   27.1846 O   0  0  0  0  0  0  0  0  0  0  0  0
    6.7571  -12.1024   26.8893 C   0  0  0  0  0  0  0  0  0  0  0  0
    8.0623  -12.5165   26.8344 C   0  0  0  0  0  0  0  0  0  0  0  0
    8.3703  -13.8206   26.5388 C   0  0  0  0  0  0  0  0  0  0  0  0
    7.3903  -14.7711   26.2845 C   0  0  0  0  0  0  0  0  0  0  0  0
    7.7790  -16.1680   25.9698 C   0  0  0  0  0  0  0  0  0  0  0  0
    6.7436  -16.6816   24.9603 C   0  0  2  0  0  0  0  0  0  0  0  0
    6.3511  -17.9912   25.3940 N   0  0  0  0  0  0  0  0  0  0  0  0
    7.2785  -16.7026   23.5953 C   0  0  0  0  0  0  0  0  0  0  0  0
    7.7709  -17.7710   23.1504 O   0  0  0  0  0  0  0  0  0  0  0  0
    6.0824  -14.3414   26.3429 C   0  0  0  0  0  0  0  0  0  0  0  0
    5.7433  -13.0281   26.6397 C   0  0  0  0  0  0  0  0  0  0  0  0
    7.4348  -14.2554   20.7397 C   0  0  0  0  0  0  0  0  0  0  0  0
    7.7796  -15.5957   21.3899 C   0  0  2  0  0  0  0  0  0  0  0  0
    7.2710  -15.5804   22.7464 N   0  0  0  0  0  0  0  0  0  0  0  0
    9.2523  -15.7266   21.3481 C   0  0  0  0  0  0  0  0  0  0  0  0
    9.8198  -15.7944   20.2433 O   0  0  0  0  0  0  0  0  0  0  0  0
   12.0566  -15.4316   23.8228 C   0  0  0  0  0  0  0  0  0  0  0  0
   11.4232  -15.9989   22.5931 C   0  0  2  0  0  0  0  0  0  0  0  0
    9.9964  -15.7735   22.5286 N   0  0  0  0  0  0  0  0  0  0  0  0
   11.7442  -17.4542   22.4698 C   0  0  0  0  0  0  0  0  0  0  0  0
   12.9077  -17.8885   22.4265 O   0  0  0  0  0  0  0  0  0  0  0  0
   10.6937  -18.3545   22.4012 O   0  0  0  0  0  0  0  0  0  0  0  0
  2  1  1  0
  2  3  2  0
  4  3  1  0
  5  4  2  0
  6  5  1  0
  7  6  1  0
  7  8  1  1
  9  7  1  0
  9 10  2  0
 11 12  2  0
 11  5  1  0
 12  2  1  0
 14 13  1  1
 14 15  1  0
 15  9  1  0
 16 14  1  0
 16 20  1  0
 17 16  2  0
 19 18  1  1
 19 20  1  0
 19 21  1  0
 21 22  2  0
 21 23  1  0
M  END
$$$$
