YAA.pdb
     RDKit          3D

 23 23  0  0  1  0  0  0  0  0999 V2000
    7.3081  -11.2606   26.5594 O   0  0  0  0  0  0  0  0  0  0  0  0
    7.1578  -12.4822   25.9095 C   0  0  0  0  0  0  0  0  0  0  0  0
    7.6991  -12.7390   24.6769 C   0  0  0  0  0  0  0  0  0  0  0  0
    7.5230  -13.9603   24.0766 C   0  0  0  0  0  0  0  0  0  0  0  0
    6.7990  -14.9811   24.6785 C   0  0  0  0  0  0  0  0  0  0  0  0
    6.6395  -16.2829   23.9847 C   0  0  0  0  0  0  0  0  0  0  0  0
    7.7737  -16.3587   22.9539 C   0  0  2  0  0  0  0  0  0  0  0  0
    7.3394  -17.2525   21.9197 N   0  0  0  0  0  0  0  0  0  0  0  0
    9.0314  -16.8056   23.5607 C   0  0  0  0  0  0  0  0  0  0  0  0
    9.0754  -17.9370   24.1081 O   0  0  0  0  0  0  0  0  0  0  0  0
    6.2603  -14.7096   25.9174 C   0  0  0  0  0  0  0  0  0  0  0  0
    6.4234  -13.4829   26.5469 C   0  0  0  0  0  0  0  0  0  0  0  0
   12.5908  -15.7653   23.3468 C   0  0  0  0  0  0  0  0  0  0  0  0
   11.4716  -16.4901   24.0952 C   0  0  2  0  0  0  0  0  0  0  0  0
   10.2050  -16.0292   23.5642 N   0  0  0  0  0  0  0  0  0  0  0  0
   11.6292  -16.1589   25.5281 C   0  0  0  0  0  0  0  0  0  0  0  0
   12.6401  -16.5604   26.1314 O   0  0  0  0  0  0  0  0  0  0  0  0
    9.8747  -13.7983   27.8779 C   0  0  0  0  0  0  0  0  0  0  0  0
   10.7687  -14.9550   27.5646 C   0  0  2  0  0  0  0  0  0  0  0  0
   10.6599  -15.4075   26.1955 N   0  0  0  0  0  0  0  0  0  0  0  0
   10.5202  -16.0756   28.5230 C   0  0  0  0  0  0  0  0  0  0  0  0
   10.0844  -17.1841   28.1687 O   0  0  0  0  0  0  0  0  0  0  0  0
   10.7896  -15.8633   29.8650 O   0  0  0  0  0  0  0  0  0  0  0  0
  2  1  1  0
  2  3  2  0
  4  3  1  0
  5  4  2  0
  6  5  1  0
  7  6  1  0
  7  8  1  6
  9  7  1  0
  9 10  2  0
 11 12  2  0
 11  5  1  0
 12  2  1  0
 14 13  1  6
 14 15  1  0
 15  9  1  0
 16 14  1  0
 16 20  1  0
 17 16  2  0
 19 18  1  1
 19 20  1  0
 19 21  1  0
 21 22  2  0
 21 23  1  0
M  END
$$$$
