YAA.pdb
     RDKit          3D

 23 23  0  0  1  0  0  0  0  0999 V2000
    6.1926  -10.3404   27.1242 O   0  0  0  0  0  0  0  0  0  0  0  0
    6.5894  -11.6192   26.7440 C   0  0  0  0  0  0  0  0  0  0  0  0
    7.4644  -11.8499   25.7148 C   0  0  0  0  0  0  0  0  0  0  0  0
    7.8254  -13.1301   25.3775 C   0  0  0  0  0  0  0  0  0  0  0  0
    7.3300  -14.2385   26.0516 C   0  0  0  0  0  0  0  0  0  0  0  0
    7.7536  -15.6012   25.6454 C   0  0  0  0  0  0  0  0  0  0  0  0
    6.6776  -16.1117   24.6777 C   0  0  2  0  0  0  0  0  0  0  0  0
    6.0471  -17.2348   25.3087 N   0  0  0  0  0  0  0  0  0  0  0  0
    7.2447  -16.4726   23.3747 C   0  0  0  0  0  0  0  0  0  0  0  0
    7.5295  -17.6761   23.1465 O   0  0  0  0  0  0  0  0  0  0  0  0
    6.4513  -13.9925   27.0841 C   0  0  0  0  0  0  0  0  0  0  0  0
    6.0695  -12.7075   27.4458 C   0  0  0  0  0  0  0  0  0  0  0  0
    7.8601  -14.6758   20.1330 C   0  0  0  0  0  0  0  0  0  0  0  0
    8.0242  -15.8856   21.0535 C   0  0  2  0  0  0  0  0  0  0  0  0
    7.4905  -15.5355   22.3541 N   0  0  0  0  0  0  0  0  0  0  0  0
    9.4705  -16.1903   21.1078 C   0  0  0  0  0  0  0  0  0  0  0  0
   10.0514  -16.5425   20.0659 O   0  0  0  0  0  0  0  0  0  0  0  0
   12.2633  -15.3193   23.3525 C   0  0  0  0  0  0  0  0  0  0  0  0
   11.5970  -16.3075   22.4499 C   0  0  2  0  0  0  0  0  0  0  0  0
   10.1753  -16.0851   22.3086 N   0  0  0  0  0  0  0  0  0  0  0  0
   11.8804  -17.7018   22.9101 C   0  0  0  0  0  0  0  0  0  0  0  0
   13.0321  -18.1508   23.0376 O   0  0  0  0  0  0  0  0  0  0  0  0
   10.8072  -18.5261   23.2063 O   0  0  0  0  0  0  0  0  0  0  0  0
  2  1  1  0
  2  3  2  0
  4  3  1  0
  5  4  2  0
  6  5  1  0
  7  6  1  0
  7  8  1  1
  9  7  1  0
  9 10  2  0
 11 12  2  0
 11  5  1  0
 12  2  1  0
 14 13  1  6
 14 15  1  0
 15  9  1  0
 16 14  1  0
 16 20  1  0
 17 16  2  0
 19 18  1  1
 19 20  1  0
 19 21  1  0
 21 22  2  0
 21 23  1  0
M  END
$$$$
