YAA.pdb
     RDKit          3D

 23 23  0  0  1  0  0  0  0  0999 V2000
    5.3860  -10.4550   26.8695 O   0  0  0  0  0  0  0  0  0  0  0  0
    6.1137  -11.5809   26.4951 C   0  0  0  0  0  0  0  0  0  0  0  0
    7.0459  -11.5623   25.4907 C   0  0  0  0  0  0  0  0  0  0  0  0
    7.7382  -12.6994   25.1581 C   0  0  0  0  0  0  0  0  0  0  0  0
    7.5322  -13.9069   25.8122 C   0  0  0  0  0  0  0  0  0  0  0  0
    8.3084  -15.1064   25.4122 C   0  0  0  0  0  0  0  0  0  0  0  0
    7.5487  -15.7331   24.2352 C   0  0  2  0  0  0  0  0  0  0  0  0
    6.4838  -16.5146   24.7940 N   0  0  0  0  0  0  0  0  0  0  0  0
    8.4292  -16.5459   23.3904 C   0  0  0  0  0  0  0  0  0  0  0  0
    8.4239  -17.7958   23.5303 O   0  0  0  0  0  0  0  0  0  0  0  0
    6.5923  -13.9117   26.8198 C   0  0  0  0  0  0  0  0  0  0  0  0
    5.8780  -12.7757   27.1763 C   0  0  0  0  0  0  0  0  0  0  0  0
   10.4687  -15.9223   20.3202 C   0  0  0  0  0  0  0  0  0  0  0  0
   10.0940  -16.7958   21.5180 C   0  0  2  0  0  0  0  0  0  0  0  0
    9.2893  -15.9980   22.4208 N   0  0  0  0  0  0  0  0  0  0  0  0
   11.3612  -17.2356   22.1413 C   0  0  0  0  0  0  0  0  0  0  0  0
   12.1438  -17.9418   21.4812 O   0  0  0  0  0  0  0  0  0  0  0  0
   12.9448  -18.6517   24.5623 C   0  0  0  0  0  0  0  0  0  0  0  0
   12.9006  -17.2202   24.1331 C   0  0  2  0  0  0  0  0  0  0  0  0
   11.6765  -16.8654   23.4502 N   0  0  0  0  0  0  0  0  0  0  0  0
   14.0970  -16.8931   23.2977 C   0  0  0  0  0  0  0  0  0  0  0  0
   15.2613  -16.9685   23.7255 O   0  0  0  0  0  0  0  0  0  0  0  0
   13.8927  -16.4885   21.9888 O   0  0  0  0  0  0  0  0  0  0  0  0
  2  1  1  0
  2  3  2  0
  4  3  1  0
  5  4  2  0
  6  5  1  0
  7  6  1  0
  7  8  1  1
  9  7  1  0
  9 10  2  0
 11 12  2  0
 11  5  1  0
 12  2  1  0
 14 13  1  6
 14 15  1  0
 15  9  1  0
 16 14  1  0
 16 20  1  0
 17 16  2  0
 19 18  1  6
 19 20  1  0
 19 21  1  0
 21 22  2  0
 21 23  1  0
M  END
$$$$
