MFA.pdb
     RDKit          3D

 25 25  0  0  1  0  0  0  0  0999 V2000
    8.2346  -11.3467   26.6543 C   0  0  0  0  0  0  0  0  0  0  0  0
    6.5433  -11.8187   26.3766 S   0  0  0  0  0  0  0  0  0  0  0  0
    6.1696  -13.5448   26.3902 C   0  0  0  0  0  0  0  0  0  0  0  0
    6.4804  -14.3658   25.1891 C   0  0  0  0  0  0  0  0  0  0  0  0
    7.2457  -15.6137   25.4191 C   0  0  2  0  0  0  0  0  0  0  0  0
    8.4443  -15.4023   26.1747 N   0  0  0  0  0  0  0  0  0  0  0  0
    7.6604  -16.2334   24.1099 C   0  0  0  0  0  0  0  0  0  0  0  0
    6.8053  -16.6886   23.3458 O   0  0  0  0  0  0  0  0  0  0  0  0
    9.0038  -16.3070   23.7331 N   0  0  0  0  0  0  0  0  0  0  0  0
    9.5325  -16.8413   22.5277 C   0  0  1  0  0  0  0  0  0  0  0  0
    9.9712  -15.8655   21.5041 C   0  0  0  0  0  0  0  0  0  0  0  0
    9.0110  -14.7699   21.2425 C   0  0  0  0  0  0  0  0  0  0  0  0
    7.8595  -14.9890   20.5266 C   0  0  0  0  0  0  0  0  0  0  0  0
    6.9398  -13.9931   20.2670 C   0  0  0  0  0  0  0  0  0  0  0  0
    7.1804  -12.7257   20.7423 C   0  0  0  0  0  0  0  0  0  0  0  0
    8.3226  -12.4631   21.4648 C   0  0  0  0  0  0  0  0  0  0  0  0
    9.2310  -13.4947   21.7084 C   0  0  0  0  0  0  0  0  0  0  0  0
   10.6958  -17.7160   22.8873 C   0  0  0  0  0  0  0  0  0  0  0  0
   11.3523  -18.3148   21.9949 O   0  0  0  0  0  0  0  0  0  0  0  0
   13.3115  -18.1949   25.2956 C   0  0  0  0  0  0  0  0  0  0  0  0
   12.1688  -18.8388   24.5838 C   0  0  2  0  0  0  0  0  0  0  0  0
   11.1122  -17.9118   24.2382 N   0  0  0  0  0  0  0  0  0  0  0  0
   11.6518  -19.9879   25.3754 C   0  0  0  0  0  0  0  0  0  0  0  0
   12.4626  -20.8723   25.7492 O   0  0  0  0  0  0  0  0  0  0  0  0
   10.3213  -20.1425   25.7268 O   0  0  0  0  0  0  0  0  0  0  0  0
  1  2  1  0
  2  3  1  0
  4  5  1  0
  4  3  1  0
  5  6  1  1
  7  5  1  0
  7  8  2  0
  9  7  1  0
 10  9  1  0
 11 12  1  0
 10 11  1  6
 12 17  2  0
 13 12  1  0
 13 14  2  0
 14 15  1  0
 15 16  2  0
 17 16  1  0
 18 10  1  0
 19 18  2  0
 21 22  1  0
 21 20  1  1
 22 18  1  0
 23 21  1  0
 24 23  2  0
 25 23  1  0
M  END
$$$$
