MFA.pdb
     RDKit          3D

 25 25  0  0  1  0  0  0  0  0999 V2000
    9.1449  -21.6921   21.6710 C   0  0  0  0  0  0  0  0  0  0  0  0
    8.6605  -21.2671   20.0142 S   0  0  0  0  0  0  0  0  0  0  0  0
    8.6695  -19.5553   19.5798 C   0  0  0  0  0  0  0  0  0  0  0  0
    9.1335  -18.5540   20.5775 C   0  0  0  0  0  0  0  0  0  0  0  0
    9.0882  -17.1327   20.1606 C   0  0  2  0  0  0  0  0  0  0  0  0
   10.0926  -16.8021   19.1941 N   0  0  0  0  0  0  0  0  0  0  0  0
    9.3057  -16.2237   21.3423 C   0  0  0  0  0  0  0  0  0  0  0  0
   10.4366  -15.7987   21.5924 O   0  0  0  0  0  0  0  0  0  0  0  0
    8.2479  -15.8442   22.1726 N   0  0  0  0  0  0  0  0  0  0  0  0
    8.3072  -14.9955   23.3102 C   0  0  1  0  0  0  0  0  0  0  0  0
    7.0883  -14.2149   23.6217 C   0  0  0  0  0  0  0  0  0  0  0  0
    7.1657  -13.4178   24.8665 C   0  0  0  0  0  0  0  0  0  0  0  0
    6.4212  -13.7505   25.9717 C   0  0  0  0  0  0  0  0  0  0  0  0
    6.4709  -13.0333   27.1500 C   0  0  0  0  0  0  0  0  0  0  0  0
    7.2987  -11.9383   27.2274 C   0  0  0  0  0  0  0  0  0  0  0  0
    8.0623  -11.5705   26.1424 C   0  0  0  0  0  0  0  0  0  0  0  0
    7.9868  -12.3190   24.9665 C   0  0  0  0  0  0  0  0  0  0  0  0
    8.6497  -15.8455   24.4968 C   0  0  0  0  0  0  0  0  0  0  0  0
    7.8230  -16.6785   24.9534 O   0  0  0  0  0  0  0  0  0  0  0  0
   11.8343  -17.0697   25.9387 C   0  0  0  0  0  0  0  0  0  0  0  0
   10.3737  -16.7888   26.0610 C   0  0  2  0  0  0  0  0  0  0  0  0
    9.9106  -15.7554   25.1593 N   0  0  0  0  0  0  0  0  0  0  0  0
   10.0265  -16.4780   27.4743 C   0  0  0  0  0  0  0  0  0  0  0  0
   10.3671  -17.2923   28.3688 O   0  0  0  0  0  0  0  0  0  0  0  0
    9.3453  -15.3376   27.8655 O   0  0  0  0  0  0  0  0  0  0  0  0
  1  2  1  0
  2  3  1  0
  4  5  1  0
  4  3  1  0
  5  6  1  6
  7  5  1  0
  7  8  2  0
  9  7  1  0
 10  9  1  0
 11 12  1  0
 10 11  1  1
 12 17  2  0
 13 12  1  0
 13 14  2  0
 14 15  1  0
 15 16  2  0
 17 16  1  0
 18 10  1  0
 19 18  2  0
 21 22  1  0
 21 20  1  1
 22 18  1  0
 23 21  1  0
 24 23  2  0
 25 23  1  0
M  END
$$$$
