MFA.pdb
     RDKit          3D

 25 25  0  0  1  0  0  0  0  0999 V2000
    8.9028  -21.8658   21.2291 C   0  0  0  0  0  0  0  0  0  0  0  0
    7.8356  -21.3816   19.8924 S   0  0  0  0  0  0  0  0  0  0  0  0
    7.7972  -19.6686   19.4640 C   0  0  0  0  0  0  0  0  0  0  0  0
    8.2723  -18.6613   20.4504 C   0  0  0  0  0  0  0  0  0  0  0  0
    8.1864  -17.2400   20.0401 C   0  0  2  0  0  0  0  0  0  0  0  0
    9.0375  -16.9267   18.9311 N   0  0  0  0  0  0  0  0  0  0  0  0
    8.5949  -16.3331   21.1718 C   0  0  0  0  0  0  0  0  0  0  0  0
    9.7516  -15.9085   21.2338 O   0  0  0  0  0  0  0  0  0  0  0  0
    7.6876  -15.9553   22.1649 N   0  0  0  0  0  0  0  0  0  0  0  0
    7.9375  -15.1227   23.2886 C   0  0  1  0  0  0  0  0  0  0  0  0
    6.8295  -14.2420   23.7231 C   0  0  0  0  0  0  0  0  0  0  0  0
    7.0869  -13.4963   24.9754 C   0  0  0  0  0  0  0  0  0  0  0  0
    6.1933  -13.5267   26.0180 C   0  0  0  0  0  0  0  0  0  0  0  0
    6.4019  -12.8476   27.2014 C   0  0  0  0  0  0  0  0  0  0  0  0
    7.5510  -12.1075   27.3495 C   0  0  0  0  0  0  0  0  0  0  0  0
    8.4734  -12.0504   26.3289 C   0  0  0  0  0  0  0  0  0  0  0  0
    8.2295  -12.7499   25.1456 C   0  0  0  0  0  0  0  0  0  0  0  0
    8.3260  -16.0073   24.4351 C   0  0  0  0  0  0  0  0  0  0  0  0
    7.4769  -16.7533   24.9903 O   0  0  0  0  0  0  0  0  0  0  0  0
   11.4318  -17.6126   25.6111 C   0  0  0  0  0  0  0  0  0  0  0  0
   10.0774  -17.0559   25.8985 C   0  0  2  0  0  0  0  0  0  0  0  0
    9.6572  -16.0485   24.9477 N   0  0  0  0  0  0  0  0  0  0  0  0
   10.0159  -16.5489   27.2963 C   0  0  0  0  0  0  0  0  0  0  0  0
    9.7175  -15.3428   27.4845 O   0  0  0  0  0  0  0  0  0  0  0  0
   10.2701  -17.3319   28.4098 O   0  0  0  0  0  0  0  0  0  0  0  0
  1  2  1  0
  2  3  1  0
  4  5  1  0
  4  3  1  0
  5  6  1  6
  7  5  1  0
  7  8  2  0
  9  7  1  0
 10  9  1  0
 11 12  1  0
 10 11  1  1
 12 17  2  0
 13 12  1  0
 13 14  2  0
 14 15  1  0
 15 16  2  0
 17 16  1  0
 18 10  1  0
 19 18  2  0
 21 22  1  0
 21 20  1  6
 22 18  1  0
 23 21  1  0
 24 23  2  0
 25 23  1  0
M  END
$$$$
