MFA.pdb
     RDKit          3D

 25 25  0  0  1  0  0  0  0  0999 V2000
    7.9575  -14.9528   16.9268 C   0  0  0  0  0  0  0  0  0  0  0  0
    8.3694  -13.3675   17.6176 S   0  0  0  0  0  0  0  0  0  0  0  0
    7.4834  -12.8541   19.0566 C   0  0  0  0  0  0  0  0  0  0  0  0
    8.0345  -13.1708   20.4017 C   0  0  0  0  0  0  0  0  0  0  0  0
    8.3253  -14.5970   20.6800 C   0  0  2  0  0  0  0  0  0  0  0  0
    7.1562  -15.4238   20.6367 N   0  0  0  0  0  0  0  0  0  0  0  0
    8.9232  -14.7607   22.0532 C   0  0  0  0  0  0  0  0  0  0  0  0
   10.0785  -14.3861   22.2704 O   0  0  0  0  0  0  0  0  0  0  0  0
    8.1956  -15.3324   23.1000 N   0  0  0  0  0  0  0  0  0  0  0  0
    8.5991  -15.4704   24.4551 C   0  0  1  0  0  0  0  0  0  0  0  0
    7.5358  -15.3629   25.4798 C   0  0  0  0  0  0  0  0  0  0  0  0
    7.1911  -13.9774   25.8702 C   0  0  0  0  0  0  0  0  0  0  0  0
    5.9216  -13.4836   25.6937 C   0  0  0  0  0  0  0  0  0  0  0  0
    5.5631  -12.1991   26.0496 C   0  0  0  0  0  0  0  0  0  0  0  0
    6.5120  -11.3737   26.6048 C   0  0  0  0  0  0  0  0  0  0  0  0
    7.7966  -11.8293   26.7994 C   0  0  0  0  0  0  0  0  0  0  0  0
    8.1240  -13.1344   26.4275 C   0  0  0  0  0  0  0  0  0  0  0  0
    9.2712  -16.8030   24.5981 C   0  0  0  0  0  0  0  0  0  0  0  0
    8.6659  -17.8658   24.2983 O   0  0  0  0  0  0  0  0  0  0  0  0
   12.6022  -18.2751   24.5570 C   0  0  0  0  0  0  0  0  0  0  0  0
   11.2543  -18.2238   25.1955 C   0  0  2  0  0  0  0  0  0  0  0  0
   10.6103  -16.9331   25.0739 N   0  0  0  0  0  0  0  0  0  0  0  0
   11.3411  -18.6606   26.6154 C   0  0  0  0  0  0  0  0  0  0  0  0
   11.9461  -19.7303   26.8782 O   0  0  0  0  0  0  0  0  0  0  0  0
   10.7909  -17.9544   27.6719 O   0  0  0  0  0  0  0  0  0  0  0  0
  1  2  1  0
  2  3  1  0
  4  5  1  0
  4  3  1  0
  5  6  1  1
  7  5  1  0
  7  8  2  0
  9  7  1  0
 10  9  1  0
 11 12  1  0
 10 11  1  1
 12 17  2  0
 13 12  1  0
 13 14  2  0
 14 15  1  0
 15 16  2  0
 17 16  1  0
 18 10  1  0
 19 18  2  0
 21 22  1  0
 21 20  1  1
 22 18  1  0
 23 21  1  0
 24 23  2  0
 25 23  1  0
M  END
$$$$
