MFA.pdb
     RDKit          3D

 25 25  0  0  1  0  0  0  0  0999 V2000
    8.5610  -11.2481   19.8080 C   0  0  0  0  0  0  0  0  0  0  0  0
    7.7675  -12.5643   18.9146 S   0  0  0  0  0  0  0  0  0  0  0  0
    7.7146  -14.1522   19.6859 C   0  0  0  0  0  0  0  0  0  0  0  0
    8.7277  -14.4923   20.7210 C   0  0  0  0  0  0  0  0  0  0  0  0
    8.6304  -15.8417   21.3257 C   0  0  2  0  0  0  0  0  0  0  0  0
    7.2795  -16.3027   21.4476 N   0  0  0  0  0  0  0  0  0  0  0  0
    9.2189  -15.8477   22.7126 C   0  0  0  0  0  0  0  0  0  0  0  0
   10.4007  -15.5361   22.8814 O   0  0  0  0  0  0  0  0  0  0  0  0
    8.4529  -16.2010   23.8264 N   0  0  0  0  0  0  0  0  0  0  0  0
    8.8117  -16.0722   25.1949 C   0  0  1  0  0  0  0  0  0  0  0  0
    7.7209  -15.7422   26.1401 C   0  0  0  0  0  0  0  0  0  0  0  0
    7.3694  -14.3057   26.2017 C   0  0  0  0  0  0  0  0  0  0  0  0
    8.2964  -13.3617   26.5701 C   0  0  0  0  0  0  0  0  0  0  0  0
    8.0057  -12.0139   26.6347 C   0  0  0  0  0  0  0  0  0  0  0  0
    6.7363  -11.5917   26.3178 C   0  0  0  0  0  0  0  0  0  0  0  0
    5.7769  -12.5052   25.9430 C   0  0  0  0  0  0  0  0  0  0  0  0
    6.1061  -13.8608   25.8888 C   0  0  0  0  0  0  0  0  0  0  0  0
    9.4459  -17.3611   25.6241 C   0  0  0  0  0  0  0  0  0  0  0  0
    8.7876  -18.4347   25.6248 O   0  0  0  0  0  0  0  0  0  0  0  0
   12.8850  -18.7451   26.0994 C   0  0  0  0  0  0  0  0  0  0  0  0
   11.4254  -18.6946   26.4062 C   0  0  2  0  0  0  0  0  0  0  0  0
   10.8067  -17.4361   26.0473 N   0  0  0  0  0  0  0  0  0  0  0  0
   11.1886  -19.0331   27.8358 C   0  0  0  0  0  0  0  0  0  0  0  0
   11.6488  -20.1146   28.2806 O   0  0  0  0  0  0  0  0  0  0  0  0
   10.4861  -18.2223   28.7115 O   0  0  0  0  0  0  0  0  0  0  0  0
  1  2  1  0
  2  3  1  0
  4  5  1  0
  4  3  1  0
  5  6  1  1
  7  5  1  0
  7  8  2  0
  9  7  1  0
 10  9  1  0
 11 12  1  0
 10 11  1  1
 12 17  2  0
 13 12  1  0
 13 14  2  0
 14 15  1  0
 15 16  2  0
 17 16  1  0
 18 10  1  0
 19 18  2  0
 21 22  1  0
 21 20  1  1
 22 18  1  0
 23 21  1  0
 24 23  2  0
 25 23  1  0
M  END
$$$$
