MFA.pdb
     RDKit          3D

 25 25  0  0  1  0  0  0  0  0999 V2000
    9.5456  -21.5575   21.7858 C   0  0  0  0  0  0  0  0  0  0  0  0
    9.1768  -21.1837   20.0874 S   0  0  0  0  0  0  0  0  0  0  0  0
    8.9459  -19.4852   19.6618 C   0  0  0  0  0  0  0  0  0  0  0  0
    9.2631  -18.4341   20.6657 C   0  0  0  0  0  0  0  0  0  0  0  0
    8.9628  -17.0356   20.2787 C   0  0  2  0  0  0  0  0  0  0  0  0
    9.7821  -16.5663   19.2012 N   0  0  0  0  0  0  0  0  0  0  0  0
    9.1916  -16.1010   21.4381 C   0  0  0  0  0  0  0  0  0  0  0  0
   10.3327  -15.7110   21.6987 O   0  0  0  0  0  0  0  0  0  0  0  0
    8.1332  -15.6587   22.2357 N   0  0  0  0  0  0  0  0  0  0  0  0
    8.2108  -14.8386   23.3932 C   0  0  1  0  0  0  0  0  0  0  0  0
    6.9911  -14.0808   23.7541 C   0  0  0  0  0  0  0  0  0  0  0  0
    7.1046  -13.2804   24.9940 C   0  0  0  0  0  0  0  0  0  0  0  0
    6.4545  -13.6549   26.1444 C   0  0  0  0  0  0  0  0  0  0  0  0
    6.5405  -12.9358   27.3195 C   0  0  0  0  0  0  0  0  0  0  0  0
    7.3080  -11.7955   27.3464 C   0  0  0  0  0  0  0  0  0  0  0  0
    7.9766  -11.3848   26.2151 C   0  0  0  0  0  0  0  0  0  0  0  0
    7.8667  -12.1366   25.0439 C   0  0  0  0  0  0  0  0  0  0  0  0
    8.5917  -15.7146   24.5488 C   0  0  0  0  0  0  0  0  0  0  0  0
    7.8200  -16.6257   24.9491 O   0  0  0  0  0  0  0  0  0  0  0  0
   11.7588  -16.8398   26.0689 C   0  0  0  0  0  0  0  0  0  0  0  0
   10.2992  -16.5532   26.1889 C   0  0  2  0  0  0  0  0  0  0  0  0
    9.8291  -15.5629   25.2435 N   0  0  0  0  0  0  0  0  0  0  0  0
    9.9624  -16.1770   27.5887 C   0  0  0  0  0  0  0  0  0  0  0  0
    9.4084  -15.0681   27.7952 O   0  0  0  0  0  0  0  0  0  0  0  0
   10.2253  -16.9810   28.6851 O   0  0  0  0  0  0  0  0  0  0  0  0
  1  2  1  0
  2  3  1  0
  4  5  1  0
  4  3  1  0
  5  6  1  6
  7  5  1  0
  7  8  2  0
  9  7  1  0
 10  9  1  0
 11 12  1  0
 10 11  1  1
 12 17  2  0
 13 12  1  0
 13 14  2  0
 14 15  1  0
 15 16  2  0
 17 16  1  0
 18 10  1  0
 19 18  2  0
 21 22  1  0
 21 20  1  1
 22 18  1  0
 23 21  1  0
 24 23  2  0
 25 23  1  0
M  END
$$$$
