MFA.pdb
     RDKit          3D

 25 25  0  0  1  0  0  0  0  0999 V2000
    8.6909  -11.8318   18.3040 C   0  0  0  0  0  0  0  0  0  0  0  0
    7.9247  -13.2727   17.5990 S   0  0  0  0  0  0  0  0  0  0  0  0
    7.7319  -14.6830   18.6446 C   0  0  0  0  0  0  0  0  0  0  0  0
    8.8435  -15.0722   19.5535 C   0  0  0  0  0  0  0  0  0  0  0  0
    8.5232  -16.0667   20.6043 C   0  0  2  0  0  0  0  0  0  0  0  0
    7.1865  -16.5724   20.5056 N   0  0  0  0  0  0  0  0  0  0  0  0
    8.6571  -15.4556   21.9749 C   0  0  0  0  0  0  0  0  0  0  0  0
    9.0589  -14.2953   22.0953 O   0  0  0  0  0  0  0  0  0  0  0  0
    8.3341  -16.1764   23.1275 N   0  0  0  0  0  0  0  0  0  0  0  0
    8.4234  -15.7330   24.4742 C   0  0  1  0  0  0  0  0  0  0  0  0
    7.1496  -15.3924   25.1479 C   0  0  0  0  0  0  0  0  0  0  0  0
    7.2522  -14.3127   26.1551 C   0  0  0  0  0  0  0  0  0  0  0  0
    6.5571  -13.1369   26.0109 C   0  0  0  0  0  0  0  0  0  0  0  0
    6.6251  -12.1106   26.9313 C   0  0  0  0  0  0  0  0  0  0  0  0
    7.4205  -12.2653   28.0419 C   0  0  0  0  0  0  0  0  0  0  0  0
    8.1340  -13.4285   28.2252 C   0  0  0  0  0  0  0  0  0  0  0  0
    8.0414  -14.4457   27.2736 C   0  0  0  0  0  0  0  0  0  0  0  0
    9.1124  -16.8055   25.2634 C   0  0  0  0  0  0  0  0  0  0  0  0
    8.5533  -17.9151   25.4685 O   0  0  0  0  0  0  0  0  0  0  0  0
   12.6116  -17.5886   26.3552 C   0  0  0  0  0  0  0  0  0  0  0  0
   11.1278  -17.7103   26.4584 C   0  0  2  0  0  0  0  0  0  0  0  0
   10.4168  -16.6265   25.8140 N   0  0  0  0  0  0  0  0  0  0  0  0
   10.7222  -17.8610   27.8822 C   0  0  0  0  0  0  0  0  0  0  0  0
   11.2517  -18.7746   28.5635 O   0  0  0  0  0  0  0  0  0  0  0  0
    9.7892  -17.0496   28.5056 O   0  0  0  0  0  0  0  0  0  0  0  0
  1  2  1  0
  2  3  1  0
  4  5  1  0
  4  3  1  0
  5  6  1  6
  7  5  1  0
  7  8  2  0
  9  7  1  0
 10  9  1  0
 11 12  1  0
 10 11  1  1
 12 17  2  0
 13 12  1  0
 13 14  2  0
 14 15  1  0
 15 16  2  0
 17 16  1  0
 18 10  1  0
 19 18  2  0
 21 22  1  0
 21 20  1  1
 22 18  1  0
 23 21  1  0
 24 23  2  0
 25 23  1  0
M  END
$$$$
