MFA.pdb
     RDKit          3D

 25 25  0  0  1  0  0  0  0  0999 V2000
    6.2342  -18.8499   17.0946 C   0  0  0  0  0  0  0  0  0  0  0  0
    7.2011  -18.6261   18.5695 S   0  0  0  0  0  0  0  0  0  0  0  0
    7.8247  -17.0057   18.8932 C   0  0  0  0  0  0  0  0  0  0  0  0
    8.3726  -16.6928   20.2405 C   0  0  0  0  0  0  0  0  0  0  0  0
    8.1194  -15.3278   20.7585 C   0  0  2  0  0  0  0  0  0  0  0  0
    8.7143  -14.3049   19.9509 N   0  0  0  0  0  0  0  0  0  0  0  0
    8.6855  -15.1708   22.1459 C   0  0  0  0  0  0  0  0  0  0  0  0
    9.8328  -14.7433   22.2981 O   0  0  0  0  0  0  0  0  0  0  0  0
    7.9368  -15.5004   23.2786 N   0  0  0  0  0  0  0  0  0  0  0  0
    8.3429  -15.4077   24.6368 C   0  0  1  0  0  0  0  0  0  0  0  0
    7.2720  -15.2033   25.6385 C   0  0  0  0  0  0  0  0  0  0  0  0
    6.8952  -13.7894   25.8613 C   0  0  0  0  0  0  0  0  0  0  0  0
    5.5826  -13.3876   25.8176 C   0  0  0  0  0  0  0  0  0  0  0  0
    5.1940  -12.0794   26.0245 C   0  0  0  0  0  0  0  0  0  0  0  0
    6.1567  -11.1334   26.2860 C   0  0  0  0  0  0  0  0  0  0  0  0
    7.4844  -11.4939   26.3391 C   0  0  0  0  0  0  0  0  0  0  0  0
    7.8412  -12.8264   26.1247 C   0  0  0  0  0  0  0  0  0  0  0  0
    9.0865  -16.6641   24.9779 C   0  0  0  0  0  0  0  0  0  0  0  0
    8.5278  -17.7890   24.8863 O   0  0  0  0  0  0  0  0  0  0  0  0
   12.6176  -17.7888   25.2971 C   0  0  0  0  0  0  0  0  0  0  0  0
   11.1759  -17.8722   25.6731 C   0  0  2  0  0  0  0  0  0  0  0  0
   10.4442  -16.6497   25.4170 N   0  0  0  0  0  0  0  0  0  0  0  0
   11.0384  -18.3060   27.0899 C   0  0  0  0  0  0  0  0  0  0  0  0
   11.6729  -19.3217   27.4708 O   0  0  0  0  0  0  0  0  0  0  0  0
   10.2472  -17.6532   28.0203 O   0  0  0  0  0  0  0  0  0  0  0  0
  1  2  1  0
  2  3  1  0
  4  5  1  0
  4  3  1  0
  5  6  1  6
  7  5  1  0
  7  8  2  0
  9  7  1  0
 10  9  1  0
 11 12  1  0
 10 11  1  1
 12 17  2  0
 13 12  1  0
 13 14  2  0
 14 15  1  0
 15 16  2  0
 17 16  1  0
 18 10  1  0
 19 18  2  0
 21 22  1  0
 21 20  1  1
 22 18  1  0
 23 21  1  0
 24 23  2  0
 25 23  1  0
M  END
$$$$
