WWI.pdb
     RDKit          3D

 37 40  0  0  1  0  0  0  0  0999 V2000
    8.8573  -17.0098   21.9130 N   0  0  0  0  0  0  0  0  0  0  0  0
    9.0154  -15.6209   22.3884 C   0  0  1  0  0  0  0  0  0  0  0  0
    7.7573  -14.8570   22.2085 C   0  0  0  0  0  0  0  0  0  0  0  0
    7.3152  -14.6754   20.8170 C   0  0  0  0  0  0  0  0  0  0  0  0
    6.3467  -15.3679   20.1389 C   0  0  0  0  0  0  0  0  0  0  0  0
    6.2496  -14.8382   18.9162 N   0  0  0  0  0  0  0  0  0  0  0  0
    7.1354  -13.8152   18.7836 C   0  0  0  0  0  0  0  0  0  0  0  0
    7.4167  -12.9551   17.7298 C   0  0  0  0  0  0  0  0  0  0  0  0
    8.3842  -12.0026   17.9226 C   0  0  0  0  0  0  0  0  0  0  0  0
    9.0752  -11.8741   19.1093 C   0  0  0  0  0  0  0  0  0  0  0  0
    8.7903  -12.7359   20.1596 C   0  0  0  0  0  0  0  0  0  0  0  0
    7.8201  -13.6874   19.9603 C   0  0  0  0  0  0  0  0  0  0  0  0
    9.3280  -15.7206   23.8629 C   0  0  0  0  0  0  0  0  0  0  0  0
    9.5322  -14.6531   24.4729 O   0  0  0  0  0  0  0  0  0  0  0  0
    9.3811  -16.9772   24.4955 N   0  0  0  0  0  0  0  0  0  0  0  0
    9.7603  -17.2006   25.8313 C   0  0  1  0  0  0  0  0  0  0  0  0
    8.6711  -16.9383   26.8111 C   0  0  0  0  0  0  0  0  0  0  0  0
    7.7018  -15.8929   26.4333 C   0  0  0  0  0  0  0  0  0  0  0  0
    6.4743  -16.1238   25.8402 C   0  0  0  0  0  0  0  0  0  0  0  0
    5.8046  -14.9495   25.6681 N   0  0  0  0  0  0  0  0  0  0  0  0
    6.5614  -13.9624   26.1312 C   0  0  0  0  0  0  0  0  0  0  0  0
    6.3512  -12.6044   26.1744 C   0  0  0  0  0  0  0  0  0  0  0  0
    7.3223  -11.7703   26.6989 C   0  0  0  0  0  0  0  0  0  0  0  0
    8.4975  -12.2950   27.1766 C   0  0  0  0  0  0  0  0  0  0  0  0
    8.6839  -13.6779   27.1203 C   0  0  0  0  0  0  0  0  0  0  0  0
    7.7352  -14.5210   26.6070 C   0  0  0  0  0  0  0  0  0  0  0  0
   10.3199  -18.5904   25.9825 C   0  0  0  0  0  0  0  0  0  0  0  0
    9.9978  -19.5724   25.3010 O   0  0  0  0  0  0  0  0  0  0  0  0
   15.0885  -19.2572   25.1116 C   0  0  0  0  0  0  0  0  0  0  0  0
   13.6228  -19.4779   25.4578 C   0  0  0  0  0  0  0  0  0  0  0  0
   13.4509  -19.9079   26.8917 C   0  0  2  0  0  0  0  0  0  0  0  0
   14.2786  -21.1396   27.1274 C   0  0  0  0  0  0  0  0  0  0  0  0
   12.0107  -20.0191   27.2335 C   0  0  2  0  0  0  0  0  0  0  0  0
   11.2895  -18.7734   26.9841 N   0  0  0  0  0  0  0  0  0  0  0  0
   11.8244  -20.3233   28.6491 C   0  0  0  0  0  0  0  0  0  0  0  0
   11.4090  -19.4429   29.4367 O   0  0  0  0  0  0  0  0  0  0  0  0
   12.0884  -21.5635   29.1704 O   0  0  0  0  0  0  0  0  0  0  0  0
  2  3  1  0
  2  1  1  1
  4  3  1  0
  4  5  2  0
  6  5  1  0
  7 12  2  0
  7  6  1  0
  8  7  1  0
  9 10  1  0
  9  8  2  0
 10 11  2  0
 11 12  1  0
 12  4  1  0
 13  2  1  0
 14 13  2  0
 15 13  1  0
 16 17  1  1
 16 15  1  0
 18 17  1  0
 19 18  2  0
 20 19  1  0
 21 20  1  0
 21 26  2  0
 22 23  2  0
 22 21  1  0
 23 24  1  0
 24 25  2  0
 26 25  1  0
 26 18  1  0
 27 16  1  0
 28 27  2  0
 30 29  1  0
 31 30  1  0
 31 32  1  6
 33 31  1  0
 33 34  1  1
 34 27  1  0
 35 37  1  0
 35 33  1  0
 36 35  2  0
M  END
$$$$
