WWI.pdb
     RDKit          3D

 37 40  0  0  1  0  0  0  0  0999 V2000
    8.6977  -16.9978   21.3961 N   0  0  0  0  0  0  0  0  0  0  0  0
    9.3454  -15.6807   21.5561 C   0  0  1  0  0  0  0  0  0  0  0  0
    8.5305  -14.6139   20.9264 C   0  0  0  0  0  0  0  0  0  0  0  0
    8.7386  -14.4209   19.4827 C   0  0  0  0  0  0  0  0  0  0  0  0
    7.8327  -14.5818   18.4674 C   0  0  0  0  0  0  0  0  0  0  0  0
    8.4424  -14.2567   17.3239 N   0  0  0  0  0  0  0  0  0  0  0  0
    9.7271  -13.8879   17.5734 C   0  0  0  0  0  0  0  0  0  0  0  0
   10.7544  -13.4630   16.7405 C   0  0  0  0  0  0  0  0  0  0  0  0
   11.9585  -13.1513   17.3182 C   0  0  0  0  0  0  0  0  0  0  0  0
   12.1779  -13.2449   18.6767 C   0  0  0  0  0  0  0  0  0  0  0  0
   11.1480  -13.6697   19.5048 C   0  0  0  0  0  0  0  0  0  0  0  0
    9.9446  -13.9801   18.9202 C   0  0  0  0  0  0  0  0  0  0  0  0
    9.4202  -15.4338   23.0444 C   0  0  0  0  0  0  0  0  0  0  0  0
    9.8615  -14.3285   23.4146 O   0  0  0  0  0  0  0  0  0  0  0  0
    9.0039  -16.4262   23.9520 N   0  0  0  0  0  0  0  0  0  0  0  0
    8.9507  -16.2801   25.3498 C   0  0  1  0  0  0  0  0  0  0  0  0
    7.6089  -16.5650   25.9276 C   0  0  0  0  0  0  0  0  0  0  0  0
    6.5848  -15.5234   25.7240 C   0  0  0  0  0  0  0  0  0  0  0  0
    5.3044  -15.7486   25.2533 C   0  0  0  0  0  0  0  0  0  0  0  0
    4.5982  -14.5834   25.2297 N   0  0  0  0  0  0  0  0  0  0  0  0
    5.3825  -13.6077   25.6704 C   0  0  0  0  0  0  0  0  0  0  0  0
    5.1530  -12.2607   25.8226 C   0  0  0  0  0  0  0  0  0  0  0  0
    6.1600  -11.4358   26.2913 C   0  0  0  0  0  0  0  0  0  0  0  0
    7.3899  -11.9588   26.6050 C   0  0  0  0  0  0  0  0  0  0  0  0
    7.5947  -13.3305   26.4408 C   0  0  0  0  0  0  0  0  0  0  0  0
    6.6114  -14.1643   25.9802 C   0  0  0  0  0  0  0  0  0  0  0  0
   10.0224  -17.1171   25.9966 C   0  0  0  0  0  0  0  0  0  0  0  0
   10.6678  -18.0141   25.4385 O   0  0  0  0  0  0  0  0  0  0  0  0
   11.5589  -14.6812   30.6388 C   0  0  0  0  0  0  0  0  0  0  0  0
   11.5963  -15.3971   29.2961 C   0  0  0  0  0  0  0  0  0  0  0  0
   11.5232  -16.8928   29.4635 C   0  0  2  0  0  0  0  0  0  0  0  0
   12.7324  -17.3512   30.2285 C   0  0  0  0  0  0  0  0  0  0  0  0
   11.2955  -17.5534   28.1539 C   0  0  2  0  0  0  0  0  0  0  0  0
   10.3045  -16.8457   27.3470 N   0  0  0  0  0  0  0  0  0  0  0  0
   10.7880  -18.9112   28.3269 C   0  0  0  0  0  0  0  0  0  0  0  0
    9.5555  -19.1234   28.3905 O   0  0  0  0  0  0  0  0  0  0  0  0
   11.6214  -19.9955   28.4235 O   0  0  0  0  0  0  0  0  0  0  0  0
  2  3  1  0
  2  1  1  1
  4  3  1  0
  4  5  2  0
  6  5  1  0
  7 12  2  0
  7  6  1  0
  8  7  1  0
  9 10  1  0
  9  8  2  0
 10 11  2  0
 11 12  1  0
 12  4  1  0
 13  2  1  0
 14 13  2  0
 15 13  1  0
 16 17  1  1
 16 15  1  0
 18 17  1  0
 19 18  2  0
 20 19  1  0
 21 20  1  0
 21 26  2  0
 22 23  2  0
 22 21  1  0
 23 24  1  0
 24 25  2  0
 26 25  1  0
 26 18  1  0
 27 16  1  0
 28 27  2  0
 30 29  1  0
 31 30  1  0
 31 32  1  6
 33 31  1  0
 33 34  1  6
 34 27  1  0
 35 37  1  0
 35 33  1  0
 36 35  2  0
M  END
$$$$
