WWI.pdb
     RDKit          3D

 37 40  0  0  1  0  0  0  0  0999 V2000
   11.3536  -16.9398   20.0639 N   0  0  0  0  0  0  0  0  0  0  0  0
   11.1787  -15.4799   20.1982 C   0  0  1  0  0  0  0  0  0  0  0  0
   10.6420  -14.8969   18.9449 C   0  0  0  0  0  0  0  0  0  0  0  0
   11.6203  -14.6993   17.8637 C   0  0  0  0  0  0  0  0  0  0  0  0
   11.3926  -14.2636   16.5848 C   0  0  0  0  0  0  0  0  0  0  0  0
   12.5734  -14.1927   15.9638 N   0  0  0  0  0  0  0  0  0  0  0  0
   13.5656  -14.5740   16.8118 C   0  0  0  0  0  0  0  0  0  0  0  0
   14.9427  -14.6668   16.6550 C   0  0  0  0  0  0  0  0  0  0  0  0
   15.6819  -15.0868   17.7310 C   0  0  0  0  0  0  0  0  0  0  0  0
   15.1109  -15.4146   18.9430 C   0  0  0  0  0  0  0  0  0  0  0  0
   13.7344  -15.3199   19.0948 C   0  0  0  0  0  0  0  0  0  0  0  0
   12.9997  -14.8984   18.0136 C   0  0  0  0  0  0  0  0  0  0  0  0
   10.1716  -15.2835   21.3069 C   0  0  0  0  0  0  0  0  0  0  0  0
    9.1328  -14.6553   21.0249 O   0  0  0  0  0  0  0  0  0  0  0  0
   10.4211  -15.7971   22.5938 N   0  0  0  0  0  0  0  0  0  0  0  0
    9.5908  -15.6212   23.7153 C   0  0  1  0  0  0  0  0  0  0  0  0
    8.1616  -15.9443   23.4546 C   0  0  0  0  0  0  0  0  0  0  0  0
    7.1900  -15.3945   24.4185 C   0  0  0  0  0  0  0  0  0  0  0  0
    6.3121  -16.1454   25.1782 C   0  0  0  0  0  0  0  0  0  0  0  0
    5.5881  -15.3357   26.0012 N   0  0  0  0  0  0  0  0  0  0  0  0
    5.9694  -14.0808   25.7978 C   0  0  0  0  0  0  0  0  0  0  0  0
    5.5397  -12.9018   26.3595 C   0  0  0  0  0  0  0  0  0  0  0  0
    6.0931  -11.7002   25.9545 C   0  0  0  0  0  0  0  0  0  0  0  0
    7.0712  -11.6812   24.9915 C   0  0  0  0  0  0  0  0  0  0  0  0
    7.4886  -12.8939   24.4384 C   0  0  0  0  0  0  0  0  0  0  0  0
    6.9553  -14.0937   24.8262 C   0  0  0  0  0  0  0  0  0  0  0  0
   10.1318  -16.4013   24.8842 C   0  0  0  0  0  0  0  0  0  0  0  0
   10.5327  -17.5717   24.8427 O   0  0  0  0  0  0  0  0  0  0  0  0
    9.2538  -13.9789   29.9998 C   0  0  0  0  0  0  0  0  0  0  0  0
    9.3052  -15.0035   28.8754 C   0  0  0  0  0  0  0  0  0  0  0  0
   10.7232  -15.3022   28.4624 C   0  0  2  0  0  0  0  0  0  0  0  0
   11.4342  -14.0032   28.2079 C   0  0  0  0  0  0  0  0  0  0  0  0
   10.7461  -16.2832   27.3487 C   0  0  2  0  0  0  0  0  0  0  0  0
   10.1815  -15.7316   26.1196 N   0  0  0  0  0  0  0  0  0  0  0  0
    9.9527  -17.4661   27.6685 C   0  0  0  0  0  0  0  0  0  0  0  0
    8.8689  -17.6802   27.0789 O   0  0  0  0  0  0  0  0  0  0  0  0
   10.3512  -18.3803   28.6094 O   0  0  0  0  0  0  0  0  0  0  0  0
  2  3  1  0
  2  1  1  6
  4  3  1  0
  4  5  2  0
  6  5  1  0
  7 12  2  0
  7  6  1  0
  8  7  1  0
  9 10  1  0
  9  8  2  0
 10 11  2  0
 11 12  1  0
 12  4  1  0
 13  2  1  0
 14 13  2  0
 15 13  1  0
 16 17  1  6
 16 15  1  0
 18 17  1  0
 19 18  2  0
 20 19  1  0
 21 20  1  0
 21 26  2  0
 22 23  2  0
 22 21  1  0
 23 24  1  0
 24 25  2  0
 26 25  1  0
 26 18  1  0
 27 16  1  0
 28 27  2  0
 30 29  1  0
 31 30  1  0
 31 32  1  6
 33 31  1  0
 33 34  1  6
 34 27  1  0
 35 37  1  0
 35 33  1  0
 36 35  2  0
M  END
$$$$
