WWI.pdb
     RDKit          3D

 37 40  0  0  1  0  0  0  0  0999 V2000
    7.1925  -20.9128   21.9137 N   0  0  0  0  0  0  0  0  0  0  0  0
    7.0089  -20.4080   23.2891 C   0  0  1  0  0  0  0  0  0  0  0  0
    7.7217  -21.2677   24.2644 C   0  0  0  0  0  0  0  0  0  0  0  0
    7.6108  -20.8602   25.6739 C   0  0  0  0  0  0  0  0  0  0  0  0
    6.4945  -20.8543   26.4684 C   0  0  0  0  0  0  0  0  0  0  0  0
    6.8656  -20.4507   27.6868 N   0  0  0  0  0  0  0  0  0  0  0  0
    8.2006  -20.1931   27.7021 C   0  0  0  0  0  0  0  0  0  0  0  0
    9.0564  -19.7628   28.7081 C   0  0  0  0  0  0  0  0  0  0  0  0
   10.3820  -19.6035   28.3952 C   0  0  0  0  0  0  0  0  0  0  0  0
   10.8837  -19.8527   27.1348 C   0  0  0  0  0  0  0  0  0  0  0  0
   10.0245  -20.2829   26.1330 C   0  0  0  0  0  0  0  0  0  0  0  0
    8.6981  -20.4407   26.4528 C   0  0  0  0  0  0  0  0  0  0  0  0
    7.6189  -19.0262   23.3081 C   0  0  0  0  0  0  0  0  0  0  0  0
    8.6227  -18.8394   22.5933 O   0  0  0  0  0  0  0  0  0  0  0  0
    7.0586  -18.0121   24.1080 N   0  0  0  0  0  0  0  0  0  0  0  0
    7.6035  -16.7292   24.2955 C   0  0  1  0  0  0  0  0  0  0  0  0
    6.6103  -15.7226   24.7600 C   0  0  0  0  0  0  0  0  0  0  0  0
    7.1200  -14.3507   24.9431 C   0  0  0  0  0  0  0  0  0  0  0  0
    7.1514  -13.3768   23.9621 C   0  0  0  0  0  0  0  0  0  0  0  0
    7.6354  -12.2092   24.4713 N   0  0  0  0  0  0  0  0  0  0  0  0
    7.9201  -12.3962   25.7541 C   0  0  0  0  0  0  0  0  0  0  0  0
    8.4423  -11.5448   26.6989 C   0  0  0  0  0  0  0  0  0  0  0  0
    8.6686  -11.9957   27.9871 C   0  0  0  0  0  0  0  0  0  0  0  0
    8.3736  -13.2931   28.3254 C   0  0  0  0  0  0  0  0  0  0  0  0
    7.8439  -14.1356   27.3456 C   0  0  0  0  0  0  0  0  0  0  0  0
    7.6107  -13.7089   26.0658 C   0  0  0  0  0  0  0  0  0  0  0  0
    8.7911  -16.8036   25.2183 C   0  0  0  0  0  0  0  0  0  0  0  0
    8.7737  -17.2373   26.3777 O   0  0  0  0  0  0  0  0  0  0  0  0
   13.2767  -17.1316   22.0103 C   0  0  0  0  0  0  0  0  0  0  0  0
   12.2151  -17.3669   23.0754 C   0  0  0  0  0  0  0  0  0  0  0  0
   12.4154  -16.4653   24.2660 C   0  0  2  0  0  0  0  0  0  0  0  0
   13.8155  -16.6496   24.7791 C   0  0  0  0  0  0  0  0  0  0  0  0
   11.3296  -16.6635   25.2585 C   0  0  2  0  0  0  0  0  0  0  0  0
   10.0161  -16.3400   24.7071 N   0  0  0  0  0  0  0  0  0  0  0  0
   11.5099  -15.7984   26.4204 C   0  0  0  0  0  0  0  0  0  0  0  0
   10.7937  -14.7823   26.5707 O   0  0  0  0  0  0  0  0  0  0  0  0
   12.4520  -16.0552   27.3829 O   0  0  0  0  0  0  0  0  0  0  0  0
  2  3  1  0
  2  1  1  6
  4  3  1  0
  4  5  2  0
  6  5  1  0
  7 12  2  0
  7  6  1  0
  8  7  1  0
  9 10  1  0
  9  8  2  0
 10 11  2  0
 11 12  1  0
 12  4  1  0
 13  2  1  0
 14 13  2  0
 15 13  1  0
 16 17  1  1
 16 15  1  0
 18 17  1  0
 19 18  2  0
 20 19  1  0
 21 20  1  0
 21 26  2  0
 22 23  2  0
 22 21  1  0
 23 24  1  0
 24 25  2  0
 26 25  1  0
 26 18  1  0
 27 16  1  0
 28 27  2  0
 30 29  1  0
 31 30  1  0
 31 32  1  1
 33 31  1  0
 33 34  1  6
 34 27  1  0
 35 37  1  0
 35 33  1  0
 36 35  2  0
M  END
$$$$
