WWI.pdb
     RDKit          3D

 37 40  0  0  1  0  0  0  0  0999 V2000
    8.6151  -17.8665   21.8319 N   0  0  0  0  0  0  0  0  0  0  0  0
    8.7873  -16.4155   22.0442 C   0  0  1  0  0  0  0  0  0  0  0  0
    7.5130  -15.6947   21.8093 C   0  0  0  0  0  0  0  0  0  0  0  0
    7.2756  -15.2539   20.4257 C   0  0  0  0  0  0  0  0  0  0  0  0
    6.6420  -15.9321   19.4177 C   0  0  0  0  0  0  0  0  0  0  0  0
    6.6165  -15.1352   18.3457 N   0  0  0  0  0  0  0  0  0  0  0  0
    7.2211  -13.9520   18.6344 C   0  0  0  0  0  0  0  0  0  0  0  0
    7.4436  -12.8087   17.8776 C   0  0  0  0  0  0  0  0  0  0  0  0
    8.0901  -11.7595   18.4790 C   0  0  0  0  0  0  0  0  0  0  0  0
    8.5192  -11.8030   19.7891 C   0  0  0  0  0  0  0  0  0  0  0  0
    8.2943  -12.9477   20.5414 C   0  0  0  0  0  0  0  0  0  0  0  0
    7.6460  -13.9948   19.9334 C   0  0  0  0  0  0  0  0  0  0  0  0
    9.1888  -16.2534   23.4914 C   0  0  0  0  0  0  0  0  0  0  0  0
    9.6750  -15.1555   23.8255 O   0  0  0  0  0  0  0  0  0  0  0  0
    9.0116  -17.3125   24.4018 N   0  0  0  0  0  0  0  0  0  0  0  0
    9.4106  -17.3017   25.7504 C   0  0  1  0  0  0  0  0  0  0  0  0
    8.2770  -17.1684   26.7056 C   0  0  0  0  0  0  0  0  0  0  0  0
    7.4413  -15.9631   26.5503 C   0  0  0  0  0  0  0  0  0  0  0  0
    6.1355  -15.9543   26.0957 C   0  0  0  0  0  0  0  0  0  0  0  0
    5.6362  -14.6865   26.1183 N   0  0  0  0  0  0  0  0  0  0  0  0
    6.5796  -13.8714   26.5735 C   0  0  0  0  0  0  0  0  0  0  0  0
    6.5830  -12.5105   26.7688 C   0  0  0  0  0  0  0  0  0  0  0  0
    7.7205  -11.8825   27.2438 C   0  0  0  0  0  0  0  0  0  0  0  0
    8.8481  -12.6150   27.5206 C   0  0  0  0  0  0  0  0  0  0  0  0
    8.8161  -13.9957   27.3130 C   0  0  0  0  0  0  0  0  0  0  0  0
    7.7004  -14.6368   26.8455 C   0  0  0  0  0  0  0  0  0  0  0  0
   10.2483  -18.5168   26.0496 C   0  0  0  0  0  0  0  0  0  0  0  0
    9.9907  -19.6730   25.6900 O   0  0  0  0  0  0  0  0  0  0  0  0
   15.4707  -17.9197   25.6829 C   0  0  0  0  0  0  0  0  0  0  0  0
   14.1022  -18.5819   25.7580 C   0  0  0  0  0  0  0  0  0  0  0  0
   13.7439  -18.9544   27.1734 C   0  0  2  0  0  0  0  0  0  0  0  0
   14.7439  -19.9576   27.6748 C   0  0  0  0  0  0  0  0  0  0  0  0
   12.3187  -19.3599   27.2609 C   0  0  2  0  0  0  0  0  0  0  0  0
   11.4188  -18.3058   26.7995 N   0  0  0  0  0  0  0  0  0  0  0  0
   11.9348  -19.6513   28.6389 C   0  0  0  0  0  0  0  0  0  0  0  0
   11.3663  -18.7800   29.3358 O   0  0  0  0  0  0  0  0  0  0  0  0
   12.1725  -20.8696   29.2211 O   0  0  0  0  0  0  0  0  0  0  0  0
  2  3  1  0
  2  1  1  1
  4  3  1  0
  4  5  2  0
  6  5  1  0
  7 12  2  0
  7  6  1  0
  8  7  1  0
  9 10  1  0
  9  8  2  0
 10 11  2  0
 11 12  1  0
 12  4  1  0
 13  2  1  0
 14 13  2  0
 15 13  1  0
 16 17  1  1
 16 15  1  0
 18 17  1  0
 19 18  2  0
 20 19  1  0
 21 20  1  0
 21 26  2  0
 22 23  2  0
 22 21  1  0
 23 24  1  0
 24 25  2  0
 26 25  1  0
 26 18  1  0
 27 16  1  0
 28 27  2  0
 30 29  1  0
 31 30  1  0
 31 32  1  6
 33 31  1  0
 33 34  1  1
 34 27  1  0
 35 37  1  0
 35 33  1  0
 36 35  2  0
M  END
$$$$
