WWI.pdb
     RDKit          3D

 37 40  0  0  1  0  0  0  0  0999 V2000
    6.2290  -19.0876   25.8638 N   0  0  0  0  0  0  0  0  0  0  0  0
    6.6619  -17.8388   25.2057 C   0  0  1  0  0  0  0  0  0  0  0  0
    7.0214  -16.8112   26.2124 C   0  0  0  0  0  0  0  0  0  0  0  0
    6.2292  -15.5720   26.1692 C   0  0  0  0  0  0  0  0  0  0  0  0
    4.8675  -15.4395   26.0936 C   0  0  0  0  0  0  0  0  0  0  0  0
    4.5844  -14.1342   26.1238 N   0  0  0  0  0  0  0  0  0  0  0  0
    5.7337  -13.4135   26.2169 C   0  0  0  0  0  0  0  0  0  0  0  0
    5.9754  -12.0475   26.2868 C   0  0  0  0  0  0  0  0  0  0  0  0
    7.2790  -11.6330   26.3846 C   0  0  0  0  0  0  0  0  0  0  0  0
    8.3393  -12.5145   26.4150 C   0  0  0  0  0  0  0  0  0  0  0  0
    8.0925  -13.8787   26.3451 C   0  0  0  0  0  0  0  0  0  0  0  0
    6.7849  -14.2875   26.2476 C   0  0  0  0  0  0  0  0  0  0  0  0
    7.8905  -18.1976   24.4034 C   0  0  0  0  0  0  0  0  0  0  0  0
    8.4649  -19.2653   24.6926 O   0  0  0  0  0  0  0  0  0  0  0  0
    8.3460  -17.3449   23.3800 N   0  0  0  0  0  0  0  0  0  0  0  0
    9.5266  -17.5237   22.6369 C   0  0  1  0  0  0  0  0  0  0  0  0
    9.3973  -17.1248   21.2088 C   0  0  0  0  0  0  0  0  0  0  0  0
    8.6318  -15.8908   20.9507 C   0  0  0  0  0  0  0  0  0  0  0  0
    7.2580  -15.7718   21.0516 C   0  0  0  0  0  0  0  0  0  0  0  0
    6.8752  -14.4892   20.7956 N   0  0  0  0  0  0  0  0  0  0  0  0
    7.9599  -13.7718   20.5307 C   0  0  0  0  0  0  0  0  0  0  0  0
    8.1095  -12.4461   20.1986 C   0  0  0  0  0  0  0  0  0  0  0  0
    9.3696  -11.9341   19.9457 C   0  0  0  0  0  0  0  0  0  0  0  0
   10.4730  -12.7470   20.0247 C   0  0  0  0  0  0  0  0  0  0  0  0
   10.2913  -14.0894   20.3644 C   0  0  0  0  0  0  0  0  0  0  0  0
    9.0535  -14.6156   20.6201 C   0  0  0  0  0  0  0  0  0  0  0  0
   10.6714  -16.8139   23.3098 C   0  0  0  0  0  0  0  0  0  0  0  0
   11.7722  -16.5776   22.7950 O   0  0  0  0  0  0  0  0  0  0  0  0
    9.2696  -13.2257   27.2626 C   0  0  0  0  0  0  0  0  0  0  0  0
   10.0752  -13.8639   26.1399 C   0  0  0  0  0  0  0  0  0  0  0  0
   10.8709  -15.0453   26.6312 C   0  0  2  0  0  0  0  0  0  0  0  0
   11.8300  -14.5739   27.6875 C   0  0  0  0  0  0  0  0  0  0  0  0
   11.4725  -15.7796   25.4901 C   0  0  2  0  0  0  0  0  0  0  0  0
   10.4583  -16.3879   24.6328 N   0  0  0  0  0  0  0  0  0  0  0  0
   12.3251  -16.8706   25.9528 C   0  0  0  0  0  0  0  0  0  0  0  0
   13.4637  -16.6318   26.4160 O   0  0  0  0  0  0  0  0  0  0  0  0
   11.9249  -18.1810   25.9043 O   0  0  0  0  0  0  0  0  0  0  0  0
  2  3  1  0
  2  1  1  1
  4  3  1  0
  4  5  2  0
  6  5  1  0
  7 12  2  0
  7  6  1  0
  8  7  1  0
  9 10  1  0
  9  8  2  0
 10 11  2  0
 11 12  1  0
 12  4  1  0
 13  2  1  0
 14 13  2  0
 15 13  1  0
 16 17  1  6
 16 15  1  0
 18 17  1  0
 19 18  2  0
 20 19  1  0
 21 20  1  0
 21 26  2  0
 22 23  2  0
 22 21  1  0
 23 24  1  0
 24 25  2  0
 26 25  1  0
 26 18  1  0
 27 16  1  0
 28 27  2  0
 30 29  1  0
 31 30  1  0
 31 32  1  1
 33 31  1  0
 33 34  1  6
 34 27  1  0
 35 37  1  0
 35 33  1  0
 36 35  2  0
M  END
$$$$
