WWI.pdb
     RDKit          3D

 37 40  0  0  1  0  0  0  0  0999 V2000
    9.6153  -19.7835   22.2013 N   0  0  0  0  0  0  0  0  0  0  0  0
   10.6675  -19.0758   21.4448 C   0  0  1  0  0  0  0  0  0  0  0  0
   10.5719  -19.3836   19.9975 C   0  0  0  0  0  0  0  0  0  0  0  0
   10.7402  -20.7994   19.6343 C   0  0  0  0  0  0  0  0  0  0  0  0
    9.7677  -21.7246   19.3593 C   0  0  0  0  0  0  0  0  0  0  0  0
   10.3760  -22.8692   19.0358 N   0  0  0  0  0  0  0  0  0  0  0  0
   11.7250  -22.7089   19.0950 C   0  0  0  0  0  0  0  0  0  0  0  0
   12.7798  -23.5783   18.8479 C   0  0  0  0  0  0  0  0  0  0  0  0
   14.0547  -23.0944   18.9927 C   0  0  0  0  0  0  0  0  0  0  0  0
   14.3182  -21.7941   19.3696 C   0  0  0  0  0  0  0  0  0  0  0  0
   13.2607  -20.9290   19.6151 C   0  0  0  0  0  0  0  0  0  0  0  0
   11.9863  -21.4196   19.4681 C   0  0  0  0  0  0  0  0  0  0  0  0
   10.4098  -17.6024   21.6562 C   0  0  0  0  0  0  0  0  0  0  0  0
   10.9872  -16.8097   20.8871 O   0  0  0  0  0  0  0  0  0  0  0  0
    9.5514  -17.1707   22.6851 N   0  0  0  0  0  0  0  0  0  0  0  0
    9.1889  -15.8352   22.9359 C   0  0  1  0  0  0  0  0  0  0  0  0
    7.7187  -15.6258   23.0353 C   0  0  0  0  0  0  0  0  0  0  0  0
    7.2112  -15.2366   24.3643 C   0  0  0  0  0  0  0  0  0  0  0  0
    6.8064  -16.1176   25.3500 C   0  0  0  0  0  0  0  0  0  0  0  0
    6.4406  -15.4356   26.4717 N   0  0  0  0  0  0  0  0  0  0  0  0
    6.5952  -14.1374   26.2433 C   0  0  0  0  0  0  0  0  0  0  0  0
    6.3526  -13.0430   27.0394 C   0  0  0  0  0  0  0  0  0  0  0  0
    6.5803  -11.7685   26.5518 C   0  0  0  0  0  0  0  0  0  0  0  0
    7.0479  -11.5926   25.2731 C   0  0  0  0  0  0  0  0  0  0  0  0
    7.2857  -12.7222   24.4869 C   0  0  0  0  0  0  0  0  0  0  0  0
    7.0686  -13.9919   24.9507 C   0  0  0  0  0  0  0  0  0  0  0  0
    9.9056  -15.3279   24.1592 C   0  0  0  0  0  0  0  0  0  0  0  0
   10.3617  -14.1860   24.3025 O   0  0  0  0  0  0  0  0  0  0  0  0
   11.1463  -13.4683   28.6086 C   0  0  0  0  0  0  0  0  0  0  0  0
   10.8093  -14.9510   28.6787 C   0  0  0  0  0  0  0  0  0  0  0  0
    9.9662  -15.3836   27.5072 C   0  0  2  0  0  0  0  0  0  0  0  0
    8.8485  -16.2512   28.0129 C   0  0  0  0  0  0  0  0  0  0  0  0
   10.8159  -15.9749   26.4435 C   0  0  2  0  0  0  0  0  0  0  0  0
   10.0614  -16.2371   25.2204 N   0  0  0  0  0  0  0  0  0  0  0  0
   11.3735  -17.2572   26.8629 C   0  0  0  0  0  0  0  0  0  0  0  0
   10.9886  -18.3211   26.3261 O   0  0  0  0  0  0  0  0  0  0  0  0
   12.3272  -17.3533   27.8431 O   0  0  0  0  0  0  0  0  0  0  0  0
  2  3  1  0
  2  1  1  1
  4  3  1  0
  4  5  2  0
  6  5  1  0
  7 12  2  0
  7  6  1  0
  8  7  1  0
  9 10  1  0
  9  8  2  0
 10 11  2  0
 11 12  1  0
 12  4  1  0
 13  2  1  0
 14 13  2  0
 15 13  1  0
 16 17  1  1
 16 15  1  0
 18 17  1  0
 19 18  2  0
 20 19  1  0
 21 20  1  0
 21 26  2  0
 22 23  2  0
 22 21  1  0
 23 24  1  0
 24 25  2  0
 26 25  1  0
 26 18  1  0
 27 16  1  0
 28 27  2  0
 30 29  1  0
 31 30  1  0
 31 32  1  1
 33 31  1  0
 33 34  1  6
 34 27  1  0
 35 37  1  0
 35 33  1  0
 36 35  2  0
M  END
$$$$
