HVE.pdb
     RDKit          3D

 27 27  0  0  1  0  0  0  0  0999 V2000
   13.6090  -11.9197  -12.2502 N   0  0  0  0  0  0  0  0  0  0  0  0
   15.0000  -11.5988  -11.9047 C   0  0  1  0  0  0  0  0  0  0  0  0
   15.8462  -12.3479  -12.9333 C   0  0  0  0  0  0  0  0  0  0  0  0
   15.7737  -13.8019  -12.6443 C   0  0  0  0  0  0  0  0  0  0  0  0
   15.1180  -14.7105  -13.4737 C   0  0  0  0  0  0  0  0  0  0  0  0
   15.2563  -15.9178  -12.9038 N   0  0  0  0  0  0  0  0  0  0  0  0
   15.9622  -15.7808  -11.7732 C   0  0  0  0  0  0  0  0  0  0  0  0
   16.2931  -14.4856  -11.5911 N   0  0  0  0  0  0  0  0  0  0  0  0
   15.2481  -10.1486  -12.0256 C   0  0  0  0  0  0  0  0  0  0  0  0
   14.8147   -9.5112  -13.0442 O   0  0  0  0  0  0  0  0  0  0  0  0
   14.0978   -7.4516   -9.8915 C   0  0  0  0  0  0  0  0  0  0  0  0
   15.5950   -7.2241   -9.9773 C   0  0  1  0  0  0  0  0  0  0  0  0
   16.2904   -7.6209   -8.7134 C   0  0  0  0  0  0  0  0  0  0  0  0
   16.1169   -7.9765  -11.1884 C   0  0  2  0  0  0  0  0  0  0  0  0
   15.9570   -9.3944  -11.0560 N   0  0  0  0  0  0  0  0  0  0  0  0
   17.5141   -7.5907  -11.5037 C   0  0  0  0  0  0  0  0  0  0  0  0
   18.4753   -7.9847  -10.8069 O   0  0  0  0  0  0  0  0  0  0  0  0
   17.7868   -6.7633  -12.6066 N   0  0  0  0  0  0  0  0  0  0  0  0
   19.0848   -6.3786  -13.0770 C   0  0  1  0  0  0  0  0  0  0  0  0
   19.6538   -7.1475  -14.2103 C   0  0  0  0  0  0  0  0  0  0  0  0
   20.9998   -6.8021  -14.7056 C   0  0  0  0  0  0  0  0  0  0  0  0
   21.5271   -7.5517  -15.8333 C   0  0  0  0  0  0  0  0  0  0  0  0
   21.5523   -8.7911  -15.8798 O   0  0  0  0  0  0  0  0  0  0  0  0
   19.1907   -4.8984  -13.2792 C   0  0  0  0  0  0  0  0  0  0  0  0
   18.0169   -4.2005  -13.5266 O   0  0  0  0  0  0  0  0  0  0  0  0
   22.0401   -6.8702  -16.9369 O   0  0  0  0  0  0  0  0  0  0  0  0
   20.2586   -4.2580  -13.2394 O   0  0  0  0  0  0  0  0  0  0  0  0
  2  1  1  6
  3  2  1  0
  4  3  1  0
  5  4  2  0
  6  5  1  0
  7  6  1  0
  7  8  2  0
  8  4  1  0
  9  2  1  0
 10  9  2  0
 12 11  1  1
 13 12  1  0
 14 15  1  1
 14 12  1  0
 15  9  1  0
 16 17  2  0
 16 14  1  0
 18 16  1  0
 19 24  1  0
 19 18  1  0
 19 20  1  6
 21 22  1  0
 21 20  1  0
 22 26  1  0
 23 22  2  0
 24 25  1  0
 27 24  2  0
M  END
$$$$
