HVE.pdb
     RDKit          3D

 27 27  0  0  1  0  0  0  0  0999 V2000
   23.5040  -20.9118  -14.5879 N   0  0  0  0  0  0  0  0  0  0  0  0
   22.4015  -20.2926  -13.8408 C   0  0  1  0  0  0  0  0  0  0  0  0
   21.2580  -20.1751  -14.8476 C   0  0  0  0  0  0  0  0  0  0  0  0
   21.5986  -19.1225  -15.8372 C   0  0  0  0  0  0  0  0  0  0  0  0
   22.7428  -18.3319  -15.7432 C   0  0  0  0  0  0  0  0  0  0  0  0
   22.7213  -17.5008  -16.7969 N   0  0  0  0  0  0  0  0  0  0  0  0
   21.6215  -17.7519  -17.5198 C   0  0  0  0  0  0  0  0  0  0  0  0
   20.9127  -18.7479  -16.9488 N   0  0  0  0  0  0  0  0  0  0  0  0
   21.9817  -21.1538  -12.7177 C   0  0  0  0  0  0  0  0  0  0  0  0
   21.8758  -22.4153  -12.8877 O   0  0  0  0  0  0  0  0  0  0  0  0
   23.0980  -20.5773   -8.8406 C   0  0  0  0  0  0  0  0  0  0  0  0
   21.6188  -20.8811   -8.9844 C   0  0  1  0  0  0  0  0  0  0  0  0
   20.7802  -19.6545   -8.8095 C   0  0  0  0  0  0  0  0  0  0  0  0
   21.4035  -21.5446  -10.3330 C   0  0  2  0  0  0  0  0  0  0  0  0
   21.6796  -20.6574  -11.4239 N   0  0  0  0  0  0  0  0  0  0  0  0
   20.0546  -22.1547  -10.4261 C   0  0  0  0  0  0  0  0  0  0  0  0
   19.1554  -21.6505  -11.1345 O   0  0  0  0  0  0  0  0  0  0  0  0
   19.7583  -23.3268   -9.7093 N   0  0  0  0  0  0  0  0  0  0  0  0
   18.4834  -23.9778   -9.6391 C   0  0  1  0  0  0  0  0  0  0  0  0
   18.4171  -25.2686   -8.9120 C   0  0  0  0  0  0  0  0  0  0  0  0
   17.1423  -26.0107   -8.8856 C   0  0  0  0  0  0  0  0  0  0  0  0
   17.1072  -27.2860   -8.1899 C   0  0  0  0  0  0  0  0  0  0  0  0
   16.8278  -27.4020   -6.9868 O   0  0  0  0  0  0  0  0  0  0  0  0
   17.3949  -23.0339   -9.2299 C   0  0  0  0  0  0  0  0  0  0  0  0
   16.2210  -23.0508   -9.9700 O   0  0  0  0  0  0  0  0  0  0  0  0
   17.3992  -28.4600   -8.8840 O   0  0  0  0  0  0  0  0  0  0  0  0
   17.4759  -22.2397   -8.2734 O   0  0  0  0  0  0  0  0  0  0  0  0
  2  1  1  6
  3  2  1  0
  4  3  1  0
  5  4  2  0
  6  5  1  0
  7  6  1  0
  7  8  2  0
  8  4  1  0
  9  2  1  0
 10  9  2  0
 12 11  1  6
 13 12  1  0
 14 15  1  6
 14 12  1  0
 15  9  1  0
 16 17  2  0
 16 14  1  0
 18 16  1  0
 19 24  1  0
 19 18  1  0
 19 20  1  1
 21 22  1  0
 21 20  1  0
 22 26  1  0
 23 22  2  0
 24 25  1  0
 27 24  2  0
M  END
$$$$
