HVE.pdb
     RDKit          3D

 27 27  0  0  1  0  0  0  0  0999 V2000
   29.6969  -35.8362   -5.7505 N   0  0  0  0  0  0  0  0  0  0  0  0
   28.5485  -36.4597   -5.0801 C   0  0  1  0  0  0  0  0  0  0  0  0
   29.0627  -37.8128   -4.5904 C   0  0  0  0  0  0  0  0  0  0  0  0
   29.2198  -38.7155   -5.7581 C   0  0  0  0  0  0  0  0  0  0  0  0
   30.4023  -39.3989   -6.0375 C   0  0  0  0  0  0  0  0  0  0  0  0
   30.1792  -40.1090   -7.1544 N   0  0  0  0  0  0  0  0  0  0  0  0
   28.9219  -39.8869   -7.5608 C   0  0  0  0  0  0  0  0  0  0  0  0
   28.3095  -39.0312   -6.7163 N   0  0  0  0  0  0  0  0  0  0  0  0
   28.1147  -35.6505   -3.9241 C   0  0  0  0  0  0  0  0  0  0  0  0
   28.9861  -35.1143   -3.1594 O   0  0  0  0  0  0  0  0  0  0  0  0
   26.1913  -32.5807   -4.0768 C   0  0  0  0  0  0  0  0  0  0  0  0
   25.4408  -33.4234   -3.0631 C   0  0  1  0  0  0  0  0  0  0  0  0
   24.1764  -33.9836   -3.6339 C   0  0  0  0  0  0  0  0  0  0  0  0
   26.3811  -34.5050   -2.5617 C   0  0  2  0  0  0  0  0  0  0  0  0
   26.7535  -35.4224   -3.5976 N   0  0  0  0  0  0  0  0  0  0  0  0
   25.8282  -35.1913   -1.3685 C   0  0  0  0  0  0  0  0  0  0  0  0
   25.2923  -36.3185   -1.4513 O   0  0  0  0  0  0  0  0  0  0  0  0
   25.8972  -34.5783   -0.1057 N   0  0  0  0  0  0  0  0  0  0  0  0
   25.2996  -35.0609    1.1043 C   0  0  1  0  0  0  0  0  0  0  0  0
   25.8600  -34.5660    2.3850 C   0  0  0  0  0  0  0  0  0  0  0  0
   25.3982  -35.1698    3.6494 C   0  0  0  0  0  0  0  0  0  0  0  0
   25.9555  -34.6645    4.8927 C   0  0  0  0  0  0  0  0  0  0  0  0
   26.7612  -33.7229    4.9489 O   0  0  0  0  0  0  0  0  0  0  0  0
   23.8048  -34.9758    1.0628 C   0  0  0  0  0  0  0  0  0  0  0  0
   23.0885  -35.9767    1.7040 O   0  0  0  0  0  0  0  0  0  0  0  0
   25.5852  -35.2487    6.1038 O   0  0  0  0  0  0  0  0  0  0  0  0
   23.1678  -34.0693    0.4930 O   0  0  0  0  0  0  0  0  0  0  0  0
  2  1  1  1
  3  2  1  0
  4  3  1  0
  5  4  2  0
  6  5  1  0
  7  6  1  0
  7  8  2  0
  8  4  1  0
  9  2  1  0
 10  9  2  0
 12 11  1  6
 13 12  1  0
 14 15  1  6
 14 12  1  0
 15  9  1  0
 16 17  2  0
 16 14  1  0
 18 16  1  0
 19 24  1  0
 19 18  1  0
 19 20  1  1
 21 22  1  0
 21 20  1  0
 22 26  1  0
 23 22  2  0
 24 25  1  0
 27 24  2  0
M  END
$$$$
