HVE.pdb
     RDKit          3D

 27 27  0  0  1  0  0  0  0  0999 V2000
   19.2087  -13.1585  -15.8279 N   0  0  0  0  0  0  0  0  0  0  0  0
   18.3185  -11.9910  -15.7919 C   0  0  1  0  0  0  0  0  0  0  0  0
   17.0743  -12.4649  -15.0419 C   0  0  0  0  0  0  0  0  0  0  0  0
   16.3409  -13.4323  -15.8959 C   0  0  0  0  0  0  0  0  0  0  0  0
   15.5652  -13.0471  -16.9882 C   0  0  0  0  0  0  0  0  0  0  0  0
   15.0593  -14.1733  -17.5146 N   0  0  0  0  0  0  0  0  0  0  0  0
   15.4917  -15.2165  -16.7935 C   0  0  0  0  0  0  0  0  0  0  0  0
   16.2837  -14.7858  -15.7898 N   0  0  0  0  0  0  0  0  0  0  0  0
   18.9449  -10.8778  -15.0518 C   0  0  0  0  0  0  0  0  0  0  0  0
   19.3192  -11.0481  -13.8425 O   0  0  0  0  0  0  0  0  0  0  0  0
   21.4348   -6.7250  -14.8097 C   0  0  0  0  0  0  0  0  0  0  0  0
   20.9826   -7.9503  -15.5811 C   0  0  1  0  0  0  0  0  0  0  0  0
   22.0953   -8.9336  -15.7637 C   0  0  0  0  0  0  0  0  0  0  0  0
   19.7908   -8.5497  -14.8561 C   0  0  2  0  0  0  0  0  0  0  0  0
   19.1652   -9.5938  -15.6124 N   0  0  0  0  0  0  0  0  0  0  0  0
   18.8301   -7.5005  -14.4358 C   0  0  0  0  0  0  0  0  0  0  0  0
   18.0523   -6.9598  -15.2527 O   0  0  0  0  0  0  0  0  0  0  0  0
   18.7761   -7.0890  -13.0930 N   0  0  0  0  0  0  0  0  0  0  0  0
   17.8609   -6.1380  -12.5343 C   0  0  1  0  0  0  0  0  0  0  0  0
   17.5656   -6.2475  -11.0852 C   0  0  0  0  0  0  0  0  0  0  0  0
   16.6594   -5.2635  -10.4629 C   0  0  0  0  0  0  0  0  0  0  0  0
   16.4293   -5.3551   -9.0310 C   0  0  0  0  0  0  0  0  0  0  0  0
   16.9755   -6.1976   -8.3024 O   0  0  0  0  0  0  0  0  0  0  0  0
   18.1892   -4.7362  -12.9472 C   0  0  0  0  0  0  0  0  0  0  0  0
   17.1349   -3.9167  -13.3254 O   0  0  0  0  0  0  0  0  0  0  0  0
   15.5527   -4.4630   -8.4136 O   0  0  0  0  0  0  0  0  0  0  0  0
   19.3411   -4.2622  -12.9723 O   0  0  0  0  0  0  0  0  0  0  0  0
  2  1  1  1
  3  2  1  0
  4  3  1  0
  5  4  2  0
  6  5  1  0
  7  6  1  0
  7  8  2  0
  8  4  1  0
  9  2  1  0
 10  9  2  0
 12 11  1  1
 13 12  1  0
 14 15  1  6
 14 12  1  0
 15  9  1  0
 16 17  2  0
 16 14  1  0
 18 16  1  0
 19 24  1  0
 19 18  1  0
 19 20  1  1
 21 22  1  0
 21 20  1  0
 22 26  1  0
 23 22  2  0
 24 25  1  0
 27 24  2  0
M  END
$$$$
