HVE.pdb
     RDKit          3D

 27 27  0  0  1  0  0  0  0  0999 V2000
   43.9850  -10.3869   -6.3718 N   0  0  0  0  0  0  0  0  0  0  0  0
   42.6924   -9.9442   -5.8329 C   0  0  1  0  0  0  0  0  0  0  0  0
   42.9661   -8.5678   -5.2282 C   0  0  0  0  0  0  0  0  0  0  0  0
   43.7850   -8.7385   -4.0021 C   0  0  0  0  0  0  0  0  0  0  0  0
   45.0544   -8.1823   -3.8517 C   0  0  0  0  0  0  0  0  0  0  0  0
   45.4874   -8.5410   -2.6329 N   0  0  0  0  0  0  0  0  0  0  0  0
   44.5421   -9.2850   -2.0429 C   0  0  0  0  0  0  0  0  0  0  0  0
   43.4824   -9.4211   -2.8668 N   0  0  0  0  0  0  0  0  0  0  0  0
   41.6916   -9.8180   -6.9107 C   0  0  0  0  0  0  0  0  0  0  0  0
   42.0594   -9.4709   -8.0836 O   0  0  0  0  0  0  0  0  0  0  0  0
   37.2665  -10.4931   -8.8767 C   0  0  0  0  0  0  0  0  0  0  0  0
   38.2314  -10.8497   -7.7619 C   0  0  1  0  0  0  0  0  0  0  0  0
   38.7220  -12.2581   -7.8813 C   0  0  0  0  0  0  0  0  0  0  0  0
   39.3628   -9.8372   -7.7767 C   0  0  2  0  0  0  0  0  0  0  0  0
   40.3075  -10.0646   -6.7235 N   0  0  0  0  0  0  0  0  0  0  0  0
   38.8444   -8.4474   -7.7829 C   0  0  0  0  0  0  0  0  0  0  0  0
   38.1876   -7.9893   -6.8219 O   0  0  0  0  0  0  0  0  0  0  0  0
   39.0848   -7.6085   -8.8846 N   0  0  0  0  0  0  0  0  0  0  0  0
   38.7290   -6.2242   -8.9893 C   0  0  1  0  0  0  0  0  0  0  0  0
   39.7702   -5.2256   -8.6461 C   0  0  0  0  0  0  0  0  0  0  0  0
   39.4277   -3.7912   -8.6873 C   0  0  0  0  0  0  0  0  0  0  0  0
   40.4634   -2.8304   -8.3470 C   0  0  0  0  0  0  0  0  0  0  0  0
   41.5806   -3.1526   -7.9144 O   0  0  0  0  0  0  0  0  0  0  0  0
   38.0483   -5.9181  -10.2879 C   0  0  0  0  0  0  0  0  0  0  0  0
   37.2947   -4.7548  -10.3572 O   0  0  0  0  0  0  0  0  0  0  0  0
   40.2187   -1.4662   -8.5031 O   0  0  0  0  0  0  0  0  0  0  0  0
   38.1154   -6.6369  -11.3034 O   0  0  0  0  0  0  0  0  0  0  0  0
  2  1  1  6
  3  2  1  0
  4  3  1  0
  5  4  2  0
  6  5  1  0
  7  6  1  0
  7  8  2  0
  8  4  1  0
  9  2  1  0
 10  9  2  0
 12 11  1  6
 13 12  1  0
 14 15  1  1
 14 12  1  0
 15  9  1  0
 16 17  2  0
 16 14  1  0
 18 16  1  0
 19 24  1  0
 19 18  1  0
 19 20  1  6
 21 22  1  0
 21 20  1  0
 22 26  1  0
 23 22  2  0
 24 25  1  0
 27 24  2  0
M  END
$$$$
