HVE.pdb
     RDKit          3D

 27 27  0  0  1  0  0  0  0  0999 V2000
   23.3127  -21.2511  -10.7046 N   0  0  0  0  0  0  0  0  0  0  0  0
   23.0957  -21.3630  -12.1529 C   0  0  1  0  0  0  0  0  0  0  0  0
   21.5871  -21.2076  -12.3403 C   0  0  0  0  0  0  0  0  0  0  0  0
   20.9070  -22.3801  -11.7355 C   0  0  0  0  0  0  0  0  0  0  0  0
   20.1549  -22.3026  -10.5643 C   0  0  0  0  0  0  0  0  0  0  0  0
   19.6974  -23.5406  -10.3205 N   0  0  0  0  0  0  0  0  0  0  0  0
   20.1368  -24.3589  -11.2863 C   0  0  0  0  0  0  0  0  0  0  0  0
   20.8846  -23.6672  -12.1709 N   0  0  0  0  0  0  0  0  0  0  0  0
   23.7950  -20.2800  -12.8721 C   0  0  0  0  0  0  0  0  0  0  0  0
   23.6954  -19.0747  -12.4609 O   0  0  0  0  0  0  0  0  0  0  0  0
   27.4141  -19.9609  -13.6730 C   0  0  0  0  0  0  0  0  0  0  0  0
   26.7046  -19.7119  -14.9905 C   0  0  1  0  0  0  0  0  0  0  0  0
   26.8681  -20.8605  -15.9351 C   0  0  0  0  0  0  0  0  0  0  0  0
   25.2473  -19.4094  -14.6905 C   0  0  2  0  0  0  0  0  0  0  0  0
   24.5940  -20.4965  -14.0236 N   0  0  0  0  0  0  0  0  0  0  0  0
   24.5232  -18.9752  -15.9102 C   0  0  0  0  0  0  0  0  0  0  0  0
   23.8904  -19.7879  -16.6200 O   0  0  0  0  0  0  0  0  0  0  0  0
   24.5357  -17.6238  -16.2959 N   0  0  0  0  0  0  0  0  0  0  0  0
   23.8262  -17.0515  -17.4018 C   0  0  1  0  0  0  0  0  0  0  0  0
   22.5998  -16.2759  -17.0961 C   0  0  0  0  0  0  0  0  0  0  0  0
   22.7312  -14.9448  -16.4737 C   0  0  0  0  0  0  0  0  0  0  0  0
   21.5209  -14.1732  -16.2465 C   0  0  0  0  0  0  0  0  0  0  0  0
   21.3309  -13.0425  -16.7204 O   0  0  0  0  0  0  0  0  0  0  0  0
   24.7422  -16.3276  -18.3400 C   0  0  0  0  0  0  0  0  0  0  0  0
   24.2560  -16.0266  -19.6045 O   0  0  0  0  0  0  0  0  0  0  0  0
   20.5006  -14.7043  -15.4577 O   0  0  0  0  0  0  0  0  0  0  0  0
   25.9053  -15.9806  -18.0590 O   0  0  0  0  0  0  0  0  0  0  0  0
  2  1  1  1
  3  2  1  0
  4  3  1  0
  5  4  2  0
  6  5  1  0
  7  6  1  0
  7  8  2  0
  8  4  1  0
  9  2  1  0
 10  9  2  0
 12 11  1  1
 13 12  1  0
 14 15  1  6
 14 12  1  0
 15  9  1  0
 16 17  2  0
 16 14  1  0
 18 16  1  0
 19 24  1  0
 19 18  1  0
 19 20  1  1
 21 22  1  0
 21 20  1  0
 22 26  1  0
 23 22  2  0
 24 25  1  0
 27 24  2  0
M  END
$$$$
