HVE.pdb
     RDKit          3D

 27 27  0  0  1  0  0  0  0  0999 V2000
   22.0833  -14.1494  -17.9054 N   0  0  0  0  0  0  0  0  0  0  0  0
   22.6075  -12.8679  -18.3953 C   0  0  1  0  0  0  0  0  0  0  0  0
   21.4881  -12.2860  -19.2575 C   0  0  0  0  0  0  0  0  0  0  0  0
   21.3699  -13.0943  -20.4968 C   0  0  0  0  0  0  0  0  0  0  0  0
   22.2212  -14.1568  -20.7960 C   0  0  0  0  0  0  0  0  0  0  0  0
   21.8216  -14.6457  -21.9804 N   0  0  0  0  0  0  0  0  0  0  0  0
   20.7726  -13.9303  -22.4085 C   0  0  0  0  0  0  0  0  0  0  0  0
   20.4746  -12.9679  -21.5112 N   0  0  0  0  0  0  0  0  0  0  0  0
   22.8888  -11.9533  -17.2711 C   0  0  0  0  0  0  0  0  0  0  0  0
   22.0433  -11.8333  -16.3212 O   0  0  0  0  0  0  0  0  0  0  0  0
   26.1384  -11.6351  -15.2803 C   0  0  0  0  0  0  0  0  0  0  0  0
   25.7181  -10.2205  -15.6313 C   0  0  1  0  0  0  0  0  0  0  0  0
   26.6263   -9.6079  -16.6503 C   0  0  0  0  0  0  0  0  0  0  0  0
   24.2715  -10.2595  -16.0910 C   0  0  2  0  0  0  0  0  0  0  0  0
   24.0714  -11.1766  -17.1738 N   0  0  0  0  0  0  0  0  0  0  0  0
   23.7653   -8.8997  -16.3989 C   0  0  0  0  0  0  0  0  0  0  0  0
   23.9163   -8.3852  -17.5291 O   0  0  0  0  0  0  0  0  0  0  0  0
   23.0979   -8.1540  -15.4121 N   0  0  0  0  0  0  0  0  0  0  0  0
   22.3197   -6.9696  -15.6264 C   0  0  1  0  0  0  0  0  0  0  0  0
   21.3241   -6.9985  -16.7252 C   0  0  0  0  0  0  0  0  0  0  0  0
   20.4687   -5.8173  -16.9473 C   0  0  0  0  0  0  0  0  0  0  0  0
   19.5045   -5.8653  -18.0335 C   0  0  0  0  0  0  0  0  0  0  0  0
   19.3908   -6.8294  -18.8058 O   0  0  0  0  0  0  0  0  0  0  0  0
   21.7469   -6.4378  -14.3489 C   0  0  0  0  0  0  0  0  0  0  0  0
   21.3361   -5.1122  -14.3344 O   0  0  0  0  0  0  0  0  0  0  0  0
   18.6478   -4.7852  -18.2453 O   0  0  0  0  0  0  0  0  0  0  0  0
   21.6163   -7.1055  -13.3052 O   0  0  0  0  0  0  0  0  0  0  0  0
  2  1  1  1
  3  2  1  0
  4  3  1  0
  5  4  2  0
  6  5  1  0
  7  6  1  0
  7  8  2  0
  8  4  1  0
  9  2  1  0
 10  9  2  0
 12 11  1  6
 13 12  1  0
 14 15  1  6
 14 12  1  0
 15  9  1  0
 16 17  2  0
 16 14  1  0
 18 16  1  0
 19 24  1  0
 19 18  1  0
 19 20  1  6
 21 22  1  0
 21 20  1  0
 22 26  1  0
 23 22  2  0
 24 25  1  0
 27 24  2  0
M  END
$$$$
