HVE.pdb
     RDKit          3D

 27 27  0  0  1  0  0  0  0  0999 V2000
   19.9059  -14.9618  -17.9206 N   0  0  0  0  0  0  0  0  0  0  0  0
   19.8338  -14.2124  -16.6595 C   0  0  1  0  0  0  0  0  0  0  0  0
   21.1580  -14.4989  -15.9527 C   0  0  0  0  0  0  0  0  0  0  0  0
   21.2076  -15.9387  -15.5956 C   0  0  0  0  0  0  0  0  0  0  0  0
   20.5004  -16.4814  -14.5238 C   0  0  0  0  0  0  0  0  0  0  0  0
   20.7830  -17.7933  -14.5039 N   0  0  0  0  0  0  0  0  0  0  0  0
   21.6248  -18.0668  -15.5098 C   0  0  0  0  0  0  0  0  0  0  0  0
   21.9016  -16.9398  -16.1978 N   0  0  0  0  0  0  0  0  0  0  0  0
   19.7172  -12.7636  -16.9176 C   0  0  0  0  0  0  0  0  0  0  0  0
   20.4154  -12.2230  -17.8406 O   0  0  0  0  0  0  0  0  0  0  0  0
   16.8830   -8.8781  -17.0961 C   0  0  0  0  0  0  0  0  0  0  0  0
   17.1749  -10.3666  -17.0857 C   0  0  1  0  0  0  0  0  0  0  0  0
   16.9220  -10.9915  -18.4213 C   0  0  0  0  0  0  0  0  0  0  0  0
   18.6047  -10.5627  -16.6139 C   0  0  2  0  0  0  0  0  0  0  0  0
   18.8549  -11.9073  -16.1864 N   0  0  0  0  0  0  0  0  0  0  0  0
   18.9761   -9.5619  -15.5839 C   0  0  0  0  0  0  0  0  0  0  0  0
   18.5100   -9.6121  -14.4243 O   0  0  0  0  0  0  0  0  0  0  0  0
   19.8709   -8.5244  -15.8972 N   0  0  0  0  0  0  0  0  0  0  0  0
   20.3393   -7.5095  -15.0001 C   0  0  1  0  0  0  0  0  0  0  0  0
   21.3523   -6.5580  -15.5175 C   0  0  0  0  0  0  0  0  0  0  0  0
   21.9364   -5.5638  -14.5973 C   0  0  0  0  0  0  0  0  0  0  0  0
   22.9321   -4.6458  -15.1242 C   0  0  0  0  0  0  0  0  0  0  0  0
   23.5627   -4.8483  -16.1732 O   0  0  0  0  0  0  0  0  0  0  0  0
   19.2106   -6.8185  -14.2987 C   0  0  0  0  0  0  0  0  0  0  0  0
   19.2851   -6.7116  -12.9170 O   0  0  0  0  0  0  0  0  0  0  0  0
   23.2170   -3.4662  -14.4367 O   0  0  0  0  0  0  0  0  0  0  0  0
   18.2157   -6.3365  -14.8733 O   0  0  0  0  0  0  0  0  0  0  0  0
  2  1  1  6
  3  2  1  0
  4  3  1  0
  5  4  2  0
  6  5  1  0
  7  6  1  0
  7  8  2  0
  8  4  1  0
  9  2  1  0
 10  9  2  0
 12 11  1  6
 13 12  1  0
 14 15  1  1
 14 12  1  0
 15  9  1  0
 16 17  2  0
 16 14  1  0
 18 16  1  0
 19 24  1  0
 19 18  1  0
 19 20  1  6
 21 22  1  0
 21 20  1  0
 22 26  1  0
 23 22  2  0
 24 25  1  0
 27 24  2  0
M  END
$$$$
