HVE.pdb
     RDKit          3D

 27 27  0  0  1  0  0  0  0  0999 V2000
   18.3879  -12.6517  -17.2494 N   0  0  0  0  0  0  0  0  0  0  0  0
   19.2622  -11.5573  -17.6912 C   0  0  1  0  0  0  0  0  0  0  0  0
   18.4029  -10.7224  -18.6397 C   0  0  0  0  0  0  0  0  0  0  0  0
   18.2796  -11.4423  -19.9318 C   0  0  0  0  0  0  0  0  0  0  0  0
   17.2027  -12.2719  -20.2406 C   0  0  0  0  0  0  0  0  0  0  0  0
   17.4270  -12.7463  -21.4760 N   0  0  0  0  0  0  0  0  0  0  0  0
   18.5848  -12.2436  -21.9256 C   0  0  0  0  0  0  0  0  0  0  0  0
   19.1297  -11.4364  -20.9919 N   0  0  0  0  0  0  0  0  0  0  0  0
   19.6799  -10.7260  -16.5450 C   0  0  0  0  0  0  0  0  0  0  0  0
   18.8326  -10.4163  -15.6408 O   0  0  0  0  0  0  0  0  0  0  0  0
   23.5879  -10.5746  -15.2467 C   0  0  0  0  0  0  0  0  0  0  0  0
   22.3968  -10.2536  -14.3641 C   0  0  1  0  0  0  0  0  0  0  0  0
   22.8010   -9.4933  -13.1406 C   0  0  0  0  0  0  0  0  0  0  0  0
   21.3773   -9.5043  -15.2034 C   0  0  2  0  0  0  0  0  0  0  0  0
   20.9996  -10.2343  -16.3771 N   0  0  0  0  0  0  0  0  0  0  0  0
   21.8392   -8.1295  -15.5150 C   0  0  0  0  0  0  0  0  0  0  0  0
   22.5507   -7.8889  -16.5153 O   0  0  0  0  0  0  0  0  0  0  0  0
   21.4810   -7.0575  -14.6797 N   0  0  0  0  0  0  0  0  0  0  0  0
   21.7480   -5.6700  -14.9201 C   0  0  1  0  0  0  0  0  0  0  0  0
   21.0906   -5.0432  -16.0923 C   0  0  0  0  0  0  0  0  0  0  0  0
   21.3091   -3.6076  -16.3527 C   0  0  0  0  0  0  0  0  0  0  0  0
   20.6239   -3.0054  -17.4840 C   0  0  0  0  0  0  0  0  0  0  0  0
   19.9074   -3.6446  -18.2695 O   0  0  0  0  0  0  0  0  0  0  0  0
   21.6037   -4.8488  -13.6759 C   0  0  0  0  0  0  0  0  0  0  0  0
   22.2704   -3.6324  -13.6308 O   0  0  0  0  0  0  0  0  0  0  0  0
   20.7598   -1.6386  -17.7264 O   0  0  0  0  0  0  0  0  0  0  0  0
   20.9274   -5.1860  -12.6854 O   0  0  0  0  0  0  0  0  0  0  0  0
  2  1  1  1
  3  2  1  0
  4  3  1  0
  5  4  2  0
  6  5  1  0
  7  6  1  0
  7  8  2  0
  8  4  1  0
  9  2  1  0
 10  9  2  0
 12 11  1  6
 13 12  1  0
 14 15  1  6
 14 12  1  0
 15  9  1  0
 16 17  2  0
 16 14  1  0
 18 16  1  0
 19 24  1  0
 19 18  1  0
 19 20  1  6
 21 22  1  0
 21 20  1  0
 22 26  1  0
 23 22  2  0
 24 25  1  0
 27 24  2  0
M  END
$$$$
