HIM.pdb
     RDKit          3D

 27 27  0  0  1  0  0  0  0  0999 V2000
   24.4755  -20.7473  -13.9170 N   0  0  0  0  0  0  0  0  0  0  0  0
   23.8230  -20.1023  -12.8092 C   0  0  1  0  0  0  0  0  0  0  0  0
   22.3803  -19.8783  -13.2164 C   0  0  0  0  0  0  0  0  0  0  0  0
   22.4095  -18.9556  -14.3802 C   0  0  0  0  0  0  0  0  0  0  0  0
   23.1028  -17.7747  -14.5391 C   0  0  0  0  0  0  0  0  0  0  0  0
   22.8514  -17.2416  -15.7495 N   0  0  0  0  0  0  0  0  0  0  0  0
   21.9940  -18.0868  -16.3643 C   0  0  0  0  0  0  0  0  0  0  0  0
   21.7232  -19.1258  -15.5401 N   0  0  0  0  0  0  0  0  0  0  0  0
   23.8896  -20.9588  -11.5544 C   0  0  0  0  0  0  0  0  0  0  0  0
   23.4881  -22.1525  -11.6197 O   0  0  0  0  0  0  0  0  0  0  0  0
   26.8326  -18.9247   -6.7907 C   0  0  0  0  0  0  0  0  0  0  0  0
   25.6215  -19.1919   -7.6840 C   0  0  0  0  0  0  0  0  0  0  0  0
   25.6732  -20.5943   -8.2423 C   0  0  2  0  0  0  0  0  0  0  0  0
   27.0280  -20.7803   -8.8839 C   0  0  0  0  0  0  0  0  0  0  0  0
   24.5321  -21.0085   -9.0771 C   0  0  2  0  0  0  0  0  0  0  0  0
   24.3914  -20.4035  -10.3663 N   0  0  0  0  0  0  0  0  0  0  0  0
   23.2832  -21.0723   -8.3182 C   0  0  0  0  0  0  0  0  0  0  0  0
   22.4938  -20.0688   -8.3835 O   0  0  0  0  0  0  0  0  0  0  0  0
   17.2903  -25.1268   -7.0706 C   0  0  0  0  0  0  0  0  0  0  0  0
   18.7843  -25.0208   -6.1377 S   0  0  0  0  0  0  0  0  0  0  0  0
   19.6400  -23.4566   -6.1229 C   0  0  0  0  0  0  0  0  0  0  0  0
   20.9389  -23.4390   -6.8638 C   0  0  0  0  0  0  0  0  0  0  0  0
   21.6036  -22.1094   -6.8128 C   0  0  2  0  0  0  0  0  0  0  0  0
   22.9045  -22.1769   -7.5232 N   0  0  0  0  0  0  0  0  0  0  0  0
   21.8908  -21.6732   -5.4150 C   0  0  0  0  0  0  0  0  0  0  0  0
   20.9526  -21.1263   -4.6106 O   0  0  0  0  0  0  0  0  0  0  0  0
   23.0799  -21.8227   -4.9544 O   0  0  0  0  0  0  0  0  0  0  0  0
  2  1  1  6
  3  2  1  0
  4  8  1  0
  4  3  1  0
  5  4  2  0
  6  5  1  0
  6  7  1  0
  7  8  2  0
  9 10  2  0
  9  2  1  0
 12 11  1  0
 13 12  1  0
 13 14  1  6
 15 13  1  0
 15 16  1  6
 16  9  1  0
 17 15  1  0
 18 17  2  0
 20 21  1  0
 20 19  1  0
 22 21  1  0
 23 22  1  1
 23 24  1  0
 24 17  1  0
 25 26  1  0
 25 23  1  0
 27 25  2  0
M  END
$$$$
