HIM.pdb
     RDKit          3D

 27 27  0  0  1  0  0  0  0  0999 V2000
   23.4173  -12.9022  -18.4385 N   0  0  0  0  0  0  0  0  0  0  0  0
   23.6605  -11.6682  -19.1365 C   0  0  1  0  0  0  0  0  0  0  0  0
   22.3679  -10.8775  -19.0984 C   0  0  0  0  0  0  0  0  0  0  0  0
   21.3715  -11.6614  -19.8724 C   0  0  0  0  0  0  0  0  0  0  0  0
   20.0882  -12.0255  -19.5246 C   0  0  0  0  0  0  0  0  0  0  0  0
   19.5178  -12.7391  -20.5135 N   0  0  0  0  0  0  0  0  0  0  0  0
   20.4422  -12.8300  -21.4958 C   0  0  0  0  0  0  0  0  0  0  0  0
   21.5659  -12.1796  -21.1131 N   0  0  0  0  0  0  0  0  0  0  0  0
   24.7824  -10.8762  -18.4834 C   0  0  0  0  0  0  0  0  0  0  0  0
   24.6869  -10.5987  -17.2569 O   0  0  0  0  0  0  0  0  0  0  0  0
   30.4914  -10.2870  -17.5815 C   0  0  0  0  0  0  0  0  0  0  0  0
   29.5596   -9.5946  -18.5756 C   0  0  0  0  0  0  0  0  0  0  0  0
   28.3376  -10.4430  -18.8369 C   0  0  2  0  0  0  0  0  0  0  0  0
   28.6202  -11.2861  -20.0579 C   0  0  0  0  0  0  0  0  0  0  0  0
   27.0442   -9.7379  -18.8586 C   0  0  2  0  0  0  0  0  0  0  0  0
   25.8852  -10.4775  -19.2558 N   0  0  0  0  0  0  0  0  0  0  0  0
   27.1416   -8.4182  -19.4822 C   0  0  0  0  0  0  0  0  0  0  0  0
   26.7157   -8.2924  -20.6811 O   0  0  0  0  0  0  0  0  0  0  0  0
   24.0560   -2.3076  -21.6248 C   0  0  0  0  0  0  0  0  0  0  0  0
   24.3181   -3.7939  -20.7106 S   0  0  0  0  0  0  0  0  0  0  0  0
   26.0030   -4.2727  -20.3773 C   0  0  0  0  0  0  0  0  0  0  0  0
   26.1683   -5.6370  -19.7877 C   0  0  0  0  0  0  0  0  0  0  0  0
   27.5941   -5.9780  -19.5363 C   0  0  2  0  0  0  0  0  0  0  0  0
   27.6763   -7.2826  -18.8342 N   0  0  0  0  0  0  0  0  0  0  0  0
   28.2726   -4.9711  -18.6688 C   0  0  0  0  0  0  0  0  0  0  0  0
   28.7318   -5.2607  -17.4314 O   0  0  0  0  0  0  0  0  0  0  0  0
   28.4277   -3.7772  -19.1152 O   0  0  0  0  0  0  0  0  0  0  0  0
  2  1  1  1
  3  2  1  0
  4  8  1  0
  4  3  1  0
  5  4  2  0
  6  5  1  0
  6  7  1  0
  7  8  2  0
  9 10  2  0
  9  2  1  0
 12 11  1  0
 13 12  1  0
 13 14  1  6
 15 13  1  0
 15 16  1  6
 16  9  1  0
 17 15  1  0
 18 17  2  0
 20 21  1  0
 20 19  1  0
 22 21  1  0
 23 22  1  1
 23 24  1  0
 24 17  1  0
 25 26  1  0
 25 23  1  0
 27 25  2  0
M  END
$$$$
