HIM.pdb
     RDKit          3D

 27 27  0  0  1  0  0  0  0  0999 V2000
   18.4727  -13.3944  -16.4895 N   0  0  0  0  0  0  0  0  0  0  0  0
   18.3404  -11.9982  -16.1697 C   0  0  1  0  0  0  0  0  0  0  0  0
   17.4291  -11.9065  -14.9619 C   0  0  0  0  0  0  0  0  0  0  0  0
   16.0769  -12.3135  -15.4227 C   0  0  0  0  0  0  0  0  0  0  0  0
   15.4319  -13.5225  -15.2721 C   0  0  0  0  0  0  0  0  0  0  0  0
   14.2123  -13.4784  -15.8403 N   0  0  0  0  0  0  0  0  0  0  0  0
   14.0798  -12.2355  -16.3553 C   0  0  0  0  0  0  0  0  0  0  0  0
   15.2053  -11.5263  -16.1054 N   0  0  0  0  0  0  0  0  0  0  0  0
   19.6912  -11.3724  -15.8596 C   0  0  0  0  0  0  0  0  0  0  0  0
   20.3659  -11.8425  -14.9034 O   0  0  0  0  0  0  0  0  0  0  0  0
   23.6947  -11.2069  -19.0020 C   0  0  0  0  0  0  0  0  0  0  0  0
   22.7835  -11.1431  -17.7766 C   0  0  0  0  0  0  0  0  0  0  0  0
   22.4234   -9.7115  -17.4571 C   0  0  2  0  0  0  0  0  0  0  0  0
   23.7048   -8.9804  -17.1325 C   0  0  0  0  0  0  0  0  0  0  0  0
   21.3349   -9.5122  -16.4846 C   0  0  2  0  0  0  0  0  0  0  0  0
   20.1480  -10.2969  -16.6383 N   0  0  0  0  0  0  0  0  0  0  0  0
   21.0741   -8.0964  -16.2254 C   0  0  0  0  0  0  0  0  0  0  0  0
   20.4172   -7.4404  -17.1044 O   0  0  0  0  0  0  0  0  0  0  0  0
   16.9609   -2.4538  -14.4651 C   0  0  0  0  0  0  0  0  0  0  0  0
   17.5271   -4.1174  -14.6242 S   0  0  0  0  0  0  0  0  0  0  0  0
   19.2866   -4.3844  -14.7339 C   0  0  0  0  0  0  0  0  0  0  0  0
   19.6978   -5.8028  -14.9691 C   0  0  0  0  0  0  0  0  0  0  0  0
   21.1743   -5.9794  -14.9328 C   0  0  2  0  0  0  0  0  0  0  0  0
   21.5055   -7.4199  -15.0627 N   0  0  0  0  0  0  0  0  0  0  0  0
   21.7694   -5.5080  -13.6481 C   0  0  0  0  0  0  0  0  0  0  0  0
   22.0544   -4.2095  -13.4054 O   0  0  0  0  0  0  0  0  0  0  0  0
   22.0226   -6.3715  -12.7323 O   0  0  0  0  0  0  0  0  0  0  0  0
  2  1  1  1
  3  2  1  0
  4  8  1  0
  4  3  1  0
  5  4  2  0
  6  5  1  0
  6  7  1  0
  7  8  2  0
  9 10  2  0
  9  2  1  0
 12 11  1  0
 13 12  1  0
 13 14  1  1
 15 13  1  0
 15 16  1  6
 16  9  1  0
 17 15  1  0
 18 17  2  0
 20 21  1  0
 20 19  1  0
 22 21  1  0
 23 22  1  1
 23 24  1  0
 24 17  1  0
 25 26  1  0
 25 23  1  0
 27 25  2  0
M  END
$$$$
