HIM.pdb
     RDKit          3D

 27 27  0  0  1  0  0  0  0  0999 V2000
   23.4010   -5.6346  -65.1751 N   0  0  0  0  0  0  0  0  0  0  0  0
   22.7354   -5.3370  -63.9351 C   0  0  1  0  0  0  0  0  0  0  0  0
   23.0701   -3.8998  -63.5885 C   0  0  0  0  0  0  0  0  0  0  0  0
   24.5049   -3.7092  -63.9221 C   0  0  0  0  0  0  0  0  0  0  0  0
   25.1611   -2.5668  -64.3280 C   0  0  0  0  0  0  0  0  0  0  0  0
   26.4672   -2.8222  -64.5312 N   0  0  0  0  0  0  0  0  0  0  0  0
   26.6438   -4.1334  -64.2533 C   0  0  0  0  0  0  0  0  0  0  0  0
   25.4595   -4.6750  -63.8842 N   0  0  0  0  0  0  0  0  0  0  0  0
   21.2301   -5.5122  -64.0605 C   0  0  0  0  0  0  0  0  0  0  0  0
   20.7924   -6.4716  -64.7522 O   0  0  0  0  0  0  0  0  0  0  0  0
   21.2741   -2.7644  -62.6992 C   0  0  0  0  0  0  0  0  0  0  0  0
   20.8330   -2.8740  -61.2400 C   0  0  0  0  0  0  0  0  0  0  0  0
   19.7908   -3.9555  -61.0806 C   0  0  2  0  0  0  0  0  0  0  0  0
   20.0957   -4.6978  -59.8008 C   0  0  0  0  0  0  0  0  0  0  0  0
   19.5564   -4.8159  -62.2532 C   0  0  2  0  0  0  0  0  0  0  0  0
   20.3742   -4.6094  -63.4093 N   0  0  0  0  0  0  0  0  0  0  0  0
   18.1334   -4.9630  -62.5585 C   0  0  0  0  0  0  0  0  0  0  0  0
   17.3698   -5.4153  -61.6382 O   0  0  0  0  0  0  0  0  0  0  0  0
   16.9957  -10.1033  -65.7511 C   0  0  0  0  0  0  0  0  0  0  0  0
   17.1376   -8.4568  -65.1327 S   0  0  0  0  0  0  0  0  0  0  0  0
   15.9019   -7.8999  -63.9741 C   0  0  0  0  0  0  0  0  0  0  0  0
   16.1793   -6.5733  -63.3422 C   0  0  0  0  0  0  0  0  0  0  0  0
   16.5032   -5.5235  -64.3448 C   0  0  2  0  0  0  0  0  0  0  0  0
   17.5612   -4.6329  -63.8072 N   0  0  0  0  0  0  0  0  0  0  0  0
   15.3269   -4.6623  -64.6632 C   0  0  0  0  0  0  0  0  0  0  0  0
   15.4376   -3.4796  -65.3074 O   0  0  0  0  0  0  0  0  0  0  0  0
   14.1581   -5.0601  -64.3108 O   0  0  0  0  0  0  0  0  0  0  0  0
  2  1  1  6
  3  2  1  0
  4  8  1  0
  4  3  1  0
  5  4  2  0
  6  5  1  0
  6  7  1  0
  7  8  2  0
  9 10  2  0
  9  2  1  0
 12 11  1  0
 13 12  1  0
 13 14  1  1
 15 13  1  0
 15 16  1  6
 16  9  1  0
 17 15  1  0
 18 17  2  0
 20 21  1  0
 20 19  1  0
 22 21  1  0
 23 22  1  1
 23 24  1  0
 24 17  1  0
 25 26  1  0
 25 23  1  0
 27 25  2  0
M  END
$$$$
