HIM.pdb
     RDKit          3D

 27 27  0  0  1  0  0  0  0  0999 V2000
   27.9570  -21.8188  -15.9811 N   0  0  0  0  0  0  0  0  0  0  0  0
   27.1398  -20.7207  -15.5390 C   0  0  1  0  0  0  0  0  0  0  0  0
   26.6060  -20.0389  -16.7831 C   0  0  0  0  0  0  0  0  0  0  0  0
   27.7565  -19.3330  -17.4031 C   0  0  0  0  0  0  0  0  0  0  0  0
   28.4900  -19.6746  -18.5193 C   0  0  0  0  0  0  0  0  0  0  0  0
   29.4549  -18.7632  -18.7444 N   0  0  0  0  0  0  0  0  0  0  0  0
   29.3355  -17.8368  -17.7671 C   0  0  0  0  0  0  0  0  0  0  0  0
   28.3093  -18.1768  -16.9526 N   0  0  0  0  0  0  0  0  0  0  0  0
   25.9904  -21.2034  -14.6681 C   0  0  0  0  0  0  0  0  0  0  0  0
   25.2496  -22.1247  -15.1073 O   0  0  0  0  0  0  0  0  0  0  0  0
   26.6417  -20.8294   -9.1015 C   0  0  0  0  0  0  0  0  0  0  0  0
   26.3269  -21.3096  -10.5179 C   0  0  0  0  0  0  0  0  0  0  0  0
   25.0620  -20.6615  -11.0290 C   0  0  2  0  0  0  0  0  0  0  0  0
   23.9468  -21.0243  -10.0770 C   0  0  0  0  0  0  0  0  0  0  0  0
   24.7503  -20.8693  -12.4539 C   0  0  2  0  0  0  0  0  0  0  0  0
   25.7851  -20.6160  -13.4093 N   0  0  0  0  0  0  0  0  0  0  0  0
   23.4542  -20.3030  -12.8270 C   0  0  0  0  0  0  0  0  0  0  0  0
   23.4492  -19.1993  -13.4722 O   0  0  0  0  0  0  0  0  0  0  0  0
   18.8622  -20.9641  -18.3851 C   0  0  0  0  0  0  0  0  0  0  0  0
   20.2162  -21.2674  -17.2951 S   0  0  0  0  0  0  0  0  0  0  0  0
   20.0492  -20.7348  -15.6017 C   0  0  0  0  0  0  0  0  0  0  0  0
   21.2442  -20.9860  -14.7386 C   0  0  0  0  0  0  0  0  0  0  0  0
   21.0358  -20.5376  -13.3358 C   0  0  2  0  0  0  0  0  0  0  0  0
   22.2158  -20.9073  -12.5158 N   0  0  0  0  0  0  0  0  0  0  0  0
   19.8464  -21.1823  -12.7061 C   0  0  0  0  0  0  0  0  0  0  0  0
   19.8721  -22.4376  -12.2064 O   0  0  0  0  0  0  0  0  0  0  0  0
   18.7502  -20.5177  -12.6350 O   0  0  0  0  0  0  0  0  0  0  0  0
  2  1  1  6
  3  2  1  0
  4  8  1  0
  4  3  1  0
  5  4  2  0
  6  5  1  0
  6  7  1  0
  7  8  2  0
  9 10  2  0
  9  2  1  0
 12 11  1  0
 13 12  1  0
 13 14  1  1
 15 13  1  0
 15 16  1  6
 16  9  1  0
 17 15  1  0
 18 17  2  0
 20 21  1  0
 20 19  1  0
 22 21  1  0
 23 22  1  6
 23 24  1  0
 24 17  1  0
 25 26  1  0
 25 23  1  0
 27 25  2  0
M  END
$$$$
