HIM.pdb
     RDKit          3D

 27 27  0  0  1  0  0  0  0  0999 V2000
   27.9111  -20.7575  -16.1856 N   0  0  0  0  0  0  0  0  0  0  0  0
   27.0455  -19.8150  -15.5287 C   0  0  1  0  0  0  0  0  0  0  0  0
   26.3376  -19.0329  -16.6171 C   0  0  0  0  0  0  0  0  0  0  0  0
   27.3820  -18.2352  -17.3097 C   0  0  0  0  0  0  0  0  0  0  0  0
   27.8834  -18.3768  -18.5860 C   0  0  0  0  0  0  0  0  0  0  0  0
   28.8263  -17.4463  -18.8262 N   0  0  0  0  0  0  0  0  0  0  0  0
   28.9259  -16.7087  -17.6976 C   0  0  0  0  0  0  0  0  0  0  0  0
   28.0540  -17.1819  -16.7766 N   0  0  0  0  0  0  0  0  0  0  0  0
   26.0314  -20.5214  -14.6426 C   0  0  0  0  0  0  0  0  0  0  0  0
   25.6081  -21.6546  -14.9992 O   0  0  0  0  0  0  0  0  0  0  0  0
   26.7576  -21.7820  -10.8756 C   0  0  0  0  0  0  0  0  0  0  0  0
   26.3621  -20.3382  -10.5678 C   0  0  0  0  0  0  0  0  0  0  0  0
   24.9626  -20.0549  -11.0603 C   0  0  2  0  0  0  0  0  0  0  0  0
   23.9984  -20.6595  -10.0671 C   0  0  0  0  0  0  0  0  0  0  0  0
   24.6858  -20.3843  -12.4693 C   0  0  2  0  0  0  0  0  0  0  0  0
   25.5961  -19.8992  -13.4614 N   0  0  0  0  0  0  0  0  0  0  0  0
   23.2784  -20.1917  -12.8185 C   0  0  0  0  0  0  0  0  0  0  0  0
   22.7959  -19.0118  -12.7208 O   0  0  0  0  0  0  0  0  0  0  0  0
   19.2331  -21.6981  -18.0068 C   0  0  0  0  0  0  0  0  0  0  0  0
   20.9367  -21.8056  -17.5600 S   0  0  0  0  0  0  0  0  0  0  0  0
   21.4243  -21.1157  -15.9898 C   0  0  0  0  0  0  0  0  0  0  0  0
   20.6037  -21.5598  -14.8213 C   0  0  0  0  0  0  0  0  0  0  0  0
   21.0153  -20.8983  -13.5543 C   0  0  2  0  0  0  0  0  0  0  0  0
   22.4298  -21.2328  -13.2562 N   0  0  0  0  0  0  0  0  0  0  0  0
   20.2032  -21.3536  -12.3881 C   0  0  0  0  0  0  0  0  0  0  0  0
   20.6637  -22.2366  -11.4746 O   0  0  0  0  0  0  0  0  0  0  0  0
   19.0154  -20.8880  -12.2444 O   0  0  0  0  0  0  0  0  0  0  0  0
  2  1  1  6
  3  2  1  0
  4  8  1  0
  4  3  1  0
  5  4  2  0
  6  5  1  0
  6  7  1  0
  7  8  2  0
  9 10  2  0
  9  2  1  0
 12 11  1  0
 13 12  1  0
 13 14  1  1
 15 13  1  0
 15 16  1  6
 16  9  1  0
 17 15  1  0
 18 17  2  0
 20 21  1  0
 20 19  1  0
 22 21  1  0
 23 22  1  6
 23 24  1  0
 24 17  1  0
 25 26  1  0
 25 23  1  0
 27 25  2  0
M  END
$$$$
