HIM.pdb
     RDKit          3D

 27 27  0  0  1  0  0  0  0  0999 V2000
   20.5852  -12.4082  -18.5781 N   0  0  0  0  0  0  0  0  0  0  0  0
   21.2860  -11.1842  -18.8606 C   0  0  1  0  0  0  0  0  0  0  0  0
   20.3623  -10.3323  -19.7083 C   0  0  0  0  0  0  0  0  0  0  0  0
   20.2613  -11.0059  -21.0283 C   0  0  0  0  0  0  0  0  0  0  0  0
   20.8170  -10.6434  -22.2367 C   0  0  0  0  0  0  0  0  0  0  0  0
   20.4787  -11.5278  -23.1937 N   0  0  0  0  0  0  0  0  0  0  0  0
   19.7037  -12.4579  -22.5921 C   0  0  0  0  0  0  0  0  0  0  0  0
   19.5689  -12.1469  -21.2816 N   0  0  0  0  0  0  0  0  0  0  0  0
   21.6532  -10.4502  -17.5804 C   0  0  0  0  0  0  0  0  0  0  0  0
   20.8190  -10.4373  -16.6347 O   0  0  0  0  0  0  0  0  0  0  0  0
   27.1046  -10.4571  -15.9540 C   0  0  0  0  0  0  0  0  0  0  0  0
   25.9181   -9.8340  -16.6888 C   0  0  0  0  0  0  0  0  0  0  0  0
   24.7127   -9.7585  -15.7818 C   0  0  2  0  0  0  0  0  0  0  0  0
   24.5170  -11.1250  -15.1685 C   0  0  0  0  0  0  0  0  0  0  0  0
   23.4963   -9.1603  -16.3589 C   0  0  2  0  0  0  0  0  0  0  0  0
   22.9000   -9.8111  -17.4854 N   0  0  0  0  0  0  0  0  0  0  0  0
   23.6086   -7.7097  -16.5096 C   0  0  0  0  0  0  0  0  0  0  0  0
   24.0720   -7.2588  -17.6125 O   0  0  0  0  0  0  0  0  0  0  0  0
   20.9744   -1.5387  -19.1185 C   0  0  0  0  0  0  0  0  0  0  0  0
   21.1731   -3.2396  -18.6933 S   0  0  0  0  0  0  0  0  0  0  0  0
   22.2685   -3.6310  -17.3419 C   0  0  0  0  0  0  0  0  0  0  0  0
   22.3626   -5.0847  -17.0043 C   0  0  0  0  0  0  0  0  0  0  0  0
   23.2623   -5.3421  -15.8482 C   0  0  2  0  0  0  0  0  0  0  0  0
   23.2336   -6.7862  -15.5085 N   0  0  0  0  0  0  0  0  0  0  0  0
   22.8409   -4.5969  -14.6260 C   0  0  0  0  0  0  0  0  0  0  0  0
   22.9562   -3.2555  -14.5094 O   0  0  0  0  0  0  0  0  0  0  0  0
   22.3473   -5.2565  -13.6412 O   0  0  0  0  0  0  0  0  0  0  0  0
  2  1  1  1
  3  2  1  0
  4  8  1  0
  4  3  1  0
  5  4  2  0
  6  5  1  0
  6  7  1  0
  7  8  2  0
  9 10  2  0
  9  2  1  0
 12 11  1  0
 13 12  1  0
 13 14  1  6
 15 13  1  0
 15 16  1  6
 16  9  1  0
 17 15  1  0
 18 17  2  0
 20 21  1  0
 20 19  1  0
 22 21  1  0
 23 22  1  6
 23 24  1  0
 24 17  1  0
 25 26  1  0
 25 23  1  0
 27 25  2  0
M  END
$$$$
