HIM.pdb
     RDKit          3D

 27 27  0  0  1  0  0  0  0  0999 V2000
   20.7118  -13.3653  -16.1812 N   0  0  0  0  0  0  0  0  0  0  0  0
   20.6876  -12.0598  -16.7846 C   0  0  1  0  0  0  0  0  0  0  0  0
   19.2384  -11.6174  -16.8216 C   0  0  0  0  0  0  0  0  0  0  0  0
   18.5281  -12.5752  -17.7074 C   0  0  0  0  0  0  0  0  0  0  0  0
   17.4701  -13.4103  -17.4179 C   0  0  0  0  0  0  0  0  0  0  0  0
   17.1225  -14.1229  -18.5059 N   0  0  0  0  0  0  0  0  0  0  0  0
   17.9630  -13.7398  -19.4931 C   0  0  0  0  0  0  0  0  0  0  0  0
   18.8157  -12.8034  -19.0153 N   0  0  0  0  0  0  0  0  0  0  0  0
   21.5214  -11.0680  -15.9885 C   0  0  0  0  0  0  0  0  0  0  0  0
   21.3053  -10.9585  -14.7509 O   0  0  0  0  0  0  0  0  0  0  0  0
   25.5297  -10.9871  -14.6296 C   0  0  0  0  0  0  0  0  0  0  0  0
   25.4536  -10.7267  -16.1337 C   0  0  0  0  0  0  0  0  0  0  0  0
   24.8027   -9.3918  -16.4088 C   0  0  2  0  0  0  0  0  0  0  0  0
   25.6549   -8.3265  -15.7602 C   0  0  0  0  0  0  0  0  0  0  0  0
   23.3621   -9.2938  -16.1161 C   0  0  2  0  0  0  0  0  0  0  0  0
   22.5010  -10.3065  -16.6460 N   0  0  0  0  0  0  0  0  0  0  0  0
   22.8505   -7.9350  -16.2940 C   0  0  0  0  0  0  0  0  0  0  0  0
   22.7925   -7.4707  -17.4838 O   0  0  0  0  0  0  0  0  0  0  0  0
   17.9535   -2.0536  -14.8389 C   0  0  0  0  0  0  0  0  0  0  0  0
   18.6238   -3.6475  -14.4874 S   0  0  0  0  0  0  0  0  0  0  0  0
   20.1990   -4.0600  -15.2138 C   0  0  0  0  0  0  0  0  0  0  0  0
   20.6565   -5.4640  -14.9776 C   0  0  0  0  0  0  0  0  0  0  0  0
   22.0070   -5.7240  -15.5440 C   0  0  2  0  0  0  0  0  0  0  0  0
   22.4186   -7.1142  -15.2285 N   0  0  0  0  0  0  0  0  0  0  0  0
   23.0456   -4.8194  -14.9696 C   0  0  0  0  0  0  0  0  0  0  0  0
   23.3656   -3.6279  -15.5209 O   0  0  0  0  0  0  0  0  0  0  0  0
   23.6633   -5.1870  -13.9057 O   0  0  0  0  0  0  0  0  0  0  0  0
  2  1  1  1
  3  2  1  0
  4  8  1  0
  4  3  1  0
  5  4  2  0
  6  5  1  0
  6  7  1  0
  7  8  2  0
  9 10  2  0
  9  2  1  0
 12 11  1  0
 13 12  1  0
 13 14  1  1
 15 13  1  0
 15 16  1  6
 16  9  1  0
 17 15  1  0
 18 17  2  0
 20 21  1  0
 20 19  1  0
 22 21  1  0
 23 22  1  1
 23 24  1  0
 24 17  1  0
 25 26  1  0
 25 23  1  0
 27 25  2  0
M  END
$$$$
