HIM.pdb
     RDKit          3D

 27 27  0  0  1  0  0  0  0  0999 V2000
   26.6726  -21.0762  -19.2258 N   0  0  0  0  0  0  0  0  0  0  0  0
   25.8927  -20.2076  -18.3853 C   0  0  1  0  0  0  0  0  0  0  0  0
   24.7226  -19.7221  -19.2175 C   0  0  0  0  0  0  0  0  0  0  0  0
   25.2706  -18.7276  -20.1751 C   0  0  0  0  0  0  0  0  0  0  0  0
   25.2599  -18.7471  -21.5535 C   0  0  0  0  0  0  0  0  0  0  0  0
   25.8672  -17.6500  -22.0437 N   0  0  0  0  0  0  0  0  0  0  0  0
   26.2665  -16.9284  -20.9725 C   0  0  0  0  0  0  0  0  0  0  0  0
   25.9080  -17.5759  -19.8391 N   0  0  0  0  0  0  0  0  0  0  0  0
   25.3930  -20.9384  -17.1488 C   0  0  0  0  0  0  0  0  0  0  0  0
   25.0928  -22.1589  -17.2525 O   0  0  0  0  0  0  0  0  0  0  0  0
   28.1617  -19.4154  -13.4694 C   0  0  0  0  0  0  0  0  0  0  0  0
   27.3406  -20.6707  -13.7627 C   0  0  0  0  0  0  0  0  0  0  0  0
   25.8718  -20.4116  -13.5244 C   0  0  2  0  0  0  0  0  0  0  0  0
   25.5082  -21.0344  -12.1972 C   0  0  0  0  0  0  0  0  0  0  0  0
   24.9606  -20.7440  -14.6334 C   0  0  2  0  0  0  0  0  0  0  0  0
   25.2793  -20.2417  -15.9350 N   0  0  0  0  0  0  0  0  0  0  0  0
   23.5547  -20.5758  -14.2663 C   0  0  0  0  0  0  0  0  0  0  0  0
   23.0867  -19.3867  -14.2275 O   0  0  0  0  0  0  0  0  0  0  0  0
   16.2347  -23.5070  -13.2367 C   0  0  0  0  0  0  0  0  0  0  0  0
   17.9577  -23.7410  -13.5369 S   0  0  0  0  0  0  0  0  0  0  0  0
   19.0277  -22.3262  -13.3559 C   0  0  0  0  0  0  0  0  0  0  0  0
   20.4367  -22.5362  -13.8106 C   0  0  0  0  0  0  0  0  0  0  0  0
   21.2861  -21.3333  -13.6013 C   0  0  2  0  0  0  0  0  0  0  0  0
   22.6917  -21.6502  -13.9556 N   0  0  0  0  0  0  0  0  0  0  0  0
   21.2851  -20.8799  -12.1797 C   0  0  0  0  0  0  0  0  0  0  0  0
   20.4216  -19.9544  -11.7063 O   0  0  0  0  0  0  0  0  0  0  0  0
   22.1408  -21.3894  -11.3693 O   0  0  0  0  0  0  0  0  0  0  0  0
  2  1  1  6
  3  2  1  0
  4  8  1  0
  4  3  1  0
  5  4  2  0
  6  5  1  0
  6  7  1  0
  7  8  2  0
  9 10  2  0
  9  2  1  0
 12 11  1  0
 13 12  1  0
 13 14  1  1
 15 13  1  0
 15 16  1  6
 16  9  1  0
 17 15  1  0
 18 17  2  0
 20 21  1  0
 20 19  1  0
 22 21  1  0
 23 22  1  1
 23 24  1  0
 24 17  1  0
 25 26  1  0
 25 23  1  0
 27 25  2  0
M  END
$$$$
