HIM.pdb
     RDKit          3D

 27 27  0  0  1  0  0  0  0  0999 V2000
   28.0600  -20.8829  -15.3661 N   0  0  0  0  0  0  0  0  0  0  0  0
   27.2427  -20.0190  -14.5568 C   0  0  1  0  0  0  0  0  0  0  0  0
   26.4292  -19.1634  -15.5074 C   0  0  0  0  0  0  0  0  0  0  0  0
   27.3886  -18.2467  -16.1751 C   0  0  0  0  0  0  0  0  0  0  0  0
   28.1510  -17.2355  -15.6305 C   0  0  0  0  0  0  0  0  0  0  0  0
   28.8915  -16.6397  -16.5840 N   0  0  0  0  0  0  0  0  0  0  0  0
   28.5993  -17.2744  -17.7414 C   0  0  0  0  0  0  0  0  0  0  0  0
   27.6903  -18.2478  -17.4997 N   0  0  0  0  0  0  0  0  0  0  0  0
   26.3220  -20.8203  -13.6497 C   0  0  0  0  0  0  0  0  0  0  0  0
   25.7915  -21.8689  -14.1071 O   0  0  0  0  0  0  0  0  0  0  0  0
   26.9798  -20.2018   -8.1567 C   0  0  0  0  0  0  0  0  0  0  0  0
   26.6459  -20.9716   -9.4341 C   0  0  0  0  0  0  0  0  0  0  0  0
   25.3073  -20.5360   -9.9814 C   0  0  2  0  0  0  0  0  0  0  0  0
   24.2395  -21.0808   -9.0623 C   0  0  0  0  0  0  0  0  0  0  0  0
   25.0744  -20.7845  -11.4148 C   0  0  2  0  0  0  0  0  0  0  0  0
   26.0883  -20.3757  -12.3384 N   0  0  0  0  0  0  0  0  0  0  0  0
   23.7200  -20.4190  -11.8289 C   0  0  0  0  0  0  0  0  0  0  0  0
   23.4187  -19.1767  -11.8533 O   0  0  0  0  0  0  0  0  0  0  0  0
   21.7523  -22.2374  -17.6237 C   0  0  0  0  0  0  0  0  0  0  0  0
   20.9067  -20.8064  -17.0315 S   0  0  0  0  0  0  0  0  0  0  0  0
   20.6525  -20.6658  -15.2723 C   0  0  0  0  0  0  0  0  0  0  0  0
   21.8410  -21.0080  -14.4318 C   0  0  0  0  0  0  0  0  0  0  0  0
   21.5657  -20.8714  -12.9765 C   0  0  2  0  0  0  0  0  0  0  0  0
   22.7338  -21.3590  -12.2022 N   0  0  0  0  0  0  0  0  0  0  0  0
   20.3872  -21.6788  -12.5450 C   0  0  0  0  0  0  0  0  0  0  0  0
   19.1232  -21.2015  -12.5702 O   0  0  0  0  0  0  0  0  0  0  0  0
   20.5800  -22.8789  -12.1315 O   0  0  0  0  0  0  0  0  0  0  0  0
  2  1  1  6
  3  2  1  0
  4  8  1  0
  4  3  1  0
  5  4  2  0
  6  5  1  0
  6  7  1  0
  7  8  2  0
  9 10  2  0
  9  2  1  0
 12 11  1  0
 13 12  1  0
 13 14  1  1
 15 13  1  0
 15 16  1  6
 16  9  1  0
 17 15  1  0
 18 17  2  0
 20 21  1  0
 20 19  1  0
 22 21  1  0
 23 22  1  6
 23 24  1  0
 24 17  1  0
 25 26  1  0
 25 23  1  0
 27 25  2  0
M  END
$$$$
