EEM.pdb
     RDKit          3D

 27 26  0  0  1  0  0  0  0  0999 V2000
   22.9700  -20.1446  -16.4549 N   0  0  0  0  0  0  0  0  0  0  0  0
   22.2104  -19.1839  -15.6847 C   0  0  1  0  0  0  0  0  0  0  0  0
   22.8901  -18.8994  -14.3957 C   0  0  0  0  0  0  0  0  0  0  0  0
   22.8554  -20.0604  -13.4608 C   0  0  0  0  0  0  0  0  0  0  0  0
   21.5033  -20.5286  -13.1000 C   0  0  0  0  0  0  0  0  0  0  0  0
   20.4426  -20.0365  -13.5440 O   0  0  0  0  0  0  0  0  0  0  0  0
   22.1088  -17.9519  -16.5287 C   0  0  0  0  0  0  0  0  0  0  0  0
   23.1383  -17.5835  -17.1421 O   0  0  0  0  0  0  0  0  0  0  0  0
   21.3701  -21.5889  -12.2068 O   0  0  0  0  0  0  0  0  0  0  0  0
   20.9388  -17.2026  -16.6647 N   0  0  0  0  0  0  0  0  0  0  0  0
   20.8491  -15.9701  -17.4964 C   0  0  1  0  0  0  0  0  0  0  0  0
   19.4177  -15.8503  -17.9072 C   0  0  0  0  0  0  0  0  0  0  0  0
   18.8287  -16.9628  -18.6917 C   0  0  0  0  0  0  0  0  0  0  0  0
   17.3790  -16.7560  -19.0070 C   0  0  0  0  0  0  0  0  0  0  0  0
   16.4355  -17.0864  -18.2811 O   0  0  0  0  0  0  0  0  0  0  0  0
   21.3865  -14.8907  -16.6768 C   0  0  0  0  0  0  0  0  0  0  0  0
   21.5632  -15.0506  -15.4173 O   0  0  0  0  0  0  0  0  0  0  0  0
   17.1335  -16.1302  -20.2435 O   0  0  0  0  0  0  0  0  0  0  0  0
   27.9210  -12.8710  -14.8690 C   0  0  0  0  0  0  0  0  0  0  0  0
   26.6344  -13.8360  -15.6876 S   0  0  0  0  0  0  0  0  0  0  0  0
   25.1078  -12.8650  -15.7431 C   0  0  0  0  0  0  0  0  0  0  0  0
   23.9924  -13.6308  -16.3936 C   0  0  0  0  0  0  0  0  0  0  0  0
   22.7544  -12.8065  -16.5342 C   0  0  2  0  0  0  0  0  0  0  0  0
   21.7381  -13.6409  -17.2071 N   0  0  0  0  0  0  0  0  0  0  0  0
   22.9152  -11.5578  -17.2830 C   0  0  0  0  0  0  0  0  0  0  0  0
   22.8756  -11.4987  -18.5342 O   0  0  0  0  0  0  0  0  0  0  0  0
   23.1221  -10.3690  -16.6073 O   0  0  0  0  0  0  0  0  0  0  0  0
  2  1  1  6
  2  3  1  0
  4  3  1  0
  4  5  1  0
  5  6  2  0
  7  2  1  0
  7  8  2  0
  9  5  1  0
 10  7  1  0
 11 10  1  0
 11 12  1  1
 13 12  1  0
 14 13  1  0
 14 15  2  0
 16 11  1  0
 17 16  2  0
 18 14  1  0
 19 20  1  0
 20 21  1  0
 22 21  1  0
 23 22  1  6
 23 24  1  0
 24 16  1  0
 25 23  1  0
 26 25  2  0
 27 25  1  0
M  END
$$$$
