EEM.pdb
     RDKit          3D

 27 26  0  0  1  0  0  0  0  0999 V2000
   11.4828  -21.6816  -11.3226 N   0  0  0  0  0  0  0  0  0  0  0  0
   12.1033  -21.4476  -10.0367 C   0  0  1  0  0  0  0  0  0  0  0  0
   11.0723  -21.1540   -9.0095 C   0  0  0  0  0  0  0  0  0  0  0  0
   10.5096  -19.7793   -9.1386 C   0  0  0  0  0  0  0  0  0  0  0  0
   10.7102  -18.9117   -7.9619 C   0  0  0  0  0  0  0  0  0  0  0  0
   10.3276  -17.7234   -7.8859 O   0  0  0  0  0  0  0  0  0  0  0  0
   12.8641  -22.6926   -9.7024 C   0  0  0  0  0  0  0  0  0  0  0  0
   12.2254  -23.7711   -9.6721 O   0  0  0  0  0  0  0  0  0  0  0  0
   11.3671  -19.4254   -6.8464 O   0  0  0  0  0  0  0  0  0  0  0  0
   14.2324  -22.7116   -9.4264 N   0  0  0  0  0  0  0  0  0  0  0  0
   14.9891  -23.9594   -9.1277 C   0  0  1  0  0  0  0  0  0  0  0  0
   16.0543  -24.0581  -10.1706 C   0  0  0  0  0  0  0  0  0  0  0  0
   15.6493  -24.4784  -11.5342 C   0  0  0  0  0  0  0  0  0  0  0  0
   16.8089  -24.6338  -12.4697 C   0  0  0  0  0  0  0  0  0  0  0  0
   17.6671  -25.5199  -12.4031 O   0  0  0  0  0  0  0  0  0  0  0  0
   15.4369  -23.8382   -7.7455 C   0  0  0  0  0  0  0  0  0  0  0  0
   15.6787  -22.6879   -7.2340 O   0  0  0  0  0  0  0  0  0  0  0  0
   16.8736  -23.6625  -13.4862 O   0  0  0  0  0  0  0  0  0  0  0  0
   14.8286  -25.9866   -0.3848 C   0  0  0  0  0  0  0  0  0  0  0  0
   14.2909  -26.1427   -2.1003 S   0  0  0  0  0  0  0  0  0  0  0  0
   15.5176  -25.3653   -3.1808 C   0  0  0  0  0  0  0  0  0  0  0  0
   15.0863  -25.4021   -4.6183 C   0  0  0  0  0  0  0  0  0  0  0  0
   16.0918  -24.7656   -5.5214 C   0  0  2  0  0  0  0  0  0  0  0  0
   15.6222  -24.9491   -6.9098 N   0  0  0  0  0  0  0  0  0  0  0  0
   17.4552  -25.2888   -5.4081 C   0  0  0  0  0  0  0  0  0  0  0  0
   17.9259  -26.1503   -6.1871 O   0  0  0  0  0  0  0  0  0  0  0  0
   18.2895  -24.8313   -4.4044 O   0  0  0  0  0  0  0  0  0  0  0  0
  2  1  1  6
  2  3  1  0
  4  3  1  0
  4  5  1  0
  5  6  2  0
  7  2  1  0
  7  8  2  0
  9  5  1  0
 10  7  1  0
 11 10  1  0
 11 12  1  6
 13 12  1  0
 14 13  1  0
 14 15  2  0
 16 11  1  0
 17 16  2  0
 18 14  1  0
 19 20  1  0
 20 21  1  0
 22 21  1  0
 23 22  1  1
 23 24  1  0
 24 16  1  0
 25 23  1  0
 26 25  2  0
 27 25  1  0
M  END
$$$$
