EEM.pdb
     RDKit          3D

 27 26  0  0  1  0  0  0  0  0999 V2000
   28.1367  -22.6272  -17.1689 N   0  0  0  0  0  0  0  0  0  0  0  0
   26.7317  -22.8105  -16.8763 C   0  0  1  0  0  0  0  0  0  0  0  0
   26.4916  -24.1634  -16.3138 C   0  0  0  0  0  0  0  0  0  0  0  0
   26.4679  -25.2240  -17.3615 C   0  0  0  0  0  0  0  0  0  0  0  0
   25.8914  -26.5121  -16.9303 C   0  0  0  0  0  0  0  0  0  0  0  0
   25.4353  -26.7354  -15.7873 O   0  0  0  0  0  0  0  0  0  0  0  0
   26.3616  -21.7413  -15.8963 C   0  0  0  0  0  0  0  0  0  0  0  0
   27.2892  -21.2095  -15.2415 O   0  0  0  0  0  0  0  0  0  0  0  0
   25.8391  -27.5677  -17.8372 O   0  0  0  0  0  0  0  0  0  0  0  0
   25.0511  -21.3126  -15.6785 N   0  0  0  0  0  0  0  0  0  0  0  0
   24.7033  -20.1559  -14.8067 C   0  0  1  0  0  0  0  0  0  0  0  0
   23.5303  -19.4902  -15.4493 C   0  0  0  0  0  0  0  0  0  0  0  0
   23.7912  -18.3106  -16.3098 C   0  0  0  0  0  0  0  0  0  0  0  0
   22.5481  -17.7477  -16.9276 C   0  0  0  0  0  0  0  0  0  0  0  0
   22.3986  -17.4924  -18.1271 O   0  0  0  0  0  0  0  0  0  0  0  0
   24.4932  -20.7054  -13.4727 C   0  0  0  0  0  0  0  0  0  0  0  0
   23.9185  -21.8403  -13.3151 O   0  0  0  0  0  0  0  0  0  0  0  0
   21.4995  -17.5114  -16.0189 O   0  0  0  0  0  0  0  0  0  0  0  0
   27.9370  -19.3989   -8.1417 C   0  0  0  0  0  0  0  0  0  0  0  0
   26.2979  -19.5340   -7.3990 S   0  0  0  0  0  0  0  0  0  0  0  0
   25.1737  -20.3214   -8.5792 C   0  0  0  0  0  0  0  0  0  0  0  0
   25.5266  -19.9677   -9.9948 C   0  0  0  0  0  0  0  0  0  0  0  0
   24.6126  -20.6203  -10.9799 C   0  0  2  0  0  0  0  0  0  0  0  0
   24.9021  -20.0408  -12.3074 N   0  0  0  0  0  0  0  0  0  0  0  0
   23.1824  -20.4739  -10.6994 C   0  0  0  0  0  0  0  0  0  0  0  0
   22.4700  -19.5820  -11.2168 O   0  0  0  0  0  0  0  0  0  0  0  0
   22.5569  -21.3455   -9.8266 O   0  0  0  0  0  0  0  0  0  0  0  0
  2  1  1  1
  2  3  1  0
  4  3  1  0
  4  5  1  0
  5  6  2  0
  7  2  1  0
  7  8  2  0
  9  5  1  0
 10  7  1  0
 11 10  1  0
 11 12  1  6
 13 12  1  0
 14 13  1  0
 14 15  2  0
 16 11  1  0
 17 16  2  0
 18 14  1  0
 19 20  1  0
 20 21  1  0
 22 21  1  0
 23 22  1  1
 23 24  1  0
 24 16  1  0
 25 23  1  0
 26 25  2  0
 27 25  1  0
M  END
$$$$
