EEM.pdb
     RDKit          3D

 27 26  0  0  1  0  0  0  0  0999 V2000
   17.7509  -25.9124   -9.0743 N   0  0  0  0  0  0  0  0  0  0  0  0
   18.5084  -25.5960   -7.8828 C   0  0  1  0  0  0  0  0  0  0  0  0
   18.5618  -24.1266   -7.6776 C   0  0  0  0  0  0  0  0  0  0  0  0
   19.3649  -23.4305   -8.7233 C   0  0  0  0  0  0  0  0  0  0  0  0
   18.5796  -22.6213   -9.6752 C   0  0  0  0  0  0  0  0  0  0  0  0
   17.5847  -21.9305   -9.3634 O   0  0  0  0  0  0  0  0  0  0  0  0
   17.8124  -26.2782   -6.7468 C   0  0  0  0  0  0  0  0  0  0  0  0
   16.5682  -26.1458   -6.6662 O   0  0  0  0  0  0  0  0  0  0  0  0
   18.9493  -22.6076  -11.0179 O   0  0  0  0  0  0  0  0  0  0  0  0
   18.4722  -27.0451   -5.7848 N   0  0  0  0  0  0  0  0  0  0  0  0
   17.7719  -27.7237   -4.6587 C   0  0  1  0  0  0  0  0  0  0  0  0
   18.4310  -29.0554   -4.5028 C   0  0  0  0  0  0  0  0  0  0  0  0
   17.9142  -29.9629   -3.4495 C   0  0  0  0  0  0  0  0  0  0  0  0
   18.6305  -31.2776   -3.4037 C   0  0  0  0  0  0  0  0  0  0  0  0
   19.5528  -31.5625   -2.6325 O   0  0  0  0  0  0  0  0  0  0  0  0
   17.8596  -26.8139   -3.5228 C   0  0  0  0  0  0  0  0  0  0  0  0
   18.8368  -25.9911   -3.4168 O   0  0  0  0  0  0  0  0  0  0  0  0
   18.1725  -32.2254   -4.3379 O   0  0  0  0  0  0  0  0  0  0  0  0
   14.7044  -21.4434    0.8069 C   0  0  0  0  0  0  0  0  0  0  0  0
   14.6537  -22.5847   -0.5901 S   0  0  0  0  0  0  0  0  0  0  0  0
   15.9722  -23.8109   -0.4040 C   0  0  0  0  0  0  0  0  0  0  0  0
   15.9795  -24.7877   -1.5439 C   0  0  0  0  0  0  0  0  0  0  0  0
   17.0352  -25.8320   -1.3799 C   0  0  2  0  0  0  0  0  0  0  0  0
   16.8985  -26.7830   -2.5020 N   0  0  0  0  0  0  0  0  0  0  0  0
   16.9898  -26.5757   -0.1188 C   0  0  0  0  0  0  0  0  0  0  0  0
   17.4845  -26.1452    0.9492 O   0  0  0  0  0  0  0  0  0  0  0  0
   16.3790  -27.8155   -0.0696 O   0  0  0  0  0  0  0  0  0  0  0  0
  2  1  1  6
  2  3  1  0
  4  3  1  0
  4  5  1  0
  5  6  2  0
  7  2  1  0
  7  8  2  0
  9  5  1  0
 10  7  1  0
 11 10  1  0
 11 12  1  1
 13 12  1  0
 14 13  1  0
 14 15  2  0
 16 11  1  0
 17 16  2  0
 18 14  1  0
 19 20  1  0
 20 21  1  0
 22 21  1  0
 23 22  1  1
 23 24  1  0
 24 16  1  0
 25 23  1  0
 26 25  2  0
 27 25  1  0
M  END
$$$$
