EEM.pdb
     RDKit          3D

 27 26  0  0  1  0  0  0  0  0999 V2000
   18.2922  -13.5505  -15.3410 N   0  0  0  0  0  0  0  0  0  0  0  0
   17.8473  -12.3430  -16.0022 C   0  0  1  0  0  0  0  0  0  0  0  0
   16.4054  -12.1082  -15.7374 C   0  0  0  0  0  0  0  0  0  0  0  0
   15.5315  -13.1386  -16.3680 C   0  0  0  0  0  0  0  0  0  0  0  0
   14.0827  -12.9072  -16.2098 C   0  0  0  0  0  0  0  0  0  0  0  0
   13.1930  -13.6741  -16.6393 O   0  0  0  0  0  0  0  0  0  0  0  0
   18.6877  -11.2300  -15.4586 C   0  0  0  0  0  0  0  0  0  0  0  0
   18.8885  -11.2070  -14.2212 O   0  0  0  0  0  0  0  0  0  0  0  0
   13.6488  -11.7652  -15.5409 O   0  0  0  0  0  0  0  0  0  0  0  0
   19.2517  -10.2291  -16.2516 N   0  0  0  0  0  0  0  0  0  0  0  0
   20.0551   -9.1032  -15.6987 C   0  0  1  0  0  0  0  0  0  0  0  0
   21.4297   -9.2583  -16.2631 C   0  0  0  0  0  0  0  0  0  0  0  0
   22.3571  -10.1906  -15.5769 C   0  0  0  0  0  0  0  0  0  0  0  0
   23.7181  -10.2310  -16.2014 C   0  0  0  0  0  0  0  0  0  0  0  0
   24.0507   -9.6320  -17.2295 O   0  0  0  0  0  0  0  0  0  0  0  0
   19.3373   -7.8843  -16.0517 C   0  0  0  0  0  0  0  0  0  0  0  0
   18.4233   -7.8996  -16.9504 O   0  0  0  0  0  0  0  0  0  0  0  0
   24.6512  -11.0323  -15.5174 O   0  0  0  0  0  0  0  0  0  0  0  0
   13.7654   -3.5845  -16.3432 C   0  0  0  0  0  0  0  0  0  0  0  0
   14.7578   -5.0535  -16.0058 S   0  0  0  0  0  0  0  0  0  0  0  0
   16.5107   -4.6020  -16.0164 C   0  0  0  0  0  0  0  0  0  0  0  0
   17.3900   -5.8070  -15.8489 C   0  0  0  0  0  0  0  0  0  0  0  0
   18.8397   -5.4462  -15.8424 C   0  0  2  0  0  0  0  0  0  0  0  0
   19.5960   -6.6494  -15.4395 N   0  0  0  0  0  0  0  0  0  0  0  0
   19.2051   -4.3372  -14.9579 C   0  0  0  0  0  0  0  0  0  0  0  0
   19.9765   -4.4668  -13.9787 O   0  0  0  0  0  0  0  0  0  0  0  0
   18.6918   -3.0736  -15.1865 O   0  0  0  0  0  0  0  0  0  0  0  0
  2  1  1  1
  2  3  1  0
  4  3  1  0
  4  5  1  0
  5  6  2  0
  7  2  1  0
  7  8  2  0
  9  5  1  0
 10  7  1  0
 11 10  1  0
 11 12  1  6
 13 12  1  0
 14 13  1  0
 14 15  2  0
 16 11  1  0
 17 16  2  0
 18 14  1  0
 19 20  1  0
 20 21  1  0
 22 21  1  0
 23 22  1  1
 23 24  1  0
 24 16  1  0
 25 23  1  0
 26 25  2  0
 27 25  1  0
M  END
$$$$
