EEM.pdb
     RDKit          3D

 27 26  0  0  1  0  0  0  0  0999 V2000
   28.2676  -18.6271  -15.2597 N   0  0  0  0  0  0  0  0  0  0  0  0
   27.0011  -19.2967  -15.4619 C   0  0  1  0  0  0  0  0  0  0  0  0
   27.2197  -20.6900  -15.9259 C   0  0  0  0  0  0  0  0  0  0  0  0
   28.5096  -21.2598  -15.4416 C   0  0  0  0  0  0  0  0  0  0  0  0
   29.2894  -21.9889  -16.4604 C   0  0  0  0  0  0  0  0  0  0  0  0
   29.5302  -23.2156  -16.4226 O   0  0  0  0  0  0  0  0  0  0  0  0
   26.2932  -19.2680  -14.1433 C   0  0  0  0  0  0  0  0  0  0  0  0
   26.7543  -18.5133  -13.2547 O   0  0  0  0  0  0  0  0  0  0  0  0
   29.8037  -21.2881  -17.5486 O   0  0  0  0  0  0  0  0  0  0  0  0
   25.1593  -20.0307  -13.8582 N   0  0  0  0  0  0  0  0  0  0  0  0
   24.3201  -19.8260  -12.6446 C   0  0  1  0  0  0  0  0  0  0  0  0
   22.9303  -20.2147  -13.0311 C   0  0  0  0  0  0  0  0  0  0  0  0
   22.1233  -19.2291  -13.7909 C   0  0  0  0  0  0  0  0  0  0  0  0
   20.7282  -19.6997  -14.0663 C   0  0  0  0  0  0  0  0  0  0  0  0
   20.3642  -20.3010  -15.0823 O   0  0  0  0  0  0  0  0  0  0  0  0
   24.9466  -20.6073  -11.5849 C   0  0  0  0  0  0  0  0  0  0  0  0
   26.0926  -21.1529  -11.7639 O   0  0  0  0  0  0  0  0  0  0  0  0
   19.8007  -19.4045  -13.0497 O   0  0  0  0  0  0  0  0  0  0  0  0
   29.3090  -19.5348   -6.0847 C   0  0  0  0  0  0  0  0  0  0  0  0
   28.2070  -19.0617   -7.4332 S   0  0  0  0  0  0  0  0  0  0  0  0
   27.0190  -20.3956   -7.7258 C   0  0  0  0  0  0  0  0  0  0  0  0
   26.1723  -20.1225   -8.9350 C   0  0  0  0  0  0  0  0  0  0  0  0
   25.1656  -21.2011   -9.1694 C   0  0  2  0  0  0  0  0  0  0  0  0
   24.3470  -20.8010  -10.3320 N   0  0  0  0  0  0  0  0  0  0  0  0
   24.2783  -21.4859   -8.0392 C   0  0  0  0  0  0  0  0  0  0  0  0
   23.0992  -21.0667   -7.9707 O   0  0  0  0  0  0  0  0  0  0  0  0
   24.7321  -22.2511   -6.9805 O   0  0  0  0  0  0  0  0  0  0  0  0
  2  1  1  1
  2  3  1  0
  4  3  1  0
  4  5  1  0
  5  6  2  0
  7  2  1  0
  7  8  2  0
  9  5  1  0
 10  7  1  0
 11 10  1  0
 11 12  1  6
 13 12  1  0
 14 13  1  0
 14 15  2  0
 16 11  1  0
 17 16  2  0
 18 14  1  0
 19 20  1  0
 20 21  1  0
 22 21  1  0
 23 22  1  1
 23 24  1  0
 24 16  1  0
 25 23  1  0
 26 25  2  0
 27 25  1  0
M  END
$$$$
