EEM.pdb
     RDKit          3D

 27 26  0  0  1  0  0  0  0  0999 V2000
   22.5624  -19.3509  -14.8472 N   0  0  0  0  0  0  0  0  0  0  0  0
   22.3799  -20.7599  -14.5741 C   0  0  1  0  0  0  0  0  0  0  0  0
   23.5056  -21.2796  -13.7573 C   0  0  0  0  0  0  0  0  0  0  0  0
   24.8090  -21.2296  -14.4797 C   0  0  0  0  0  0  0  0  0  0  0  0
   24.9336  -22.1762  -15.6049 C   0  0  0  0  0  0  0  0  0  0  0  0
   24.0424  -22.9814  -15.9537 O   0  0  0  0  0  0  0  0  0  0  0  0
   21.0781  -20.8836  -13.8459 C   0  0  0  0  0  0  0  0  0  0  0  0
   20.8731  -20.1003  -12.8886 O   0  0  0  0  0  0  0  0  0  0  0  0
   26.1128  -22.1954  -16.3458 O   0  0  0  0  0  0  0  0  0  0  0  0
   20.0933  -21.8163  -14.1762 N   0  0  0  0  0  0  0  0  0  0  0  0
   18.8149  -21.9566  -13.4247 C   0  0  1  0  0  0  0  0  0  0  0  0
   17.8221  -22.5094  -14.3948 C   0  0  0  0  0  0  0  0  0  0  0  0
   16.4687  -22.8395  -13.8856 C   0  0  0  0  0  0  0  0  0  0  0  0
   15.5715  -23.4196  -14.9355 C   0  0  0  0  0  0  0  0  0  0  0  0
   15.6257  -24.5780  -15.3615 O   0  0  0  0  0  0  0  0  0  0  0  0
   19.1198  -22.7801  -12.2608 C   0  0  0  0  0  0  0  0  0  0  0  0
   20.3177  -23.1765  -12.0349 O   0  0  0  0  0  0  0  0  0  0  0  0
   14.6088  -22.5255  -15.4403 O   0  0  0  0  0  0  0  0  0  0  0  0
   20.5957  -20.0264   -8.1866 C   0  0  0  0  0  0  0  0  0  0  0  0
   20.8543  -21.5719   -7.2916 S   0  0  0  0  0  0  0  0  0  0  0  0
   19.7566  -22.8419   -7.9689 C   0  0  0  0  0  0  0  0  0  0  0  0
   19.4505  -22.5889   -9.4167 C   0  0  0  0  0  0  0  0  0  0  0  0
   18.5338  -23.6229   -9.9845 C   0  0  2  0  0  0  0  0  0  0  0  0
   18.1420  -23.1761  -11.3368 N   0  0  0  0  0  0  0  0  0  0  0  0
   17.3238  -23.8849   -9.2016 C   0  0  0  0  0  0  0  0  0  0  0  0
   17.2931  -24.6783   -8.2319 O   0  0  0  0  0  0  0  0  0  0  0  0
   16.1417  -23.2424   -9.5213 O   0  0  0  0  0  0  0  0  0  0  0  0
  2  1  1  1
  2  3  1  0
  4  3  1  0
  4  5  1  0
  5  6  2  0
  7  2  1  0
  7  8  2  0
  9  5  1  0
 10  7  1  0
 11 10  1  0
 11 12  1  6
 13 12  1  0
 14 13  1  0
 14 15  2  0
 16 11  1  0
 17 16  2  0
 18 14  1  0
 19 20  1  0
 20 21  1  0
 22 21  1  0
 23 22  1  1
 23 24  1  0
 24 16  1  0
 25 23  1  0
 26 25  2  0
 27 25  1  0
M  END
$$$$
