EEM.pdb
     RDKit          3D

 27 26  0  0  1  0  0  0  0  0999 V2000
   17.6214  -10.1675  -15.4954 N   0  0  0  0  0  0  0  0  0  0  0  0
   17.7496   -9.1248  -16.4902 C   0  0  1  0  0  0  0  0  0  0  0  0
   16.4112   -8.6169  -16.8840 C   0  0  0  0  0  0  0  0  0  0  0  0
   15.7061   -9.5307  -17.8279 C   0  0  0  0  0  0  0  0  0  0  0  0
   16.3178   -9.6351  -19.1668 C   0  0  0  0  0  0  0  0  0  0  0  0
   17.3324   -9.0015  -19.5322 O   0  0  0  0  0  0  0  0  0  0  0  0
   18.5782   -8.0457  -15.8662 C   0  0  0  0  0  0  0  0  0  0  0  0
   18.2813   -7.6876  -14.7019 O   0  0  0  0  0  0  0  0  0  0  0  0
   15.7473  -10.4899  -20.1068 O   0  0  0  0  0  0  0  0  0  0  0  0
   19.6516   -7.4263  -16.5088 N   0  0  0  0  0  0  0  0  0  0  0  0
   20.5368   -6.4288  -15.8452 C   0  0  1  0  0  0  0  0  0  0  0  0
   21.9065   -7.0256  -15.8444 C   0  0  0  0  0  0  0  0  0  0  0  0
   22.1863   -8.1115  -14.8735 C   0  0  0  0  0  0  0  0  0  0  0  0
   23.5358   -8.7338  -15.0613 C   0  0  0  0  0  0  0  0  0  0  0  0
   24.3770   -8.3790  -15.8937 O   0  0  0  0  0  0  0  0  0  0  0  0
   20.3666   -5.1839  -16.5847 C   0  0  0  0  0  0  0  0  0  0  0  0
   20.2691   -5.1897  -17.8629 O   0  0  0  0  0  0  0  0  0  0  0  0
   23.8115   -9.8049  -14.1907 O   0  0  0  0  0  0  0  0  0  0  0  0
   16.2917   -0.5382  -20.0394 C   0  0  0  0  0  0  0  0  0  0  0  0
   16.8019   -2.0592  -19.2130 S   0  0  0  0  0  0  0  0  0  0  0  0
   18.2418   -1.7155  -18.1714 C   0  0  0  0  0  0  0  0  0  0  0  0
   18.7430   -2.9600  -17.4979 C   0  0  0  0  0  0  0  0  0  0  0  0
   20.0095   -2.7176  -16.7436 C   0  0  2  0  0  0  0  0  0  0  0  0
   20.2973   -3.9329  -15.9548 N   0  0  0  0  0  0  0  0  0  0  0  0
   19.9914   -1.5612  -15.8447 C   0  0  0  0  0  0  0  0  0  0  0  0
   19.9963   -1.6635  -14.5956 O   0  0  0  0  0  0  0  0  0  0  0  0
   19.9679   -0.2808  -16.3669 O   0  0  0  0  0  0  0  0  0  0  0  0
  2  1  1  1
  2  3  1  0
  4  3  1  0
  4  5  1  0
  5  6  2  0
  7  2  1  0
  7  8  2  0
  9  5  1  0
 10  7  1  0
 11 10  1  0
 11 12  1  6
 13 12  1  0
 14 13  1  0
 14 15  2  0
 16 11  1  0
 17 16  2  0
 18 14  1  0
 19 20  1  0
 20 21  1  0
 22 21  1  0
 23 22  1  1
 23 24  1  0
 24 16  1  0
 25 23  1  0
 26 25  2  0
 27 25  1  0
M  END
$$$$
