EEM.pdb
     RDKit          3D

 27 26  0  0  1  0  0  0  0  0999 V2000
   19.8881  -19.2337  -15.2194 N   0  0  0  0  0  0  0  0  0  0  0  0
   21.2948  -18.9662  -15.4258 C   0  0  1  0  0  0  0  0  0  0  0  0
   21.6029  -17.5465  -15.1191 C   0  0  0  0  0  0  0  0  0  0  0  0
   20.9252  -16.5989  -16.0495 C   0  0  0  0  0  0  0  0  0  0  0  0
   21.2246  -16.8092  -17.4791 C   0  0  0  0  0  0  0  0  0  0  0  0
   22.3414  -16.6075  -18.0049 O   0  0  0  0  0  0  0  0  0  0  0  0
   22.0387  -19.8924  -14.5151 C   0  0  0  0  0  0  0  0  0  0  0  0
   21.5515  -20.1029  -13.3792 O   0  0  0  0  0  0  0  0  0  0  0  0
   20.2135  -17.2626  -18.3228 O   0  0  0  0  0  0  0  0  0  0  0  0
   23.2329  -20.5254  -14.8641 N   0  0  0  0  0  0  0  0  0  0  0  0
   23.9323  -21.4977  -13.9784 C   0  0  1  0  0  0  0  0  0  0  0  0
   24.5160  -22.5354  -14.8809 C   0  0  0  0  0  0  0  0  0  0  0  0
   25.3589  -23.5900  -14.2668 C   0  0  0  0  0  0  0  0  0  0  0  0
   24.5656  -24.7556  -13.7611 C   0  0  0  0  0  0  0  0  0  0  0  0
   23.5547  -25.2194  -14.2989 O   0  0  0  0  0  0  0  0  0  0  0  0
   24.8740  -20.7160  -13.1860 C   0  0  0  0  0  0  0  0  0  0  0  0
   25.4745  -19.7036  -13.6936 O   0  0  0  0  0  0  0  0  0  0  0  0
   25.0596  -25.3275  -12.5737 O   0  0  0  0  0  0  0  0  0  0  0  0
   28.4332  -19.4204   -6.2731 C   0  0  0  0  0  0  0  0  0  0  0  0
   27.0956  -20.2531   -7.1530 S   0  0  0  0  0  0  0  0  0  0  0  0
   27.3050  -19.9972   -8.9327 C   0  0  0  0  0  0  0  0  0  0  0  0
   26.1678  -20.5923   -9.7114 C   0  0  0  0  0  0  0  0  0  0  0  0
   26.3267  -20.3846  -11.1822 C   0  0  2  0  0  0  0  0  0  0  0  0
   25.1698  -21.0165  -11.8485 N   0  0  0  0  0  0  0  0  0  0  0  0
   27.5602  -20.9223  -11.7610 C   0  0  0  0  0  0  0  0  0  0  0  0
   27.7362  -22.1423  -11.9875 O   0  0  0  0  0  0  0  0  0  0  0  0
   28.6001  -20.0701  -12.0847 O   0  0  0  0  0  0  0  0  0  0  0  0
  2  1  1  1
  2  3  1  0
  4  3  1  0
  4  5  1  0
  5  6  2  0
  7  2  1  0
  7  8  2  0
  9  5  1  0
 10  7  1  0
 11 10  1  0
 11 12  1  6
 13 12  1  0
 14 13  1  0
 14 15  2  0
 16 11  1  0
 17 16  2  0
 18 14  1  0
 19 20  1  0
 20 21  1  0
 22 21  1  0
 23 22  1  1
 23 24  1  0
 24 16  1  0
 25 23  1  0
 26 25  2  0
 27 25  1  0
M  END
$$$$
