EEM.pdb
     RDKit          3D

 27 26  0  0  1  0  0  0  0  0999 V2000
   16.6200  -12.5671  -18.0254 N   0  0  0  0  0  0  0  0  0  0  0  0
   16.8287  -11.9813  -16.7191 C   0  0  1  0  0  0  0  0  0  0  0  0
   17.5873  -12.9140  -15.8480 C   0  0  0  0  0  0  0  0  0  0  0  0
   16.7707  -14.0824  -15.4109 C   0  0  0  0  0  0  0  0  0  0  0  0
   17.5129  -15.1153  -14.6625 C   0  0  0  0  0  0  0  0  0  0  0  0
   18.7444  -15.0842  -14.4465 O   0  0  0  0  0  0  0  0  0  0  0  0
   17.5861  -10.7097  -16.9430 C   0  0  0  0  0  0  0  0  0  0  0  0
   18.3393  -10.6526  -17.9436 O   0  0  0  0  0  0  0  0  0  0  0  0
   16.8198  -16.2096  -14.1509 O   0  0  0  0  0  0  0  0  0  0  0  0
   17.4960   -9.5984  -16.1030 N   0  0  0  0  0  0  0  0  0  0  0  0
   18.2664   -8.3426  -16.3228 C   0  0  1  0  0  0  0  0  0  0  0  0
   17.3407   -7.2222  -15.9763 C   0  0  0  0  0  0  0  0  0  0  0  0
   17.8896   -5.8443  -15.9867 C   0  0  0  0  0  0  0  0  0  0  0  0
   16.8444   -4.7940  -15.7667 C   0  0  0  0  0  0  0  0  0  0  0  0
   15.6426   -5.0101  -15.5787 O   0  0  0  0  0  0  0  0  0  0  0  0
   19.4750   -8.4649  -15.5167 C   0  0  0  0  0  0  0  0  0  0  0  0
   19.4183   -8.9053  -14.3142 O   0  0  0  0  0  0  0  0  0  0  0  0
   17.3301   -3.4732  -15.7865 O   0  0  0  0  0  0  0  0  0  0  0  0
   26.9192  -10.4307  -15.1065 C   0  0  0  0  0  0  0  0  0  0  0  0
   25.4011  -10.2682  -16.0686 S   0  0  0  0  0  0  0  0  0  0  0  0
   24.2135   -9.2658  -15.1404 C   0  0  0  0  0  0  0  0  0  0  0  0
   22.9071   -9.1450  -15.8700 C   0  0  0  0  0  0  0  0  0  0  0  0
   21.9363   -8.2750  -15.1403 C   0  0  2  0  0  0  0  0  0  0  0  0
   20.7453   -8.1188  -15.9999 N   0  0  0  0  0  0  0  0  0  0  0  0
   22.4364   -6.9473  -14.7760 C   0  0  0  0  0  0  0  0  0  0  0  0
   22.3807   -5.9590  -15.5446 O   0  0  0  0  0  0  0  0  0  0  0  0
   23.0031   -6.7402  -13.5316 O   0  0  0  0  0  0  0  0  0  0  0  0
  2  1  1  6
  2  3  1  0
  4  3  1  0
  4  5  1  0
  5  6  2  0
  7  2  1  0
  7  8  2  0
  9  5  1  0
 10  7  1  0
 11 10  1  0
 11 12  1  1
 13 12  1  0
 14 13  1  0
 14 15  2  0
 16 11  1  0
 17 16  2  0
 18 14  1  0
 19 20  1  0
 20 21  1  0
 22 21  1  0
 23 22  1  6
 23 24  1  0
 24 16  1  0
 25 23  1  0
 26 25  2  0
 27 25  1  0
M  END
$$$$
