EEM.pdb
     RDKit          3D

 27 26  0  0  1  0  0  0  0  0999 V2000
   16.1274  -12.6018  -15.0690 N   0  0  0  0  0  0  0  0  0  0  0  0
   16.0135  -11.4916  -15.9898 C   0  0  1  0  0  0  0  0  0  0  0  0
   14.6093  -11.3401  -16.4477 C   0  0  0  0  0  0  0  0  0  0  0  0
   14.2116  -12.3864  -17.4328 C   0  0  0  0  0  0  0  0  0  0  0  0
   12.8705  -12.2084  -18.0222 C   0  0  0  0  0  0  0  0  0  0  0  0
   12.6581  -11.8342  -19.1965 O   0  0  0  0  0  0  0  0  0  0  0  0
   16.4764  -10.2776  -15.2465 C   0  0  0  0  0  0  0  0  0  0  0  0
   16.1879  -10.1988  -14.0290 O   0  0  0  0  0  0  0  0  0  0  0  0
   11.7476  -12.4678  -17.2401 O   0  0  0  0  0  0  0  0  0  0  0  0
   17.2046   -9.2421  -15.8350 N   0  0  0  0  0  0  0  0  0  0  0  0
   17.7321   -8.0768  -15.0717 C   0  0  1  0  0  0  0  0  0  0  0  0
   19.2209   -8.1579  -15.1675 C   0  0  0  0  0  0  0  0  0  0  0  0
   20.0120   -7.0441  -14.5901 C   0  0  0  0  0  0  0  0  0  0  0  0
   21.4900   -7.2308  -14.7462 C   0  0  0  0  0  0  0  0  0  0  0  0
   22.1971   -6.6654  -15.5869 O   0  0  0  0  0  0  0  0  0  0  0  0
   17.1030   -6.8966  -15.6522 C   0  0  0  0  0  0  0  0  0  0  0  0
   17.0531   -6.7396  -16.9234 O   0  0  0  0  0  0  0  0  0  0  0  0
   22.0641   -8.1354  -13.8335 O   0  0  0  0  0  0  0  0  0  0  0  0
   12.1444   -0.8797  -14.7546 C   0  0  0  0  0  0  0  0  0  0  0  0
   12.8973   -2.3553  -14.0386 S   0  0  0  0  0  0  0  0  0  0  0  0
   14.2313   -2.9265  -15.1206 C   0  0  0  0  0  0  0  0  0  0  0  0
   14.8162   -4.2213  -14.6358 C   0  0  0  0  0  0  0  0  0  0  0  0
   15.9261   -4.6985  -15.5145 C   0  0  2  0  0  0  0  0  0  0  0  0
   16.5242   -5.8860  -14.8709 N   0  0  0  0  0  0  0  0  0  0  0  0
   16.9823   -3.7182  -15.7774 C   0  0  0  0  0  0  0  0  0  0  0  0
   18.0602   -3.6838  -15.1388 O   0  0  0  0  0  0  0  0  0  0  0  0
   16.8141   -2.7714  -16.7713 O   0  0  0  0  0  0  0  0  0  0  0  0
  2  1  1  1
  2  3  1  0
  4  3  1  0
  4  5  1  0
  5  6  2  0
  7  2  1  0
  7  8  2  0
  9  5  1  0
 10  7  1  0
 11 10  1  0
 11 12  1  6
 13 12  1  0
 14 13  1  0
 14 15  2  0
 16 11  1  0
 17 16  2  0
 18 14  1  0
 19 20  1  0
 20 21  1  0
 22 21  1  0
 23 22  1  1
 23 24  1  0
 24 16  1  0
 25 23  1  0
 26 25  2  0
 27 25  1  0
M  END
$$$$
