YPI.pdb
     RDKit          3D

 28 29  0  0  1  0  0  0  0  0999 V2000
   18.9947  -20.1084  -15.7480 O   0  0  0  0  0  0  0  0  0  0  0  0
   20.0576  -20.4073  -14.8924 C   0  0  0  0  0  0  0  0  0  0  0  0
   20.0497  -21.4900  -14.0531 C   0  0  0  0  0  0  0  0  0  0  0  0
   21.1349  -21.7530  -13.2125 C   0  0  0  0  0  0  0  0  0  0  0  0
   22.2401  -20.9315  -13.2056 C   0  0  0  0  0  0  0  0  0  0  0  0
   23.4037  -21.1866  -12.3300 C   0  0  0  0  0  0  0  0  0  0  0  0
   24.5602  -21.8507  -13.0491 C   0  0  2  0  0  0  0  0  0  0  0  0
   24.2339  -23.1041  -13.6507 N   0  0  0  0  0  0  0  0  0  0  0  0
   25.7847  -21.8529  -12.2138 C   0  0  0  0  0  0  0  0  0  0  0  0
   26.0926  -22.9759  -11.6483 O   0  0  0  0  0  0  0  0  0  0  0  0
   22.2220  -19.8394  -14.0674 C   0  0  0  0  0  0  0  0  0  0  0  0
   21.1528  -19.5816  -14.8945 C   0  0  0  0  0  0  0  0  0  0  0  0
   26.6379  -20.7525  -11.9799 N   0  0  0  0  0  0  0  0  0  0  0  0
   26.6060  -19.4105  -12.4760 C   0  0  0  0  0  0  0  0  0  0  0  0
   28.0795  -19.0510  -12.6356 C   0  0  0  0  0  0  0  0  0  0  0  0
   28.8369  -20.0979  -11.8967 C   0  0  0  0  0  0  0  0  0  0  0  0
   27.8029  -20.8067  -11.0906 C   0  0  1  0  0  0  0  0  0  0  0  0
   27.4635  -20.1761   -9.8134 C   0  0  0  0  0  0  0  0  0  0  0  0
   26.3213  -19.6333   -9.6533 O   0  0  0  0  0  0  0  0  0  0  0  0
   31.4754  -21.3274   -6.0764 C   0  0  0  0  0  0  0  0  0  0  0  0
   30.1196  -21.4293   -6.6317 C   0  0  0  0  0  0  0  0  0  0  0  0
   29.1147  -20.3892   -6.4508 C   0  0  2  0  0  0  0  0  0  0  0  0
   28.7248  -20.2028   -4.9754 C   0  0  0  0  0  0  0  0  0  0  0  0
   27.9278  -20.3879   -7.3258 C   0  0  2  0  0  0  0  0  0  0  0  0
   28.3686  -20.1438   -8.7283 N   0  0  0  0  0  0  0  0  0  0  0  0
   26.9704  -19.3375   -7.0459 C   0  0  0  0  0  0  0  0  0  0  0  0
   25.9869  -19.5550   -6.2929 O   0  0  0  0  0  0  0  0  0  0  0  0
   27.0770  -18.0738   -7.5613 O   0  0  0  0  0  0  0  0  0  0  0  0
  2  1  1  0
  3  2  2  0
  4  3  1  0
  5  4  2  0
  5 11  1  0
  6  5  1  0
  7  9  1  0
  7  6  1  0
  7  8  1  1
  9 13  1  0
  9 10  2  0
 11 12  2  0
 12  2  1  0
 13 14  1  0
 14 15  1  0
 16 15  1  0
 17 13  1  0
 17 16  1  0
 17 18  1  1
 19 18  2  0
 20 21  1  0
 21 22  1  0
 22 24  1  0
 22 23  1  1
 24 25  1  6
 25 18  1  0
 26 24  1  0
 26 28  1  0
 27 26  2  0
M  END
$$$$
