YPI.pdb
     RDKit          3D

 28 29  0  0  1  0  0  0  0  0999 V2000
   28.3129  -14.9579  -18.7040 O   0  0  0  0  0  0  0  0  0  0  0  0
   27.6015  -15.5548  -17.6606 C   0  0  0  0  0  0  0  0  0  0  0  0
   27.8555  -16.8289  -17.2260 C   0  0  0  0  0  0  0  0  0  0  0  0
   27.1195  -17.3887  -16.1779 C   0  0  0  0  0  0  0  0  0  0  0  0
   26.1204  -16.6749  -15.5547 C   0  0  0  0  0  0  0  0  0  0  0  0
   25.3279  -17.2395  -14.4416 C   0  0  0  0  0  0  0  0  0  0  0  0
   24.5620  -18.4893  -14.8253 C   0  0  2  0  0  0  0  0  0  0  0  0
   23.2775  -18.2371  -15.3961 N   0  0  0  0  0  0  0  0  0  0  0  0
   24.5798  -19.4896  -13.7316 C   0  0  0  0  0  0  0  0  0  0  0  0
   23.5368  -19.5221  -12.9655 O   0  0  0  0  0  0  0  0  0  0  0  0
   25.8833  -15.3838  -16.0157 C   0  0  0  0  0  0  0  0  0  0  0  0
   26.6086  -14.8339  -17.0477 C   0  0  0  0  0  0  0  0  0  0  0  0
   25.6205  -20.4015  -13.4509 N   0  0  0  0  0  0  0  0  0  0  0  0
   26.9231  -20.5536  -14.0239 C   0  0  0  0  0  0  0  0  0  0  0  0
   27.1494  -22.0617  -14.0073 C   0  0  0  0  0  0  0  0  0  0  0  0
   26.0980  -22.6219  -13.1150 C   0  0  0  0  0  0  0  0  0  0  0  0
   25.5333  -21.4344  -12.4133 C   0  0  1  0  0  0  0  0  0  0  0  0
   26.2763  -20.9934  -11.2312 C   0  0  0  0  0  0  0  0  0  0  0  0
   27.2700  -20.2054  -11.3593 O   0  0  0  0  0  0  0  0  0  0  0  0
   26.8727  -18.8525   -6.2312 C   0  0  0  0  0  0  0  0  0  0  0  0
   27.0352  -18.5976   -7.6685 C   0  0  0  0  0  0  0  0  0  0  0  0
   26.3658  -19.3934   -8.6897 C   0  0  2  0  0  0  0  0  0  0  0  0
   24.8714  -19.0528   -8.8103 C   0  0  0  0  0  0  0  0  0  0  0  0
   26.5898  -20.8506   -8.7153 C   0  0  2  0  0  0  0  0  0  0  0  0
   25.9300  -21.4140   -9.9270 N   0  0  0  0  0  0  0  0  0  0  0  0
   26.0079  -21.5722   -7.6022 C   0  0  0  0  0  0  0  0  0  0  0  0
   26.7223  -21.9319   -6.6318 O   0  0  0  0  0  0  0  0  0  0  0  0
   24.6785  -21.8918   -7.5332 O   0  0  0  0  0  0  0  0  0  0  0  0
  2  1  1  0
  3  2  2  0
  4  3  1  0
  5  4  2  0
  5 11  1  0
  6  5  1  0
  7  9  1  0
  7  6  1  0
  7  8  1  1
  9 13  1  0
  9 10  2  0
 11 12  2  0
 12  2  1  0
 13 14  1  0
 14 15  1  0
 16 15  1  0
 17 13  1  0
 17 16  1  0
 17 18  1  1
 19 18  2  0
 20 21  1  0
 21 22  1  0
 22 24  1  0
 22 23  1  1
 24 25  1  6
 25 18  1  0
 26 24  1  0
 26 28  1  0
 27 26  2  0
M  END
$$$$
