YPI.pdb
     RDKit          3D

 28 29  0  0  1  0  0  0  0  0999 V2000
   13.3344  -21.7372   -0.7389 O   0  0  0  0  0  0  0  0  0  0  0  0
   13.9132  -21.1291    0.3775 C   0  0  0  0  0  0  0  0  0  0  0  0
   13.4903  -19.9203    0.8639 C   0  0  0  0  0  0  0  0  0  0  0  0
   14.0975  -19.3468    1.9846 C   0  0  0  0  0  0  0  0  0  0  0  0
   15.1360  -19.9810    2.6292 C   0  0  0  0  0  0  0  0  0  0  0  0
   15.7950  -19.4003    3.8183 C   0  0  0  0  0  0  0  0  0  0  0  0
   15.1319  -19.7939    5.1227 C   0  0  2  0  0  0  0  0  0  0  0  0
   13.7475  -19.4529    5.2023 N   0  0  0  0  0  0  0  0  0  0  0  0
   15.9498  -19.3832    6.2887 C   0  0  0  0  0  0  0  0  0  0  0  0
   15.5864  -18.2968    6.8915 O   0  0  0  0  0  0  0  0  0  0  0  0
   15.5455  -21.2070    2.1144 C   0  0  0  0  0  0  0  0  0  0  0  0
   14.9469  -21.7706    1.0110 C   0  0  0  0  0  0  0  0  0  0  0  0
   17.0788  -20.0617    6.7972 N   0  0  0  0  0  0  0  0  0  0  0  0
   17.7685  -21.2268    6.3336 C   0  0  0  0  0  0  0  0  0  0  0  0
   18.2016  -21.9235    7.6192 C   0  0  0  0  0  0  0  0  0  0  0  0
   18.0178  -20.9238    8.7066 C   0  0  0  0  0  0  0  0  0  0  0  0
   17.8102  -19.6317    7.9935 C   0  0  1  0  0  0  0  0  0  0  0  0
   19.0334  -18.9374    7.5864 C   0  0  0  0  0  0  0  0  0  0  0  0
   19.5542  -19.1767    6.4479 O   0  0  0  0  0  0  0  0  0  0  0  0
   19.1910  -13.7148    7.8585 C   0  0  0  0  0  0  0  0  0  0  0  0
   19.5445  -15.1129    7.5802 C   0  0  0  0  0  0  0  0  0  0  0  0
   20.6446  -15.7951    8.2502 C   0  0  2  0  0  0  0  0  0  0  0  0
   21.9567  -14.9968    8.1811 C   0  0  0  0  0  0  0  0  0  0  0  0
   20.8692  -17.2255    7.9711 C   0  0  2  0  0  0  0  0  0  0  0  0
   19.6737  -17.9933    8.4209 N   0  0  0  0  0  0  0  0  0  0  0  0
   21.9832  -17.8142    8.6857 C   0  0  0  0  0  0  0  0  0  0  0  0
   23.1090  -17.9210    8.1356 O   0  0  0  0  0  0  0  0  0  0  0  0
   21.8866  -18.2707    9.9727 O   0  0  0  0  0  0  0  0  0  0  0  0
  2  1  1  0
  3  2  2  0
  4  3  1  0
  5  4  2  0
  5 11  1  0
  6  5  1  0
  7  9  1  0
  7  6  1  0
  7  8  1  1
  9 13  1  0
  9 10  2  0
 11 12  2  0
 12  2  1  0
 13 14  1  0
 14 15  1  0
 16 15  1  0
 17 13  1  0
 17 16  1  0
 17 18  1  6
 19 18  2  0
 20 21  1  0
 21 22  1  0
 22 24  1  0
 22 23  1  6
 24 25  1  1
 25 18  1  0
 26 24  1  0
 26 28  1  0
 27 26  2  0
M  END
$$$$
