YPI.pdb
     RDKit          3D

 28 29  0  0  1  0  0  0  0  0999 V2000
   18.2164  -18.9382  -18.6382 O   0  0  0  0  0  0  0  0  0  0  0  0
   19.3451  -19.3106  -17.9043 C   0  0  0  0  0  0  0  0  0  0  0  0
   20.2895  -18.4084  -17.4911 C   0  0  0  0  0  0  0  0  0  0  0  0
   21.4048  -18.8236  -16.7581 C   0  0  0  0  0  0  0  0  0  0  0  0
   21.5838  -20.1494  -16.4319 C   0  0  0  0  0  0  0  0  0  0  0  0
   22.7514  -20.6171  -15.6550 C   0  0  0  0  0  0  0  0  0  0  0  0
   24.0121  -20.7434  -16.4859 C   0  0  2  0  0  0  0  0  0  0  0  0
   23.9571  -21.7647  -17.4825 N   0  0  0  0  0  0  0  0  0  0  0  0
   25.2222  -20.7630  -15.6301 C   0  0  0  0  0  0  0  0  0  0  0  0
   25.8996  -21.8661  -15.6180 O   0  0  0  0  0  0  0  0  0  0  0  0
   20.6099  -21.0442  -16.8639 C   0  0  0  0  0  0  0  0  0  0  0  0
   19.5123  -20.6341  -17.5856 C   0  0  0  0  0  0  0  0  0  0  0  0
   25.6991  -19.6990  -14.8338 N   0  0  0  0  0  0  0  0  0  0  0  0
   25.2198  -18.3620  -14.6587 C   0  0  0  0  0  0  0  0  0  0  0  0
   26.4947  -17.5425  -14.4885 C   0  0  0  0  0  0  0  0  0  0  0  0
   27.5828  -18.5277  -14.2418 C   0  0  0  0  0  0  0  0  0  0  0  0
   26.8708  -19.8059  -13.9581 C   0  0  1  0  0  0  0  0  0  0  0  0
   26.4237  -19.9802  -12.5747 C   0  0  0  0  0  0  0  0  0  0  0  0
   25.1952  -19.8182  -12.2759 O   0  0  0  0  0  0  0  0  0  0  0  0
   30.4654  -21.8578   -9.2308 C   0  0  0  0  0  0  0  0  0  0  0  0
   29.1230  -21.9655   -9.8167 C   0  0  0  0  0  0  0  0  0  0  0  0
   28.0031  -21.1435   -9.3753 C   0  0  2  0  0  0  0  0  0  0  0  0
   27.5540  -21.4862   -7.9455 C   0  0  0  0  0  0  0  0  0  0  0  0
   26.8484  -20.9728  -10.2763 C   0  0  2  0  0  0  0  0  0  0  0  0
   27.3165  -20.3279  -11.5357 N   0  0  0  0  0  0  0  0  0  0  0  0
   25.8104  -20.0980   -9.7709 C   0  0  0  0  0  0  0  0  0  0  0  0
   26.0094  -18.8597   -9.6771 O   0  0  0  0  0  0  0  0  0  0  0  0
   24.5777  -20.5493   -9.3826 O   0  0  0  0  0  0  0  0  0  0  0  0
  2  1  1  0
  3  2  2  0
  4  3  1  0
  5  4  2  0
  5 11  1  0
  6  5  1  0
  7  9  1  0
  7  6  1  0
  7  8  1  1
  9 13  1  0
  9 10  2  0
 11 12  2  0
 12  2  1  0
 13 14  1  0
 14 15  1  0
 16 15  1  0
 17 13  1  0
 17 16  1  0
 17 18  1  1
 19 18  2  0
 20 21  1  0
 21 22  1  0
 22 24  1  0
 22 23  1  1
 24 25  1  6
 25 18  1  0
 26 24  1  0
 26 28  1  0
 27 26  2  0
M  END
$$$$
