YPI.pdb
     RDKit          3D

 28 29  0  0  1  0  0  0  0  0999 V2000
   10.5910  -31.3423  -10.9381 O   0  0  0  0  0  0  0  0  0  0  0  0
   11.6557  -30.9514  -10.1228 C   0  0  0  0  0  0  0  0  0  0  0  0
   12.8124  -31.6778  -10.0177 C   0  0  0  0  0  0  0  0  0  0  0  0
   13.8541  -31.2506   -9.1897 C   0  0  0  0  0  0  0  0  0  0  0  0
   13.7457  -30.0891   -8.4581 C   0  0  0  0  0  0  0  0  0  0  0  0
   14.8321  -29.6108   -7.5768 C   0  0  0  0  0  0  0  0  0  0  0  0
   15.7382  -28.5939   -8.2407 C   0  0  2  0  0  0  0  0  0  0  0  0
   16.4195  -29.0829   -9.3966 N   0  0  0  0  0  0  0  0  0  0  0  0
   16.5970  -27.9069   -7.2470 C   0  0  0  0  0  0  0  0  0  0  0  0
   17.8546  -28.2137   -7.2646 O   0  0  0  0  0  0  0  0  0  0  0  0
   12.5607  -29.3709   -8.5832 C   0  0  0  0  0  0  0  0  0  0  0  0
   11.5358  -29.7927   -9.3989 C   0  0  0  0  0  0  0  0  0  0  0  0
   16.1732  -26.9579   -6.2913 N   0  0  0  0  0  0  0  0  0  0  0  0
   14.8763  -26.4307   -5.9948 C   0  0  0  0  0  0  0  0  0  0  0  0
   15.1550  -24.9780   -5.6234 C   0  0  0  0  0  0  0  0  0  0  0  0
   16.6253  -24.8865   -5.4106 C   0  0  0  0  0  0  0  0  0  0  0  0
   17.0809  -26.3039   -5.3429 C   0  0  1  0  0  0  0  0  0  0  0  0
   16.9489  -26.9424   -4.0318 C   0  0  0  0  0  0  0  0  0  0  0  0
   15.9169  -27.6405   -3.7630 O   0  0  0  0  0  0  0  0  0  0  0  0
   21.7929  -27.9414   -1.5257 C   0  0  0  0  0  0  0  0  0  0  0  0
   20.4056  -28.0434   -1.9968 C   0  0  0  0  0  0  0  0  0  0  0  0
   19.2673  -27.6205   -1.1906 C   0  0  2  0  0  0  0  0  0  0  0  0
   19.2682  -28.2642    0.2056 C   0  0  0  0  0  0  0  0  0  0  0  0
   17.9218  -27.6434   -1.7934 C   0  0  2  0  0  0  0  0  0  0  0  0
   17.9390  -26.8138   -3.0314 N   0  0  0  0  0  0  0  0  0  0  0  0
   16.8795  -27.0659   -0.9698 C   0  0  0  0  0  0  0  0  0  0  0  0
   16.1118  -27.8045   -0.3016 O   0  0  0  0  0  0  0  0  0  0  0  0
   16.6752  -25.7166   -0.8621 O   0  0  0  0  0  0  0  0  0  0  0  0
  2  1  1  0
  3  2  2  0
  4  3  1  0
  5  4  2  0
  5 11  1  0
  6  5  1  0
  7  9  1  0
  7  6  1  0
  7  8  1  6
  9 13  1  0
  9 10  2  0
 11 12  2  0
 12  2  1  0
 13 14  1  0
 14 15  1  0
 16 15  1  0
 17 13  1  0
 17 16  1  0
 17 18  1  1
 19 18  2  0
 20 21  1  0
 21 22  1  0
 22 24  1  0
 22 23  1  1
 24 25  1  6
 25 18  1  0
 26 24  1  0
 26 28  1  0
 27 26  2  0
M  END
$$$$
