YPI.pdb
     RDKit          3D

 28 29  0  0  1  0  0  0  0  0999 V2000
   21.8267  -18.0156  -17.8721 O   0  0  0  0  0  0  0  0  0  0  0  0
   22.1884  -18.2987  -16.5529 C   0  0  0  0  0  0  0  0  0  0  0  0
   23.4399  -18.7351  -16.2064 C   0  0  0  0  0  0  0  0  0  0  0  0
   23.7604  -19.0072  -14.8735 C   0  0  0  0  0  0  0  0  0  0  0  0
   22.8276  -18.8438  -13.8738 C   0  0  0  0  0  0  0  0  0  0  0  0
   23.1388  -19.1204  -12.4553 C   0  0  0  0  0  0  0  0  0  0  0  0
   22.9947  -20.5825  -12.0844 C   0  0  2  0  0  0  0  0  0  0  0  0
   21.6449  -21.0476  -12.0494 N   0  0  0  0  0  0  0  0  0  0  0  0
   23.8079  -20.9189  -10.8918 C   0  0  0  0  0  0  0  0  0  0  0  0
   23.1535  -21.2363   -9.8209 O   0  0  0  0  0  0  0  0  0  0  0  0
   21.5648  -18.3997  -14.2533 C   0  0  0  0  0  0  0  0  0  0  0  0
   21.2506  -18.1323  -15.5660 C   0  0  0  0  0  0  0  0  0  0  0  0
   25.2179  -20.9244  -10.8170 N   0  0  0  0  0  0  0  0  0  0  0  0
   26.2135  -20.4348  -11.7210 C   0  0  0  0  0  0  0  0  0  0  0  0
   27.3482  -21.4449  -11.5876 C   0  0  0  0  0  0  0  0  0  0  0  0
   27.0443  -22.2407  -10.3669 C   0  0  0  0  0  0  0  0  0  0  0  0
   25.9657  -21.4739   -9.6813 C   0  0  1  0  0  0  0  0  0  0  0  0
   26.4234  -20.3746   -8.8291 C   0  0  0  0  0  0  0  0  0  0  0  0
   26.3533  -19.1722   -9.2460 O   0  0  0  0  0  0  0  0  0  0  0  0
   27.4334  -19.2805   -2.7635 C   0  0  0  0  0  0  0  0  0  0  0  0
   27.4607  -18.9236   -4.1879 C   0  0  0  0  0  0  0  0  0  0  0  0
   27.1812  -19.8862   -5.2462 C   0  0  2  0  0  0  0  0  0  0  0  0
   27.8256  -21.2557   -4.9761 C   0  0  0  0  0  0  0  0  0  0  0  0
   27.3638  -19.4724   -6.6496 C   0  0  2  0  0  0  0  0  0  0  0  0
   26.9505  -20.5965   -7.5366 N   0  0  0  0  0  0  0  0  0  0  0  0
   28.7336  -19.1850   -7.0228 C   0  0  0  0  0  0  0  0  0  0  0  0
   29.4332  -20.0553   -7.6012 O   0  0  0  0  0  0  0  0  0  0  0  0
   29.3344  -17.9782   -6.7846 O   0  0  0  0  0  0  0  0  0  0  0  0
  2  1  1  0
  3  2  2  0
  4  3  1  0
  5  4  2  0
  5 11  1  0
  6  5  1  0
  7  9  1  0
  7  6  1  0
  7  8  1  1
  9 13  1  0
  9 10  2  0
 11 12  2  0
 12  2  1  0
 13 14  1  0
 14 15  1  0
 16 15  1  0
 17 13  1  0
 17 16  1  0
 17 18  1  1
 19 18  2  0
 20 21  1  0
 21 22  1  0
 22 24  1  0
 22 23  1  1
 24 25  1  6
 25 18  1  0
 26 24  1  0
 26 28  1  0
 27 26  2  0
M  END
$$$$
