DMR.pdb
     RDKit          3D

 28 27  0  0  1  0  0  0  0  0999 V2000
    7.3237  -16.5558   20.3053 N   0  0  0  0  0  0  0  0  0  0  0  0
    8.4839  -15.7329   20.4166 C   0  0  1  0  0  0  0  0  0  0  0  0
    8.4006  -14.6059   19.4349 C   0  0  0  0  0  0  0  0  0  0  0  0
    8.6435  -15.0191   18.0455 C   0  0  0  0  0  0  0  0  0  0  0  0
    8.9099  -16.2026   17.7243 O   0  0  0  0  0  0  0  0  0  0  0  0
    8.7534  -15.2817   21.7957 C   0  0  0  0  0  0  0  0  0  0  0  0
    9.8996  -14.8437   22.1572 O   0  0  0  0  0  0  0  0  0  0  0  0
    8.5787  -14.0712   17.0373 O   0  0  0  0  0  0  0  0  0  0  0  0
    5.6939  -12.1452   27.2551 C   0  0  0  0  0  0  0  0  0  0  0  0
    7.0221  -11.9678   26.0447 S   0  0  0  0  0  0  0  0  0  0  0  0
    6.6604  -12.8711   24.5206 C   0  0  0  0  0  0  0  0  0  0  0  0
    6.7784  -14.3324   24.6569 C   0  0  0  0  0  0  0  0  0  0  0  0
    8.0130  -15.0216   24.2141 C   0  0  2  0  0  0  0  0  0  0  0  0
    7.7570  -15.3148   22.7737 N   0  0  0  0  0  0  0  0  0  0  0  0
    8.4603  -16.2050   24.9103 C   0  0  0  0  0  0  0  0  0  0  0  0
    8.1695  -17.3763   24.4690 O   0  0  0  0  0  0  0  0  0  0  0  0
   15.7972  -18.4814   23.4873 N   0  0  0  0  0  0  0  0  0  0  0  0
   15.2578  -19.6929   23.9807 C   0  0  0  0  0  0  0  0  0  0  0  0
   15.9858  -20.7598   24.1504 N   0  0  0  0  0  0  0  0  0  0  0  0
   13.8718  -19.8204   24.3257 N   0  0  0  0  0  0  0  0  0  0  0  0
   12.9906  -18.6992   24.2204 C   0  0  0  0  0  0  0  0  0  0  0  0
   12.0767  -18.5641   25.4195 C   0  0  0  0  0  0  0  0  0  0  0  0
   11.1109  -17.4241   25.2180 C   0  0  0  0  0  0  0  0  0  0  0  0
   10.1075  -17.3641   26.3911 C   0  0  2  0  0  0  0  0  0  0  0  0
    9.2543  -16.2158   26.1128 N   0  0  0  0  0  0  0  0  0  0  0  0
   10.8709  -17.1451   27.6249 C   0  0  0  0  0  0  0  0  0  0  0  0
   11.3669  -18.1281   28.4531 O   0  0  0  0  0  0  0  0  0  0  0  0
   11.0923  -15.9330   27.9599 O   0  0  0  0  0  0  0  0  0  0  0  0
  2  1  1  1
  2  3  1  0
  3  4  1  0
  4  8  1  0
  5  4  2  0
  6  2  1  0
  7  6  2  0
  9 10  1  0
 10 11  1  0
 11 12  1  0
 13 12  1  1
 13 14  1  0
 14  6  1  0
 15 25  1  0
 15 13  1  0
 16 15  2  0
 18 17  1  0
 18 19  2  0
 20 18  1  0
 21 20  1  0
 21 22  1  0
 23 22  1  0
 24 23  1  6
 24 25  1  0
 26 27  1  0
 26 24  1  0
 28 26  2  0
M  END
$$$$
