DMR.pdb
     RDKit          3D

 28 27  0  0  1  0  0  0  0  0999 V2000
    7.2376  -16.4184   20.1759 N   0  0  0  0  0  0  0  0  0  0  0  0
    8.6327  -16.2418   20.4170 C   0  0  1  0  0  0  0  0  0  0  0  0
    9.2375  -15.4299   19.3142 C   0  0  0  0  0  0  0  0  0  0  0  0
    9.3714  -16.1663   18.0493 C   0  0  0  0  0  0  0  0  0  0  0  0
    8.4801  -16.9331   17.6108 O   0  0  0  0  0  0  0  0  0  0  0  0
    8.9336  -15.7100   21.7604 C   0  0  0  0  0  0  0  0  0  0  0  0
   10.1317  -15.5052   22.1591 O   0  0  0  0  0  0  0  0  0  0  0  0
   10.5263  -16.0165   17.2990 O   0  0  0  0  0  0  0  0  0  0  0  0
    6.6875  -11.0813   25.8390 C   0  0  0  0  0  0  0  0  0  0  0  0
    7.3664  -12.5864   26.5701 S   0  0  0  0  0  0  0  0  0  0  0  0
    6.5971  -14.0694   25.8785 C   0  0  0  0  0  0  0  0  0  0  0  0
    6.9099  -14.2899   24.4568 C   0  0  0  0  0  0  0  0  0  0  0  0
    8.1606  -14.9845   24.0714 C   0  0  2  0  0  0  0  0  0  0  0  0
    7.9113  -15.4052   22.6617 N   0  0  0  0  0  0  0  0  0  0  0  0
    8.6364  -16.0933   24.8646 C   0  0  0  0  0  0  0  0  0  0  0  0
    7.9646  -17.1864   24.9359 O   0  0  0  0  0  0  0  0  0  0  0  0
   12.3704  -21.4592   27.5013 N   0  0  0  0  0  0  0  0  0  0  0  0
   12.9501  -21.8362   26.2668 C   0  0  0  0  0  0  0  0  0  0  0  0
   13.0815  -23.0828   25.9122 N   0  0  0  0  0  0  0  0  0  0  0  0
   13.4296  -20.8650   25.3269 N   0  0  0  0  0  0  0  0  0  0  0  0
   13.3839  -19.4698   25.6365 C   0  0  0  0  0  0  0  0  0  0  0  0
   12.0699  -19.0569   26.2641 C   0  0  0  0  0  0  0  0  0  0  0  0
   11.5286  -17.8237   25.5865 C   0  0  0  0  0  0  0  0  0  0  0  0
   10.2540  -17.3357   26.3102 C   0  0  2  0  0  0  0  0  0  0  0  0
    9.8621  -16.1121   25.6221 N   0  0  0  0  0  0  0  0  0  0  0  0
   10.6113  -17.0453   27.7034 C   0  0  0  0  0  0  0  0  0  0  0  0
   10.8097  -17.9781   28.6977 O   0  0  0  0  0  0  0  0  0  0  0  0
   10.7480  -15.8160   28.0206 O   0  0  0  0  0  0  0  0  0  0  0  0
  2  1  1  6
  2  3  1  0
  3  4  1  0
  4  8  1  0
  5  4  2  0
  6  2  1  0
  7  6  2  0
  9 10  1  0
 10 11  1  0
 11 12  1  0
 13 12  1  1
 13 14  1  0
 14  6  1  0
 15 25  1  0
 15 13  1  0
 16 15  2  0
 18 17  1  0
 18 19  2  0
 20 18  1  0
 21 20  1  0
 21 22  1  0
 23 22  1  0
 24 23  1  6
 24 25  1  0
 26 27  1  0
 26 24  1  0
 28 26  2  0
M  END
$$$$
