DMR.pdb
     RDKit          3D

 28 27  0  0  1  0  0  0  0  0999 V2000
    6.8938  -16.3219   20.4695 N   0  0  0  0  0  0  0  0  0  0  0  0
    8.2485  -16.7042   20.7021 C   0  0  1  0  0  0  0  0  0  0  0  0
    9.0746  -16.4009   19.4911 C   0  0  0  0  0  0  0  0  0  0  0  0
    8.7143  -17.2094   18.3178 C   0  0  0  0  0  0  0  0  0  0  0  0
    7.7294  -17.9870   18.3038 O   0  0  0  0  0  0  0  0  0  0  0  0
    8.8124  -16.1411   21.9444 C   0  0  0  0  0  0  0  0  0  0  0  0
   10.0403  -16.2972   22.2668 O   0  0  0  0  0  0  0  0  0  0  0  0
    9.4868  -17.1187   17.1714 O   0  0  0  0  0  0  0  0  0  0  0  0
    5.1411  -11.7521   26.9898 C   0  0  0  0  0  0  0  0  0  0  0  0
    6.7280  -11.9782   26.1584 S   0  0  0  0  0  0  0  0  0  0  0  0
    6.6678  -13.3340   24.9636 C   0  0  0  0  0  0  0  0  0  0  0  0
    7.9392  -13.5547   24.2548 C   0  0  0  0  0  0  0  0  0  0  0  0
    8.5048  -14.9204   24.1534 C   0  0  2  0  0  0  0  0  0  0  0  0
    8.0196  -15.4065   22.8288 N   0  0  0  0  0  0  0  0  0  0  0  0
    8.2299  -15.8870   25.1903 C   0  0  0  0  0  0  0  0  0  0  0  0
    7.0272  -16.2724   25.4274 O   0  0  0  0  0  0  0  0  0  0  0  0
    6.3086  -23.0112   26.1820 N   0  0  0  0  0  0  0  0  0  0  0  0
    6.3351  -22.7346   27.5694 C   0  0  0  0  0  0  0  0  0  0  0  0
    6.0367  -23.6338   28.4634 N   0  0  0  0  0  0  0  0  0  0  0  0
    6.6940  -21.4426   28.0778 N   0  0  0  0  0  0  0  0  0  0  0  0
    7.0228  -20.3758   27.1842 C   0  0  0  0  0  0  0  0  0  0  0  0
    8.4677  -19.9411   27.3055 C   0  0  0  0  0  0  0  0  0  0  0  0
    8.7697  -18.8409   26.3200 C   0  0  0  0  0  0  0  0  0  0  0  0
    8.7896  -17.4738   27.0392 C   0  0  2  0  0  0  0  0  0  0  0  0
    9.2188  -16.5122   26.0317 N   0  0  0  0  0  0  0  0  0  0  0  0
    9.7752  -17.5506   28.1235 C   0  0  0  0  0  0  0  0  0  0  0  0
   10.9546  -16.8419   28.1947 O   0  0  0  0  0  0  0  0  0  0  0  0
    9.5147  -18.3486   29.0857 O   0  0  0  0  0  0  0  0  0  0  0  0
  2  1  1  6
  2  3  1  0
  3  4  1  0
  4  8  1  0
  5  4  2  0
  6  2  1  0
  7  6  2  0
  9 10  1  0
 10 11  1  0
 11 12  1  0
 13 12  1  1
 13 14  1  0
 14  6  1  0
 15 25  1  0
 15 13  1  0
 16 15  2  0
 18 17  1  0
 18 19  2  0
 20 18  1  0
 21 20  1  0
 21 22  1  0
 23 22  1  0
 24 23  1  6
 24 25  1  0
 26 27  1  0
 26 24  1  0
 28 26  2  0
M  END
$$$$
