DMR.pdb
     RDKit          3D

 28 27  0  0  1  0  0  0  0  0999 V2000
    6.7680  -14.8978   19.5252 N   0  0  0  0  0  0  0  0  0  0  0  0
    8.1175  -14.4465   19.6289 C   0  0  1  0  0  0  0  0  0  0  0  0
    8.3302  -13.2752   18.7214 C   0  0  0  0  0  0  0  0  0  0  0  0
    8.2889  -13.6238   17.2941 C   0  0  0  0  0  0  0  0  0  0  0  0
    8.1379  -14.8006   16.8853 O   0  0  0  0  0  0  0  0  0  0  0  0
    8.5454  -14.1890   21.0177 C   0  0  0  0  0  0  0  0  0  0  0  0
    9.7244  -13.7828   21.3029 O   0  0  0  0  0  0  0  0  0  0  0  0
    8.4213  -12.6197   16.3490 O   0  0  0  0  0  0  0  0  0  0  0  0
    5.5736  -11.6884   27.7886 C   0  0  0  0  0  0  0  0  0  0  0  0
    5.4431  -12.2155   26.0665 S   0  0  0  0  0  0  0  0  0  0  0  0
    6.8984  -13.1526   25.5438 C   0  0  0  0  0  0  0  0  0  0  0  0
    6.9056  -13.4825   24.1089 C   0  0  0  0  0  0  0  0  0  0  0  0
    8.0670  -14.1849   23.5148 C   0  0  2  0  0  0  0  0  0  0  0  0
    7.6709  -14.3803   22.0896 N   0  0  0  0  0  0  0  0  0  0  0  0
    8.5280  -15.4233   24.0970 C   0  0  0  0  0  0  0  0  0  0  0  0
    7.9031  -16.5247   23.8788 O   0  0  0  0  0  0  0  0  0  0  0  0
   12.8222  -14.7422   19.6745 N   0  0  0  0  0  0  0  0  0  0  0  0
   13.9188  -15.3925   20.2882 C   0  0  0  0  0  0  0  0  0  0  0  0
   15.1363  -14.9382   20.1971 N   0  0  0  0  0  0  0  0  0  0  0  0
   13.7559  -16.5957   21.0513 N   0  0  0  0  0  0  0  0  0  0  0  0
   12.4557  -17.1524   21.2616 C   0  0  0  0  0  0  0  0  0  0  0  0
   12.1319  -17.3337   22.7290 C   0  0  0  0  0  0  0  0  0  0  0  0
   11.1234  -16.3057   23.1753 C   0  0  0  0  0  0  0  0  0  0  0  0
   10.6707  -16.5989   24.6230 C   0  0  2  0  0  0  0  0  0  0  0  0
    9.6890  -15.5688   24.9381 N   0  0  0  0  0  0  0  0  0  0  0  0
   11.8433  -16.4699   25.4955 C   0  0  0  0  0  0  0  0  0  0  0  0
   12.7408  -17.4712   25.7957 O   0  0  0  0  0  0  0  0  0  0  0  0
   12.0467  -15.3257   26.0246 O   0  0  0  0  0  0  0  0  0  0  0  0
  2  1  1  1
  2  3  1  0
  3  4  1  0
  4  8  1  0
  5  4  2  0
  6  2  1  0
  7  6  2  0
  9 10  1  0
 10 11  1  0
 11 12  1  0
 13 12  1  1
 13 14  1  0
 14  6  1  0
 15 25  1  0
 15 13  1  0
 16 15  2  0
 18 17  1  0
 18 19  2  0
 20 18  1  0
 21 20  1  0
 21 22  1  0
 23 22  1  0
 24 23  1  6
 24 25  1  0
 26 27  1  0
 26 24  1  0
 28 26  2  0
M  END
$$$$
