DMR.pdb
     RDKit          3D

 28 27  0  0  1  0  0  0  0  0999 V2000
    8.8859  -16.9159   21.2410 N   0  0  0  0  0  0  0  0  0  0  0  0
   10.1393  -16.4029   21.6898 C   0  0  1  0  0  0  0  0  0  0  0  0
   10.6587  -15.4033   20.7039 C   0  0  0  0  0  0  0  0  0  0  0  0
   11.1339  -16.0073   19.4511 C   0  0  0  0  0  0  0  0  0  0  0  0
   10.4410  -16.8059   18.7752 O   0  0  0  0  0  0  0  0  0  0  0  0
   10.1018  -15.8879   23.0724 C   0  0  0  0  0  0  0  0  0  0  0  0
   11.1382  -15.4086   23.6489 O   0  0  0  0  0  0  0  0  0  0  0  0
   12.3994  -15.6900   18.9852 O   0  0  0  0  0  0  0  0  0  0  0  0
    5.8624  -11.9822   26.9887 C   0  0  0  0  0  0  0  0  0  0  0  0
    7.4053  -12.1020   26.0582 S   0  0  0  0  0  0  0  0  0  0  0  0
    7.3001  -13.3459   24.7500 C   0  0  0  0  0  0  0  0  0  0  0  0
    7.4764  -14.7263   25.2308 C   0  0  0  0  0  0  0  0  0  0  0  0
    8.8168  -15.3568   25.2011 C   0  0  2  0  0  0  0  0  0  0  0  0
    8.9200  -15.9029   23.8164 N   0  0  0  0  0  0  0  0  0  0  0  0
    9.1555  -16.3634   26.1796 C   0  0  0  0  0  0  0  0  0  0  0  0
    9.0164  -16.1317   27.4358 O   0  0  0  0  0  0  0  0  0  0  0  0
   12.9980  -22.8252   22.7467 N   0  0  0  0  0  0  0  0  0  0  0  0
   11.5875  -22.8779   22.8458 C   0  0  0  0  0  0  0  0  0  0  0  0
   10.8852  -23.8163   22.2773 N   0  0  0  0  0  0  0  0  0  0  0  0
   10.8425  -21.8980   23.5815 N   0  0  0  0  0  0  0  0  0  0  0  0
   11.5107  -20.8116   24.2278 C   0  0  0  0  0  0  0  0  0  0  0  0
   10.5487  -19.8539   24.8976 C   0  0  0  0  0  0  0  0  0  0  0  0
   10.9334  -19.6465   26.3405 C   0  0  0  0  0  0  0  0  0  0  0  0
   10.0376  -18.5618   26.9787 C   0  0  2  0  0  0  0  0  0  0  0  0
    9.6525  -17.6828   25.8818 N   0  0  0  0  0  0  0  0  0  0  0  0
   10.8474  -17.8294   27.9589 C   0  0  0  0  0  0  0  0  0  0  0  0
   10.9608  -18.1297   29.2987 O   0  0  0  0  0  0  0  0  0  0  0  0
   11.5036  -16.8219   27.5290 O   0  0  0  0  0  0  0  0  0  0  0  0
  2  1  1  6
  2  3  1  0
  3  4  1  0
  4  8  1  0
  5  4  2  0
  6  2  1  0
  7  6  2  0
  9 10  1  0
 10 11  1  0
 11 12  1  0
 13 12  1  1
 13 14  1  0
 14  6  1  0
 15 25  1  0
 15 13  1  0
 16 15  2  0
 18 17  1  0
 18 19  2  0
 20 18  1  0
 21 20  1  0
 21 22  1  0
 23 22  1  0
 24 23  1  6
 24 25  1  0
 26 27  1  0
 26 24  1  0
 28 26  2  0
M  END
$$$$
