DMR.pdb
     RDKit          3D

 28 27  0  0  1  0  0  0  0  0999 V2000
    8.1467  -13.6481   19.7368 N   0  0  0  0  0  0  0  0  0  0  0  0
    8.1744  -14.8846   20.4479 C   0  0  1  0  0  0  0  0  0  0  0  0
    9.0314  -15.8698   19.7158 C   0  0  0  0  0  0  0  0  0  0  0  0
    8.5331  -16.1960   18.3721 C   0  0  0  0  0  0  0  0  0  0  0  0
    7.3626  -15.9393   17.9997 O   0  0  0  0  0  0  0  0  0  0  0  0
    8.5456  -14.7367   21.8686 C   0  0  0  0  0  0  0  0  0  0  0  0
    9.5142  -13.9908   22.2453 O   0  0  0  0  0  0  0  0  0  0  0  0
    9.3818  -16.8137   17.4681 O   0  0  0  0  0  0  0  0  0  0  0  0
    8.1203  -11.6164   27.1392 C   0  0  0  0  0  0  0  0  0  0  0  0
    6.6263  -12.4158   26.5150 S   0  0  0  0  0  0  0  0  0  0  0  0
    6.8904  -13.1380   24.8785 C   0  0  0  0  0  0  0  0  0  0  0  0
    6.9773  -14.6078   24.8876 C   0  0  0  0  0  0  0  0  0  0  0  0
    8.1684  -15.2841   24.3227 C   0  0  2  0  0  0  0  0  0  0  0  0
    7.8470  -15.4125   22.8713 N   0  0  0  0  0  0  0  0  0  0  0  0
    8.5992  -16.5490   24.8700 C   0  0  0  0  0  0  0  0  0  0  0  0
    7.9379  -17.6257   24.6360 O   0  0  0  0  0  0  0  0  0  0  0  0
   11.5988  -20.4590   30.3634 N   0  0  0  0  0  0  0  0  0  0  0  0
   12.9407  -20.7890   30.0593 C   0  0  0  0  0  0  0  0  0  0  0  0
   13.6897  -21.4757   30.8745 N   0  0  0  0  0  0  0  0  0  0  0  0
   13.5601  -20.3865   28.8302 N   0  0  0  0  0  0  0  0  0  0  0  0
   13.1706  -19.1721   28.1837 C   0  0  0  0  0  0  0  0  0  0  0  0
   11.7819  -19.2515   27.5866 C   0  0  0  0  0  0  0  0  0  0  0  0
   11.4634  -17.9885   26.8276 C   0  0  0  0  0  0  0  0  0  0  0  0
   10.0487  -18.0798   26.2137 C   0  0  2  0  0  0  0  0  0  0  0  0
    9.7667  -16.7490   25.6907 N   0  0  0  0  0  0  0  0  0  0  0  0
    9.1113  -18.4132   27.2921 C   0  0  0  0  0  0  0  0  0  0  0  0
    8.8590  -19.6762   27.7814 O   0  0  0  0  0  0  0  0  0  0  0  0
    8.4714  -17.4434   27.8219 O   0  0  0  0  0  0  0  0  0  0  0  0
  2  1  1  6
  2  3  1  0
  3  4  1  0
  4  8  1  0
  5  4  2  0
  6  2  1  0
  7  6  2  0
  9 10  1  0
 10 11  1  0
 11 12  1  0
 13 12  1  1
 13 14  1  0
 14  6  1  0
 15 25  1  0
 15 13  1  0
 16 15  2  0
 18 17  1  0
 18 19  2  0
 20 18  1  0
 21 20  1  0
 21 22  1  0
 23 22  1  0
 24 23  1  1
 24 25  1  0
 26 27  1  0
 26 24  1  0
 28 26  2  0
M  END
$$$$
