DMR.pdb
     RDKit          3D

 28 27  0  0  1  0  0  0  0  0999 V2000
    7.3445  -18.8107   18.9126 N   0  0  0  0  0  0  0  0  0  0  0  0
    8.5601  -18.3630   18.3147 C   0  0  1  0  0  0  0  0  0  0  0  0
    8.2963  -17.9064   16.9137 C   0  0  0  0  0  0  0  0  0  0  0  0
    7.4714  -18.8427   16.1371 C   0  0  0  0  0  0  0  0  0  0  0  0
    6.9739  -19.8830   16.6322 O   0  0  0  0  0  0  0  0  0  0  0  0
    9.2788  -17.3608   19.1254 C   0  0  0  0  0  0  0  0  0  0  0  0
   10.4453  -16.9403   18.8112 O   0  0  0  0  0  0  0  0  0  0  0  0
    7.2247  -18.5773   14.8001 O   0  0  0  0  0  0  0  0  0  0  0  0
    6.8299  -11.3693   19.1980 C   0  0  0  0  0  0  0  0  0  0  0  0
    7.4937  -12.2668   20.6173 S   0  0  0  0  0  0  0  0  0  0  0  0
    7.7666  -14.0127   20.2341 C   0  0  0  0  0  0  0  0  0  0  0  0
    8.3154  -14.7866   21.3600 C   0  0  0  0  0  0  0  0  0  0  0  0
    9.3794  -15.7899   21.1221 C   0  0  2  0  0  0  0  0  0  0  0  0
    8.7084  -16.8243   20.2818 N   0  0  0  0  0  0  0  0  0  0  0  0
   10.0551  -16.3958   22.2452 C   0  0  0  0  0  0  0  0  0  0  0  0
    9.3921  -16.8127   23.2640 O   0  0  0  0  0  0  0  0  0  0  0  0
   13.2746  -23.9548   23.4354 N   0  0  0  0  0  0  0  0  0  0  0  0
   12.5117  -23.1652   22.5429 C   0  0  0  0  0  0  0  0  0  0  0  0
   12.2212  -23.5632   21.3370 N   0  0  0  0  0  0  0  0  0  0  0  0
   12.0094  -21.8741   22.9131 N   0  0  0  0  0  0  0  0  0  0  0  0
   12.1724  -20.7532   22.0403 C   0  0  0  0  0  0  0  0  0  0  0  0
   11.5611  -19.4870   22.6007 C   0  0  0  0  0  0  0  0  0  0  0  0
   12.6400  -18.5560   23.0929 C   0  0  0  0  0  0  0  0  0  0  0  0
   12.0184  -17.2195   23.5554 C   0  0  2  0  0  0  0  0  0  0  0  0
   11.4768  -16.6062   22.3493 N   0  0  0  0  0  0  0  0  0  0  0  0
   13.0951  -16.3909   24.1096 C   0  0  0  0  0  0  0  0  0  0  0  0
   13.5942  -16.4665   25.3915 O   0  0  0  0  0  0  0  0  0  0  0  0
   13.6129  -15.5205   23.3320 O   0  0  0  0  0  0  0  0  0  0  0  0
  2  1  1  1
  2  3  1  0
  3  4  1  0
  4  8  1  0
  5  4  2  0
  6  2  1  0
  7  6  2  0
  9 10  1  0
 10 11  1  0
 11 12  1  0
 13 12  1  1
 13 14  1  0
 14  6  1  0
 15 25  1  0
 15 13  1  0
 16 15  2  0
 18 17  1  0
 18 19  2  0
 20 18  1  0
 21 20  1  0
 21 22  1  0
 23 22  1  0
 24 23  1  6
 24 25  1  0
 26 27  1  0
 26 24  1  0
 28 26  2  0
M  END
$$$$
