DMR.pdb
     RDKit          3D

 28 27  0  0  1  0  0  0  0  0999 V2000
    6.8219  -15.7919   20.0578 N   0  0  0  0  0  0  0  0  0  0  0  0
    8.2389  -15.7228   20.2089 C   0  0  1  0  0  0  0  0  0  0  0  0
    8.8356  -14.9849   19.0511 C   0  0  0  0  0  0  0  0  0  0  0  0
    8.4096  -15.5027   17.7432 C   0  0  0  0  0  0  0  0  0  0  0  0
    8.0827  -16.7002   17.5592 O   0  0  0  0  0  0  0  0  0  0  0  0
    8.6644  -15.1894   21.5176 C   0  0  0  0  0  0  0  0  0  0  0  0
    9.8957  -15.0017   21.8089 O   0  0  0  0  0  0  0  0  0  0  0  0
    8.3626  -14.6424   16.6584 O   0  0  0  0  0  0  0  0  0  0  0  0
    5.9044  -10.7844   27.4199 C   0  0  0  0  0  0  0  0  0  0  0  0
    5.8618  -11.4887   25.7577 S   0  0  0  0  0  0  0  0  0  0  0  0
    7.0433  -12.8455   25.5779 C   0  0  0  0  0  0  0  0  0  0  0  0
    7.1125  -13.3926   24.2127 C   0  0  0  0  0  0  0  0  0  0  0  0
    8.1077  -14.4394   23.8824 C   0  0  2  0  0  0  0  0  0  0  0  0
    7.7296  -14.8640   22.5028 N   0  0  0  0  0  0  0  0  0  0  0  0
    8.2582  -15.5828   24.7514 C   0  0  0  0  0  0  0  0  0  0  0  0
    7.4568  -16.5836   24.6653 O   0  0  0  0  0  0  0  0  0  0  0  0
   13.7559  -18.9847   21.8416 N   0  0  0  0  0  0  0  0  0  0  0  0
   13.8513  -19.8431   22.9624 C   0  0  0  0  0  0  0  0  0  0  0  0
   14.9861  -20.3444   23.3596 N   0  0  0  0  0  0  0  0  0  0  0  0
   12.7000  -20.2144   23.7326 N   0  0  0  0  0  0  0  0  0  0  0  0
   11.6213  -19.2941   23.9168 C   0  0  0  0  0  0  0  0  0  0  0  0
   11.9104  -18.2678   24.9912 C   0  0  0  0  0  0  0  0  0  0  0  0
   11.0294  -17.0575   24.8123 C   0  0  0  0  0  0  0  0  0  0  0  0
    9.9400  -17.0267   25.9073 C   0  0  2  0  0  0  0  0  0  0  0  0
    9.2774  -15.7372   25.7583 N   0  0  0  0  0  0  0  0  0  0  0  0
   10.6098  -17.1084   27.2102 C   0  0  0  0  0  0  0  0  0  0  0  0
   10.6507  -16.1124   28.1613 O   0  0  0  0  0  0  0  0  0  0  0  0
   11.2098  -18.2018   27.4839 O   0  0  0  0  0  0  0  0  0  0  0  0
  2  1  1  6
  2  3  1  0
  3  4  1  0
  4  8  1  0
  5  4  2  0
  6  2  1  0
  7  6  2  0
  9 10  1  0
 10 11  1  0
 11 12  1  0
 13 12  1  1
 13 14  1  0
 14  6  1  0
 15 25  1  0
 15 13  1  0
 16 15  2  0
 18 17  1  0
 18 19  2  0
 20 18  1  0
 21 20  1  0
 21 22  1  0
 23 22  1  0
 24 23  1  6
 24 25  1  0
 26 27  1  0
 26 24  1  0
 28 26  2  0
M  END
$$$$
