DMR.pdb
     RDKit          3D

 28 27  0  0  1  0  0  0  0  0999 V2000
    7.2332  -16.2789   20.8483 N   0  0  0  0  0  0  0  0  0  0  0  0
    8.5884  -15.8515   20.9759 C   0  0  1  0  0  0  0  0  0  0  0  0
    8.8738  -14.7709   19.9799 C   0  0  0  0  0  0  0  0  0  0  0  0
    8.7503  -15.2126   18.5836 C   0  0  0  0  0  0  0  0  0  0  0  0
    8.4162  -16.3799   18.2663 O   0  0  0  0  0  0  0  0  0  0  0  0
    8.9598  -15.4811   22.3554 C   0  0  0  0  0  0  0  0  0  0  0  0
   10.1697  -15.2405   22.6937 O   0  0  0  0  0  0  0  0  0  0  0  0
    9.0113  -14.3117   17.5641 O   0  0  0  0  0  0  0  0  0  0  0  0
    6.4229  -11.9850   27.4469 C   0  0  0  0  0  0  0  0  0  0  0  0
    6.3949  -11.5493   25.6947 S   0  0  0  0  0  0  0  0  0  0  0  0
    7.3566  -12.7152   24.7022 C   0  0  0  0  0  0  0  0  0  0  0  0
    7.2886  -14.1031   25.1890 C   0  0  0  0  0  0  0  0  0  0  0  0
    8.3239  -15.0828   24.7847 C   0  0  2  0  0  0  0  0  0  0  0  0
    7.9947  -15.3771   23.3594 N   0  0  0  0  0  0  0  0  0  0  0  0
    8.4873  -16.3030   25.5394 C   0  0  0  0  0  0  0  0  0  0  0  0
    7.7650  -17.3348   25.2849 O   0  0  0  0  0  0  0  0  0  0  0  0
   14.3644  -20.3031   22.2133 N   0  0  0  0  0  0  0  0  0  0  0  0
   14.1024  -21.1452   23.3197 C   0  0  0  0  0  0  0  0  0  0  0  0
   14.5384  -22.3714   23.3788 N   0  0  0  0  0  0  0  0  0  0  0  0
   13.3386  -20.6982   24.4481 N   0  0  0  0  0  0  0  0  0  0  0  0
   12.5145  -19.5336   24.3524 C   0  0  0  0  0  0  0  0  0  0  0  0
   11.6293  -19.3472   25.5660 C   0  0  0  0  0  0  0  0  0  0  0  0
   10.9519  -18.0011   25.5203 C   0  0  0  0  0  0  0  0  0  0  0  0
   10.0568  -17.8141   26.7655 C   0  0  2  0  0  0  0  0  0  0  0  0
    9.4372  -16.5048   26.6040 N   0  0  0  0  0  0  0  0  0  0  0  0
   10.9243  -17.8254   27.9487 C   0  0  0  0  0  0  0  0  0  0  0  0
   11.3826  -18.9476   28.6036 O   0  0  0  0  0  0  0  0  0  0  0  0
   11.2838  -16.6913   28.4124 O   0  0  0  0  0  0  0  0  0  0  0  0
  2  1  1  1
  2  3  1  0
  3  4  1  0
  4  8  1  0
  5  4  2  0
  6  2  1  0
  7  6  2  0
  9 10  1  0
 10 11  1  0
 11 12  1  0
 13 12  1  1
 13 14  1  0
 14  6  1  0
 15 25  1  0
 15 13  1  0
 16 15  2  0
 18 17  1  0
 18 19  2  0
 20 18  1  0
 21 20  1  0
 21 22  1  0
 23 22  1  0
 24 23  1  6
 24 25  1  0
 26 27  1  0
 26 24  1  0
 28 26  2  0
M  END
$$$$
