DMR.pdb
     RDKit          3D

 28 27  0  0  1  0  0  0  0  0999 V2000
    5.8409  -19.1312   24.0468 N   0  0  0  0  0  0  0  0  0  0  0  0
    5.6289  -18.3188   22.8933 C   0  0  1  0  0  0  0  0  0  0  0  0
    4.1614  -18.1069   22.6868 C   0  0  0  0  0  0  0  0  0  0  0  0
    3.4097  -19.3553   22.4953 C   0  0  0  0  0  0  0  0  0  0  0  0
    3.4873  -20.3247   23.2884 O   0  0  0  0  0  0  0  0  0  0  0  0
    6.3993  -17.0601   22.9121 C   0  0  0  0  0  0  0  0  0  0  0  0
    6.4084  -16.2524   21.9203 O   0  0  0  0  0  0  0  0  0  0  0  0
    2.5762  -19.4804   21.3959 O   0  0  0  0  0  0  0  0  0  0  0  0
    7.1032  -11.4785   26.4424 C   0  0  0  0  0  0  0  0  0  0  0  0
    6.1283  -12.9910   26.5926 S   0  0  0  0  0  0  0  0  0  0  0  0
    6.3907  -14.0959   25.1855 C   0  0  0  0  0  0  0  0  0  0  0  0
    7.7163  -14.7365   25.1755 C   0  0  0  0  0  0  0  0  0  0  0  0
    8.1318  -15.5641   24.0190 C   0  0  2  0  0  0  0  0  0  0  0  0
    7.1586  -16.6951   24.0259 N   0  0  0  0  0  0  0  0  0  0  0  0
    9.4888  -16.0512   23.9389 C   0  0  0  0  0  0  0  0  0  0  0  0
   10.2676  -15.9973   24.9595 O   0  0  0  0  0  0  0  0  0  0  0  0
    7.6236  -12.3913   19.7082 N   0  0  0  0  0  0  0  0  0  0  0  0
    8.4746  -13.0585   18.7957 C   0  0  0  0  0  0  0  0  0  0  0  0
    8.0126  -13.7860   17.8188 N   0  0  0  0  0  0  0  0  0  0  0  0
    9.9030  -12.9737   18.8906 N   0  0  0  0  0  0  0  0  0  0  0  0
   10.5585  -13.1374   20.1508 C   0  0  0  0  0  0  0  0  0  0  0  0
   10.6257  -14.5853   20.5868 C   0  0  0  0  0  0  0  0  0  0  0  0
   11.2273  -14.6915   21.9651 C   0  0  0  0  0  0  0  0  0  0  0  0
   11.4149  -16.1758   22.3502 C   0  0  2  0  0  0  0  0  0  0  0  0
   10.0978  -16.6362   22.7713 N   0  0  0  0  0  0  0  0  0  0  0  0
   12.3583  -16.2333   23.4725 C   0  0  0  0  0  0  0  0  0  0  0  0
   12.0434  -16.0568   24.8022 O   0  0  0  0  0  0  0  0  0  0  0  0
   13.5811  -16.4662   23.1882 O   0  0  0  0  0  0  0  0  0  0  0  0
  2  1  1  1
  2  3  1  0
  3  4  1  0
  4  8  1  0
  5  4  2  0
  6  2  1  0
  7  6  2  0
  9 10  1  0
 10 11  1  0
 11 12  1  0
 13 12  1  1
 13 14  1  0
 14  6  1  0
 15 25  1  0
 15 13  1  0
 16 15  2  0
 18 17  1  0
 18 19  2  0
 20 18  1  0
 21 20  1  0
 21 22  1  0
 23 22  1  0
 24 23  1  1
 24 25  1  0
 26 27  1  0
 26 24  1  0
 28 26  2  0
M  END
$$$$
