DMR.pdb
     RDKit          3D

 28 27  0  0  1  0  0  0  0  0999 V2000
    7.0275  -16.4680   19.8505 N   0  0  0  0  0  0  0  0  0  0  0  0
    8.2745  -15.7764   19.8034 C   0  0  1  0  0  0  0  0  0  0  0  0
    8.2582  -14.7801   18.6862 C   0  0  0  0  0  0  0  0  0  0  0  0
    8.3272  -15.3934   17.3522 C   0  0  0  0  0  0  0  0  0  0  0  0
    7.6522  -16.4014   17.0312 O   0  0  0  0  0  0  0  0  0  0  0  0
    8.6693  -15.1887   21.0984 C   0  0  0  0  0  0  0  0  0  0  0  0
    9.8250  -14.6747   21.2889 O   0  0  0  0  0  0  0  0  0  0  0  0
    9.1697  -14.8451   16.3990 O   0  0  0  0  0  0  0  0  0  0  0  0
    5.5799  -12.3603   27.7738 C   0  0  0  0  0  0  0  0  0  0  0  0
    5.5345  -12.7953   26.0218 S   0  0  0  0  0  0  0  0  0  0  0  0
    6.8310  -13.9813   25.5954 C   0  0  0  0  0  0  0  0  0  0  0  0
    6.8955  -14.2960   24.1585 C   0  0  0  0  0  0  0  0  0  0  0  0
    8.1782  -14.7164   23.5479 C   0  0  2  0  0  0  0  0  0  0  0  0
    7.7874  -15.1695   22.1810 N   0  0  0  0  0  0  0  0  0  0  0  0
    8.9928  -15.7095   24.2077 C   0  0  0  0  0  0  0  0  0  0  0  0
    8.5854  -16.9228   24.3228 O   0  0  0  0  0  0  0  0  0  0  0  0
   16.2591  -15.6164   21.4902 N   0  0  0  0  0  0  0  0  0  0  0  0
   14.9892  -15.3916   20.9080 C   0  0  0  0  0  0  0  0  0  0  0  0
   14.8504  -14.8690   19.7229 N   0  0  0  0  0  0  0  0  0  0  0  0
   13.7730  -15.7274   21.5896 N   0  0  0  0  0  0  0  0  0  0  0  0
   13.7911  -16.6048   22.7185 C   0  0  0  0  0  0  0  0  0  0  0  0
   12.4169  -16.8044   23.3210 C   0  0  0  0  0  0  0  0  0  0  0  0
   12.4457  -16.5187   24.8011 C   0  0  0  0  0  0  0  0  0  0  0  0
   11.0166  -16.5880   25.3836 C   0  0  2  0  0  0  0  0  0  0  0  0
   10.2963  -15.4761   24.7761 N   0  0  0  0  0  0  0  0  0  0  0  0
   11.1133  -16.4005   26.8356 C   0  0  0  0  0  0  0  0  0  0  0  0
   10.5982  -15.3405   27.5493 O   0  0  0  0  0  0  0  0  0  0  0  0
   11.7332  -17.3016   27.4945 O   0  0  0  0  0  0  0  0  0  0  0  0
  2  1  1  1
  2  3  1  0
  3  4  1  0
  4  8  1  0
  5  4  2  0
  6  2  1  0
  7  6  2  0
  9 10  1  0
 10 11  1  0
 11 12  1  0
 13 12  1  1
 13 14  1  0
 14  6  1  0
 15 25  1  0
 15 13  1  0
 16 15  2  0
 18 17  1  0
 18 19  2  0
 20 18  1  0
 21 20  1  0
 21 22  1  0
 23 22  1  0
 24 23  1  6
 24 25  1  0
 26 27  1  0
 26 24  1  0
 28 26  2  0
M  END
$$$$
