DMR.pdb
     RDKit          3D

 28 27  0  0  1  0  0  0  0  0999 V2000
    8.3413  -16.8136   20.1333 N   0  0  0  0  0  0  0  0  0  0  0  0
    9.6340  -16.9758   20.7149 C   0  0  1  0  0  0  0  0  0  0  0  0
   10.6770  -16.4327   19.7885 C   0  0  0  0  0  0  0  0  0  0  0  0
   10.7544  -17.1492   18.5076 C   0  0  0  0  0  0  0  0  0  0  0  0
    9.9340  -18.0387   18.1750 O   0  0  0  0  0  0  0  0  0  0  0  0
    9.7345  -16.4323   22.0834 C   0  0  0  0  0  0  0  0  0  0  0  0
   10.8330  -16.4360   22.7387 O   0  0  0  0  0  0  0  0  0  0  0  0
   11.7718  -16.8391   17.6201 O   0  0  0  0  0  0  0  0  0  0  0  0
    7.1680  -11.9337   27.6433 C   0  0  0  0  0  0  0  0  0  0  0  0
    7.8673  -12.5588   26.1003 S   0  0  0  0  0  0  0  0  0  0  0  0
    6.9724  -14.0121   25.5031 C   0  0  0  0  0  0  0  0  0  0  0  0
    7.4426  -14.5006   24.1962 C   0  0  0  0  0  0  0  0  0  0  0  0
    8.6660  -15.3320   24.1112 C   0  0  2  0  0  0  0  0  0  0  0  0
    8.6219  -15.8856   22.7263 N   0  0  0  0  0  0  0  0  0  0  0  0
    8.8868  -16.3804   25.0794 C   0  0  0  0  0  0  0  0  0  0  0  0
    8.0204  -17.3148   25.2453 O   0  0  0  0  0  0  0  0  0  0  0  0
   13.5137  -19.5330   30.8556 N   0  0  0  0  0  0  0  0  0  0  0  0
   13.3569  -20.7342   30.1244 C   0  0  0  0  0  0  0  0  0  0  0  0
   13.1091  -21.8739   30.7046 N   0  0  0  0  0  0  0  0  0  0  0  0
   13.4611  -20.7701   28.6946 N   0  0  0  0  0  0  0  0  0  0  0  0
   13.2469  -19.5871   27.9205 C   0  0  0  0  0  0  0  0  0  0  0  0
   11.7847  -19.2047   27.8366 C   0  0  0  0  0  0  0  0  0  0  0  0
   11.6017  -18.0280   26.9121 C   0  0  0  0  0  0  0  0  0  0  0  0
   10.1167  -17.6035   26.8798 C   0  0  2  0  0  0  0  0  0  0  0  0
   10.0482  -16.5061   25.9231 N   0  0  0  0  0  0  0  0  0  0  0  0
    9.7540  -17.1337   28.2217 C   0  0  0  0  0  0  0  0  0  0  0  0
    9.2231  -17.9058   29.2317 O   0  0  0  0  0  0  0  0  0  0  0  0
    9.9470  -15.8967   28.4725 O   0  0  0  0  0  0  0  0  0  0  0  0
  2  1  1  6
  2  3  1  0
  3  4  1  0
  4  8  1  0
  5  4  2  0
  6  2  1  0
  7  6  2  0
  9 10  1  0
 10 11  1  0
 11 12  1  0
 13 12  1  1
 13 14  1  0
 14  6  1  0
 15 25  1  0
 15 13  1  0
 16 15  2  0
 18 17  1  0
 18 19  2  0
 20 18  1  0
 21 20  1  0
 21 22  1  0
 23 22  1  0
 24 23  1  1
 24 25  1  0
 26 27  1  0
 26 24  1  0
 28 26  2  0
M  END
$$$$
