SPC.pdb
     RDKit          3D

 20 20  0  0  1  0  0  0  0  0999 V2000
   17.7865  -10.9534  -17.1617 O   0  0  0  0  0  0  0  0  0  0  0  0
   19.0695  -10.6460  -17.6114 C   0  0  0  0  0  0  0  0  0  0  0  0
   20.1481  -11.0410  -16.6223 C   0  0  2  0  0  0  0  0  0  0  0  0
   20.1179  -12.4581  -16.4681 N   0  0  0  0  0  0  0  0  0  0  0  0
   19.9278  -10.3553  -15.3297 C   0  0  0  0  0  0  0  0  0  0  0  0
   19.1805  -10.9813  -14.4910 O   0  0  0  0  0  0  0  0  0  0  0  0
   20.5016   -9.0790  -15.0196 N   0  0  0  0  0  0  0  0  0  0  0  0
   21.4324   -8.4000  -15.8379 C   0  0  0  0  0  0  0  0  0  0  0  0
   21.9587   -7.2560  -14.9544 C   0  0  0  0  0  0  0  0  0  0  0  0
   20.8009   -6.9939  -14.0287 C   0  0  0  0  0  0  0  0  0  0  0  0
   20.2080   -8.3428  -13.8558 C   0  0  1  0  0  0  0  0  0  0  0  0
   18.7383   -8.2635  -13.5862 C   0  0  0  0  0  0  0  0  0  0  0  0
   17.9814   -8.4562  -14.5567 O   0  0  0  0  0  0  0  0  0  0  0  0
   18.2022   -7.9889  -12.3211 N   0  0  0  0  0  0  0  0  0  0  0  0
   16.7771   -7.9130  -12.0491 C   0  0  1  0  0  0  0  0  0  0  0  0
   16.4393   -8.2530  -10.6151 C   0  0  0  0  0  0  0  0  0  0  0  0
   17.0857   -9.9154  -10.2882 S   0  0  0  0  0  0  0  0  0  0  0  0
   16.2724   -6.5588  -12.3457 C   0  0  0  0  0  0  0  0  0  0  0  0
   17.0783   -5.6071  -12.4510 O   0  0  0  0  0  0  0  0  0  0  0  0
   14.9299   -6.2986  -12.5140 O   0  0  0  0  0  0  0  0  0  0  0  0
  2  1  1  0
  3  2  1  0
  3  4  1  1
  5  3  1  0
  5  6  2  0
  7  5  1  0
  8  7  1  0
  9 10  1  0
  9  8  1  0
 10 11  1  0
 11  7  1  0
 11 12  1  6
 12 14  1  0
 12 13  2  0
 14 15  1  0
 15 16  1  1
 16 17  1  0
 18 20  1  0
 18 15  1  0
 19 18  2  0
M  END
$$$$
