SPC.pdb
     RDKit          3D

 20 20  0  0  1  0  0  0  0  0999 V2000
   17.0828  -10.4713  -17.2372 O   0  0  0  0  0  0  0  0  0  0  0  0
   17.0964  -10.0546  -15.9072 C   0  0  0  0  0  0  0  0  0  0  0  0
   18.2781  -10.6034  -15.1326 C   0  0  2  0  0  0  0  0  0  0  0  0
   18.0783  -12.0021  -14.9413 N   0  0  0  0  0  0  0  0  0  0  0  0
   18.4096   -9.8977  -13.8388 C   0  0  0  0  0  0  0  0  0  0  0  0
   17.6024  -10.2814  -12.9142 O   0  0  0  0  0  0  0  0  0  0  0  0
   19.3667   -8.8543  -13.6166 N   0  0  0  0  0  0  0  0  0  0  0  0
   20.3782   -8.4878  -14.5331 C   0  0  0  0  0  0  0  0  0  0  0  0
   21.3040   -7.5563  -13.7320 C   0  0  0  0  0  0  0  0  0  0  0  0
   20.3701   -6.9571  -12.7148 C   0  0  0  0  0  0  0  0  0  0  0  0
   19.4178   -8.0640  -12.4524 C   0  0  1  0  0  0  0  0  0  0  0  0
   18.0718   -7.5447  -12.0556 C   0  0  0  0  0  0  0  0  0  0  0  0
   17.2727   -7.3010  -12.9797 O   0  0  0  0  0  0  0  0  0  0  0  0
   17.6921   -7.3303  -10.7240 N   0  0  0  0  0  0  0  0  0  0  0  0
   16.4045   -6.7842  -10.3313 C   0  0  1  0  0  0  0  0  0  0  0  0
   16.0395   -7.1228   -8.9035 C   0  0  0  0  0  0  0  0  0  0  0  0
   16.1224   -8.9268   -8.7390 S   0  0  0  0  0  0  0  0  0  0  0  0
   16.4044   -5.3168  -10.4841 C   0  0  0  0  0  0  0  0  0  0  0  0
   15.3288   -4.6844  -10.3873 O   0  0  0  0  0  0  0  0  0  0  0  0
   17.5587   -4.6067  -10.7322 O   0  0  0  0  0  0  0  0  0  0  0  0
  2  1  1  0
  3  2  1  0
  3  4  1  1
  5  3  1  0
  5  6  2  0
  7  5  1  0
  8  7  1  0
  9 10  1  0
  9  8  1  0
 10 11  1  0
 11  7  1  0
 11 12  1  6
 12 14  1  0
 12 13  2  0
 14 15  1  0
 15 16  1  1
 16 17  1  0
 18 20  1  0
 18 15  1  0
 19 18  2  0
M  END
$$$$
