SPC.pdb
     RDKit          3D

 20 20  0  0  1  0  0  0  0  0999 V2000
   24.0142  -10.7176  -19.9021 O   0  0  0  0  0  0  0  0  0  0  0  0
   23.0802  -11.6857  -19.5373 C   0  0  0  0  0  0  0  0  0  0  0  0
   23.4145  -12.3561  -18.2196 C   0  0  2  0  0  0  0  0  0  0  0  0
   22.4297  -13.3544  -17.9618 N   0  0  0  0  0  0  0  0  0  0  0  0
   23.4572  -11.3511  -17.1345 C   0  0  0  0  0  0  0  0  0  0  0  0
   22.3227  -10.8425  -16.8057 O   0  0  0  0  0  0  0  0  0  0  0  0
   24.6736  -10.9601  -16.4851 N   0  0  0  0  0  0  0  0  0  0  0  0
   25.9226  -11.5927  -16.6776 C   0  0  0  0  0  0  0  0  0  0  0  0
   26.8191  -11.0204  -15.5662 C   0  0  0  0  0  0  0  0  0  0  0  0
   26.2177   -9.6619  -15.3233 C   0  0  0  0  0  0  0  0  0  0  0  0
   24.7734   -9.8942  -15.5705 C   0  0  1  0  0  0  0  0  0  0  0  0
   24.0967   -8.6540  -16.0634 C   0  0  0  0  0  0  0  0  0  0  0  0
   24.2202   -8.3948  -17.2756 O   0  0  0  0  0  0  0  0  0  0  0  0
   23.3536   -7.8024  -15.2352 N   0  0  0  0  0  0  0  0  0  0  0  0
   22.7840   -6.5419  -15.6794 C   0  0  1  0  0  0  0  0  0  0  0  0
   21.2943   -6.6300  -15.9230 C   0  0  0  0  0  0  0  0  0  0  0  0
   20.7273   -4.9754  -16.4017 S   0  0  0  0  0  0  0  0  0  0  0  0
   23.0382   -5.4868  -14.6801 C   0  0  0  0  0  0  0  0  0  0  0  0
   22.9660   -5.7587  -13.4606 O   0  0  0  0  0  0  0  0  0  0  0  0
   23.3570   -4.1965  -15.0431 O   0  0  0  0  0  0  0  0  0  0  0  0
  2  1  1  0
  3  2  1  0
  3  4  1  1
  5  3  1  0
  5  6  2  0
  7  5  1  0
  8  7  1  0
  9 10  1  0
  9  8  1  0
 10 11  1  0
 11  7  1  0
 11 12  1  6
 12 14  1  0
 12 13  2  0
 14 15  1  0
 15 16  1  1
 16 17  1  0
 18 20  1  0
 18 15  1  0
 19 18  2  0
M  END
$$$$
