SPC.pdb
     RDKit          3D

 20 20  0  0  1  0  0  0  0  0999 V2000
   17.1709  -10.7784  -18.3128 O   0  0  0  0  0  0  0  0  0  0  0  0
   17.9061   -9.9766  -17.4415 C   0  0  0  0  0  0  0  0  0  0  0  0
   18.6737  -10.7806  -16.4109 C   0  0  2  0  0  0  0  0  0  0  0  0
   17.7405  -11.3222  -15.4789 N   0  0  0  0  0  0  0  0  0  0  0  0
   19.6703   -9.9209  -15.7350 C   0  0  0  0  0  0  0  0  0  0  0  0
   19.2155   -9.1942  -14.7764 O   0  0  0  0  0  0  0  0  0  0  0  0
   21.0525   -9.8890  -16.1128 N   0  0  0  0  0  0  0  0  0  0  0  0
   21.6464  -10.7646  -17.0497 C   0  0  0  0  0  0  0  0  0  0  0  0
   23.1586  -10.5341  -16.8870 C   0  0  0  0  0  0  0  0  0  0  0  0
   23.2259   -9.1087  -16.4076 C   0  0  0  0  0  0  0  0  0  0  0  0
   21.9926   -8.9785  -15.5934 C   0  0  1  0  0  0  0  0  0  0  0  0
   21.4840   -7.5712  -15.5928 C   0  0  0  0  0  0  0  0  0  0  0  0
   20.6971   -7.2615  -16.5074 O   0  0  0  0  0  0  0  0  0  0  0  0
   21.8508   -6.6214  -14.6302 N   0  0  0  0  0  0  0  0  0  0  0  0
   21.4438   -5.2276  -14.6777 C   0  0  1  0  0  0  0  0  0  0  0  0
   20.9248   -4.7270  -13.3487 C   0  0  0  0  0  0  0  0  0  0  0  0
   20.4551   -2.9900  -13.5727 S   0  0  0  0  0  0  0  0  0  0  0  0
   22.5769   -4.3790  -15.0929 C   0  0  0  0  0  0  0  0  0  0  0  0
   23.7154   -4.5905  -14.6181 O   0  0  0  0  0  0  0  0  0  0  0  0
   22.4278   -3.3491  -15.9959 O   0  0  0  0  0  0  0  0  0  0  0  0
  2  1  1  0
  3  2  1  0
  3  4  1  1
  5  3  1  0
  5  6  2  0
  7  5  1  0
  8  7  1  0
  9 10  1  0
  9  8  1  0
 10 11  1  0
 11  7  1  0
 11 12  1  6
 12 14  1  0
 12 13  2  0
 14 15  1  0
 15 16  1  1
 16 17  1  0
 18 20  1  0
 18 15  1  0
 19 18  2  0
M  END
$$$$
