SPC.pdb
     RDKit          3D

 20 20  0  0  1  0  0  0  0  0999 V2000
   21.6244  -11.8952  -20.3536 O   0  0  0  0  0  0  0  0  0  0  0  0
   21.2122  -11.0386  -19.3342 C   0  0  0  0  0  0  0  0  0  0  0  0
   20.9062  -11.7693  -18.0419 C   0  0  2  0  0  0  0  0  0  0  0  0
   19.5963  -12.3238  -18.1397 N   0  0  0  0  0  0  0  0  0  0  0  0
   21.0118  -10.8400  -16.8954 C   0  0  0  0  0  0  0  0  0  0  0  0
   20.0605   -9.9813  -16.7891 O   0  0  0  0  0  0  0  0  0  0  0  0
   22.0959  -10.8816  -15.9589 N   0  0  0  0  0  0  0  0  0  0  0  0
   23.0961  -11.8798  -15.9363 C   0  0  0  0  0  0  0  0  0  0  0  0
   23.8309  -11.6581  -14.6032 C   0  0  0  0  0  0  0  0  0  0  0  0
   23.6388  -10.1849  -14.3610 C   0  0  0  0  0  0  0  0  0  0  0  0
   22.2974   -9.9297  -14.9410 C   0  0  1  0  0  0  0  0  0  0  0  0
   22.1764   -8.5248  -15.4414 C   0  0  0  0  0  0  0  0  0  0  0  0
   22.5008   -8.3246  -16.6273 O   0  0  0  0  0  0  0  0  0  0  0  0
   21.7255   -7.4618  -14.6475 N   0  0  0  0  0  0  0  0  0  0  0  0
   21.6553   -6.0857  -15.1079 C   0  0  1  0  0  0  0  0  0  0  0  0
   20.2390   -5.6376  -15.3896 C   0  0  0  0  0  0  0  0  0  0  0  0
   20.3123   -3.8926  -15.8774 S   0  0  0  0  0  0  0  0  0  0  0  0
   22.2468   -5.1809  -14.1039 C   0  0  0  0  0  0  0  0  0  0  0  0
   22.0921   -5.4222  -12.8857 O   0  0  0  0  0  0  0  0  0  0  0  0
   22.9732   -4.0660  -14.4611 O   0  0  0  0  0  0  0  0  0  0  0  0
  2  1  1  0
  3  2  1  0
  3  4  1  6
  5  3  1  0
  5  6  2  0
  7  5  1  0
  8  7  1  0
  9 10  1  0
  9  8  1  0
 10 11  1  0
 11  7  1  0
 11 12  1  6
 12 14  1  0
 12 13  2  0
 14 15  1  0
 15 16  1  1
 16 17  1  0
 18 20  1  0
 18 15  1  0
 19 18  2  0
M  END
$$$$
