SPC.pdb
     RDKit          3D

 20 20  0  0  1  0  0  0  0  0999 V2000
   19.3997  -11.0958  -14.6701 O   0  0  0  0  0  0  0  0  0  0  0  0
   18.2534  -11.2835  -15.4405 C   0  0  0  0  0  0  0  0  0  0  0  0
   18.4674  -10.9448  -16.9024 C   0  0  2  0  0  0  0  0  0  0  0  0
   19.4417  -11.8407  -17.4324 N   0  0  0  0  0  0  0  0  0  0  0  0
   18.9015   -9.5369  -17.0395 C   0  0  0  0  0  0  0  0  0  0  0  0
   20.1727   -9.3528  -17.1013 O   0  0  0  0  0  0  0  0  0  0  0  0
   17.9788   -8.4417  -17.0997 N   0  0  0  0  0  0  0  0  0  0  0  0
   16.5742   -8.5815  -17.1667 C   0  0  0  0  0  0  0  0  0  0  0  0
   16.0632   -7.1718  -17.5102 C   0  0  0  0  0  0  0  0  0  0  0  0
   17.1264   -6.2827  -16.9228 C   0  0  0  0  0  0  0  0  0  0  0  0
   18.3606   -7.0864  -17.1010 C   0  0  1  0  0  0  0  0  0  0  0  0
   19.3720   -6.7774  -16.0424 C   0  0  0  0  0  0  0  0  0  0  0  0
   19.3358   -7.4791  -15.0138 O   0  0  0  0  0  0  0  0  0  0  0  0
   20.3267   -5.7591  -16.1648 N   0  0  0  0  0  0  0  0  0  0  0  0
   21.3055   -5.4449  -15.1382 C   0  0  1  0  0  0  0  0  0  0  0  0
   22.5697   -4.8393  -15.7052 C   0  0  0  0  0  0  0  0  0  0  0  0
   23.6614   -4.4627  -14.3072 S   0  0  0  0  0  0  0  0  0  0  0  0
   20.7311   -4.5064  -14.1555 C   0  0  0  0  0  0  0  0  0  0  0  0
   19.9954   -3.5729  -14.5475 O   0  0  0  0  0  0  0  0  0  0  0  0
   20.9764   -4.6204  -12.8045 O   0  0  0  0  0  0  0  0  0  0  0  0
  2  1  1  0
  3  2  1  0
  3  4  1  1
  5  3  1  0
  5  6  2  0
  7  5  1  0
  8  7  1  0
  9 10  1  0
  9  8  1  0
 10 11  1  0
 11  7  1  0
 11 12  1  1
 12 14  1  0
 12 13  2  0
 14 15  1  0
 15 16  1  6
 16 17  1  0
 18 20  1  0
 18 15  1  0
 19 18  2  0
M  END
$$$$
