SPC.pdb
     RDKit          3D

 20 20  0  0  1  0  0  0  0  0999 V2000
   22.6548  -18.7188  -16.8836 O   0  0  0  0  0  0  0  0  0  0  0  0
   23.1954  -19.7292  -17.6771 C   0  0  0  0  0  0  0  0  0  0  0  0
   24.6959  -19.6007  -17.8488 C   0  0  2  0  0  0  0  0  0  0  0  0
   25.1221  -20.5676  -18.8060 N   0  0  0  0  0  0  0  0  0  0  0  0
   25.3748  -19.7965  -16.5488 C   0  0  0  0  0  0  0  0  0  0  0  0
   25.4376  -21.0122  -16.1344 O   0  0  0  0  0  0  0  0  0  0  0  0
   25.9291  -18.7136  -15.7909 N   0  0  0  0  0  0  0  0  0  0  0  0
   25.9860  -17.3730  -16.2346 C   0  0  0  0  0  0  0  0  0  0  0  0
   26.9135  -16.6732  -15.2265 C   0  0  0  0  0  0  0  0  0  0  0  0
   26.7160  -17.4870  -13.9756 C   0  0  0  0  0  0  0  0  0  0  0  0
   26.4886  -18.8535  -14.5064 C   0  0  1  0  0  0  0  0  0  0  0  0
   25.6212  -19.6584  -13.5907 C   0  0  0  0  0  0  0  0  0  0  0  0
   24.4050  -19.6903  -13.8584 O   0  0  0  0  0  0  0  0  0  0  0  0
   26.1141  -20.3545  -12.4789 N   0  0  0  0  0  0  0  0  0  0  0  0
   25.2719  -21.0844  -11.5470 C   0  0  1  0  0  0  0  0  0  0  0  0
   26.0505  -22.0766  -10.7131 C   0  0  0  0  0  0  0  0  0  0  0  0
   27.0280  -23.0911  -11.8548 S   0  0  0  0  0  0  0  0  0  0  0  0
   24.5797  -20.1467  -10.6426 C   0  0  0  0  0  0  0  0  0  0  0  0
   25.0411  -18.9958  -10.4729 O   0  0  0  0  0  0  0  0  0  0  0  0
   23.4289  -20.4940   -9.9692 O   0  0  0  0  0  0  0  0  0  0  0  0
  2  1  1  0
  3  2  1  0
  3  4  1  6
  5  3  1  0
  5  6  2  0
  7  5  1  0
  8  7  1  0
  9 10  1  0
  9  8  1  0
 10 11  1  0
 11  7  1  0
 11 12  1  1
 12 14  1  0
 12 13  2  0
 14 15  1  0
 15 16  1  1
 16 17  1  0
 18 20  1  0
 18 15  1  0
 19 18  2  0
M  END
$$$$
