SPC.pdb
     RDKit          3D

 20 20  0  0  1  0  0  0  0  0999 V2000
   17.7602   -9.2603  -17.0184 O   0  0  0  0  0  0  0  0  0  0  0  0
   17.7962   -8.6384  -15.7715 C   0  0  0  0  0  0  0  0  0  0  0  0
   18.8701   -9.2051  -14.8642 C   0  0  2  0  0  0  0  0  0  0  0  0
   18.5645  -10.5739  -14.6081 N   0  0  0  0  0  0  0  0  0  0  0  0
   18.9374   -8.4257  -13.6082 C   0  0  0  0  0  0  0  0  0  0  0  0
   18.0260   -8.6928  -12.7413 O   0  0  0  0  0  0  0  0  0  0  0  0
   19.9443   -7.4362  -13.3609 N   0  0  0  0  0  0  0  0  0  0  0  0
   21.0296   -7.1655  -14.2247 C   0  0  0  0  0  0  0  0  0  0  0  0
   21.9638   -6.2652  -13.3983 C   0  0  0  0  0  0  0  0  0  0  0  0
   21.0114   -5.5738  -12.4598 C   0  0  0  0  0  0  0  0  0  0  0  0
   19.9766   -6.6098  -12.2214 C   0  0  1  0  0  0  0  0  0  0  0  0
   18.6453   -5.9947  -11.9246 C   0  0  0  0  0  0  0  0  0  0  0  0
   17.9594   -5.6479  -12.9049 O   0  0  0  0  0  0  0  0  0  0  0  0
   18.1599   -5.8017  -10.6243 N   0  0  0  0  0  0  0  0  0  0  0  0
   16.9085   -5.1281  -10.3232 C   0  0  1  0  0  0  0  0  0  0  0  0
   16.4409   -5.3747   -8.9066 C   0  0  0  0  0  0  0  0  0  0  0  0
   14.8666   -4.4993   -8.6982 S   0  0  0  0  0  0  0  0  0  0  0  0
   17.0495   -3.6740  -10.5283 C   0  0  0  0  0  0  0  0  0  0  0  0
   18.0763   -3.0875  -10.1183 O   0  0  0  0  0  0  0  0  0  0  0  0
   16.0812   -2.9270  -11.1632 O   0  0  0  0  0  0  0  0  0  0  0  0
  2  1  1  0
  3  2  1  0
  3  4  1  1
  5  3  1  0
  5  6  2  0
  7  5  1  0
  8  7  1  0
  9 10  1  0
  9  8  1  0
 10 11  1  0
 11  7  1  0
 11 12  1  6
 12 14  1  0
 12 13  2  0
 14 15  1  0
 15 16  1  1
 16 17  1  0
 18 20  1  0
 18 15  1  0
 19 18  2  0
M  END
$$$$
