SPC.pdb
     RDKit          3D

 20 20  0  0  1  0  0  0  0  0999 V2000
   19.1433   -9.0112  -17.8841 O   0  0  0  0  0  0  0  0  0  0  0  0
   18.9104   -8.5734  -16.5815 C   0  0  0  0  0  0  0  0  0  0  0  0
   20.0610   -8.8824  -15.6443 C   0  0  2  0  0  0  0  0  0  0  0  0
   20.1227  -10.2949  -15.4604 N   0  0  0  0  0  0  0  0  0  0  0  0
   19.8693   -8.1809  -14.3558 C   0  0  0  0  0  0  0  0  0  0  0  0
   19.0059   -8.7077  -13.5615 O   0  0  0  0  0  0  0  0  0  0  0  0
   20.5894   -6.9929  -14.0032 N   0  0  0  0  0  0  0  0  0  0  0  0
   21.5856   -6.3930  -14.8063 C   0  0  0  0  0  0  0  0  0  0  0  0
   22.2482   -5.3541  -13.8854 C   0  0  0  0  0  0  0  0  0  0  0  0
   21.1364   -4.9981  -12.9350 C   0  0  0  0  0  0  0  0  0  0  0  0
   20.3929   -6.2756  -12.8076 C   0  0  1  0  0  0  0  0  0  0  0  0
   18.9446   -6.0384  -12.5159 C   0  0  0  0  0  0  0  0  0  0  0  0
   18.2170   -5.7624  -13.4886 O   0  0  0  0  0  0  0  0  0  0  0  0
   18.3970   -6.1137  -11.2283 N   0  0  0  0  0  0  0  0  0  0  0  0
   17.0152   -5.7880  -10.9201 C   0  0  1  0  0  0  0  0  0  0  0  0
   16.1856   -7.0116  -10.6026 C   0  0  0  0  0  0  0  0  0  0  0  0
   17.1465   -8.0307   -9.4510 S   0  0  0  0  0  0  0  0  0  0  0  0
   16.9526   -4.8633   -9.7723 C   0  0  0  0  0  0  0  0  0  0  0  0
   17.9936   -4.6064   -9.1268 O   0  0  0  0  0  0  0  0  0  0  0  0
   15.7764   -4.2632   -9.3790 O   0  0  0  0  0  0  0  0  0  0  0  0
  2  1  1  0
  3  2  1  0
  3  4  1  1
  5  3  1  0
  5  6  2  0
  7  5  1  0
  8  7  1  0
  9 10  1  0
  9  8  1  0
 10 11  1  0
 11  7  1  0
 11 12  1  6
 12 14  1  0
 12 13  2  0
 14 15  1  0
 15 16  1  1
 16 17  1  0
 18 20  1  0
 18 15  1  0
 19 18  2  0
M  END
$$$$
