FEE.pdb
     RDKit          3D

 30 30  0  0  1  0  0  0  0  0999 V2000
    5.7171  -17.8918   24.4550 N   0  0  0  0  0  0  0  0  0  0  0  0
    6.6153  -16.7564   24.4573 C   0  0  1  0  0  0  0  0  0  0  0  0
    6.5918  -16.1961   25.8652 C   0  0  0  0  0  0  0  0  0  0  0  0
    6.9296  -14.7699   25.9130 C   0  0  0  0  0  0  0  0  0  0  0  0
    6.0261  -13.8629   25.3999 C   0  0  0  0  0  0  0  0  0  0  0  0
    6.2382  -12.5098   25.3919 C   0  0  0  0  0  0  0  0  0  0  0  0
    7.4099  -12.0364   25.9221 C   0  0  0  0  0  0  0  0  0  0  0  0
    8.3418  -12.9255   26.4475 C   0  0  0  0  0  0  0  0  0  0  0  0
    8.1080  -14.2846   26.4454 C   0  0  0  0  0  0  0  0  0  0  0  0
    7.9876  -17.2420   24.2059 C   0  0  0  0  0  0  0  0  0  0  0  0
    8.3372  -18.3283   24.7145 O   0  0  0  0  0  0  0  0  0  0  0  0
    8.8866  -16.4879   23.4029 N   0  0  0  0  0  0  0  0  0  0  0  0
   10.1712  -17.0193   23.0740 C   0  0  1  0  0  0  0  0  0  0  0  0
   10.6412  -16.3982   21.7789 C   0  0  0  0  0  0  0  0  0  0  0  0
   10.7060  -17.4151   20.6607 C   0  0  0  0  0  0  0  0  0  0  0  0
   10.4290  -16.7688   19.3574 C   0  0  0  0  0  0  0  0  0  0  0  0
    9.7092  -17.3796   18.5286 O   0  0  0  0  0  0  0  0  0  0  0  0
   11.1631  -16.7822   24.1537 C   0  0  0  0  0  0  0  0  0  0  0  0
   11.6903  -15.6509   24.2907 O   0  0  0  0  0  0  0  0  0  0  0  0
   10.9196  -15.5292   19.0026 O   0  0  0  0  0  0  0  0  0  0  0  0
   11.5375  -17.8014   25.0430 N   0  0  0  0  0  0  0  0  0  0  0  0
   12.6021  -17.6426   26.0484 C   0  0  1  0  0  0  0  0  0  0  0  0
   12.0926  -17.9447   27.3908 C   0  0  0  0  0  0  0  0  0  0  0  0
   10.9266  -18.8479   27.4685 C   0  0  0  0  0  0  0  0  0  0  0  0
   10.6091  -19.2584   28.8532 C   0  0  0  0  0  0  0  0  0  0  0  0
   11.3210  -18.9055   29.8494 O   0  0  0  0  0  0  0  0  0  0  0  0
   13.8393  -18.2365   25.6299 C   0  0  0  0  0  0  0  0  0  0  0  0
   14.9578  -18.1665   26.2026 O   0  0  0  0  0  0  0  0  0  0  0  0
    9.4966  -20.0618   29.1734 O   0  0  0  0  0  0  0  0  0  0  0  0
   13.8224  -18.9955   24.4332 O   0  0  0  0  0  0  0  0  0  0  0  0
  2 10  1  0
  2  1  1  1
  3  2  1  0
  3  4  1  0
  4  5  2  0
  4  9  1  0
  5  6  1  0
  6  7  2  0
  8  7  1  0
  9  8  2  0
 10 11  2  0
 12 10  1  0
 12 13  1  0
 13 14  1  6
 14 15  1  0
 16 15  1  0
 16 20  1  0
 17 16  2  0
 18 13  1  0
 18 19  2  0
 21 18  1  0
 22 21  1  0
 22 27  1  0
 22 23  1  1
 24 23  1  0
 25 24  1  0
 26 25  2  0
 27 30  1  0
 28 27  2  0
 29 25  1  0
M  END
$$$$
