FEE.pdb
     RDKit          3D

 30 30  0  0  1  0  0  0  0  0999 V2000
    6.7684  -17.3978   26.3923 N   0  0  0  0  0  0  0  0  0  0  0  0
    6.6881  -17.0230   24.9962 C   0  0  1  0  0  0  0  0  0  0  0  0
    6.1869  -15.5931   24.9660 C   0  0  0  0  0  0  0  0  0  0  0  0
    7.0450  -14.6762   25.7233 C   0  0  0  0  0  0  0  0  0  0  0  0
    7.6224  -15.1297   26.8909 C   0  0  0  0  0  0  0  0  0  0  0  0
    8.4392  -14.3604   27.6763 C   0  0  0  0  0  0  0  0  0  0  0  0
    8.6936  -13.0739   27.2781 C   0  0  0  0  0  0  0  0  0  0  0  0
    8.1264  -12.5866   26.1053 C   0  0  0  0  0  0  0  0  0  0  0  0
    7.3065  -13.3786   25.3291 C   0  0  0  0  0  0  0  0  0  0  0  0
    8.0532  -17.0168   24.4318 C   0  0  0  0  0  0  0  0  0  0  0  0
    8.9727  -17.5458   25.0918 O   0  0  0  0  0  0  0  0  0  0  0  0
    8.3106  -16.4220   23.1663 N   0  0  0  0  0  0  0  0  0  0  0  0
    9.5810  -16.5981   22.5372 C   0  0  1  0  0  0  0  0  0  0  0  0
    9.5114  -16.0493   21.1308 C   0  0  0  0  0  0  0  0  0  0  0  0
   10.8237  -16.2190   20.3974 C   0  0  0  0  0  0  0  0  0  0  0  0
   10.6179  -16.9664   19.1357 C   0  0  0  0  0  0  0  0  0  0  0  0
   11.4173  -16.7687   18.1869 O   0  0  0  0  0  0  0  0  0  0  0  0
   10.6734  -15.9398   23.2981 C   0  0  0  0  0  0  0  0  0  0  0  0
   10.4996  -14.8003   23.7960 O   0  0  0  0  0  0  0  0  0  0  0  0
    9.5935  -17.8704   18.9445 O   0  0  0  0  0  0  0  0  0  0  0  0
   11.9178  -16.5622   23.4823 N   0  0  0  0  0  0  0  0  0  0  0  0
   12.8604  -16.1793   24.5475 C   0  0  1  0  0  0  0  0  0  0  0  0
   12.1784  -16.1286   25.8456 C   0  0  0  0  0  0  0  0  0  0  0  0
   12.3836  -17.2807   26.7466 C   0  0  0  0  0  0  0  0  0  0  0  0
   11.6946  -17.1240   28.0457 C   0  0  0  0  0  0  0  0  0  0  0  0
   12.2086  -16.4786   29.0167 O   0  0  0  0  0  0  0  0  0  0  0  0
   14.1071  -16.8825   24.4498 C   0  0  0  0  0  0  0  0  0  0  0  0
   14.3950  -17.8325   23.6762 O   0  0  0  0  0  0  0  0  0  0  0  0
   10.4211  -17.6695   28.3032 O   0  0  0  0  0  0  0  0  0  0  0  0
   15.1511  -16.4755   25.3176 O   0  0  0  0  0  0  0  0  0  0  0  0
  2 10  1  0
  2  1  1  1
  3  2  1  0
  3  4  1  0
  4  5  2  0
  4  9  1  0
  5  6  1  0
  6  7  2  0
  8  7  1  0
  9  8  2  0
 10 11  2  0
 12 10  1  0
 12 13  1  0
 13 14  1  6
 14 15  1  0
 16 15  1  0
 16 20  1  0
 17 16  2  0
 18 13  1  0
 18 19  2  0
 21 18  1  0
 22 21  1  0
 22 27  1  0
 22 23  1  1
 24 23  1  0
 25 24  1  0
 26 25  2  0
 27 30  1  0
 28 27  2  0
 29 25  1  0
M  END
$$$$
