FEE.pdb
     RDKit          3D

 30 30  0  0  1  0  0  0  0  0999 V2000
    6.3744  -16.5132   25.2387 N   0  0  0  0  0  0  0  0  0  0  0  0
    7.3873  -15.7636   24.5257 C   0  0  1  0  0  0  0  0  0  0  0  0
    8.0036  -14.8137   25.5330 C   0  0  0  0  0  0  0  0  0  0  0  0
    7.2000  -13.6038   25.7357 C   0  0  0  0  0  0  0  0  0  0  0  0
    7.4475  -12.5086   24.9347 C   0  0  0  0  0  0  0  0  0  0  0  0
    6.7591  -11.3289   25.0369 C   0  0  0  0  0  0  0  0  0  0  0  0
    5.7742  -11.2358   25.9853 C   0  0  0  0  0  0  0  0  0  0  0  0
    5.5003  -12.3228   26.8088 C   0  0  0  0  0  0  0  0  0  0  0  0
    6.2058  -13.5017   26.6889 C   0  0  0  0  0  0  0  0  0  0  0  0
    8.4510  -16.6966   24.1013 C   0  0  0  0  0  0  0  0  0  0  0  0
    8.7000  -17.6844   24.8247 O   0  0  0  0  0  0  0  0  0  0  0  0
    9.1722  -16.4725   22.8966 N   0  0  0  0  0  0  0  0  0  0  0  0
   10.2177  -17.3663   22.5109 C   0  0  1  0  0  0  0  0  0  0  0  0
   10.5660  -17.1162   21.0617 C   0  0  0  0  0  0  0  0  0  0  0  0
    9.6395  -17.8609   20.1259 C   0  0  0  0  0  0  0  0  0  0  0  0
    9.9579  -17.5364   18.7166 C   0  0  0  0  0  0  0  0  0  0  0  0
   10.2161  -18.4809   17.9295 O   0  0  0  0  0  0  0  0  0  0  0  0
   11.4213  -17.2156   23.3678 C   0  0  0  0  0  0  0  0  0  0  0  0
   12.0669  -16.1387   23.3676 O   0  0  0  0  0  0  0  0  0  0  0  0
    9.9867  -16.2499   18.2192 O   0  0  0  0  0  0  0  0  0  0  0  0
   11.8692  -18.2581   24.1938 N   0  0  0  0  0  0  0  0  0  0  0  0
   13.0571  -18.1481   25.0577 C   0  0  1  0  0  0  0  0  0  0  0  0
   12.9073  -18.9900   26.2499 C   0  0  0  0  0  0  0  0  0  0  0  0
   11.7167  -18.7441   27.0886 C   0  0  0  0  0  0  0  0  0  0  0  0
   11.5703  -19.7293   28.1816 C   0  0  0  0  0  0  0  0  0  0  0  0
   12.3398  -20.7383   28.2978 O   0  0  0  0  0  0  0  0  0  0  0  0
   14.2809  -18.2186   24.3122 C   0  0  0  0  0  0  0  0  0  0  0  0
   15.4060  -17.7576   24.6367 O   0  0  0  0  0  0  0  0  0  0  0  0
   10.5769  -19.6226   29.1753 O   0  0  0  0  0  0  0  0  0  0  0  0
   14.2403  -18.8811   23.0600 O   0  0  0  0  0  0  0  0  0  0  0  0
  2 10  1  0
  2  1  1  1
  3  2  1  0
  3  4  1  0
  4  5  2  0
  4  9  1  0
  5  6  1  0
  6  7  2  0
  8  7  1  0
  9  8  2  0
 10 11  2  0
 12 10  1  0
 12 13  1  0
 13 14  1  6
 14 15  1  0
 16 15  1  0
 16 20  1  0
 17 16  2  0
 18 13  1  0
 18 19  2  0
 21 18  1  0
 22 21  1  0
 22 27  1  0
 22 23  1  1
 24 23  1  0
 25 24  1  0
 26 25  2  0
 27 30  1  0
 28 27  2  0
 29 25  1  0
M  END
$$$$
