FEE.pdb
     RDKit          3D

 30 30  0  0  1  0  0  0  0  0999 V2000
    5.9442  -17.0457   25.2185 N   0  0  0  0  0  0  0  0  0  0  0  0
    6.9058  -16.0569   24.7783 C   0  0  1  0  0  0  0  0  0  0  0  0
    7.4344  -15.3881   26.0313 C   0  0  0  0  0  0  0  0  0  0  0  0
    7.0185  -13.9864   26.1435 C   0  0  0  0  0  0  0  0  0  0  0  0
    7.8377  -13.0130   25.6109 C   0  0  0  0  0  0  0  0  0  0  0  0
    7.5486  -11.6751   25.6590 C   0  0  0  0  0  0  0  0  0  0  0  0
    6.3842  -11.2873   26.2688 C   0  0  0  0  0  0  0  0  0  0  0  0
    5.5363  -12.2448   26.8158 C   0  0  0  0  0  0  0  0  0  0  0  0
    5.8468  -13.5872   26.7562 C   0  0  0  0  0  0  0  0  0  0  0  0
    8.0432  -16.7561   24.1463 C   0  0  0  0  0  0  0  0  0  0  0  0
    8.4578  -17.8123   24.6693 O   0  0  0  0  0  0  0  0  0  0  0  0
    8.6492  -16.2362   22.9697 N   0  0  0  0  0  0  0  0  0  0  0  0
    9.8174  -16.8574   22.4314 C   0  0  1  0  0  0  0  0  0  0  0  0
   10.1086  -16.2600   21.0741 C   0  0  0  0  0  0  0  0  0  0  0  0
    9.0697  -16.6615   20.0503 C   0  0  0  0  0  0  0  0  0  0  0  0
    9.3942  -16.0784   18.7284 C   0  0  0  0  0  0  0  0  0  0  0  0
   10.3807  -16.5361   18.0993 O   0  0  0  0  0  0  0  0  0  0  0  0
   10.9911  -16.7046   23.3287 C   0  0  0  0  0  0  0  0  0  0  0  0
   11.2658  -15.5845   23.8251 O   0  0  0  0  0  0  0  0  0  0  0  0
    8.6705  -15.0573   18.1481 O   0  0  0  0  0  0  0  0  0  0  0  0
   11.8189  -17.7926   23.6459 N   0  0  0  0  0  0  0  0  0  0  0  0
   12.7674  -17.7818   24.7727 C   0  0  1  0  0  0  0  0  0  0  0  0
   12.1858  -18.4492   25.9427 C   0  0  0  0  0  0  0  0  0  0  0  0
   13.0462  -18.5586   27.1381 C   0  0  0  0  0  0  0  0  0  0  0  0
   12.3757  -19.2362   28.2686 C   0  0  0  0  0  0  0  0  0  0  0  0
   12.9596  -19.4453   29.3817 O   0  0  0  0  0  0  0  0  0  0  0  0
   14.0980  -18.1340   24.3677 C   0  0  0  0  0  0  0  0  0  0  0  0
   15.1579  -18.0312   25.0384 O   0  0  0  0  0  0  0  0  0  0  0  0
   11.0446  -19.6936   28.2013 O   0  0  0  0  0  0  0  0  0  0  0  0
   14.2605  -18.6615   23.0624 O   0  0  0  0  0  0  0  0  0  0  0  0
  2 10  1  0
  2  1  1  1
  3  2  1  0
  3  4  1  0
  4  5  2  0
  4  9  1  0
  5  6  1  0
  6  7  2  0
  8  7  1  0
  9  8  2  0
 10 11  2  0
 12 10  1  0
 12 13  1  0
 13 14  1  6
 14 15  1  0
 16 15  1  0
 16 20  1  0
 17 16  2  0
 18 13  1  0
 18 19  2  0
 21 18  1  0
 22 21  1  0
 22 27  1  0
 22 23  1  1
 24 23  1  0
 25 24  1  0
 26 25  2  0
 27 30  1  0
 28 27  2  0
 29 25  1  0
M  END
$$$$
