FEE.pdb
     RDKit          3D

 30 30  0  0  1  0  0  0  0  0999 V2000
    5.6609  -17.7700   24.3497 N   0  0  0  0  0  0  0  0  0  0  0  0
    6.4593  -16.5623   24.3524 C   0  0  1  0  0  0  0  0  0  0  0  0
    6.4245  -16.0307   25.7712 C   0  0  0  0  0  0  0  0  0  0  0  0
    6.7433  -14.6014   25.8483 C   0  0  0  0  0  0  0  0  0  0  0  0
    5.8066  -13.7474   26.3921 C   0  0  0  0  0  0  0  0  0  0  0  0
    5.9981  -12.3966   26.5130 C   0  0  0  0  0  0  0  0  0  0  0  0
    7.1830  -11.8699   26.0695 C   0  0  0  0  0  0  0  0  0  0  0  0
    8.1483  -12.7047   25.5161 C   0  0  0  0  0  0  0  0  0  0  0  0
    7.9348  -14.0625   25.4039 C   0  0  0  0  0  0  0  0  0  0  0  0
    7.8610  -16.9247   24.0586 C   0  0  0  0  0  0  0  0  0  0  0  0
    8.3659  -17.8919   24.6674 O   0  0  0  0  0  0  0  0  0  0  0  0
    8.6144  -16.1878   23.1042 N   0  0  0  0  0  0  0  0  0  0  0  0
    9.9456  -16.5900   22.7776 C   0  0  1  0  0  0  0  0  0  0  0  0
   10.3606  -15.9122   21.4922 C   0  0  0  0  0  0  0  0  0  0  0  0
    9.7749  -16.6024   20.2801 C   0  0  0  0  0  0  0  0  0  0  0  0
   10.1251  -15.8641   19.0452 C   0  0  0  0  0  0  0  0  0  0  0  0
    9.4955  -16.1301   17.9911 O   0  0  0  0  0  0  0  0  0  0  0  0
   10.9047  -16.2712   23.8660 C   0  0  0  0  0  0  0  0  0  0  0  0
   10.6639  -15.3345   24.6667 O   0  0  0  0  0  0  0  0  0  0  0  0
   11.1076  -14.8973   18.9886 O   0  0  0  0  0  0  0  0  0  0  0  0
   12.0943  -16.9971   24.0316 N   0  0  0  0  0  0  0  0  0  0  0  0
   12.9508  -16.8792   25.2241 C   0  0  1  0  0  0  0  0  0  0  0  0
   12.1473  -16.9787   26.4477 C   0  0  0  0  0  0  0  0  0  0  0  0
   11.3334  -18.2007   26.6077 C   0  0  0  0  0  0  0  0  0  0  0  0
   10.7667  -18.3399   27.9665 C   0  0  0  0  0  0  0  0  0  0  0  0
   11.0212  -17.5105   28.8997 O   0  0  0  0  0  0  0  0  0  0  0  0
   14.1452  -17.6668   25.1167 C   0  0  0  0  0  0  0  0  0  0  0  0
   15.1113  -17.7113   25.9220 O   0  0  0  0  0  0  0  0  0  0  0  0
    9.9020  -19.3924   28.3270 O   0  0  0  0  0  0  0  0  0  0  0  0
   14.2726  -18.4998   23.9772 O   0  0  0  0  0  0  0  0  0  0  0  0
  2 10  1  0
  2  1  1  1
  3  2  1  0
  3  4  1  0
  4  5  2  0
  4  9  1  0
  5  6  1  0
  6  7  2  0
  8  7  1  0
  9  8  2  0
 10 11  2  0
 12 10  1  0
 12 13  1  0
 13 14  1  6
 14 15  1  0
 16 15  1  0
 16 20  1  0
 17 16  2  0
 18 13  1  0
 18 19  2  0
 21 18  1  0
 22 21  1  0
 22 27  1  0
 22 23  1  1
 24 23  1  0
 25 24  1  0
 26 25  2  0
 27 30  1  0
 28 27  2  0
 29 25  1  0
M  END
$$$$
