FEE.pdb
     RDKit          3D

 30 30  0  0  1  0  0  0  0  0999 V2000
    5.5682  -17.9489   25.5879 N   0  0  0  0  0  0  0  0  0  0  0  0
    6.2292  -16.7530   25.1092 C   0  0  1  0  0  0  0  0  0  0  0  0
    6.8062  -16.0661   26.3306 C   0  0  0  0  0  0  0  0  0  0  0  0
    6.9236  -14.6142   26.1613 C   0  0  0  0  0  0  0  0  0  0  0  0
    6.0322  -13.8004   26.8286 C   0  0  0  0  0  0  0  0  0  0  0  0
    6.0493  -12.4335   26.7430 C   0  0  0  0  0  0  0  0  0  0  0  0
    7.0031  -11.8478   25.9522 C   0  0  0  0  0  0  0  0  0  0  0  0
    7.9168  -12.6409   25.2660 C   0  0  0  0  0  0  0  0  0  0  0  0
    7.8817  -14.0159   25.3665 C   0  0  0  0  0  0  0  0  0  0  0  0
    7.3678  -17.1539   24.2578 C   0  0  0  0  0  0  0  0  0  0  0  0
    8.1042  -18.0848   24.6480 O   0  0  0  0  0  0  0  0  0  0  0  0
    7.6164  -16.4937   23.0233 N   0  0  0  0  0  0  0  0  0  0  0  0
    8.7050  -16.9076   22.1962 C   0  0  1  0  0  0  0  0  0  0  0  0
    8.4545  -16.4336   20.7833 C   0  0  0  0  0  0  0  0  0  0  0  0
    9.5372  -16.9000   19.8352 C   0  0  0  0  0  0  0  0  0  0  0  0
    9.2568  -16.4307   18.4590 C   0  0  0  0  0  0  0  0  0  0  0  0
    9.9563  -16.8839   17.5190 O   0  0  0  0  0  0  0  0  0  0  0  0
   10.0067  -16.3936   22.6934 C   0  0  0  0  0  0  0  0  0  0  0  0
   10.3126  -15.1864   22.5333 O   0  0  0  0  0  0  0  0  0  0  0  0
    8.2667  -15.5205   18.1518 O   0  0  0  0  0  0  0  0  0  0  0  0
   10.9237  -17.2297   23.3490 N   0  0  0  0  0  0  0  0  0  0  0  0
   12.2163  -16.7548   23.8716 C   0  0  1  0  0  0  0  0  0  0  0  0
   12.4851  -17.3387   25.1905 C   0  0  0  0  0  0  0  0  0  0  0  0
   11.3290  -17.9128   25.9083 C   0  0  0  0  0  0  0  0  0  0  0  0
   11.6940  -18.4813   27.2237 C   0  0  0  0  0  0  0  0  0  0  0  0
   10.8369  -19.0282   27.9918 O   0  0  0  0  0  0  0  0  0  0  0  0
   13.2508  -16.7885   22.8780 C   0  0  0  0  0  0  0  0  0  0  0  0
   14.4147  -16.3177   22.9643 O   0  0  0  0  0  0  0  0  0  0  0  0
   13.0124  -18.4659   27.7208 O   0  0  0  0  0  0  0  0  0  0  0  0
   12.9474  -17.4216   21.6469 O   0  0  0  0  0  0  0  0  0  0  0  0
  2 10  1  0
  2  1  1  1
  3  2  1  0
  3  4  1  0
  4  5  2  0
  4  9  1  0
  5  6  1  0
  6  7  2  0
  8  7  1  0
  9  8  2  0
 10 11  2  0
 12 10  1  0
 12 13  1  0
 13 14  1  6
 14 15  1  0
 16 15  1  0
 16 20  1  0
 17 16  2  0
 18 13  1  0
 18 19  2  0
 21 18  1  0
 22 21  1  0
 22 27  1  0
 22 23  1  1
 24 23  1  0
 25 24  1  0
 26 25  2  0
 27 30  1  0
 28 27  2  0
 29 25  1  0
M  END
$$$$
