FEE.pdb
     RDKit          3D

 30 30  0  0  1  0  0  0  0  0999 V2000
    5.9964  -14.9366   22.7103 N   0  0  0  0  0  0  0  0  0  0  0  0
    7.3672  -14.6765   22.3239 C   0  0  1  0  0  0  0  0  0  0  0  0
    7.7942  -13.4321   23.0764 C   0  0  0  0  0  0  0  0  0  0  0  0
    7.5182  -13.5171   24.5141 C   0  0  0  0  0  0  0  0  0  0  0  0
    6.2041  -13.5768   24.9288 C   0  0  0  0  0  0  0  0  0  0  0  0
    5.8315  -13.6575   26.2443 C   0  0  0  0  0  0  0  0  0  0  0  0
    6.8184  -13.6800   27.1949 C   0  0  0  0  0  0  0  0  0  0  0  0
    8.1535  -13.6214   26.8092 C   0  0  0  0  0  0  0  0  0  0  0  0
    8.5066  -13.5404   25.4785 C   0  0  0  0  0  0  0  0  0  0  0  0
    8.2112  -15.7879   22.8083 C   0  0  0  0  0  0  0  0  0  0  0  0
    7.9329  -16.9498   22.4427 O   0  0  0  0  0  0  0  0  0  0  0  0
    9.3140  -15.5371   23.6700 N   0  0  0  0  0  0  0  0  0  0  0  0
   10.3334  -16.5241   23.8343 C   0  0  1  0  0  0  0  0  0  0  0  0
   11.0644  -16.6964   22.5229 C   0  0  0  0  0  0  0  0  0  0  0  0
   12.2122  -17.6743   22.6451 C   0  0  0  0  0  0  0  0  0  0  0  0
   12.8885  -17.8436   21.3387 C   0  0  0  0  0  0  0  0  0  0  0  0
   12.5800  -18.8340   20.6300 O   0  0  0  0  0  0  0  0  0  0  0  0
   11.2854  -16.1643   24.9161 C   0  0  0  0  0  0  0  0  0  0  0  0
   11.5501  -14.9596   25.1506 O   0  0  0  0  0  0  0  0  0  0  0  0
   13.8416  -16.9709   20.8557 O   0  0  0  0  0  0  0  0  0  0  0  0
   11.9108  -17.1464   25.6998 N   0  0  0  0  0  0  0  0  0  0  0  0
   11.3097  -17.7044   26.9232 C   0  0  1  0  0  0  0  0  0  0  0  0
    9.8832  -17.9794   26.7175 C   0  0  0  0  0  0  0  0  0  0  0  0
    9.1465  -18.5474   27.8647 C   0  0  0  0  0  0  0  0  0  0  0  0
    7.7224  -18.8060   27.5618 C   0  0  0  0  0  0  0  0  0  0  0  0
    7.2197  -18.5895   26.4112 O   0  0  0  0  0  0  0  0  0  0  0  0
   12.1297  -18.7201   27.5184 C   0  0  0  0  0  0  0  0  0  0  0  0
   12.5988  -18.7427   28.6860 O   0  0  0  0  0  0  0  0  0  0  0  0
    6.8206  -19.3147   28.5177 O   0  0  0  0  0  0  0  0  0  0  0  0
   12.4628  -19.8386   26.7143 O   0  0  0  0  0  0  0  0  0  0  0  0
  2 10  1  0
  2  1  1  1
  3  2  1  0
  3  4  1  0
  4  5  2  0
  4  9  1  0
  5  6  1  0
  6  7  2  0
  8  7  1  0
  9  8  2  0
 10 11  2  0
 12 10  1  0
 12 13  1  0
 13 14  1  6
 14 15  1  0
 16 15  1  0
 16 20  1  0
 17 16  2  0
 18 13  1  0
 18 19  2  0
 21 18  1  0
 22 21  1  0
 22 27  1  0
 22 23  1  6
 24 23  1  0
 25 24  1  0
 26 25  2  0
 27 30  1  0
 28 27  2  0
 29 25  1  0
M  END
$$$$
