FEE.pdb
     RDKit          3D

 30 30  0  0  1  0  0  0  0  0999 V2000
    5.7246  -18.1095   25.2243 N   0  0  0  0  0  0  0  0  0  0  0  0
    6.2732  -16.7963   24.9584 C   0  0  1  0  0  0  0  0  0  0  0  0
    6.5629  -16.1731   26.3092 C   0  0  0  0  0  0  0  0  0  0  0  0
    6.8650  -14.7410   26.2190 C   0  0  0  0  0  0  0  0  0  0  0  0
    5.8139  -13.8493   26.1709 C   0  0  0  0  0  0  0  0  0  0  0  0
    5.9797  -12.4924   26.0858 C   0  0  0  0  0  0  0  0  0  0  0  0
    7.2576  -11.9989   26.0466 C   0  0  0  0  0  0  0  0  0  0  0  0
    8.3393  -12.8722   26.0935 C   0  0  0  0  0  0  0  0  0  0  0  0
    8.1497  -14.2355   26.1792 C   0  0  0  0  0  0  0  0  0  0  0  0
    7.5691  -16.9591   24.2683 C   0  0  0  0  0  0  0  0  0  0  0  0
    8.3801  -17.7981   24.7147 O   0  0  0  0  0  0  0  0  0  0  0  0
    7.8822  -16.1777   23.1224 N   0  0  0  0  0  0  0  0  0  0  0  0
    9.0786  -16.4346   22.3855 C   0  0  1  0  0  0  0  0  0  0  0  0
    8.9738  -15.7676   21.0334 C   0  0  0  0  0  0  0  0  0  0  0  0
    8.3237  -16.6731   20.0105 C   0  0  0  0  0  0  0  0  0  0  0  0
    9.0419  -16.5926   18.7181 C   0  0  0  0  0  0  0  0  0  0  0  0
    8.5555  -15.8764   17.8077 O   0  0  0  0  0  0  0  0  0  0  0  0
   10.2874  -15.9601   23.1062 C   0  0  0  0  0  0  0  0  0  0  0  0
   10.4616  -14.7334   23.3095 O   0  0  0  0  0  0  0  0  0  0  0  0
   10.2194  -17.2629   18.4581 O   0  0  0  0  0  0  0  0  0  0  0  0
   11.2601  -16.8559   23.5766 N   0  0  0  0  0  0  0  0  0  0  0  0
   12.4769  -16.4247   24.2857 C   0  0  1  0  0  0  0  0  0  0  0  0
   12.4689  -16.9150   25.6686 C   0  0  0  0  0  0  0  0  0  0  0  0
   12.9300  -18.3019   25.8818 C   0  0  0  0  0  0  0  0  0  0  0  0
   12.7492  -18.7595   27.2763 C   0  0  0  0  0  0  0  0  0  0  0  0
   12.9267  -19.9723   27.6245 O   0  0  0  0  0  0  0  0  0  0  0  0
   13.6607  -16.6063   23.4958 C   0  0  0  0  0  0  0  0  0  0  0  0
   13.7671  -17.2155   22.3997 O   0  0  0  0  0  0  0  0  0  0  0  0
   12.3747  -17.8907   28.3206 O   0  0  0  0  0  0  0  0  0  0  0  0
   14.8630  -16.0415   23.9895 O   0  0  0  0  0  0  0  0  0  0  0  0
  2 10  1  0
  2  1  1  1
  3  2  1  0
  3  4  1  0
  4  5  2  0
  4  9  1  0
  5  6  1  0
  6  7  2  0
  8  7  1  0
  9  8  2  0
 10 11  2  0
 12 10  1  0
 12 13  1  0
 13 14  1  6
 14 15  1  0
 16 15  1  0
 16 20  1  0
 17 16  2  0
 18 13  1  0
 18 19  2  0
 21 18  1  0
 22 21  1  0
 22 27  1  0
 22 23  1  1
 24 23  1  0
 25 24  1  0
 26 25  2  0
 27 30  1  0
 28 27  2  0
 29 25  1  0
M  END
$$$$
