FEE.pdb
     RDKit          3D

 30 30  0  0  1  0  0  0  0  0999 V2000
    6.1423  -16.5498   25.0303 N   0  0  0  0  0  0  0  0  0  0  0  0
    7.3178  -15.8370   24.5762 C   0  0  1  0  0  0  0  0  0  0  0  0
    7.8291  -15.0534   25.7685 C   0  0  0  0  0  0  0  0  0  0  0  0
    7.2003  -13.7344   25.8911 C   0  0  0  0  0  0  0  0  0  0  0  0
    6.2726  -13.5389   26.8929 C   0  0  0  0  0  0  0  0  0  0  0  0
    5.6244  -12.3500   27.0987 C   0  0  0  0  0  0  0  0  0  0  0  0
    5.9152  -11.3028   26.2639 C   0  0  0  0  0  0  0  0  0  0  0  0
    6.8463  -11.4677   25.2438 C   0  0  0  0  0  0  0  0  0  0  0  0
    7.4876  -12.6738   25.0542 C   0  0  0  0  0  0  0  0  0  0  0  0
    8.3598  -16.8238   24.2259 C   0  0  0  0  0  0  0  0  0  0  0  0
    8.5089  -17.8200   24.9649 O   0  0  0  0  0  0  0  0  0  0  0  0
    9.1718  -16.6407   23.0731 N   0  0  0  0  0  0  0  0  0  0  0  0
   10.3215  -17.4635   22.8690 C   0  0  1  0  0  0  0  0  0  0  0  0
   10.8935  -17.1751   21.5002 C   0  0  0  0  0  0  0  0  0  0  0  0
    9.9113  -17.5118   20.3999 C   0  0  0  0  0  0  0  0  0  0  0  0
   10.4528  -17.1081   19.0821 C   0  0  0  0  0  0  0  0  0  0  0  0
    9.9816  -16.0820   18.5314 O   0  0  0  0  0  0  0  0  0  0  0  0
   11.3511  -17.2492   23.9177 C   0  0  0  0  0  0  0  0  0  0  0  0
   11.2639  -16.2699   24.6986 O   0  0  0  0  0  0  0  0  0  0  0  0
   11.4492  -17.7990   18.4241 O   0  0  0  0  0  0  0  0  0  0  0  0
   12.4394  -18.1227   24.0671 N   0  0  0  0  0  0  0  0  0  0  0  0
   13.0284  -18.4600   25.3743 C   0  0  1  0  0  0  0  0  0  0  0  0
   11.9778  -18.7969   26.3416 C   0  0  0  0  0  0  0  0  0  0  0  0
   12.4245  -19.1974   27.6912 C   0  0  0  0  0  0  0  0  0  0  0  0
   11.3015  -19.3981   28.6321 C   0  0  0  0  0  0  0  0  0  0  0  0
   10.3790  -20.2513   28.4209 O   0  0  0  0  0  0  0  0  0  0  0  0
   14.1603  -19.3330   25.2525 C   0  0  0  0  0  0  0  0  0  0  0  0
   15.2033  -19.3418   25.9569 O   0  0  0  0  0  0  0  0  0  0  0  0
   11.1719  -18.6680   29.8303 O   0  0  0  0  0  0  0  0  0  0  0  0
   14.1202  -20.3077   24.2245 O   0  0  0  0  0  0  0  0  0  0  0  0
  2 10  1  0
  2  1  1  1
  3  2  1  0
  3  4  1  0
  4  5  2  0
  4  9  1  0
  5  6  1  0
  6  7  2  0
  8  7  1  0
  9  8  2  0
 10 11  2  0
 12 10  1  0
 12 13  1  0
 13 14  1  6
 14 15  1  0
 16 15  1  0
 16 20  1  0
 17 16  2  0
 18 13  1  0
 18 19  2  0
 21 18  1  0
 22 21  1  0
 22 27  1  0
 22 23  1  1
 24 23  1  0
 25 24  1  0
 26 25  2  0
 27 30  1  0
 28 27  2  0
 29 25  1  0
M  END
$$$$
