FEE.pdb
     RDKit          3D

 30 30  0  0  1  0  0  0  0  0999 V2000
    6.0885  -16.5043   25.1574 N   0  0  0  0  0  0  0  0  0  0  0  0
    7.1388  -15.7989   24.4534 C   0  0  1  0  0  0  0  0  0  0  0  0
    7.8471  -14.9460   25.4866 C   0  0  0  0  0  0  0  0  0  0  0  0
    7.1876  -13.6542   25.7029 C   0  0  0  0  0  0  0  0  0  0  0  0
    6.4340  -13.4841   26.8454 C   0  0  0  0  0  0  0  0  0  0  0  0
    5.7754  -12.3219   27.1481 C   0  0  0  0  0  0  0  0  0  0  0  0
    5.8727  -11.2762   26.2677 C   0  0  0  0  0  0  0  0  0  0  0  0
    6.6253  -11.4160   25.1063 C   0  0  0  0  0  0  0  0  0  0  0  0
    7.2806  -12.5954   24.8210 C   0  0  0  0  0  0  0  0  0  0  0  0
    8.1197  -16.7871   23.9598 C   0  0  0  0  0  0  0  0  0  0  0  0
    8.3562  -17.7931   24.6619 O   0  0  0  0  0  0  0  0  0  0  0  0
    8.7768  -16.5945   22.7136 N   0  0  0  0  0  0  0  0  0  0  0  0
    9.9134  -17.3899   22.3729 C   0  0  1  0  0  0  0  0  0  0  0  0
   10.3449  -17.0498   20.9651 C   0  0  0  0  0  0  0  0  0  0  0  0
   11.6062  -17.7868   20.5719 C   0  0  0  0  0  0  0  0  0  0  0  0
   11.9763  -17.4688   19.1737 C   0  0  0  0  0  0  0  0  0  0  0  0
   12.9313  -18.0957   18.6510 O   0  0  0  0  0  0  0  0  0  0  0  0
   11.0368  -17.1888   23.3233 C   0  0  0  0  0  0  0  0  0  0  0  0
   11.3103  -16.0381   23.7447 O   0  0  0  0  0  0  0  0  0  0  0  0
   11.3279  -16.5191   18.4115 O   0  0  0  0  0  0  0  0  0  0  0  0
   11.8176  -18.2642   23.7745 N   0  0  0  0  0  0  0  0  0  0  0  0
   12.6676  -18.1948   24.9755 C   0  0  1  0  0  0  0  0  0  0  0  0
   11.8433  -18.1102   26.1863 C   0  0  0  0  0  0  0  0  0  0  0  0
   11.3500  -19.3867   26.7418 C   0  0  0  0  0  0  0  0  0  0  0  0
   11.3398  -19.4042   28.2204 C   0  0  0  0  0  0  0  0  0  0  0  0
   10.9909  -20.4319   28.8879 O   0  0  0  0  0  0  0  0  0  0  0  0
   13.7426  -19.1441   24.9373 C   0  0  0  0  0  0  0  0  0  0  0  0
   14.7150  -19.2362   25.7309 O   0  0  0  0  0  0  0  0  0  0  0  0
   11.7194  -18.2920   28.9979 O   0  0  0  0  0  0  0  0  0  0  0  0
   13.7275  -20.0995   23.8907 O   0  0  0  0  0  0  0  0  0  0  0  0
  2 10  1  0
  2  1  1  1
  3  2  1  0
  3  4  1  0
  4  5  2  0
  4  9  1  0
  5  6  1  0
  6  7  2  0
  8  7  1  0
  9  8  2  0
 10 11  2  0
 12 10  1  0
 12 13  1  0
 13 14  1  6
 14 15  1  0
 16 15  1  0
 16 20  1  0
 17 16  2  0
 18 13  1  0
 18 19  2  0
 21 18  1  0
 22 21  1  0
 22 27  1  0
 22 23  1  1
 24 23  1  0
 25 24  1  0
 26 25  2  0
 27 30  1  0
 28 27  2  0
 29 25  1  0
M  END
$$$$
