FEE.pdb
     RDKit          3D

 30 30  0  0  1  0  0  0  0  0999 V2000
    6.2212  -16.3266   25.3123 N   0  0  0  0  0  0  0  0  0  0  0  0
    7.2078  -15.5728   24.5676 C   0  0  1  0  0  0  0  0  0  0  0  0
    7.9168  -14.6875   25.5728 C   0  0  0  0  0  0  0  0  0  0  0  0
    7.2174  -13.4193   25.8029 C   0  0  0  0  0  0  0  0  0  0  0  0
    7.5218  -12.3446   24.9938 C   0  0  0  0  0  0  0  0  0  0  0  0
    6.9315  -11.1151   25.1195 C   0  0  0  0  0  0  0  0  0  0  0  0
    5.9900  -10.9480   26.1013 C   0  0  0  0  0  0  0  0  0  0  0  0
    5.6606  -12.0125   26.9338 C   0  0  0  0  0  0  0  0  0  0  0  0
    6.2675  -13.2425   26.7898 C   0  0  0  0  0  0  0  0  0  0  0  0
    8.2129  -16.5140   24.0327 C   0  0  0  0  0  0  0  0  0  0  0  0
    8.4123  -17.5841   24.6460 O   0  0  0  0  0  0  0  0  0  0  0  0
    8.9343  -16.2058   22.8468 N   0  0  0  0  0  0  0  0  0  0  0  0
    9.9316  -17.1056   22.3609 C   0  0  1  0  0  0  0  0  0  0  0  0
   10.0996  -16.8942   20.8740 C   0  0  0  0  0  0  0  0  0  0  0  0
   11.1097  -17.8524   20.2821 C   0  0  0  0  0  0  0  0  0  0  0  0
   11.1953  -17.6720   18.8148 C   0  0  0  0  0  0  0  0  0  0  0  0
   10.1268  -17.5679   18.1622 O   0  0  0  0  0  0  0  0  0  0  0  0
   11.2293  -16.9266   23.0608 C   0  0  0  0  0  0  0  0  0  0  0  0
   11.8618  -15.8472   22.9537 O   0  0  0  0  0  0  0  0  0  0  0  0
   12.3875  -17.6120   18.1232 O   0  0  0  0  0  0  0  0  0  0  0  0
   11.7822  -17.9444   23.8533 N   0  0  0  0  0  0  0  0  0  0  0  0
   13.0207  -17.7760   24.6325 C   0  0  1  0  0  0  0  0  0  0  0  0
   12.9909  -18.6151   25.8358 C   0  0  0  0  0  0  0  0  0  0  0  0
   11.7747  -18.5333   26.6699 C   0  0  0  0  0  0  0  0  0  0  0  0
   11.7685  -19.5161   27.7747 C   0  0  0  0  0  0  0  0  0  0  0  0
   12.7405  -20.3130   27.9841 O   0  0  0  0  0  0  0  0  0  0  0  0
   14.1922  -17.7980   23.8046 C   0  0  0  0  0  0  0  0  0  0  0  0
   15.3613  -17.4531   24.1179 O   0  0  0  0  0  0  0  0  0  0  0  0
   10.6942  -19.6397   28.6782 O   0  0  0  0  0  0  0  0  0  0  0  0
   14.0371  -18.2588   22.4734 O   0  0  0  0  0  0  0  0  0  0  0  0
  2 10  1  0
  2  1  1  1
  3  2  1  0
  3  4  1  0
  4  5  2  0
  4  9  1  0
  5  6  1  0
  6  7  2  0
  8  7  1  0
  9  8  2  0
 10 11  2  0
 12 10  1  0
 12 13  1  0
 13 14  1  6
 14 15  1  0
 16 15  1  0
 16 20  1  0
 17 16  2  0
 18 13  1  0
 18 19  2  0
 21 18  1  0
 22 21  1  0
 22 27  1  0
 22 23  1  1
 24 23  1  0
 25 24  1  0
 26 25  2  0
 27 30  1  0
 28 27  2  0
 29 25  1  0
M  END
$$$$
