FEE.pdb
     RDKit          3D

 30 30  0  0  1  0  0  0  0  0999 V2000
    5.8906  -18.2852   24.6799 N   0  0  0  0  0  0  0  0  0  0  0  0
    6.5631  -17.0068   24.5812 C   0  0  1  0  0  0  0  0  0  0  0  0
    6.5788  -16.4236   25.9799 C   0  0  0  0  0  0  0  0  0  0  0  0
    6.8887  -14.9903   25.9923 C   0  0  0  0  0  0  0  0  0  0  0  0
    8.0761  -14.5795   26.5611 C   0  0  0  0  0  0  0  0  0  0  0  0
    8.4662  -13.2683   26.6278 C   0  0  0  0  0  0  0  0  0  0  0  0
    7.6307  -12.3181   26.1011 C   0  0  0  0  0  0  0  0  0  0  0  0
    6.4259  -12.7001   25.5204 C   0  0  0  0  0  0  0  0  0  0  0  0
    6.0525  -14.0265   25.4638 C   0  0  0  0  0  0  0  0  0  0  0  0
    7.9687  -17.2437   24.1936 C   0  0  0  0  0  0  0  0  0  0  0  0
    8.6253  -18.0972   24.8271 O   0  0  0  0  0  0  0  0  0  0  0  0
    8.5570  -16.5155   23.1233 N   0  0  0  0  0  0  0  0  0  0  0  0
    9.9059  -16.7789   22.7341 C   0  0  1  0  0  0  0  0  0  0  0  0
   10.1072  -16.3049   21.3133 C   0  0  0  0  0  0  0  0  0  0  0  0
    9.5885  -17.3097   20.3083 C   0  0  0  0  0  0  0  0  0  0  0  0
    9.7013  -16.7712   18.9335 C   0  0  0  0  0  0  0  0  0  0  0  0
    8.9663  -17.2584   18.0387 O   0  0  0  0  0  0  0  0  0  0  0  0
   10.8834  -16.1269   23.6426 C   0  0  0  0  0  0  0  0  0  0  0  0
   10.5052  -15.2392   24.4460 O   0  0  0  0  0  0  0  0  0  0  0  0
   10.5719  -15.7609   18.5804 O   0  0  0  0  0  0  0  0  0  0  0  0
   12.2423  -16.4776   23.6319 N   0  0  0  0  0  0  0  0  0  0  0  0
   13.0337  -16.6728   24.8587 C   0  0  1  0  0  0  0  0  0  0  0  0
   12.2960  -17.4973   25.8224 C   0  0  0  0  0  0  0  0  0  0  0  0
   12.9611  -17.7599   27.1147 C   0  0  0  0  0  0  0  0  0  0  0  0
   12.0954  -18.4848   28.0696 C   0  0  0  0  0  0  0  0  0  0  0  0
   11.9642  -19.7519   28.0450 O   0  0  0  0  0  0  0  0  0  0  0  0
   14.4025  -16.9977   24.5777 C   0  0  0  0  0  0  0  0  0  0  0  0
   14.8399  -17.9711   23.9105 O   0  0  0  0  0  0  0  0  0  0  0  0
   11.3589  -17.8312   29.0777 O   0  0  0  0  0  0  0  0  0  0  0  0
   15.3955  -16.1342   25.1039 O   0  0  0  0  0  0  0  0  0  0  0  0
  2 10  1  0
  2  1  1  1
  3  2  1  0
  3  4  1  0
  4  5  2  0
  4  9  1  0
  5  6  1  0
  6  7  2  0
  8  7  1  0
  9  8  2  0
 10 11  2  0
 12 10  1  0
 12 13  1  0
 13 14  1  6
 14 15  1  0
 16 15  1  0
 16 20  1  0
 17 16  2  0
 18 13  1  0
 18 19  2  0
 21 18  1  0
 22 21  1  0
 22 27  1  0
 22 23  1  6
 24 23  1  0
 25 24  1  0
 26 25  2  0
 27 30  1  0
 28 27  2  0
 29 25  1  0
M  END
$$$$
