NQY.pdb
     RDKit          3D

 30 30  0  0  1  0  0  0  0  0999 V2000
   27.9992  -20.1235  -15.1871 N   0  0  0  0  0  0  0  0  0  0  0  0
   27.1349  -19.5092  -16.1381 C   0  0  0  0  0  0  0  0  0  0  0  0
   27.6453  -18.6949  -16.9284 O   0  0  0  0  0  0  0  0  0  0  0  0
   25.6958  -19.8290  -16.1792 C   0  0  0  0  0  0  0  0  0  0  0  0
   25.3831  -20.8064  -15.0779 C   0  0  2  0  0  0  0  0  0  0  0  0
   26.1907  -21.9790  -15.1961 N   0  0  0  0  0  0  0  0  0  0  0  0
   23.9279  -21.0975  -14.9911 C   0  0  0  0  0  0  0  0  0  0  0  0
   23.4308  -22.2096  -15.2249 O   0  0  0  0  0  0  0  0  0  0  0  0
   19.4127  -20.7798  -10.9299 N   0  0  0  0  0  0  0  0  0  0  0  0
   19.7568  -21.8678  -11.7734 C   0  0  0  0  0  0  0  0  0  0  0  0
   19.8109  -23.0026  -11.2569 O   0  0  0  0  0  0  0  0  0  0  0  0
   20.0507  -21.7210  -13.2191 C   0  0  0  0  0  0  0  0  0  0  0  0
   21.4452  -21.2250  -13.3877 C   0  0  0  0  0  0  0  0  0  0  0  0
   21.6411  -20.1783  -14.4363 C   0  0  2  0  0  0  0  0  0  0  0  0
   23.0761  -20.0283  -14.6181 N   0  0  0  0  0  0  0  0  0  0  0  0
   21.0095  -18.8722  -14.1060 C   0  0  0  0  0  0  0  0  0  0  0  0
   21.3317  -18.1652  -13.1214 O   0  0  0  0  0  0  0  0  0  0  0  0
   17.2881  -10.9644  -15.1090 O   0  0  0  0  0  0  0  0  0  0  0  0
   17.8699  -12.2079  -15.2817 C   0  0  0  0  0  0  0  0  0  0  0  0
   19.1654  -12.4194  -14.8376 C   0  0  0  0  0  0  0  0  0  0  0  0
   19.7762  -13.6563  -14.9967 C   0  0  0  0  0  0  0  0  0  0  0  0
   19.1277  -14.7163  -15.5965 C   0  0  0  0  0  0  0  0  0  0  0  0
   19.7098  -16.0520  -15.7995 C   0  0  0  0  0  0  0  0  0  0  0  0
   19.3749  -17.0238  -14.6928 C   0  0  2  0  0  0  0  0  0  0  0  0
   19.9557  -18.3284  -14.9282 N   0  0  0  0  0  0  0  0  0  0  0  0
   17.9435  -17.0796  -14.3902 C   0  0  0  0  0  0  0  0  0  0  0  0
   17.3809  -16.3087  -13.3972 O   0  0  0  0  0  0  0  0  0  0  0  0
   17.8378  -14.4919  -16.0341 C   0  0  0  0  0  0  0  0  0  0  0  0
   17.2282  -13.2703  -15.8796 C   0  0  0  0  0  0  0  0  0  0  0  0
   17.2054  -17.8446  -15.0457 O   0  0  0  0  0  0  0  0  0  0  0  0
  1  2  1  0
  2  3  2  0
  4  2  1  0
  4  5  1  0
  5  7  1  0
  5  6  1  6
  7  8  2  0
  9 10  1  0
 10 11  2  0
 12 10  1  0
 12 13  1  0
 14 13  1  1
 15 14  1  0
 15  7  1  0
 16 17  2  0
 16 14  1  0
 18 19  1  0
 19 29  2  0
 20 19  1  0
 20 21  2  0
 21 22  1  0
 22 28  2  0
 22 23  1  0
 24 23  1  6
 24 26  1  0
 24 25  1  0
 25 16  1  0
 26 27  1  0
 29 28  1  0
 30 26  2  0
M  END
$$$$
