NQY.pdb
     RDKit          3D

 30 30  0  0  1  0  0  0  0  0999 V2000
   25.4143  -16.0406  -15.1459 N   0  0  0  0  0  0  0  0  0  0  0  0
   25.8277  -14.9757  -15.9967 C   0  0  0  0  0  0  0  0  0  0  0  0
   27.0346  -14.6733  -15.9847 O   0  0  0  0  0  0  0  0  0  0  0  0
   24.8607  -14.2649  -16.8539 C   0  0  0  0  0  0  0  0  0  0  0  0
   23.4958  -14.8659  -16.6494 C   0  0  2  0  0  0  0  0  0  0  0  0
   23.4063  -16.1464  -17.2767 N   0  0  0  0  0  0  0  0  0  0  0  0
   22.4122  -13.9324  -17.0546 C   0  0  0  0  0  0  0  0  0  0  0  0
   22.2465  -13.5289  -18.2158 O   0  0  0  0  0  0  0  0  0  0  0  0
   17.3467  -16.1109  -15.7194 N   0  0  0  0  0  0  0  0  0  0  0  0
   17.3676  -14.8365  -16.3432 C   0  0  0  0  0  0  0  0  0  0  0  0
   16.2873  -14.2172  -16.4250 O   0  0  0  0  0  0  0  0  0  0  0  0
   18.5959  -14.2156  -16.8944 C   0  0  0  0  0  0  0  0  0  0  0  0
   19.1739  -13.2893  -15.8809 C   0  0  0  0  0  0  0  0  0  0  0  0
   20.4230  -12.5769  -16.2880 C   0  0  2  0  0  0  0  0  0  0  0  0
   21.5278  -13.4895  -16.0400 N   0  0  0  0  0  0  0  0  0  0  0  0
   20.6344  -11.2846  -15.5815 C   0  0  0  0  0  0  0  0  0  0  0  0
   21.1618  -11.1819  -14.4481 O   0  0  0  0  0  0  0  0  0  0  0  0
   21.9411   -2.7217  -14.0123 O   0  0  0  0  0  0  0  0  0  0  0  0
   21.8826   -4.0377  -14.4359 C   0  0  0  0  0  0  0  0  0  0  0  0
   21.5390   -4.3139  -15.7496 C   0  0  0  0  0  0  0  0  0  0  0  0
   21.4719   -5.6244  -16.2042 C   0  0  0  0  0  0  0  0  0  0  0  0
   21.7411   -6.6960  -15.3777 C   0  0  0  0  0  0  0  0  0  0  0  0
   21.6897   -8.1077  -15.7878 C   0  0  0  0  0  0  0  0  0  0  0  0
   20.3598   -8.7645  -15.5022 C   0  0  2  0  0  0  0  0  0  0  0  0
   20.2306  -10.0360  -16.1815 N   0  0  0  0  0  0  0  0  0  0  0  0
   19.2189   -7.8752  -15.7284 C   0  0  0  0  0  0  0  0  0  0  0  0
   18.7637   -7.0161  -14.7529 O   0  0  0  0  0  0  0  0  0  0  0  0
   22.0820   -6.4066  -14.0716 C   0  0  0  0  0  0  0  0  0  0  0  0
   22.1501   -5.1121  -13.6160 C   0  0  0  0  0  0  0  0  0  0  0  0
   18.6370   -7.8898  -16.8333 O   0  0  0  0  0  0  0  0  0  0  0  0
  1  2  1  0
  2  3  2  0
  4  2  1  0
  4  5  1  0
  5  7  1  0
  5  6  1  6
  7  8  2  0
  9 10  1  0
 10 11  2  0
 12 10  1  0
 12 13  1  0
 14 13  1  1
 15 14  1  0
 15  7  1  0
 16 17  2  0
 16 14  1  0
 18 19  1  0
 19 29  2  0
 20 19  1  0
 20 21  2  0
 21 22  1  0
 22 28  2  0
 22 23  1  0
 24 23  1  6
 24 26  1  0
 24 25  1  0
 25 16  1  0
 26 27  1  0
 29 28  1  0
 30 26  2  0
M  END
$$$$
