NQY.pdb
     RDKit          3D

 30 30  0  0  1  0  0  0  0  0999 V2000
   16.6150  -12.3977  -17.9655 N   0  0  0  0  0  0  0  0  0  0  0  0
   16.3739  -11.9082  -16.6498 C   0  0  0  0  0  0  0  0  0  0  0  0
   15.1872  -11.7597  -16.3064 O   0  0  0  0  0  0  0  0  0  0  0  0
   17.4885  -11.5925  -15.7372 C   0  0  0  0  0  0  0  0  0  0  0  0
   18.7882  -11.7833  -16.4724 C   0  0  2  0  0  0  0  0  0  0  0  0
   19.1860  -13.1553  -16.4516 N   0  0  0  0  0  0  0  0  0  0  0  0
   19.8423  -10.8549  -15.9859 C   0  0  0  0  0  0  0  0  0  0  0  0
   20.3876  -10.9499  -14.8758 O   0  0  0  0  0  0  0  0  0  0  0  0
   22.7515   -7.2335  -20.1423 N   0  0  0  0  0  0  0  0  0  0  0  0
   23.1641   -8.5298  -19.7387 C   0  0  0  0  0  0  0  0  0  0  0  0
   23.9482   -9.1449  -20.4898 O   0  0  0  0  0  0  0  0  0  0  0  0
   22.7131   -9.1780  -18.4839 C   0  0  0  0  0  0  0  0  0  0  0  0
   21.7795   -8.2640  -17.7683 C   0  0  0  0  0  0  0  0  0  0  0  0
   21.2053   -8.7891  -16.4924 C   0  0  2  0  0  0  0  0  0  0  0  0
   20.2325   -9.8070  -16.8561 N   0  0  0  0  0  0  0  0  0  0  0  0
   20.5822   -7.7417  -15.6387 C   0  0  0  0  0  0  0  0  0  0  0  0
   19.4881   -7.1851  -15.8961 O   0  0  0  0  0  0  0  0  0  0  0  0
   17.6955   -3.0941   -8.7934 O   0  0  0  0  0  0  0  0  0  0  0  0
   18.3043   -4.0122   -9.6306 C   0  0  0  0  0  0  0  0  0  0  0  0
   17.9785   -4.0240  -10.9775 C   0  0  0  0  0  0  0  0  0  0  0  0
   18.5726   -4.9334  -11.8425 C   0  0  0  0  0  0  0  0  0  0  0  0
   19.5022   -5.8540  -11.4043 C   0  0  0  0  0  0  0  0  0  0  0  0
   20.1713   -6.8459  -12.2602 C   0  0  0  0  0  0  0  0  0  0  0  0
   20.6548   -6.2736  -13.5718 C   0  0  2  0  0  0  0  0  0  0  0  0
   21.2241   -7.2934  -14.4267 N   0  0  0  0  0  0  0  0  0  0  0  0
   21.5297   -5.1117  -13.4045 C   0  0  0  0  0  0  0  0  0  0  0  0
   21.0541   -3.8236  -13.5114 O   0  0  0  0  0  0  0  0  0  0  0  0
   19.8176   -5.8313  -10.0605 C   0  0  0  0  0  0  0  0  0  0  0  0
   19.2331   -4.9339   -9.1997 C   0  0  0  0  0  0  0  0  0  0  0  0
   22.7417   -5.2846  -13.1581 O   0  0  0  0  0  0  0  0  0  0  0  0
  1  2  1  0
  2  3  2  0
  4  2  1  0
  4  5  1  0
  5  7  1  0
  5  6  1  1
  7  8  2  0
  9 10  1  0
 10 11  2  0
 12 10  1  0
 12 13  1  0
 14 13  1  6
 15 14  1  0
 15  7  1  0
 16 17  2  0
 16 14  1  0
 18 19  1  0
 19 29  2  0
 20 19  1  0
 20 21  2  0
 21 22  1  0
 22 28  2  0
 22 23  1  0
 24 23  1  1
 24 26  1  0
 24 25  1  0
 25 16  1  0
 26 27  1  0
 29 28  1  0
 30 26  2  0
M  END
$$$$
