NQY.pdb
     RDKit          3D

 30 30  0  0  1  0  0  0  0  0999 V2000
   12.5552  -12.2122  -14.0725 N   0  0  0  0  0  0  0  0  0  0  0  0
   12.2724  -11.8344  -12.7286 C   0  0  0  0  0  0  0  0  0  0  0  0
   11.1053  -11.9917  -12.3269 O   0  0  0  0  0  0  0  0  0  0  0  0
   13.3233  -11.2806  -11.8546 C   0  0  0  0  0  0  0  0  0  0  0  0
   14.6369  -11.3192  -12.5888 C   0  0  2  0  0  0  0  0  0  0  0  0
   15.1006  -12.6633  -12.7283 N   0  0  0  0  0  0  0  0  0  0  0  0
   15.6406  -10.4082  -11.9785 C   0  0  0  0  0  0  0  0  0  0  0  0
   16.1878  -10.6166  -10.8851 O   0  0  0  0  0  0  0  0  0  0  0  0
   19.1562   -7.1336  -15.7138 N   0  0  0  0  0  0  0  0  0  0  0  0
   19.5646   -6.6100  -14.4597 C   0  0  0  0  0  0  0  0  0  0  0  0
   20.5719   -5.8735  -14.4432 O   0  0  0  0  0  0  0  0  0  0  0  0
   18.8600   -6.8933  -13.1864 C   0  0  0  0  0  0  0  0  0  0  0  0
   17.7617   -7.8671  -13.4403 C   0  0  0  0  0  0  0  0  0  0  0  0
   16.9611   -8.2711  -12.2448 C   0  0  2  0  0  0  0  0  0  0  0  0
   15.9777   -9.2388  -12.7043 N   0  0  0  0  0  0  0  0  0  0  0  0
   16.3000   -7.1321  -11.5522 C   0  0  0  0  0  0  0  0  0  0  0  0
   15.2666   -6.5589  -11.9724 O   0  0  0  0  0  0  0  0  0  0  0  0
   10.7614   -8.3777   -7.9524 O   0  0  0  0  0  0  0  0  0  0  0  0
   11.9913   -7.7471   -8.0182 C   0  0  0  0  0  0  0  0  0  0  0  0
   13.1458   -8.5124   -8.0620 C   0  0  0  0  0  0  0  0  0  0  0  0
   14.3944   -7.9083   -8.1284 C   0  0  0  0  0  0  0  0  0  0  0  0
   14.5387   -6.5363   -8.1533 C   0  0  0  0  0  0  0  0  0  0  0  0
   15.8258   -5.8274   -8.2223 C   0  0  0  0  0  0  0  0  0  0  0  0
   16.2393   -5.4762   -9.6320 C   0  0  2  0  0  0  0  0  0  0  0  0
   16.8294   -6.6063  -10.3171 N   0  0  0  0  0  0  0  0  0  0  0  0
   17.0622   -4.2675   -9.7056 C   0  0  0  0  0  0  0  0  0  0  0  0
   16.5922   -3.0427   -9.2864 O   0  0  0  0  0  0  0  0  0  0  0  0
   13.3806   -5.7861   -8.1092 C   0  0  0  0  0  0  0  0  0  0  0  0
   12.1424   -6.3780   -8.0434 C   0  0  0  0  0  0  0  0  0  0  0  0
   18.2234   -4.3406  -10.1596 O   0  0  0  0  0  0  0  0  0  0  0  0
  1  2  1  0
  2  3  2  0
  4  2  1  0
  4  5  1  0
  5  7  1  0
  5  6  1  1
  7  8  2  0
  9 10  1  0
 10 11  2  0
 12 10  1  0
 12 13  1  0
 14 13  1  6
 15 14  1  0
 15  7  1  0
 16 17  2  0
 16 14  1  0
 18 19  1  0
 19 29  2  0
 20 19  1  0
 20 21  2  0
 21 22  1  0
 22 28  2  0
 22 23  1  0
 24 23  1  1
 24 26  1  0
 24 25  1  0
 25 16  1  0
 26 27  1  0
 29 28  1  0
 30 26  2  0
M  END
$$$$
