NQY.pdb
     RDKit          3D

 30 30  0  0  1  0  0  0  0  0999 V2000
   15.1067  -11.3402  -13.8668 N   0  0  0  0  0  0  0  0  0  0  0  0
   16.4709  -11.0203  -14.1220 C   0  0  0  0  0  0  0  0  0  0  0  0
   17.2203  -11.9535  -14.4623 O   0  0  0  0  0  0  0  0  0  0  0  0
   16.9686   -9.6386  -13.9869 C   0  0  0  0  0  0  0  0  0  0  0  0
   15.8481   -8.7644  -13.4903 C   0  0  2  0  0  0  0  0  0  0  0  0
   14.8802   -8.5477  -14.5185 N   0  0  0  0  0  0  0  0  0  0  0  0
   16.3543   -7.5067  -12.8806 C   0  0  0  0  0  0  0  0  0  0  0  0
   16.7254   -6.5216  -13.5367 O   0  0  0  0  0  0  0  0  0  0  0  0
   15.1818   -6.3599   -6.8471 N   0  0  0  0  0  0  0  0  0  0  0  0
   14.3923   -5.8909   -7.9288 C   0  0  0  0  0  0  0  0  0  0  0  0
   13.2372   -5.4956   -7.6703 O   0  0  0  0  0  0  0  0  0  0  0  0
   14.8694   -5.8492   -9.3320 C   0  0  0  0  0  0  0  0  0  0  0  0
   16.2788   -6.3286   -9.3847 C   0  0  0  0  0  0  0  0  0  0  0  0
   16.9240   -6.3054  -10.7325 C   0  0  2  0  0  0  0  0  0  0  0  0
   16.4081   -7.4504  -11.4658 N   0  0  0  0  0  0  0  0  0  0  0  0
   18.4110   -6.3316  -10.6868 C   0  0  0  0  0  0  0  0  0  0  0  0
   19.0761   -6.9174   -9.7993 O   0  0  0  0  0  0  0  0  0  0  0  0
   20.2990   -7.7269  -17.8687 O   0  0  0  0  0  0  0  0  0  0  0  0
   20.4814   -7.5802  -16.5049 C   0  0  0  0  0  0  0  0  0  0  0  0
   21.6606   -7.0261  -16.0329 C   0  0  0  0  0  0  0  0  0  0  0  0
   21.8726   -6.8659  -14.6699 C   0  0  0  0  0  0  0  0  0  0  0  0
   20.9300   -7.2468  -13.7371 C   0  0  0  0  0  0  0  0  0  0  0  0
   21.0847   -7.1087  -12.2807 C   0  0  0  0  0  0  0  0  0  0  0  0
   20.6388   -5.7637  -11.7577 C   0  0  2  0  0  0  0  0  0  0  0  0
   19.1964   -5.6619  -11.6951 N   0  0  0  0  0  0  0  0  0  0  0  0
   21.2631   -4.6391  -12.4570 C   0  0  0  0  0  0  0  0  0  0  0  0
   22.6253   -4.4371  -12.4358 O   0  0  0  0  0  0  0  0  0  0  0  0
   19.7601   -7.7973  -14.2210 C   0  0  0  0  0  0  0  0  0  0  0  0
   19.5445   -7.9583  -15.5684 C   0  0  0  0  0  0  0  0  0  0  0  0
   20.5480   -3.8363  -13.0924 O   0  0  0  0  0  0  0  0  0  0  0  0
  1  2  1  0
  2  3  2  0
  4  2  1  0
  4  5  1  0
  5  7  1  0
  5  6  1  6
  7  8  2  0
  9 10  1  0
 10 11  2  0
 12 10  1  0
 12 13  1  0
 14 13  1  1
 15 14  1  0
 15  7  1  0
 16 17  2  0
 16 14  1  0
 18 19  1  0
 19 29  2  0
 20 19  1  0
 20 21  2  0
 21 22  1  0
 22 28  2  0
 22 23  1  0
 24 23  1  6
 24 26  1  0
 24 25  1  0
 25 16  1  0
 26 27  1  0
 29 28  1  0
 30 26  2  0
M  END
$$$$
