NQY.pdb
     RDKit          3D

 30 30  0  0  1  0  0  0  0  0999 V2000
   27.3654  -21.7141  -19.6961 N   0  0  0  0  0  0  0  0  0  0  0  0
   26.8933  -20.9957  -18.5605 C   0  0  0  0  0  0  0  0  0  0  0  0
   27.2983  -19.8279  -18.4171 O   0  0  0  0  0  0  0  0  0  0  0  0
   25.9632  -21.6155  -17.5983 C   0  0  0  0  0  0  0  0  0  0  0  0
   26.7281  -21.9971  -16.3592 C   0  0  2  0  0  0  0  0  0  0  0  0
   27.5752  -23.1195  -16.6117 N   0  0  0  0  0  0  0  0  0  0  0  0
   25.8307  -22.1854  -15.1892 C   0  0  0  0  0  0  0  0  0  0  0  0
   25.1761  -23.2180  -14.9799 O   0  0  0  0  0  0  0  0  0  0  0  0
   24.3373  -20.2699   -9.6098 N   0  0  0  0  0  0  0  0  0  0  0  0
   25.3030  -21.3081   -9.6681 C   0  0  0  0  0  0  0  0  0  0  0  0
   25.4806  -21.9884   -8.6372 O   0  0  0  0  0  0  0  0  0  0  0  0
   26.0991  -21.6174  -10.8800 C   0  0  0  0  0  0  0  0  0  0  0  0
   25.7611  -20.6391  -11.9513 C   0  0  0  0  0  0  0  0  0  0  0  0
   24.9168  -21.1626  -13.0677 C   0  0  2  0  0  0  0  0  0  0  0  0
   25.7312  -21.1105  -14.2714 N   0  0  0  0  0  0  0  0  0  0  0  0
   23.6429  -20.4176  -13.2572 C   0  0  0  0  0  0  0  0  0  0  0  0
   23.5779  -19.2156  -13.6096 O   0  0  0  0  0  0  0  0  0  0  0  0
   20.9742  -24.6338  -18.1847 O   0  0  0  0  0  0  0  0  0  0  0  0
   20.9816  -23.5218  -17.3613 C   0  0  0  0  0  0  0  0  0  0  0  0
   19.8799  -23.2607  -16.5623 C   0  0  0  0  0  0  0  0  0  0  0  0
   19.8578  -22.1526  -15.7256 C   0  0  0  0  0  0  0  0  0  0  0  0
   20.9189  -21.2735  -15.6540 C   0  0  0  0  0  0  0  0  0  0  0  0
   20.9663  -20.0813  -14.7937 C   0  0  0  0  0  0  0  0  0  0  0  0
   21.1075  -20.4092  -13.3260 C   0  0  2  0  0  0  0  0  0  0  0  0
   22.3687  -21.0585  -13.0385 N   0  0  0  0  0  0  0  0  0  0  0  0
   19.9545  -21.1310  -12.7846 C   0  0  0  0  0  0  0  0  0  0  0  0
   18.6821  -20.6060  -12.8315 O   0  0  0  0  0  0  0  0  0  0  0  0
   22.0098  -21.5455  -16.4552 C   0  0  0  0  0  0  0  0  0  0  0  0
   22.0375  -22.6402  -17.2850 C   0  0  0  0  0  0  0  0  0  0  0  0
   20.1207  -22.2540  -12.2641 O   0  0  0  0  0  0  0  0  0  0  0  0
  1  2  1  0
  2  3  2  0
  4  2  1  0
  4  5  1  0
  5  7  1  0
  5  6  1  6
  7  8  2  0
  9 10  1  0
 10 11  2  0
 12 10  1  0
 12 13  1  0
 14 13  1  1
 15 14  1  0
 15  7  1  0
 16 17  2  0
 16 14  1  0
 18 19  1  0
 19 29  2  0
 20 19  1  0
 20 21  2  0
 21 22  1  0
 22 28  2  0
 22 23  1  0
 24 23  1  6
 24 26  1  0
 24 25  1  0
 25 16  1  0
 26 27  1  0
 29 28  1  0
 30 26  2  0
M  END
$$$$
