NQY.pdb
     RDKit          3D

 30 30  0  0  1  0  0  0  0  0999 V2000
   14.0186  -13.3726  -14.0273 N   0  0  0  0  0  0  0  0  0  0  0  0
   14.9061  -13.1140  -15.1109 C   0  0  0  0  0  0  0  0  0  0  0  0
   14.4609  -13.2737  -16.2618 O   0  0  0  0  0  0  0  0  0  0  0  0
   16.2939  -12.6756  -14.8723 C   0  0  0  0  0  0  0  0  0  0  0  0
   17.0598  -12.7598  -16.1655 C   0  0  2  0  0  0  0  0  0  0  0  0
   17.3809  -14.1166  -16.4772 N   0  0  0  0  0  0  0  0  0  0  0  0
   18.2406  -11.8568  -16.1708 C   0  0  0  0  0  0  0  0  0  0  0  0
   19.3398  -12.1543  -15.6790 O   0  0  0  0  0  0  0  0  0  0  0  0
   18.6214   -8.1676  -20.9523 N   0  0  0  0  0  0  0  0  0  0  0  0
   19.7028   -7.6560  -20.1891 C   0  0  0  0  0  0  0  0  0  0  0  0
   20.4223   -6.7859  -20.7205 O   0  0  0  0  0  0  0  0  0  0  0  0
   20.0129   -8.1011  -18.8093 C   0  0  0  0  0  0  0  0  0  0  0  0
   19.0084   -9.1158  -18.3843 C   0  0  0  0  0  0  0  0  0  0  0  0
   19.1834   -9.6671  -17.0064 C   0  0  2  0  0  0  0  0  0  0  0  0
   18.0801  -10.5866  -16.7777 N   0  0  0  0  0  0  0  0  0  0  0  0
   19.2336   -8.6255  -15.9450 C   0  0  0  0  0  0  0  0  0  0  0  0
   18.2357   -7.9762  -15.5504 O   0  0  0  0  0  0  0  0  0  0  0  0
   26.2345   -6.5256  -17.2060 O   0  0  0  0  0  0  0  0  0  0  0  0
   25.1822   -6.6990  -16.3244 C   0  0  0  0  0  0  0  0  0  0  0  0
   24.7958   -7.9822  -15.9716 C   0  0  0  0  0  0  0  0  0  0  0  0
   23.7435   -8.1881  -15.0892 C   0  0  0  0  0  0  0  0  0  0  0  0
   23.0449   -7.1369  -14.5318 C   0  0  0  0  0  0  0  0  0  0  0  0
   21.9216   -7.2779  -13.5925 C   0  0  0  0  0  0  0  0  0  0  0  0
   20.5719   -7.2701  -14.2703 C   0  0  2  0  0  0  0  0  0  0  0  0
   20.4753   -8.2935  -15.2891 N   0  0  0  0  0  0  0  0  0  0  0  0
   20.1771   -5.9444  -14.7502 C   0  0  0  0  0  0  0  0  0  0  0  0
   20.0334   -5.6714  -16.0924 O   0  0  0  0  0  0  0  0  0  0  0  0
   23.4402   -5.8641  -14.8918 C   0  0  0  0  0  0  0  0  0  0  0  0
   24.4806   -5.6540  -15.7644 C   0  0  0  0  0  0  0  0  0  0  0  0
   19.9629   -5.0305  -13.9264 O   0  0  0  0  0  0  0  0  0  0  0  0
  1  2  1  0
  2  3  2  0
  4  2  1  0
  4  5  1  0
  5  7  1  0
  5  6  1  1
  7  8  2  0
  9 10  1  0
 10 11  2  0
 12 10  1  0
 12 13  1  0
 14 13  1  6
 15 14  1  0
 15  7  1  0
 16 17  2  0
 16 14  1  0
 18 19  1  0
 19 29  2  0
 20 19  1  0
 20 21  2  0
 21 22  1  0
 22 28  2  0
 22 23  1  0
 24 23  1  6
 24 26  1  0
 24 25  1  0
 25 16  1  0
 26 27  1  0
 29 28  1  0
 30 26  2  0
M  END
$$$$
