NQY.pdb
     RDKit          3D

 30 30  0  0  1  0  0  0  0  0999 V2000
   18.1566  -13.9156  -18.4020 N   0  0  0  0  0  0  0  0  0  0  0  0
   19.1254  -13.9101  -17.3579 C   0  0  0  0  0  0  0  0  0  0  0  0
   19.3952  -15.0023  -16.8262 O   0  0  0  0  0  0  0  0  0  0  0  0
   19.7781  -12.6590  -16.9294 C   0  0  0  0  0  0  0  0  0  0  0  0
   20.8271  -12.2858  -17.9425 C   0  0  2  0  0  0  0  0  0  0  0  0
   21.8366  -13.2937  -18.0220 N   0  0  0  0  0  0  0  0  0  0  0  0
   21.3702  -10.9231  -17.7026 C   0  0  0  0  0  0  0  0  0  0  0  0
   22.2794  -10.6739  -16.8965 O   0  0  0  0  0  0  0  0  0  0  0  0
   21.2140   -6.6848  -21.8965 N   0  0  0  0  0  0  0  0  0  0  0  0
   21.1402   -5.7983  -20.7910 C   0  0  0  0  0  0  0  0  0  0  0  0
   21.3458   -4.5869  -21.0090 O   0  0  0  0  0  0  0  0  0  0  0  0
   20.8344   -6.2384  -19.4086 C   0  0  0  0  0  0  0  0  0  0  0  0
   20.5818   -7.7065  -19.4063 C   0  0  0  0  0  0  0  0  0  0  0  0
   21.1840   -8.4685  -18.2705 C   0  0  2  0  0  0  0  0  0  0  0  0
   20.8022   -9.8604  -18.4482 N   0  0  0  0  0  0  0  0  0  0  0  0
   20.7715   -7.9731  -16.9295 C   0  0  0  0  0  0  0  0  0  0  0  0
   19.7467   -8.3640  -16.3210 O   0  0  0  0  0  0  0  0  0  0  0  0
   19.5485   -5.9767   -8.7285 O   0  0  0  0  0  0  0  0  0  0  0  0
   20.0621   -6.3158   -9.9678 C   0  0  0  0  0  0  0  0  0  0  0  0
   21.0865   -5.5562  -10.5098 C   0  0  0  0  0  0  0  0  0  0  0  0
   21.6224   -5.8717  -11.7514 C   0  0  0  0  0  0  0  0  0  0  0  0
   21.1639   -6.9425  -12.4910 C   0  0  0  0  0  0  0  0  0  0  0  0
   21.6814   -7.3359  -13.8106 C   0  0  0  0  0  0  0  0  0  0  0  0
   21.1785   -6.4609  -14.9344 C   0  0  2  0  0  0  0  0  0  0  0  0
   21.5541   -6.9819  -16.2314 N   0  0  0  0  0  0  0  0  0  0  0  0
   21.5238   -5.0486  -14.7620 C   0  0  0  0  0  0  0  0  0  0  0  0
   22.3106   -4.3775  -15.6715 O   0  0  0  0  0  0  0  0  0  0  0  0
   20.1433   -7.6907  -11.9394 C   0  0  0  0  0  0  0  0  0  0  0  0
   19.6090   -7.3834  -10.7113 C   0  0  0  0  0  0  0  0  0  0  0  0
   21.0971   -4.4281  -13.7657 O   0  0  0  0  0  0  0  0  0  0  0  0
  1  2  1  0
  2  3  2  0
  4  2  1  0
  4  5  1  0
  5  7  1  0
  5  6  1  1
  7  8  2  0
  9 10  1  0
 10 11  2  0
 12 10  1  0
 12 13  1  0
 14 13  1  6
 15 14  1  0
 15  7  1  0
 16 17  2  0
 16 14  1  0
 18 19  1  0
 19 29  2  0
 20 19  1  0
 20 21  2  0
 21 22  1  0
 22 28  2  0
 22 23  1  0
 24 23  1  1
 24 26  1  0
 24 25  1  0
 25 16  1  0
 26 27  1  0
 29 28  1  0
 30 26  2  0
M  END
$$$$
