NQY.pdb
     RDKit          3D

 30 30  0  0  1  0  0  0  0  0999 V2000
   26.2145  -12.2324  -15.1496 N   0  0  0  0  0  0  0  0  0  0  0  0
   26.5077  -11.1181  -15.9868 C   0  0  0  0  0  0  0  0  0  0  0  0
   27.6680  -11.0265  -16.4268 O   0  0  0  0  0  0  0  0  0  0  0  0
   25.4748  -10.1178  -16.3150 C   0  0  0  0  0  0  0  0  0  0  0  0
   24.4037  -10.7778  -17.1415 C   0  0  2  0  0  0  0  0  0  0  0  0
   24.9490  -11.3012  -18.3539 N   0  0  0  0  0  0  0  0  0  0  0  0
   23.2377   -9.8813  -17.3567 C   0  0  0  0  0  0  0  0  0  0  0  0
   23.0857   -9.1759  -18.3656 O   0  0  0  0  0  0  0  0  0  0  0  0
   17.8829  -11.5468  -15.0768 N   0  0  0  0  0  0  0  0  0  0  0  0
   17.5758  -10.2038  -15.4166 C   0  0  0  0  0  0  0  0  0  0  0  0
   16.3789   -9.8547  -15.3615 O   0  0  0  0  0  0  0  0  0  0  0  0
   18.5964   -9.2103  -15.8282 C   0  0  0  0  0  0  0  0  0  0  0  0
   19.9282   -9.8744  -15.8938 C   0  0  0  0  0  0  0  0  0  0  0  0
   21.0474   -9.0372  -16.4229 C   0  0  2  0  0  0  0  0  0  0  0  0
   22.2537   -9.8448  -16.3378 N   0  0  0  0  0  0  0  0  0  0  0  0
   21.2225   -7.7459  -15.7046 C   0  0  0  0  0  0  0  0  0  0  0  0
   21.7277   -7.6410  -14.5615 O   0  0  0  0  0  0  0  0  0  0  0  0
   26.7628   -6.4638  -18.1968 O   0  0  0  0  0  0  0  0  0  0  0  0
   25.5588   -5.9266  -17.7766 C   0  0  0  0  0  0  0  0  0  0  0  0
   24.4347   -6.0728  -18.5736 C   0  0  0  0  0  0  0  0  0  0  0  0
   23.2125   -5.5447  -18.1789 C   0  0  0  0  0  0  0  0  0  0  0  0
   23.0656   -4.8595  -16.9903 C   0  0  0  0  0  0  0  0  0  0  0  0
   21.8056   -4.2733  -16.5079 C   0  0  0  0  0  0  0  0  0  0  0  0
   20.9939   -5.2204  -15.6560 C   0  0  2  0  0  0  0  0  0  0  0  0
   20.8065   -6.5009  -16.3040 N   0  0  0  0  0  0  0  0  0  0  0  0
   19.7422   -4.6324  -15.1753 C   0  0  0  0  0  0  0  0  0  0  0  0
   18.5184   -5.1947  -15.4635 O   0  0  0  0  0  0  0  0  0  0  0  0
   24.1934   -4.7212  -16.2061 C   0  0  0  0  0  0  0  0  0  0  0  0
   25.4053   -5.2415  -16.5913 C   0  0  0  0  0  0  0  0  0  0  0  0
   19.7763   -3.5925  -14.4846 O   0  0  0  0  0  0  0  0  0  0  0  0
  1  2  1  0
  2  3  2  0
  4  2  1  0
  4  5  1  0
  5  7  1  0
  5  6  1  6
  7  8  2  0
  9 10  1  0
 10 11  2  0
 12 10  1  0
 12 13  1  0
 14 13  1  1
 15 14  1  0
 15  7  1  0
 16 17  2  0
 16 14  1  0
 18 19  1  0
 19 29  2  0
 20 19  1  0
 20 21  2  0
 21 22  1  0
 22 28  2  0
 22 23  1  0
 24 23  1  6
 24 26  1  0
 24 25  1  0
 25 16  1  0
 26 27  1  0
 29 28  1  0
 30 26  2  0
M  END
$$$$
