TLS.pdb
     RDKit          3D

 22 21  0  0  1  0  0  0  0  0999 V2000
   18.8166   -8.2222  -13.1422 C   0  0  0  0  0  0  0  0  0  0  0  0
   18.1542   -9.5384  -13.4853 C   0  0  1  0  0  0  0  0  0  0  0  0
   19.1542  -10.4189  -13.8913 O   0  0  0  0  0  0  0  0  0  0  0  0
   17.5027  -10.0484  -12.2033 C   0  0  2  0  0  0  0  0  0  0  0  0
   16.9770  -11.3660  -12.5002 N   0  0  0  0  0  0  0  0  0  0  0  0
   16.4045   -9.1359  -11.7668 C   0  0  0  0  0  0  0  0  0  0  0  0
   15.2981   -9.0983  -12.3557 O   0  0  0  0  0  0  0  0  0  0  0  0
   14.8725   -6.7995   -6.5392 C   0  0  0  0  0  0  0  0  0  0  0  0
   14.6430   -6.5092   -8.0388 C   0  0  2  0  0  0  0  0  0  0  0  0
   13.1720   -6.7132   -8.2898 C   0  0  0  0  0  0  0  0  0  0  0  0
   15.5161   -7.4487   -8.7747 C   0  0  0  0  0  0  0  0  0  0  0  0
   15.6257   -7.2822  -10.2509 C   0  0  2  0  0  0  0  0  0  0  0  0
   16.6234   -8.2993  -10.6656 N   0  0  0  0  0  0  0  0  0  0  0  0
   16.1451   -5.9839  -10.6983 C   0  0  0  0  0  0  0  0  0  0  0  0
   17.2807   -5.6068  -10.3307 O   0  0  0  0  0  0  0  0  0  0  0  0
   16.0003   -4.4585  -14.2617 O   0  0  0  0  0  0  0  0  0  0  0  0
   15.5652   -3.4858  -13.3762 C   0  0  0  0  0  0  0  0  0  0  0  0
   15.9556   -3.8094  -11.9485 C   0  0  2  0  0  0  0  0  0  0  0  0
   15.4260   -5.1061  -11.5444 N   0  0  0  0  0  0  0  0  0  0  0  0
   15.4246   -2.7223  -11.0853 C   0  0  0  0  0  0  0  0  0  0  0  0
   15.8609   -1.5668  -11.1816 O   0  0  0  0  0  0  0  0  0  0  0  0
   14.4194   -2.9527  -10.1356 O   0  0  0  0  0  0  0  0  0  0  0  0
  2  4  1  0
  2  1  1  1
  3  2  1  0
  4  6  1  0
  4  5  1  6
  6  7  2  0
  9  8  1  1
  9 10  1  0
  9 11  1  0
 12 11  1  1
 12 14  1  0
 13 12  1  0
 13  6  1  0
 14 19  1  0
 14 15  2  0
 16 17  1  0
 18 17  1  6
 18 20  1  0
 19 18  1  0
 20 21  2  0
 20 22  1  0
M  END
$$$$
