TLS.pdb
     RDKit          3D

 22 21  0  0  1  0  0  0  0  0999 V2000
   22.6360  -11.0195  -20.1947 C   0  0  0  0  0  0  0  0  0  0  0  0
   22.0959  -10.2428  -19.0141 C   0  0  1  0  0  0  0  0  0  0  0  0
   20.9403   -9.5888  -19.4345 O   0  0  0  0  0  0  0  0  0  0  0  0
   21.7503  -11.2667  -17.9371 C   0  0  2  0  0  0  0  0  0  0  0  0
   20.7887  -12.1786  -18.5240 N   0  0  0  0  0  0  0  0  0  0  0  0
   21.1674  -10.5977  -16.7363 C   0  0  0  0  0  0  0  0  0  0  0  0
   19.9292  -10.4859  -16.5731 O   0  0  0  0  0  0  0  0  0  0  0  0
   22.8459   -9.9957  -11.1142 C   0  0  0  0  0  0  0  0  0  0  0  0
   21.9847   -9.2104  -12.1278 C   0  0  2  0  0  0  0  0  0  0  0  0
   20.5750   -9.2389  -11.5982 C   0  0  0  0  0  0  0  0  0  0  0  0
   22.1549   -9.8969  -13.4263 C   0  0  0  0  0  0  0  0  0  0  0  0
   21.5368   -9.2707  -14.6283 C   0  0  2  0  0  0  0  0  0  0  0  0
   22.0357  -10.0816  -15.7666 N   0  0  0  0  0  0  0  0  0  0  0  0
   21.9457   -7.8858  -14.8938 C   0  0  0  0  0  0  0  0  0  0  0  0
   23.1338   -7.6341  -15.1972 O   0  0  0  0  0  0  0  0  0  0  0  0
   19.2069   -4.7184  -14.8612 O   0  0  0  0  0  0  0  0  0  0  0  0
   20.3454   -4.5860  -15.6395 C   0  0  0  0  0  0  0  0  0  0  0  0
   21.4917   -5.4209  -15.1063 C   0  0  2  0  0  0  0  0  0  0  0  0
   21.0584   -6.7849  -14.8294 N   0  0  0  0  0  0  0  0  0  0  0  0
   21.9892   -4.7570  -13.8732 C   0  0  0  0  0  0  0  0  0  0  0  0
   21.8643   -5.3002  -12.7669 O   0  0  0  0  0  0  0  0  0  0  0  0
   22.6140   -3.5024  -13.9063 O   0  0  0  0  0  0  0  0  0  0  0  0
  2  4  1  0
  2  1  1  6
  3  2  1  0
  4  6  1  0
  4  5  1  6
  6  7  2  0
  9  8  1  1
  9 10  1  0
  9 11  1  0
 12 11  1  1
 12 14  1  0
 13 12  1  0
 13  6  1  0
 14 19  1  0
 14 15  2  0
 16 17  1  0
 18 17  1  1
 18 20  1  0
 19 18  1  0
 20 21  2  0
 20 22  1  0
M  END
$$$$
