TLS.pdb
     RDKit          3D

 22 21  0  0  1  0  0  0  0  0999 V2000
   18.6273   -8.1010  -19.5999 C   0  0  0  0  0  0  0  0  0  0  0  0
   17.5547   -9.0950  -19.2124 C   0  0  1  0  0  0  0  0  0  0  0  0
   16.9894   -9.5830  -20.3880 O   0  0  0  0  0  0  0  0  0  0  0  0
   18.2546  -10.2258  -18.4646 C   0  0  2  0  0  0  0  0  0  0  0  0
   17.2615  -11.2597  -18.2507 N   0  0  0  0  0  0  0  0  0  0  0  0
   18.7943   -9.7442  -17.1585 C   0  0  0  0  0  0  0  0  0  0  0  0
   18.0432   -9.4048  -16.2135 O   0  0  0  0  0  0  0  0  0  0  0  0
   24.0998  -10.7491  -14.5731 C   0  0  0  0  0  0  0  0  0  0  0  0
   22.8848   -9.8109  -14.4020 C   0  0  2  0  0  0  0  0  0  0  0  0
   22.2798  -10.1407  -13.0627 C   0  0  0  0  0  0  0  0  0  0  0  0
   21.9936  -10.0837  -15.5499 C   0  0  0  0  0  0  0  0  0  0  0  0
   20.7889   -9.2227  -15.7127 C   0  0  2  0  0  0  0  0  0  0  0  0
   20.1825   -9.6717  -16.9904 N   0  0  0  0  0  0  0  0  0  0  0  0
   21.0599   -7.7876  -15.8628 C   0  0  0  0  0  0  0  0  0  0  0  0
   21.6625   -7.3700  -16.8774 O   0  0  0  0  0  0  0  0  0  0  0  0
   18.7081   -4.7596  -15.6406 O   0  0  0  0  0  0  0  0  0  0  0  0
   19.7443   -4.5555  -14.7439 C   0  0  0  0  0  0  0  0  0  0  0  0
   20.9568   -5.3981  -15.0839 C   0  0  2  0  0  0  0  0  0  0  0  0
   20.6713   -6.8168  -14.9088 N   0  0  0  0  0  0  0  0  0  0  0  0
   22.0648   -4.9616  -14.1947 C   0  0  0  0  0  0  0  0  0  0  0  0
   22.5019   -5.7129  -13.3120 O   0  0  0  0  0  0  0  0  0  0  0  0
   22.6572   -3.6966  -14.3135 O   0  0  0  0  0  0  0  0  0  0  0  0
  2  4  1  0
  2  1  1  6
  3  2  1  0
  4  6  1  0
  4  5  1  1
  6  7  2  0
  9  8  1  6
  9 10  1  0
  9 11  1  0
 12 11  1  6
 12 14  1  0
 13 12  1  0
 13  6  1  0
 14 19  1  0
 14 15  2  0
 16 17  1  0
 18 17  1  1
 18 20  1  0
 19 18  1  0
 20 21  2  0
 20 22  1  0
M  END
$$$$
