TLS.pdb
     RDKit          3D

 22 21  0  0  1  0  0  0  0  0999 V2000
   26.5281  -18.2133  -15.3355 C   0  0  0  0  0  0  0  0  0  0  0  0
   27.3180  -19.3575  -15.9318 C   0  0  1  0  0  0  0  0  0  0  0  0
   28.3759  -18.8076  -16.6518 O   0  0  0  0  0  0  0  0  0  0  0  0
   27.8561  -20.1753  -14.7615 C   0  0  2  0  0  0  0  0  0  0  0  0
   28.7654  -21.1548  -15.3224 N   0  0  0  0  0  0  0  0  0  0  0  0
   26.7440  -20.8546  -14.0329 C   0  0  0  0  0  0  0  0  0  0  0  0
   26.2960  -21.9688  -14.3936 O   0  0  0  0  0  0  0  0  0  0  0  0
   25.7698  -22.1052   -9.4811 C   0  0  0  0  0  0  0  0  0  0  0  0
   26.1591  -20.6434   -9.7930 C   0  0  2  0  0  0  0  0  0  0  0  0
   26.1118  -19.9032   -8.4821 C   0  0  0  0  0  0  0  0  0  0  0  0
   25.1795  -20.1642  -10.7915 C   0  0  0  0  0  0  0  0  0  0  0  0
   25.1259  -20.8676  -12.1036 C   0  0  2  0  0  0  0  0  0  0  0  0
   26.1890  -20.2226  -12.9135 N   0  0  0  0  0  0  0  0  0  0  0  0
   23.8742  -20.7019  -12.8529 C   0  0  0  0  0  0  0  0  0  0  0  0
   23.5007  -19.5577  -13.1968 O   0  0  0  0  0  0  0  0  0  0  0  0
   20.1533  -22.6800  -15.3169 O   0  0  0  0  0  0  0  0  0  0  0  0
   21.3130  -22.8673  -14.5825 C   0  0  0  0  0  0  0  0  0  0  0  0
   21.7768  -21.5831  -13.9258 C   0  0  2  0  0  0  0  0  0  0  0  0
   23.0391  -21.7826  -13.2245 N   0  0  0  0  0  0  0  0  0  0  0  0
   20.7068  -21.1514  -12.9890 C   0  0  0  0  0  0  0  0  0  0  0  0
   20.7528  -21.4591  -11.7899 O   0  0  0  0  0  0  0  0  0  0  0  0
   19.6118  -20.3866  -13.4147 O   0  0  0  0  0  0  0  0  0  0  0  0
  2  4  1  0
  2  1  1  1
  3  2  1  0
  4  6  1  0
  4  5  1  6
  6  7  2  0
  9  8  1  1
  9 10  1  0
  9 11  1  0
 12 11  1  1
 12 14  1  0
 13 12  1  0
 13  6  1  0
 14 19  1  0
 14 15  2  0
 16 17  1  0
 18 17  1  1
 18 20  1  0
 19 18  1  0
 20 21  2  0
 20 22  1  0
M  END
$$$$
