TLS.pdb
     RDKit          3D

 22 21  0  0  1  0  0  0  0  0999 V2000
   22.6192  -22.8966  -14.0928 C   0  0  0  0  0  0  0  0  0  0  0  0
   21.5903  -21.8188  -13.8313 C   0  0  1  0  0  0  0  0  0  0  0  0
   20.3332  -22.4162  -13.8842 O   0  0  0  0  0  0  0  0  0  0  0  0
   21.8557  -21.2916  -12.4244 C   0  0  2  0  0  0  0  0  0  0  0  0
   20.7711  -20.3832  -12.1096 N   0  0  0  0  0  0  0  0  0  0  0  0
   23.1661  -20.5788  -12.3632 C   0  0  0  0  0  0  0  0  0  0  0  0
   23.3114  -19.4155  -12.8084 O   0  0  0  0  0  0  0  0  0  0  0  0
   25.8524  -19.1364   -9.1122 C   0  0  0  0  0  0  0  0  0  0  0  0
   25.5976  -20.6582   -9.1830 C   0  0  2  0  0  0  0  0  0  0  0  0
   26.2395  -21.2530   -7.9571 C   0  0  0  0  0  0  0  0  0  0  0  0
   26.1944  -21.1132  -10.4570 C   0  0  0  0  0  0  0  0  0  0  0  0
   25.6015  -20.5994  -11.7233 C   0  0  2  0  0  0  0  0  0  0  0  0
   24.2622  -21.2349  -11.7900 N   0  0  0  0  0  0  0  0  0  0  0  0
   26.3082  -20.9894  -12.9497 C   0  0  0  0  0  0  0  0  0  0  0  0
   26.7863  -22.1415  -13.0538 O   0  0  0  0  0  0  0  0  0  0  0  0
   25.3914  -19.5020  -16.5548 O   0  0  0  0  0  0  0  0  0  0  0  0
   26.1357  -20.6625  -16.4183 C   0  0  0  0  0  0  0  0  0  0  0  0
   27.1364  -20.5592  -15.2855 C   0  0  2  0  0  0  0  0  0  0  0  0
   26.4876  -20.1235  -14.0549 N   0  0  0  0  0  0  0  0  0  0  0  0
   28.1865  -19.5955  -15.7066 C   0  0  0  0  0  0  0  0  0  0  0  0
   28.3431  -18.5253  -15.1026 O   0  0  0  0  0  0  0  0  0  0  0  0
   29.0359  -19.8510  -16.7923 O   0  0  0  0  0  0  0  0  0  0  0  0
  2  4  1  0
  2  1  1  1
  3  2  1  0
  4  6  1  0
  4  5  1  6
  6  7  2  0
  9  8  1  1
  9 10  1  0
  9 11  1  0
 12 11  1  1
 12 14  1  0
 13 12  1  0
 13  6  1  0
 14 19  1  0
 14 15  2  0
 16 17  1  0
 18 17  1  6
 18 20  1  0
 19 18  1  0
 20 21  2  0
 20 22  1  0
M  END
$$$$
