TLS.pdb
     RDKit          3D

 22 21  0  0  1  0  0  0  0  0999 V2000
   17.7893   -9.1857  -19.4373 C   0  0  0  0  0  0  0  0  0  0  0  0
   17.3587  -10.4457  -18.7192 C   0  0  1  0  0  0  0  0  0  0  0  0
   16.9627  -11.3663  -19.6865 O   0  0  0  0  0  0  0  0  0  0  0  0
   18.5851  -10.9679  -17.9768 C   0  0  2  0  0  0  0  0  0  0  0  0
   18.2288  -12.2707  -17.4508 N   0  0  0  0  0  0  0  0  0  0  0  0
   18.9664  -10.0449  -16.8669 C   0  0  0  0  0  0  0  0  0  0  0  0
   18.2029   -9.8191  -15.8982 O   0  0  0  0  0  0  0  0  0  0  0  0
   21.7453   -9.6221  -13.4865 C   0  0  0  0  0  0  0  0  0  0  0  0
   22.4198   -9.8261  -14.8610 C   0  0  2  0  0  0  0  0  0  0  0  0
   23.8962   -9.9572  -14.5934 C   0  0  0  0  0  0  0  0  0  0  0  0
   22.0569   -8.6449  -15.6731 C   0  0  0  0  0  0  0  0  0  0  0  0
   20.6098   -8.3897  -15.9182 C   0  0  2  0  0  0  0  0  0  0  0  0
   20.2163   -9.4157  -16.9154 N   0  0  0  0  0  0  0  0  0  0  0  0
   20.2959   -7.0863  -16.5166 C   0  0  0  0  0  0  0  0  0  0  0  0
   20.7093   -6.8125  -17.6660 O   0  0  0  0  0  0  0  0  0  0  0  0
   16.8613   -5.2993  -16.3639 O   0  0  0  0  0  0  0  0  0  0  0  0
   17.8288   -4.3460  -16.0907 C   0  0  0  0  0  0  0  0  0  0  0  0
   19.2118   -4.8167  -16.4923 C   0  0  2  0  0  0  0  0  0  0  0  0
   19.5324   -6.0909  -15.8610 N   0  0  0  0  0  0  0  0  0  0  0  0
   20.1759   -3.7610  -16.0862 C   0  0  0  0  0  0  0  0  0  0  0  0
   21.0835   -4.0082  -15.2803 O   0  0  0  0  0  0  0  0  0  0  0  0
   20.1022   -2.4551  -16.5906 O   0  0  0  0  0  0  0  0  0  0  0  0
  2  4  1  0
  2  1  1  6
  3  2  1  0
  4  6  1  0
  4  5  1  1
  6  7  2  0
  9  8  1  1
  9 10  1  0
  9 11  1  0
 12 11  1  6
 12 14  1  0
 13 12  1  0
 13  6  1  0
 14 19  1  0
 14 15  2  0
 16 17  1  0
 18 17  1  1
 18 20  1  0
 19 18  1  0
 20 21  2  0
 20 22  1  0
M  END
$$$$
