TLS.pdb
     RDKit          3D

 22 21  0  0  1  0  0  0  0  0999 V2000
   20.3829   -9.4310  -19.1358 C   0  0  0  0  0  0  0  0  0  0  0  0
   20.1005  -10.8184  -18.6029 C   0  0  1  0  0  0  0  0  0  0  0  0
   19.5676  -11.5695  -19.6478 O   0  0  0  0  0  0  0  0  0  0  0  0
   21.4423  -11.4046  -18.1739 C   0  0  2  0  0  0  0  0  0  0  0  0
   21.2031  -12.7972  -17.8510 N   0  0  0  0  0  0  0  0  0  0  0  0
   21.9824  -10.6800  -16.9855 C   0  0  0  0  0  0  0  0  0  0  0  0
   21.4381  -10.7536  -15.8583 O   0  0  0  0  0  0  0  0  0  0  0  0
   25.7636  -10.6456  -14.6312 C   0  0  0  0  0  0  0  0  0  0  0  0
   25.9008  -10.2478  -16.1174 C   0  0  2  0  0  0  0  0  0  0  0  0
   27.3757  -10.0939  -16.3806 C   0  0  0  0  0  0  0  0  0  0  0  0
   25.1260   -8.9988  -16.2788 C   0  0  0  0  0  0  0  0  0  0  0  0
   23.6574   -9.0572  -16.0360 C   0  0  2  0  0  0  0  0  0  0  0  0
   23.1321   -9.8962  -17.1415 N   0  0  0  0  0  0  0  0  0  0  0  0
   22.9563   -7.7701  -16.1216 C   0  0  0  0  0  0  0  0  0  0  0  0
   22.9429   -7.1385  -17.2023 O   0  0  0  0  0  0  0  0  0  0  0  0
   19.4556   -6.7932  -14.5833 O   0  0  0  0  0  0  0  0  0  0  0  0
   20.3891   -5.8274  -14.2437 C   0  0  0  0  0  0  0  0  0  0  0  0
   21.6105   -5.8863  -15.1381 C   0  0  2  0  0  0  0  0  0  0  0  0
   22.2729   -7.1805  -15.0313 N   0  0  0  0  0  0  0  0  0  0  0  0
   22.5184   -4.7850  -14.7237 C   0  0  0  0  0  0  0  0  0  0  0  0
   23.6256   -5.0305  -14.2252 O   0  0  0  0  0  0  0  0  0  0  0  0
   22.1670   -3.4364  -14.8764 O   0  0  0  0  0  0  0  0  0  0  0  0
  2  4  1  0
  2  1  1  6
  3  2  1  0
  4  6  1  0
  4  5  1  1
  6  7  2  0
  9  8  1  1
  9 10  1  0
  9 11  1  0
 12 11  1  6
 12 14  1  0
 13 12  1  0
 13  6  1  0
 14 19  1  0
 14 15  2  0
 16 17  1  0
 18 17  1  1
 18 20  1  0
 19 18  1  0
 20 21  2  0
 20 22  1  0
M  END
$$$$
