TLS.pdb
     RDKit          3D

 22 21  0  0  1  0  0  0  0  0999 V2000
   18.4938   -8.8975  -18.9942 C   0  0  0  0  0  0  0  0  0  0  0  0
   17.6483   -9.8897  -18.2264 C   0  0  1  0  0  0  0  0  0  0  0  0
   16.8070  -10.5204  -19.1399 O   0  0  0  0  0  0  0  0  0  0  0  0
   18.6097  -10.9065  -17.6183 C   0  0  2  0  0  0  0  0  0  0  0  0
   17.7953  -11.9776  -17.0795 N   0  0  0  0  0  0  0  0  0  0  0  0
   19.4293  -10.2818  -16.5380 C   0  0  0  0  0  0  0  0  0  0  0  0
   18.9151   -9.8504  -15.4787 O   0  0  0  0  0  0  0  0  0  0  0  0
   25.2856  -10.7673  -15.2969 C   0  0  0  0  0  0  0  0  0  0  0  0
   24.1026   -9.8312  -14.9653 C   0  0  2  0  0  0  0  0  0  0  0  0
   23.8820   -9.9369  -13.4792 C   0  0  0  0  0  0  0  0  0  0  0  0
   22.9640  -10.3082  -15.7793 C   0  0  0  0  0  0  0  0  0  0  0  0
   21.6867   -9.5459  -15.6994 C   0  0  2  0  0  0  0  0  0  0  0  0
   20.8137  -10.1775  -16.7196 N   0  0  0  0  0  0  0  0  0  0  0  0
   21.7816   -8.1248  -16.0558 C   0  0  0  0  0  0  0  0  0  0  0  0
   22.1693   -7.7936  -17.1990 O   0  0  0  0  0  0  0  0  0  0  0  0
   19.3187   -5.4029  -16.2075 O   0  0  0  0  0  0  0  0  0  0  0  0
   20.3038   -4.9193  -15.3618 C   0  0  0  0  0  0  0  0  0  0  0  0
   21.6084   -5.6712  -15.5297 C   0  0  2  0  0  0  0  0  0  0  0  0
   21.4519   -7.0742  -15.1663 N   0  0  0  0  0  0  0  0  0  0  0  0
   22.6193   -5.0050  -14.6677 C   0  0  0  0  0  0  0  0  0  0  0  0
   23.0732   -5.5761  -13.6665 O   0  0  0  0  0  0  0  0  0  0  0  0
   23.0983   -3.7170  -14.9453 O   0  0  0  0  0  0  0  0  0  0  0  0
  2  4  1  0
  2  1  1  6
  3  2  1  0
  4  6  1  0
  4  5  1  1
  6  7  2  0
  9  8  1  6
  9 10  1  0
  9 11  1  0
 12 11  1  6
 12 14  1  0
 13 12  1  0
 13  6  1  0
 14 19  1  0
 14 15  2  0
 16 17  1  0
 18 17  1  1
 18 20  1  0
 19 18  1  0
 20 21  2  0
 20 22  1  0
M  END
$$$$
