TLS.pdb
     RDKit          3D

 22 21  0  0  1  0  0  0  0  0999 V2000
   30.1004  -19.4700  -14.2791 C   0  0  0  0  0  0  0  0  0  0  0  0
   28.8698  -20.1658  -13.7405 C   0  0  1  0  0  0  0  0  0  0  0  0
   28.5575  -21.2039  -14.6149 O   0  0  0  0  0  0  0  0  0  0  0  0
   29.2492  -20.7331  -12.3758 C   0  0  2  0  0  0  0  0  0  0  0  0
   30.1584  -21.8347  -12.6219 N   0  0  0  0  0  0  0  0  0  0  0  0
   28.0384  -21.2108  -11.6445 C   0  0  0  0  0  0  0  0  0  0  0  0
   27.6894  -22.4152  -11.6522 O   0  0  0  0  0  0  0  0  0  0  0  0
   26.3530  -21.3596   -7.3610 C   0  0  0  0  0  0  0  0  0  0  0  0
   26.7971  -20.0168   -7.9819 C   0  0  2  0  0  0  0  0  0  0  0  0
   26.7128  -18.9923   -6.8811 C   0  0  0  0  0  0  0  0  0  0  0  0
   25.8766  -19.7652   -9.1115 C   0  0  0  0  0  0  0  0  0  0  0  0
   25.9817  -20.6532  -10.3029 C   0  0  2  0  0  0  0  0  0  0  0  0
   27.2738  -20.2804  -10.9302 N   0  0  0  0  0  0  0  0  0  0  0  0
   24.9491  -20.4525  -11.3271 C   0  0  0  0  0  0  0  0  0  0  0  0
   24.9177  -19.3846  -11.9794 O   0  0  0  0  0  0  0  0  0  0  0  0
   21.4632  -22.2926  -14.1889 O   0  0  0  0  0  0  0  0  0  0  0  0
   22.4425  -22.4928  -13.2295 C   0  0  0  0  0  0  0  0  0  0  0  0
   22.9388  -21.1837  -12.6503 C   0  0  2  0  0  0  0  0  0  0  0  0
   23.9595  -21.4162  -11.6358 N   0  0  0  0  0  0  0  0  0  0  0  0
   21.7638  -20.4784  -12.0751 C   0  0  0  0  0  0  0  0  0  0  0  0
   21.6136  -20.3944  -10.8483 O   0  0  0  0  0  0  0  0  0  0  0  0
   20.7855  -19.8843  -12.8846 O   0  0  0  0  0  0  0  0  0  0  0  0
  2  4  1  0
  2  1  1  6
  3  2  1  0
  4  6  1  0
  4  5  1  6
  6  7  2  0
  9  8  1  1
  9 10  1  0
  9 11  1  0
 12 11  1  1
 12 14  1  0
 13 12  1  0
 13  6  1  0
 14 19  1  0
 14 15  2  0
 16 17  1  0
 18 17  1  1
 18 20  1  0
 19 18  1  0
 20 21  2  0
 20 22  1  0
M  END
$$$$
