TLS.pdb
     RDKit          3D

 22 21  0  0  1  0  0  0  0  0999 V2000
   18.5841   -8.2714  -13.3404 C   0  0  0  0  0  0  0  0  0  0  0  0
   17.8920   -9.5926  -13.5935 C   0  0  1  0  0  0  0  0  0  0  0  0
   18.8489  -10.4828  -14.0750 O   0  0  0  0  0  0  0  0  0  0  0  0
   17.3645  -10.0763  -12.2460 C   0  0  2  0  0  0  0  0  0  0  0  0
   16.8929  -11.4320  -12.4468 N   0  0  0  0  0  0  0  0  0  0  0  0
   16.2516   -9.2035  -11.7675 C   0  0  0  0  0  0  0  0  0  0  0  0
   15.1737   -9.0948  -12.3989 O   0  0  0  0  0  0  0  0  0  0  0  0
   12.8218   -6.9749   -8.6865 C   0  0  0  0  0  0  0  0  0  0  0  0
   13.4919   -8.3644   -8.6069 C   0  0  2  0  0  0  0  0  0  0  0  0
   13.1259   -8.9351   -7.2620 C   0  0  0  0  0  0  0  0  0  0  0  0
   14.9405   -8.1299   -8.7882 C   0  0  0  0  0  0  0  0  0  0  0  0
   15.3917   -7.5431  -10.0810 C   0  0  2  0  0  0  0  0  0  0  0  0
   16.4235   -8.4875  -10.5766 N   0  0  0  0  0  0  0  0  0  0  0  0
   16.0430   -6.2311   -9.9804 C   0  0  0  0  0  0  0  0  0  0  0  0
   17.0527   -6.0907   -9.2540 O   0  0  0  0  0  0  0  0  0  0  0  0
   17.1835   -2.0100  -11.9162 O   0  0  0  0  0  0  0  0  0  0  0  0
   16.4790   -3.2018  -11.9685 C   0  0  0  0  0  0  0  0  0  0  0  0
   16.2879   -3.8034  -10.5911 C   0  0  2  0  0  0  0  0  0  0  0  0
   15.5922   -5.0818  -10.6726 N   0  0  0  0  0  0  0  0  0  0  0  0
   15.5157   -2.8248   -9.7819 C   0  0  0  0  0  0  0  0  0  0  0  0
   14.2806   -2.8928   -9.7150 O   0  0  0  0  0  0  0  0  0  0  0  0
   16.1423   -1.7941   -9.0674 O   0  0  0  0  0  0  0  0  0  0  0  0
  2  4  1  0
  2  1  1  1
  3  2  1  0
  4  6  1  0
  4  5  1  6
  6  7  2  0
  9  8  1  1
  9 10  1  0
  9 11  1  0
 12 11  1  1
 12 14  1  0
 13 12  1  0
 13  6  1  0
 14 19  1  0
 14 15  2  0
 16 17  1  0
 18 17  1  6
 18 20  1  0
 19 18  1  0
 20 21  2  0
 20 22  1  0
M  END
$$$$
