VMI.pdb
     RDKit          3D

 24 23  0  0  1  0  0  0  0  0999 V2000
    9.1259  -19.7532   19.8693 C   0  0  0  0  0  0  0  0  0  0  0  0
    9.5363  -18.7663   20.9328 C   0  0  2  0  0  0  0  0  0  0  0  0
    9.2382  -19.3780   22.2822 C   0  0  0  0  0  0  0  0  0  0  0  0
    8.9401  -17.3976   20.7743 C   0  0  2  0  0  0  0  0  0  0  0  0
    9.4098  -16.9090   19.4556 N   0  0  0  0  0  0  0  0  0  0  0  0
    9.2662  -16.4329   21.8169 C   0  0  0  0  0  0  0  0  0  0  0  0
   10.3821  -15.8624   21.9471 O   0  0  0  0  0  0  0  0  0  0  0  0
    6.0622  -11.0289   25.4650 C   0  0  0  0  0  0  0  0  0  0  0  0
    5.8305  -12.8160   25.8022 S   0  0  0  0  0  0  0  0  0  0  0  0
    7.4376  -13.6156   25.4483 C   0  0  0  0  0  0  0  0  0  0  0  0
    7.2332  -14.5708   24.3006 C   0  0  0  0  0  0  0  0  0  0  0  0
    8.6148  -15.0920   23.8383 C   0  0  2  0  0  0  0  0  0  0  0  0
    8.2916  -16.0629   22.7909 N   0  0  0  0  0  0  0  0  0  0  0  0
    9.2529  -15.6537   25.0163 C   0  0  0  0  0  0  0  0  0  0  0  0
    8.6363  -16.6197   25.5832 O   0  0  0  0  0  0  0  0  0  0  0  0
    9.4644  -13.3709   29.1803 C   0  0  0  0  0  0  0  0  0  0  0  0
   10.2072  -13.9037   27.9738 C   0  0  0  0  0  0  0  0  0  0  0  0
   10.1999  -15.4183   28.0398 C   0  0  2  0  0  0  0  0  0  0  0  0
   10.8859  -15.8768   29.2843 C   0  0  0  0  0  0  0  0  0  0  0  0
   10.9567  -15.9213   26.8248 C   0  0  2  0  0  0  0  0  0  0  0  0
   10.4699  -15.2671   25.6132 N   0  0  0  0  0  0  0  0  0  0  0  0
   10.8453  -17.3699   26.6420 C   0  0  0  0  0  0  0  0  0  0  0  0
    9.5856  -17.9191   26.4007 O   0  0  0  0  0  0  0  0  0  0  0  0
   11.8453  -18.0953   26.6995 O   0  0  0  0  0  0  0  0  0  0  0  0
  2  1  1  6
  3  2  1  0
  4  2  1  0
  4  5  1  6
  6  4  1  0
  6  7  2  0
  9  8  1  0
  9 10  1  0
 10 11  1  0
 12 11  1  1
 12 14  1  0
 13 12  1  0
 13  6  1  0
 14 15  2  0
 17 18  1  0
 17 16  1  0
 18 20  1  0
 18 19  1  1
 20 22  1  0
 21 14  1  0
 20 21  1  6
 22 24  2  0
 22 23  1  0
M  END
$$$$
