VMI.pdb
     RDKit          3D

 24 23  0  0  1  0  0  0  0  0999 V2000
   10.2792  -18.7918   19.5128 C   0  0  0  0  0  0  0  0  0  0  0  0
   10.3684  -18.0857   20.8420 C   0  0  2  0  0  0  0  0  0  0  0  0
    9.6503  -18.9279   21.8711 C   0  0  0  0  0  0  0  0  0  0  0  0
    9.8895  -16.6628   20.8236 C   0  0  2  0  0  0  0  0  0  0  0  0
   10.7542  -15.9643   19.8424 N   0  0  0  0  0  0  0  0  0  0  0  0
    9.9089  -15.9645   22.1027 C   0  0  0  0  0  0  0  0  0  0  0  0
   10.9517  -15.5985   22.7078 O   0  0  0  0  0  0  0  0  0  0  0  0
    5.6450  -11.3463   25.8135 C   0  0  0  0  0  0  0  0  0  0  0  0
    5.4384  -13.1674   25.7677 S   0  0  0  0  0  0  0  0  0  0  0  0
    7.1223  -13.8696   25.6306 C   0  0  0  0  0  0  0  0  0  0  0  0
    7.2439  -14.5109   24.2722 C   0  0  0  0  0  0  0  0  0  0  0  0
    8.7061  -14.9767   24.0738 C   0  0  2  0  0  0  0  0  0  0  0  0
    8.6897  -15.6398   22.7685 N   0  0  0  0  0  0  0  0  0  0  0  0
    9.0123  -15.8458   25.1970 C   0  0  0  0  0  0  0  0  0  0  0  0
    8.9115  -17.1018   24.9800 O   0  0  0  0  0  0  0  0  0  0  0  0
   10.8321  -13.4099   29.5857 C   0  0  0  0  0  0  0  0  0  0  0  0
   11.0686  -14.2246   28.3320 C   0  0  0  0  0  0  0  0  0  0  0  0
   10.6411  -15.6534   28.6041 C   0  0  2  0  0  0  0  0  0  0  0  0
   11.7447  -16.3941   29.2845 C   0  0  0  0  0  0  0  0  0  0  0  0
   10.3483  -16.2949   27.2606 C   0  0  2  0  0  0  0  0  0  0  0  0
    9.4084  -15.4771   26.4984 N   0  0  0  0  0  0  0  0  0  0  0  0
    9.7917  -17.6439   27.3811 C   0  0  0  0  0  0  0  0  0  0  0  0
    8.4317  -17.7845   27.6589 O   0  0  0  0  0  0  0  0  0  0  0  0
   10.5095  -18.6411   27.2399 O   0  0  0  0  0  0  0  0  0  0  0  0
  2  1  1  6
  3  2  1  0
  4  2  1  0
  4  5  1  6
  6  4  1  0
  6  7  2  0
  9  8  1  0
  9 10  1  0
 10 11  1  0
 12 11  1  1
 12 14  1  0
 13 12  1  0
 13  6  1  0
 14 15  2  0
 17 18  1  0
 17 16  1  0
 18 20  1  0
 18 19  1  6
 20 22  1  0
 21 14  1  0
 20 21  1  1
 22 24  2  0
 22 23  1  0
M  END
$$$$
