VMI.pdb
     RDKit          3D

 24 23  0  0  1  0  0  0  0  0999 V2000
    7.4924  -14.3337   18.4000 C   0  0  0  0  0  0  0  0  0  0  0  0
    7.6997  -13.8479   19.8123 C   0  0  2  0  0  0  0  0  0  0  0  0
    8.2943  -12.4599   19.7495 C   0  0  0  0  0  0  0  0  0  0  0  0
    8.4962  -14.7792   20.6796 C   0  0  2  0  0  0  0  0  0  0  0  0
    7.7400  -16.0544   20.6941 N   0  0  0  0  0  0  0  0  0  0  0  0
    8.7501  -14.3257   22.0412 C   0  0  0  0  0  0  0  0  0  0  0  0
    9.5553  -13.4095   22.3570 O   0  0  0  0  0  0  0  0  0  0  0  0
    6.6309  -11.6357   27.3268 C   0  0  0  0  0  0  0  0  0  0  0  0
    5.4091  -12.4870   26.2574 S   0  0  0  0  0  0  0  0  0  0  0  0
    6.3389  -13.0983   24.8051 C   0  0  0  0  0  0  0  0  0  0  0  0
    6.9666  -14.4156   25.1821 C   0  0  0  0  0  0  0  0  0  0  0  0
    8.3599  -14.5088   24.5155 C   0  0  2  0  0  0  0  0  0  0  0  0
    8.0653  -14.9214   23.1418 N   0  0  0  0  0  0  0  0  0  0  0  0
    9.1197  -15.4722   25.2933 C   0  0  0  0  0  0  0  0  0  0  0  0
    9.5336  -16.5038   24.6616 O   0  0  0  0  0  0  0  0  0  0  0  0
   10.4201  -13.9311   30.1197 C   0  0  0  0  0  0  0  0  0  0  0  0
   10.8871  -14.3600   28.7451 C   0  0  0  0  0  0  0  0  0  0  0  0
   10.7922  -15.8706   28.6591 C   0  0  2  0  0  0  0  0  0  0  0  0
   12.0730  -16.4879   29.1155 C   0  0  0  0  0  0  0  0  0  0  0  0
   10.5476  -16.2200   27.2030 C   0  0  2  0  0  0  0  0  0  0  0  0
    9.4594  -15.4114   26.6599 N   0  0  0  0  0  0  0  0  0  0  0  0
   10.2159  -17.6321   27.0025 C   0  0  0  0  0  0  0  0  0  0  0  0
    8.8968  -18.0437   27.1953 O   0  0  0  0  0  0  0  0  0  0  0  0
   11.0848  -18.4465   26.6688 O   0  0  0  0  0  0  0  0  0  0  0  0
  2  1  1  6
  3  2  1  0
  4  2  1  0
  4  5  1  1
  6  4  1  0
  6  7  2  0
  9  8  1  0
  9 10  1  0
 10 11  1  0
 12 11  1  1
 12 14  1  0
 13 12  1  0
 13  6  1  0
 14 15  2  0
 17 18  1  0
 17 16  1  0
 18 20  1  0
 18 19  1  6
 20 22  1  0
 21 14  1  0
 20 21  1  1
 22 24  2  0
 22 23  1  0
M  END
$$$$
