VMI.pdb
     RDKit          3D

 24 23  0  0  1  0  0  0  0  0999 V2000
    8.0309  -19.6375   25.3622 C   0  0  0  0  0  0  0  0  0  0  0  0
    6.6886  -19.3723   24.7287 C   0  0  2  0  0  0  0  0  0  0  0  0
    5.7557  -20.4967   25.1155 C   0  0  0  0  0  0  0  0  0  0  0  0
    6.7352  -19.1445   23.2454 C   0  0  2  0  0  0  0  0  0  0  0  0
    7.1207  -20.4484   22.6542 N   0  0  0  0  0  0  0  0  0  0  0  0
    7.6364  -18.0947   22.7873 C   0  0  0  0  0  0  0  0  0  0  0  0
    8.8689  -18.2459   22.5736 O   0  0  0  0  0  0  0  0  0  0  0  0
    7.6255  -12.1419   20.0177 C   0  0  0  0  0  0  0  0  0  0  0  0
    7.6177  -13.8020   19.2396 S   0  0  0  0  0  0  0  0  0  0  0  0
    6.7701  -14.9152   20.4185 C   0  0  0  0  0  0  0  0  0  0  0  0
    7.1954  -14.5217   21.8097 C   0  0  0  0  0  0  0  0  0  0  0  0
    8.0733  -15.6524   22.3973 C   0  0  2  0  0  0  0  0  0  0  0  0
    7.1472  -16.7773   22.5415 N   0  0  0  0  0  0  0  0  0  0  0  0
    8.6132  -15.1415   23.6455 C   0  0  0  0  0  0  0  0  0  0  0  0
    9.6056  -14.3418   23.5434 O   0  0  0  0  0  0  0  0  0  0  0  0
    6.0709  -12.2332   26.5281 C   0  0  0  0  0  0  0  0  0  0  0  0
    7.1722  -13.0094   25.8382 C   0  0  0  0  0  0  0  0  0  0  0  0
    7.8265  -13.9188   26.8596 C   0  0  2  0  0  0  0  0  0  0  0  0
    8.5464  -13.1018   27.8813 C   0  0  0  0  0  0  0  0  0  0  0  0
    8.8184  -14.7895   26.1110 C   0  0  2  0  0  0  0  0  0  0  0  0
    8.1784  -15.4165   24.9577 N   0  0  0  0  0  0  0  0  0  0  0  0
    9.3965  -15.8442   26.9463 C   0  0  0  0  0  0  0  0  0  0  0  0
   10.4398  -15.5156   27.8124 O   0  0  0  0  0  0  0  0  0  0  0  0
    8.9710  -17.0040   26.8882 O   0  0  0  0  0  0  0  0  0  0  0  0
  2  1  1  6
  3  2  1  0
  4  2  1  0
  4  5  1  6
  6  4  1  0
  6  7  2  0
  9  8  1  0
  9 10  1  0
 10 11  1  0
 12 11  1  1
 12 14  1  0
 13 12  1  0
 13  6  1  0
 14 15  2  0
 17 18  1  0
 17 16  1  0
 18 20  1  0
 18 19  1  1
 20 22  1  0
 21 14  1  0
 20 21  1  6
 22 24  2  0
 22 23  1  0
M  END
$$$$
