VMI.pdb
     RDKit          3D

 24 23  0  0  1  0  0  0  0  0999 V2000
   10.4529  -18.3651   21.2811 C   0  0  0  0  0  0  0  0  0  0  0  0
    9.2039  -17.7463   20.7063 C   0  0  2  0  0  0  0  0  0  0  0  0
    8.9697  -18.3442   19.3381 C   0  0  0  0  0  0  0  0  0  0  0  0
    9.2053  -16.2450   20.6884 C   0  0  2  0  0  0  0  0  0  0  0  0
   10.3102  -15.8587   19.7783 N   0  0  0  0  0  0  0  0  0  0  0  0
    9.3616  -15.5898   21.9808 C   0  0  0  0  0  0  0  0  0  0  0  0
   10.4641  -15.2510   22.4881 O   0  0  0  0  0  0  0  0  0  0  0  0
    5.5279  -11.0931   26.0234 C   0  0  0  0  0  0  0  0  0  0  0  0
    5.3366  -12.9080   26.1993 S   0  0  0  0  0  0  0  0  0  0  0  0
    6.9843  -13.6304   25.8665 C   0  0  0  0  0  0  0  0  0  0  0  0
    6.9457  -14.2508   24.4936 C   0  0  0  0  0  0  0  0  0  0  0  0
    8.3769  -14.6992   24.1127 C   0  0  2  0  0  0  0  0  0  0  0  0
    8.2197  -15.2793   22.7775 N   0  0  0  0  0  0  0  0  0  0  0  0
    8.7969  -15.6361   25.1405 C   0  0  0  0  0  0  0  0  0  0  0  0
    8.7122  -16.8759   24.8398 O   0  0  0  0  0  0  0  0  0  0  0  0
   11.3340  -13.6288   29.5872 C   0  0  0  0  0  0  0  0  0  0  0  0
   11.1564  -14.2837   28.2340 C   0  0  0  0  0  0  0  0  0  0  0  0
   10.6264  -15.6876   28.4495 C   0  0  2  0  0  0  0  0  0  0  0  0
   11.6878  -16.5447   29.0565 C   0  0  0  0  0  0  0  0  0  0  0  0
   10.2459  -16.2348   27.0865 C   0  0  2  0  0  0  0  0  0  0  0  0
    9.2883  -15.3489   26.4299 N   0  0  0  0  0  0  0  0  0  0  0  0
    9.6617  -17.5759   27.1524 C   0  0  0  0  0  0  0  0  0  0  0  0
    8.3090  -17.7019   27.4699 O   0  0  0  0  0  0  0  0  0  0  0  0
   10.3503  -18.5792   26.9314 O   0  0  0  0  0  0  0  0  0  0  0  0
  2  1  1  6
  3  2  1  0
  4  2  1  0
  4  5  1  6
  6  4  1  0
  6  7  2  0
  9  8  1  0
  9 10  1  0
 10 11  1  0
 12 11  1  1
 12 14  1  0
 13 12  1  0
 13  6  1  0
 14 15  2  0
 17 18  1  0
 17 16  1  0
 18 20  1  0
 18 19  1  6
 20 22  1  0
 21 14  1  0
 20 21  1  1
 22 24  2  0
 22 23  1  0
M  END
$$$$
