VMI.pdb
     RDKit          3D

 24 23  0  0  1  0  0  0  0  0999 V2000
  -12.9139  -38.7337  -12.8406 C   0  0  0  0  0  0  0  0  0  0  0  0
  -12.6873  -40.0825  -12.2062 C   0  0  2  0  0  0  0  0  0  0  0  0
  -11.2833  -40.5301  -12.5419 C   0  0  0  0  0  0  0  0  0  0  0  0
  -13.7212  -41.1144  -12.5529 C   0  0  2  0  0  0  0  0  0  0  0  0
  -14.7678  -40.9957  -11.5093 N   0  0  0  0  0  0  0  0  0  0  0  0
  -13.2480  -42.4901  -12.6409 C   0  0  0  0  0  0  0  0  0  0  0  0
  -12.6715  -43.1145  -11.7107 O   0  0  0  0  0  0  0  0  0  0  0  0
   -8.4900  -43.6150  -14.6911 C   0  0  0  0  0  0  0  0  0  0  0  0
   -9.4887  -43.2986  -13.1865 S   0  0  0  0  0  0  0  0  0  0  0  0
  -11.0714  -44.1841  -13.4278 C   0  0  0  0  0  0  0  0  0  0  0  0
  -11.4531  -44.0563  -14.8801 C   0  0  0  0  0  0  0  0  0  0  0  0
  -12.5709  -42.9937  -15.0064 C   0  0  2  0  0  0  0  0  0  0  0  0
  -13.4233  -43.2402  -13.8417 N   0  0  0  0  0  0  0  0  0  0  0  0
  -13.2092  -43.2252  -16.2907 C   0  0  0  0  0  0  0  0  0  0  0  0
  -14.1128  -44.1294  -16.3148 O   0  0  0  0  0  0  0  0  0  0  0  0
  -13.6279  -38.6575  -17.6295 C   0  0  0  0  0  0  0  0  0  0  0  0
  -13.1649  -40.0929  -17.7590 C   0  0  0  0  0  0  0  0  0  0  0  0
  -14.0416  -40.7860  -18.7834 C   0  0  2  0  0  0  0  0  0  0  0  0
  -15.4336  -40.2511  -18.7073 C   0  0  0  0  0  0  0  0  0  0  0  0
  -14.0435  -42.2643  -18.4415 C   0  0  2  0  0  0  0  0  0  0  0  0
  -12.9574  -42.5756  -17.5161 N   0  0  0  0  0  0  0  0  0  0  0  0
  -13.9046  -43.1230  -19.6194 C   0  0  0  0  0  0  0  0  0  0  0  0
  -13.9571  -42.5372  -20.8846 O   0  0  0  0  0  0  0  0  0  0  0  0
  -13.7438  -44.3434  -19.4993 O   0  0  0  0  0  0  0  0  0  0  0  0
  2  1  1  6
  3  2  1  0
  4  2  1  0
  4  5  1  1
  6  4  1  0
  6  7  2  0
  9  8  1  0
  9 10  1  0
 10 11  1  0
 12 11  1  1
 12 14  1  0
 13 12  1  0
 13  6  1  0
 14 15  2  0
 17 18  1  0
 17 16  1  0
 18 20  1  0
 18 19  1  1
 20 22  1  0
 21 14  1  0
 20 21  1  1
 22 24  2  0
 22 23  1  0
M  END
$$$$
