TRW.pdb
     RDKit          3D

 33 34  0  0  1  0  0  0  0  0999 V2000
   26.0186  -14.5289  -16.1673 C   0  0  0  0  0  0  0  0  0  0  0  0
   25.8330  -15.9276  -15.6483 C   0  0  1  0  0  0  0  0  0  0  0  0
   24.5021  -16.2737  -15.6660 O   0  0  0  0  0  0  0  0  0  0  0  0
   26.6810  -16.9458  -16.3781 C   0  0  2  0  0  0  0  0  0  0  0  0
   26.2157  -17.0610  -17.7459 N   0  0  0  0  0  0  0  0  0  0  0  0
   26.5130  -18.2506  -15.6797 C   0  0  0  0  0  0  0  0  0  0  0  0
   25.6449  -19.0984  -16.0815 O   0  0  0  0  0  0  0  0  0  0  0  0
   30.6026  -22.5256  -10.9164 N   0  0  0  0  0  0  0  0  0  0  0  0
   29.7869  -22.1545   -9.8239 C   0  0  0  0  0  0  0  0  0  0  0  0
   30.3262  -21.6770   -8.7502 N   0  0  0  0  0  0  0  0  0  0  0  0
   28.3877  -22.2937   -9.8811 N   0  0  0  0  0  0  0  0  0  0  0  0
   27.6733  -22.0164  -11.1201 C   0  0  0  0  0  0  0  0  0  0  0  0
   27.4432  -20.5448  -11.3065 C   0  0  0  0  0  0  0  0  0  0  0  0
   27.9249  -20.0188  -12.6032 C   0  0  0  0  0  0  0  0  0  0  0  0
   26.9006  -19.7108  -13.6428 C   0  0  2  0  0  0  0  0  0  0  0  0
   27.2923  -18.6305  -14.5422 N   0  0  0  0  0  0  0  0  0  0  0  0
   25.5119  -19.5842  -13.1724 C   0  0  0  0  0  0  0  0  0  0  0  0
   25.1623  -18.6427  -12.3816 O   0  0  0  0  0  0  0  0  0  0  0  0
   29.7594  -21.3784   -7.9411 N   0  0  0  0  0  0  0  0  0  0  0  0
   24.4825  -20.4768  -13.5565 C   0  0  1  0  0  0  0  0  0  0  0  0
   23.1003  -20.2864  -13.0528 C   0  0  0  0  0  0  0  0  0  0  0  0
   22.7433  -18.8992  -13.4761 C   0  0  0  0  0  0  0  0  0  0  0  0
   21.3791  -18.4476  -13.1687 C   0  0  0  0  0  0  0  0  0  0  0  0
   20.6634  -18.6860  -11.9824 N   0  0  0  0  0  0  0  0  0  0  0  0
   19.4391  -18.1468  -12.0708 C   0  0  0  0  0  0  0  0  0  0  0  0
   19.2928  -17.5488  -13.2715 C   0  0  0  0  0  0  0  0  0  0  0  0
   18.2243  -16.8572  -13.8029 C   0  0  0  0  0  0  0  0  0  0  0  0
   18.3846  -16.3376  -15.0655 C   0  0  0  0  0  0  0  0  0  0  0  0
   19.5510  -16.4935  -15.7763 C   0  0  0  0  0  0  0  0  0  0  0  0
   20.5898  -17.1859  -15.2182 C   0  0  0  0  0  0  0  0  0  0  0  0
   20.4965  -17.7339  -13.9556 C   0  0  0  0  0  0  0  0  0  0  0  0
   22.2840  -21.3455  -13.6245 O   0  0  0  0  0  0  0  0  0  0  0  0
   22.6819  -22.0025  -14.6078 O   0  0  0  0  0  0  0  0  0  0  0  0
  2  3  1  0
  2  1  1  6
  4  2  1  0
  4  5  1  6
  6  7  2  0
  6  4  1  0
  8  9  1  0
  9 11  1  0
 10  9  2  0
 11 12  1  0
 13 12  1  0
 13 14  1  0
 15 14  1  1
 15 16  1  0
 16  6  1  0
 17 15  1  0
 18 17  2  0
 19 17  1  0
 20 31  1  0
 20 19  1  0
 20 21  1  1
 21 22  1  0
 22 30  1  0
 22 23  2  0
 23 24  1  0
 25 24  1  0
 25 26  2  0
 27 26  1  0
 28 27  2  0
 29 30  2  0
 29 28  1  0
 30 25  1  0
 31 33  1  0
 32 31  2  0
M  END
$$$$
