TRW.pdb
     RDKit          3D

 33 34  0  0  1  0  0  0  0  0999 V2000
   17.8022  -10.6362  -10.9831 C   0  0  0  0  0  0  0  0  0  0  0  0
   16.4542  -10.8434  -11.6156 C   0  0  1  0  0  0  0  0  0  0  0  0
   16.2289  -12.1818  -11.8383 O   0  0  0  0  0  0  0  0  0  0  0  0
   15.3279  -10.2150  -10.8252 C   0  0  2  0  0  0  0  0  0  0  0  0
   14.0663  -10.5143  -11.4729 N   0  0  0  0  0  0  0  0  0  0  0  0
   15.5522   -8.7425  -10.8204 C   0  0  0  0  0  0  0  0  0  0  0  0
   15.3452   -8.0478  -11.8732 O   0  0  0  0  0  0  0  0  0  0  0  0
   13.5290   -2.4880   -6.3450 N   0  0  0  0  0  0  0  0  0  0  0  0
   12.4797   -3.4007   -6.5951 C   0  0  0  0  0  0  0  0  0  0  0  0
   11.2542   -2.9889   -6.5956 N   0  0  0  0  0  0  0  0  0  0  0  0
   12.7431   -4.7598   -6.8474 N   0  0  0  0  0  0  0  0  0  0  0  0
   14.1101   -5.2617   -6.8067 C   0  0  0  0  0  0  0  0  0  0  0  0
   14.4609   -6.0088   -8.0605 C   0  0  0  0  0  0  0  0  0  0  0  0
   15.8785   -5.8767   -8.4643 C   0  0  0  0  0  0  0  0  0  0  0  0
   16.3132   -6.6021   -9.6930 C   0  0  2  0  0  0  0  0  0  0  0  0
   16.0029   -8.0278   -9.6665 N   0  0  0  0  0  0  0  0  0  0  0  0
   17.6798   -6.3260  -10.1640 C   0  0  0  0  0  0  0  0  0  0  0  0
   18.7014   -6.7141   -9.5008 O   0  0  0  0  0  0  0  0  0  0  0  0
   10.4609   -3.6361   -6.7260 N   0  0  0  0  0  0  0  0  0  0  0  0
   17.9564   -5.6269  -11.3634 C   0  0  1  0  0  0  0  0  0  0  0  0
   19.3567   -5.4470  -11.8190 C   0  0  0  0  0  0  0  0  0  0  0  0
   19.7888   -6.8172  -12.2272 C   0  0  0  0  0  0  0  0  0  0  0  0
   21.0716   -6.9190  -12.9367 C   0  0  0  0  0  0  0  0  0  0  0  0
   21.7440   -5.8828  -13.6081 N   0  0  0  0  0  0  0  0  0  0  0  0
   22.8709   -6.3526  -14.1620 C   0  0  0  0  0  0  0  0  0  0  0  0
   22.9935   -7.6692  -13.8932 C   0  0  0  0  0  0  0  0  0  0  0  0
   23.9845   -8.5646  -14.2372 C   0  0  0  0  0  0  0  0  0  0  0  0
   23.8374   -9.8573  -13.7933 C   0  0  0  0  0  0  0  0  0  0  0  0
   22.7566  -10.2521  -13.0408 C   0  0  0  0  0  0  0  0  0  0  0  0
   21.7925   -9.3373  -12.7191 C   0  0  0  0  0  0  0  0  0  0  0  0
   21.8771   -8.0237  -13.1320 C   0  0  0  0  0  0  0  0  0  0  0  0
   19.3398   -4.4531  -12.8805 O   0  0  0  0  0  0  0  0  0  0  0  0
   18.3343   -4.3043  -13.6042 O   0  0  0  0  0  0  0  0  0  0  0  0
  2  3  1  0
  2  1  1  1
  4  2  1  0
  4  5  1  6
  6  7  2  0
  6  4  1  0
  8  9  1  0
  9 11  1  0
 10  9  2  0
 11 12  1  0
 13 12  1  0
 13 14  1  0
 15 14  1  1
 15 16  1  0
 16  6  1  0
 17 15  1  0
 18 17  2  0
 19 17  1  0
 20 31  1  0
 20 19  1  0
 20 21  1  1
 21 22  1  0
 22 30  1  0
 22 23  2  0
 23 24  1  0
 25 24  1  0
 25 26  2  0
 27 26  1  0
 28 27  2  0
 29 30  2  0
 29 28  1  0
 30 25  1  0
 31 33  1  0
 32 31  2  0
M  END
$$$$
