TRW.pdb
     RDKit          3D

 33 34  0  0  1  0  0  0  0  0999 V2000
   25.3469  -16.4669  -15.2118 C   0  0  0  0  0  0  0  0  0  0  0  0
   25.7822  -17.6859  -14.4471 C   0  0  1  0  0  0  0  0  0  0  0  0
   24.7278  -18.2077  -13.7346 O   0  0  0  0  0  0  0  0  0  0  0  0
   26.4315  -18.7331  -15.3246 C   0  0  2  0  0  0  0  0  0  0  0  0
   25.4623  -19.2145  -16.2888 N   0  0  0  0  0  0  0  0  0  0  0  0
   26.8596  -19.8536  -14.4416 C   0  0  0  0  0  0  0  0  0  0  0  0
   26.1342  -20.8985  -14.3157 O   0  0  0  0  0  0  0  0  0  0  0  0
   34.3364  -23.6414  -11.3983 N   0  0  0  0  0  0  0  0  0  0  0  0
   33.5485  -23.6738  -12.5708 C   0  0  0  0  0  0  0  0  0  0  0  0
   33.9217  -24.3934  -13.5781 N   0  0  0  0  0  0  0  0  0  0  0  0
   32.3551  -22.9340  -12.6654 N   0  0  0  0  0  0  0  0  0  0  0  0
   31.8520  -22.2030  -11.5101 C   0  0  0  0  0  0  0  0  0  0  0  0
   30.3610  -22.0391  -11.5676 C   0  0  0  0  0  0  0  0  0  0  0  0
   29.8961  -21.1185  -12.6290 C   0  0  0  0  0  0  0  0  0  0  0  0
   28.4290  -20.8685  -12.7274 C   0  0  2  0  0  0  0  0  0  0  0  0
   28.0795  -19.8339  -13.6953 N   0  0  0  0  0  0  0  0  0  0  0  0
   27.7054  -20.7242  -11.4541 C   0  0  0  0  0  0  0  0  0  0  0  0
   27.6110  -19.5915  -10.8692 O   0  0  0  0  0  0  0  0  0  0  0  0
   33.3586  -24.4588  -14.4405 N   0  0  0  0  0  0  0  0  0  0  0  0
   27.0715  -21.8075  -10.7994 C   0  0  1  0  0  0  0  0  0  0  0  0
   26.3675  -21.5950   -9.5111 C   0  0  0  0  0  0  0  0  0  0  0  0
   27.2354  -20.6289   -8.7735 C   0  0  0  0  0  0  0  0  0  0  0  0
   26.8748  -20.3542   -7.3757 C   0  0  0  0  0  0  0  0  0  0  0  0
   25.6392  -20.6197   -6.7599 N   0  0  0  0  0  0  0  0  0  0  0  0
   25.6665  -20.2086   -5.4841 C   0  0  0  0  0  0  0  0  0  0  0  0
   26.8737  -19.6738   -5.2058 C   0  0  0  0  0  0  0  0  0  0  0  0
   27.3674  -19.1391   -4.0342 C   0  0  0  0  0  0  0  0  0  0  0  0
   28.6642  -18.6834   -4.0555 C   0  0  0  0  0  0  0  0  0  0  0  0
   29.4433  -18.7515   -5.1862 C   0  0  0  0  0  0  0  0  0  0  0  0
   28.9205  -19.2875   -6.3304 C   0  0  0  0  0  0  0  0  0  0  0  0
   27.6265  -19.7631   -6.3791 C   0  0  0  0  0  0  0  0  0  0  0  0
   25.0288  -21.1215   -9.8250 O   0  0  0  0  0  0  0  0  0  0  0  0
   24.8274  -20.3633  -10.7953 O   0  0  0  0  0  0  0  0  0  0  0  0
  2  3  1  0
  2  1  1  6
  4  2  1  0
  4  5  1  6
  6  7  2  0
  6  4  1  0
  8  9  1  0
  9 11  1  0
 10  9  2  0
 11 12  1  0
 13 12  1  0
 13 14  1  0
 15 14  1  1
 15 16  1  0
 16  6  1  0
 17 15  1  0
 18 17  2  0
 19 17  1  0
 20 31  1  0
 20 19  1  0
 20 21  1  1
 21 22  1  0
 22 30  1  0
 22 23  2  0
 23 24  1  0
 25 24  1  0
 25 26  2  0
 27 26  1  0
 28 27  2  0
 29 30  2  0
 29 28  1  0
 30 25  1  0
 31 33  1  0
 32 31  2  0
M  END
$$$$
