TRW.pdb
     RDKit          3D

 33 34  0  0  1  0  0  0  0  0999 V2000
   16.7492  -31.7390    1.7204 C   0  0  0  0  0  0  0  0  0  0  0  0
   16.5748  -30.2858    1.3767 C   0  0  1  0  0  0  0  0  0  0  0  0
   15.9502  -29.6205    2.4057 O   0  0  0  0  0  0  0  0  0  0  0  0
   17.8713  -29.6115    0.9858 C   0  0  2  0  0  0  0  0  0  0  0  0
   18.6309  -29.3091    2.1826 N   0  0  0  0  0  0  0  0  0  0  0  0
   17.5226  -28.3469    0.2802 C   0  0  0  0  0  0  0  0  0  0  0  0
   17.6442  -27.2179    0.8669 O   0  0  0  0  0  0  0  0  0  0  0  0
   16.7268  -24.7054   -7.9770 N   0  0  0  0  0  0  0  0  0  0  0  0
   17.8923  -24.8091   -7.1850 C   0  0  0  0  0  0  0  0  0  0  0  0
   18.9661  -24.1789   -7.5336 N   0  0  0  0  0  0  0  0  0  0  0  0
   17.9086  -25.5893   -6.0140 N   0  0  0  0  0  0  0  0  0  0  0  0
   16.6813  -26.2028   -5.5246 C   0  0  0  0  0  0  0  0  0  0  0  0
   16.5107  -25.9933   -4.0481 C   0  0  0  0  0  0  0  0  0  0  0  0
   17.0194  -27.1081   -3.2182 C   0  0  0  0  0  0  0  0  0  0  0  0
   16.7171  -27.0711   -1.7581 C   0  0  2  0  0  0  0  0  0  0  0  0
   17.0408  -28.3143   -1.0659 N   0  0  0  0  0  0  0  0  0  0  0  0
   15.4004  -26.5347   -1.3783 C   0  0  0  0  0  0  0  0  0  0  0  0
   14.3277  -27.1969   -1.5905 O   0  0  0  0  0  0  0  0  0  0  0  0
   19.8348  -24.2324   -6.9789 N   0  0  0  0  0  0  0  0  0  0  0  0
   15.2300  -25.2727   -0.7601 C   0  0  2  0  0  0  0  0  0  0  0  0
   13.8694  -24.7647   -0.4579 C   0  0  0  0  0  0  0  0  0  0  0  0
   13.8790  -24.5459    1.0195 C   0  0  0  0  0  0  0  0  0  0  0  0
   14.3059  -23.2195    1.4859 C   0  0  0  0  0  0  0  0  0  0  0  0
   14.1060  -21.9937    0.8272 N   0  0  0  0  0  0  0  0  0  0  0  0
   14.6564  -20.9982    1.5367 C   0  0  0  0  0  0  0  0  0  0  0  0
   15.2231  -21.4978    2.6546 C   0  0  0  0  0  0  0  0  0  0  0  0
   15.8865  -20.8618    3.6831 C   0  0  0  0  0  0  0  0  0  0  0  0
   16.3417  -21.6508    4.7127 C   0  0  0  0  0  0  0  0  0  0  0  0
   16.1512  -23.0123    4.7280 C   0  0  0  0  0  0  0  0  0  0  0  0
   15.4896  -23.6094    3.6909 C   0  0  0  0  0  0  0  0  0  0  0  0
   15.0067  -22.8776    2.6258 C   0  0  0  0  0  0  0  0  0  0  0  0
   13.6651  -23.5734   -1.2665 O   0  0  0  0  0  0  0  0  0  0  0  0
   14.6218  -23.0179   -1.8437 O   0  0  0  0  0  0  0  0  0  0  0  0
  2  3  1  0
  2  1  1  1
  4  2  1  0
  4  5  1  1
  6  7  2  0
  6  4  1  0
  8  9  1  0
  9 11  1  0
 10  9  2  0
 11 12  1  0
 13 12  1  0
 13 14  1  0
 15 14  1  6
 15 16  1  0
 16  6  1  0
 17 15  1  0
 18 17  2  0
 19 17  1  0
 20 31  1  0
 20 19  1  0
 20 21  1  1
 21 22  1  0
 22 30  1  0
 22 23  2  0
 23 24  1  0
 25 24  1  0
 25 26  2  0
 27 26  1  0
 28 27  2  0
 29 30  2  0
 29 28  1  0
 30 25  1  0
 31 33  1  0
 32 31  2  0
M  END
$$$$
