TRW.pdb
     RDKit          3D

 33 34  0  0  1  0  0  0  0  0999 V2000
   27.8138  -19.5080  -16.5350 C   0  0  0  0  0  0  0  0  0  0  0  0
   26.7522  -19.8635  -15.5315 C   0  0  1  0  0  0  0  0  0  0  0  0
   25.5005  -19.6701  -16.0677 O   0  0  0  0  0  0  0  0  0  0  0  0
   26.9083  -21.2621  -14.9767 C   0  0  2  0  0  0  0  0  0  0  0  0
   26.7983  -22.2193  -16.0594 N   0  0  0  0  0  0  0  0  0  0  0  0
   25.8057  -21.4812  -13.9996 C   0  0  0  0  0  0  0  0  0  0  0  0
   24.8140  -22.2323  -14.2929 O   0  0  0  0  0  0  0  0  0  0  0  0
   29.3484  -20.5501   -7.2435 N   0  0  0  0  0  0  0  0  0  0  0  0
   29.1807  -20.6030   -8.6456 C   0  0  0  0  0  0  0  0  0  0  0  0
   30.0936  -21.1449   -9.3835 N   0  0  0  0  0  0  0  0  0  0  0  0
   28.0303  -20.0752   -9.2605 N   0  0  0  0  0  0  0  0  0  0  0  0
   26.7107  -20.3553   -8.7104 C   0  0  0  0  0  0  0  0  0  0  0  0
   25.8984  -21.2141   -9.6354 C   0  0  0  0  0  0  0  0  0  0  0  0
   24.9034  -20.4654  -10.4352 C   0  0  0  0  0  0  0  0  0  0  0  0
   24.6265  -20.9522  -11.8176 C   0  0  2  0  0  0  0  0  0  0  0  0
   25.7850  -20.8803  -12.7019 N   0  0  0  0  0  0  0  0  0  0  0  0
   23.3957  -20.4521  -12.4506 C   0  0  0  0  0  0  0  0  0  0  0  0
   23.3572  -19.3040  -13.0114 O   0  0  0  0  0  0  0  0  0  0  0  0
   30.0661  -21.0905  -10.4138 N   0  0  0  0  0  0  0  0  0  0  0  0
   22.1899  -21.1929  -12.4861 C   0  0  1  0  0  0  0  0  0  0  0  0
   21.0500  -20.7281  -13.3138 C   0  0  0  0  0  0  0  0  0  0  0  0
   21.5999  -20.6792  -14.7015 C   0  0  0  0  0  0  0  0  0  0  0  0
   21.3774  -19.4371  -15.4546 C   0  0  0  0  0  0  0  0  0  0  0  0
   20.5932  -18.3414  -15.0535 N   0  0  0  0  0  0  0  0  0  0  0  0
   20.5996  -17.4005  -16.0085 C   0  0  0  0  0  0  0  0  0  0  0  0
   21.3591  -17.8119  -17.0451 C   0  0  0  0  0  0  0  0  0  0  0  0
   21.6696  -17.1828  -18.2326 C   0  0  0  0  0  0  0  0  0  0  0  0
   22.4978  -17.8583  -19.0973 C   0  0  0  0  0  0  0  0  0  0  0  0
   22.9997  -19.1041  -18.8038 C   0  0  0  0  0  0  0  0  0  0  0  0
   22.6701  -19.6982  -17.6170 C   0  0  0  0  0  0  0  0  0  0  0  0
   21.8437  -19.0768  -16.7037 C   0  0  0  0  0  0  0  0  0  0  0  0
   19.9568  -21.6643  -13.1056 O   0  0  0  0  0  0  0  0  0  0  0  0
   18.8097  -21.2597  -12.8275 O   0  0  0  0  0  0  0  0  0  0  0  0
  2  3  1  0
  2  1  1  6
  4  2  1  0
  4  5  1  6
  6  7  2  0
  6  4  1  0
  8  9  1  0
  9 11  1  0
 10  9  2  0
 11 12  1  0
 13 12  1  0
 13 14  1  0
 15 14  1  1
 15 16  1  0
 16  6  1  0
 17 15  1  0
 18 17  2  0
 19 17  1  0
 20 31  1  0
 20 19  1  0
 20 21  1  1
 21 22  1  0
 22 30  1  0
 22 23  2  0
 23 24  1  0
 25 24  1  0
 25 26  2  0
 27 26  1  0
 28 27  2  0
 29 30  2  0
 29 28  1  0
 30 25  1  0
 31 33  1  0
 32 31  2  0
M  END
$$$$
