TRW.pdb
     RDKit          3D

 33 34  0  0  1  0  0  0  0  0999 V2000
   29.2034  -22.5954  -21.6398 C   0  0  0  0  0  0  0  0  0  0  0  0
   28.2910  -21.9307  -20.6469 C   0  0  1  0  0  0  0  0  0  0  0  0
   28.8417  -21.9704  -19.3872 O   0  0  0  0  0  0  0  0  0  0  0  0
   27.9134  -20.5205  -21.0434 C   0  0  2  0  0  0  0  0  0  0  0  0
   29.1138  -19.7134  -21.1342 N   0  0  0  0  0  0  0  0  0  0  0  0
   27.0245  -19.9792  -19.9779 C   0  0  0  0  0  0  0  0  0  0  0  0
   27.4664  -19.1340  -19.1270 O   0  0  0  0  0  0  0  0  0  0  0  0
   21.0254  -16.3818  -17.5732 N   0  0  0  0  0  0  0  0  0  0  0  0
   20.1810  -17.3693  -17.0178 C   0  0  0  0  0  0  0  0  0  0  0  0
   19.4528  -17.0887  -15.9870 N   0  0  0  0  0  0  0  0  0  0  0  0
   20.1145  -18.6625  -17.5687 N   0  0  0  0  0  0  0  0  0  0  0  0
   21.0194  -19.0494  -18.6428 C   0  0  0  0  0  0  0  0  0  0  0  0
   22.4330  -19.1765  -18.1542 C   0  0  0  0  0  0  0  0  0  0  0  0
   23.3935  -19.6100  -19.1933 C   0  0  0  0  0  0  0  0  0  0  0  0
   24.7998  -19.8636  -18.7660 C   0  0  2  0  0  0  0  0  0  0  0  0
   25.6530  -20.3605  -19.8405 N   0  0  0  0  0  0  0  0  0  0  0  0
   24.9750  -20.6093  -17.5094 C   0  0  0  0  0  0  0  0  0  0  0  0
   24.9490  -21.8872  -17.4870 O   0  0  0  0  0  0  0  0  0  0  0  0
   18.8322  -17.7882  -15.5503 N   0  0  0  0  0  0  0  0  0  0  0  0
   25.1837  -19.9779  -16.2598 C   0  0  2  0  0  0  0  0  0  0  0  0
   25.3869  -20.7904  -15.0353 C   0  0  0  0  0  0  0  0  0  0  0  0
   26.0661  -19.8591  -14.0854 C   0  0  0  0  0  0  0  0  0  0  0  0
   26.3043  -20.3636  -12.7260 C   0  0  0  0  0  0  0  0  0  0  0  0
   27.5141  -20.8686  -12.2181 N   0  0  0  0  0  0  0  0  0  0  0  0
   27.3477  -21.2624  -10.9474 C   0  0  0  0  0  0  0  0  0  0  0  0
   26.0710  -21.0443  -10.5688 C   0  0  0  0  0  0  0  0  0  0  0  0
   25.4435  -21.2737   -9.3622 C   0  0  0  0  0  0  0  0  0  0  0  0
   24.1170  -20.9239   -9.2736 C   0  0  0  0  0  0  0  0  0  0  0  0
   23.4359  -20.3705  -10.3319 C   0  0  0  0  0  0  0  0  0  0  0  0
   24.0899  -20.1579  -11.5138 C   0  0  0  0  0  0  0  0  0  0  0  0
   25.4206  -20.4858  -11.6717 C   0  0  0  0  0  0  0  0  0  0  0  0
   24.0799  -21.2704  -14.6154 O   0  0  0  0  0  0  0  0  0  0  0  0
   23.0560  -20.5791  -14.7898 O   0  0  0  0  0  0  0  0  0  0  0  0
  2  3  1  0
  2  1  1  6
  4  2  1  0
  4  5  1  1
  6  7  2  0
  6  4  1  0
  8  9  1  0
  9 11  1  0
 10  9  2  0
 11 12  1  0
 13 12  1  0
 13 14  1  0
 15 14  1  6
 15 16  1  0
 16  6  1  0
 17 15  1  0
 18 17  2  0
 19 17  1  0
 20 31  1  0
 20 19  1  0
 20 21  1  1
 21 22  1  0
 22 30  1  0
 22 23  2  0
 23 24  1  0
 25 24  1  0
 25 26  2  0
 27 26  1  0
 28 27  2  0
 29 30  2  0
 29 28  1  0
 30 25  1  0
 31 33  1  0
 32 31  2  0
M  END
$$$$
