TRW.pdb
     RDKit          3D

 33 34  0  0  1  0  0  0  0  0999 V2000
   20.7016  -19.5872  -14.0154 C   0  0  0  0  0  0  0  0  0  0  0  0
   20.4871  -20.7490  -14.9452 C   0  0  1  0  0  0  0  0  0  0  0  0
   21.4728  -20.7853  -15.9037 O   0  0  0  0  0  0  0  0  0  0  0  0
   20.3684  -22.0716  -14.2206 C   0  0  2  0  0  0  0  0  0  0  0  0
   19.2554  -22.0093  -13.2944 N   0  0  0  0  0  0  0  0  0  0  0  0
   21.6360  -22.2843  -13.4679 C   0  0  0  0  0  0  0  0  0  0  0  0
   21.9063  -21.5828  -12.4342 O   0  0  0  0  0  0  0  0  0  0  0  0
   22.4721  -26.8215  -16.1137 N   0  0  0  0  0  0  0  0  0  0  0  0
   23.5002  -26.8882  -17.0807 C   0  0  0  0  0  0  0  0  0  0  0  0
   23.2016  -27.0511  -18.3281 N   0  0  0  0  0  0  0  0  0  0  0  0
   24.8537  -26.7788  -16.7116 N   0  0  0  0  0  0  0  0  0  0  0  0
   25.2158  -26.2751  -15.3935 C   0  0  0  0  0  0  0  0  0  0  0  0
   24.4383  -25.0401  -15.0422 C   0  0  0  0  0  0  0  0  0  0  0  0
   24.7382  -24.5011  -13.6970 C   0  0  0  0  0  0  0  0  0  0  0  0
   23.9293  -23.3397  -13.2263 C   0  0  2  0  0  0  0  0  0  0  0  0
   22.6092  -23.2627  -13.8434 N   0  0  0  0  0  0  0  0  0  0  0  0
   24.6165  -22.0389  -13.1890 C   0  0  0  0  0  0  0  0  0  0  0  0
   24.5390  -21.2191  -14.1668 O   0  0  0  0  0  0  0  0  0  0  0  0
   23.9236  -27.0597  -19.0655 N   0  0  0  0  0  0  0  0  0  0  0  0
   25.3954  -21.6087  -12.0880 C   0  0  2  0  0  0  0  0  0  0  0  0
   26.0637  -20.2846  -12.1159 C   0  0  0  0  0  0  0  0  0  0  0  0
   26.2151  -19.9195  -10.6755 C   0  0  0  0  0  0  0  0  0  0  0  0
   27.4891  -20.2763  -10.0362 C   0  0  0  0  0  0  0  0  0  0  0  0
   28.6346  -20.7845  -10.6734 N   0  0  0  0  0  0  0  0  0  0  0  0
   29.5950  -21.0199   -9.7681 C   0  0  0  0  0  0  0  0  0  0  0  0
   29.1489  -20.6906   -8.5379 C   0  0  0  0  0  0  0  0  0  0  0  0
   29.7797  -20.7452   -7.3126 C   0  0  0  0  0  0  0  0  0  0  0  0
   29.0608  -20.3159   -6.2223 C   0  0  0  0  0  0  0  0  0  0  0  0
   27.7716  -19.8518   -6.3349 C   0  0  0  0  0  0  0  0  0  0  0  0
   27.1773  -19.8124   -7.5658 C   0  0  0  0  0  0  0  0  0  0  0  0
   27.8409  -20.2282   -8.7015 C   0  0  0  0  0  0  0  0  0  0  0  0
   27.3055  -20.4445  -12.8556 O   0  0  0  0  0  0  0  0  0  0  0  0
   27.7763  -21.5776  -13.0817 O   0  0  0  0  0  0  0  0  0  0  0  0
  2  3  1  0
  2  1  1  1
  4  2  1  0
  4  5  1  1
  6  7  2  0
  6  4  1  0
  8  9  1  0
  9 11  1  0
 10  9  2  0
 11 12  1  0
 13 12  1  0
 13 14  1  0
 15 14  1  6
 15 16  1  0
 16  6  1  0
 17 15  1  0
 18 17  2  0
 19 17  1  0
 20 31  1  0
 20 19  1  0
 20 21  1  1
 21 22  1  0
 22 30  1  0
 22 23  2  0
 23 24  1  0
 25 24  1  0
 25 26  2  0
 27 26  1  0
 28 27  2  0
 29 30  2  0
 29 28  1  0
 30 25  1  0
 31 33  1  0
 32 31  2  0
M  END
$$$$
