TRW.pdb
     RDKit          3D

 33 34  0  0  1  0  0  0  0  0999 V2000
   19.3430  -13.5291    4.5229 C   0  0  0  0  0  0  0  0  0  0  0  0
   18.0766  -12.7369    4.6935 C   0  0  1  0  0  0  0  0  0  0  0  0
   18.0957  -11.6217    3.8888 O   0  0  0  0  0  0  0  0  0  0  0  0
   16.8288  -13.5621    4.4689 C   0  0  2  0  0  0  0  0  0  0  0  0
   15.6619  -12.7342    4.7002 N   0  0  0  0  0  0  0  0  0  0  0  0
   16.8511  -14.6826    5.4499 C   0  0  0  0  0  0  0  0  0  0  0  0
   16.8252  -14.4499    6.7065 O   0  0  0  0  0  0  0  0  0  0  0  0
   15.3267  -19.9670    1.8234 N   0  0  0  0  0  0  0  0  0  0  0  0
   16.3213  -20.6275    2.5790 C   0  0  0  0  0  0  0  0  0  0  0  0
   17.3085  -21.2068    1.9777 N   0  0  0  0  0  0  0  0  0  0  0  0
   16.2602  -20.6672    3.9843 N   0  0  0  0  0  0  0  0  0  0  0  0
   15.1090  -20.1127    4.6842 C   0  0  0  0  0  0  0  0  0  0  0  0
   15.3960  -18.7384    5.2153 C   0  0  0  0  0  0  0  0  0  0  0  0
   16.8277  -18.4857    5.4919 C   0  0  0  0  0  0  0  0  0  0  0  0
   17.2012  -17.1336    5.9991 C   0  0  2  0  0  0  0  0  0  0  0  0
   16.9020  -16.0576    5.0598 N   0  0  0  0  0  0  0  0  0  0  0  0
   18.5390  -17.0091    6.5995 C   0  0  0  0  0  0  0  0  0  0  0  0
   19.5666  -16.7536    5.8833 O   0  0  0  0  0  0  0  0  0  0  0  0
   18.0618  -21.6823    2.4989 N   0  0  0  0  0  0  0  0  0  0  0  0
   18.7794  -17.1576    7.9866 C   0  0  1  0  0  0  0  0  0  0  0  0
   20.1656  -17.1232    8.5139 C   0  0  0  0  0  0  0  0  0  0  0  0
   20.1059  -16.1432    9.6394 C   0  0  0  0  0  0  0  0  0  0  0  0
   20.3663  -14.7368    9.3024 C   0  0  0  0  0  0  0  0  0  0  0  0
   19.5626  -13.9016    8.5067 N   0  0  0  0  0  0  0  0  0  0  0  0
   20.1305  -12.6924    8.3944 C   0  0  0  0  0  0  0  0  0  0  0  0
   21.2902  -12.6704    9.0838 C   0  0  0  0  0  0  0  0  0  0  0  0
   22.2025  -11.6527    9.2688 C   0  0  0  0  0  0  0  0  0  0  0  0
   23.2970  -11.9322   10.0523 C   0  0  0  0  0  0  0  0  0  0  0  0
   23.4853  -13.1654   10.6300 C   0  0  0  0  0  0  0  0  0  0  0  0
   22.5603  -14.1513   10.4244 C   0  0  0  0  0  0  0  0  0  0  0  0
   21.4391  -13.9391    9.6491 C   0  0  0  0  0  0  0  0  0  0  0  0
   20.5187  -18.4839    8.8859 O   0  0  0  0  0  0  0  0  0  0  0  0
   19.6565  -19.3854    8.9151 O   0  0  0  0  0  0  0  0  0  0  0  0
  2  3  1  0
  2  1  1  6
  4  2  1  0
  4  5  1  1
  6  7  2  0
  6  4  1  0
  8  9  1  0
  9 11  1  0
 10  9  2  0
 11 12  1  0
 13 12  1  0
 13 14  1  0
 15 14  1  6
 15 16  1  0
 16  6  1  0
 17 15  1  0
 18 17  2  0
 19 17  1  0
 20 31  1  0
 20 19  1  0
 20 21  1  1
 21 22  1  0
 22 30  1  0
 22 23  2  0
 23 24  1  0
 25 24  1  0
 25 26  2  0
 27 26  1  0
 28 27  2  0
 29 30  2  0
 29 28  1  0
 30 25  1  0
 31 33  1  0
 32 31  2  0
M  END
$$$$
