TRW.pdb
     RDKit          3D

 33 34  0  0  1  0  0  0  0  0999 V2000
   30.1899  -19.7054  -16.8549 C   0  0  0  0  0  0  0  0  0  0  0  0
   29.1409  -19.6029  -15.7829 C   0  0  1  0  0  0  0  0  0  0  0  0
   29.6104  -18.8663  -14.7205 O   0  0  0  0  0  0  0  0  0  0  0  0
   27.8241  -19.0618  -16.2946 C   0  0  2  0  0  0  0  0  0  0  0  0
   28.0405  -17.7512  -16.8743 N   0  0  0  0  0  0  0  0  0  0  0  0
   26.9038  -18.9490  -15.1290 C   0  0  0  0  0  0  0  0  0  0  0  0
   26.6317  -17.8080  -14.6210 O   0  0  0  0  0  0  0  0  0  0  0  0
   19.0267  -19.1385  -14.3961 N   0  0  0  0  0  0  0  0  0  0  0  0
   19.7791  -20.1419  -13.7452 C   0  0  0  0  0  0  0  0  0  0  0  0
   19.1803  -21.1706  -13.2405 N   0  0  0  0  0  0  0  0  0  0  0  0
   21.1787  -20.0448  -13.6350 N   0  0  0  0  0  0  0  0  0  0  0  0
   21.8867  -18.9285  -14.2474 C   0  0  0  0  0  0  0  0  0  0  0  0
   23.2741  -19.3189  -14.6669 C   0  0  0  0  0  0  0  0  0  0  0  0
   23.9469  -20.2493  -13.7332 C   0  0  0  0  0  0  0  0  0  0  0  0
   25.3685  -19.9635  -13.3839 C   0  0  2  0  0  0  0  0  0  0  0  0
   26.2803  -20.0814  -14.5171 N   0  0  0  0  0  0  0  0  0  0  0  0
   25.8846  -20.6133  -12.1685 C   0  0  0  0  0  0  0  0  0  0  0  0
   26.3952  -21.7845  -12.2080 O   0  0  0  0  0  0  0  0  0  0  0  0
   19.7007  -21.9333  -12.7794 N   0  0  0  0  0  0  0  0  0  0  0  0
   25.8559  -19.9991  -10.8934 C   0  0  2  0  0  0  0  0  0  0  0  0
   26.1549  -20.7903   -9.6747 C   0  0  0  0  0  0  0  0  0  0  0  0
   27.0071  -19.8837   -8.8485 C   0  0  0  0  0  0  0  0  0  0  0  0
   27.2438  -20.2902   -7.4563 C   0  0  0  0  0  0  0  0  0  0  0  0
   26.8192  -21.4837   -6.8467 N   0  0  0  0  0  0  0  0  0  0  0  0
   27.1920  -21.4972   -5.5590 C   0  0  0  0  0  0  0  0  0  0  0  0
   27.8555  -20.3590   -5.2672 C   0  0  0  0  0  0  0  0  0  0  0  0
   28.4342  -19.9372   -4.0884 C   0  0  0  0  0  0  0  0  0  0  0  0
   29.0669  -18.7169   -4.1069 C   0  0  0  0  0  0  0  0  0  0  0  0
   29.1265  -17.9428   -5.2416 C   0  0  0  0  0  0  0  0  0  0  0  0
   28.5409  -18.3925   -6.3925 C   0  0  0  0  0  0  0  0  0  0  0  0
   27.8893  -19.6074   -6.4441 C   0  0  0  0  0  0  0  0  0  0  0  0
   24.8812  -21.1657   -9.0818 O   0  0  0  0  0  0  0  0  0  0  0  0
   24.7466  -22.2538   -8.4862 O   0  0  0  0  0  0  0  0  0  0  0  0
  2  3  1  0
  2  1  1  6
  4  2  1  0
  4  5  1  1
  6  7  2  0
  6  4  1  0
  8  9  1  0
  9 11  1  0
 10  9  2  0
 11 12  1  0
 13 12  1  0
 13 14  1  0
 15 14  1  6
 15 16  1  0
 16  6  1  0
 17 15  1  0
 18 17  2  0
 19 17  1  0
 20 31  1  0
 20 19  1  0
 20 21  1  1
 21 22  1  0
 22 30  1  0
 22 23  2  0
 23 24  1  0
 25 24  1  0
 25 26  2  0
 27 26  1  0
 28 27  2  0
 29 30  2  0
 29 28  1  0
 30 25  1  0
 31 33  1  0
 32 31  2  0
M  END
$$$$
