KLK.pdb
     RDKit          3D

 27 26  0  0  1  0  0  0  0  0999 V2000
    8.3580  -15.1590   20.7674 N   0  0  0  0  0  0  0  0  0  0  0  0
    7.6625  -15.5326   21.9770 C   0  0  1  0  0  0  0  0  0  0  0  0
    7.5505  -17.0404   21.9698 C   0  0  0  0  0  0  0  0  0  0  0  0
    6.9509  -17.4595   20.6509 C   0  0  0  0  0  0  0  0  0  0  0  0
    6.7272  -18.9397   20.5589 C   0  0  0  0  0  0  0  0  0  0  0  0
    6.2274  -19.3360   19.1863 C   0  0  0  0  0  0  0  0  0  0  0  0
    5.8578  -20.7245   19.1170 N   0  0  0  0  0  0  0  0  0  0  0  0
    8.4607  -15.0504   23.1370 C   0  0  0  0  0  0  0  0  0  0  0  0
    9.6982  -14.9155   22.9824 O   0  0  0  0  0  0  0  0  0  0  0  0
    8.0438  -11.4071   25.3159 C   0  0  0  0  0  0  0  0  0  0  0  0
    6.9390  -12.4163   25.6764 C   0  0  2  0  0  0  0  0  0  0  0  0
    5.9240  -11.7737   26.5657 C   0  0  0  0  0  0  0  0  0  0  0  0
    7.5817  -13.5715   26.3582 C   0  0  0  0  0  0  0  0  0  0  0  0
    8.5374  -14.3715   25.5599 C   0  0  2  0  0  0  0  0  0  0  0  0
    7.8090  -14.7696   24.3401 N   0  0  0  0  0  0  0  0  0  0  0  0
    9.0188  -15.6338   26.1546 C   0  0  0  0  0  0  0  0  0  0  0  0
    9.6343  -15.6478   27.2831 O   0  0  0  0  0  0  0  0  0  0  0  0
    8.8296  -16.8858   25.5271 N   0  0  0  0  0  0  0  0  0  0  0  0
    9.4747  -18.0738   26.1263 C   0  0  1  0  0  0  0  0  0  0  0  0
   10.1231  -18.8806   25.0218 C   0  0  0  0  0  0  0  0  0  0  0  0
   10.8081  -20.0706   25.5702 C   0  0  0  0  0  0  0  0  0  0  0  0
   11.5154  -20.9482   24.5980 C   0  0  0  0  0  0  0  0  0  0  0  0
   12.3421  -22.0454   25.1550 C   0  0  0  0  0  0  0  0  0  0  0  0
   13.0300  -22.8031   24.1367 N   0  0  0  0  0  0  0  0  0  0  0  0
   10.3999  -17.6018   27.1664 C   0  0  0  0  0  0  0  0  0  0  0  0
   11.5719  -16.9226   26.9536 O   0  0  0  0  0  0  0  0  0  0  0  0
   10.1268  -17.8257   28.4010 O   0  0  0  0  0  0  0  0  0  0  0  0
  2  1  1  6
  2  3  1  0
  4  3  1  0
  4  5  1  0
  5  6  1  0
  6  7  1  0
  8  2  1  0
  9  8  2  0
 11 10  1  1
 12 11  1  0
 13 11  1  0
 14 13  1  1
 14 15  1  0
 15  8  1  0
 16 14  1  0
 16 17  2  0
 18 16  1  0
 19 18  1  0
 19 20  1  6
 21 20  1  0
 22 21  1  0
 22 23  1  0
 24 23  1  0
 25 26  1  0
 25 19  1  0
 27 25  2  0
M  END
$$$$
