KLK.pdb
     RDKit          3D

 27 26  0  0  1  0  0  0  0  0999 V2000
    7.9337  -16.5563   19.7594 N   0  0  0  0  0  0  0  0  0  0  0  0
    7.4034  -16.7605   21.0874 C   0  0  1  0  0  0  0  0  0  0  0  0
    7.7051  -18.1935   21.4637 C   0  0  0  0  0  0  0  0  0  0  0  0
    7.3599  -19.0700   20.2858 C   0  0  0  0  0  0  0  0  0  0  0  0
    7.5311  -20.5308   20.5791 C   0  0  0  0  0  0  0  0  0  0  0  0
    7.0717  -21.3828   19.4154 C   0  0  0  0  0  0  0  0  0  0  0  0
    7.2238  -22.7900   19.6723 N   0  0  0  0  0  0  0  0  0  0  0  0
    8.0759  -15.8021   22.0063 C   0  0  0  0  0  0  0  0  0  0  0  0
    9.2554  -15.4660   21.7430 O   0  0  0  0  0  0  0  0  0  0  0  0
    5.8811  -12.6242   26.7305 C   0  0  0  0  0  0  0  0  0  0  0  0
    7.1738  -12.8512   25.9265 C   0  0  2  0  0  0  0  0  0  0  0  0
    7.7272  -11.5436   25.4601 C   0  0  0  0  0  0  0  0  0  0  0  0
    6.8437  -13.7268   24.7702 C   0  0  0  0  0  0  0  0  0  0  0  0
    7.9785  -14.3840   24.0840 C   0  0  2  0  0  0  0  0  0  0  0  0
    7.3761  -15.3188   23.1143 N   0  0  0  0  0  0  0  0  0  0  0  0
    8.8784  -15.2099   24.9127 C   0  0  0  0  0  0  0  0  0  0  0  0
    8.5313  -16.3824   25.3096 O   0  0  0  0  0  0  0  0  0  0  0  0
   10.1601  -14.7665   25.3097 N   0  0  0  0  0  0  0  0  0  0  0  0
   11.0864  -15.7504   25.9100 C   0  0  1  0  0  0  0  0  0  0  0  0
   10.3116  -16.6128   26.8832 C   0  0  0  0  0  0  0  0  0  0  0  0
   11.1694  -17.6801   27.4410 C   0  0  0  0  0  0  0  0  0  0  0  0
   10.5235  -18.6458   28.3715 C   0  0  0  0  0  0  0  0  0  0  0  0
   11.3889  -19.6906   28.9690 C   0  0  0  0  0  0  0  0  0  0  0  0
   10.6472  -20.6640   29.7349 N   0  0  0  0  0  0  0  0  0  0  0  0
   11.7272  -16.4876   24.8115 C   0  0  0  0  0  0  0  0  0  0  0  0
   11.1036  -17.3570   23.9539 O   0  0  0  0  0  0  0  0  0  0  0  0
   12.9847  -16.3358   24.6003 O   0  0  0  0  0  0  0  0  0  0  0  0
  2  1  1  6
  2  3  1  0
  4  3  1  0
  4  5  1  0
  5  6  1  0
  6  7  1  0
  8  2  1  0
  9  8  2  0
 11 10  1  6
 12 11  1  0
 13 11  1  0
 14 13  1  1
 14 15  1  0
 15  8  1  0
 16 14  1  0
 16 17  2  0
 18 16  1  0
 19 18  1  0
 19 20  1  1
 21 20  1  0
 22 21  1  0
 22 23  1  0
 24 23  1  0
 25 26  1  0
 25 19  1  0
 27 25  2  0
M  END
$$$$
