KLK.pdb
     RDKit          3D

 27 26  0  0  1  0  0  0  0  0999 V2000
   11.1677  -17.8355   18.9726 N   0  0  0  0  0  0  0  0  0  0  0  0
    9.8736  -17.7336   19.6062 C   0  0  1  0  0  0  0  0  0  0  0  0
    9.6469  -19.0303   20.3498 C   0  0  0  0  0  0  0  0  0  0  0  0
    9.5217  -20.1377   19.3336 C   0  0  0  0  0  0  0  0  0  0  0  0
    8.6200  -21.2457   19.7901 C   0  0  0  0  0  0  0  0  0  0  0  0
    8.5848  -22.3760   18.7840 C   0  0  0  0  0  0  0  0  0  0  0  0
    7.8328  -23.5076   19.2565 N   0  0  0  0  0  0  0  0  0  0  0  0
    9.9036  -16.5705   20.5344 C   0  0  0  0  0  0  0  0  0  0  0  0
   10.9962  -16.2826   21.0793 O   0  0  0  0  0  0  0  0  0  0  0  0
    8.8736  -12.2304   20.1021 C   0  0  0  0  0  0  0  0  0  0  0  0
    7.6907  -13.2081   19.9829 C   0  0  2  0  0  0  0  0  0  0  0  0
    6.4453  -12.4681   19.6153 C   0  0  0  0  0  0  0  0  0  0  0  0
    7.5304  -13.8917   21.2942 C   0  0  0  0  0  0  0  0  0  0  0  0
    8.6492  -14.7516   21.7408 C   0  0  2  0  0  0  0  0  0  0  0  0
    8.7275  -15.8520   20.7610 N   0  0  0  0  0  0  0  0  0  0  0  0
    8.5084  -15.4101   23.0544 C   0  0  0  0  0  0  0  0  0  0  0  0
    8.2892  -14.7287   24.1223 O   0  0  0  0  0  0  0  0  0  0  0  0
    8.6010  -16.8114   23.2116 N   0  0  0  0  0  0  0  0  0  0  0  0
    8.4666  -17.3736   24.5726 C   0  0  1  0  0  0  0  0  0  0  0  0
    7.9083  -18.7762   24.4635 C   0  0  0  0  0  0  0  0  0  0  0  0
    6.5887  -18.7685   23.7969 C   0  0  0  0  0  0  0  0  0  0  0  0
    5.9282  -20.0871   23.5955 C   0  0  0  0  0  0  0  0  0  0  0  0
    4.5738  -20.0796   22.9929 C   0  0  0  0  0  0  0  0  0  0  0  0
    3.9691  -21.3901   22.9536 N   0  0  0  0  0  0  0  0  0  0  0  0
    9.7815  -17.2847   25.2236 C   0  0  0  0  0  0  0  0  0  0  0  0
   10.9321  -16.8055   24.6520 O   0  0  0  0  0  0  0  0  0  0  0  0
    9.9116  -17.6829   26.4375 O   0  0  0  0  0  0  0  0  0  0  0  0
  2  1  1  1
  2  3  1  0
  4  3  1  0
  4  5  1  0
  5  6  1  0
  6  7  1  0
  8  2  1  0
  9  8  2  0
 11 10  1  1
 12 11  1  0
 13 11  1  0
 14 13  1  6
 14 15  1  0
 15  8  1  0
 16 14  1  0
 16 17  2  0
 18 16  1  0
 19 18  1  0
 19 20  1  6
 21 20  1  0
 22 21  1  0
 22 23  1  0
 24 23  1  0
 25 26  1  0
 25 19  1  0
 27 25  2  0
M  END
$$$$
