KLK.pdb
     RDKit          3D

 27 26  0  0  1  0  0  0  0  0999 V2000
    9.1351  -15.4711   20.1152 N   0  0  0  0  0  0  0  0  0  0  0  0
    8.2356  -15.9024   21.1599 C   0  0  1  0  0  0  0  0  0  0  0  0
    8.2983  -17.4126   21.1957 C   0  0  0  0  0  0  0  0  0  0  0  0
    8.0520  -17.9252   19.7988 C   0  0  0  0  0  0  0  0  0  0  0  0
    7.9505  -19.4203   19.7383 C   0  0  0  0  0  0  0  0  0  0  0  0
    7.7321  -19.8997   18.3193 C   0  0  0  0  0  0  0  0  0  0  0  0
    7.5531  -21.3250   18.2433 N   0  0  0  0  0  0  0  0  0  0  0  0
    8.6978  -15.3067   22.4432 C   0  0  0  0  0  0  0  0  0  0  0  0
    9.9331  -15.2538   22.6543 O   0  0  0  0  0  0  0  0  0  0  0  0
    5.5346  -12.5319   26.8900 C   0  0  0  0  0  0  0  0  0  0  0  0
    6.9479  -13.0245   26.5308 C   0  0  2  0  0  0  0  0  0  0  0  0
    7.9315  -11.9064   26.6582 C   0  0  0  0  0  0  0  0  0  0  0  0
    6.9107  -13.5378   25.1352 C   0  0  0  0  0  0  0  0  0  0  0  0
    8.1256  -14.2254   24.6433 C   0  0  2  0  0  0  0  0  0  0  0  0
    7.7492  -14.8345   23.3532 N   0  0  0  0  0  0  0  0  0  0  0  0
    8.6463  -15.3381   25.4615 C   0  0  0  0  0  0  0  0  0  0  0  0
    7.9759  -16.4243   25.6147 O   0  0  0  0  0  0  0  0  0  0  0  0
    9.8990  -15.2763   26.1126 N   0  0  0  0  0  0  0  0  0  0  0  0
   10.4212  -16.5070   26.7443 C   0  0  1  0  0  0  0  0  0  0  0  0
   11.6165  -16.9885   25.9503 C   0  0  0  0  0  0  0  0  0  0  0  0
   12.2321  -18.1715   26.5886 C   0  0  0  0  0  0  0  0  0  0  0  0
   13.3991  -18.7807   25.8939 C   0  0  0  0  0  0  0  0  0  0  0  0
   13.9515  -20.0301   26.4695 C   0  0  0  0  0  0  0  0  0  0  0  0
   14.9278  -20.6598   25.6123 N   0  0  0  0  0  0  0  0  0  0  0  0
   10.7034  -16.1995   28.1538 C   0  0  0  0  0  0  0  0  0  0  0  0
   10.8689  -17.1160   29.1602 O   0  0  0  0  0  0  0  0  0  0  0  0
   10.8110  -14.9740   28.5217 O   0  0  0  0  0  0  0  0  0  0  0  0
  2  1  1  6
  2  3  1  0
  4  3  1  0
  4  5  1  0
  5  6  1  0
  6  7  1  0
  8  2  1  0
  9  8  2  0
 11 10  1  6
 12 11  1  0
 13 11  1  0
 14 13  1  1
 14 15  1  0
 15  8  1  0
 16 14  1  0
 16 17  2  0
 18 16  1  0
 19 18  1  0
 19 20  1  6
 21 20  1  0
 22 21  1  0
 22 23  1  0
 24 23  1  0
 25 26  1  0
 25 19  1  0
 27 25  2  0
M  END
$$$$
