KLK.pdb
     RDKit          3D

 27 26  0  0  1  0  0  0  0  0999 V2000
    8.6667  -15.1157   20.1536 N   0  0  0  0  0  0  0  0  0  0  0  0
    8.2518  -15.9734   21.2392 C   0  0  1  0  0  0  0  0  0  0  0  0
    8.8727  -17.3289   20.9881 C   0  0  0  0  0  0  0  0  0  0  0  0
    8.4189  -17.8083   19.6319 C   0  0  0  0  0  0  0  0  0  0  0  0
    8.8902  -19.1973   19.3194 C   0  0  0  0  0  0  0  0  0  0  0  0
    8.4717  -19.6199   17.9275 C   0  0  0  0  0  0  0  0  0  0  0  0
    9.0492  -20.8790   17.5397 N   0  0  0  0  0  0  0  0  0  0  0  0
    8.7404  -15.3770   22.5124 C   0  0  0  0  0  0  0  0  0  0  0  0
    9.9751  -15.3944   22.7326 O   0  0  0  0  0  0  0  0  0  0  0  0
    5.7425  -12.2723   26.8583 C   0  0  0  0  0  0  0  0  0  0  0  0
    7.1227  -12.8617   26.5167 C   0  0  2  0  0  0  0  0  0  0  0  0
    8.1684  -11.7957   26.5797 C   0  0  0  0  0  0  0  0  0  0  0  0
    7.0444  -13.4436   25.1500 C   0  0  0  0  0  0  0  0  0  0  0  0
    8.2197  -14.2120   24.6824 C   0  0  2  0  0  0  0  0  0  0  0  0
    7.8160  -14.8269   23.4033 N   0  0  0  0  0  0  0  0  0  0  0  0
    8.6693  -15.3347   25.5286 C   0  0  0  0  0  0  0  0  0  0  0  0
    7.9317  -16.3722   25.7080 O   0  0  0  0  0  0  0  0  0  0  0  0
    9.9236  -15.3359   26.1797 N   0  0  0  0  0  0  0  0  0  0  0  0
   10.3383  -16.5600   26.8980 C   0  0  1  0  0  0  0  0  0  0  0  0
   11.5312  -17.1589   26.1842 C   0  0  0  0  0  0  0  0  0  0  0  0
   12.0683  -18.3150   26.9330 C   0  0  0  0  0  0  0  0  0  0  0  0
   13.2204  -19.0350   26.3246 C   0  0  0  0  0  0  0  0  0  0  0  0
   13.6790  -20.2711   27.0023 C   0  0  0  0  0  0  0  0  0  0  0  0
   12.9955  -21.4541   26.5358 N   0  0  0  0  0  0  0  0  0  0  0  0
   10.5822  -16.1931   28.3003 C   0  0  0  0  0  0  0  0  0  0  0  0
   10.7085  -17.0656   29.3506 O   0  0  0  0  0  0  0  0  0  0  0  0
   10.6919  -14.9535   28.6171 O   0  0  0  0  0  0  0  0  0  0  0  0
  2  1  1  6
  2  3  1  0
  4  3  1  0
  4  5  1  0
  5  6  1  0
  6  7  1  0
  8  2  1  0
  9  8  2  0
 11 10  1  6
 12 11  1  0
 13 11  1  0
 14 13  1  1
 14 15  1  0
 15  8  1  0
 16 14  1  0
 16 17  2  0
 18 16  1  0
 19 18  1  0
 19 20  1  6
 21 20  1  0
 22 21  1  0
 22 23  1  0
 24 23  1  0
 25 26  1  0
 25 19  1  0
 27 25  2  0
M  END
$$$$
