KLK.pdb
     RDKit          3D

 27 26  0  0  1  0  0  0  0  0999 V2000
    9.8660  -18.0488   16.5560 N   0  0  0  0  0  0  0  0  0  0  0  0
    8.8303  -17.7449   17.5158 C   0  0  1  0  0  0  0  0  0  0  0  0
    8.2578  -19.0666   17.9755 C   0  0  0  0  0  0  0  0  0  0  0  0
    9.3953  -19.9214   18.4758 C   0  0  0  0  0  0  0  0  0  0  0  0
    8.9699  -21.3227   18.7993 C   0  0  0  0  0  0  0  0  0  0  0  0
   10.1429  -22.1609   19.2604 C   0  0  0  0  0  0  0  0  0  0  0  0
    9.7383  -23.4584   19.7316 N   0  0  0  0  0  0  0  0  0  0  0  0
    9.4500  -16.9970   18.6437 C   0  0  0  0  0  0  0  0  0  0  0  0
   10.6965  -17.0555   18.7719 O   0  0  0  0  0  0  0  0  0  0  0  0
    8.9773  -12.5604   19.6581 C   0  0  0  0  0  0  0  0  0  0  0  0
    7.7410  -13.4471   19.8914 C   0  0  2  0  0  0  0  0  0  0  0  0
    6.5856  -12.6126   20.3415 C   0  0  0  0  0  0  0  0  0  0  0  0
    8.0940  -14.4592   20.9227 C   0  0  0  0  0  0  0  0  0  0  0  0
    9.1724  -15.4136   20.5809 C   0  0  2  0  0  0  0  0  0  0  0  0
    8.6295  -16.2670   19.5066 N   0  0  0  0  0  0  0  0  0  0  0  0
    9.6038  -16.3480   21.6391 C   0  0  0  0  0  0  0  0  0  0  0  0
    8.8909  -17.3687   21.9592 O   0  0  0  0  0  0  0  0  0  0  0  0
   10.8132  -16.1789   22.3502 N   0  0  0  0  0  0  0  0  0  0  0  0
   11.1970  -17.2132   23.3348 C   0  0  1  0  0  0  0  0  0  0  0  0
   12.4581  -17.8967   22.8516 C   0  0  0  0  0  0  0  0  0  0  0  0
   12.9676  -18.8428   23.8669 C   0  0  0  0  0  0  0  0  0  0  0  0
   14.1930  -19.6117   23.5162 C   0  0  0  0  0  0  0  0  0  0  0  0
   14.7255  -20.5396   24.5424 C   0  0  0  0  0  0  0  0  0  0  0  0
   15.9717  -21.1546   24.1510 N   0  0  0  0  0  0  0  0  0  0  0  0
   11.3168  -16.5585   24.6454 C   0  0  0  0  0  0  0  0  0  0  0  0
   11.3048  -17.1877   25.8637 O   0  0  0  0  0  0  0  0  0  0  0  0
   11.4440  -15.2820   24.7026 O   0  0  0  0  0  0  0  0  0  0  0  0
  2  1  1  6
  2  3  1  0
  4  3  1  0
  4  5  1  0
  5  6  1  0
  6  7  1  0
  8  2  1  0
  9  8  2  0
 11 10  1  1
 12 11  1  0
 13 11  1  0
 14 13  1  1
 14 15  1  0
 15  8  1  0
 16 14  1  0
 16 17  2  0
 18 16  1  0
 19 18  1  0
 19 20  1  6
 21 20  1  0
 22 21  1  0
 22 23  1  0
 24 23  1  0
 25 26  1  0
 25 19  1  0
 27 25  2  0
M  END
$$$$
