KLK.pdb
     RDKit          3D

 27 26  0  0  1  0  0  0  0  0999 V2000
    8.4154  -18.5329   19.5011 N   0  0  0  0  0  0  0  0  0  0  0  0
    9.8013  -18.2569   19.2020 C   0  0  1  0  0  0  0  0  0  0  0  0
    9.9024  -18.0991   17.7017 C   0  0  0  0  0  0  0  0  0  0  0  0
    9.5202  -19.4121   17.0655 C   0  0  0  0  0  0  0  0  0  0  0  0
   10.7033  -20.2942   16.7983 C   0  0  0  0  0  0  0  0  0  0  0  0
   10.2950  -21.5558   16.0685 C   0  0  0  0  0  0  0  0  0  0  0  0
    9.9616  -21.3092   14.6911 N   0  0  0  0  0  0  0  0  0  0  0  0
   10.1867  -17.0053   19.9093 C   0  0  0  0  0  0  0  0  0  0  0  0
   11.3512  -16.5708   19.7408 O   0  0  0  0  0  0  0  0  0  0  0  0
    8.5826  -13.0258   19.4297 C   0  0  0  0  0  0  0  0  0  0  0  0
    7.6424  -14.0141   20.1427 C   0  0  2  0  0  0  0  0  0  0  0  0
    6.2942  -13.3975   20.3323 C   0  0  0  0  0  0  0  0  0  0  0  0
    8.2536  -14.3595   21.4540 C   0  0  0  0  0  0  0  0  0  0  0  0
    9.5345  -15.1001   21.4200 C   0  0  2  0  0  0  0  0  0  0  0  0
    9.2476  -16.3694   20.7246 N   0  0  0  0  0  0  0  0  0  0  0  0
   10.1198  -15.4914   22.7174 C   0  0  0  0  0  0  0  0  0  0  0  0
   10.4620  -14.6096   23.5881 O   0  0  0  0  0  0  0  0  0  0  0  0
   10.3313  -16.8421   23.0750 N   0  0  0  0  0  0  0  0  0  0  0  0
   10.9642  -17.1299   24.3800 C   0  0  1  0  0  0  0  0  0  0  0  0
   10.5867  -18.5339   24.8013 C   0  0  0  0  0  0  0  0  0  0  0  0
   11.2040  -18.8790   26.0997 C   0  0  0  0  0  0  0  0  0  0  0  0
   10.9146  -20.2339   26.6439 C   0  0  0  0  0  0  0  0  0  0  0  0
   11.4516  -20.5509   27.9888 C   0  0  0  0  0  0  0  0  0  0  0  0
   11.1862  -21.9112   28.3934 N   0  0  0  0  0  0  0  0  0  0  0  0
   12.4087  -16.8994   24.2356 C   0  0  0  0  0  0  0  0  0  0  0  0
   13.1321  -17.0245   23.0774 O   0  0  0  0  0  0  0  0  0  0  0  0
   13.0964  -16.5495   25.2620 O   0  0  0  0  0  0  0  0  0  0  0  0
  2  1  1  6
  2  3  1  0
  4  3  1  0
  4  5  1  0
  5  6  1  0
  6  7  1  0
  8  2  1  0
  9  8  2  0
 11 10  1  1
 12 11  1  0
 13 11  1  0
 14 13  1  1
 14 15  1  0
 15  8  1  0
 16 14  1  0
 16 17  2  0
 18 16  1  0
 19 18  1  0
 19 20  1  6
 21 20  1  0
 22 21  1  0
 22 23  1  0
 24 23  1  0
 25 26  1  0
 25 19  1  0
 27 25  2  0
M  END
$$$$
