VVD.pdb
     RDKit          3D

 23 22  0  0  1  0  0  0  0  0999 V2000
   16.9552  -11.3374  -19.3085 C   0  0  0  0  0  0  0  0  0  0  0  0
   17.6560  -10.7077  -18.1428 C   0  0  2  0  0  0  0  0  0  0  0  0
   18.4203   -9.4912  -18.6086 C   0  0  0  0  0  0  0  0  0  0  0  0
   18.6205  -11.6320  -17.4593 C   0  0  2  0  0  0  0  0  0  0  0  0
   18.0174  -12.8483  -17.0014 N   0  0  0  0  0  0  0  0  0  0  0  0
   19.3409  -10.9880  -16.3374 C   0  0  0  0  0  0  0  0  0  0  0  0
   18.7235  -10.8529  -15.2537 O   0  0  0  0  0  0  0  0  0  0  0  0
   22.4572  -11.8227  -14.3566 C   0  0  0  0  0  0  0  0  0  0  0  0
   22.6640  -10.4551  -14.9899 C   0  0  2  0  0  0  0  0  0  0  0  0
   23.4394   -9.6161  -14.0092 C   0  0  0  0  0  0  0  0  0  0  0  0
   21.3644   -9.8217  -15.3939 C   0  0  2  0  0  0  0  0  0  0  0  0
   20.6733  -10.5230  -16.4250 N   0  0  0  0  0  0  0  0  0  0  0  0
   21.5142   -8.3651  -15.6732 C   0  0  0  0  0  0  0  0  0  0  0  0
   22.1909   -7.9137  -16.6339 O   0  0  0  0  0  0  0  0  0  0  0  0
   20.8887   -7.3851  -14.8535 N   0  0  0  0  0  0  0  0  0  0  0  0
   21.1016   -5.9408  -15.0704 C   0  0  1  0  0  0  0  0  0  0  0  0
   19.7548   -5.2851  -15.1252 C   0  0  0  0  0  0  0  0  0  0  0  0
   19.7854   -3.8378  -15.2826 C   0  0  0  0  0  0  0  0  0  0  0  0
   20.8291   -3.2210  -15.5689 O   0  0  0  0  0  0  0  0  0  0  0  0
   21.8639   -5.4629  -13.8885 C   0  0  0  0  0  0  0  0  0  0  0  0
   22.5252   -4.4045  -13.8503 O   0  0  0  0  0  0  0  0  0  0  0  0
   18.6171   -3.1108  -15.1097 O   0  0  0  0  0  0  0  0  0  0  0  0
   21.8685   -6.2196  -12.7168 O   0  0  0  0  0  0  0  0  0  0  0  0
  2  3  1  6
  2  1  1  0
  4  2  1  0
  4  5  1  1
  6  7  2  0
  6  4  1  0
  9  8  1  1
  9 11  1  0
 10  9  1  0
 11 12  1  6
 12  6  1  0
 13 15  1  0
 13 11  1  0
 14 13  2  0
 16 15  1  0
 16 20  1  0
 17 18  1  0
 16 17  1  1
 18 19  2  0
 20 21  2  0
 20 23  1  0
 22 18  1  0
M  END
$$$$
