VVD.pdb
     RDKit          3D

 23 22  0  0  1  0  0  0  0  0999 V2000
   23.6198  -14.4484  -16.8160 C   0  0  0  0  0  0  0  0  0  0  0  0
   24.8389  -13.6754  -17.2194 C   0  0  2  0  0  0  0  0  0  0  0  0
   26.0782  -14.4529  -16.8445 C   0  0  0  0  0  0  0  0  0  0  0  0
   24.9241  -12.3221  -16.5766 C   0  0  2  0  0  0  0  0  0  0  0  0
   25.0630  -12.3754  -15.1516 N   0  0  0  0  0  0  0  0  0  0  0  0
   23.7845  -11.4439  -16.9269 C   0  0  0  0  0  0  0  0  0  0  0  0
   23.6910  -11.0636  -18.1187 O   0  0  0  0  0  0  0  0  0  0  0  0
   20.4303  -11.6198  -17.8483 C   0  0  0  0  0  0  0  0  0  0  0  0
   20.4204  -10.8451  -16.5392 C   0  0  2  0  0  0  0  0  0  0  0  0
   19.2489   -9.9003  -16.5826 C   0  0  0  0  0  0  0  0  0  0  0  0
   21.7234  -10.1415  -16.2938 C   0  0  2  0  0  0  0  0  0  0  0  0
   22.8086  -11.0172  -15.9970 N   0  0  0  0  0  0  0  0  0  0  0  0
   21.5826   -9.0278  -15.3130 C   0  0  0  0  0  0  0  0  0  0  0  0
   21.3511   -9.2124  -14.0895 O   0  0  0  0  0  0  0  0  0  0  0  0
   21.7044   -7.6681  -15.7129 N   0  0  0  0  0  0  0  0  0  0  0  0
   21.6677   -6.5644  -14.7335 C   0  0  1  0  0  0  0  0  0  0  0  0
   22.5418   -5.4640  -15.2547 C   0  0  0  0  0  0  0  0  0  0  0  0
   22.5589   -4.2582  -14.4383 C   0  0  0  0  0  0  0  0  0  0  0  0
   22.0625   -4.2201  -13.2964 O   0  0  0  0  0  0  0  0  0  0  0  0
   20.2514   -6.1204  -14.6781 C   0  0  0  0  0  0  0  0  0  0  0  0
   19.5135   -5.9737  -15.6745 O   0  0  0  0  0  0  0  0  0  0  0  0
   23.1458   -3.1064  -14.9401 O   0  0  0  0  0  0  0  0  0  0  0  0
   19.6638   -5.8365  -13.4453 O   0  0  0  0  0  0  0  0  0  0  0  0
  2  3  1  1
  2  1  1  0
  4  2  1  0
  4  5  1  1
  6  7  2  0
  6  4  1  0
  9  8  1  6
  9 11  1  0
 10  9  1  0
 11 12  1  1
 12  6  1  0
 13 15  1  0
 13 11  1  0
 14 13  2  0
 16 15  1  0
 16 20  1  0
 17 18  1  0
 16 17  1  6
 18 19  2  0
 20 21  2  0
 20 23  1  0
 22 18  1  0
M  END
$$$$
