VVD.pdb
     RDKit          3D

 23 22  0  0  1  0  0  0  0  0999 V2000
   14.2900  -11.7421  -10.7346 C   0  0  0  0  0  0  0  0  0  0  0  0
   14.8485  -11.3833  -12.0784 C   0  0  2  0  0  0  0  0  0  0  0  0
   15.5625  -12.5778  -12.6651 C   0  0  0  0  0  0  0  0  0  0  0  0
   15.8156  -10.2368  -12.0331 C   0  0  2  0  0  0  0  0  0  0  0  0
   16.9532  -10.4831  -11.1976 N   0  0  0  0  0  0  0  0  0  0  0  0
   15.1797   -8.9606  -11.6338 C   0  0  0  0  0  0  0  0  0  0  0  0
   14.2719   -8.5094  -12.3730 O   0  0  0  0  0  0  0  0  0  0  0  0
   13.8521   -5.7472   -8.1625 C   0  0  0  0  0  0  0  0  0  0  0  0
   14.5115   -7.0509   -8.5862 C   0  0  2  0  0  0  0  0  0  0  0  0
   15.6797   -7.2859   -7.6659 C   0  0  0  0  0  0  0  0  0  0  0  0
   14.9086   -7.0342  -10.0337 C   0  0  2  0  0  0  0  0  0  0  0  0
   15.5399   -8.2335  -10.4759 N   0  0  0  0  0  0  0  0  0  0  0  0
   15.6701   -5.8036  -10.3914 C   0  0  0  0  0  0  0  0  0  0  0  0
   16.9120   -5.6880  -10.2215 O   0  0  0  0  0  0  0  0  0  0  0  0
   15.0230   -4.6693  -10.9556 N   0  0  0  0  0  0  0  0  0  0  0  0
   15.7844   -3.4978  -11.4313 C   0  0  1  0  0  0  0  0  0  0  0  0
   15.8592   -3.5796  -12.9261 C   0  0  0  0  0  0  0  0  0  0  0  0
   16.4973   -2.4397  -13.5696 C   0  0  0  0  0  0  0  0  0  0  0  0
   16.9318   -1.4675  -12.9234 O   0  0  0  0  0  0  0  0  0  0  0  0
   14.9976   -2.3085  -11.0152 C   0  0  0  0  0  0  0  0  0  0  0  0
   15.3860   -1.1269  -11.1225 O   0  0  0  0  0  0  0  0  0  0  0  0
   16.6308   -2.4260  -14.9498 O   0  0  0  0  0  0  0  0  0  0  0  0
   13.7293   -2.4786  -10.4603 O   0  0  0  0  0  0  0  0  0  0  0  0
  2  3  1  1
  2  1  1  0
  4  2  1  0
  4  5  1  1
  6  7  2  0
  6  4  1  0
  9  8  1  1
  9 11  1  0
 10  9  1  0
 11 12  1  1
 12  6  1  0
 13 15  1  0
 13 11  1  0
 14 13  2  0
 16 15  1  0
 16 20  1  0
 17 18  1  0
 16 17  1  6
 18 19  2  0
 20 21  2  0
 20 23  1  0
 22 18  1  0
M  END
$$$$
