VVD.pdb
     RDKit          3D

 23 22  0  0  1  0  0  0  0  0999 V2000
   22.0652   -9.2997  -21.1521 C   0  0  0  0  0  0  0  0  0  0  0  0
   23.2859   -9.9496  -20.5742 C   0  0  2  0  0  0  0  0  0  0  0  0
   24.1531  -10.4808  -21.6906 C   0  0  0  0  0  0  0  0  0  0  0  0
   22.9710  -11.0859  -19.6460 C   0  0  2  0  0  0  0  0  0  0  0  0
   22.2906  -12.1726  -20.2853 N   0  0  0  0  0  0  0  0  0  0  0  0
   22.2052  -10.6608  -18.4521 C   0  0  0  0  0  0  0  0  0  0  0  0
   20.9554  -10.7585  -18.5004 O   0  0  0  0  0  0  0  0  0  0  0  0
   21.4760  -10.0349  -13.7248 C   0  0  0  0  0  0  0  0  0  0  0  0
   22.2727  -10.5554  -14.9116 C   0  0  2  0  0  0  0  0  0  0  0  0
   23.7112  -10.6583  -14.4793 C   0  0  0  0  0  0  0  0  0  0  0  0
   22.0934   -9.6949  -16.1284 C   0  0  2  0  0  0  0  0  0  0  0  0
   22.8042  -10.1563  -17.2749 N   0  0  0  0  0  0  0  0  0  0  0  0
   22.3273   -8.2525  -15.8338 C   0  0  0  0  0  0  0  0  0  0  0  0
   23.4231   -7.6733  -16.0535 O   0  0  0  0  0  0  0  0  0  0  0  0
   21.3053   -7.4345  -15.2770 N   0  0  0  0  0  0  0  0  0  0  0  0
   21.4838   -5.9797  -15.1030 C   0  0  1  0  0  0  0  0  0  0  0  0
   21.6955   -5.3813  -16.4608 C   0  0  0  0  0  0  0  0  0  0  0  0
   21.7111   -3.9254  -16.4916 C   0  0  0  0  0  0  0  0  0  0  0  0
   21.7725   -3.2381  -15.4546 O   0  0  0  0  0  0  0  0  0  0  0  0
   20.2150   -5.4852  -14.5097 C   0  0  0  0  0  0  0  0  0  0  0  0
   19.0786   -5.9045  -14.8122 O   0  0  0  0  0  0  0  0  0  0  0  0
   21.6560   -3.2713  -17.7131 O   0  0  0  0  0  0  0  0  0  0  0  0
   20.2497   -4.4813  -13.5419 O   0  0  0  0  0  0  0  0  0  0  0  0
  2  3  1  6
  2  1  1  0
  4  2  1  0
  4  5  1  6
  6  7  2  0
  6  4  1  0
  9  8  1  1
  9 11  1  0
 10  9  1  0
 11 12  1  6
 12  6  1  0
 13 15  1  0
 13 11  1  0
 14 13  2  0
 16 15  1  0
 16 20  1  0
 17 18  1  0
 16 17  1  6
 18 19  2  0
 20 21  2  0
 20 23  1  0
 22 18  1  0
M  END
$$$$
