VVD.pdb
     RDKit          3D

 23 22  0  0  1  0  0  0  0  0999 V2000
   27.8177  -12.3087  -16.1740 C   0  0  0  0  0  0  0  0  0  0  0  0
   26.5895  -11.4698  -16.3588 C   0  0  2  0  0  0  0  0  0  0  0  0
   26.4216  -10.5500  -15.1728 C   0  0  0  0  0  0  0  0  0  0  0  0
   25.3339  -12.2785  -16.5043 C   0  0  2  0  0  0  0  0  0  0  0  0
   25.4293  -13.3056  -17.4987 N   0  0  0  0  0  0  0  0  0  0  0  0
   24.1385  -11.4461  -16.7704 C   0  0  0  0  0  0  0  0  0  0  0  0
   24.0585  -10.8891  -17.8916 O   0  0  0  0  0  0  0  0  0  0  0  0
   20.5917  -12.1844  -17.2374 C   0  0  0  0  0  0  0  0  0  0  0  0
   20.6529  -11.2051  -16.0749 C   0  0  2  0  0  0  0  0  0  0  0  0
   19.4470  -10.3093  -16.1754 C   0  0  0  0  0  0  0  0  0  0  0  0
   21.9437  -10.4390  -16.0543 C   0  0  2  0  0  0  0  0  0  0  0  0
   23.0959  -11.2497  -15.8359 N   0  0  0  0  0  0  0  0  0  0  0  0
   21.8783   -9.2559  -15.1498 C   0  0  0  0  0  0  0  0  0  0  0  0
   22.2629   -9.2826  -13.9514 O   0  0  0  0  0  0  0  0  0  0  0  0
   21.3678   -8.0065  -15.5993 N   0  0  0  0  0  0  0  0  0  0  0  0
   21.3054   -6.8287  -14.7120 C   0  0  1  0  0  0  0  0  0  0  0  0
   22.4620   -5.9388  -15.0544 C   0  0  0  0  0  0  0  0  0  0  0  0
   22.5065   -4.6835  -14.3177 C   0  0  0  0  0  0  0  0  0  0  0  0
   21.6681   -4.3947  -13.4429 O   0  0  0  0  0  0  0  0  0  0  0  0
   20.0201   -6.1537  -15.0264 C   0  0  0  0  0  0  0  0  0  0  0  0
   19.4669   -5.3044  -14.2974 O   0  0  0  0  0  0  0  0  0  0  0  0
   23.5136   -3.7704  -14.5919 O   0  0  0  0  0  0  0  0  0  0  0  0
   19.3498   -6.4607  -16.2105 O   0  0  0  0  0  0  0  0  0  0  0  0
  2  3  1  1
  2  1  1  0
  4  2  1  0
  4  5  1  6
  6  7  2  0
  6  4  1  0
  9  8  1  6
  9 11  1  0
 10  9  1  0
 11 12  1  1
 12  6  1  0
 13 15  1  0
 13 11  1  0
 14 13  2  0
 16 15  1  0
 16 20  1  0
 17 18  1  0
 16 17  1  6
 18 19  2  0
 20 21  2  0
 20 23  1  0
 22 18  1  0
M  END
$$$$
