VVD.pdb
     RDKit          3D

 23 22  0  0  1  0  0  0  0  0999 V2000
   17.7199  -14.6088  -19.3927 C   0  0  0  0  0  0  0  0  0  0  0  0
   18.3068  -13.6829  -18.3706 C   0  0  2  0  0  0  0  0  0  0  0  0
   18.7954  -12.4250  -19.0486 C   0  0  0  0  0  0  0  0  0  0  0  0
   19.4561  -14.2832  -17.6153 C   0  0  2  0  0  0  0  0  0  0  0  0
   19.1313  -15.5219  -16.9728 N   0  0  0  0  0  0  0  0  0  0  0  0
   20.0432  -13.3540  -16.6231 C   0  0  0  0  0  0  0  0  0  0  0  0
   19.3874  -13.1338  -15.5766 O   0  0  0  0  0  0  0  0  0  0  0  0
   23.5833  -13.3895  -15.0061 C   0  0  0  0  0  0  0  0  0  0  0  0
   23.3256  -12.0168  -15.6089 C   0  0  2  0  0  0  0  0  0  0  0  0
   23.9154  -10.9951  -14.6735 C   0  0  0  0  0  0  0  0  0  0  0  0
   21.8663  -11.7856  -15.8741 C   0  0  2  0  0  0  0  0  0  0  0  0
   21.2904  -12.7101  -16.7939 N   0  0  0  0  0  0  0  0  0  0  0  0
   21.5772  -10.3630  -16.2130 C   0  0  0  0  0  0  0  0  0  0  0  0
   21.9228   -9.8296  -17.2995 O   0  0  0  0  0  0  0  0  0  0  0  0
   20.8811   -9.5126  -15.3097 N   0  0  0  0  0  0  0  0  0  0  0  0
   20.5544   -8.1151  -15.6543 C   0  0  1  0  0  0  0  0  0  0  0  0
   19.0626   -8.0067  -15.7505 C   0  0  0  0  0  0  0  0  0  0  0  0
   18.5613   -6.6595  -15.9839 C   0  0  0  0  0  0  0  0  0  0  0  0
   19.3201   -5.6919  -16.1830 O   0  0  0  0  0  0  0  0  0  0  0  0
   21.0633   -7.2917  -14.5277 C   0  0  0  0  0  0  0  0  0  0  0  0
   20.9863   -6.0471  -14.4661 O   0  0  0  0  0  0  0  0  0  0  0  0
   17.1929   -6.4349  -15.9867 O   0  0  0  0  0  0  0  0  0  0  0  0
   21.6779   -7.9126  -13.4403 O   0  0  0  0  0  0  0  0  0  0  0  0
  2  3  1  6
  2  1  1  0
  4  2  1  0
  4  5  1  1
  6  7  2  0
  6  4  1  0
  9  8  1  1
  9 11  1  0
 10  9  1  0
 11 12  1  6
 12  6  1  0
 13 15  1  0
 13 11  1  0
 14 13  2  0
 16 15  1  0
 16 20  1  0
 17 18  1  0
 16 17  1  1
 18 19  2  0
 20 21  2  0
 20 23  1  0
 22 18  1  0
M  END
$$$$
