VVD.pdb
     RDKit          3D

 23 22  0  0  1  0  0  0  0  0999 V2000
   15.8584  -10.3530  -18.5129 C   0  0  0  0  0  0  0  0  0  0  0  0
   16.7413   -9.8252  -17.4228 C   0  0  2  0  0  0  0  0  0  0  0  0
   17.5120   -8.6295  -17.9300 C   0  0  0  0  0  0  0  0  0  0  0  0
   17.7275  -10.8359  -16.9153 C   0  0  2  0  0  0  0  0  0  0  0  0
   17.1129  -12.0199  -16.3929 N   0  0  0  0  0  0  0  0  0  0  0  0
   18.6576  -10.2789  -15.9066 C   0  0  0  0  0  0  0  0  0  0  0  0
   18.2252  -10.1329  -14.7381 O   0  0  0  0  0  0  0  0  0  0  0  0
   21.9649  -11.5120  -14.6062 C   0  0  0  0  0  0  0  0  0  0  0  0
   22.1894  -10.0950  -15.1122 C   0  0  2  0  0  0  0  0  0  0  0  0
   23.1566   -9.4276  -14.1711 C   0  0  0  0  0  0  0  0  0  0  0  0
   20.9004   -9.3383  -15.2511 C   0  0  2  0  0  0  0  0  0  0  0  0
   19.9920   -9.9077  -16.1908 N   0  0  0  0  0  0  0  0  0  0  0  0
   21.1270   -7.8803  -15.4630 C   0  0  0  0  0  0  0  0  0  0  0  0
   21.6843   -7.4116  -16.4899 O   0  0  0  0  0  0  0  0  0  0  0  0
   20.7182   -6.9186  -14.4978 N   0  0  0  0  0  0  0  0  0  0  0  0
   20.9971   -5.4794  -14.6691 C   0  0  1  0  0  0  0  0  0  0  0  0
   19.7047   -4.7410  -14.4929 C   0  0  0  0  0  0  0  0  0  0  0  0
   19.8273   -3.2901  -14.4734 C   0  0  0  0  0  0  0  0  0  0  0  0
   20.9103   -2.7105  -14.6804 O   0  0  0  0  0  0  0  0  0  0  0  0
   21.9511   -5.1213  -13.5884 C   0  0  0  0  0  0  0  0  0  0  0  0
   22.0737   -5.7448  -12.5137 O   0  0  0  0  0  0  0  0  0  0  0  0
   18.7051   -2.5170  -14.2162 O   0  0  0  0  0  0  0  0  0  0  0  0
   22.7889   -4.0170  -13.7440 O   0  0  0  0  0  0  0  0  0  0  0  0
  2  3  1  6
  2  1  1  0
  4  2  1  0
  4  5  1  1
  6  7  2  0
  6  4  1  0
  9  8  1  1
  9 11  1  0
 10  9  1  0
 11 12  1  6
 12  6  1  0
 13 15  1  0
 13 11  1  0
 14 13  2  0
 16 15  1  0
 16 20  1  0
 17 18  1  0
 16 17  1  1
 18 19  2  0
 20 21  2  0
 20 23  1  0
 22 18  1  0
M  END
$$$$
