VVD.pdb
     RDKit          3D

 23 22  0  0  1  0  0  0  0  0999 V2000
   18.9898  -11.0277  -21.0042 C   0  0  0  0  0  0  0  0  0  0  0  0
   19.2951  -10.4462  -19.6570 C   0  0  2  0  0  0  0  0  0  0  0  0
   20.1986   -9.2466  -19.8165 C   0  0  0  0  0  0  0  0  0  0  0  0
   19.9658  -11.4163  -18.7292 C   0  0  2  0  0  0  0  0  0  0  0  0
   19.2426  -12.6423  -18.5661 N   0  0  0  0  0  0  0  0  0  0  0  0
   20.2558  -10.8359  -17.3981 C   0  0  0  0  0  0  0  0  0  0  0  0
   19.3053  -10.7507  -16.5837 O   0  0  0  0  0  0  0  0  0  0  0  0
   22.3967  -11.8855  -14.5624 C   0  0  0  0  0  0  0  0  0  0  0  0
   22.8590  -10.4863  -14.9398 C   0  0  2  0  0  0  0  0  0  0  0  0
   23.2064   -9.7662  -13.6641 C   0  0  0  0  0  0  0  0  0  0  0  0
   21.8314   -9.7569  -15.7555 C   0  0  2  0  0  0  0  0  0  0  0  0
   21.5341  -10.3781  -17.0038 N   0  0  0  0  0  0  0  0  0  0  0  0
   22.1443   -8.3049  -15.8821 C   0  0  0  0  0  0  0  0  0  0  0  0
   23.0562   -7.8590  -16.6264 O   0  0  0  0  0  0  0  0  0  0  0  0
   21.4154   -7.3235  -15.1547 N   0  0  0  0  0  0  0  0  0  0  0  0
   21.7463   -5.8877  -15.2419 C   0  0  1  0  0  0  0  0  0  0  0  0
   20.5531   -5.1791  -15.8083 C   0  0  0  0  0  0  0  0  0  0  0  0
   20.6761   -3.7294  -15.8714 C   0  0  0  0  0  0  0  0  0  0  0  0
   21.7419   -3.1396  -15.6110 O   0  0  0  0  0  0  0  0  0  0  0  0
   21.9985   -5.4458  -13.8464 C   0  0  0  0  0  0  0  0  0  0  0  0
   22.4824   -4.3398  -13.5281 O   0  0  0  0  0  0  0  0  0  0  0  0
   19.5740   -2.9693  -16.2331 O   0  0  0  0  0  0  0  0  0  0  0  0
   21.6870   -6.2958  -12.7852 O   0  0  0  0  0  0  0  0  0  0  0  0
  2  3  1  6
  2  1  1  0
  4  2  1  0
  4  5  1  1
  6  7  2  0
  6  4  1  0
  9  8  1  1
  9 11  1  0
 10  9  1  0
 11 12  1  6
 12  6  1  0
 13 15  1  0
 13 11  1  0
 14 13  2  0
 16 15  1  0
 16 20  1  0
 17 18  1  0
 16 17  1  1
 18 19  2  0
 20 21  2  0
 20 23  1  0
 22 18  1  0
M  END
$$$$
