VVD.pdb
     RDKit          3D

 23 22  0  0  1  0  0  0  0  0999 V2000
   18.1838  -13.3234  -16.0315 C   0  0  0  0  0  0  0  0  0  0  0  0
   17.3064  -12.1094  -16.0864 C   0  0  2  0  0  0  0  0  0  0  0  0
   16.1111  -12.3882  -16.9664 C   0  0  0  0  0  0  0  0  0  0  0  0
   18.0063  -10.8941  -16.6201 C   0  0  2  0  0  0  0  0  0  0  0  0
   18.4647  -11.0464  -17.9690 N   0  0  0  0  0  0  0  0  0  0  0  0
   19.1323  -10.4542  -15.7651 C   0  0  0  0  0  0  0  0  0  0  0  0
   18.8690  -10.1285  -14.5825 O   0  0  0  0  0  0  0  0  0  0  0  0
   22.5888  -12.1361  -15.1024 C   0  0  0  0  0  0  0  0  0  0  0  0
   22.8150  -10.6979  -15.5437 C   0  0  2  0  0  0  0  0  0  0  0  0
   23.9427  -10.1433  -14.7145 C   0  0  0  0  0  0  0  0  0  0  0  0
   21.5627   -9.8765  -15.4422 C   0  0  2  0  0  0  0  0  0  0  0  0
   20.4729  -10.3833  -16.2089 N   0  0  0  0  0  0  0  0  0  0  0  0
   21.8226   -8.4277  -15.6778 C   0  0  0  0  0  0  0  0  0  0  0  0
   21.9789   -7.9333  -16.8249 O   0  0  0  0  0  0  0  0  0  0  0  0
   21.9104   -7.5052  -14.5984 N   0  0  0  0  0  0  0  0  0  0  0  0
   22.0611   -6.0548  -14.8268 C   0  0  1  0  0  0  0  0  0  0  0  0
   20.8202   -5.5707  -15.5140 C   0  0  0  0  0  0  0  0  0  0  0  0
   20.7801   -4.1367  -15.7647 C   0  0  0  0  0  0  0  0  0  0  0  0
   21.8105   -3.4675  -15.9697 O   0  0  0  0  0  0  0  0  0  0  0  0
   22.1798   -5.4437  -13.4782 C   0  0  0  0  0  0  0  0  0  0  0  0
   21.7551   -5.9609  -12.4242 O   0  0  0  0  0  0  0  0  0  0  0  0
   19.5569   -3.4834  -15.7777 O   0  0  0  0  0  0  0  0  0  0  0  0
   22.8034   -4.2045  -13.3334 O   0  0  0  0  0  0  0  0  0  0  0  0
  2  3  1  6
  2  1  1  0
  4  2  1  0
  4  5  1  6
  6  7  2  0
  6  4  1  0
  9  8  1  1
  9 11  1  0
 10  9  1  0
 11 12  1  6
 12  6  1  0
 13 15  1  0
 13 11  1  0
 14 13  2  0
 16 15  1  0
 16 20  1  0
 17 18  1  0
 16 17  1  1
 18 19  2  0
 20 21  2  0
 20 23  1  0
 22 18  1  0
M  END
$$$$
