VVD.pdb
     RDKit          3D

 23 22  0  0  1  0  0  0  0  0999 V2000
   27.1057  -14.5676  -15.1776 C   0  0  0  0  0  0  0  0  0  0  0  0
   26.1777  -13.5384  -15.7486 C   0  0  2  0  0  0  0  0  0  0  0  0
   26.3176  -12.2474  -14.9776 C   0  0  0  0  0  0  0  0  0  0  0  0
   24.7357  -13.9519  -15.7101 C   0  0  2  0  0  0  0  0  0  0  0  0
   24.4869  -15.2124  -16.3440 N   0  0  0  0  0  0  0  0  0  0  0  0
   23.8266  -12.9292  -16.2759 C   0  0  0  0  0  0  0  0  0  0  0  0
   23.9310  -12.6746  -17.4998 O   0  0  0  0  0  0  0  0  0  0  0  0
   20.8117  -12.7390  -17.6837 C   0  0  0  0  0  0  0  0  0  0  0  0
   20.6485  -11.8050  -16.4941 C   0  0  2  0  0  0  0  0  0  0  0  0
   19.6734  -10.7300  -16.8946 C   0  0  0  0  0  0  0  0  0  0  0  0
   21.9645  -11.2505  -16.0317 C   0  0  2  0  0  0  0  0  0  0  0  0
   22.8588  -12.2334  -15.5153 N   0  0  0  0  0  0  0  0  0  0  0  0
   21.7916  -10.0799  -15.1250 C   0  0  0  0  0  0  0  0  0  0  0  0
   21.4144  -10.1849  -13.9286 O   0  0  0  0  0  0  0  0  0  0  0  0
   22.0481   -8.7533  -15.5700 N   0  0  0  0  0  0  0  0  0  0  0  0
   22.0204   -7.6046  -14.6437 C   0  0  1  0  0  0  0  0  0  0  0  0
   22.7282   -6.4643  -15.3111 C   0  0  0  0  0  0  0  0  0  0  0  0
   22.7215   -5.2169  -14.5598 C   0  0  0  0  0  0  0  0  0  0  0  0
   22.9464   -5.1758  -13.3352 O   0  0  0  0  0  0  0  0  0  0  0  0
   20.5846   -7.2799  -14.4455 C   0  0  0  0  0  0  0  0  0  0  0  0
   19.7361   -7.2245  -15.3598 O   0  0  0  0  0  0  0  0  0  0  0  0
   22.4566   -4.0271  -15.2210 O   0  0  0  0  0  0  0  0  0  0  0  0
   20.1074   -7.0112  -13.1627 O   0  0  0  0  0  0  0  0  0  0  0  0
  2  3  1  1
  2  1  1  0
  4  2  1  0
  4  5  1  6
  6  7  2  0
  6  4  1  0
  9  8  1  6
  9 11  1  0
 10  9  1  0
 11 12  1  1
 12  6  1  0
 13 15  1  0
 13 11  1  0
 14 13  2  0
 16 15  1  0
 16 20  1  0
 17 18  1  0
 16 17  1  6
 18 19  2  0
 20 21  2  0
 20 23  1  0
 22 18  1  0
M  END
$$$$
