GYG.pdb
     RDKit          3D

 21 21  0  0  1  0  0  0  0  0999 V2000
   29.0251  -23.1712  -17.6710 N   0  0  0  0  0  0  0  0  0  0  0  0
   28.3876  -21.9417  -17.2651 C   0  0  0  0  0  0  0  0  0  0  0  0
   27.4908  -22.1580  -16.0885 C   0  0  0  0  0  0  0  0  0  0  0  0
   27.1885  -23.3108  -15.6904 O   0  0  0  0  0  0  0  0  0  0  0  0
   23.4617  -20.9975   -8.3221 O   0  0  0  0  0  0  0  0  0  0  0  0
   24.1637  -20.7905   -9.5217 C   0  0  0  0  0  0  0  0  0  0  0  0
   25.4792  -21.1732   -9.6585 C   0  0  0  0  0  0  0  0  0  0  0  0
   26.1541  -20.9610  -10.8480 C   0  0  0  0  0  0  0  0  0  0  0  0
   25.5575  -20.3677  -11.9355 C   0  0  0  0  0  0  0  0  0  0  0  0
   26.2563  -20.1386  -13.1927 C   0  0  0  0  0  0  0  0  0  0  0  0
   26.0734  -21.2434  -14.2071 C   0  0  2  0  0  0  0  0  0  0  0  0
   26.9341  -21.0621  -15.3597 N   0  0  0  0  0  0  0  0  0  0  0  0
   24.6627  -21.1687  -14.6741 C   0  0  0  0  0  0  0  0  0  0  0  0
   24.2883  -20.2712  -15.4977 O   0  0  0  0  0  0  0  0  0  0  0  0
   24.2428  -19.9864  -11.7955 C   0  0  0  0  0  0  0  0  0  0  0  0
   23.5475  -20.1942  -10.5997 C   0  0  0  0  0  0  0  0  0  0  0  0
   23.6613  -22.0689  -14.2457 N   0  0  0  0  0  0  0  0  0  0  0  0
   22.2772  -21.9803  -14.7347 C   0  0  0  0  0  0  0  0  0  0  0  0
   21.4664  -21.0961  -13.9020 C   0  0  0  0  0  0  0  0  0  0  0  0
   21.8282  -19.9225  -13.6539 O   0  0  0  0  0  0  0  0  0  0  0  0
   20.2747  -21.5551  -13.3728 O   0  0  0  0  0  0  0  0  0  0  0  0
  1  2  1  0
  3  4  2  0
  3  2  1  0
  6  5  1  0
  6  7  2  0
  8  7  1  0
  9  8  2  0
 10  9  1  0
 11 12  1  0
 11 10  1  1
 12  3  1  0
 13 11  1  0
 14 13  2  0
 15 16  2  0
 15  9  1  0
 16  6  1  0
 17 13  1  0
 18 17  1  0
 19 18  1  0
 19 21  1  0
 20 19  2  0
M  END
$$$$
