GYG.pdb
     RDKit          3D

 21 21  0  0  1  0  0  0  0  0999 V2000
   12.3456  -15.7623    4.9740 N   0  0  0  0  0  0  0  0  0  0  0  0
   13.7290  -15.5261    5.3104 C   0  0  0  0  0  0  0  0  0  0  0  0
   14.4264  -16.8000    5.6658 C   0  0  0  0  0  0  0  0  0  0  0  0
   13.8467  -17.9127    5.5969 O   0  0  0  0  0  0  0  0  0  0  0  0
   15.8910  -20.2310    0.4405 O   0  0  0  0  0  0  0  0  0  0  0  0
   16.3160  -19.7512    1.6910 C   0  0  0  0  0  0  0  0  0  0  0  0
   16.4899  -18.4050    1.9219 C   0  0  0  0  0  0  0  0  0  0  0  0
   16.9091  -17.9515    3.1604 C   0  0  0  0  0  0  0  0  0  0  0  0
   17.1693  -18.8055    4.2062 C   0  0  0  0  0  0  0  0  0  0  0  0
   17.6109  -18.3413    5.5141 C   0  0  0  0  0  0  0  0  0  0  0  0
   16.4818  -18.0310    6.4689 C   0  0  2  0  0  0  0  0  0  0  0  0
   15.7872  -16.8124    6.1013 N   0  0  0  0  0  0  0  0  0  0  0  0
   17.0965  -17.8203    7.8074 C   0  0  0  0  0  0  0  0  0  0  0  0
   17.6961  -16.7326    8.0929 O   0  0  0  0  0  0  0  0  0  0  0  0
   16.9946  -20.1502    3.9722 C   0  0  0  0  0  0  0  0  0  0  0  0
   16.5714  -20.6238    2.7259 C   0  0  0  0  0  0  0  0  0  0  0  0
   17.0589  -18.7913    8.8333 N   0  0  0  0  0  0  0  0  0  0  0  0
   17.6929  -18.5642   10.1407 C   0  0  0  0  0  0  0  0  0  0  0  0
   18.6058  -19.6482   10.4930 C   0  0  0  0  0  0  0  0  0  0  0  0
   18.7844  -20.6238    9.7276 O   0  0  0  0  0  0  0  0  0  0  0  0
   19.2906  -19.6048   11.6931 O   0  0  0  0  0  0  0  0  0  0  0  0
  1  2  1  0
  3  4  2  0
  3  2  1  0
  6  5  1  0
  6  7  2  0
  8  7  1  0
  9  8  2  0
 10  9  1  0
 11 12  1  0
 11 10  1  6
 12  3  1  0
 13 11  1  0
 14 13  2  0
 15 16  2  0
 15  9  1  0
 16  6  1  0
 17 13  1  0
 18 17  1  0
 19 18  1  0
 19 21  1  0
 20 19  2  0
M  END
$$$$
