GYG.pdb
     RDKit          3D

 21 21  0  0  1  0  0  0  0  0999 V2000
   21.8095    0.9603  -19.8960 N   0  0  0  0  0  0  0  0  0  0  0  0
   20.9432    1.0438  -18.7448 C   0  0  0  0  0  0  0  0  0  0  0  0
   21.2681   -0.0172  -17.7428 C   0  0  0  0  0  0  0  0  0  0  0  0
   22.4135   -0.5286  -17.6689 O   0  0  0  0  0  0  0  0  0  0  0  0
   23.1789    4.1079  -13.6292 O   0  0  0  0  0  0  0  0  0  0  0  0
   22.4799    2.9043  -13.8228 C   0  0  0  0  0  0  0  0  0  0  0  0
   21.2592    2.8779  -14.4592 C   0  0  0  0  0  0  0  0  0  0  0  0
   20.5856    1.6826  -14.6406 C   0  0  0  0  0  0  0  0  0  0  0  0
   21.0905    0.4808  -14.2031 C   0  0  0  0  0  0  0  0  0  0  0  0
   20.3920   -0.7838  -14.3876 C   0  0  0  0  0  0  0  0  0  0  0  0
   20.6130   -1.4153  -15.7424 C   0  0  2  0  0  0  0  0  0  0  0  0
   20.2899   -0.5009  -16.8203 N   0  0  0  0  0  0  0  0  0  0  0  0
   19.6844   -2.5743  -15.8329 C   0  0  0  0  0  0  0  0  0  0  0  0
   19.6040   -3.4287  -14.8908 O   0  0  0  0  0  0  0  0  0  0  0  0
   22.3106    0.5107  -13.5676 C   0  0  0  0  0  0  0  0  0  0  0  0
   23.0034    1.7109  -13.3768 C   0  0  0  0  0  0  0  0  0  0  0  0
   18.8450   -2.8031  -16.9463 N   0  0  0  0  0  0  0  0  0  0  0  0
   17.9656   -3.9791  -17.0268 C   0  0  0  0  0  0  0  0  0  0  0  0
   18.6989   -5.1741  -17.4353 C   0  0  0  0  0  0  0  0  0  0  0  0
   19.5089   -5.7369  -16.6628 O   0  0  0  0  0  0  0  0  0  0  0  0
   18.5014   -5.7014  -18.6978 O   0  0  0  0  0  0  0  0  0  0  0  0
  1  2  1  0
  3  4  2  0
  3  2  1  0
  6  5  1  0
  6  7  2  0
  8  7  1  0
  9  8  2  0
 10  9  1  0
 11 12  1  0
 11 10  1  1
 12  3  1  0
 13 11  1  0
 14 13  2  0
 15 16  2  0
 15  9  1  0
 16  6  1  0
 17 13  1  0
 18 17  1  0
 19 18  1  0
 19 21  1  0
 20 19  2  0
M  END
$$$$
