GYG.pdb
     RDKit          3D

 21 21  0  0  1  0  0  0  0  0999 V2000
   27.6500  -11.1430  -16.8632 N   0  0  0  0  0  0  0  0  0  0  0  0
   26.9124  -11.0817  -15.6243 C   0  0  0  0  0  0  0  0  0  0  0  0
   25.5448  -10.5152  -15.8342 C   0  0  0  0  0  0  0  0  0  0  0  0
   25.1662  -10.1005  -16.9583 O   0  0  0  0  0  0  0  0  0  0  0  0
   16.8096   -9.9580  -15.6153 O   0  0  0  0  0  0  0  0  0  0  0  0
   18.1581  -10.2072  -15.3086 C   0  0  0  0  0  0  0  0  0  0  0  0
   19.0611  -10.5670  -16.2837 C   0  0  0  0  0  0  0  0  0  0  0  0
   20.3854  -10.8084  -15.9622 C   0  0  0  0  0  0  0  0  0  0  0  0
   20.8602  -10.7035  -14.6760 C   0  0  0  0  0  0  0  0  0  0  0  0
   22.2511  -10.9548  -14.3243 C   0  0  0  0  0  0  0  0  0  0  0  0
   23.2290   -9.9979  -14.9656 C   0  0  2  0  0  0  0  0  0  0  0  0
   24.6020  -10.4185  -14.7648 N   0  0  0  0  0  0  0  0  0  0  0  0
   23.0503   -8.6842  -14.2902 C   0  0  0  0  0  0  0  0  0  0  0  0
   23.4117   -8.5111  -13.0805 O   0  0  0  0  0  0  0  0  0  0  0  0
   19.9552  -10.3437  -13.7040 C   0  0  0  0  0  0  0  0  0  0  0  0
   18.6136  -10.0966  -14.0134 C   0  0  0  0  0  0  0  0  0  0  0  0
   22.4795   -7.5611  -14.9300 N   0  0  0  0  0  0  0  0  0  0  0  0
   22.2485   -6.2957  -14.2170 C   0  0  0  0  0  0  0  0  0  0  0  0
   21.6257   -5.2960  -15.0804 C   0  0  0  0  0  0  0  0  0  0  0  0
   21.3618   -5.5448  -16.2796 O   0  0  0  0  0  0  0  0  0  0  0  0
   21.3179   -4.0478  -14.5724 O   0  0  0  0  0  0  0  0  0  0  0  0
  1  2  1  0
  3  4  2  0
  3  2  1  0
  6  5  1  0
  6  7  2  0
  8  7  1  0
  9  8  2  0
 10  9  1  0
 11 12  1  0
 11 10  1  1
 12  3  1  0
 13 11  1  0
 14 13  2  0
 15 16  2  0
 15  9  1  0
 16  6  1  0
 17 13  1  0
 18 17  1  0
 19 18  1  0
 19 21  1  0
 20 19  2  0
M  END
$$$$
