GYG.pdb
     RDKit          3D

 21 21  0  0  1  0  0  0  0  0999 V2000
   28.5747  -18.4748  -14.6564 N   0  0  0  0  0  0  0  0  0  0  0  0
   27.7910  -18.3123  -13.4555 C   0  0  0  0  0  0  0  0  0  0  0  0
   27.2496  -19.6220  -12.9792 C   0  0  0  0  0  0  0  0  0  0  0  0
   27.6089  -20.7117  -13.4913 O   0  0  0  0  0  0  0  0  0  0  0  0
   29.4000  -19.5635   -6.3508 O   0  0  0  0  0  0  0  0  0  0  0  0
   28.3861  -19.8978   -7.2645 C   0  0  0  0  0  0  0  0  0  0  0  0
   28.5126  -20.9732   -8.1150 C   0  0  0  0  0  0  0  0  0  0  0  0
   27.5031  -21.2869   -9.0082 C   0  0  0  0  0  0  0  0  0  0  0  0
   26.3422  -20.5548   -9.0917 C   0  0  0  0  0  0  0  0  0  0  0  0
   25.2723  -20.8742  -10.0270 C   0  0  0  0  0  0  0  0  0  0  0  0
   25.7189  -20.9487  -11.4685 C   0  0  2  0  0  0  0  0  0  0  0  0
   26.2965  -19.6967  -11.9172 N   0  0  0  0  0  0  0  0  0  0  0  0
   24.5009  -21.2076  -12.2829 C   0  0  0  0  0  0  0  0  0  0  0  0
   23.3804  -20.6833  -11.9768 O   0  0  0  0  0  0  0  0  0  0  0  0
   26.2189  -19.4808   -8.2404 C   0  0  0  0  0  0  0  0  0  0  0  0
   27.2305  -19.1513   -7.3323 C   0  0  0  0  0  0  0  0  0  0  0  0
   24.5021  -22.0354  -13.4281 N   0  0  0  0  0  0  0  0  0  0  0  0
   23.4249  -23.0021  -13.6882 C   0  0  0  0  0  0  0  0  0  0  0  0
   23.6084  -23.6830  -14.9671 C   0  0  0  0  0  0  0  0  0  0  0  0
   22.7626  -23.5820  -15.8858 O   0  0  0  0  0  0  0  0  0  0  0  0
   24.7349  -24.4563  -15.1765 O   0  0  0  0  0  0  0  0  0  0  0  0
  1  2  1  0
  3  4  2  0
  3  2  1  0
  6  5  1  0
  6  7  2  0
  8  7  1  0
  9  8  2  0
 10  9  1  0
 11 12  1  0
 11 10  1  1
 12  3  1  0
 13 11  1  0
 14 13  2  0
 15 16  2  0
 15  9  1  0
 16  6  1  0
 17 13  1  0
 18 17  1  0
 19 18  1  0
 19 21  1  0
 20 19  2  0
M  END
$$$$
