GYG.pdb
     RDKit          3D

 21 21  0  0  1  0  0  0  0  0999 V2000
   24.9841  -25.2835  -15.1691 N   0  0  0  0  0  0  0  0  0  0  0  0
   24.9557  -23.8729  -15.4727 C   0  0  0  0  0  0  0  0  0  0  0  0
   23.8153  -23.1926  -14.7856 C   0  0  0  0  0  0  0  0  0  0  0  0
   23.0230  -23.8208  -14.0396 O   0  0  0  0  0  0  0  0  0  0  0  0
   25.9291  -20.9790   -8.7339 O   0  0  0  0  0  0  0  0  0  0  0  0
   25.2356  -20.7035   -9.9245 C   0  0  0  0  0  0  0  0  0  0  0  0
   25.8834  -20.6602  -11.1387 C   0  0  0  0  0  0  0  0  0  0  0  0
   25.1832  -20.3872  -12.3009 C   0  0  0  0  0  0  0  0  0  0  0  0
   23.8289  -20.1493  -12.3041 C   0  0  0  0  0  0  0  0  0  0  0  0
   23.0803  -19.8609  -13.5197 C   0  0  0  0  0  0  0  0  0  0  0  0
   22.5377  -21.0891  -14.2126 C   0  0  2  0  0  0  0  0  0  0  0  0
   23.5720  -21.7936  -14.9449 N   0  0  0  0  0  0  0  0  0  0  0  0
   21.5244  -20.6164  -15.1941 C   0  0  0  0  0  0  0  0  0  0  0  0
   21.8745  -20.0618  -16.2868 O   0  0  0  0  0  0  0  0  0  0  0  0
   23.1846  -20.1933  -11.0891 C   0  0  0  0  0  0  0  0  0  0  0  0
   23.8786  -20.4679   -9.9060 C   0  0  0  0  0  0  0  0  0  0  0  0
   20.1327  -20.7468  -14.9871 N   0  0  0  0  0  0  0  0  0  0  0  0
   19.1527  -20.2579  -15.9686 C   0  0  0  0  0  0  0  0  0  0  0  0
   18.6090  -18.9576  -15.5863 C   0  0  0  0  0  0  0  0  0  0  0  0
   18.9201  -17.9140  -16.2059 O   0  0  0  0  0  0  0  0  0  0  0  0
   17.7331  -18.8674  -14.5207 O   0  0  0  0  0  0  0  0  0  0  0  0
  1  2  1  0
  3  4  2  0
  3  2  1  0
  6  5  1  0
  6  7  2  0
  8  7  1  0
  9  8  2  0
 10  9  1  0
 11 12  1  0
 11 10  1  6
 12  3  1  0
 13 11  1  0
 14 13  2  0
 15 16  2  0
 15  9  1  0
 16  6  1  0
 17 13  1  0
 18 17  1  0
 19 18  1  0
 19 21  1  0
 20 19  2  0
M  END
$$$$
