GYG.pdb
     RDKit          3D

 21 21  0  0  1  0  0  0  0  0999 V2000
   28.3795  -23.3935  -16.1344 N   0  0  0  0  0  0  0  0  0  0  0  0
   27.9651  -22.0885  -15.6784 C   0  0  0  0  0  0  0  0  0  0  0  0
   26.8413  -22.1879  -14.6973 C   0  0  0  0  0  0  0  0  0  0  0  0
   26.1290  -23.2194  -14.6099 O   0  0  0  0  0  0  0  0  0  0  0  0
   29.2442  -21.1147   -7.6449 O   0  0  0  0  0  0  0  0  0  0  0  0
   28.3350  -20.8628   -8.6864 C   0  0  0  0  0  0  0  0  0  0  0  0
   28.7049  -20.9848  -10.0070 C   0  0  0  0  0  0  0  0  0  0  0  0
   27.7952  -20.7324  -11.0191 C   0  0  0  0  0  0  0  0  0  0  0  0
   26.4983  -20.3536  -10.7637 C   0  0  0  0  0  0  0  0  0  0  0  0
   25.5313  -20.0851  -11.8193 C   0  0  0  0  0  0  0  0  0  0  0  0
   25.4344  -21.1798  -12.8562 C   0  0  2  0  0  0  0  0  0  0  0  0
   26.5235  -21.1130  -13.8110 N   0  0  0  0  0  0  0  0  0  0  0  0
   24.1632  -20.9586  -13.5971 C   0  0  0  0  0  0  0  0  0  0  0  0
   23.9097  -19.8389  -14.1503 O   0  0  0  0  0  0  0  0  0  0  0  0
   26.1319  -20.2326   -9.4430 C   0  0  0  0  0  0  0  0  0  0  0  0
   27.0399  -20.4843   -8.4091 C   0  0  0  0  0  0  0  0  0  0  0  0
   23.1698  -21.9538  -13.7357 N   0  0  0  0  0  0  0  0  0  0  0  0
   22.0316  -22.0490  -12.8093 C   0  0  0  0  0  0  0  0  0  0  0  0
   20.8954  -21.2540  -13.2673 C   0  0  0  0  0  0  0  0  0  0  0  0
   19.9892  -21.7580  -13.9704 O   0  0  0  0  0  0  0  0  0  0  0  0
   20.8103  -19.9179  -12.9226 O   0  0  0  0  0  0  0  0  0  0  0  0
  1  2  1  0
  3  4  2  0
  3  2  1  0
  6  5  1  0
  6  7  2  0
  8  7  1  0
  9  8  2  0
 10  9  1  0
 11 12  1  0
 11 10  1  1
 12  3  1  0
 13 11  1  0
 14 13  2  0
 15 16  2  0
 15  9  1  0
 16  6  1  0
 17 13  1  0
 18 17  1  0
 19 18  1  0
 19 21  1  0
 20 19  2  0
M  END
$$$$
