GYG.pdb
     RDKit          3D

 21 21  0  0  1  0  0  0  0  0999 V2000
   25.7810  -12.2930  -20.5712 N   0  0  0  0  0  0  0  0  0  0  0  0
   24.9556  -11.1146  -20.4581 C   0  0  0  0  0  0  0  0  0  0  0  0
   24.7186  -10.7532  -19.0269 C   0  0  0  0  0  0  0  0  0  0  0  0
   24.2001  -11.5625  -18.2175 O   0  0  0  0  0  0  0  0  0  0  0  0
   30.2429  -12.7486  -16.7639 O   0  0  0  0  0  0  0  0  0  0  0  0
   29.2618  -11.7441  -16.7090 C   0  0  0  0  0  0  0  0  0  0  0  0
   29.2696  -10.6845  -17.5881 C   0  0  0  0  0  0  0  0  0  0  0  0
   28.2947   -9.7047  -17.5184 C   0  0  0  0  0  0  0  0  0  0  0  0
   27.2855   -9.7373  -16.5850 C   0  0  0  0  0  0  0  0  0  0  0  0
   26.2536   -8.7128  -16.5010 C   0  0  0  0  0  0  0  0  0  0  0  0
   24.9324   -9.1209  -17.1098 C   0  0  2  0  0  0  0  0  0  0  0  0
   25.0710   -9.4682  -18.5107 N   0  0  0  0  0  0  0  0  0  0  0  0
   24.0340   -7.9383  -17.0191 C   0  0  0  0  0  0  0  0  0  0  0  0
   24.1399   -6.9666  -17.8368 O   0  0  0  0  0  0  0  0  0  0  0  0
   27.2806  -10.7975  -15.7080 C   0  0  0  0  0  0  0  0  0  0  0  0
   28.2591  -11.7954  -15.7659 C   0  0  0  0  0  0  0  0  0  0  0  0
   23.0223   -7.8133  -16.0406 N   0  0  0  0  0  0  0  0  0  0  0  0
   22.1618   -6.6234  -15.9613 C   0  0  0  0  0  0  0  0  0  0  0  0
   21.2497   -6.6922  -14.8229 C   0  0  0  0  0  0  0  0  0  0  0  0
   20.5087   -5.7275  -14.5228 O   0  0  0  0  0  0  0  0  0  0  0  0
   21.1966   -7.8409  -14.0556 O   0  0  0  0  0  0  0  0  0  0  0  0
  1  2  1  0
  3  4  2  0
  3  2  1  0
  6  5  1  0
  6  7  2  0
  8  7  1  0
  9  8  2  0
 10  9  1  0
 11 12  1  0
 11 10  1  6
 12  3  1  0
 13 11  1  0
 14 13  2  0
 15 16  2  0
 15  9  1  0
 16  6  1  0
 17 13  1  0
 18 17  1  0
 19 18  1  0
 19 21  1  0
 20 19  2  0
M  END
$$$$
