GYG.pdb
     RDKit          3D

 21 21  0  0  1  0  0  0  0  0999 V2000
   24.1768  -24.9834  -15.0205 N   0  0  0  0  0  0  0  0  0  0  0  0
   25.4397  -24.2919  -14.9220 C   0  0  0  0  0  0  0  0  0  0  0  0
   25.2442  -22.8111  -14.8558 C   0  0  0  0  0  0  0  0  0  0  0  0
   24.1386  -22.2775  -15.1236 O   0  0  0  0  0  0  0  0  0  0  0  0
   23.4149  -21.0842   -8.4403 O   0  0  0  0  0  0  0  0  0  0  0  0
   24.2148  -20.8253   -9.5662 C   0  0  0  0  0  0  0  0  0  0  0  0
   23.6597  -20.4609  -10.7724 C   0  0  0  0  0  0  0  0  0  0  0  0
   24.4640  -20.2099  -11.8704 C   0  0  0  0  0  0  0  0  0  0  0  0
   25.8343  -20.3093  -11.8156 C   0  0  0  0  0  0  0  0  0  0  0  0
   26.6919  -20.0479  -12.9634 C   0  0  0  0  0  0  0  0  0  0  0  0
   26.1125  -20.5090  -14.2804 C   0  0  2  0  0  0  0  0  0  0  0  0
   26.3070  -21.9313  -14.4842 N   0  0  0  0  0  0  0  0  0  0  0  0
   26.8529  -19.7887  -15.3512 C   0  0  0  0  0  0  0  0  0  0  0  0
   28.0008  -20.1842  -15.7386 O   0  0  0  0  0  0  0  0  0  0  0  0
   26.3858  -20.6736  -10.6087 C   0  0  0  0  0  0  0  0  0  0  0  0
   25.5862  -20.9306   -9.4902 C   0  0  0  0  0  0  0  0  0  0  0  0
   26.3453  -18.6402  -15.9994 N   0  0  0  0  0  0  0  0  0  0  0  0
   27.0996  -17.9473  -17.0546 C   0  0  0  0  0  0  0  0  0  0  0  0
   26.5084  -18.1652  -18.3721 C   0  0  0  0  0  0  0  0  0  0  0  0
   25.9915  -19.2641  -18.6802 O   0  0  0  0  0  0  0  0  0  0  0  0
   26.5150  -17.1440  -19.3038 O   0  0  0  0  0  0  0  0  0  0  0  0
  1  2  1  0
  3  4  2  0
  3  2  1  0
  6  5  1  0
  6  7  2  0
  8  7  1  0
  9  8  2  0
 10  9  1  0
 11 12  1  0
 11 10  1  1
 12  3  1  0
 13 11  1  0
 14 13  2  0
 15 16  2  0
 15  9  1  0
 16  6  1  0
 17 13  1  0
 18 17  1  0
 19 18  1  0
 19 21  1  0
 20 19  2  0
M  END
$$$$
