GYG.pdb
     RDKit          3D

 21 21  0  0  1  0  0  0  0  0999 V2000
   22.1424   -9.9239  -20.7092 N   0  0  0  0  0  0  0  0  0  0  0  0
   23.0653   -9.0592  -20.0140 C   0  0  0  0  0  0  0  0  0  0  0  0
   22.7888   -9.0393  -18.5448 C   0  0  0  0  0  0  0  0  0  0  0  0
   22.1971   -9.9872  -17.9703 O   0  0  0  0  0  0  0  0  0  0  0  0
   28.1001  -12.0197  -16.7163 O   0  0  0  0  0  0  0  0  0  0  0  0
   27.2052  -10.9673  -16.4593 C   0  0  0  0  0  0  0  0  0  0  0  0
   27.1864   -9.8342  -17.2413 C   0  0  0  0  0  0  0  0  0  0  0  0
   26.2975   -8.8080  -16.9726 C   0  0  0  0  0  0  0  0  0  0  0  0
   25.4029   -8.8650  -15.9299 C   0  0  0  0  0  0  0  0  0  0  0  0
   24.4624   -7.7923  -15.6364 C   0  0  0  0  0  0  0  0  0  0  0  0
   23.1055   -7.9734  -16.2758 C   0  0  2  0  0  0  0  0  0  0  0  0
   23.1849   -7.9394  -17.7231 N   0  0  0  0  0  0  0  0  0  0  0  0
   22.2672   -6.8250  -15.8373 C   0  0  0  0  0  0  0  0  0  0  0  0
   21.9687   -6.6584  -14.6096 O   0  0  0  0  0  0  0  0  0  0  0  0
   25.4242   -9.9987  -15.1504 C   0  0  0  0  0  0  0  0  0  0  0  0
   26.3167  -11.0441  -15.4095 C   0  0  0  0  0  0  0  0  0  0  0  0
   21.7546   -5.8598  -16.7330 N   0  0  0  0  0  0  0  0  0  0  0  0
   20.9599   -4.7133  -16.2673 C   0  0  0  0  0  0  0  0  0  0  0  0
   21.8093   -3.6351  -15.7687 C   0  0  0  0  0  0  0  0  0  0  0  0
   21.9873   -2.5869  -16.4314 O   0  0  0  0  0  0  0  0  0  0  0  0
   22.4333   -3.7655  -14.5421 O   0  0  0  0  0  0  0  0  0  0  0  0
  1  2  1  0
  3  4  2  0
  3  2  1  0
  6  5  1  0
  6  7  2  0
  8  7  1  0
  9  8  2  0
 10  9  1  0
 11 12  1  0
 11 10  1  1
 12  3  1  0
 13 11  1  0
 14 13  2  0
 15 16  2  0
 15  9  1  0
 16  6  1  0
 17 13  1  0
 18 17  1  0
 19 18  1  0
 19 21  1  0
 20 19  2  0
M  END
$$$$
