CYR.pdb
     RDKit          3D

 30 30  0  0  1  0  0  0  0  0999 V2000
   27.2988  -22.8342  -17.4263 N   0  0  0  0  0  0  0  0  0  0  0  0
   27.3987  -21.6735  -16.5936 C   0  0  1  0  0  0  0  0  0  0  0  0
   26.9958  -20.4536  -17.4035 C   0  0  0  0  0  0  0  0  0  0  0  0
   28.1824  -20.1424  -18.7355 S   0  0  0  0  0  0  0  0  0  0  0  0
   26.5809  -21.7806  -15.3585 C   0  0  0  0  0  0  0  0  0  0  0  0
   25.4746  -22.3312  -15.4260 O   0  0  0  0  0  0  0  0  0  0  0  0
   24.1352  -20.3393   -6.9366 O   0  0  0  0  0  0  0  0  0  0  0  0
   24.8805  -20.4980   -8.1122 C   0  0  0  0  0  0  0  0  0  0  0  0
   24.3061  -20.9497   -9.2752 C   0  0  0  0  0  0  0  0  0  0  0  0
   25.0346  -21.1074  -10.4334 C   0  0  0  0  0  0  0  0  0  0  0  0
   26.3800  -20.8121  -10.4582 C   0  0  0  0  0  0  0  0  0  0  0  0
   27.1220  -20.9917  -11.7096 C   0  0  0  0  0  0  0  0  0  0  0  0
   26.2379  -21.2262  -12.9146 C   0  0  2  0  0  0  0  0  0  0  0  0
   27.0374  -21.2746  -14.1360 N   0  0  0  0  0  0  0  0  0  0  0  0
   25.0592  -20.3869  -13.0104 C   0  0  0  0  0  0  0  0  0  0  0  0
   25.1757  -19.1626  -13.2409 O   0  0  0  0  0  0  0  0  0  0  0  0
   26.9486  -20.3613   -9.2936 C   0  0  0  0  0  0  0  0  0  0  0  0
   26.2266  -20.2000   -8.1276 C   0  0  0  0  0  0  0  0  0  0  0  0
   19.2254  -19.8018  -18.2407 N   0  0  0  0  0  0  0  0  0  0  0  0
   19.8777  -18.6990  -17.5842 C   0  0  0  0  0  0  0  0  0  0  0  0
   19.3908  -17.5041  -17.6997 N   0  0  0  0  0  0  0  0  0  0  0  0
   21.0413  -18.8667  -16.8094 N   0  0  0  0  0  0  0  0  0  0  0  0
   21.7021  -20.1429  -16.7100 C   0  0  0  0  0  0  0  0  0  0  0  0
   21.7743  -20.6417  -15.2872 C   0  0  0  0  0  0  0  0  0  0  0  0
   22.4123  -19.6186  -14.3763 C   0  0  0  0  0  0  0  0  0  0  0  0
   22.5508  -20.1525  -12.9581 C   0  0  2  0  0  0  0  0  0  0  0  0
   23.7624  -20.9197  -12.8513 N   0  0  0  0  0  0  0  0  0  0  0  0
   21.3941  -21.0381  -12.7379 C   0  0  0  0  0  0  0  0  0  0  0  0
   20.2695  -20.5362  -12.5199 O   0  0  0  0  0  0  0  0  0  0  0  0
   21.4798  -22.4246  -12.7584 O   0  0  0  0  0  0  0  0  0  0  0  0
  2  1  1  6
  2  3  1  0
  3  4  1  0
  5  2  1  0
  6  5  2  0
  8  9  2  0
  8  7  1  0
 10  9  1  0
 11 10  2  0
 12 11  1  0
 13 12  1  1
 13 14  1  0
 14  5  1  0
 15 27  1  0
 15 13  1  0
 16 15  2  0
 17 11  1  0
 17 18  2  0
 18  8  1  0
 20 19  1  0
 21 20  2  0
 22 20  1  0
 23 22  1  0
 24 23  1  0
 25 24  1  0
 26 25  1  6
 26 27  1  0
 28 30  1  0
 28 26  1  0
 29 28  2  0
M  END
$$$$
