CYR.pdb
     RDKit          3D

 30 30  0  0  1  0  0  0  0  0999 V2000
   32.5026  -32.5199  -18.5664 N   0  0  0  0  0  0  0  0  0  0  0  0
   31.3184  -33.0583  -17.9678 C   0  0  1  0  0  0  0  0  0  0  0  0
   31.3648  -32.7996  -16.4720 C   0  0  0  0  0  0  0  0  0  0  0  0
   32.7066  -33.7361  -15.6962 S   0  0  0  0  0  0  0  0  0  0  0  0
   30.0734  -32.5065  -18.5604 C   0  0  0  0  0  0  0  0  0  0  0  0
   30.1513  -31.4919  -19.2648 O   0  0  0  0  0  0  0  0  0  0  0  0
   21.7921  -32.3251  -21.7012 O   0  0  0  0  0  0  0  0  0  0  0  0
   23.0622  -32.6691  -21.2203 C   0  0  0  0  0  0  0  0  0  0  0  0
   23.2417  -33.1798  -19.9580 C   0  0  0  0  0  0  0  0  0  0  0  0
   24.4883  -33.5195  -19.4808 C   0  0  0  0  0  0  0  0  0  0  0  0
   25.6067  -33.3540  -20.2679 C   0  0  0  0  0  0  0  0  0  0  0  0
   26.9165  -33.7276  -19.7258 C   0  0  0  0  0  0  0  0  0  0  0  0
   27.5712  -32.6371  -18.9069 C   0  0  2  0  0  0  0  0  0  0  0  0
   28.8302  -33.1094  -18.3366 N   0  0  0  0  0  0  0  0  0  0  0  0
   26.7125  -31.9507  -17.9612 C   0  0  0  0  0  0  0  0  0  0  0  0
   26.4166  -32.4917  -16.8725 O   0  0  0  0  0  0  0  0  0  0  0  0
   25.4215  -32.8435  -21.5280 C   0  0  0  0  0  0  0  0  0  0  0  0
   24.1759  -32.5000  -22.0153 C   0  0  0  0  0  0  0  0  0  0  0  0
   28.9925  -24.5608  -16.8237 N   0  0  0  0  0  0  0  0  0  0  0  0
   27.5677  -24.7422  -16.7250 C   0  0  0  0  0  0  0  0  0  0  0  0
   26.7841  -23.7120  -16.7805 N   0  0  0  0  0  0  0  0  0  0  0  0
   26.9802  -26.0120  -16.5680 N   0  0  0  0  0  0  0  0  0  0  0  0
   25.5610  -26.1662  -16.3748 C   0  0  0  0  0  0  0  0  0  0  0  0
   25.1458  -27.6158  -16.3076 C   0  0  0  0  0  0  0  0  0  0  0  0
   25.8888  -28.4495  -17.3258 C   0  0  0  0  0  0  0  0  0  0  0  0
   25.4097  -29.8937  -17.3118 C   0  0  2  0  0  0  0  0  0  0  0  0
   26.1941  -30.6675  -18.2360 N   0  0  0  0  0  0  0  0  0  0  0  0
   24.0090  -29.8662  -17.7677 C   0  0  0  0  0  0  0  0  0  0  0  0
   23.7597  -29.6364  -18.9715 O   0  0  0  0  0  0  0  0  0  0  0  0
   22.9274  -30.0847  -16.9236 O   0  0  0  0  0  0  0  0  0  0  0  0
  2  1  1  6
  2  3  1  0
  3  4  1  0
  5  2  1  0
  6  5  2  0
  8  9  2  0
  8  7  1  0
 10  9  1  0
 11 10  2  0
 12 11  1  0
 13 12  1  1
 13 14  1  0
 14  5  1  0
 15 27  1  0
 15 13  1  0
 16 15  2  0
 17 11  1  0
 17 18  2  0
 18  8  1  0
 20 19  1  0
 21 20  2  0
 22 20  1  0
 23 22  1  0
 24 23  1  0
 25 24  1  0
 26 25  1  6
 26 27  1  0
 28 30  1  0
 28 26  1  0
 29 28  2  0
M  END
$$$$
