CYR.pdb
     RDKit          3D

 30 30  0  0  1  0  0  0  0  0999 V2000
   28.6533  -21.3782  -18.1786 N   0  0  0  0  0  0  0  0  0  0  0  0
   28.5138  -20.3204  -17.2236 C   0  0  1  0  0  0  0  0  0  0  0  0
   28.0390  -19.0702  -17.9434 C   0  0  0  0  0  0  0  0  0  0  0  0
   27.8559  -17.6894  -16.7862 S   0  0  0  0  0  0  0  0  0  0  0  0
   27.5950  -20.6694  -16.1101 C   0  0  0  0  0  0  0  0  0  0  0  0
   26.5252  -21.2307  -16.3782 O   0  0  0  0  0  0  0  0  0  0  0  0
   24.5041  -20.9385   -7.7290 O   0  0  0  0  0  0  0  0  0  0  0  0
   25.3081  -20.8344   -8.8715 C   0  0  0  0  0  0  0  0  0  0  0  0
   25.9662  -19.6708   -9.1870 C   0  0  0  0  0  0  0  0  0  0  0  0
   26.7577  -19.5636  -10.3090 C   0  0  0  0  0  0  0  0  0  0  0  0
   26.9138  -20.6364  -11.1591 C   0  0  0  0  0  0  0  0  0  0  0  0
   27.7650  -20.4845  -12.3429 C   0  0  0  0  0  0  0  0  0  0  0  0
   27.0102  -20.5668  -13.6514 C   0  0  2  0  0  0  0  0  0  0  0  0
   27.9176  -20.3764  -14.7800 N   0  0  0  0  0  0  0  0  0  0  0  0
   25.7917  -19.7848  -13.7318 C   0  0  0  0  0  0  0  0  0  0  0  0
   25.8490  -18.5458  -13.8970 O   0  0  0  0  0  0  0  0  0  0  0  0
   26.2542  -21.7962  -10.8391 C   0  0  0  0  0  0  0  0  0  0  0  0
   25.4584  -21.9134   -9.7166 C   0  0  0  0  0  0  0  0  0  0  0  0
   20.8150  -21.7744  -18.4791 N   0  0  0  0  0  0  0  0  0  0  0  0
   20.5049  -20.3899  -18.2346 C   0  0  0  0  0  0  0  0  0  0  0  0
   19.3233  -19.9377  -18.5136 N   0  0  0  0  0  0  0  0  0  0  0  0
   21.4464  -19.4919  -17.6965 N   0  0  0  0  0  0  0  0  0  0  0  0
   22.8078  -19.8898  -17.4446 C   0  0  0  0  0  0  0  0  0  0  0  0
   23.0140  -20.3614  -16.0257 C   0  0  0  0  0  0  0  0  0  0  0  0
   22.9614  -19.2093  -15.0491 C   0  0  0  0  0  0  0  0  0  0  0  0
   23.2762  -19.6710  -13.6337 C   0  0  2  0  0  0  0  0  0  0  0  0
   24.5214  -20.3904  -13.6304 N   0  0  0  0  0  0  0  0  0  0  0  0
   22.1864  -20.5841  -13.2476 C   0  0  0  0  0  0  0  0  0  0  0  0
   21.0373  -20.1258  -13.0648 O   0  0  0  0  0  0  0  0  0  0  0  0
   22.3627  -21.9508  -13.0710 O   0  0  0  0  0  0  0  0  0  0  0  0
  2  1  1  6
  2  3  1  0
  3  4  1  0
  5  2  1  0
  6  5  2  0
  8  9  2  0
  8  7  1  0
 10  9  1  0
 11 10  2  0
 12 11  1  0
 13 12  1  1
 13 14  1  0
 14  5  1  0
 15 27  1  0
 15 13  1  0
 16 15  2  0
 17 11  1  0
 17 18  2  0
 18  8  1  0
 20 19  1  0
 21 20  2  0
 22 20  1  0
 23 22  1  0
 24 23  1  0
 25 24  1  0
 26 25  1  6
 26 27  1  0
 28 30  1  0
 28 26  1  0
 29 28  2  0
M  END
$$$$
