CYR.pdb
     RDKit          3D

 30 30  0  0  1  0  0  0  0  0999 V2000
   29.6313  -18.2201  -19.8296 N   0  0  0  0  0  0  0  0  0  0  0  0
   29.0828  -18.7472  -18.6164 C   0  0  1  0  0  0  0  0  0  0  0  0
   27.8774  -17.9123  -18.2207 C   0  0  0  0  0  0  0  0  0  0  0  0
   28.3936  -16.3167  -17.5375 S   0  0  0  0  0  0  0  0  0  0  0  0
   28.7173  -20.1824  -18.7273 C   0  0  0  0  0  0  0  0  0  0  0  0
   28.0855  -20.5580  -19.7229 O   0  0  0  0  0  0  0  0  0  0  0  0
   28.3466  -28.8516  -16.6979 O   0  0  0  0  0  0  0  0  0  0  0  0
   28.6417  -27.4823  -16.7246 C   0  0  0  0  0  0  0  0  0  0  0  0
   29.7291  -26.9918  -17.4055 C   0  0  0  0  0  0  0  0  0  0  0  0
   30.0234  -25.6466  -17.4347 C   0  0  0  0  0  0  0  0  0  0  0  0
   29.2233  -24.7418  -16.7719 C   0  0  0  0  0  0  0  0  0  0  0  0
   29.5679  -23.3180  -16.8267 C   0  0  0  0  0  0  0  0  0  0  0  0
   28.6662  -22.5066  -17.7306 C   0  0  2  0  0  0  0  0  0  0  0  0
   29.0724  -21.1036  -17.7351 N   0  0  0  0  0  0  0  0  0  0  0  0
   27.2413  -22.7108  -17.5553 C   0  0  0  0  0  0  0  0  0  0  0  0
   26.6120  -22.0514  -16.6981 O   0  0  0  0  0  0  0  0  0  0  0  0
   28.1385  -25.2373  -16.0935 C   0  0  0  0  0  0  0  0  0  0  0  0
   27.8353  -26.5841  -16.0583 C   0  0  0  0  0  0  0  0  0  0  0  0
   19.7106  -21.2357  -19.7760 N   0  0  0  0  0  0  0  0  0  0  0  0
   21.0544  -20.7243  -19.8486 C   0  0  0  0  0  0  0  0  0  0  0  0
   21.2615  -19.4486  -19.7591 N   0  0  0  0  0  0  0  0  0  0  0  0
   22.1712  -21.5653  -20.0158 N   0  0  0  0  0  0  0  0  0  0  0  0
   22.0241  -22.9896  -20.1735 C   0  0  0  0  0  0  0  0  0  0  0  0
   22.8817  -23.7653  -19.2034 C   0  0  0  0  0  0  0  0  0  0  0  0
   24.3072  -23.2637  -19.2053 C   0  0  0  0  0  0  0  0  0  0  0  0
   25.1432  -23.9735  -18.1503 C   0  0  2  0  0  0  0  0  0  0  0  0
   26.5307  -23.6452  -18.3382 N   0  0  0  0  0  0  0  0  0  0  0  0
   24.9506  -25.4165  -18.3760 C   0  0  0  0  0  0  0  0  0  0  0  0
   25.6548  -26.0043  -19.2261 O   0  0  0  0  0  0  0  0  0  0  0  0
   24.0149  -26.1783  -17.6873 O   0  0  0  0  0  0  0  0  0  0  0  0
  2  1  1  6
  2  3  1  0
  3  4  1  0
  5  2  1  0
  6  5  2  0
  8  9  2  0
  8  7  1  0
 10  9  1  0
 11 10  2  0
 12 11  1  0
 13 12  1  1
 13 14  1  0
 14  5  1  0
 15 27  1  0
 15 13  1  0
 16 15  2  0
 17 11  1  0
 17 18  2  0
 18  8  1  0
 20 19  1  0
 21 20  2  0
 22 20  1  0
 23 22  1  0
 24 23  1  0
 25 24  1  0
 26 25  1  6
 26 27  1  0
 28 30  1  0
 28 26  1  0
 29 28  2  0
M  END
$$$$
