YFH.pdb
     RDKit          3D

 34 36  0  0  1  0  0  0  0  0999 V2000
    7.2253  -14.2126   14.3808 O   0  0  0  0  0  0  0  0  0  0  0  0
    7.5217  -14.5736   15.6899 C   0  0  0  0  0  0  0  0  0  0  0  0
    7.3269  -13.7030   16.7338 C   0  0  0  0  0  0  0  0  0  0  0  0
    7.6142  -14.0419   18.0349 C   0  0  0  0  0  0  0  0  0  0  0  0
    8.1166  -15.3093   18.2827 C   0  0  0  0  0  0  0  0  0  0  0  0
    8.4461  -15.7301   19.6775 C   0  0  0  0  0  0  0  0  0  0  0  0
    9.3113  -14.6519   20.2946 C   0  0  2  0  0  0  0  0  0  0  0  0
   10.6443  -14.7140   19.7833 N   0  0  0  0  0  0  0  0  0  0  0  0
    9.2794  -14.8164   21.7886 C   0  0  0  0  0  0  0  0  0  0  0  0
   10.3104  -15.1885   22.4041 O   0  0  0  0  0  0  0  0  0  0  0  0
    8.3254  -16.2096   17.2624 C   0  0  0  0  0  0  0  0  0  0  0  0
    8.0193  -15.8205   15.9591 C   0  0  0  0  0  0  0  0  0  0  0  0
    8.1178  -14.5657   22.5443 N   0  0  0  0  0  0  0  0  0  0  0  0
    8.0754  -14.6898   24.0088 C   0  0  1  0  0  0  0  0  0  0  0  0
    6.7881  -14.0900   24.5323 C   0  0  0  0  0  0  0  0  0  0  0  0
    6.9742  -13.1343   25.6275 C   0  0  0  0  0  0  0  0  0  0  0  0
    6.8686  -13.5517   26.9366 C   0  0  0  0  0  0  0  0  0  0  0  0
    7.0366  -12.6753   28.0020 C   0  0  0  0  0  0  0  0  0  0  0  0
    7.3176  -11.3445   27.7829 C   0  0  0  0  0  0  0  0  0  0  0  0
    7.4250  -10.9178   26.4774 C   0  0  0  0  0  0  0  0  0  0  0  0
    7.2545  -11.8049   25.4257 C   0  0  0  0  0  0  0  0  0  0  0  0
    8.3004  -16.0724   24.4349 C   0  0  0  0  0  0  0  0  0  0  0  0
    7.4684  -16.9677   24.1029 O   0  0  0  0  0  0  0  0  0  0  0  0
    9.4001  -16.5118   25.2057 N   0  0  0  0  0  0  0  0  0  0  0  0
    9.4572  -17.8533   25.7446 C   0  0  1  0  0  0  0  0  0  0  0  0
    9.3960  -18.8857   24.6223 C   0  0  0  0  0  0  0  0  0  0  0  0
   10.6417  -18.7246   23.8255 C   0  0  0  0  0  0  0  0  0  0  0  0
   11.5378  -17.6786   23.9447 C   0  0  0  0  0  0  0  0  0  0  0  0
   12.5378  -17.8723   23.0648 N   0  0  0  0  0  0  0  0  0  0  0  0
   12.2993  -19.0044   22.3977 C   0  0  0  0  0  0  0  0  0  0  0  0
   11.1497  -19.5141   22.8641 N   0  0  0  0  0  0  0  0  0  0  0  0
   10.6924  -17.9846   26.5284 C   0  0  0  0  0  0  0  0  0  0  0  0
   11.4745  -17.0112   26.6028 O   0  0  0  0  0  0  0  0  0  0  0  0
   11.0125  -19.1490   27.1842 O   0  0  0  0  0  0  0  0  0  0  0  0
  2  1  1  0
  3  2  2  0
  4  3  1  0
  5  4  2  0
  5 11  1  0
  6  5  1  0
  7  6  1  0
  7  8  1  6
  9  7  1  0
  9 10  2  0
 11 12  2  0
 12  2  1  0
 13  9  1  0
 14 13  1  0
 14 15  1  6
 16 15  1  0
 16 17  2  0
 17 18  1  0
 19 18  2  0
 20 19  1  0
 21 20  2  0
 21 16  1  0
 22 14  1  0
 23 22  2  0
 24 22  1  0
 25 26  1  6
 25 24  1  0
 26 27  1  0
 27 28  2  0
 28 29  1  0
 30 29  1  0
 31 27  1  0
 31 30  2  0
 32 34  1  0
 32 25  1  0
 33 32  2  0
M  END
$$$$
