YFH.pdb
     RDKit          3D

 34 36  0  0  1  0  0  0  0  0999 V2000
    6.1531  -20.5060   16.3297 O   0  0  0  0  0  0  0  0  0  0  0  0
    6.8129  -19.8211   17.3433 C   0  0  0  0  0  0  0  0  0  0  0  0
    7.9394  -19.0781   17.0892 C   0  0  0  0  0  0  0  0  0  0  0  0
    8.6055  -18.3940   18.0784 C   0  0  0  0  0  0  0  0  0  0  0  0
    8.1091  -18.4681   19.3699 C   0  0  0  0  0  0  0  0  0  0  0  0
    8.7934  -17.7446   20.4832 C   0  0  0  0  0  0  0  0  0  0  0  0
    8.2070  -16.3510   20.5597 C   0  0  2  0  0  0  0  0  0  0  0  0
    8.2322  -15.7171   19.2791 N   0  0  0  0  0  0  0  0  0  0  0  0
    8.9793  -15.5677   21.5844 C   0  0  0  0  0  0  0  0  0  0  0  0
    9.5416  -14.4905   21.2622 O   0  0  0  0  0  0  0  0  0  0  0  0
    6.9824  -19.2027   19.6636 C   0  0  0  0  0  0  0  0  0  0  0  0
    6.3410  -19.8795   18.6273 C   0  0  0  0  0  0  0  0  0  0  0  0
    9.1022  -15.9993   22.9193 N   0  0  0  0  0  0  0  0  0  0  0  0
    8.9287  -15.0991   24.0689 C   0  0  1  0  0  0  0  0  0  0  0  0
    7.5693  -14.4377   23.9953 C   0  0  0  0  0  0  0  0  0  0  0  0
    7.3483  -13.4075   25.0139 C   0  0  0  0  0  0  0  0  0  0  0  0
    8.0956  -12.2497   25.0017 C   0  0  0  0  0  0  0  0  0  0  0  0
    7.9166  -11.2508   25.9513 C   0  0  0  0  0  0  0  0  0  0  0  0
    6.9754  -11.3859   26.9482 C   0  0  0  0  0  0  0  0  0  0  0  0
    6.2234  -12.5401   26.9686 C   0  0  0  0  0  0  0  0  0  0  0  0
    6.4143  -13.5272   26.0139 C   0  0  0  0  0  0  0  0  0  0  0  0
    9.1821  -15.7921   25.3335 C   0  0  0  0  0  0  0  0  0  0  0  0
    8.8728  -15.2271   26.4240 O   0  0  0  0  0  0  0  0  0  0  0  0
    9.7565  -17.0778   25.4498 N   0  0  0  0  0  0  0  0  0  0  0  0
   11.0457  -17.2756   26.0760 C   0  0  1  0  0  0  0  0  0  0  0  0
   11.9735  -16.1012   25.7771 C   0  0  0  0  0  0  0  0  0  0  0  0
   12.6594  -16.4144   24.4950 C   0  0  0  0  0  0  0  0  0  0  0  0
   12.1362  -17.1889   23.4762 C   0  0  0  0  0  0  0  0  0  0  0  0
   13.0397  -17.2495   22.4804 N   0  0  0  0  0  0  0  0  0  0  0  0
   14.1120  -16.5393   22.8400 C   0  0  0  0  0  0  0  0  0  0  0  0
   13.8738  -16.0371   24.0606 N   0  0  0  0  0  0  0  0  0  0  0  0
   10.8376  -17.4417   27.5204 C   0  0  0  0  0  0  0  0  0  0  0  0
    9.6730  -17.4164   27.9762 O   0  0  0  0  0  0  0  0  0  0  0  0
   11.8889  -17.6253   28.3862 O   0  0  0  0  0  0  0  0  0  0  0  0
  2  1  1  0
  3  2  2  0
  4  3  1  0
  5  4  2  0
  5 11  1  0
  6  5  1  0
  7  6  1  0
  7  8  1  6
  9  7  1  0
  9 10  2  0
 11 12  2  0
 12  2  1  0
 13  9  1  0
 14 13  1  0
 14 15  1  1
 16 15  1  0
 16 17  2  0
 17 18  1  0
 19 18  2  0
 20 19  1  0
 21 20  2  0
 21 16  1  0
 22 14  1  0
 23 22  2  0
 24 22  1  0
 25 26  1  1
 25 24  1  0
 26 27  1  0
 27 28  2  0
 28 29  1  0
 30 29  1  0
 31 27  1  0
 31 30  2  0
 32 34  1  0
 32 25  1  0
 33 32  2  0
M  END
$$$$
