YFH.pdb
     RDKit          3D

 34 36  0  0  1  0  0  0  0  0999 V2000
    7.6417  -13.7726   14.7327 O   0  0  0  0  0  0  0  0  0  0  0  0
    7.9027  -14.2047   16.0277 C   0  0  0  0  0  0  0  0  0  0  0  0
    8.6986  -13.4774   16.8780 C   0  0  0  0  0  0  0  0  0  0  0  0
    8.9681  -13.8885   18.1620 C   0  0  0  0  0  0  0  0  0  0  0  0
    8.4091  -15.0798   18.5959 C   0  0  0  0  0  0  0  0  0  0  0  0
    8.6688  -15.5738   19.9814 C   0  0  0  0  0  0  0  0  0  0  0  0
    9.6227  -14.6052   20.6474 C   0  0  2  0  0  0  0  0  0  0  0  0
   10.9099  -14.6511   20.0282 N   0  0  0  0  0  0  0  0  0  0  0  0
    9.6959  -14.9430   22.1105 C   0  0  0  0  0  0  0  0  0  0  0  0
   10.8116  -15.1237   22.6608 O   0  0  0  0  0  0  0  0  0  0  0  0
    7.6060  -15.8364   17.7725 C   0  0  0  0  0  0  0  0  0  0  0  0
    7.3613  -15.3787   16.4786 C   0  0  0  0  0  0  0  0  0  0  0  0
    8.5420  -15.0684   22.9080 N   0  0  0  0  0  0  0  0  0  0  0  0
    8.4382  -14.4954   24.2582 C   0  0  1  0  0  0  0  0  0  0  0  0
    7.4263  -13.3698   24.2558 C   0  0  0  0  0  0  0  0  0  0  0  0
    7.1946  -12.7696   25.5725 C   0  0  0  0  0  0  0  0  0  0  0  0
    6.1625  -13.2196   26.3671 C   0  0  0  0  0  0  0  0  0  0  0  0
    5.9099  -12.6747   27.6203 C   0  0  0  0  0  0  0  0  0  0  0  0
    6.6919  -11.6546   28.1164 C   0  0  0  0  0  0  0  0  0  0  0  0
    7.7262  -11.1980   27.3292 C   0  0  0  0  0  0  0  0  0  0  0  0
    7.9648  -11.7524   26.0811 C   0  0  0  0  0  0  0  0  0  0  0  0
    8.1703  -15.5301   25.2589 C   0  0  0  0  0  0  0  0  0  0  0  0
    8.3002  -15.2537   26.4881 O   0  0  0  0  0  0  0  0  0  0  0  0
    7.7635  -16.8513   24.9666 N   0  0  0  0  0  0  0  0  0  0  0  0
    8.3847  -17.9917   25.6044 C   0  0  1  0  0  0  0  0  0  0  0  0
    8.7876  -19.0344   24.5653 C   0  0  0  0  0  0  0  0  0  0  0  0
    7.6406  -19.1682   23.6276 C   0  0  0  0  0  0  0  0  0  0  0  0
    6.4419  -18.4866   23.7277 C   0  0  0  0  0  0  0  0  0  0  0  0
    5.6510  -18.8639   22.7060 N   0  0  0  0  0  0  0  0  0  0  0  0
    6.3130  -19.7590   21.9684 C   0  0  0  0  0  0  0  0  0  0  0  0
    7.5165  -19.9376   22.5329 N   0  0  0  0  0  0  0  0  0  0  0  0
    9.5462  -17.5184   26.3687 C   0  0  0  0  0  0  0  0  0  0  0  0
   10.3993  -16.8011   25.8009 O   0  0  0  0  0  0  0  0  0  0  0  0
    9.7212  -17.8416   27.6928 O   0  0  0  0  0  0  0  0  0  0  0  0
  2  1  1  0
  3  2  2  0
  4  3  1  0
  5  4  2  0
  5 11  1  0
  6  5  1  0
  7  6  1  0
  7  8  1  6
  9  7  1  0
  9 10  2  0
 11 12  2  0
 12  2  1  0
 13  9  1  0
 14 13  1  0
 14 15  1  6
 16 15  1  0
 16 17  2  0
 17 18  1  0
 19 18  2  0
 20 19  1  0
 21 20  2  0
 21 16  1  0
 22 14  1  0
 23 22  2  0
 24 22  1  0
 25 26  1  6
 25 24  1  0
 26 27  1  0
 27 28  2  0
 28 29  1  0
 30 29  1  0
 31 27  1  0
 31 30  2  0
 32 34  1  0
 32 25  1  0
 33 32  2  0
M  END
$$$$
