YFH.pdb
     RDKit          3D

 34 36  0  0  1  0  0  0  0  0999 V2000
    7.5237  -13.9515   14.0687 O   0  0  0  0  0  0  0  0  0  0  0  0
    7.5824  -14.3366   15.4029 C   0  0  0  0  0  0  0  0  0  0  0  0
    7.6303  -13.4089   16.4141 C   0  0  0  0  0  0  0  0  0  0  0  0
    7.6887  -13.7705   17.7393 C   0  0  0  0  0  0  0  0  0  0  0  0
    7.6987  -15.1216   18.0464 C   0  0  0  0  0  0  0  0  0  0  0  0
    7.7614  -15.5707   19.4696 C   0  0  0  0  0  0  0  0  0  0  0  0
    9.0980  -15.1380   20.0336 C   0  0  2  0  0  0  0  0  0  0  0  0
   10.1713  -15.8146   19.3759 N   0  0  0  0  0  0  0  0  0  0  0  0
    9.0959  -15.4031   21.5133 C   0  0  0  0  0  0  0  0  0  0  0  0
   10.1125  -15.8923   22.0677 O   0  0  0  0  0  0  0  0  0  0  0  0
    7.6519  -16.0811   17.0602 C   0  0  0  0  0  0  0  0  0  0  0  0
    7.5935  -15.6660   15.7306 C   0  0  0  0  0  0  0  0  0  0  0  0
    7.9785  -15.1202   22.3225 N   0  0  0  0  0  0  0  0  0  0  0  0
    8.0901  -14.7873   23.7504 C   0  0  1  0  0  0  0  0  0  0  0  0
    7.3754  -13.4816   24.0248 C   0  0  0  0  0  0  0  0  0  0  0  0
    7.4475  -13.0409   25.4206 C   0  0  0  0  0  0  0  0  0  0  0  0
    6.4545  -13.3906   26.3098 C   0  0  0  0  0  0  0  0  0  0  0  0
    6.4866  -12.9906   27.6403 C   0  0  0  0  0  0  0  0  0  0  0  0
    7.5242  -12.2222   28.1208 C   0  0  0  0  0  0  0  0  0  0  0  0
    8.5218  -11.8675   27.2393 C   0  0  0  0  0  0  0  0  0  0  0  0
    8.4749  -12.2748   25.9149 C   0  0  0  0  0  0  0  0  0  0  0  0
    7.6417  -15.8964   24.5945 C   0  0  0  0  0  0  0  0  0  0  0  0
    6.5545  -15.7889   25.2353 O   0  0  0  0  0  0  0  0  0  0  0  0
    8.3342  -17.1167   24.7611 N   0  0  0  0  0  0  0  0  0  0  0  0
    9.6349  -17.1672   25.3926 C   0  0  1  0  0  0  0  0  0  0  0  0
   10.5481  -16.0823   24.8283 C   0  0  0  0  0  0  0  0  0  0  0  0
   11.5582  -16.7721   23.9818 C   0  0  0  0  0  0  0  0  0  0  0  0
   11.6213  -18.1357   23.7627 C   0  0  0  0  0  0  0  0  0  0  0  0
   12.6624  -18.3881   22.9476 N   0  0  0  0  0  0  0  0  0  0  0  0
   13.2543  -17.2291   22.6481 C   0  0  0  0  0  0  0  0  0  0  0  0
   12.5799  -16.2558   23.2780 N   0  0  0  0  0  0  0  0  0  0  0  0
    9.4517  -17.0148   26.8419 C   0  0  0  0  0  0  0  0  0  0  0  0
    8.9443  -15.9610   27.2855 O   0  0  0  0  0  0  0  0  0  0  0  0
    9.8220  -18.0001   27.7253 O   0  0  0  0  0  0  0  0  0  0  0  0
  2  1  1  0
  3  2  2  0
  4  3  1  0
  5  4  2  0
  5 11  1  0
  6  5  1  0
  7  6  1  0
  7  8  1  6
  9  7  1  0
  9 10  2  0
 11 12  2  0
 12  2  1  0
 13  9  1  0
 14 13  1  0
 14 15  1  6
 16 15  1  0
 16 17  2  0
 17 18  1  0
 19 18  2  0
 20 19  1  0
 21 20  2  0
 21 16  1  0
 22 14  1  0
 23 22  2  0
 24 22  1  0
 25 26  1  6
 25 24  1  0
 26 27  1  0
 27 28  2  0
 28 29  1  0
 30 29  1  0
 31 27  1  0
 31 30  2  0
 32 34  1  0
 32 25  1  0
 33 32  2  0
M  END
$$$$
