YFH.pdb
     RDKit          3D

 34 36  0  0  1  0  0  0  0  0999 V2000
    8.0087  -18.6171   14.5300 O   0  0  0  0  0  0  0  0  0  0  0  0
    8.3610  -18.3769   15.8529 C   0  0  0  0  0  0  0  0  0  0  0  0
    9.6760  -18.3189   16.2441 C   0  0  0  0  0  0  0  0  0  0  0  0
   10.0438  -18.0825   17.5475 C   0  0  0  0  0  0  0  0  0  0  0  0
    9.0402  -17.8988   18.4850 C   0  0  0  0  0  0  0  0  0  0  0  0
    9.3832  -17.6388   19.9154 C   0  0  0  0  0  0  0  0  0  0  0  0
    9.9120  -16.2238   20.0153 C   0  0  2  0  0  0  0  0  0  0  0  0
   11.2419  -16.1396   19.4990 N   0  0  0  0  0  0  0  0  0  0  0  0
    9.8446  -15.7934   21.4541 C   0  0  0  0  0  0  0  0  0  0  0  0
   10.7504  -16.1330   22.2569 O   0  0  0  0  0  0  0  0  0  0  0  0
    7.7108  -17.9497   18.1311 C   0  0  0  0  0  0  0  0  0  0  0  0
    7.3866  -18.1923   16.7970 C   0  0  0  0  0  0  0  0  0  0  0  0
    8.7863  -15.0086   21.9515 N   0  0  0  0  0  0  0  0  0  0  0  0
    8.7220  -14.5457   23.3456 C   0  0  1  0  0  0  0  0  0  0  0  0
    7.5344  -13.6237   23.5203 C   0  0  0  0  0  0  0  0  0  0  0  0
    7.3447  -13.1443   24.8921 C   0  0  0  0  0  0  0  0  0  0  0  0
    8.1503  -12.1456   25.3946 C   0  0  0  0  0  0  0  0  0  0  0  0
    8.0025  -11.6658   26.6905 C   0  0  0  0  0  0  0  0  0  0  0  0
    7.0344  -12.1783   27.5261 C   0  0  0  0  0  0  0  0  0  0  0  0
    6.2241  -13.1772   27.0326 C   0  0  0  0  0  0  0  0  0  0  0  0
    6.3846  -13.6448   25.7373 C   0  0  0  0  0  0  0  0  0  0  0  0
    8.7416  -15.6698   24.2836 C   0  0  0  0  0  0  0  0  0  0  0  0
    7.8922  -16.6005   24.1554 O   0  0  0  0  0  0  0  0  0  0  0  0
    9.6550  -15.8153   25.3518 N   0  0  0  0  0  0  0  0  0  0  0  0
    9.6940  -17.0187   26.1540 C   0  0  1  0  0  0  0  0  0  0  0  0
   10.9721  -17.8061   25.8790 C   0  0  0  0  0  0  0  0  0  0  0  0
   10.5881  -18.9565   25.0178 C   0  0  0  0  0  0  0  0  0  0  0  0
    9.3058  -19.2382   24.5844 C   0  0  0  0  0  0  0  0  0  0  0  0
    9.3469  -20.3511   23.8284 N   0  0  0  0  0  0  0  0  0  0  0  0
   10.6114  -20.7770   23.7729 C   0  0  0  0  0  0  0  0  0  0  0  0
   11.3564  -19.9274   24.4954 N   0  0  0  0  0  0  0  0  0  0  0  0
    9.5932  -16.6352   27.5682 C   0  0  0  0  0  0  0  0  0  0  0  0
    9.9764  -15.4979   27.9211 O   0  0  0  0  0  0  0  0  0  0  0  0
    9.0879  -17.4925   28.5159 O   0  0  0  0  0  0  0  0  0  0  0  0
  2  1  1  0
  3  2  2  0
  4  3  1  0
  5  4  2  0
  5 11  1  0
  6  5  1  0
  7  6  1  0
  7  8  1  1
  9  7  1  0
  9 10  2  0
 11 12  2  0
 12  2  1  0
 13  9  1  0
 14 13  1  0
 14 15  1  6
 16 15  1  0
 16 17  2  0
 17 18  1  0
 19 18  2  0
 20 19  1  0
 21 20  2  0
 21 16  1  0
 22 14  1  0
 23 22  2  0
 24 22  1  0
 25 26  1  1
 25 24  1  0
 26 27  1  0
 27 28  2  0
 28 29  1  0
 30 29  1  0
 31 27  1  0
 31 30  2  0
 32 34  1  0
 32 25  1  0
 33 32  2  0
M  END
$$$$
