YFH.pdb
     RDKit          3D

 34 36  0  0  1  0  0  0  0  0999 V2000
    6.5077  -21.1216   16.0460 O   0  0  0  0  0  0  0  0  0  0  0  0
    6.9797  -20.4390   17.1610 C   0  0  0  0  0  0  0  0  0  0  0  0
    6.1212  -19.8414   18.0506 C   0  0  0  0  0  0  0  0  0  0  0  0
    6.5691  -19.1620   19.1587 C   0  0  0  0  0  0  0  0  0  0  0  0
    7.9367  -19.0880   19.3693 C   0  0  0  0  0  0  0  0  0  0  0  0
    8.4783  -18.3622   20.5572 C   0  0  0  0  0  0  0  0  0  0  0  0
    8.6035  -16.8992   20.1889 C   0  0  2  0  0  0  0  0  0  0  0  0
    9.6056  -16.7101   19.1876 N   0  0  0  0  0  0  0  0  0  0  0  0
    8.9101  -16.1209   21.4380 C   0  0  0  0  0  0  0  0  0  0  0  0
   10.1032  -15.8941   21.7626 O   0  0  0  0  0  0  0  0  0  0  0  0
    8.8285  -19.6744   18.4998 C   0  0  0  0  0  0  0  0  0  0  0  0
    8.3268  -20.3526   17.3898 C   0  0  0  0  0  0  0  0  0  0  0  0
    7.8949  -15.6242   22.2781 N   0  0  0  0  0  0  0  0  0  0  0  0
    8.1742  -14.8511   23.4973 C   0  0  1  0  0  0  0  0  0  0  0  0
    6.9899  -13.9653   23.8194 C   0  0  0  0  0  0  0  0  0  0  0  0
    7.1071  -13.2473   25.0916 C   0  0  0  0  0  0  0  0  0  0  0  0
    7.8974  -12.1220   25.1817 C   0  0  0  0  0  0  0  0  0  0  0  0
    8.0352  -11.4154   26.3704 C   0  0  0  0  0  0  0  0  0  0  0  0
    7.3788  -11.8206   27.5119 C   0  0  0  0  0  0  0  0  0  0  0  0
    6.5863  -12.9446   27.4316 C   0  0  0  0  0  0  0  0  0  0  0  0
    6.4594  -13.6384   26.2380 C   0  0  0  0  0  0  0  0  0  0  0  0
    8.5792  -15.7225   24.6019 C   0  0  0  0  0  0  0  0  0  0  0  0
    7.7580  -16.5739   25.0545 O   0  0  0  0  0  0  0  0  0  0  0  0
    9.8466  -15.7001   25.2263 N   0  0  0  0  0  0  0  0  0  0  0  0
   10.1694  -16.5987   26.3133 C   0  0  1  0  0  0  0  0  0  0  0  0
   11.5452  -17.2246   26.1017 C   0  0  0  0  0  0  0  0  0  0  0  0
   11.4099  -18.1806   24.9702 C   0  0  0  0  0  0  0  0  0  0  0  0
   10.2176  -18.5619   24.3833 C   0  0  0  0  0  0  0  0  0  0  0  0
   10.4893  -19.4356   23.3961 N   0  0  0  0  0  0  0  0  0  0  0  0
   11.8116  -19.6153   23.3439 C   0  0  0  0  0  0  0  0  0  0  0  0
   12.3616  -18.8521   24.2999 N   0  0  0  0  0  0  0  0  0  0  0  0
   10.1110  -15.8427   27.5712 C   0  0  0  0  0  0  0  0  0  0  0  0
   10.2869  -16.4444   28.6537 O   0  0  0  0  0  0  0  0  0  0  0  0
    9.8690  -14.4901   27.5916 O   0  0  0  0  0  0  0  0  0  0  0  0
  2  1  1  0
  3  2  2  0
  4  3  1  0
  5  4  2  0
  5 11  1  0
  6  5  1  0
  7  6  1  0
  7  8  1  6
  9  7  1  0
  9 10  2  0
 11 12  2  0
 12  2  1  0
 13  9  1  0
 14 13  1  0
 14 15  1  1
 16 15  1  0
 16 17  2  0
 17 18  1  0
 19 18  2  0
 20 19  1  0
 21 20  2  0
 21 16  1  0
 22 14  1  0
 23 22  2  0
 24 22  1  0
 25 26  1  6
 25 24  1  0
 26 27  1  0
 27 28  2  0
 28 29  1  0
 30 29  1  0
 31 27  1  0
 31 30  2  0
 32 34  1  0
 32 25  1  0
 33 32  2  0
M  END
$$$$
