YFH.pdb
     RDKit          3D

 34 36  0  0  1  0  0  0  0  0999 V2000
   12.2614  -20.4049   13.3106 O   0  0  0  0  0  0  0  0  0  0  0  0
   12.2358  -19.8494   14.5844 C   0  0  0  0  0  0  0  0  0  0  0  0
   12.4544  -20.6147   15.7034 C   0  0  0  0  0  0  0  0  0  0  0  0
   12.4329  -20.0834   16.9712 C   0  0  0  0  0  0  0  0  0  0  0  0
   12.1805  -18.7275   17.1056 C   0  0  0  0  0  0  0  0  0  0  0  0
   12.1455  -18.0979   18.4596 C   0  0  0  0  0  0  0  0  0  0  0  0
   11.6964  -16.6620   18.2914 C   0  0  2  0  0  0  0  0  0  0  0  0
   12.6281  -15.9270   17.4951 N   0  0  0  0  0  0  0  0  0  0  0  0
   11.5296  -16.0549   19.6565 C   0  0  0  0  0  0  0  0  0  0  0  0
   12.3872  -15.2482   20.0970 O   0  0  0  0  0  0  0  0  0  0  0  0
   11.9566  -17.9280   16.0075 C   0  0  0  0  0  0  0  0  0  0  0  0
   11.9883  -18.5120   14.7420 C   0  0  0  0  0  0  0  0  0  0  0  0
   10.4288  -16.3583   20.4809 N   0  0  0  0  0  0  0  0  0  0  0  0
   10.2528  -15.7825   21.8224 C   0  0  1  0  0  0  0  0  0  0  0  0
    8.8195  -15.3284   21.9961 C   0  0  0  0  0  0  0  0  0  0  0  0
    8.3755  -14.3511   20.9984 C   0  0  0  0  0  0  0  0  0  0  0  0
    7.6230  -14.7573   19.9177 C   0  0  0  0  0  0  0  0  0  0  0  0
    7.1850  -13.8611   18.9501 C   0  0  0  0  0  0  0  0  0  0  0  0
    7.4917  -12.5210   19.0396 C   0  0  0  0  0  0  0  0  0  0  0  0
    8.2436  -12.1053   20.1165 C   0  0  0  0  0  0  0  0  0  0  0  0
    8.6729  -13.0122   21.0733 C   0  0  0  0  0  0  0  0  0  0  0  0
   10.7123  -16.7033   22.8639 C   0  0  0  0  0  0  0  0  0  0  0  0
   10.5104  -16.4153   24.0805 O   0  0  0  0  0  0  0  0  0  0  0  0
   11.3796  -17.9257   22.6251 N   0  0  0  0  0  0  0  0  0  0  0  0
   11.7446  -18.8117   23.7091 C   0  0  1  0  0  0  0  0  0  0  0  0
   11.9916  -20.2246   23.1875 C   0  0  0  0  0  0  0  0  0  0  0  0
   10.7808  -20.6125   22.4153 C   0  0  0  0  0  0  0  0  0  0  0  0
    9.4769  -20.4941   22.8594 C   0  0  0  0  0  0  0  0  0  0  0  0
    8.6554  -20.9433   21.8924 N   0  0  0  0  0  0  0  0  0  0  0  0
    9.3998  -21.3394   20.8568 C   0  0  0  0  0  0  0  0  0  0  0  0
   10.6851  -21.1358   21.1814 N   0  0  0  0  0  0  0  0  0  0  0  0
   12.9377  -18.2669   24.3699 C   0  0  0  0  0  0  0  0  0  0  0  0
   13.4145  -17.1814   23.9710 O   0  0  0  0  0  0  0  0  0  0  0  0
   13.5453  -18.9175   25.4169 O   0  0  0  0  0  0  0  0  0  0  0  0
  2  1  1  0
  3  2  2  0
  4  3  1  0
  5  4  2  0
  5 11  1  0
  6  5  1  0
  7  6  1  0
  7  8  1  6
  9  7  1  0
  9 10  2  0
 11 12  2  0
 12  2  1  0
 13  9  1  0
 14 13  1  0
 14 15  1  1
 16 15  1  0
 16 17  2  0
 17 18  1  0
 19 18  2  0
 20 19  1  0
 21 20  2  0
 21 16  1  0
 22 14  1  0
 23 22  2  0
 24 22  1  0
 25 26  1  6
 25 24  1  0
 26 27  1  0
 27 28  2  0
 28 29  1  0
 30 29  1  0
 31 27  1  0
 31 30  2  0
 32 34  1  0
 32 25  1  0
 33 32  2  0
M  END
$$$$
