YFH.pdb
     RDKit          3D

 34 36  0  0  1  0  0  0  0  0999 V2000
    8.1424  -20.5866   15.5305 O   0  0  0  0  0  0  0  0  0  0  0  0
    8.3803  -19.9670   16.7516 C   0  0  0  0  0  0  0  0  0  0  0  0
    7.3541  -19.4518   17.5046 C   0  0  0  0  0  0  0  0  0  0  0  0
    7.5697  -18.8356   18.7146 C   0  0  0  0  0  0  0  0  0  0  0  0
    8.8734  -18.7401   19.1743 C   0  0  0  0  0  0  0  0  0  0  0  0
    9.1650  -18.0804   20.4824 C   0  0  0  0  0  0  0  0  0  0  0  0
    9.4182  -16.6121   20.2145 C   0  0  2  0  0  0  0  0  0  0  0  0
   10.6034  -16.4335   19.4362 N   0  0  0  0  0  0  0  0  0  0  0  0
    9.5056  -15.8980   21.5345 C   0  0  0  0  0  0  0  0  0  0  0  0
   10.6152  -15.7741   22.1121 O   0  0  0  0  0  0  0  0  0  0  0  0
    9.9283  -19.2446   18.4478 C   0  0  0  0  0  0  0  0  0  0  0  0
    9.6602  -19.8609   17.2264 C   0  0  0  0  0  0  0  0  0  0  0  0
    8.3719  -15.3500   22.1652 N   0  0  0  0  0  0  0  0  0  0  0  0
    8.4170  -14.7463   23.5052 C   0  0  1  0  0  0  0  0  0  0  0  0
    7.3060  -13.7274   23.6408 C   0  0  0  0  0  0  0  0  0  0  0  0
    7.2048  -13.1249   24.9729 C   0  0  0  0  0  0  0  0  0  0  0  0
    8.0160  -12.0654   25.3174 C   0  0  0  0  0  0  0  0  0  0  0  0
    7.9509  -11.4688   26.5708 C   0  0  0  0  0  0  0  0  0  0  0  0
    7.0631  -11.9214   27.5221 C   0  0  0  0  0  0  0  0  0  0  0  0
    6.2480  -12.9802   27.1869 C   0  0  0  0  0  0  0  0  0  0  0  0
    6.3254  -13.5645   25.9320 C   0  0  0  0  0  0  0  0  0  0  0  0
    8.4132  -15.7692   24.5528 C   0  0  0  0  0  0  0  0  0  0  0  0
    7.3966  -16.5116   24.6921 O   0  0  0  0  0  0  0  0  0  0  0  0
    9.4780  -16.0120   25.4493 N   0  0  0  0  0  0  0  0  0  0  0  0
    9.3494  -16.9577   26.5367 C   0  0  1  0  0  0  0  0  0  0  0  0
    9.0632  -18.3574   25.9999 C   0  0  0  0  0  0  0  0  0  0  0  0
   10.2574  -18.7651   25.2124 C   0  0  0  0  0  0  0  0  0  0  0  0
   11.3995  -18.0052   25.0398 C   0  0  0  0  0  0  0  0  0  0  0  0
   12.2599  -18.6984   24.2711 N   0  0  0  0  0  0  0  0  0  0  0  0
   11.6963  -19.8673   23.9556 C   0  0  0  0  0  0  0  0  0  0  0  0
   10.4844  -19.8999   24.5293 N   0  0  0  0  0  0  0  0  0  0  0  0
   10.5886  -16.9276   27.3246 C   0  0  0  0  0  0  0  0  0  0  0  0
   11.5166  -16.1656   26.9741 O   0  0  0  0  0  0  0  0  0  0  0  0
   10.7565  -17.7143   28.4388 O   0  0  0  0  0  0  0  0  0  0  0  0
  2  1  1  0
  3  2  2  0
  4  3  1  0
  5  4  2  0
  5 11  1  0
  6  5  1  0
  7  6  1  0
  7  8  1  1
  9  7  1  0
  9 10  2  0
 11 12  2  0
 12  2  1  0
 13  9  1  0
 14 13  1  0
 14 15  1  1
 16 15  1  0
 16 17  2  0
 17 18  1  0
 19 18  2  0
 20 19  1  0
 21 20  2  0
 21 16  1  0
 22 14  1  0
 23 22  2  0
 24 22  1  0
 25 26  1  6
 25 24  1  0
 26 27  1  0
 27 28  2  0
 28 29  1  0
 30 29  1  0
 31 27  1  0
 31 30  2  0
 32 34  1  0
 32 25  1  0
 33 32  2  0
M  END
$$$$
