VMG.pdb
     RDKit          3D

 20 19  0  0  1  0  0  0  0  0999 V2000
    6.7124  -21.2986   25.3912 C   0  0  0  0  0  0  0  0  0  0  0  0
    7.2080  -19.9292   25.0362 C   0  0  1  0  0  0  0  0  0  0  0  0
    8.3799  -20.0247   24.0589 C   0  0  0  0  0  0  0  0  0  0  0  0
    6.1735  -19.0425   24.3929 C   0  0  2  0  0  0  0  0  0  0  0  0
    5.8452  -19.7117   23.1152 N   0  0  0  0  0  0  0  0  0  0  0  0
    6.7442  -17.7211   24.0141 C   0  0  0  0  0  0  0  0  0  0  0  0
    7.3042  -17.5302   22.8763 O   0  0  0  0  0  0  0  0  0  0  0  0
    6.2154  -12.0836   27.8322 C   0  0  0  0  0  0  0  0  0  0  0  0
    6.3261  -11.6057   26.0672 S   0  0  0  0  0  0  0  0  0  0  0  0
    7.1949  -12.8751   25.1313 C   0  0  0  0  0  0  0  0  0  0  0  0
    6.6999  -14.2582   25.4371 C   0  0  0  0  0  0  0  0  0  0  0  0
    7.3037  -15.3226   24.5342 C   0  0  2  0  0  0  0  0  0  0  0  0
    6.6933  -16.6149   24.8917 N   0  0  0  0  0  0  0  0  0  0  0  0
    8.7514  -15.4053   24.7993 C   0  0  0  0  0  0  0  0  0  0  0  0
    9.2076  -15.6064   25.9656 O   0  0  0  0  0  0  0  0  0  0  0  0
    9.7367  -15.2671   23.7819 N   0  0  0  0  0  0  0  0  0  0  0  0
   11.1372  -15.1135   24.0971 C   0  0  0  0  0  0  0  0  0  0  0  0
   11.8437  -16.4094   24.1492 C   0  0  0  0  0  0  0  0  0  0  0  0
   12.0544  -17.0274   23.0571 O   0  0  0  0  0  0  0  0  0  0  0  0
   12.2708  -16.9492   25.3465 O   0  0  0  0  0  0  0  0  0  0  0  0
  2  1  1  6
  3  2  1  0
  4  2  1  0
  4  5  1  6
  6  4  1  0
  7  6  2  0
  9  8  1  0
  9 10  1  0
 10 11  1  0
 12 11  1  1
 12 13  1  0
 13  6  1  0
 14 15  2  0
 14 12  1  0
 16 14  1  0
 17 16  1  0
 17 18  1  0
 18 20  1  0
 19 18  2  0
M  END
$$$$
