VMG.pdb
     RDKit          3D

 20 19  0  0  1  0  0  0  0  0999 V2000
    7.7539  -13.3226   18.2129 C   0  0  0  0  0  0  0  0  0  0  0  0
    8.4286  -13.3128   19.5513 C   0  0  1  0  0  0  0  0  0  0  0  0
    7.6089  -12.5002   20.5541 C   0  0  0  0  0  0  0  0  0  0  0  0
    8.6288  -14.6786   20.1553 C   0  0  2  0  0  0  0  0  0  0  0  0
    7.2989  -15.3220   20.0819 N   0  0  0  0  0  0  0  0  0  0  0  0
    8.9497  -14.5940   21.6062 C   0  0  0  0  0  0  0  0  0  0  0  0
   10.1405  -14.3590   22.0203 O   0  0  0  0  0  0  0  0  0  0  0  0
    7.4241  -11.8082   28.2992 C   0  0  0  0  0  0  0  0  0  0  0  0
    6.9481  -12.1495   26.5634 S   0  0  0  0  0  0  0  0  0  0  0  0
    7.1714  -13.8963   26.1880 C   0  0  0  0  0  0  0  0  0  0  0  0
    6.9741  -14.2038   24.7327 C   0  0  0  0  0  0  0  0  0  0  0  0
    8.2597  -14.6061   24.0269 C   0  0  2  0  0  0  0  0  0  0  0  0
    7.9550  -14.7676   22.5946 N   0  0  0  0  0  0  0  0  0  0  0  0
    8.7043  -15.9085   24.5553 C   0  0  0  0  0  0  0  0  0  0  0  0
    7.9189  -16.9011   24.6363 O   0  0  0  0  0  0  0  0  0  0  0  0
   10.0308  -16.1505   25.0102 N   0  0  0  0  0  0  0  0  0  0  0  0
   10.4886  -17.4783   25.3441 C   0  0  0  0  0  0  0  0  0  0  0  0
   10.6565  -17.6619   26.7999 C   0  0  0  0  0  0  0  0  0  0  0  0
    9.6671  -17.4099   27.5592 O   0  0  0  0  0  0  0  0  0  0  0  0
   11.8523  -18.0957   27.3379 O   0  0  0  0  0  0  0  0  0  0  0  0
  2  1  1  6
  3  2  1  0
  4  2  1  0
  4  5  1  1
  6  4  1  0
  7  6  2  0
  9  8  1  0
  9 10  1  0
 10 11  1  0
 12 11  1  1
 12 13  1  0
 13  6  1  0
 14 15  2  0
 14 12  1  0
 16 14  1  0
 17 16  1  0
 17 18  1  0
 18 20  1  0
 19 18  2  0
M  END
$$$$
