VMG.pdb
     RDKit          3D

 20 19  0  0  1  0  0  0  0  0999 V2000
    7.2846  -19.3385   20.4735 C   0  0  0  0  0  0  0  0  0  0  0  0
    7.9241  -18.3042   21.3498 C   0  0  1  0  0  0  0  0  0  0  0  0
    9.4439  -18.4708   21.3469 C   0  0  0  0  0  0  0  0  0  0  0  0
    7.6394  -16.8822   20.9404 C   0  0  2  0  0  0  0  0  0  0  0  0
    8.3877  -16.6964   19.6780 N   0  0  0  0  0  0  0  0  0  0  0  0
    8.2291  -15.9081   21.8989 C   0  0  0  0  0  0  0  0  0  0  0  0
    9.3917  -15.3996   21.7131 O   0  0  0  0  0  0  0  0  0  0  0  0
    6.5971  -10.8029   27.7698 C   0  0  0  0  0  0  0  0  0  0  0  0
    6.0047  -12.1564   26.6868 S   0  0  0  0  0  0  0  0  0  0  0  0
    7.3824  -12.8741   25.7762 C   0  0  0  0  0  0  0  0  0  0  0  0
    6.9382  -13.8815   24.7568 C   0  0  0  0  0  0  0  0  0  0  0  0
    8.0917  -14.4853   23.9709 C   0  0  2  0  0  0  0  0  0  0  0  0
    7.5329  -15.4976   23.0578 N   0  0  0  0  0  0  0  0  0  0  0  0
    9.0039  -15.1624   24.9103 C   0  0  0  0  0  0  0  0  0  0  0  0
    9.6237  -14.5271   25.8164 O   0  0  0  0  0  0  0  0  0  0  0  0
    9.2575  -16.5623   24.8742 N   0  0  0  0  0  0  0  0  0  0  0  0
   10.0579  -17.2151   25.8828 C   0  0  0  0  0  0  0  0  0  0  0  0
   11.4950  -16.9041   25.7436 C   0  0  0  0  0  0  0  0  0  0  0  0
   12.0103  -16.9347   24.5807 O   0  0  0  0  0  0  0  0  0  0  0  0
   12.2726  -16.5864   26.8399 O   0  0  0  0  0  0  0  0  0  0  0  0
  2  1  1  6
  3  2  1  0
  4  2  1  0
  4  5  1  6
  6  4  1  0
  7  6  2  0
  9  8  1  0
  9 10  1  0
 10 11  1  0
 12 11  1  1
 12 13  1  0
 13  6  1  0
 14 15  2  0
 14 12  1  0
 16 14  1  0
 17 16  1  0
 17 18  1  0
 18 20  1  0
 19 18  2  0
M  END
$$$$
