VMG.pdb
     RDKit          3D

 20 19  0  0  1  0  0  0  0  0999 V2000
    6.1576  -21.3035   24.2635 C   0  0  0  0  0  0  0  0  0  0  0  0
    6.7974  -19.9496   24.1981 C   0  0  1  0  0  0  0  0  0  0  0  0
    7.9553  -19.9563   23.1996 C   0  0  0  0  0  0  0  0  0  0  0  0
    5.8652  -18.8424   23.7790 C   0  0  2  0  0  0  0  0  0  0  0  0
    5.4669  -19.1878   22.3970 N   0  0  0  0  0  0  0  0  0  0  0  0
    6.5758  -17.5389   23.6737 C   0  0  0  0  0  0  0  0  0  0  0  0
    7.0629  -17.1250   22.5619 O   0  0  0  0  0  0  0  0  0  0  0  0
    5.5708  -11.0586   26.0436 C   0  0  0  0  0  0  0  0  0  0  0  0
    6.8949  -11.9869   26.9044 S   0  0  0  0  0  0  0  0  0  0  0  0
    7.6645  -13.1628   25.7787 C   0  0  0  0  0  0  0  0  0  0  0  0
    6.9611  -14.4880   25.7587 C   0  0  0  0  0  0  0  0  0  0  0  0
    7.5044  -15.4374   24.7023 C   0  0  2  0  0  0  0  0  0  0  0  0
    6.7448  -16.6963   24.7953 N   0  0  0  0  0  0  0  0  0  0  0  0
    8.9180  -15.7264   25.0048 C   0  0  0  0  0  0  0  0  0  0  0  0
    9.2753  -16.2333   26.1112 O   0  0  0  0  0  0  0  0  0  0  0  0
    9.9775  -15.4621   24.0923 N   0  0  0  0  0  0  0  0  0  0  0  0
   11.3619  -15.5287   24.4965 C   0  0  0  0  0  0  0  0  0  0  0  0
   11.9390  -16.8730   24.2945 C   0  0  0  0  0  0  0  0  0  0  0  0
   11.6438  -17.7890   25.1268 O   0  0  0  0  0  0  0  0  0  0  0  0
   12.7801  -17.1437   23.2329 O   0  0  0  0  0  0  0  0  0  0  0  0
  2  1  1  6
  3  2  1  0
  4  2  1  0
  4  5  1  6
  6  4  1  0
  7  6  2  0
  9  8  1  0
  9 10  1  0
 10 11  1  0
 12 11  1  1
 12 13  1  0
 13  6  1  0
 14 15  2  0
 14 12  1  0
 16 14  1  0
 17 16  1  0
 17 18  1  0
 18 20  1  0
 19 18  2  0
M  END
$$$$
