VMG.pdb
     RDKit          3D

 20 19  0  0  1  0  0  0  0  0999 V2000
    6.4254  -21.5000   24.7182 C   0  0  0  0  0  0  0  0  0  0  0  0
    7.0549  -20.1529   24.5289 C   0  0  1  0  0  0  0  0  0  0  0  0
    8.2077  -20.2406   23.5283 C   0  0  0  0  0  0  0  0  0  0  0  0
    6.1125  -19.0939   24.0183 C   0  0  2  0  0  0  0  0  0  0  0  0
    5.7937  -19.5083   22.6345 N   0  0  0  0  0  0  0  0  0  0  0  0
    6.7888  -17.7741   23.8919 C   0  0  0  0  0  0  0  0  0  0  0  0
    7.3977  -17.4292   22.8172 O   0  0  0  0  0  0  0  0  0  0  0  0
    5.2572  -11.6154   26.4388 C   0  0  0  0  0  0  0  0  0  0  0  0
    6.9152  -12.1159   27.0358 S   0  0  0  0  0  0  0  0  0  0  0  0
    7.6655  -13.2818   25.8869 C   0  0  0  0  0  0  0  0  0  0  0  0
    6.9510  -14.6008   25.8541 C   0  0  0  0  0  0  0  0  0  0  0  0
    7.5605  -15.5867   24.8696 C   0  0  2  0  0  0  0  0  0  0  0  0
    6.7892  -16.8392   24.9513 N   0  0  0  0  0  0  0  0  0  0  0  0
    8.9482  -15.8701   25.2786 C   0  0  0  0  0  0  0  0  0  0  0  0
    9.2234  -16.7590   26.1405 O   0  0  0  0  0  0  0  0  0  0  0  0
   10.0718  -15.1778   24.7462 N   0  0  0  0  0  0  0  0  0  0  0  0
   10.7767  -15.6572   23.5811 C   0  0  0  0  0  0  0  0  0  0  0  0
   11.7740  -16.6931   23.9183 C   0  0  0  0  0  0  0  0  0  0  0  0
   12.7870  -16.3549   24.6098 O   0  0  0  0  0  0  0  0  0  0  0  0
   11.6237  -18.0008   23.4998 O   0  0  0  0  0  0  0  0  0  0  0  0
  2  1  1  6
  3  2  1  0
  4  2  1  0
  4  5  1  6
  6  4  1  0
  7  6  2  0
  9  8  1  0
  9 10  1  0
 10 11  1  0
 12 11  1  1
 12 13  1  0
 13  6  1  0
 14 15  2  0
 14 12  1  0
 16 14  1  0
 17 16  1  0
 17 18  1  0
 18 20  1  0
 19 18  2  0
M  END
$$$$
