VMG.pdb
     RDKit          3D

 20 19  0  0  1  0  0  0  0  0999 V2000
    6.7080  -21.3409   23.8946 C   0  0  0  0  0  0  0  0  0  0  0  0
    7.2756  -19.9538   23.8750 C   0  0  1  0  0  0  0  0  0  0  0  0
    8.5024  -19.8941   22.9644 C   0  0  0  0  0  0  0  0  0  0  0  0
    6.3175  -18.8981   23.3873 C   0  0  2  0  0  0  0  0  0  0  0  0
    6.1105  -19.2090   21.9560 N   0  0  0  0  0  0  0  0  0  0  0  0
    6.9345  -17.5440   23.4145 C   0  0  0  0  0  0  0  0  0  0  0  0
    7.5696  -17.0726   22.4050 O   0  0  0  0  0  0  0  0  0  0  0  0
    6.9310  -10.5243   27.1675 C   0  0  0  0  0  0  0  0  0  0  0  0
    6.2294  -12.2083   27.0009 S   0  0  0  0  0  0  0  0  0  0  0  0
    7.1485  -13.1472   25.7696 C   0  0  0  0  0  0  0  0  0  0  0  0
    6.6426  -14.5517   25.6188 C   0  0  0  0  0  0  0  0  0  0  0  0
    7.3796  -15.3410   24.5480 C   0  0  2  0  0  0  0  0  0  0  0  0
    6.8472  -16.7146   24.5551 N   0  0  0  0  0  0  0  0  0  0  0  0
    8.8102  -15.3971   24.8993 C   0  0  0  0  0  0  0  0  0  0  0  0
    9.5165  -14.3483   24.9984 O   0  0  0  0  0  0  0  0  0  0  0  0
    9.5013  -16.6156   25.1504 N   0  0  0  0  0  0  0  0  0  0  0  0
   10.9072  -16.6374   25.4775 C   0  0  0  0  0  0  0  0  0  0  0  0
   11.6194  -17.7449   24.8086 C   0  0  0  0  0  0  0  0  0  0  0  0
   10.9681  -18.4835   24.0030 O   0  0  0  0  0  0  0  0  0  0  0  0
   12.9594  -17.9848   25.0423 O   0  0  0  0  0  0  0  0  0  0  0  0
  2  1  1  6
  3  2  1  0
  4  2  1  0
  4  5  1  6
  6  4  1  0
  7  6  2  0
  9  8  1  0
  9 10  1  0
 10 11  1  0
 12 11  1  1
 12 13  1  0
 13  6  1  0
 14 15  2  0
 14 12  1  0
 16 14  1  0
 17 16  1  0
 17 18  1  0
 18 20  1  0
 19 18  2  0
M  END
$$$$
