VMG.pdb
     RDKit          3D

 20 19  0  0  1  0  0  0  0  0999 V2000
    7.0795  -20.9732   25.4544 C   0  0  0  0  0  0  0  0  0  0  0  0
    7.3674  -19.5937   24.9436 C   0  0  1  0  0  0  0  0  0  0  0  0
    8.2320  -19.6626   23.6845 C   0  0  0  0  0  0  0  0  0  0  0  0
    6.1401  -18.7952   24.5880 C   0  0  2  0  0  0  0  0  0  0  0  0
    5.5666  -19.4881   23.4137 N   0  0  0  0  0  0  0  0  0  0  0  0
    6.4941  -17.4307   24.1103 C   0  0  0  0  0  0  0  0  0  0  0  0
    6.6366  -17.1694   22.8629 O   0  0  0  0  0  0  0  0  0  0  0  0
    6.6930  -12.0758   28.1908 C   0  0  0  0  0  0  0  0  0  0  0  0
    6.1476  -11.4625   26.5531 S   0  0  0  0  0  0  0  0  0  0  0  0
    6.6890  -12.5865   25.2548 C   0  0  0  0  0  0  0  0  0  0  0  0
    6.4295  -14.0255   25.5918 C   0  0  0  0  0  0  0  0  0  0  0  0
    6.9389  -14.9891   24.5314 C   0  0  2  0  0  0  0  0  0  0  0  0
    6.6880  -16.3594   25.0110 N   0  0  0  0  0  0  0  0  0  0  0  0
    8.3947  -14.8090   24.3856 C   0  0  0  0  0  0  0  0  0  0  0  0
    8.8987  -13.7054   24.0158 O   0  0  0  0  0  0  0  0  0  0  0  0
    9.3355  -15.8451   24.6439 N   0  0  0  0  0  0  0  0  0  0  0  0
   10.7561  -15.5901   24.6750 C   0  0  0  0  0  0  0  0  0  0  0  0
   11.4213  -15.9782   23.4148 C   0  0  0  0  0  0  0  0  0  0  0  0
   10.7032  -16.4290   22.4661 O   0  0  0  0  0  0  0  0  0  0  0  0
   12.7882  -15.8602   23.2558 O   0  0  0  0  0  0  0  0  0  0  0  0
  2  1  1  6
  3  2  1  0
  4  2  1  0
  4  5  1  6
  6  4  1  0
  7  6  2  0
  9  8  1  0
  9 10  1  0
 10 11  1  0
 12 11  1  1
 12 13  1  0
 13  6  1  0
 14 15  2  0
 14 12  1  0
 16 14  1  0
 17 16  1  0
 17 18  1  0
 18 20  1  0
 19 18  2  0
M  END
$$$$
