VMG.pdb
     RDKit          3D

 20 19  0  0  1  0  0  0  0  0999 V2000
    7.9383  -18.9278   20.2111 C   0  0  0  0  0  0  0  0  0  0  0  0
    8.4462  -18.0275   21.2965 C   0  0  1  0  0  0  0  0  0  0  0  0
    9.8678  -18.4249   21.6952 C   0  0  0  0  0  0  0  0  0  0  0  0
    8.4886  -16.5683   20.9231 C   0  0  2  0  0  0  0  0  0  0  0  0
    9.6080  -16.4574   19.9625 N   0  0  0  0  0  0  0  0  0  0  0  0
    8.8738  -15.7176   22.0820 C   0  0  0  0  0  0  0  0  0  0  0  0
   10.0698  -15.2782   22.2272 O   0  0  0  0  0  0  0  0  0  0  0  0
    6.1625  -10.6986   27.5564 C   0  0  0  0  0  0  0  0  0  0  0  0
    5.7618  -12.0918   26.4365 S   0  0  0  0  0  0  0  0  0  0  0  0
    7.2733  -12.8813   25.8586 C   0  0  0  0  0  0  0  0  0  0  0  0
    7.0335  -13.8161   24.7097 C   0  0  0  0  0  0  0  0  0  0  0  0
    8.3073  -14.4645   24.1904 C   0  0  2  0  0  0  0  0  0  0  0  0
    7.9373  -15.3537   23.0755 N   0  0  0  0  0  0  0  0  0  0  0  0
    8.8934  -15.2874   25.2639 C   0  0  0  0  0  0  0  0  0  0  0  0
    9.2703  -14.7819   26.3644 O   0  0  0  0  0  0  0  0  0  0  0  0
    9.0804  -16.6936   25.1508 N   0  0  0  0  0  0  0  0  0  0  0  0
    9.5015  -17.4962   26.2744 C   0  0  0  0  0  0  0  0  0  0  0  0
   10.9719  -17.5524   26.4012 C   0  0  0  0  0  0  0  0  0  0  0  0
   11.6717  -17.5279   25.3389 O   0  0  0  0  0  0  0  0  0  0  0  0
   11.5860  -17.6298   27.6359 O   0  0  0  0  0  0  0  0  0  0  0  0
  2  1  1  6
  3  2  1  0
  4  2  1  0
  4  5  1  6
  6  4  1  0
  7  6  2  0
  9  8  1  0
  9 10  1  0
 10 11  1  0
 12 11  1  1
 12 13  1  0
 13  6  1  0
 14 15  2  0
 14 12  1  0
 16 14  1  0
 17 16  1  0
 17 18  1  0
 18 20  1  0
 19 18  2  0
M  END
$$$$
