VMG.pdb
     RDKit          3D

 20 19  0  0  1  0  0  0  0  0999 V2000
    7.9763  -20.1268   24.5232 C   0  0  0  0  0  0  0  0  0  0  0  0
    6.9270  -20.1251   23.4528 C   0  0  1  0  0  0  0  0  0  0  0  0
    6.2656  -21.5001   23.3544 C   0  0  0  0  0  0  0  0  0  0  0  0
    5.8225  -19.1231   23.6684 C   0  0  2  0  0  0  0  0  0  0  0  0
    4.9961  -19.2037   22.4442 N   0  0  0  0  0  0  0  0  0  0  0  0
    6.3459  -17.7303   23.7034 C   0  0  0  0  0  0  0  0  0  0  0  0
    6.6810  -17.1094   22.6325 O   0  0  0  0  0  0  0  0  0  0  0  0
    7.0419  -10.7211   26.0706 C   0  0  0  0  0  0  0  0  0  0  0  0
    6.1460  -12.3017   26.3051 S   0  0  0  0  0  0  0  0  0  0  0  0
    7.3137  -13.6653   26.4430 C   0  0  0  0  0  0  0  0  0  0  0  0
    6.6669  -15.0028   26.2326 C   0  0  0  0  0  0  0  0  0  0  0  0
    7.1370  -15.7017   24.9665 C   0  0  2  0  0  0  0  0  0  0  0  0
    6.4960  -17.0274   24.9199 N   0  0  0  0  0  0  0  0  0  0  0  0
    8.5963  -15.8957   25.0446 C   0  0  0  0  0  0  0  0  0  0  0  0
    9.4026  -14.9166   25.0397 O   0  0  0  0  0  0  0  0  0  0  0  0
    9.2061  -17.1787   25.1296 N   0  0  0  0  0  0  0  0  0  0  0  0
   10.6408  -17.3393   25.1238 C   0  0  0  0  0  0  0  0  0  0  0  0
   11.1916  -17.4914   26.4857 C   0  0  0  0  0  0  0  0  0  0  0  0
   10.3855  -17.4687   27.4699 O   0  0  0  0  0  0  0  0  0  0  0  0
   12.5461  -17.6549   26.7007 O   0  0  0  0  0  0  0  0  0  0  0  0
  2  1  1  1
  3  2  1  0
  4  2  1  0
  4  5  1  6
  6  4  1  0
  7  6  2  0
  9  8  1  0
  9 10  1  0
 10 11  1  0
 12 11  1  1
 12 13  1  0
 13  6  1  0
 14 15  2  0
 14 12  1  0
 16 14  1  0
 17 16  1  0
 17 18  1  0
 18 20  1  0
 19 18  2  0
M  END
$$$$
