VMG.pdb
     RDKit          3D

 20 19  0  0  1  0  0  0  0  0999 V2000
    8.5121  -18.2973   19.9330 C   0  0  0  0  0  0  0  0  0  0  0  0
    8.8966  -17.5147   21.1522 C   0  0  1  0  0  0  0  0  0  0  0  0
   10.4167  -17.4979   21.3157 C   0  0  0  0  0  0  0  0  0  0  0  0
    8.4429  -16.0779   21.1359 C   0  0  2  0  0  0  0  0  0  0  0  0
    9.3343  -15.4120   20.1613 N   0  0  0  0  0  0  0  0  0  0  0  0
    8.7052  -15.4061   22.4378 C   0  0  0  0  0  0  0  0  0  0  0  0
    9.7447  -14.6783   22.6230 O   0  0  0  0  0  0  0  0  0  0  0  0
    6.6070  -10.6183   26.6649 C   0  0  0  0  0  0  0  0  0  0  0  0
    7.3671  -12.2831   26.5850 S   0  0  0  0  0  0  0  0  0  0  0  0
    6.3399  -13.3907   25.6051 C   0  0  0  0  0  0  0  0  0  0  0  0
    6.8410  -14.8049   25.6174 C   0  0  0  0  0  0  0  0  0  0  0  0
    8.1447  -14.9840   24.8553 C   0  0  2  0  0  0  0  0  0  0  0  0
    7.8186  -15.5388   23.5300 N   0  0  0  0  0  0  0  0  0  0  0  0
    8.9841  -15.9610   25.5723 C   0  0  0  0  0  0  0  0  0  0  0  0
    9.4477  -15.7235   26.7288 O   0  0  0  0  0  0  0  0  0  0  0  0
    9.3356  -17.2290   25.0304 N   0  0  0  0  0  0  0  0  0  0  0  0
   10.0157  -18.2293   25.8184 C   0  0  0  0  0  0  0  0  0  0  0  0
   11.4643  -18.2748   25.5343 C   0  0  0  0  0  0  0  0  0  0  0  0
   12.1767  -19.1234   26.1598 O   0  0  0  0  0  0  0  0  0  0  0  0
   12.0450  -17.4232   24.6150 O   0  0  0  0  0  0  0  0  0  0  0  0
  2  1  1  6
  3  2  1  0
  4  2  1  0
  4  5  1  6
  6  4  1  0
  7  6  2  0
  9  8  1  0
  9 10  1  0
 10 11  1  0
 12 11  1  1
 12 13  1  0
 13  6  1  0
 14 15  2  0
 14 12  1  0
 16 14  1  0
 17 16  1  0
 17 18  1  0
 18 20  1  0
 19 18  2  0
M  END
$$$$
