VMG.pdb
     RDKit          3D

 20 19  0  0  1  0  0  0  0  0999 V2000
    9.3346  -18.6611   22.4052 C   0  0  0  0  0  0  0  0  0  0  0  0
    9.8627  -17.7665   21.3247 C   0  0  1  0  0  0  0  0  0  0  0  0
    9.8835  -18.5048   19.9860 C   0  0  0  0  0  0  0  0  0  0  0  0
    9.0632  -16.5064   21.1166 C   0  0  2  0  0  0  0  0  0  0  0  0
    9.8033  -15.7576   20.0775 N   0  0  0  0  0  0  0  0  0  0  0  0
    9.0864  -15.6374   22.3247 C   0  0  0  0  0  0  0  0  0  0  0  0
   10.1591  -15.0515   22.7127 O   0  0  0  0  0  0  0  0  0  0  0  0
    6.9899  -11.0395   27.5525 C   0  0  0  0  0  0  0  0  0  0  0  0
    7.2843  -11.9445   25.9872 S   0  0  0  0  0  0  0  0  0  0  0  0
    6.4323  -13.5305   26.0147 C   0  0  0  0  0  0  0  0  0  0  0  0
    6.5369  -14.2647   24.7103 C   0  0  0  0  0  0  0  0  0  0  0  0
    7.9679  -14.6183   24.3364 C   0  0  2  0  0  0  0  0  0  0  0  0
    7.9254  -15.4172   23.0992 N   0  0  0  0  0  0  0  0  0  0  0  0
    8.5465  -15.4517   25.4059 C   0  0  0  0  0  0  0  0  0  0  0  0
    8.9252  -14.9555   26.5100 O   0  0  0  0  0  0  0  0  0  0  0  0
    8.7236  -16.8586   25.2847 N   0  0  0  0  0  0  0  0  0  0  0  0
    9.1911  -17.6628   26.3887 C   0  0  0  0  0  0  0  0  0  0  0  0
   10.6643  -17.6656   26.4935 C   0  0  0  0  0  0  0  0  0  0  0  0
   11.1936  -17.2791   27.5841 O   0  0  0  0  0  0  0  0  0  0  0  0
   11.4604  -18.0750   25.4418 O   0  0  0  0  0  0  0  0  0  0  0  0
  2  1  1  1
  3  2  1  0
  4  2  1  0
  4  5  1  6
  6  4  1  0
  7  6  2  0
  9  8  1  0
  9 10  1  0
 10 11  1  0
 12 11  1  1
 12 13  1  0
 13  6  1  0
 14 15  2  0
 14 12  1  0
 16 14  1  0
 17 16  1  0
 17 18  1  0
 18 20  1  0
 19 18  2  0
M  END
$$$$
