QDP.pdb
     RDKit          3D

 25 25  0  0  1  0  0  0  0  0999 V2000
   10.2960  -14.3243   17.3937 N   0  0  0  0  0  0  0  0  0  0  0  0
   10.0530  -13.4365   18.4596 C   0  0  0  0  0  0  0  0  0  0  0  0
   10.9651  -13.2530   19.3049 O   0  0  0  0  0  0  0  0  0  0  0  0
    8.7527  -12.7323   18.5858 C   0  0  0  0  0  0  0  0  0  0  0  0
    8.1111  -12.9982   19.9269 C   0  0  0  0  0  0  0  0  0  0  0  0
    7.6843  -14.4242   20.0383 C   0  0  2  0  0  0  0  0  0  0  0  0
    6.7203  -14.7611   19.0352 N   0  0  0  0  0  0  0  0  0  0  0  0
    7.2060  -14.7224   21.4113 C   0  0  0  0  0  0  0  0  0  0  0  0
    6.1511  -14.2608   21.9010 O   0  0  0  0  0  0  0  0  0  0  0  0
    7.9901  -15.6004   22.2615 N   0  0  0  0  0  0  0  0  0  0  0  0
    7.6386  -15.8198   23.6300 C   0  0  1  0  0  0  0  0  0  0  0  0
    7.6057  -17.3039   23.9030 C   0  0  0  0  0  0  0  0  0  0  0  0
    7.3125  -17.5434   25.3244 C   0  0  0  0  0  0  0  0  0  0  0  0
    8.1769  -17.6212   26.2185 O   0  0  0  0  0  0  0  0  0  0  0  0
    8.5140  -15.2181   24.6476 C   0  0  0  0  0  0  0  0  0  0  0  0
    9.7757  -15.4198   24.3785 O   0  0  0  0  0  0  0  0  0  0  0  0
    5.9873  -17.7042   25.7704 O   0  0  0  0  0  0  0  0  0  0  0  0
    8.1621  -14.5058   25.7897 N   0  0  0  0  0  0  0  0  0  0  0  0
    6.7815  -14.2427   26.1573 C   0  0  0  0  0  0  0  0  0  0  0  0
    6.8427  -12.8512   26.7264 C   0  0  0  0  0  0  0  0  0  0  0  0
    8.2953  -12.5417   26.9611 C   0  0  0  0  0  0  0  0  0  0  0  0
    8.9704  -13.9258   26.7920 C   0  0  1  0  0  0  0  0  0  0  0  0
    8.8830  -14.5607   28.1335 C   0  0  0  0  0  0  0  0  0  0  0  0
    8.0175  -15.6343   28.3743 O   0  0  0  0  0  0  0  0  0  0  0  0
    9.5642  -14.1822   29.1113 O   0  0  0  0  0  0  0  0  0  0  0  0
  1  2  1  0
  2  4  1  0
  3  2  2  0
  4  5  1  0
  6  8  1  0
  6  5  1  0
  6  7  1  6
  8  9  2  0
 10 11  1  0
 10  8  1  0
 11 12  1  1
 12 13  1  0
 13 14  2  0
 13 17  1  0
 15 11  1  0
 16 15  2  0
 18 15  1  0
 18 22  1  0
 19 20  1  0
 19 18  1  0
 20 21  1  0
 21 22  1  0
 22 23  1  1
 23 24  1  0
 25 23  2  0
M  END
$$$$
