QDP.pdb
     RDKit          3D

 25 25  0  0  1  0  0  0  0  0999 V2000
   14.2998  -17.1511   16.4605 N   0  0  0  0  0  0  0  0  0  0  0  0
   14.0930  -16.2729   15.3790 C   0  0  0  0  0  0  0  0  0  0  0  0
   15.0959  -15.8619   14.7422 O   0  0  0  0  0  0  0  0  0  0  0  0
   12.7257  -15.8406   14.9969 C   0  0  0  0  0  0  0  0  0  0  0  0
   11.9531  -16.9664   14.3513 C   0  0  0  0  0  0  0  0  0  0  0  0
   10.5799  -16.5200   13.9730 C   0  0  2  0  0  0  0  0  0  0  0  0
   10.6173  -15.5450   12.9257 N   0  0  0  0  0  0  0  0  0  0  0  0
    9.8357  -16.0462   15.1665 C   0  0  0  0  0  0  0  0  0  0  0  0
    9.6455  -14.8400   15.4398 O   0  0  0  0  0  0  0  0  0  0  0  0
    9.2830  -17.0195   16.0915 N   0  0  0  0  0  0  0  0  0  0  0  0
    8.5571  -16.6125   17.2542 C   0  0  1  0  0  0  0  0  0  0  0  0
    7.9619  -17.8294   17.9198 C   0  0  0  0  0  0  0  0  0  0  0  0
    7.0219  -17.4130   18.9719 C   0  0  0  0  0  0  0  0  0  0  0  0
    6.8766  -16.2386   19.3620 O   0  0  0  0  0  0  0  0  0  0  0  0
    9.3088  -15.8852   18.2885 C   0  0  0  0  0  0  0  0  0  0  0  0
   10.5555  -16.2702   18.3390 O   0  0  0  0  0  0  0  0  0  0  0  0
    6.2026  -18.3554   19.6214 O   0  0  0  0  0  0  0  0  0  0  0  0
    8.8606  -14.8977   19.1601 N   0  0  0  0  0  0  0  0  0  0  0  0
    7.4632  -14.5133   19.2602 C   0  0  0  0  0  0  0  0  0  0  0  0
    7.5363  -13.0252   19.4700 C   0  0  0  0  0  0  0  0  0  0  0  0
    8.9642  -12.7052   19.8158 C   0  0  0  0  0  0  0  0  0  0  0  0
    9.5709  -14.1046   20.0879 C   0  0  1  0  0  0  0  0  0  0  0  0
    9.2789  -14.3765   21.5200 C   0  0  0  0  0  0  0  0  0  0  0  0
    8.3242  -15.3274   21.8991 O   0  0  0  0  0  0  0  0  0  0  0  0
    9.8570  -13.7836   22.4569 O   0  0  0  0  0  0  0  0  0  0  0  0
  1  2  1  0
  2  4  1  0
  3  2  2  0
  4  5  1  0
  6  8  1  0
  6  5  1  0
  6  7  1  6
  8  9  2  0
 10 11  1  0
 10  8  1  0
 11 12  1  1
 12 13  1  0
 13 14  2  0
 13 17  1  0
 15 11  1  0
 16 15  2  0
 18 15  1  0
 18 22  1  0
 19 20  1  0
 19 18  1  0
 20 21  1  0
 21 22  1  0
 22 23  1  1
 23 24  1  0
 25 23  2  0
M  END
$$$$
