QDP.pdb
     RDKit          3D

 25 25  0  0  1  0  0  0  0  0999 V2000
   -1.7836  -24.4938   35.0209 N   0  0  0  0  0  0  0  0  0  0  0  0
   -0.5204  -24.8629   34.5190 C   0  0  0  0  0  0  0  0  0  0  0  0
    0.4901  -24.2320   34.9202 O   0  0  0  0  0  0  0  0  0  0  0  0
   -0.3812  -25.9695   33.5400 C   0  0  0  0  0  0  0  0  0  0  0  0
   -1.7282  -26.5249   33.1425 C   0  0  0  0  0  0  0  0  0  0  0  0
   -1.6959  -27.0475   31.7446 C   0  0  2  0  0  0  0  0  0  0  0  0
   -0.3705  -27.4259   31.3586 N   0  0  0  0  0  0  0  0  0  0  0  0
   -2.3062  -26.0726   30.8066 C   0  0  0  0  0  0  0  0  0  0  0  0
   -1.7203  -25.0546   30.3754 O   0  0  0  0  0  0  0  0  0  0  0  0
   -3.6657  -26.2877   30.3439 N   0  0  0  0  0  0  0  0  0  0  0  0
   -4.2984  -25.3749   29.4433 C   0  0  1  0  0  0  0  0  0  0  0  0
   -5.4036  -26.0905   28.7053 C   0  0  0  0  0  0  0  0  0  0  0  0
   -4.8288  -27.1003   27.8033 C   0  0  0  0  0  0  0  0  0  0  0  0
   -3.7457  -26.9716   27.2007 O   0  0  0  0  0  0  0  0  0  0  0  0
   -4.8919  -24.1635   30.0300 C   0  0  0  0  0  0  0  0  0  0  0  0
   -5.0291  -24.2719   31.3240 O   0  0  0  0  0  0  0  0  0  0  0  0
   -5.4967  -28.3155   27.5618 O   0  0  0  0  0  0  0  0  0  0  0  0
   -5.2957  -22.9942   29.3935 N   0  0  0  0  0  0  0  0  0  0  0  0
   -5.2006  -22.8091   27.9558 C   0  0  0  0  0  0  0  0  0  0  0  0
   -4.8136  -21.3609   27.8263 C   0  0  0  0  0  0  0  0  0  0  0  0
   -5.0442  -20.7281   29.1707 C   0  0  0  0  0  0  0  0  0  0  0  0
   -5.8578  -21.8114   29.9222 C   0  0  1  0  0  0  0  0  0  0  0  0
   -7.2740  -21.5527   29.5510 C   0  0  0  0  0  0  0  0  0  0  0  0
   -7.9136  -22.3037   28.5578 O   0  0  0  0  0  0  0  0  0  0  0  0
   -7.9683  -20.6652   30.0928 O   0  0  0  0  0  0  0  0  0  0  0  0
  1  2  1  0
  2  4  1  0
  3  2  2  0
  4  5  1  0
  6  8  1  0
  6  5  1  0
  6  7  1  6
  8  9  2  0
 10 11  1  0
 10  8  1  0
 11 12  1  1
 12 13  1  0
 13 14  2  0
 13 17  1  0
 15 11  1  0
 16 15  2  0
 18 15  1  0
 18 22  1  0
 19 20  1  0
 19 18  1  0
 20 21  1  0
 21 22  1  0
 22 23  1  6
 23 24  1  0
 25 23  2  0
M  END
$$$$
