QDP.pdb
     RDKit          3D

 25 25  0  0  1  0  0  0  0  0999 V2000
    7.6051  -15.0831   17.2286 N   0  0  0  0  0  0  0  0  0  0  0  0
    8.2333  -13.8464   16.9846 C   0  0  0  0  0  0  0  0  0  0  0  0
    8.8160  -13.6787   15.8834 O   0  0  0  0  0  0  0  0  0  0  0  0
    8.2104  -12.7645   18.0001 C   0  0  0  0  0  0  0  0  0  0  0  0
    7.5187  -13.2127   19.2657 C   0  0  0  0  0  0  0  0  0  0  0  0
    8.5132  -13.5030   20.3404 C   0  0  2  0  0  0  0  0  0  0  0  0
    9.4510  -14.5029   19.9284 N   0  0  0  0  0  0  0  0  0  0  0  0
    7.8268  -13.8535   21.6087 C   0  0  0  0  0  0  0  0  0  0  0  0
    7.1042  -13.0628   22.2555 O   0  0  0  0  0  0  0  0  0  0  0  0
    7.9853  -15.1889   22.1566 N   0  0  0  0  0  0  0  0  0  0  0  0
    7.5540  -15.5052   23.4827 C   0  0  1  0  0  0  0  0  0  0  0  0
    7.3275  -16.9936   23.5899 C   0  0  0  0  0  0  0  0  0  0  0  0
    6.9660  -17.3450   24.9717 C   0  0  0  0  0  0  0  0  0  0  0  0
    7.7839  -17.4722   25.9031 O   0  0  0  0  0  0  0  0  0  0  0  0
    8.4546  -15.1303   24.5837 C   0  0  0  0  0  0  0  0  0  0  0  0
    9.7030  -15.3767   24.2907 O   0  0  0  0  0  0  0  0  0  0  0  0
    5.6234  -17.5656   25.3322 O   0  0  0  0  0  0  0  0  0  0  0  0
    8.1368  -14.5789   25.8208 N   0  0  0  0  0  0  0  0  0  0  0  0
    6.7717  -14.4713   26.3059 C   0  0  0  0  0  0  0  0  0  0  0  0
    6.7722  -13.1505   27.0264 C   0  0  0  0  0  0  0  0  0  0  0  0
    8.2114  -12.7511   27.1997 C   0  0  0  0  0  0  0  0  0  0  0  0
    8.9723  -14.0485   26.8284 C   0  0  1  0  0  0  0  0  0  0  0  0
    9.0317  -14.8320   28.0905 C   0  0  0  0  0  0  0  0  0  0  0  0
    9.8712  -14.4505   29.1437 O   0  0  0  0  0  0  0  0  0  0  0  0
    8.3483  -15.8607   28.2857 O   0  0  0  0  0  0  0  0  0  0  0  0
  1  2  1  0
  2  4  1  0
  3  2  2  0
  4  5  1  0
  6  8  1  0
  6  5  1  0
  6  7  1  6
  8  9  2  0
 10 11  1  0
 10  8  1  0
 11 12  1  6
 12 13  1  0
 13 14  2  0
 13 17  1  0
 15 11  1  0
 16 15  2  0
 18 15  1  0
 18 22  1  0
 19 20  1  0
 19 18  1  0
 20 21  1  0
 21 22  1  0
 22 23  1  1
 23 24  1  0
 25 23  2  0
M  END
$$$$
