YQS.pdb
     RDKit          3D

 28 28  0  0  1  0  0  0  0  0999 V2000
    7.4682  -11.6728   18.6128 O   0  0  0  0  0  0  0  0  0  0  0  0
    7.8363  -12.6706   19.5003 C   0  0  0  0  0  0  0  0  0  0  0  0
    6.8669  -13.3767   20.2198 C   0  0  0  0  0  0  0  0  0  0  0  0
    7.2680  -14.3601   21.0900 C   0  0  0  0  0  0  0  0  0  0  0  0
    8.5846  -14.6930   21.2952 C   0  0  0  0  0  0  0  0  0  0  0  0
    9.0224  -15.7391   22.2294 C   0  0  0  0  0  0  0  0  0  0  0  0
    9.3387  -16.9973   21.4198 C   0  0  2  0  0  0  0  0  0  0  0  0
    8.1366  -17.5836   20.8852 N   0  0  0  0  0  0  0  0  0  0  0  0
   10.0077  -17.9262   22.3784 C   0  0  0  0  0  0  0  0  0  0  0  0
    9.3040  -18.7159   23.0571 O   0  0  0  0  0  0  0  0  0  0  0  0
    9.5333  -13.9884   20.5789 C   0  0  0  0  0  0  0  0  0  0  0  0
    9.1569  -13.0040   19.7063 C   0  0  0  0  0  0  0  0  0  0  0  0
   15.1044  -20.5094   21.1516 N   0  0  0  0  0  0  0  0  0  0  0  0
   15.2155  -20.7266   22.5541 C   0  0  0  0  0  0  0  0  0  0  0  0
   16.0429  -21.5751   22.9643 O   0  0  0  0  0  0  0  0  0  0  0  0
   14.3602  -19.9568   23.5234 C   0  0  0  0  0  0  0  0  0  0  0  0
   13.4706  -18.9968   22.8045 C   0  0  0  0  0  0  0  0  0  0  0  0
   12.0572  -18.9127   23.3474 C   0  0  2  0  0  0  0  0  0  0  0  0
   11.4133  -17.8955   22.5005 N   0  0  0  0  0  0  0  0  0  0  0  0
   11.9655  -18.4141   24.7219 C   0  0  0  0  0  0  0  0  0  0  0  0
   11.4903  -17.2480   24.9792 O   0  0  0  0  0  0  0  0  0  0  0  0
    9.5279  -19.7913   28.0753 O   0  0  0  0  0  0  0  0  0  0  0  0
   10.1640  -19.7794   26.8106 C   0  0  0  0  0  0  0  0  0  0  0  0
   11.5401  -19.2111   27.0683 C   0  0  2  0  0  0  0  0  0  0  0  0
   12.3653  -19.1144   25.8987 N   0  0  0  0  0  0  0  0  0  0  0  0
   12.2008  -20.1053   28.0457 C   0  0  0  0  0  0  0  0  0  0  0  0
   12.3717  -19.7088   29.3848 O   0  0  0  0  0  0  0  0  0  0  0  0
   12.6113  -21.2236   27.6786 O   0  0  0  0  0  0  0  0  0  0  0  0
  2  1  1  0
  3  2  2  0
  4  3  1  0
  5  4  2  0
  5 11  1  0
  6  5  1  0
  7  6  1  0
  7  9  1  0
  7  8  1  1
  9 10  2  0
 11 12  2  0
 12  2  1  0
 14 13  1  0
 15 14  2  0
 16 14  1  0
 17 16  1  0
 18 17  1  6
 19  9  1  0
 19 18  1  0
 20 18  1  0
 20 21  2  0
 22 23  1  0
 24 23  1  6
 24 25  1  0
 25 20  1  0
 26 24  1  0
 26 27  1  0
 28 26  2  0
M  END
$$$$
