YQS.pdb
     RDKit          3D

 28 28  0  0  1  0  0  0  0  0999 V2000
    7.3513  -10.9538   27.0084 O   0  0  0  0  0  0  0  0  0  0  0  0
    7.2486  -12.2891   26.6550 C   0  0  0  0  0  0  0  0  0  0  0  0
    8.3739  -13.0012   26.2277 C   0  0  0  0  0  0  0  0  0  0  0  0
    8.2354  -14.3239   25.8864 C   0  0  0  0  0  0  0  0  0  0  0  0
    7.0382  -14.9946   25.9423 C   0  0  0  0  0  0  0  0  0  0  0  0
    6.8801  -16.4077   25.5723 C   0  0  0  0  0  0  0  0  0  0  0  0
    6.1834  -16.4679   24.2123 C   0  0  2  0  0  0  0  0  0  0  0  0
    5.5421  -17.7425   24.0161 N   0  0  0  0  0  0  0  0  0  0  0  0
    7.2638  -16.2507   23.2049 C   0  0  0  0  0  0  0  0  0  0  0  0
    8.0302  -17.2036   22.9148 O   0  0  0  0  0  0  0  0  0  0  0  0
    5.9333  -14.2807   26.3656 C   0  0  0  0  0  0  0  0  0  0  0  0
    6.0476  -12.9616   26.7106 C   0  0  0  0  0  0  0  0  0  0  0  0
    9.2577  -13.9712   18.5292 N   0  0  0  0  0  0  0  0  0  0  0  0
    7.8505  -13.7773   18.6221 C   0  0  0  0  0  0  0  0  0  0  0  0
    7.1559  -13.9318   17.5894 O   0  0  0  0  0  0  0  0  0  0  0  0
    7.2096  -13.3954   19.9287 C   0  0  0  0  0  0  0  0  0  0  0  0
    8.2072  -13.4190   21.0395 C   0  0  0  0  0  0  0  0  0  0  0  0
    8.4788  -14.7935   21.6196 C   0  0  2  0  0  0  0  0  0  0  0  0
    7.3997  -14.9816   22.6028 N   0  0  0  0  0  0  0  0  0  0  0  0
    9.7335  -14.8970   22.3689 C   0  0  0  0  0  0  0  0  0  0  0  0
    9.8179  -14.5006   23.5885 O   0  0  0  0  0  0  0  0  0  0  0  0
   11.3829  -17.8013   23.1834 O   0  0  0  0  0  0  0  0  0  0  0  0
   11.8820  -16.6427   23.8259 C   0  0  0  0  0  0  0  0  0  0  0  0
   12.1091  -15.6443   22.7148 C   0  0  2  0  0  0  0  0  0  0  0  0
   10.9647  -15.4247   21.8780 N   0  0  0  0  0  0  0  0  0  0  0  0
   13.2153  -16.1683   21.8822 C   0  0  0  0  0  0  0  0  0  0  0  0
   14.5086  -16.3211   22.4148 O   0  0  0  0  0  0  0  0  0  0  0  0
   12.9991  -16.4785   20.6944 O   0  0  0  0  0  0  0  0  0  0  0  0
  2  1  1  0
  3  2  2  0
  4  3  1  0
  5  4  2  0
  5 11  1  0
  6  5  1  0
  7  6  1  0
  7  9  1  0
  7  8  1  6
  9 10  2  0
 11 12  2  0
 12  2  1  0
 14 13  1  0
 15 14  2  0
 16 14  1  0
 17 16  1  0
 18 17  1  1
 19  9  1  0
 19 18  1  0
 20 18  1  0
 20 21  2  0
 22 23  1  0
 24 23  1  1
 24 25  1  0
 25 20  1  0
 26 24  1  0
 26 27  1  0
 28 26  2  0
M  END
$$$$
