YQS.pdb
     RDKit          3D

 28 28  0  0  1  0  0  0  0  0999 V2000
    8.2700  -13.4008   17.8643 O   0  0  0  0  0  0  0  0  0  0  0  0
    7.8815  -13.6752   19.1652 C   0  0  0  0  0  0  0  0  0  0  0  0
    8.2605  -12.8317   20.2145 C   0  0  0  0  0  0  0  0  0  0  0  0
    7.8564  -13.1338   21.4914 C   0  0  0  0  0  0  0  0  0  0  0  0
    7.0909  -14.2319   21.7990 C   0  0  0  0  0  0  0  0  0  0  0  0
    6.6601  -14.5661   23.1634 C   0  0  0  0  0  0  0  0  0  0  0  0
    7.0293  -16.0251   23.4345 C   0  0  2  0  0  0  0  0  0  0  0  0
    5.9253  -16.7362   24.0260 N   0  0  0  0  0  0  0  0  0  0  0  0
    8.1939  -15.9713   24.3673 C   0  0  0  0  0  0  0  0  0  0  0  0
    8.0281  -15.5163   25.5270 O   0  0  0  0  0  0  0  0  0  0  0  0
    6.7229  -15.0581   20.7542 C   0  0  0  0  0  0  0  0  0  0  0  0
    7.1142  -14.7769   19.4737 C   0  0  0  0  0  0  0  0  0  0  0  0
    8.9166  -19.3743   27.9998 N   0  0  0  0  0  0  0  0  0  0  0  0
   10.1569  -18.6805   28.0816 C   0  0  0  0  0  0  0  0  0  0  0  0
   10.6188  -18.4127   29.2164 O   0  0  0  0  0  0  0  0  0  0  0  0
   10.8977  -18.2766   26.8359 C   0  0  0  0  0  0  0  0  0  0  0  0
    9.9548  -17.7699   25.7948 C   0  0  0  0  0  0  0  0  0  0  0  0
   10.5032  -16.6490   24.9332 C   0  0  2  0  0  0  0  0  0  0  0  0
    9.4526  -16.4315   23.9255 N   0  0  0  0  0  0  0  0  0  0  0  0
   11.7155  -16.9966   24.1876 C   0  0  0  0  0  0  0  0  0  0  0  0
   11.8589  -18.1541   23.6478 O   0  0  0  0  0  0  0  0  0  0  0  0
   15.0841  -14.6267   23.9057 O   0  0  0  0  0  0  0  0  0  0  0  0
   14.8557  -15.4008   22.7426 C   0  0  0  0  0  0  0  0  0  0  0  0
   13.9829  -16.5469   23.1986 C   0  0  2  0  0  0  0  0  0  0  0  0
   12.8396  -16.1464   23.9671 N   0  0  0  0  0  0  0  0  0  0  0  0
   14.8304  -17.4314   24.0297 C   0  0  0  0  0  0  0  0  0  0  0  0
   14.4777  -17.7264   25.3594 O   0  0  0  0  0  0  0  0  0  0  0  0
   15.8697  -17.9214   23.5463 O   0  0  0  0  0  0  0  0  0  0  0  0
  2  1  1  0
  3  2  2  0
  4  3  1  0
  5  4  2  0
  5 11  1  0
  6  5  1  0
  7  6  1  0
  7  9  1  0
  7  8  1  1
  9 10  2  0
 11 12  2  0
 12  2  1  0
 14 13  1  0
 15 14  2  0
 16 14  1  0
 17 16  1  0
 18 17  1  1
 19  9  1  0
 19 18  1  0
 20 18  1  0
 20 21  2  0
 22 23  1  0
 24 23  1  1
 24 25  1  0
 25 20  1  0
 26 24  1  0
 26 27  1  0
 28 26  2  0
M  END
$$$$
