YQS.pdb
     RDKit          3D

 28 28  0  0  1  0  0  0  0  0999 V2000
    5.7158  -10.5821   28.1961 O   0  0  0  0  0  0  0  0  0  0  0  0
    6.2200  -11.6872   27.5303 C   0  0  0  0  0  0  0  0  0  0  0  0
    5.8421  -11.9575   26.2112 C   0  0  0  0  0  0  0  0  0  0  0  0
    6.3627  -13.0611   25.5818 C   0  0  0  0  0  0  0  0  0  0  0  0
    7.2451  -13.9247   26.1834 C   0  0  0  0  0  0  0  0  0  0  0  0
    7.8014  -15.1115   25.5194 C   0  0  0  0  0  0  0  0  0  0  0  0
    6.7055  -15.7257   24.6474 C   0  0  2  0  0  0  0  0  0  0  0  0
    6.2246  -16.9593   25.2143 N   0  0  0  0  0  0  0  0  0  0  0  0
    7.3432  -15.9595   23.3177 C   0  0  0  0  0  0  0  0  0  0  0  0
    7.5025  -17.1392   22.9146 O   0  0  0  0  0  0  0  0  0  0  0  0
    7.6109  -13.6476   27.4869 C   0  0  0  0  0  0  0  0  0  0  0  0
    7.1047  -12.5536   28.1340 C   0  0  0  0  0  0  0  0  0  0  0  0
    6.5479  -14.0017   18.3291 N   0  0  0  0  0  0  0  0  0  0  0  0
    7.9479  -13.9716   18.0734 C   0  0  0  0  0  0  0  0  0  0  0  0
    8.3457  -14.1606   16.8992 O   0  0  0  0  0  0  0  0  0  0  0  0
    8.9294  -13.7192   19.1855 C   0  0  0  0  0  0  0  0  0  0  0  0
    8.2533  -13.7706   20.5159 C   0  0  0  0  0  0  0  0  0  0  0  0
    8.3416  -15.1100   21.2215 C   0  0  2  0  0  0  0  0  0  0  0  0
    7.7525  -14.8516   22.5453 N   0  0  0  0  0  0  0  0  0  0  0  0
    9.7088  -15.5746   21.4690 C   0  0  0  0  0  0  0  0  0  0  0  0
   10.4343  -15.0538   22.3933 O   0  0  0  0  0  0  0  0  0  0  0  0
   10.9536  -19.0799   21.8980 O   0  0  0  0  0  0  0  0  0  0  0  0
   11.9192  -18.5360   21.0171 C   0  0  0  0  0  0  0  0  0  0  0  0
   11.7154  -17.0404   21.0859 C   0  0  2  0  0  0  0  0  0  0  0  0
   10.3853  -16.6121   20.7611 N   0  0  0  0  0  0  0  0  0  0  0  0
   12.6611  -16.4306   20.1240 C   0  0  0  0  0  0  0  0  0  0  0  0
   14.0483  -16.6259   20.2546 O   0  0  0  0  0  0  0  0  0  0  0  0
   12.2238  -15.7353   19.1864 O   0  0  0  0  0  0  0  0  0  0  0  0
  2  1  1  0
  3  2  2  0
  4  3  1  0
  5  4  2  0
  5 11  1  0
  6  5  1  0
  7  6  1  0
  7  9  1  0
  7  8  1  1
  9 10  2  0
 11 12  2  0
 12  2  1  0
 14 13  1  0
 15 14  2  0
 16 14  1  0
 17 16  1  0
 18 17  1  6
 19  9  1  0
 19 18  1  0
 20 18  1  0
 20 21  2  0
 22 23  1  0
 24 23  1  6
 24 25  1  0
 25 20  1  0
 26 24  1  0
 26 27  1  0
 28 26  2  0
M  END
$$$$
