YQS.pdb
     RDKit          3D

 28 28  0  0  1  0  0  0  0  0999 V2000
    8.8129  -13.0317   16.8667 O   0  0  0  0  0  0  0  0  0  0  0  0
    8.2347  -13.4223   18.0633 C   0  0  0  0  0  0  0  0  0  0  0  0
    8.7858  -13.0217   19.2847 C   0  0  0  0  0  0  0  0  0  0  0  0
    8.1856  -13.4266   20.4512 C   0  0  0  0  0  0  0  0  0  0  0  0
    7.0599  -14.2127   20.4854 C   0  0  0  0  0  0  0  0  0  0  0  0
    6.4156  -14.6560   21.7293 C   0  0  0  0  0  0  0  0  0  0  0  0
    6.8226  -16.1078   21.9841 C   0  0  2  0  0  0  0  0  0  0  0  0
    5.9891  -17.0166   21.2400 N   0  0  0  0  0  0  0  0  0  0  0  0
    6.6590  -16.3119   23.4542 C   0  0  0  0  0  0  0  0  0  0  0  0
    5.5041  -16.4653   23.9256 O   0  0  0  0  0  0  0  0  0  0  0  0
    6.5246  -14.6025   19.2725 C   0  0  0  0  0  0  0  0  0  0  0  0
    7.1059  -14.2112   18.0974 C   0  0  0  0  0  0  0  0  0  0  0  0
    6.6234  -20.7577   26.0699 N   0  0  0  0  0  0  0  0  0  0  0  0
    8.0002  -20.4318   25.9134 C   0  0  0  0  0  0  0  0  0  0  0  0
    8.8404  -21.3628   25.9248 O   0  0  0  0  0  0  0  0  0  0  0  0
    8.4391  -19.0033   25.7386 C   0  0  0  0  0  0  0  0  0  0  0  0
    7.2666  -18.0787   25.7563 C   0  0  0  0  0  0  0  0  0  0  0  0
    7.6199  -16.6047   25.7132 C   0  0  2  0  0  0  0  0  0  0  0  0
    7.8036  -16.3271   24.2795 N   0  0  0  0  0  0  0  0  0  0  0  0
    8.8915  -16.2681   26.3583 C   0  0  0  0  0  0  0  0  0  0  0  0
   10.0166  -16.5401   25.7996 O   0  0  0  0  0  0  0  0  0  0  0  0
    9.0606  -13.9101   29.5365 O   0  0  0  0  0  0  0  0  0  0  0  0
   10.3575  -14.0248   28.9804 C   0  0  0  0  0  0  0  0  0  0  0  0
   10.3307  -15.3078   28.1826 C   0  0  2  0  0  0  0  0  0  0  0  0
    9.0488  -15.6257   27.6223 N   0  0  0  0  0  0  0  0  0  0  0  0
   10.7330  -16.3965   29.1015 C   0  0  0  0  0  0  0  0  0  0  0  0
   11.9374  -16.3212   29.8249 O   0  0  0  0  0  0  0  0  0  0  0  0
    9.9960  -17.3927   29.2366 O   0  0  0  0  0  0  0  0  0  0  0  0
  2  1  1  0
  3  2  2  0
  4  3  1  0
  5  4  2  0
  5 11  1  0
  6  5  1  0
  7  6  1  0
  7  9  1  0
  7  8  1  6
  9 10  2  0
 11 12  2  0
 12  2  1  0
 14 13  1  0
 15 14  2  0
 16 14  1  0
 17 16  1  0
 18 17  1  6
 19  9  1  0
 19 18  1  0
 20 18  1  0
 20 21  2  0
 22 23  1  0
 24 23  1  1
 24 25  1  0
 25 20  1  0
 26 24  1  0
 26 27  1  0
 28 26  2  0
M  END
$$$$
