YQS.pdb
     RDKit          3D

 28 28  0  0  1  0  0  0  0  0999 V2000
    6.2084  -12.7084   17.9481 O   0  0  0  0  0  0  0  0  0  0  0  0
    7.1017  -13.1353   18.9168 C   0  0  0  0  0  0  0  0  0  0  0  0
    8.4125  -13.4819   18.5735 C   0  0  0  0  0  0  0  0  0  0  0  0
    9.2712  -13.8997   19.5600 C   0  0  0  0  0  0  0  0  0  0  0  0
    8.9099  -13.9970   20.8814 C   0  0  0  0  0  0  0  0  0  0  0  0
    9.8205  -14.4496   21.9419 C   0  0  0  0  0  0  0  0  0  0  0  0
   10.1830  -15.9094   21.6660 C   0  0  2  0  0  0  0  0  0  0  0  0
    9.0400  -16.7679   21.8417 N   0  0  0  0  0  0  0  0  0  0  0  0
   11.2587  -16.2416   22.6468 C   0  0  0  0  0  0  0  0  0  0  0  0
   12.2853  -15.5182   22.6970 O   0  0  0  0  0  0  0  0  0  0  0  0
    7.6122  -13.6521   21.2085 C   0  0  0  0  0  0  0  0  0  0  0  0
    6.7390  -13.2332   20.2421 C   0  0  0  0  0  0  0  0  0  0  0  0
   11.4299  -19.1613   28.2464 N   0  0  0  0  0  0  0  0  0  0  0  0
   10.9743  -17.8386   27.9833 C   0  0  0  0  0  0  0  0  0  0  0  0
   10.5572  -17.1475   28.9431 O   0  0  0  0  0  0  0  0  0  0  0  0
   10.9916  -17.2811   26.5859 C   0  0  0  0  0  0  0  0  0  0  0  0
   11.5097  -18.2904   25.6150 C   0  0  0  0  0  0  0  0  0  0  0  0
   12.2045  -17.7049   24.4008 C   0  0  2  0  0  0  0  0  0  0  0  0
   11.0984  -17.3592   23.4933 N   0  0  0  0  0  0  0  0  0  0  0  0
   13.0480  -18.6540   23.6700 C   0  0  0  0  0  0  0  0  0  0  0  0
   12.6228  -19.8276   23.3642 O   0  0  0  0  0  0  0  0  0  0  0  0
   15.5462  -17.9106   20.8798 O   0  0  0  0  0  0  0  0  0  0  0  0
   15.3127  -19.2896   21.0992 C   0  0  0  0  0  0  0  0  0  0  0  0
   15.1847  -19.4328   22.5979 C   0  0  2  0  0  0  0  0  0  0  0  0
   14.3812  -18.4198   23.2194 N   0  0  0  0  0  0  0  0  0  0  0  0
   16.5538  -19.3653   23.1569 C   0  0  0  0  0  0  0  0  0  0  0  0
   17.5398  -20.2884   22.7628 O   0  0  0  0  0  0  0  0  0  0  0  0
   16.8375  -18.4800   23.9873 O   0  0  0  0  0  0  0  0  0  0  0  0
  2  1  1  0
  3  2  2  0
  4  3  1  0
  5  4  2  0
  5 11  1  0
  6  5  1  0
  7  6  1  0
  7  9  1  0
  7  8  1  1
  9 10  2  0
 11 12  2  0
 12  2  1  0
 14 13  1  0
 15 14  2  0
 16 14  1  0
 17 16  1  0
 18 17  1  1
 19  9  1  0
 19 18  1  0
 20 18  1  0
 20 21  2  0
 22 23  1  0
 24 23  1  6
 24 25  1  0
 25 20  1  0
 26 24  1  0
 26 27  1  0
 28 26  2  0
M  END
$$$$
