YQS.pdb
     RDKit          3D

 28 28  0  0  1  0  0  0  0  0999 V2000
    8.0206  -12.9733   16.3348 O   0  0  0  0  0  0  0  0  0  0  0  0
    7.8743  -13.3612   17.6565 C   0  0  0  0  0  0  0  0  0  0  0  0
    7.2563  -14.5738   17.9786 C   0  0  0  0  0  0  0  0  0  0  0  0
    7.1296  -14.9268   19.2993 C   0  0  0  0  0  0  0  0  0  0  0  0
    7.5820  -14.1455   20.3344 C   0  0  0  0  0  0  0  0  0  0  0  0
    7.4441  -14.5127   21.7503 C   0  0  0  0  0  0  0  0  0  0  0  0
    8.7491  -15.1710   22.1998 C   0  0  2  0  0  0  0  0  0  0  0  0
    9.1314  -16.2284   21.2996 N   0  0  0  0  0  0  0  0  0  0  0  0
    8.4723  -15.7045   23.5666 C   0  0  0  0  0  0  0  0  0  0  0  0
    7.6025  -15.1419   24.2782 O   0  0  0  0  0  0  0  0  0  0  0  0
    8.1906  -12.9497   20.0039 C   0  0  0  0  0  0  0  0  0  0  0  0
    8.3277  -12.5772   18.6945 C   0  0  0  0  0  0  0  0  0  0  0  0
    9.8946  -21.4779   25.3735 N   0  0  0  0  0  0  0  0  0  0  0  0
   10.9135  -20.5755   24.9564 C   0  0  0  0  0  0  0  0  0  0  0  0
   12.0353  -21.0422   24.6459 O   0  0  0  0  0  0  0  0  0  0  0  0
   10.6521  -19.0953   24.8893 C   0  0  0  0  0  0  0  0  0  0  0  0
    9.2650  -18.7773   25.3419 C   0  0  0  0  0  0  0  0  0  0  0  0
    8.9396  -17.2973   25.3989 C   0  0  2  0  0  0  0  0  0  0  0  0
    9.1933  -16.8266   24.0276 N   0  0  0  0  0  0  0  0  0  0  0  0
    9.8246  -16.5161   26.2666 C   0  0  0  0  0  0  0  0  0  0  0  0
   11.0829  -16.4191   26.0239 O   0  0  0  0  0  0  0  0  0  0  0  0
    9.1993  -13.2019   27.5660 O   0  0  0  0  0  0  0  0  0  0  0  0
    9.9041  -13.7110   28.6833 C   0  0  0  0  0  0  0  0  0  0  0  0
   10.3677  -15.0861   28.2621 C   0  0  2  0  0  0  0  0  0  0  0  0
    9.4345  -15.7934   27.4332 N   0  0  0  0  0  0  0  0  0  0  0  0
   10.5913  -15.8651   29.5008 C   0  0  0  0  0  0  0  0  0  0  0  0
   10.0640  -17.1618   29.6421 O   0  0  0  0  0  0  0  0  0  0  0  0
   11.2550  -15.3667   30.4309 O   0  0  0  0  0  0  0  0  0  0  0  0
  2  1  1  0
  3  2  2  0
  4  3  1  0
  5  4  2  0
  5 11  1  0
  6  5  1  0
  7  6  1  0
  7  9  1  0
  7  8  1  6
  9 10  2  0
 11 12  2  0
 12  2  1  0
 14 13  1  0
 15 14  2  0
 16 14  1  0
 17 16  1  0
 18 17  1  6
 19  9  1  0
 19 18  1  0
 20 18  1  0
 20 21  2  0
 22 23  1  0
 24 23  1  1
 24 25  1  0
 25 20  1  0
 26 24  1  0
 26 27  1  0
 28 26  2  0
M  END
$$$$
