YQS.pdb
     RDKit          3D

 28 28  0  0  1  0  0  0  0  0999 V2000
    5.5919  -13.0786   20.6021 O   0  0  0  0  0  0  0  0  0  0  0  0
    6.8786  -13.2413   20.1158 C   0  0  0  0  0  0  0  0  0  0  0  0
    7.0949  -13.7244   18.8212 C   0  0  0  0  0  0  0  0  0  0  0  0
    8.3838  -13.8719   18.3718 C   0  0  0  0  0  0  0  0  0  0  0  0
    9.4860  -13.5672   19.1325 C   0  0  0  0  0  0  0  0  0  0  0  0
   10.8685  -13.7286   18.6617 C   0  0  0  0  0  0  0  0  0  0  0  0
   11.3733  -15.0944   19.1289 C   0  0  2  0  0  0  0  0  0  0  0  0
   11.4649  -15.1478   20.5653 N   0  0  0  0  0  0  0  0  0  0  0  0
   12.7177  -15.2552   18.4997 C   0  0  0  0  0  0  0  0  0  0  0  0
   12.7942  -15.4384   17.2587 O   0  0  0  0  0  0  0  0  0  0  0  0
    9.2600  -13.0911   20.4100 C   0  0  0  0  0  0  0  0  0  0  0  0
    7.9841  -12.9362   20.8791 C   0  0  0  0  0  0  0  0  0  0  0  0
   15.9932  -14.6907   15.0036 N   0  0  0  0  0  0  0  0  0  0  0  0
   16.5153  -14.0643   16.1704 C   0  0  0  0  0  0  0  0  0  0  0  0
   17.7596  -14.0241   16.3219 O   0  0  0  0  0  0  0  0  0  0  0  0
   15.5966  -13.4639   17.1996 C   0  0  0  0  0  0  0  0  0  0  0  0
   15.8013  -14.1014   18.5344 C   0  0  0  0  0  0  0  0  0  0  0  0
   15.1734  -15.4734   18.6857 C   0  0  2  0  0  0  0  0  0  0  0  0
   13.8702  -15.1984   19.3121 N   0  0  0  0  0  0  0  0  0  0  0  0
   15.8848  -16.3666   19.6034 C   0  0  0  0  0  0  0  0  0  0  0  0
   15.9681  -16.1058   20.8591 O   0  0  0  0  0  0  0  0  0  0  0  0
   15.3087  -19.9047   20.3512 O   0  0  0  0  0  0  0  0  0  0  0  0
   16.6991  -19.9061   20.0848 C   0  0  0  0  0  0  0  0  0  0  0  0
   17.1269  -18.4634   20.2218 C   0  0  2  0  0  0  0  0  0  0  0  0
   16.5437  -17.5821   19.2516 N   0  0  0  0  0  0  0  0  0  0  0  0
   18.5991  -18.4329   20.0701 C   0  0  0  0  0  0  0  0  0  0  0  0
   19.4313  -19.1191   20.9734 O   0  0  0  0  0  0  0  0  0  0  0  0
   19.1087  -17.7913   19.1306 O   0  0  0  0  0  0  0  0  0  0  0  0
  2  1  1  0
  3  2  2  0
  4  3  1  0
  5  4  2  0
  5 11  1  0
  6  5  1  0
  7  6  1  0
  7  9  1  0
  7  8  1  1
  9 10  2  0
 11 12  2  0
 12  2  1  0
 14 13  1  0
 15 14  2  0
 16 14  1  0
 17 16  1  0
 18 17  1  1
 19  9  1  0
 19 18  1  0
 20 18  1  0
 20 21  2  0
 22 23  1  0
 24 23  1  6
 24 25  1  0
 25 20  1  0
 26 24  1  0
 26 27  1  0
 28 26  2  0
M  END
$$$$
