YQS.pdb
     RDKit          3D

 28 28  0  0  1  0  0  0  0  0999 V2000
    6.6278  -10.7844   28.0494 O   0  0  0  0  0  0  0  0  0  0  0  0
    6.9246  -11.8997   27.2835 C   0  0  0  0  0  0  0  0  0  0  0  0
    8.1766  -12.5158   27.3778 C   0  0  0  0  0  0  0  0  0  0  0  0
    8.4357  -13.6203   26.6045 C   0  0  0  0  0  0  0  0  0  0  0  0
    7.5220  -14.1603   25.7328 C   0  0  0  0  0  0  0  0  0  0  0  0
    7.7936  -15.3377   24.8968 C   0  0  0  0  0  0  0  0  0  0  0  0
    6.9208  -16.4887   25.3988 C   0  0  2  0  0  0  0  0  0  0  0  0
    7.5507  -17.1732   26.4984 N   0  0  0  0  0  0  0  0  0  0  0  0
    6.7534  -17.3980   24.2264 C   0  0  0  0  0  0  0  0  0  0  0  0
    7.2529  -18.5504   24.2700 O   0  0  0  0  0  0  0  0  0  0  0  0
    6.2885  -13.5430   25.6480 C   0  0  0  0  0  0  0  0  0  0  0  0
    6.0082  -12.4410   26.4089 C   0  0  0  0  0  0  0  0  0  0  0  0
    2.4480  -19.2548   21.1539 N   0  0  0  0  0  0  0  0  0  0  0  0
    3.5680  -19.2702   20.2754 C   0  0  0  0  0  0  0  0  0  0  0  0
    3.9196  -20.3644   19.7735 O   0  0  0  0  0  0  0  0  0  0  0  0
    4.3143  -18.0035   19.9556 C   0  0  0  0  0  0  0  0  0  0  0  0
    4.6815  -17.2707   21.2038 C   0  0  0  0  0  0  0  0  0  0  0  0
    5.8257  -17.8848   21.9870 C   0  0  2  0  0  0  0  0  0  0  0  0
    6.0394  -16.9427   23.0975 N   0  0  0  0  0  0  0  0  0  0  0  0
    7.0943  -17.9465   21.2569 C   0  0  0  0  0  0  0  0  0  0  0  0
    7.2527  -18.7408   20.2590 O   0  0  0  0  0  0  0  0  0  0  0  0
   10.3677  -15.4534   21.8843 O   0  0  0  0  0  0  0  0  0  0  0  0
   10.1975  -15.9685   20.5766 C   0  0  0  0  0  0  0  0  0  0  0  0
    9.4671  -17.2782   20.7623 C   0  0  2  0  0  0  0  0  0  0  0  0
    8.2623  -17.1757   21.5343 N   0  0  0  0  0  0  0  0  0  0  0  0
   10.3989  -18.1987   21.4520 C   0  0  0  0  0  0  0  0  0  0  0  0
   11.6303  -18.5489   20.8685 O   0  0  0  0  0  0  0  0  0  0  0  0
   10.0894  -18.6699   22.5638 O   0  0  0  0  0  0  0  0  0  0  0  0
  2  1  1  0
  3  2  2  0
  4  3  1  0
  5  4  2  0
  5 11  1  0
  6  5  1  0
  7  6  1  0
  7  9  1  0
  7  8  1  1
  9 10  2  0
 11 12  2  0
 12  2  1  0
 14 13  1  0
 15 14  2  0
 16 14  1  0
 17 16  1  0
 18 17  1  6
 19  9  1  0
 19 18  1  0
 20 18  1  0
 20 21  2  0
 22 23  1  0
 24 23  1  1
 24 25  1  0
 25 20  1  0
 26 24  1  0
 26 27  1  0
 28 26  2  0
M  END
$$$$
