LYK.pdb
     RDKit          3D

 30 30  0  0  1  0  0  0  0  0999 V2000
   37.6571  -24.2521  -19.8221 C   0  0  0  0  0  0  0  0  0  0  0  0
   36.7241  -25.4114  -19.7004 C   0  0  1  0  0  0  0  0  0  0  0  0
   36.6355  -26.1029  -21.0471 C   0  0  0  0  0  0  0  0  0  0  0  0
   37.0819  -26.4027  -18.6348 C   0  0  0  0  0  0  0  0  0  0  0  0
   36.1589  -27.5930  -18.6570 C   0  0  2  0  0  0  0  0  0  0  0  0
   34.9077  -27.3682  -17.9946 N   0  0  0  0  0  0  0  0  0  0  0  0
   36.8724  -28.7475  -18.0722 C   0  0  0  0  0  0  0  0  0  0  0  0
   37.9771  -29.1040  -18.5828 O   0  0  0  0  0  0  0  0  0  0  0  0
   39.3585  -35.2698  -12.7831 O   0  0  0  0  0  0  0  0  0  0  0  0
   38.7059  -34.1516  -13.2967 C   0  0  0  0  0  0  0  0  0  0  0  0
   37.3372  -34.1052  -13.4546 C   0  0  0  0  0  0  0  0  0  0  0  0
   36.7165  -32.9777  -13.9684 C   0  0  0  0  0  0  0  0  0  0  0  0
   37.4207  -31.8545  -14.3454 C   0  0  0  0  0  0  0  0  0  0  0  0
   36.7631  -30.6404  -14.8929 C   0  0  0  0  0  0  0  0  0  0  0  0
   36.9804  -30.5412  -16.3978 C   0  0  2  0  0  0  0  0  0  0  0  0
   36.2920  -29.4159  -16.9578 N   0  0  0  0  0  0  0  0  0  0  0  0
   36.4308  -31.7789  -17.0626 C   0  0  0  0  0  0  0  0  0  0  0  0
   35.2007  -31.9482  -17.2435 O   0  0  0  0  0  0  0  0  0  0  0  0
   38.7975  -31.8988  -14.1878 C   0  0  0  0  0  0  0  0  0  0  0  0
   39.4185  -33.0314  -13.6721 C   0  0  0  0  0  0  0  0  0  0  0  0
   37.3188  -32.7965  -17.5053 N   0  0  0  0  0  0  0  0  0  0  0  0
   36.8008  -33.9526  -18.1928 C   0  0  1  0  0  0  0  0  0  0  0  0
   36.1176  -33.4863  -19.4667 C   0  0  0  0  0  0  0  0  0  0  0  0
   35.7111  -34.6999  -20.2573 C   0  0  0  0  0  0  0  0  0  0  0  0
   34.9301  -34.3186  -21.5113 C   0  0  0  0  0  0  0  0  0  0  0  0
   34.5150  -35.5488  -22.2750 C   0  0  0  0  0  0  0  0  0  0  0  0
   33.7885  -35.1493  -23.4509 N   0  0  0  0  0  0  0  0  0  0  0  0
   37.8791  -34.9249  -18.4852 C   0  0  0  0  0  0  0  0  0  0  0  0
   37.6423  -36.0447  -18.9845 O   0  0  0  0  0  0  0  0  0  0  0  0
   39.1857  -34.5832  -18.1969 O   0  0  0  0  0  0  0  0  0  0  0  0
  2  1  1  6
  2  3  1  0
  4  2  1  0
  5  4  1  0
  5  6  1  1
  7  5  1  0
  7  8  2  0
  9 10  1  0
 10 20  2  0
 11 10  1  0
 11 12  2  0
 12 13  1  0
 13 19  2  0
 13 14  1  0
 15 14  1  1
 15 16  1  0
 16  7  1  0
 17 15  1  0
 18 17  2  0
 20 19  1  0
 21 17  1  0
 22 23  1  6
 22 21  1  0
 23 24  1  0
 24 25  1  0
 25 26  1  0
 26 27  1  0
 28 30  1  0
 28 22  1  0
 29 28  2  0
M  END
$$$$
