LYK.pdb
     RDKit          3D

 30 30  0  0  1  0  0  0  0  0999 V2000
   20.2456  -22.0433  -16.5000 C   0  0  0  0  0  0  0  0  0  0  0  0
   20.8258  -23.4095  -16.3394 C   0  0  1  0  0  0  0  0  0  0  0  0
   22.2526  -23.3913  -16.8529 C   0  0  0  0  0  0  0  0  0  0  0  0
   20.7878  -23.9534  -14.9433 C   0  0  0  0  0  0  0  0  0  0  0  0
   21.5241  -25.2636  -14.8418 C   0  0  2  0  0  0  0  0  0  0  0  0
   21.1030  -26.2407  -15.8025 N   0  0  0  0  0  0  0  0  0  0  0  0
   21.3796  -25.7743  -13.4627 C   0  0  0  0  0  0  0  0  0  0  0  0
   21.7651  -25.0457  -12.4990 O   0  0  0  0  0  0  0  0  0  0  0  0
   17.6441  -28.9820   -6.3829 O   0  0  0  0  0  0  0  0  0  0  0  0
   17.9643  -28.5728   -7.6753 C   0  0  0  0  0  0  0  0  0  0  0  0
   17.6855  -29.3449   -8.7828 C   0  0  0  0  0  0  0  0  0  0  0  0
   18.0161  -28.9102  -10.0565 C   0  0  0  0  0  0  0  0  0  0  0  0
   18.6331  -27.6994  -10.2863 C   0  0  0  0  0  0  0  0  0  0  0  0
   18.9871  -27.2240  -11.6483 C   0  0  0  0  0  0  0  0  0  0  0  0
   20.4628  -27.4682  -11.9385 C   0  0  2  0  0  0  0  0  0  0  0  0
   20.8133  -27.0655  -13.2685 N   0  0  0  0  0  0  0  0  0  0  0  0
   20.7546  -28.9441  -11.8256 C   0  0  0  0  0  0  0  0  0  0  0  0
   20.4727  -29.7515  -12.7437 O   0  0  0  0  0  0  0  0  0  0  0  0
   18.9147  -26.9211   -9.1739 C   0  0  0  0  0  0  0  0  0  0  0  0
   18.5822  -27.3592   -7.8964 C   0  0  0  0  0  0  0  0  0  0  0  0
   21.3684  -29.4549  -10.6499 N   0  0  0  0  0  0  0  0  0  0  0  0
   21.6864  -30.8577  -10.5571 C   0  0  1  0  0  0  0  0  0  0  0  0
   22.9963  -31.0031   -9.8021 C   0  0  0  0  0  0  0  0  0  0  0  0
   23.3868  -32.4559   -9.8072 C   0  0  0  0  0  0  0  0  0  0  0  0
   24.7432  -32.6760   -9.1441 C   0  0  0  0  0  0  0  0  0  0  0  0
   25.1567  -34.1210   -9.2439 C   0  0  0  0  0  0  0  0  0  0  0  0
   26.4398  -34.2873   -8.6145 N   0  0  0  0  0  0  0  0  0  0  0  0
   20.5957  -31.6074   -9.8923 C   0  0  0  0  0  0  0  0  0  0  0  0
   20.0887  -31.2233   -8.8178 O   0  0  0  0  0  0  0  0  0  0  0  0
   20.1255  -32.7662  -10.4781 O   0  0  0  0  0  0  0  0  0  0  0  0
  2  1  1  1
  2  3  1  0
  4  2  1  0
  5  4  1  0
  5  6  1  6
  7  5  1  0
  7  8  2  0
  9 10  1  0
 10 20  2  0
 11 10  1  0
 11 12  2  0
 12 13  1  0
 13 19  2  0
 13 14  1  0
 15 14  1  6
 15 16  1  0
 16  7  1  0
 17 15  1  0
 18 17  2  0
 20 19  1  0
 21 17  1  0
 22 23  1  1
 22 21  1  0
 23 24  1  0
 24 25  1  0
 25 26  1  0
 26 27  1  0
 28 30  1  0
 28 22  1  0
 29 28  2  0
M  END
$$$$
