LYK.pdb
     RDKit          3D

 30 30  0  0  1  0  0  0  0  0999 V2000
   23.6611  -22.9832  -13.6814 C   0  0  0  0  0  0  0  0  0  0  0  0
   23.4980  -21.8341  -12.7422 C   0  0  1  0  0  0  0  0  0  0  0  0
   22.1912  -22.0057  -11.9922 C   0  0  0  0  0  0  0  0  0  0  0  0
   24.6261  -21.6423  -11.7744 C   0  0  0  0  0  0  0  0  0  0  0  0
   25.9046  -21.2781  -12.4831 C   0  0  2  0  0  0  0  0  0  0  0  0
   27.0856  -21.5171  -11.7066 N   0  0  0  0  0  0  0  0  0  0  0  0
   25.8187  -19.8638  -12.9025 C   0  0  0  0  0  0  0  0  0  0  0  0
   25.5083  -18.9891  -12.0383 O   0  0  0  0  0  0  0  0  0  0  0  0
   26.4690  -12.4045  -17.4250 O   0  0  0  0  0  0  0  0  0  0  0  0
   26.6564  -13.6945  -16.9342 C   0  0  0  0  0  0  0  0  0  0  0  0
   26.7899  -14.7866  -17.7649 C   0  0  0  0  0  0  0  0  0  0  0  0
   26.9756  -16.0583  -17.2463 C   0  0  0  0  0  0  0  0  0  0  0  0
   27.0369  -16.3012  -15.8910 C   0  0  0  0  0  0  0  0  0  0  0  0
   27.2398  -17.6602  -15.3270 C   0  0  0  0  0  0  0  0  0  0  0  0
   25.9600  -18.1713  -14.6770 C   0  0  2  0  0  0  0  0  0  0  0  0
   26.0876  -19.5369  -14.2614 N   0  0  0  0  0  0  0  0  0  0  0  0
   24.8343  -18.1115  -15.6797 C   0  0  0  0  0  0  0  0  0  0  0  0
   24.5889  -19.0597  -16.4639 O   0  0  0  0  0  0  0  0  0  0  0  0
   26.9026  -15.2043  -15.0535 C   0  0  0  0  0  0  0  0  0  0  0  0
   26.7162  -13.9289  -15.5759 C   0  0  0  0  0  0  0  0  0  0  0  0
   24.0146  -16.9527  -15.7530 N   0  0  0  0  0  0  0  0  0  0  0  0
   22.7624  -17.0027  -16.4651 C   0  0  1  0  0  0  0  0  0  0  0  0
   21.8393  -17.9694  -15.7437 C   0  0  0  0  0  0  0  0  0  0  0  0
   21.6597  -19.1871  -16.6086 C   0  0  0  0  0  0  0  0  0  0  0  0
   20.5135  -20.0643  -16.1140 C   0  0  0  0  0  0  0  0  0  0  0  0
   20.3639  -21.2854  -16.9831 C   0  0  0  0  0  0  0  0  0  0  0  0
   19.2581  -22.0711  -16.5035 N   0  0  0  0  0  0  0  0  0  0  0  0
   22.1558  -15.6555  -16.5696 C   0  0  0  0  0  0  0  0  0  0  0  0
   22.2580  -14.8116  -15.6549 O   0  0  0  0  0  0  0  0  0  0  0  0
   21.4560  -15.3227  -17.7126 O   0  0  0  0  0  0  0  0  0  0  0  0
  2  1  1  1
  2  3  1  0
  4  2  1  0
  5  4  1  0
  5  6  1  1
  7  5  1  0
  7  8  2  0
  9 10  1  0
 10 20  2  0
 11 10  1  0
 11 12  2  0
 12 13  1  0
 13 19  2  0
 13 14  1  0
 15 14  1  6
 15 16  1  0
 16  7  1  0
 17 15  1  0
 18 17  2  0
 20 19  1  0
 21 17  1  0
 22 23  1  1
 22 21  1  0
 23 24  1  0
 24 25  1  0
 25 26  1  0
 26 27  1  0
 28 30  1  0
 28 22  1  0
 29 28  2  0
M  END
$$$$
