LYK.pdb
     RDKit          3D

 30 30  0  0  1  0  0  0  0  0999 V2000
   27.0848  -16.3236  -15.8929 C   0  0  0  0  0  0  0  0  0  0  0  0
   27.6584  -17.6914  -15.7215 C   0  0  1  0  0  0  0  0  0  0  0  0
   28.8377  -17.6046  -14.7722 C   0  0  0  0  0  0  0  0  0  0  0  0
   26.6883  -18.7294  -15.2444 C   0  0  0  0  0  0  0  0  0  0  0  0
   27.3671  -20.0547  -15.0159 C   0  0  2  0  0  0  0  0  0  0  0  0
   28.0239  -20.5771  -16.1780 N   0  0  0  0  0  0  0  0  0  0  0  0
   26.3654  -21.0081  -14.4951 C   0  0  0  0  0  0  0  0  0  0  0  0
   25.7433  -21.7481  -15.3159 O   0  0  0  0  0  0  0  0  0  0  0  0
   27.0597  -18.4552   -7.5575 O   0  0  0  0  0  0  0  0  0  0  0  0
   26.6260  -19.4354   -8.4470 C   0  0  0  0  0  0  0  0  0  0  0  0
   25.3505  -19.9566   -8.4043 C   0  0  0  0  0  0  0  0  0  0  0  0
   24.9481  -20.9313   -9.3036 C   0  0  0  0  0  0  0  0  0  0  0  0
   25.7868  -21.4282  -10.2779 C   0  0  0  0  0  0  0  0  0  0  0  0
   25.3624  -22.4697  -11.2482 C   0  0  0  0  0  0  0  0  0  0  0  0
   25.0442  -21.8479  -12.6024 C   0  0  2  0  0  0  0  0  0  0  0  0
   26.1366  -21.0595  -13.0913 N   0  0  0  0  0  0  0  0  0  0  0  0
   23.8562  -20.9288  -12.4613 C   0  0  0  0  0  0  0  0  0  0  0  0
   23.9845  -19.7099  -12.1922 O   0  0  0  0  0  0  0  0  0  0  0  0
   27.0703  -20.9057  -10.3227 C   0  0  0  0  0  0  0  0  0  0  0  0
   27.4722  -19.9276   -9.4192 C   0  0  0  0  0  0  0  0  0  0  0  0
   22.5420  -21.4412  -12.6353 N   0  0  0  0  0  0  0  0  0  0  0  0
   21.4272  -20.5350  -12.7508 C   0  0  1  0  0  0  0  0  0  0  0  0
   21.6725  -19.6228  -13.9402 C   0  0  0  0  0  0  0  0  0  0  0  0
   21.3760  -20.3940  -15.1974 C   0  0  0  0  0  0  0  0  0  0  0  0
   22.5144  -20.2826  -16.2071 C   0  0  0  0  0  0  0  0  0  0  0  0
   22.1363  -20.9366  -17.5104 C   0  0  0  0  0  0  0  0  0  0  0  0
   23.2120  -20.7672  -18.4508 N   0  0  0  0  0  0  0  0  0  0  0  0
   20.1525  -21.2754  -12.8942 C   0  0  0  0  0  0  0  0  0  0  0  0
   19.0474  -20.6941  -12.9029 O   0  0  0  0  0  0  0  0  0  0  0  0
   20.1869  -22.6500  -13.0218 O   0  0  0  0  0  0  0  0  0  0  0  0
  2  1  1  1
  2  3  1  0
  4  2  1  0
  5  4  1  0
  5  6  1  6
  7  5  1  0
  7  8  2  0
  9 10  1  0
 10 20  2  0
 11 10  1  0
 11 12  2  0
 12 13  1  0
 13 19  2  0
 13 14  1  0
 15 14  1  1
 15 16  1  0
 16  7  1  0
 17 15  1  0
 18 17  2  0
 20 19  1  0
 21 17  1  0
 22 23  1  6
 22 21  1  0
 23 24  1  0
 24 25  1  0
 25 26  1  0
 26 27  1  0
 28 30  1  0
 28 22  1  0
 29 28  2  0
M  END
$$$$
