LYK.pdb
     RDKit          3D

 30 30  0  0  1  0  0  0  0  0999 V2000
   27.0690  -20.6189  -20.1100 C   0  0  0  0  0  0  0  0  0  0  0  0
   27.6206  -21.4242  -18.9802 C   0  0  1  0  0  0  0  0  0  0  0  0
   28.8847  -20.7518  -18.4804 C   0  0  0  0  0  0  0  0  0  0  0  0
   26.6725  -21.6498  -17.8416 C   0  0  0  0  0  0  0  0  0  0  0  0
   27.3268  -22.4188  -16.7236 C   0  0  2  0  0  0  0  0  0  0  0  0
   27.6695  -23.7667  -17.0708 N   0  0  0  0  0  0  0  0  0  0  0  0
   26.4337  -22.3815  -15.5468 C   0  0  0  0  0  0  0  0  0  0  0  0
   25.5310  -23.2655  -15.4380 O   0  0  0  0  0  0  0  0  0  0  0  0
   22.9914  -20.6069   -7.7022 O   0  0  0  0  0  0  0  0  0  0  0  0
   23.8395  -20.6064   -8.8072 C   0  0  0  0  0  0  0  0  0  0  0  0
   25.0162  -21.3241   -8.8329 C   0  0  0  0  0  0  0  0  0  0  0  0
   25.8394  -21.3038   -9.9476 C   0  0  0  0  0  0  0  0  0  0  0  0
   25.5340  -20.5765  -11.0777 C   0  0  0  0  0  0  0  0  0  0  0  0
   26.4084  -20.5527  -12.2782 C   0  0  0  0  0  0  0  0  0  0  0  0
   25.7796  -21.3423  -13.4195 C   0  0  2  0  0  0  0  0  0  0  0  0
   26.6207  -21.3541  -14.5799 N   0  0  0  0  0  0  0  0  0  0  0  0
   24.4775  -20.6919  -13.8166 C   0  0  0  0  0  0  0  0  0  0  0  0
   24.4372  -19.6702  -14.5438 O   0  0  0  0  0  0  0  0  0  0  0  0
   24.3510  -19.8537  -11.0541 C   0  0  0  0  0  0  0  0  0  0  0  0
   23.5263  -19.8752   -9.9344 C   0  0  0  0  0  0  0  0  0  0  0  0
   23.2471  -21.2395  -13.3626 N   0  0  0  0  0  0  0  0  0  0  0  0
   22.0003  -20.6538  -13.7868 C   0  0  1  0  0  0  0  0  0  0  0  0
   21.8710  -20.8380  -15.2889 C   0  0  0  0  0  0  0  0  0  0  0  0
   21.6159  -22.2942  -15.5671 C   0  0  0  0  0  0  0  0  0  0  0  0
   21.5004  -22.5692  -17.0634 C   0  0  0  0  0  0  0  0  0  0  0  0
   21.2340  -24.0299  -17.3176 C   0  0  0  0  0  0  0  0  0  0  0  0
   21.1209  -24.2473  -18.7354 N   0  0  0  0  0  0  0  0  0  0  0  0
   20.8558  -21.2616  -13.0695 C   0  0  0  0  0  0  0  0  0  0  0  0
   19.6898  -20.8353  -13.2033 O   0  0  0  0  0  0  0  0  0  0  0  0
   21.0850  -22.3318  -12.2273 O   0  0  0  0  0  0  0  0  0  0  0  0
  2  1  1  6
  2  3  1  0
  4  2  1  0
  5  4  1  0
  5  6  1  6
  7  5  1  0
  7  8  2  0
  9 10  1  0
 10 20  2  0
 11 10  1  0
 11 12  2  0
 12 13  1  0
 13 19  2  0
 13 14  1  0
 15 14  1  1
 15 16  1  0
 16  7  1  0
 17 15  1  0
 18 17  2  0
 20 19  1  0
 21 17  1  0
 22 23  1  6
 22 21  1  0
 23 24  1  0
 24 25  1  0
 25 26  1  0
 26 27  1  0
 28 30  1  0
 28 22  1  0
 29 28  2  0
M  END
$$$$
