LYK.pdb
     RDKit          3D

 30 30  0  0  1  0  0  0  0  0999 V2000
   17.8242  -15.6510  -15.2135 C   0  0  0  0  0  0  0  0  0  0  0  0
   18.0959  -14.4784  -16.0968 C   0  0  1  0  0  0  0  0  0  0  0  0
   16.8869  -14.2518  -16.9836 C   0  0  0  0  0  0  0  0  0  0  0  0
   18.4514  -13.2127  -15.3771 C   0  0  0  0  0  0  0  0  0  0  0  0
   18.6889  -12.0790  -16.3403 C   0  0  2  0  0  0  0  0  0  0  0  0
   19.7456  -12.3263  -17.2768 N   0  0  0  0  0  0  0  0  0  0  0  0
   18.9440  -10.8501  -15.5603 C   0  0  0  0  0  0  0  0  0  0  0  0
   18.0874  -10.4855  -14.6992 O   0  0  0  0  0  0  0  0  0  0  0  0
   22.4532   -2.9975  -13.6747 O   0  0  0  0  0  0  0  0  0  0  0  0
   22.2997   -4.3388  -14.0176 C   0  0  0  0  0  0  0  0  0  0  0  0
   22.5993   -4.8164  -15.2756 C   0  0  0  0  0  0  0  0  0  0  0  0
   22.4364   -6.1571  -15.5867 C   0  0  0  0  0  0  0  0  0  0  0  0
   21.9728   -7.0764  -14.6705 C   0  0  0  0  0  0  0  0  0  0  0  0
   21.7993   -8.5157  -14.9943 C   0  0  0  0  0  0  0  0  0  0  0  0
   20.3233   -8.8589  -15.1528 C   0  0  2  0  0  0  0  0  0  0  0  0
   20.1418  -10.1217  -15.8057 N   0  0  0  0  0  0  0  0  0  0  0  0
   19.6579   -7.8113  -16.0105 C   0  0  0  0  0  0  0  0  0  0  0  0
   19.8351   -7.7547  -17.2514 O   0  0  0  0  0  0  0  0  0  0  0  0
   21.6707   -6.5984  -13.4046 C   0  0  0  0  0  0  0  0  0  0  0  0
   21.8347   -5.2525  -13.0944 C   0  0  0  0  0  0  0  0  0  0  0  0
   18.7995   -6.8494  -15.4123 N   0  0  0  0  0  0  0  0  0  0  0  0
   18.2114   -5.8106  -16.2200 C   0  0  1  0  0  0  0  0  0  0  0  0
   16.7027   -5.9855  -16.2014 C   0  0  0  0  0  0  0  0  0  0  0  0
   16.0928   -4.9282  -17.0808 C   0  0  0  0  0  0  0  0  0  0  0  0
   14.5755   -5.0681  -17.1588 C   0  0  0  0  0  0  0  0  0  0  0  0
   13.9945   -4.0496  -18.1044 C   0  0  0  0  0  0  0  0  0  0  0  0
   12.5814   -4.2850  -18.2386 N   0  0  0  0  0  0  0  0  0  0  0  0
   18.6039   -4.4692  -15.7298 C   0  0  0  0  0  0  0  0  0  0  0  0
   18.5788   -4.1752  -14.5165 O   0  0  0  0  0  0  0  0  0  0  0  0
   19.0097   -3.5150  -16.6418 O   0  0  0  0  0  0  0  0  0  0  0  0
  2  1  1  1
  2  3  1  0
  4  2  1  0
  5  4  1  0
  5  6  1  1
  7  5  1  0
  7  8  2  0
  9 10  1  0
 10 20  2  0
 11 10  1  0
 11 12  2  0
 12 13  1  0
 13 19  2  0
 13 14  1  0
 15 14  1  6
 15 16  1  0
 16  7  1  0
 17 15  1  0
 18 17  2  0
 20 19  1  0
 21 17  1  0
 22 23  1  1
 22 21  1  0
 23 24  1  0
 24 25  1  0
 25 26  1  0
 26 27  1  0
 28 30  1  0
 28 22  1  0
 29 28  2  0
M  END
$$$$
