LYK.pdb
     RDKit          3D

 30 30  0  0  1  0  0  0  0  0999 V2000
   23.2199   -8.6633  -21.6139 C   0  0  0  0  0  0  0  0  0  0  0  0
   22.6308   -9.3457  -20.4238 C   0  0  1  0  0  0  0  0  0  0  0  0
   21.6953   -8.3773  -19.7263 C   0  0  0  0  0  0  0  0  0  0  0  0
   21.9165  -10.6296  -20.7193 C   0  0  0  0  0  0  0  0  0  0  0  0
   21.3094  -11.2220  -19.4744 C   0  0  2  0  0  0  0  0  0  0  0  0
   22.2682  -11.5404  -18.4575 N   0  0  0  0  0  0  0  0  0  0  0  0
   20.5245  -12.4132  -19.8595 C   0  0  0  0  0  0  0  0  0  0  0  0
   19.6001  -12.2832  -20.7179 O   0  0  0  0  0  0  0  0  0  0  0  0
   22.1996  -14.4169  -25.7404 O   0  0  0  0  0  0  0  0  0  0  0  0
   21.9447  -14.7560  -24.4136 C   0  0  0  0  0  0  0  0  0  0  0  0
   22.7783  -14.3767  -23.3832 C   0  0  0  0  0  0  0  0  0  0  0  0
   22.4977  -14.7293  -22.0726 C   0  0  0  0  0  0  0  0  0  0  0  0
   21.3862  -15.4680  -21.7287 C   0  0  0  0  0  0  0  0  0  0  0  0
   21.0758  -15.8466  -20.3263 C   0  0  0  0  0  0  0  0  0  0  0  0
   20.1339  -14.8323  -19.6895 C   0  0  2  0  0  0  0  0  0  0  0  0
   20.8357  -13.6620  -19.2517 N   0  0  0  0  0  0  0  0  0  0  0  0
   19.4876  -15.4483  -18.4734 C   0  0  0  0  0  0  0  0  0  0  0  0
   20.0281  -15.4139  -17.3416 O   0  0  0  0  0  0  0  0  0  0  0  0
   20.5465  -15.8509  -22.7634 C   0  0  0  0  0  0  0  0  0  0  0  0
   20.8298  -15.4961  -24.0781 C   0  0  0  0  0  0  0  0  0  0  0  0
   18.2262  -16.0921  -18.5936 N   0  0  0  0  0  0  0  0  0  0  0  0
   17.6014  -16.6705  -17.4306 C   0  0  1  0  0  0  0  0  0  0  0  0
   16.1007  -16.4631  -17.5399 C   0  0  0  0  0  0  0  0  0  0  0  0
   15.4482  -17.0822  -16.3341 C   0  0  0  0  0  0  0  0  0  0  0  0
   13.9322  -16.9127  -16.3657 C   0  0  0  0  0  0  0  0  0  0  0  0
   13.3055  -17.4909  -15.1239 C   0  0  0  0  0  0  0  0  0  0  0  0
   11.8988  -17.1890  -15.1231 N   0  0  0  0  0  0  0  0  0  0  0  0
   17.9384  -18.1073  -17.3050 C   0  0  0  0  0  0  0  0  0  0  0  0
   18.1487  -18.8270  -18.3035 O   0  0  0  0  0  0  0  0  0  0  0  0
   18.0224  -18.6680  -16.0458 O   0  0  0  0  0  0  0  0  0  0  0  0
  2  1  1  6
  2  3  1  0
  4  2  1  0
  5  4  1  0
  5  6  1  1
  7  5  1  0
  7  8  2  0
  9 10  1  0
 10 20  2  0
 11 10  1  0
 11 12  2  0
 12 13  1  0
 13 19  2  0
 13 14  1  0
 15 14  1  1
 15 16  1  0
 16  7  1  0
 17 15  1  0
 18 17  2  0
 20 19  1  0
 21 17  1  0
 22 23  1  6
 22 21  1  0
 23 24  1  0
 24 25  1  0
 25 26  1  0
 26 27  1  0
 28 30  1  0
 28 22  1  0
 29 28  2  0
M  END
$$$$
