AID.pdb
     RDKit          3D

 22 21  0  0  1  0  0  0  0  0999 V2000
   20.0768  -10.7979  -19.1724 C   0  0  0  0  0  0  0  0  0  0  0  0
   21.2119  -11.6476  -18.6292 C   0  0  2  0  0  0  0  0  0  0  0  0
   20.6537  -12.8764  -18.1158 N   0  0  0  0  0  0  0  0  0  0  0  0
   21.7764  -10.8901  -17.4550 C   0  0  0  0  0  0  0  0  0  0  0  0
   21.1213  -10.8995  -16.4099 O   0  0  0  0  0  0  0  0  0  0  0  0
   26.7965  -11.4014  -15.8005 C   0  0  0  0  0  0  0  0  0  0  0  0
   25.3235  -11.0732  -15.8652 C   0  0  0  0  0  0  0  0  0  0  0  0
   25.0531   -9.6474  -16.3230 C   0  0  2  0  0  0  0  0  0  0  0  0
   25.5140   -8.8103  -15.1339 C   0  0  0  0  0  0  0  0  0  0  0  0
   23.5628   -9.4920  -16.4084 C   0  0  2  0  0  0  0  0  0  0  0  0
   22.9729  -10.2035  -17.5094 N   0  0  0  0  0  0  0  0  0  0  0  0
   23.1262   -8.1036  -16.5426 C   0  0  0  0  0  0  0  0  0  0  0  0
   23.4710   -7.4555  -17.6129 O   0  0  0  0  0  0  0  0  0  0  0  0
   22.3604   -7.3405  -15.6593 N   0  0  0  0  0  0  0  0  0  0  0  0
   22.0926   -5.9096  -15.8594 C   0  0  1  0  0  0  0  0  0  0  0  0
   20.6061   -5.7819  -15.9636 C   0  0  0  0  0  0  0  0  0  0  0  0
   20.0823   -4.4202  -15.9952 C   0  0  0  0  0  0  0  0  0  0  0  0
   20.6737   -3.5906  -16.7426 O   0  0  0  0  0  0  0  0  0  0  0  0
   22.6686   -5.2221  -14.6822 C   0  0  0  0  0  0  0  0  0  0  0  0
   22.8078   -5.8184  -13.5888 O   0  0  0  0  0  0  0  0  0  0  0  0
   18.9990   -3.9364  -15.2877 O   0  0  0  0  0  0  0  0  0  0  0  0
   23.0784   -3.9006  -14.7283 O   0  0  0  0  0  0  0  0  0  0  0  0
  2  1  1  1
  2  3  1  0
  4  5  2  0
  4  2  1  0
  7  6  1  0
  7  8  1  0
  8 10  1  0
  8  9  1  1
 10 12  1  0
 10 11  1  6
 11  4  1  0
 12 13  2  0
 14 15  1  0
 14 12  1  0
 15 16  1  1
 16 17  1  0
 17 21  1  0
 18 17  2  0
 19 15  1  0
 20 19  2  0
 22 19  1  0
M  END
$$$$
