AID.pdb
     RDKit          3D

 22 21  0  0  1  0  0  0  0  0999 V2000
   21.2093  -10.8024  -20.1278 C   0  0  0  0  0  0  0  0  0  0  0  0
   22.3443  -11.6652  -19.6056 C   0  0  2  0  0  0  0  0  0  0  0  0
   21.8473  -13.0090  -19.4256 N   0  0  0  0  0  0  0  0  0  0  0  0
   22.6826  -11.1286  -18.2386 C   0  0  0  0  0  0  0  0  0  0  0  0
   21.8845  -11.3620  -17.3275 O   0  0  0  0  0  0  0  0  0  0  0  0
   27.4328  -11.7732  -16.0057 C   0  0  0  0  0  0  0  0  0  0  0  0
   25.9699  -11.4920  -16.2563 C   0  0  0  0  0  0  0  0  0  0  0  0
   25.6667  -10.0073  -16.3957 C   0  0  2  0  0  0  0  0  0  0  0  0
   25.8750   -9.4785  -14.9801 C   0  0  0  0  0  0  0  0  0  0  0  0
   24.1998   -9.8876  -16.6896 C   0  0  2  0  0  0  0  0  0  0  0  0
   23.8280  -10.4029  -17.9790 N   0  0  0  0  0  0  0  0  0  0  0  0
   23.7045   -8.5131  -16.6443 C   0  0  0  0  0  0  0  0  0  0  0  0
   24.0480   -7.7081  -17.6026 O   0  0  0  0  0  0  0  0  0  0  0  0
   22.8817   -7.9133  -15.6892 N   0  0  0  0  0  0  0  0  0  0  0  0
   22.4662   -6.5056  -15.7584 C   0  0  1  0  0  0  0  0  0  0  0  0
   21.0764   -6.5155  -16.3108 C   0  0  0  0  0  0  0  0  0  0  0  0
   20.3621   -5.2437  -16.2669 C   0  0  0  0  0  0  0  0  0  0  0  0
   20.9286   -4.2442  -16.7930 O   0  0  0  0  0  0  0  0  0  0  0  0
   22.5535   -5.9898  -14.3740 C   0  0  0  0  0  0  0  0  0  0  0  0
   22.5141   -6.7659  -13.3909 O   0  0  0  0  0  0  0  0  0  0  0  0
   19.1211   -5.0134  -15.7056 O   0  0  0  0  0  0  0  0  0  0  0  0
   22.6816   -4.6394  -14.0975 O   0  0  0  0  0  0  0  0  0  0  0  0
  2  1  1  1
  2  3  1  0
  4  5  2  0
  4  2  1  0
  7  6  1  0
  7  8  1  0
  8 10  1  0
  8  9  1  1
 10 12  1  0
 10 11  1  6
 11  4  1  0
 12 13  2  0
 14 15  1  0
 14 12  1  0
 15 16  1  1
 16 17  1  0
 17 21  1  0
 18 17  2  0
 19 15  1  0
 20 19  2  0
 22 19  1  0
M  END
$$$$
