AID.pdb
     RDKit          3D

 22 21  0  0  1  0  0  0  0  0999 V2000
   27.1490  -19.6348  -16.7960 C   0  0  0  0  0  0  0  0  0  0  0  0
   27.9640  -20.4458  -15.8045 C   0  0  2  0  0  0  0  0  0  0  0  0
   28.6026  -21.5265  -16.5182 N   0  0  0  0  0  0  0  0  0  0  0  0
   26.9713  -21.0648  -14.8544 C   0  0  0  0  0  0  0  0  0  0  0  0
   26.4679  -22.1408  -15.1865 O   0  0  0  0  0  0  0  0  0  0  0  0
   25.3042  -21.1361   -8.8994 C   0  0  0  0  0  0  0  0  0  0  0  0
   25.0707  -21.4004  -10.3682 C   0  0  0  0  0  0  0  0  0  0  0  0
   26.0818  -20.7008  -11.2648 C   0  0  2  0  0  0  0  0  0  0  0  0
   25.7226  -19.2269  -11.1048 C   0  0  0  0  0  0  0  0  0  0  0  0
   25.7443  -21.0762  -12.6782 C   0  0  2  0  0  0  0  0  0  0  0  0
   26.6160  -20.4817  -13.6545 N   0  0  0  0  0  0  0  0  0  0  0  0
   24.3852  -20.7100  -13.0720 C   0  0  0  0  0  0  0  0  0  0  0  0
   24.1333  -19.4586  -13.3064 O   0  0  0  0  0  0  0  0  0  0  0  0
   23.2740  -21.5373  -13.2446 N   0  0  0  0  0  0  0  0  0  0  0  0
   21.9516  -21.0329  -13.6396 C   0  0  1  0  0  0  0  0  0  0  0  0
   21.2248  -22.2024  -14.2233 C   0  0  0  0  0  0  0  0  0  0  0  0
   20.5036  -21.9509  -15.4668 C   0  0  0  0  0  0  0  0  0  0  0  0
   20.5555  -20.7796  -15.9383 O   0  0  0  0  0  0  0  0  0  0  0  0
   21.3345  -20.5047  -12.4025 C   0  0  0  0  0  0  0  0  0  0  0  0
   20.6688  -19.4431  -12.4140 O   0  0  0  0  0  0  0  0  0  0  0  0
   19.7625  -22.8650  -16.1901 O   0  0  0  0  0  0  0  0  0  0  0  0
   21.4596  -21.1490  -11.1836 O   0  0  0  0  0  0  0  0  0  0  0  0
  2  1  1  6
  2  3  1  0
  4  5  2  0
  4  2  1  0
  7  6  1  0
  7  8  1  0
  8 10  1  0
  8  9  1  6
 10 12  1  0
 10 11  1  6
 11  4  1  0
 12 13  2  0
 14 15  1  0
 14 12  1  0
 15 16  1  1
 16 17  1  0
 17 21  1  0
 18 17  2  0
 19 15  1  0
 20 19  2  0
 22 19  1  0
M  END
$$$$
