AID.pdb
     RDKit          3D

 22 21  0  0  1  0  0  0  0  0999 V2000
   17.5382   -9.7135  -18.2031 C   0  0  0  0  0  0  0  0  0  0  0  0
   18.3497  -10.8488  -17.6050 C   0  0  2  0  0  0  0  0  0  0  0  0
   17.4339  -11.8274  -17.0675 N   0  0  0  0  0  0  0  0  0  0  0  0
   19.1026  -10.2570  -16.4414 C   0  0  0  0  0  0  0  0  0  0  0  0
   18.4976  -10.1543  -15.3714 O   0  0  0  0  0  0  0  0  0  0  0  0
   23.6727  -12.2375  -14.9886 C   0  0  0  0  0  0  0  0  0  0  0  0
   22.3750  -11.4655  -15.0347 C   0  0  0  0  0  0  0  0  0  0  0  0
   22.5723   -9.9929  -15.3635 C   0  0  2  0  0  0  0  0  0  0  0  0
   23.2456   -9.4467  -14.1083 C   0  0  0  0  0  0  0  0  0  0  0  0
   21.2068   -9.3732  -15.4251 C   0  0  2  0  0  0  0  0  0  0  0  0
   20.4146   -9.8368  -16.5314 N   0  0  0  0  0  0  0  0  0  0  0  0
   21.2302   -7.9152  -15.5263 C   0  0  0  0  0  0  0  0  0  0  0  0
   21.7507   -7.3850  -16.5903 O   0  0  0  0  0  0  0  0  0  0  0  0
   20.7544   -6.9698  -14.6159 N   0  0  0  0  0  0  0  0  0  0  0  0
   20.9013   -5.5211  -14.8131 C   0  0  1  0  0  0  0  0  0  0  0  0
   19.6008   -4.9162  -14.3894 C   0  0  0  0  0  0  0  0  0  0  0  0
   18.4657   -5.1564  -15.2745 C   0  0  0  0  0  0  0  0  0  0  0  0
   18.6961   -5.1788  -16.5168 O   0  0  0  0  0  0  0  0  0  0  0  0
   22.0498   -5.1133  -13.9736 C   0  0  0  0  0  0  0  0  0  0  0  0
   22.6281   -4.0168  -14.1570 O   0  0  0  0  0  0  0  0  0  0  0  0
   17.1535   -5.3631  -14.8959 O   0  0  0  0  0  0  0  0  0  0  0  0
   22.5384   -5.9131  -12.9548 O   0  0  0  0  0  0  0  0  0  0  0  0
  2  1  1  1
  2  3  1  0
  4  5  2  0
  4  2  1  0
  7  6  1  0
  7  8  1  0
  8 10  1  0
  8  9  1  1
 10 12  1  0
 10 11  1  6
 11  4  1  0
 12 13  2  0
 14 15  1  0
 14 12  1  0
 15 16  1  1
 16 17  1  0
 17 21  1  0
 18 17  2  0
 19 15  1  0
 20 19  2  0
 22 19  1  0
M  END
$$$$
