AID.pdb
     RDKit          3D

 22 21  0  0  1  0  0  0  0  0999 V2000
   18.1196  -10.8915  -18.3389 C   0  0  0  0  0  0  0  0  0  0  0  0
   19.2644  -11.8367  -18.0204 C   0  0  2  0  0  0  0  0  0  0  0  0
   18.7068  -13.0829  -17.5501 N   0  0  0  0  0  0  0  0  0  0  0  0
   20.0087  -11.2178  -16.8655 C   0  0  0  0  0  0  0  0  0  0  0  0
   19.3519  -10.9231  -15.8638 O   0  0  0  0  0  0  0  0  0  0  0  0
   24.8494  -13.0685  -15.4812 C   0  0  0  0  0  0  0  0  0  0  0  0
   23.4963  -12.4010  -15.4077 C   0  0  0  0  0  0  0  0  0  0  0  0
   23.5462  -10.9198  -15.7529 C   0  0  2  0  0  0  0  0  0  0  0  0
   24.1840  -10.2984  -14.5142 C   0  0  0  0  0  0  0  0  0  0  0  0
   22.1267  -10.4343  -15.7969 C   0  0  2  0  0  0  0  0  0  0  0  0
   21.3677  -10.9759  -16.8910 N   0  0  0  0  0  0  0  0  0  0  0  0
   22.0086   -8.9812  -15.9019 C   0  0  0  0  0  0  0  0  0  0  0  0
   22.3708   -8.4175  -17.0135 O   0  0  0  0  0  0  0  0  0  0  0  0
   21.5425   -8.0727  -14.9498 N   0  0  0  0  0  0  0  0  0  0  0  0
   21.4835   -6.6235  -15.1851 C   0  0  1  0  0  0  0  0  0  0  0  0
   20.0419   -6.3061  -15.4260 C   0  0  0  0  0  0  0  0  0  0  0  0
   19.7071   -4.8890  -15.5234 C   0  0  0  0  0  0  0  0  0  0  0  0
   20.6595   -4.0824  -15.7214 O   0  0  0  0  0  0  0  0  0  0  0  0
   22.0367   -5.9932  -13.9656 C   0  0  0  0  0  0  0  0  0  0  0  0
   22.0232   -6.5920  -12.8650 O   0  0  0  0  0  0  0  0  0  0  0  0
   18.4483   -4.3298  -15.4204 O   0  0  0  0  0  0  0  0  0  0  0  0
   22.5907   -4.7246  -13.9785 O   0  0  0  0  0  0  0  0  0  0  0  0
  2  1  1  1
  2  3  1  0
  4  5  2  0
  4  2  1  0
  7  6  1  0
  7  8  1  0
  8 10  1  0
  8  9  1  1
 10 12  1  0
 10 11  1  6
 11  4  1  0
 12 13  2  0
 14 15  1  0
 14 12  1  0
 15 16  1  1
 16 17  1  0
 17 21  1  0
 18 17  2  0
 19 15  1  0
 20 19  2  0
 22 19  1  0
M  END
$$$$
