AID.pdb
     RDKit          3D

 22 21  0  0  1  0  0  0  0  0999 V2000
   23.1578  -11.5010  -21.3611 C   0  0  0  0  0  0  0  0  0  0  0  0
   23.8516  -12.4653  -20.4156 C   0  0  2  0  0  0  0  0  0  0  0  0
   23.0952  -13.6949  -20.3856 N   0  0  0  0  0  0  0  0  0  0  0  0
   23.7543  -11.8489  -19.0439 C   0  0  0  0  0  0  0  0  0  0  0  0
   22.6787  -11.9599  -18.4505 O   0  0  0  0  0  0  0  0  0  0  0  0
   28.0406  -12.0658  -15.7474 C   0  0  0  0  0  0  0  0  0  0  0  0
   26.6107  -11.9895  -16.2286 C   0  0  0  0  0  0  0  0  0  0  0  0
   26.1445  -10.5627  -16.4790 C   0  0  2  0  0  0  0  0  0  0  0  0
   25.9409  -10.0143  -15.0701 C   0  0  0  0  0  0  0  0  0  0  0  0
   24.7848  -10.6524  -17.1079 C   0  0  2  0  0  0  0  0  0  0  0  0
   24.8034  -11.1809  -18.4445 N   0  0  0  0  0  0  0  0  0  0  0  0
   24.0924   -9.3677  -17.1897 C   0  0  0  0  0  0  0  0  0  0  0  0
   24.5529   -8.4769  -18.0136 O   0  0  0  0  0  0  0  0  0  0  0  0
   22.9629   -8.9392  -16.4899 N   0  0  0  0  0  0  0  0  0  0  0  0
   22.3656   -7.6086  -16.6680 C   0  0  1  0  0  0  0  0  0  0  0  0
   21.2033   -7.8015  -17.5894 C   0  0  0  0  0  0  0  0  0  0  0  0
   20.3183   -6.6525  -17.7509 C   0  0  0  0  0  0  0  0  0  0  0  0
   20.8324   -5.5836  -18.1866 O   0  0  0  0  0  0  0  0  0  0  0  0
   21.9827   -7.1527  -15.3131 C   0  0  0  0  0  0  0  0  0  0  0  0
   21.9108   -7.9581  -14.3559 O   0  0  0  0  0  0  0  0  0  0  0  0
   18.9655   -6.6078  -17.4749 O   0  0  0  0  0  0  0  0  0  0  0  0
   21.6878   -5.8285  -15.0373 O   0  0  0  0  0  0  0  0  0  0  0  0
  2  1  1  6
  2  3  1  0
  4  5  2  0
  4  2  1  0
  7  6  1  0
  7  8  1  0
  8 10  1  0
  8  9  1  1
 10 12  1  0
 10 11  1  6
 11  4  1  0
 12 13  2  0
 14 15  1  0
 14 12  1  0
 15 16  1  6
 16 17  1  0
 17 21  1  0
 18 17  2  0
 19 15  1  0
 20 19  2  0
 22 19  1  0
M  END
$$$$
