AID.pdb
     RDKit          3D

 22 21  0  0  1  0  0  0  0  0999 V2000
   19.5598  -11.0599  -18.6832 C   0  0  0  0  0  0  0  0  0  0  0  0
   20.5261  -12.0866  -18.1199 C   0  0  2  0  0  0  0  0  0  0  0  0
   19.7584  -13.1808  -17.5735 N   0  0  0  0  0  0  0  0  0  0  0  0
   21.2258  -11.4140  -16.9670 C   0  0  0  0  0  0  0  0  0  0  0  0
   20.6068  -11.3287  -15.9035 O   0  0  0  0  0  0  0  0  0  0  0  0
   26.2963  -12.4134  -15.6020 C   0  0  0  0  0  0  0  0  0  0  0  0
   24.8548  -11.9629  -15.5688 C   0  0  0  0  0  0  0  0  0  0  0  0
   24.6783  -10.5085  -15.9802 C   0  0  2  0  0  0  0  0  0  0  0  0
   25.2544   -9.7423  -14.7935 C   0  0  0  0  0  0  0  0  0  0  0  0
   23.2026  -10.2356  -15.9948 C   0  0  2  0  0  0  0  0  0  0  0  0
   22.5051  -10.9032  -17.0597 N   0  0  0  0  0  0  0  0  0  0  0  0
   22.8713   -8.8174  -16.1200 C   0  0  0  0  0  0  0  0  0  0  0  0
   23.0981   -8.2352  -17.2574 O   0  0  0  0  0  0  0  0  0  0  0  0
   22.3223   -7.9620  -15.1629 N   0  0  0  0  0  0  0  0  0  0  0  0
   22.1468   -6.5197  -15.3823 C   0  0  1  0  0  0  0  0  0  0  0  0
   20.7677   -6.3547  -15.9373 C   0  0  0  0  0  0  0  0  0  0  0  0
   20.2753   -4.9840  -16.0286 C   0  0  0  0  0  0  0  0  0  0  0  0
   20.9468   -4.1741  -16.7285 O   0  0  0  0  0  0  0  0  0  0  0  0
   22.3370   -5.8836  -14.0597 C   0  0  0  0  0  0  0  0  0  0  0  0
   22.2754   -6.5556  -13.0038 O   0  0  0  0  0  0  0  0  0  0  0  0
   19.1431   -4.4722  -15.4252 O   0  0  0  0  0  0  0  0  0  0  0  0
   22.5895   -4.5293  -13.9230 O   0  0  0  0  0  0  0  0  0  0  0  0
  2  1  1  1
  2  3  1  0
  4  5  2  0
  4  2  1  0
  7  6  1  0
  7  8  1  0
  8 10  1  0
  8  9  1  1
 10 12  1  0
 10 11  1  6
 11  4  1  0
 12 13  2  0
 14 15  1  0
 14 12  1  0
 15 16  1  1
 16 17  1  0
 17 21  1  0
 18 17  2  0
 19 15  1  0
 20 19  2  0
 22 19  1  0
M  END
$$$$
