EHN.pdb
     RDKit          3D

 28 28  0  0  1  0  0  0  0  0999 V2000
   10.7821  -16.0951   15.2058 N   0  0  0  0  0  0  0  0  0  0  0  0
   10.4285  -16.8848   16.3430 C   0  0  1  0  0  0  0  0  0  0  0  0
   11.1808  -18.1754   16.4478 C   0  0  0  0  0  0  0  0  0  0  0  0
   12.6514  -18.0694   16.4075 C   0  0  0  0  0  0  0  0  0  0  0  0
   13.3931  -19.3286   16.4623 C   0  0  0  0  0  0  0  0  0  0  0  0
   14.6170  -19.4340   16.4868 O   0  0  0  0  0  0  0  0  0  0  0  0
   10.7251  -16.1044   17.5919 C   0  0  0  0  0  0  0  0  0  0  0  0
   11.7796  -15.4452   17.6483 O   0  0  0  0  0  0  0  0  0  0  0  0
   12.6658  -20.5274   16.4897 O   0  0  0  0  0  0  0  0  0  0  0  0
    9.7824  -16.1564   18.6539 N   0  0  0  0  0  0  0  0  0  0  0  0
    9.9986  -15.4497   19.8771 C   0  0  1  0  0  0  0  0  0  0  0  0
    8.7122  -15.0092   20.5517 C   0  0  0  0  0  0  0  0  0  0  0  0
    7.9342  -14.0890   19.6845 C   0  0  0  0  0  0  0  0  0  0  0  0
    8.0238  -12.7156   19.6525 C   0  0  0  0  0  0  0  0  0  0  0  0
    7.1432  -12.2499   18.7250 N   0  0  0  0  0  0  0  0  0  0  0  0
    6.5070  -13.2862   18.1770 C   0  0  0  0  0  0  0  0  0  0  0  0
    6.9910  -14.4157   18.7644 N   0  0  0  0  0  0  0  0  0  0  0  0
   10.8044  -16.2611   20.8595 C   0  0  0  0  0  0  0  0  0  0  0  0
   10.6375  -17.4992   20.9938 O   0  0  0  0  0  0  0  0  0  0  0  0
   14.8633  -14.2108   20.7606 N   0  0  0  0  0  0  0  0  0  0  0  0
   14.6533  -15.4801   21.3816 C   0  0  0  0  0  0  0  0  0  0  0  0
   15.1082  -16.4915   20.7921 O   0  0  0  0  0  0  0  0  0  0  0  0
   13.9413  -15.6175   22.6501 C   0  0  0  0  0  0  0  0  0  0  0  0
   12.6480  -16.4044   22.5651 C   0  0  2  0  0  0  0  0  0  0  0  0
   11.7892  -15.6458   21.6738 N   0  0  0  0  0  0  0  0  0  0  0  0
   12.0164  -16.6166   23.8867 C   0  0  0  0  0  0  0  0  0  0  0  0
   12.5467  -17.4838   24.8281 O   0  0  0  0  0  0  0  0  0  0  0  0
   10.9573  -16.0024   24.1983 O   0  0  0  0  0  0  0  0  0  0  0  0
  2  1  1  6
  2  3  1  0
  2  7  1  0
  3  4  1  0
  5  4  1  0
  5  6  2  0
  7 10  1  0
  8  7  2  0
  9  5  1  0
 10 11  1  0
 11 12  1  1
 12 13  1  0
 13 17  1  0
 14 13  2  0
 14 15  1  0
 15 16  1  0
 17 16  2  0
 18 19  2  0
 18 11  1  0
 20 21  1  0
 21 22  2  0
 23 21  1  0
 24 23  1  1
 24 25  1  0
 25 18  1  0
 26 24  1  0
 26 27  1  0
 28 26  2  0
M  END
$$$$
