EHN.pdb
     RDKit          3D

 28 28  0  0  1  0  0  0  0  0999 V2000
    9.9778  -17.0595   16.6325 N   0  0  0  0  0  0  0  0  0  0  0  0
    9.1260  -17.6156   17.6360 C   0  0  1  0  0  0  0  0  0  0  0  0
    9.3828  -19.0630   17.9211 C   0  0  0  0  0  0  0  0  0  0  0  0
   10.7944  -19.4395   18.1244 C   0  0  0  0  0  0  0  0  0  0  0  0
   11.0644  -20.8650   18.3084 C   0  0  0  0  0  0  0  0  0  0  0  0
   12.1631  -21.3557   18.5565 O   0  0  0  0  0  0  0  0  0  0  0  0
    9.3383  -16.8729   18.9245 C   0  0  0  0  0  0  0  0  0  0  0  0
   10.4381  -16.3245   19.1238 O   0  0  0  0  0  0  0  0  0  0  0  0
    9.9938  -21.7639   18.1963 O   0  0  0  0  0  0  0  0  0  0  0  0
    8.2679  -16.8318   19.8581 N   0  0  0  0  0  0  0  0  0  0  0  0
    8.3712  -16.0941   21.0777 C   0  0  1  0  0  0  0  0  0  0  0  0
    7.0253  -15.7776   21.7040 C   0  0  0  0  0  0  0  0  0  0  0  0
    7.1804  -14.9705   22.9404 C   0  0  0  0  0  0  0  0  0  0  0  0
    6.7605  -15.3141   24.2057 C   0  0  0  0  0  0  0  0  0  0  0  0
    7.0901  -14.3038   25.0561 N   0  0  0  0  0  0  0  0  0  0  0  0
    7.7017  -13.3412   24.3643 C   0  0  0  0  0  0  0  0  0  0  0  0
    7.7581  -13.7483   23.0659 N   0  0  0  0  0  0  0  0  0  0  0  0
    9.2203  -16.8103   22.0969 C   0  0  0  0  0  0  0  0  0  0  0  0
    9.1549  -18.0544   22.2603 O   0  0  0  0  0  0  0  0  0  0  0  0
   14.3103  -16.8307   24.8280 N   0  0  0  0  0  0  0  0  0  0  0  0
   13.0581  -16.2445   25.1872 C   0  0  0  0  0  0  0  0  0  0  0  0
   12.8034  -16.1369   26.4124 O   0  0  0  0  0  0  0  0  0  0  0  0
   12.0993  -15.7828   24.1861 C   0  0  0  0  0  0  0  0  0  0  0  0
   10.9606  -16.7458   23.9123 C   0  0  2  0  0  0  0  0  0  0  0  0
   10.1319  -16.0943   22.9142 N   0  0  0  0  0  0  0  0  0  0  0  0
   10.1894  -17.0849   25.1293 C   0  0  0  0  0  0  0  0  0  0  0  0
   10.4960  -18.1835   25.9157 O   0  0  0  0  0  0  0  0  0  0  0  0
    9.2129  -16.3696   25.4907 O   0  0  0  0  0  0  0  0  0  0  0  0
  2  1  1  6
  2  3  1  0
  2  7  1  0
  3  4  1  0
  5  4  1  0
  5  6  2  0
  7 10  1  0
  8  7  2  0
  9  5  1  0
 10 11  1  0
 11 12  1  1
 12 13  1  0
 13 17  1  0
 14 13  2  0
 14 15  1  0
 15 16  1  0
 17 16  2  0
 18 19  2  0
 18 11  1  0
 20 21  1  0
 21 22  2  0
 23 21  1  0
 24 23  1  1
 24 25  1  0
 25 18  1  0
 26 24  1  0
 26 27  1  0
 28 26  2  0
M  END
$$$$
