EHN.pdb
     RDKit          3D

 28 28  0  0  1  0  0  0  0  0999 V2000
    9.7611  -18.2393   19.8628 N   0  0  0  0  0  0  0  0  0  0  0  0
   10.8778  -17.3940   20.1460 C   0  0  1  0  0  0  0  0  0  0  0  0
   11.5843  -16.8869   18.9269 C   0  0  0  0  0  0  0  0  0  0  0  0
   11.8353  -17.8814   17.8669 C   0  0  0  0  0  0  0  0  0  0  0  0
   12.5846  -17.4113   16.7022 C   0  0  0  0  0  0  0  0  0  0  0  0
   13.7708  -17.0914   16.7000 O   0  0  0  0  0  0  0  0  0  0  0  0
   10.3994  -16.1895   20.9056 C   0  0  0  0  0  0  0  0  0  0  0  0
   11.2351  -15.3404   21.2670 O   0  0  0  0  0  0  0  0  0  0  0  0
   11.9117  -17.3100   15.4759 O   0  0  0  0  0  0  0  0  0  0  0  0
    9.0090  -16.0769   21.1760 N   0  0  0  0  0  0  0  0  0  0  0  0
    8.4803  -14.9714   21.9113 C   0  0  1  0  0  0  0  0  0  0  0  0
    7.2234  -14.3855   21.2942 C   0  0  0  0  0  0  0  0  0  0  0  0
    7.3841  -14.1788   19.8328 C   0  0  0  0  0  0  0  0  0  0  0  0
    7.7807  -13.0199   19.2043 C   0  0  0  0  0  0  0  0  0  0  0  0
    7.7992  -13.2449   17.8620 N   0  0  0  0  0  0  0  0  0  0  0  0
    7.4278  -14.5050   17.6316 C   0  0  0  0  0  0  0  0  0  0  0  0
    7.1726  -15.0799   18.8396 N   0  0  0  0  0  0  0  0  0  0  0  0
    8.1875  -15.3385   23.3440 C   0  0  0  0  0  0  0  0  0  0  0  0
    7.4312  -14.6429   24.0671 O   0  0  0  0  0  0  0  0  0  0  0  0
    7.7988  -18.1040   27.7812 N   0  0  0  0  0  0  0  0  0  0  0  0
    7.1499  -18.5225   26.5792 C   0  0  0  0  0  0  0  0  0  0  0  0
    6.2983  -19.4407   26.6747 O   0  0  0  0  0  0  0  0  0  0  0  0
    7.4503  -17.9201   25.2824 C   0  0  0  0  0  0  0  0  0  0  0  0
    8.5360  -16.8622   25.3150 C   0  0  2  0  0  0  0  0  0  0  0  0
    8.7630  -16.4953   23.9289 N   0  0  0  0  0  0  0  0  0  0  0  0
    9.7778  -17.3330   25.9683 C   0  0  0  0  0  0  0  0  0  0  0  0
    9.9976  -17.1877   27.3285 O   0  0  0  0  0  0  0  0  0  0  0  0
   10.6879  -17.8897   25.2919 O   0  0  0  0  0  0  0  0  0  0  0  0
  2  1  1  6
  2  3  1  0
  2  7  1  0
  3  4  1  0
  5  4  1  0
  5  6  2  0
  7 10  1  0
  8  7  2  0
  9  5  1  0
 10 11  1  0
 11 12  1  6
 12 13  1  0
 13 17  1  0
 14 13  2  0
 14 15  1  0
 15 16  1  0
 17 16  2  0
 18 19  2  0
 18 11  1  0
 20 21  1  0
 21 22  2  0
 23 21  1  0
 24 23  1  6
 24 25  1  0
 25 18  1  0
 26 24  1  0
 26 27  1  0
 28 26  2  0
M  END
$$$$
