EHN.pdb
     RDKit          3D

 28 28  0  0  1  0  0  0  0  0999 V2000
   13.1462  -14.2915   15.8692 N   0  0  0  0  0  0  0  0  0  0  0  0
   13.0012  -15.4562   16.6841 C   0  0  1  0  0  0  0  0  0  0  0  0
   14.2437  -16.2852   16.7908 C   0  0  0  0  0  0  0  0  0  0  0  0
   15.3211  -15.9574   15.8383 C   0  0  0  0  0  0  0  0  0  0  0  0
   16.5199  -16.7925   15.9040 C   0  0  0  0  0  0  0  0  0  0  0  0
   17.5214  -16.5498   16.5731 O   0  0  0  0  0  0  0  0  0  0  0  0
   12.6367  -15.0349   18.0792 C   0  0  0  0  0  0  0  0  0  0  0  0
   13.3127  -14.1471   18.6311 O   0  0  0  0  0  0  0  0  0  0  0  0
   16.5494  -17.9733   15.1478 O   0  0  0  0  0  0  0  0  0  0  0  0
   11.5319  -15.6733   18.7046 N   0  0  0  0  0  0  0  0  0  0  0  0
   11.1507  -15.3582   20.0454 C   0  0  1  0  0  0  0  0  0  0  0  0
    9.6616  -15.5093   20.2977 C   0  0  0  0  0  0  0  0  0  0  0  0
    8.8805  -14.4904   19.5521 C   0  0  0  0  0  0  0  0  0  0  0  0
    8.3288  -14.6313   18.2986 C   0  0  0  0  0  0  0  0  0  0  0  0
    7.6969  -13.4700   17.9752 N   0  0  0  0  0  0  0  0  0  0  0  0
    7.8355  -12.6090   18.9844 C   0  0  0  0  0  0  0  0  0  0  0  0
    8.5615  -13.2332   19.9531 N   0  0  0  0  0  0  0  0  0  0  0  0
   11.8973  -16.1952   21.0528 C   0  0  0  0  0  0  0  0  0  0  0  0
   12.0348  -17.4364   20.9144 O   0  0  0  0  0  0  0  0  0  0  0  0
   15.2952  -16.1975   21.3141 N   0  0  0  0  0  0  0  0  0  0  0  0
   15.4284  -15.5138   22.5613 C   0  0  0  0  0  0  0  0  0  0  0  0
   16.4846  -14.8608   22.7497 O   0  0  0  0  0  0  0  0  0  0  0  0
   14.3904  -15.5595   23.5886 C   0  0  0  0  0  0  0  0  0  0  0  0
   13.1696  -16.3776   23.2153 C   0  0  2  0  0  0  0  0  0  0  0  0
   12.4760  -15.6014   22.2034 N   0  0  0  0  0  0  0  0  0  0  0  0
   12.2978  -16.6710   24.3748 C   0  0  0  0  0  0  0  0  0  0  0  0
   11.7604  -17.9288   24.5953 O   0  0  0  0  0  0  0  0  0  0  0  0
   12.0141  -15.7666   25.2100 O   0  0  0  0  0  0  0  0  0  0  0  0
  2  1  1  6
  2  3  1  0
  2  7  1  0
  3  4  1  0
  5  4  1  0
  5  6  2  0
  7 10  1  0
  8  7  2  0
  9  5  1  0
 10 11  1  0
 11 12  1  6
 12 13  1  0
 13 17  1  0
 14 13  2  0
 14 15  1  0
 15 16  1  0
 17 16  2  0
 18 19  2  0
 18 11  1  0
 20 21  1  0
 21 22  2  0
 23 21  1  0
 24 23  1  1
 24 25  1  0
 25 18  1  0
 26 24  1  0
 26 27  1  0
 28 26  2  0
M  END
$$$$
