EHN.pdb
     RDKit          3D

 28 28  0  0  1  0  0  0  0  0999 V2000
    8.1261  -12.8788   17.3422 N   0  0  0  0  0  0  0  0  0  0  0  0
    7.8975  -14.1741   17.9003 C   0  0  1  0  0  0  0  0  0  0  0  0
    8.6581  -15.2730   17.2248 C   0  0  0  0  0  0  0  0  0  0  0  0
    8.8373  -15.1315   15.7676 C   0  0  0  0  0  0  0  0  0  0  0  0
    9.4830  -16.2508   15.0828 C   0  0  0  0  0  0  0  0  0  0  0  0
    8.9725  -17.3489   14.8750 O   0  0  0  0  0  0  0  0  0  0  0  0
    8.3254  -14.1688   19.3404 C   0  0  0  0  0  0  0  0  0  0  0  0
    9.5210  -13.9475   19.6076 O   0  0  0  0  0  0  0  0  0  0  0  0
   10.7943  -16.0773   14.6165 O   0  0  0  0  0  0  0  0  0  0  0  0
    7.3395  -14.4178   20.3330 N   0  0  0  0  0  0  0  0  0  0  0  0
    7.6759  -14.4665   21.7211 C   0  0  1  0  0  0  0  0  0  0  0  0
    6.4624  -14.4951   22.6325 C   0  0  0  0  0  0  0  0  0  0  0  0
    6.8304  -14.1702   24.0336 C   0  0  0  0  0  0  0  0  0  0  0  0
    8.0987  -13.9486   24.5211 C   0  0  0  0  0  0  0  0  0  0  0  0
    8.0060  -13.6839   25.8530 N   0  0  0  0  0  0  0  0  0  0  0  0
    6.7227  -13.7327   26.2133 C   0  0  0  0  0  0  0  0  0  0  0  0
    5.9996  -14.0310   25.0982 N   0  0  0  0  0  0  0  0  0  0  0  0
    8.5500  -15.6512   22.0458 C   0  0  0  0  0  0  0  0  0  0  0  0
    8.7481  -16.5772   21.2200 O   0  0  0  0  0  0  0  0  0  0  0  0
   11.6089  -18.9989   22.5062 N   0  0  0  0  0  0  0  0  0  0  0  0
   12.0036  -17.6819   22.1181 C   0  0  0  0  0  0  0  0  0  0  0  0
   12.9704  -17.5819   21.3227 O   0  0  0  0  0  0  0  0  0  0  0  0
   11.3236  -16.4877   22.6144 C   0  0  0  0  0  0  0  0  0  0  0  0
   10.1956  -16.7639   23.5892 C   0  0  2  0  0  0  0  0  0  0  0  0
    9.1853  -15.7598   23.3092 N   0  0  0  0  0  0  0  0  0  0  0  0
   10.6339  -16.7219   25.0023 C   0  0  0  0  0  0  0  0  0  0  0  0
   10.1490  -15.7831   25.8984 O   0  0  0  0  0  0  0  0  0  0  0  0
   11.4775  -17.5552   25.4380 O   0  0  0  0  0  0  0  0  0  0  0  0
  2  1  1  6
  2  3  1  0
  2  7  1  0
  3  4  1  0
  5  4  1  0
  5  6  2  0
  7 10  1  0
  8  7  2  0
  9  5  1  0
 10 11  1  0
 11 12  1  1
 12 13  1  0
 13 17  1  0
 14 13  2  0
 14 15  1  0
 15 16  1  0
 17 16  2  0
 18 19  2  0
 18 11  1  0
 20 21  1  0
 21 22  2  0
 23 21  1  0
 24 23  1  6
 24 25  1  0
 25 18  1  0
 26 24  1  0
 26 27  1  0
 28 26  2  0
M  END
$$$$
