EHN.pdb
     RDKit          3D

 28 28  0  0  1  0  0  0  0  0999 V2000
   11.8700  -15.3688   14.5740 N   0  0  0  0  0  0  0  0  0  0  0  0
   11.4224  -16.1730   15.6670 C   0  0  1  0  0  0  0  0  0  0  0  0
   11.9550  -17.5725   15.6535 C   0  0  0  0  0  0  0  0  0  0  0  0
   13.3797  -17.7235   16.0045 C   0  0  0  0  0  0  0  0  0  0  0  0
   13.9250  -19.0784   15.9296 C   0  0  0  0  0  0  0  0  0  0  0  0
   13.9275  -19.7910   14.9288 O   0  0  0  0  0  0  0  0  0  0  0  0
   11.8769  -15.5457   16.9542 C   0  0  0  0  0  0  0  0  0  0  0  0
   12.9576  -14.9280   16.9690 O   0  0  0  0  0  0  0  0  0  0  0  0
   14.4975  -19.6290   17.0855 O   0  0  0  0  0  0  0  0  0  0  0  0
   11.0466  -15.6884   18.0985 N   0  0  0  0  0  0  0  0  0  0  0  0
   11.3197  -14.9810   19.3099 C   0  0  1  0  0  0  0  0  0  0  0  0
   10.1190  -14.8855   20.2335 C   0  0  0  0  0  0  0  0  0  0  0  0
    8.9785  -14.2055   19.5694 C   0  0  0  0  0  0  0  0  0  0  0  0
    8.7942  -12.8477   19.4365 C   0  0  0  0  0  0  0  0  0  0  0  0
    7.6268  -12.6367   18.7690 N   0  0  0  0  0  0  0  0  0  0  0  0
    7.0764  -13.8169   18.4808 C   0  0  0  0  0  0  0  0  0  0  0  0
    7.9042  -14.7810   18.9711 N   0  0  0  0  0  0  0  0  0  0  0  0
   12.4663  -15.5950   20.0723 C   0  0  0  0  0  0  0  0  0  0  0  0
   12.6406  -16.8383   20.1232 O   0  0  0  0  0  0  0  0  0  0  0  0
   18.0222  -14.5158   21.4162 N   0  0  0  0  0  0  0  0  0  0  0  0
   16.8119  -14.4493   22.1723 C   0  0  0  0  0  0  0  0  0  0  0  0
   16.8898  -14.6797   23.4045 O   0  0  0  0  0  0  0  0  0  0  0  0
   15.5264  -14.1281   21.5567 C   0  0  0  0  0  0  0  0  0  0  0  0
   14.6011  -15.3152   21.3733 C   0  0  2  0  0  0  0  0  0  0  0  0
   13.3969  -14.7792   20.7650 N   0  0  0  0  0  0  0  0  0  0  0  0
   14.3085  -16.0175   22.6429 C   0  0  0  0  0  0  0  0  0  0  0  0
   13.3302  -15.5795   23.5208 O   0  0  0  0  0  0  0  0  0  0  0  0
   14.9543  -17.0536   22.9672 O   0  0  0  0  0  0  0  0  0  0  0  0
  2  1  1  6
  2  3  1  0
  2  7  1  0
  3  4  1  0
  5  4  1  0
  5  6  2  0
  7 10  1  0
  8  7  2  0
  9  5  1  0
 10 11  1  0
 11 12  1  1
 12 13  1  0
 13 17  1  0
 14 13  2  0
 14 15  1  0
 15 16  1  0
 17 16  2  0
 18 19  2  0
 18 11  1  0
 20 21  1  0
 21 22  2  0
 23 21  1  0
 24 23  1  1
 24 25  1  0
 25 18  1  0
 26 24  1  0
 26 27  1  0
 28 26  2  0
M  END
$$$$
