KFC.pdb
     RDKit          3D

 27 27  0  0  1  0  0  0  0  0999 V2000
    7.1657  -15.6683   19.5453 N   0  0  0  0  0  0  0  0  0  0  0  0
    8.2017  -16.4456   20.1701 C   0  0  1  0  0  0  0  0  0  0  0  0
    9.3316  -16.7848   19.2718 C   0  0  0  0  0  0  0  0  0  0  0  0
    9.0138  -17.5868   18.0617 C   0  0  0  0  0  0  0  0  0  0  0  0
   10.0744  -18.5434   17.6313 C   0  0  0  0  0  0  0  0  0  0  0  0
    9.6007  -19.3716   16.4219 C   0  0  0  0  0  0  0  0  0  0  0  0
   10.6785  -20.1269   15.8533 N   0  0  0  0  0  0  0  0  0  0  0  0
    8.6309  -15.7064   21.3888 C   0  0  0  0  0  0  0  0  0  0  0  0
    9.7797  -15.2461   21.5561 O   0  0  0  0  0  0  0  0  0  0  0  0
    7.6760  -15.5189   22.4118 N   0  0  0  0  0  0  0  0  0  0  0  0
    7.9920  -15.0632   23.7452 C   0  0  1  0  0  0  0  0  0  0  0  0
    6.7819  -14.3784   24.3060 C   0  0  0  0  0  0  0  0  0  0  0  0
    7.0627  -13.5392   25.4726 C   0  0  0  0  0  0  0  0  0  0  0  0
    6.0170  -12.8564   26.0609 C   0  0  0  0  0  0  0  0  0  0  0  0
    6.2047  -12.0408   27.1706 C   0  0  0  0  0  0  0  0  0  0  0  0
    7.4601  -11.8963   27.7133 C   0  0  0  0  0  0  0  0  0  0  0  0
    8.5065  -12.5641   27.1448 C   0  0  0  0  0  0  0  0  0  0  0  0
    8.3090  -13.3718   26.0426 C   0  0  0  0  0  0  0  0  0  0  0  0
    8.3788  -16.1466   24.6525 C   0  0  0  0  0  0  0  0  0  0  0  0
    7.6667  -17.1292   24.9692 O   0  0  0  0  0  0  0  0  0  0  0  0
    9.6733  -16.1002   25.2378 N   0  0  0  0  0  0  0  0  0  0  0  0
   10.2353  -17.2202   25.9447 C   0  0  1  0  0  0  0  0  0  0  0  0
   11.4408  -17.6973   25.1361 C   0  0  0  0  0  0  0  0  0  0  0  0
   12.5929  -16.3668   24.8041 S   0  0  0  0  0  0  0  0  0  0  0  0
   10.5754  -16.9404   27.3304 C   0  0  0  0  0  0  0  0  0  0  0  0
   10.9795  -17.8519   28.0823 O   0  0  0  0  0  0  0  0  0  0  0  0
   10.4546  -15.6612   27.8305 O   0  0  0  0  0  0  0  0  0  0  0  0
  2  1  1  6
  2  3  1  0
  3  4  1  0
  4  5  1  0
  5  6  1  0
  6  7  1  0
  8  2  1  0
  9  8  2  0
 10  8  1  0
 11 10  1  0
 11 12  1  1
 12 13  1  0
 13 14  2  0
 14 15  1  0
 16 15  2  0
 17 16  1  0
 18 13  1  0
 18 17  2  0
 19 20  2  0
 19 11  1  0
 21 19  1  0
 22 21  1  0
 22 23  1  6
 24 23  1  0
 25 27  1  0
 25 22  1  0
 26 25  2  0
M  END
$$$$
