KFC.pdb
     RDKit          3D

 27 27  0  0  1  0  0  0  0  0999 V2000
    8.7052  -17.8544   20.5070 N   0  0  0  0  0  0  0  0  0  0  0  0
   10.0920  -17.5082   20.6643 C   0  0  1  0  0  0  0  0  0  0  0  0
   10.7425  -17.0275   19.4215 C   0  0  0  0  0  0  0  0  0  0  0  0
   10.7948  -17.9749   18.2777 C   0  0  0  0  0  0  0  0  0  0  0  0
    9.8535  -17.6797   17.1588 C   0  0  0  0  0  0  0  0  0  0  0  0
    9.9816  -18.7387   16.0474 C   0  0  0  0  0  0  0  0  0  0  0  0
    9.0138  -18.5262   15.0113 N   0  0  0  0  0  0  0  0  0  0  0  0
   10.1758  -16.5267   21.7802 C   0  0  0  0  0  0  0  0  0  0  0  0
   11.2158  -15.9069   22.0864 O   0  0  0  0  0  0  0  0  0  0  0  0
    9.0050  -16.2882   22.5325 N   0  0  0  0  0  0  0  0  0  0  0  0
    8.9490  -15.4452   23.7037 C   0  0  1  0  0  0  0  0  0  0  0  0
    7.6125  -14.7662   23.7294 C   0  0  0  0  0  0  0  0  0  0  0  0
    7.4344  -13.8499   24.8575 C   0  0  0  0  0  0  0  0  0  0  0  0
    6.5274  -14.1852   25.8428 C   0  0  0  0  0  0  0  0  0  0  0  0
    6.3033  -13.3669   26.9436 C   0  0  0  0  0  0  0  0  0  0  0  0
    6.9947  -12.1850   27.0740 C   0  0  0  0  0  0  0  0  0  0  0  0
    7.8959  -11.8370   26.1093 C   0  0  0  0  0  0  0  0  0  0  0  0
    8.1108  -12.6572   25.0197 C   0  0  0  0  0  0  0  0  0  0  0  0
    9.1235  -16.1819   24.9580 C   0  0  0  0  0  0  0  0  0  0  0  0
    8.3896  -17.1104   25.3731 O   0  0  0  0  0  0  0  0  0  0  0  0
   10.2164  -15.8292   25.7955 N   0  0  0  0  0  0  0  0  0  0  0  0
   10.5567  -16.5860   26.9709 C   0  0  1  0  0  0  0  0  0  0  0  0
   12.0635  -16.8339   26.9199 C   0  0  0  0  0  0  0  0  0  0  0  0
   12.6151  -17.8819   28.2636 S   0  0  0  0  0  0  0  0  0  0  0  0
   10.1406  -15.9672   28.2192 C   0  0  0  0  0  0  0  0  0  0  0  0
   10.1684  -16.6117   29.2885 O   0  0  0  0  0  0  0  0  0  0  0  0
    9.7094  -14.6577   28.2353 O   0  0  0  0  0  0  0  0  0  0  0  0
  2  1  1  6
  2  3  1  0
  3  4  1  0
  4  5  1  0
  5  6  1  0
  6  7  1  0
  8  2  1  0
  9  8  2  0
 10  8  1  0
 11 10  1  0
 11 12  1  1
 12 13  1  0
 13 14  2  0
 14 15  1  0
 16 15  2  0
 17 16  1  0
 18 13  1  0
 18 17  2  0
 19 20  2  0
 19 11  1  0
 21 19  1  0
 22 21  1  0
 22 23  1  1
 24 23  1  0
 25 27  1  0
 25 22  1  0
 26 25  2  0
M  END
$$$$
