KFC.pdb
     RDKit          3D

 27 27  0  0  1  0  0  0  0  0999 V2000
   10.4255  -16.6694   19.6482 N   0  0  0  0  0  0  0  0  0  0  0  0
   10.2441  -17.3423   20.9061 C   0  0  1  0  0  0  0  0  0  0  0  0
   11.2795  -18.3608   21.2047 C   0  0  0  0  0  0  0  0  0  0  0  0
   11.3404  -19.5438   20.3073 C   0  0  0  0  0  0  0  0  0  0  0  0
   12.3540  -20.5745   20.6752 C   0  0  0  0  0  0  0  0  0  0  0  0
   12.3690  -21.7155   19.6403 C   0  0  0  0  0  0  0  0  0  0  0  0
   13.2761  -22.7566   20.0257 N   0  0  0  0  0  0  0  0  0  0  0  0
   10.1438  -16.2916   21.9557 C   0  0  0  0  0  0  0  0  0  0  0  0
   10.9617  -15.3569   22.0865 O   0  0  0  0  0  0  0  0  0  0  0  0
    9.0561  -16.3635   22.8531 N   0  0  0  0  0  0  0  0  0  0  0  0
    8.8544  -15.4583   23.9602 C   0  0  1  0  0  0  0  0  0  0  0  0
    7.4265  -15.0018   23.9386 C   0  0  0  0  0  0  0  0  0  0  0  0
    7.0903  -14.0551   25.0039 C   0  0  0  0  0  0  0  0  0  0  0  0
    7.5560  -12.7593   24.9058 C   0  0  0  0  0  0  0  0  0  0  0  0
    7.2787  -11.8041   25.8767 C   0  0  0  0  0  0  0  0  0  0  0  0
    6.5206  -12.1392   26.9743 C   0  0  0  0  0  0  0  0  0  0  0  0
    6.0514  -13.4162   27.0882 C   0  0  0  0  0  0  0  0  0  0  0  0
    6.3327  -14.3574   26.1179 C   0  0  0  0  0  0  0  0  0  0  0  0
    9.1316  -16.0656   25.2644 C   0  0  0  0  0  0  0  0  0  0  0  0
    8.8608  -17.2436   25.5988 O   0  0  0  0  0  0  0  0  0  0  0  0
    9.7637  -15.2658   26.2549 N   0  0  0  0  0  0  0  0  0  0  0  0
   10.4728  -15.8412   27.3667 C   0  0  1  0  0  0  0  0  0  0  0  0
   10.9333  -14.6818   28.2490 C   0  0  0  0  0  0  0  0  0  0  0  0
   10.3320  -13.1048   27.6494 S   0  0  0  0  0  0  0  0  0  0  0  0
    9.7119  -16.8326   28.1100 C   0  0  0  0  0  0  0  0  0  0  0  0
    8.5090  -17.0395   27.8463 O   0  0  0  0  0  0  0  0  0  0  0  0
   10.3129  -17.5572   29.1173 O   0  0  0  0  0  0  0  0  0  0  0  0
  2  1  1  6
  2  3  1  0
  3  4  1  0
  4  5  1  0
  5  6  1  0
  6  7  1  0
  8  2  1  0
  9  8  2  0
 10  8  1  0
 11 10  1  0
 11 12  1  1
 12 13  1  0
 13 14  2  0
 14 15  1  0
 16 15  2  0
 17 16  1  0
 18 13  1  0
 18 17  2  0
 19 20  2  0
 19 11  1  0
 21 19  1  0
 22 21  1  0
 22 23  1  1
 24 23  1  0
 25 27  1  0
 25 22  1  0
 26 25  2  0
M  END
$$$$
