KFC.pdb
     RDKit          3D

 27 27  0  0  1  0  0  0  0  0999 V2000
    7.9744  -18.3546   20.9806 N   0  0  0  0  0  0  0  0  0  0  0  0
    9.2756  -17.8096   20.7017 C   0  0  1  0  0  0  0  0  0  0  0  0
    9.4436  -17.3199   19.3122 C   0  0  0  0  0  0  0  0  0  0  0  0
   10.4529  -18.0132   18.4701 C   0  0  0  0  0  0  0  0  0  0  0  0
   10.6087  -17.4777   17.0867 C   0  0  0  0  0  0  0  0  0  0  0  0
   11.7855  -18.1642   16.3677 C   0  0  0  0  0  0  0  0  0  0  0  0
   12.0494  -17.5517   15.0986 N   0  0  0  0  0  0  0  0  0  0  0  0
    9.5401  -16.7596   21.7231 C   0  0  0  0  0  0  0  0  0  0  0  0
   10.5702  -16.0540   21.7465 O   0  0  0  0  0  0  0  0  0  0  0  0
    8.5628  -16.5557   22.7215 N   0  0  0  0  0  0  0  0  0  0  0  0
    8.7010  -15.6236   23.8160 C   0  0  1  0  0  0  0  0  0  0  0  0
    7.3609  -15.0036   24.0761 C   0  0  0  0  0  0  0  0  0  0  0  0
    7.3618  -14.0243   25.1646 C   0  0  0  0  0  0  0  0  0  0  0  0
    7.8270  -12.7506   24.9056 C   0  0  0  0  0  0  0  0  0  0  0  0
    7.8590  -11.7670   25.8870 C   0  0  0  0  0  0  0  0  0  0  0  0
    7.4190  -12.0502   27.1590 C   0  0  0  0  0  0  0  0  0  0  0  0
    6.9554  -13.3046   27.4337 C   0  0  0  0  0  0  0  0  0  0  0  0
    6.9280  -14.2744   26.4513 C   0  0  0  0  0  0  0  0  0  0  0  0
    9.1756  -16.2479   25.0535 C   0  0  0  0  0  0  0  0  0  0  0  0
    8.7059  -17.2843   25.5808 O   0  0  0  0  0  0  0  0  0  0  0  0
   10.2658  -15.6410   25.7344 N   0  0  0  0  0  0  0  0  0  0  0  0
   10.8822  -16.2449   26.8857 C   0  0  1  0  0  0  0  0  0  0  0  0
   12.3110  -15.7084   26.9584 C   0  0  0  0  0  0  0  0  0  0  0  0
   13.1943  -16.3479   28.3793 S   0  0  0  0  0  0  0  0  0  0  0  0
   10.1524  -16.0431   28.1270 C   0  0  0  0  0  0  0  0  0  0  0  0
   10.0588  -16.9630   28.9663 O   0  0  0  0  0  0  0  0  0  0  0  0
    9.5540  -14.8294   28.3913 O   0  0  0  0  0  0  0  0  0  0  0  0
  2  1  1  6
  2  3  1  0
  3  4  1  0
  4  5  1  0
  5  6  1  0
  6  7  1  0
  8  2  1  0
  9  8  2  0
 10  8  1  0
 11 10  1  0
 11 12  1  1
 12 13  1  0
 13 14  2  0
 14 15  1  0
 16 15  2  0
 17 16  1  0
 18 13  1  0
 18 17  2  0
 19 20  2  0
 19 11  1  0
 21 19  1  0
 22 21  1  0
 22 23  1  1
 24 23  1  0
 25 27  1  0
 25 22  1  0
 26 25  2  0
M  END
$$$$
