KFC.pdb
     RDKit          3D

 27 27  0  0  1  0  0  0  0  0999 V2000
    4.2906  -18.7022   21.7246 N   0  0  0  0  0  0  0  0  0  0  0  0
    5.6943  -18.9948   21.8330 C   0  0  1  0  0  0  0  0  0  0  0  0
    6.2802  -19.6175   20.6215 C   0  0  0  0  0  0  0  0  0  0  0  0
    6.5372  -21.0803   20.6723 C   0  0  0  0  0  0  0  0  0  0  0  0
    7.8478  -21.5195   20.1114 C   0  0  0  0  0  0  0  0  0  0  0  0
    7.9711  -23.0544   20.1565 C   0  0  0  0  0  0  0  0  0  0  0  0
    9.0682  -23.4649   20.9831 N   0  0  0  0  0  0  0  0  0  0  0  0
    6.3773  -17.7314   22.2242 C   0  0  0  0  0  0  0  0  0  0  0  0
    6.8842  -16.9321   21.4094 O   0  0  0  0  0  0  0  0  0  0  0  0
    6.4522  -17.4259   23.6007 N   0  0  0  0  0  0  0  0  0  0  0  0
    7.1656  -16.2942   24.1446 C   0  0  1  0  0  0  0  0  0  0  0  0
    6.4371  -15.8243   25.3678 C   0  0  0  0  0  0  0  0  0  0  0  0
    6.9062  -14.5348   25.8788 C   0  0  0  0  0  0  0  0  0  0  0  0
    7.8249  -14.5284   26.9092 C   0  0  0  0  0  0  0  0  0  0  0  0
    8.3167  -13.3449   27.4470 C   0  0  0  0  0  0  0  0  0  0  0  0
    7.8887  -12.1349   26.9526 C   0  0  0  0  0  0  0  0  0  0  0  0
    6.9803  -12.1217   25.9334 C   0  0  0  0  0  0  0  0  0  0  0  0
    6.4982  -13.3032   25.4065 C   0  0  0  0  0  0  0  0  0  0  0  0
    8.5492  -16.6033   24.5141 C   0  0  0  0  0  0  0  0  0  0  0  0
    8.9186  -17.5420   25.2592 O   0  0  0  0  0  0  0  0  0  0  0  0
    9.5822  -15.7778   23.9925 N   0  0  0  0  0  0  0  0  0  0  0  0
   10.9752  -16.0999   24.1530 C   0  0  1  0  0  0  0  0  0  0  0  0
   11.7586  -15.1514   23.2469 C   0  0  0  0  0  0  0  0  0  0  0  0
   13.5121  -15.5165   23.2524 S   0  0  0  0  0  0  0  0  0  0  0  0
   11.4413  -16.0596   25.5297 C   0  0  0  0  0  0  0  0  0  0  0  0
   10.8531  -15.3591   26.3798 O   0  0  0  0  0  0  0  0  0  0  0  0
   12.5417  -16.7971   25.9122 O   0  0  0  0  0  0  0  0  0  0  0  0
  2  1  1  6
  2  3  1  0
  3  4  1  0
  4  5  1  0
  5  6  1  0
  6  7  1  0
  8  2  1  0
  9  8  2  0
 10  8  1  0
 11 10  1  0
 11 12  1  1
 12 13  1  0
 13 14  2  0
 14 15  1  0
 16 15  2  0
 17 16  1  0
 18 13  1  0
 18 17  2  0
 19 20  2  0
 19 11  1  0
 21 19  1  0
 22 21  1  0
 22 23  1  6
 24 23  1  0
 25 27  1  0
 25 22  1  0
 26 25  2  0
M  END
$$$$
