KFC.pdb
     RDKit          3D

 27 27  0  0  1  0  0  0  0  0999 V2000
    8.5136  -16.3153   19.5550 N   0  0  0  0  0  0  0  0  0  0  0  0
    8.4343  -15.0946   20.3110 C   0  0  1  0  0  0  0  0  0  0  0  0
    7.5805  -14.0519   19.6926 C   0  0  0  0  0  0  0  0  0  0  0  0
    7.2434  -14.2213   18.2552 C   0  0  0  0  0  0  0  0  0  0  0  0
    7.9675  -13.3154   17.3171 C   0  0  0  0  0  0  0  0  0  0  0  0
    7.5994  -13.6390   15.8567 C   0  0  0  0  0  0  0  0  0  0  0  0
    8.3881  -12.8711   14.9382 N   0  0  0  0  0  0  0  0  0  0  0  0
    8.0010  -15.4582   21.6879 C   0  0  0  0  0  0  0  0  0  0  0  0
    6.8571  -15.8707   21.9723 O   0  0  0  0  0  0  0  0  0  0  0  0
    8.9459  -15.3257   22.7287 N   0  0  0  0  0  0  0  0  0  0  0  0
    8.6846  -14.6614   23.9841 C   0  0  1  0  0  0  0  0  0  0  0  0
    7.2994  -14.0902   23.9331 C   0  0  0  0  0  0  0  0  0  0  0  0
    6.9384  -13.3035   25.1142 C   0  0  0  0  0  0  0  0  0  0  0  0
    7.5159  -12.0608   25.2807 C   0  0  0  0  0  0  0  0  0  0  0  0
    7.2234  -11.2560   26.3755 C   0  0  0  0  0  0  0  0  0  0  0  0
    6.3358  -11.6917   27.3316 C   0  0  0  0  0  0  0  0  0  0  0  0
    5.7548  -12.9183   27.1836 C   0  0  0  0  0  0  0  0  0  0  0  0
    6.0525  -13.7098   26.0921 C   0  0  0  0  0  0  0  0  0  0  0  0
    8.7809  -15.5522   25.1432 C   0  0  0  0  0  0  0  0  0  0  0  0
    8.6345  -15.2160   26.3425 O   0  0  0  0  0  0  0  0  0  0  0  0
    9.0649  -16.9254   24.9109 N   0  0  0  0  0  0  0  0  0  0  0  0
    9.2194  -17.8687   25.9862 C   0  0  1  0  0  0  0  0  0  0  0  0
    8.0836  -18.8824   25.8558 C   0  0  0  0  0  0  0  0  0  0  0  0
    6.4764  -18.1138   26.0403 S   0  0  0  0  0  0  0  0  0  0  0  0
   10.5254  -18.5059   26.0368 C   0  0  0  0  0  0  0  0  0  0  0  0
   11.3842  -18.2659   25.1626 O   0  0  0  0  0  0  0  0  0  0  0  0
   10.8303  -19.3850   27.0543 O   0  0  0  0  0  0  0  0  0  0  0  0
  2  1  1  6
  2  3  1  0
  3  4  1  0
  4  5  1  0
  5  6  1  0
  6  7  1  0
  8  2  1  0
  9  8  2  0
 10  8  1  0
 11 10  1  0
 11 12  1  6
 12 13  1  0
 13 14  2  0
 14 15  1  0
 16 15  2  0
 17 16  1  0
 18 13  1  0
 18 17  2  0
 19 20  2  0
 19 11  1  0
 21 19  1  0
 22 21  1  0
 22 23  1  6
 24 23  1  0
 25 27  1  0
 25 22  1  0
 26 25  2  0
M  END
$$$$
