NEI.pdb
     RDKit          3D

 26 25  0  0  1  0  0  0  0  0999 V2000
    7.9095  -12.4025   16.5119 N   0  0  0  0  0  0  0  0  0  0  0  0
    7.6839  -13.7155   17.0484 C   0  0  0  0  0  0  0  0  0  0  0  0
    7.8949  -14.7061   16.3049 O   0  0  0  0  0  0  0  0  0  0  0  0
    7.2146  -13.8385   18.4449 C   0  0  0  0  0  0  0  0  0  0  0  0
    8.4042  -13.7404   19.3867 C   0  0  2  0  0  0  0  0  0  0  0  0
    9.5721  -14.3162   18.7746 N   0  0  0  0  0  0  0  0  0  0  0  0
    8.0097  -14.5222   20.6088 C   0  0  0  0  0  0  0  0  0  0  0  0
    6.9380  -14.1711   21.2117 O   0  0  0  0  0  0  0  0  0  0  0  0
    8.8044  -15.5856   21.0447 N   0  0  0  0  0  0  0  0  0  0  0  0
    8.4953  -16.2729   22.3025 C   0  0  1  0  0  0  0  0  0  0  0  0
    9.0396  -17.6565   22.1213 C   0  0  0  0  0  0  0  0  0  0  0  0
    9.0267  -18.5508   23.3043 C   0  0  0  0  0  0  0  0  0  0  0  0
    9.8173  -19.7761   22.9286 C   0  0  0  0  0  0  0  0  0  0  0  0
    9.2400  -20.6355   22.2290 O   0  0  0  0  0  0  0  0  0  0  0  0
    9.0081  -15.5237   23.4476 C   0  0  0  0  0  0  0  0  0  0  0  0
   10.2114  -15.1528   23.4198 O   0  0  0  0  0  0  0  0  0  0  0  0
   11.1278  -19.9870   23.3141 O   0  0  0  0  0  0  0  0  0  0  0  0
    5.7682  -11.8850   25.7291 C   0  0  0  0  0  0  0  0  0  0  0  0
    6.9637  -12.6366   25.1977 C   0  0  0  0  0  0  0  0  0  0  0  0
    7.5863  -13.5365   26.2424 C   0  0  2  0  0  0  0  0  0  0  0  0
    8.0593  -12.6880   27.3717 C   0  0  0  0  0  0  0  0  0  0  0  0
    8.6872  -14.4110   25.6658 C   0  0  2  0  0  0  0  0  0  0  0  0
    8.1854  -15.2123   24.5591 N   0  0  0  0  0  0  0  0  0  0  0  0
    9.1637  -15.2980   26.7395 C   0  0  0  0  0  0  0  0  0  0  0  0
    8.6130  -16.4094   27.0085 O   0  0  0  0  0  0  0  0  0  0  0  0
   10.2523  -14.9829   27.5370 O   0  0  0  0  0  0  0  0  0  0  0  0
  2  1  1  0
  2  4  1  0
  3  2  2  0
  5  6  1  6
  5  4  1  0
  7  5  1  0
  8  7  2  0
  9  7  1  0
 10  9  1  0
 11 12  1  0
 10 11  1  6
 13 12  1  0
 13 17  1  0
 14 13  2  0
 15 23  1  0
 15 10  1  0
 16 15  2  0
 19 18  1  0
 20 22  1  0
 20 19  1  0
 20 21  1  1
 22 23  1  6
 24 22  1  0
 25 24  2  0
 26 24  1  0
M  END
$$$$
