NEI.pdb
     RDKit          3D

 26 25  0  0  1  0  0  0  0  0999 V2000
    8.1809  -12.6040   16.6780 N   0  0  0  0  0  0  0  0  0  0  0  0
    7.7892  -13.9437   17.0163 C   0  0  0  0  0  0  0  0  0  0  0  0
    7.6381  -14.7725   16.0842 O   0  0  0  0  0  0  0  0  0  0  0  0
    7.5821  -14.2824   18.4404 C   0  0  0  0  0  0  0  0  0  0  0  0
    8.9121  -14.2122   19.1736 C   0  0  2  0  0  0  0  0  0  0  0  0
    9.9171  -14.9469   18.4524 N   0  0  0  0  0  0  0  0  0  0  0  0
    8.6603  -14.8414   20.5157 C   0  0  0  0  0  0  0  0  0  0  0  0
    7.6334  -14.4468   21.1675 O   0  0  0  0  0  0  0  0  0  0  0  0
    9.5332  -15.8167   21.0050 N   0  0  0  0  0  0  0  0  0  0  0  0
    9.2897  -16.4397   22.3098 C   0  0  1  0  0  0  0  0  0  0  0  0
   10.2204  -17.6126   22.3486 C   0  0  0  0  0  0  0  0  0  0  0  0
   10.0681  -18.6347   21.2847 C   0  0  0  0  0  0  0  0  0  0  0  0
   11.3436  -19.4350   21.2685 C   0  0  0  0  0  0  0  0  0  0  0  0
   11.7986  -19.8058   22.3715 O   0  0  0  0  0  0  0  0  0  0  0  0
    9.4352  -15.4658   23.3896 C   0  0  0  0  0  0  0  0  0  0  0  0
   10.3889  -14.6460   23.3210 O   0  0  0  0  0  0  0  0  0  0  0  0
   12.0187  -19.7722   20.1106 O   0  0  0  0  0  0  0  0  0  0  0  0
    6.4655  -11.4583   26.5658 C   0  0  0  0  0  0  0  0  0  0  0  0
    7.5130  -12.5334   26.7184 C   0  0  0  0  0  0  0  0  0  0  0  0
    7.4005  -13.5995   25.6508 C   0  0  2  0  0  0  0  0  0  0  0  0
    6.1936  -14.4246   25.9362 C   0  0  0  0  0  0  0  0  0  0  0  0
    8.6659  -14.4330   25.5350 C   0  0  2  0  0  0  0  0  0  0  0  0
    8.5341  -15.4304   24.4832 N   0  0  0  0  0  0  0  0  0  0  0  0
    8.8797  -15.1052   26.8269 C   0  0  0  0  0  0  0  0  0  0  0  0
    9.1351  -14.4727   27.8973 O   0  0  0  0  0  0  0  0  0  0  0  0
    8.8170  -16.4822   26.9688 O   0  0  0  0  0  0  0  0  0  0  0  0
  2  1  1  0
  2  4  1  0
  3  2  2  0
  5  6  1  6
  5  4  1  0
  7  5  1  0
  8  7  2  0
  9  7  1  0
 10  9  1  0
 11 12  1  0
 10 11  1  1
 13 12  1  0
 13 17  1  0
 14 13  2  0
 15 23  1  0
 15 10  1  0
 16 15  2  0
 19 18  1  0
 20 22  1  0
 20 19  1  0
 20 21  1  1
 22 23  1  6
 24 22  1  0
 25 24  2  0
 26 24  1  0
M  END
$$$$
