NEI.pdb
     RDKit          3D

 26 25  0  0  1  0  0  0  0  0999 V2000
    6.8096  -13.0478   16.7786 N   0  0  0  0  0  0  0  0  0  0  0  0
    8.0334  -13.4022   17.4414 C   0  0  0  0  0  0  0  0  0  0  0  0
    9.0413  -13.6540   16.7347 O   0  0  0  0  0  0  0  0  0  0  0  0
    8.0487  -13.4550   18.9188 C   0  0  0  0  0  0  0  0  0  0  0  0
    8.9725  -14.5735   19.3735 C   0  0  2  0  0  0  0  0  0  0  0  0
    8.8892  -15.6873   18.4665 N   0  0  0  0  0  0  0  0  0  0  0  0
    8.4794  -14.9669   20.7383 C   0  0  0  0  0  0  0  0  0  0  0  0
    7.6242  -14.1993   21.2991 O   0  0  0  0  0  0  0  0  0  0  0  0
    8.9565  -16.1319   21.3446 N   0  0  0  0  0  0  0  0  0  0  0  0
    8.4377  -16.5519   22.6502 C   0  0  1  0  0  0  0  0  0  0  0  0
    8.7878  -18.0051   22.7466 C   0  0  0  0  0  0  0  0  0  0  0  0
   10.0721  -18.4348   22.1420 C   0  0  0  0  0  0  0  0  0  0  0  0
   10.5512  -19.6182   22.9406 C   0  0  0  0  0  0  0  0  0  0  0  0
    9.7558  -20.5716   23.0810 O   0  0  0  0  0  0  0  0  0  0  0  0
    8.9489  -15.6938   23.7168 C   0  0  0  0  0  0  0  0  0  0  0  0
   10.1030  -15.2077   23.5818 O   0  0  0  0  0  0  0  0  0  0  0  0
   11.8072  -19.6956   23.5121 O   0  0  0  0  0  0  0  0  0  0  0  0
    5.8699  -11.8157   25.3626 C   0  0  0  0  0  0  0  0  0  0  0  0
    7.0521  -12.6925   25.0310 C   0  0  0  0  0  0  0  0  0  0  0  0
    7.5450  -13.4692   26.2321 C   0  0  2  0  0  0  0  0  0  0  0  0
    7.9678  -12.4973   27.2788 C   0  0  0  0  0  0  0  0  0  0  0  0
    8.6441  -14.4537   25.8687 C   0  0  2  0  0  0  0  0  0  0  0  0
    8.1777  -15.4047   24.8703 N   0  0  0  0  0  0  0  0  0  0  0  0
    9.0242  -15.1738   27.0949 C   0  0  0  0  0  0  0  0  0  0  0  0
    8.5237  -16.2947   27.4173 O   0  0  0  0  0  0  0  0  0  0  0  0
    9.9598  -14.6784   27.9891 O   0  0  0  0  0  0  0  0  0  0  0  0
  2  1  1  0
  2  4  1  0
  3  2  2  0
  5  6  1  6
  5  4  1  0
  7  5  1  0
  8  7  2  0
  9  7  1  0
 10  9  1  0
 11 12  1  0
 10 11  1  1
 13 12  1  0
 13 17  1  0
 14 13  2  0
 15 23  1  0
 15 10  1  0
 16 15  2  0
 19 18  1  0
 20 22  1  0
 20 19  1  0
 20 21  1  1
 22 23  1  6
 24 22  1  0
 25 24  2  0
 26 24  1  0
M  END
$$$$
