NEI.pdb
     RDKit          3D

 26 25  0  0  1  0  0  0  0  0999 V2000
    8.2999  -19.1018   19.0841 N   0  0  0  0  0  0  0  0  0  0  0  0
    7.3947  -18.0067   18.8746 C   0  0  0  0  0  0  0  0  0  0  0  0
    7.5206  -17.3228   17.8282 O   0  0  0  0  0  0  0  0  0  0  0  0
    6.3619  -17.7364   19.8973 C   0  0  0  0  0  0  0  0  0  0  0  0
    6.4438  -18.7928   20.9876 C   0  0  2  0  0  0  0  0  0  0  0  0
    5.4617  -19.8194   20.7604 N   0  0  0  0  0  0  0  0  0  0  0  0
    6.1570  -18.0635   22.2707 C   0  0  0  0  0  0  0  0  0  0  0  0
    5.0287  -17.4705   22.3713 O   0  0  0  0  0  0  0  0  0  0  0  0
    7.1073  -18.0517   23.2951 N   0  0  0  0  0  0  0  0  0  0  0  0
    6.8001  -17.4188   24.5816 C   0  0  1  0  0  0  0  0  0  0  0  0
    6.7850  -18.5487   25.5649 C   0  0  0  0  0  0  0  0  0  0  0  0
    8.0896  -19.1617   25.9138 C   0  0  0  0  0  0  0  0  0  0  0  0
    7.8061  -20.2266   26.9401 C   0  0  0  0  0  0  0  0  0  0  0  0
    6.6089  -20.4346   27.2308 O   0  0  0  0  0  0  0  0  0  0  0  0
    7.7332  -16.3305   24.8651 C   0  0  0  0  0  0  0  0  0  0  0  0
    8.9342  -16.4758   24.5146 O   0  0  0  0  0  0  0  0  0  0  0  0
    8.7919  -20.9703   27.5610 O   0  0  0  0  0  0  0  0  0  0  0  0
    5.9828  -11.6081   27.7163 C   0  0  0  0  0  0  0  0  0  0  0  0
    6.5119  -12.9361   27.2336 C   0  0  0  0  0  0  0  0  0  0  0  0
    7.5294  -12.7795   26.1251 C   0  0  2  0  0  0  0  0  0  0  0  0
    6.8399  -12.2175   24.9302 C   0  0  0  0  0  0  0  0  0  0  0  0
    8.2567  -14.0794   25.8242 C   0  0  2  0  0  0  0  0  0  0  0  0
    7.3113  -15.1403   25.5089 N   0  0  0  0  0  0  0  0  0  0  0  0
    9.0293  -14.4483   27.0215 C   0  0  0  0  0  0  0  0  0  0  0  0
    9.9647  -13.7268   27.4857 O   0  0  0  0  0  0  0  0  0  0  0  0
    8.7904  -15.6141   27.7315 O   0  0  0  0  0  0  0  0  0  0  0  0
  2  1  1  0
  2  4  1  0
  3  2  2  0
  5  6  1  6
  5  4  1  0
  7  5  1  0
  8  7  2  0
  9  7  1  0
 10  9  1  0
 11 12  1  0
 10 11  1  1
 13 12  1  0
 13 17  1  0
 14 13  2  0
 15 23  1  0
 15 10  1  0
 16 15  2  0
 19 18  1  0
 20 22  1  0
 20 19  1  0
 20 21  1  6
 22 23  1  1
 24 22  1  0
 25 24  2  0
 26 24  1  0
M  END
$$$$
