NEI.pdb
     RDKit          3D

 26 25  0  0  1  0  0  0  0  0999 V2000
    8.5326  -12.9161   17.0867 N   0  0  0  0  0  0  0  0  0  0  0  0
    7.4948  -13.8956   17.2481 C   0  0  0  0  0  0  0  0  0  0  0  0
    6.7862  -14.1814   16.2507 O   0  0  0  0  0  0  0  0  0  0  0  0
    7.3095  -14.5183   18.5762 C   0  0  0  0  0  0  0  0  0  0  0  0
    8.1532  -13.7782   19.6018 C   0  0  2  0  0  0  0  0  0  0  0  0
    9.5069  -13.6483   19.1320 N   0  0  0  0  0  0  0  0  0  0  0  0
    8.1048  -14.6255   20.8429 C   0  0  0  0  0  0  0  0  0  0  0  0
    6.9760  -14.7428   21.4319 O   0  0  0  0  0  0  0  0  0  0  0  0
    9.2657  -15.2473   21.3101 N   0  0  0  0  0  0  0  0  0  0  0  0
    9.2235  -16.0837   22.5137 C   0  0  1  0  0  0  0  0  0  0  0  0
   10.2798  -17.1218   22.2903 C   0  0  0  0  0  0  0  0  0  0  0  0
    9.9838  -18.1893   21.3041 C   0  0  0  0  0  0  0  0  0  0  0  0
   11.2924  -18.5505   20.6524 C   0  0  0  0  0  0  0  0  0  0  0  0
   11.2491  -18.9544   19.4708 O   0  0  0  0  0  0  0  0  0  0  0  0
    9.3637  -15.2712   23.7202 C   0  0  0  0  0  0  0  0  0  0  0  0
   10.2699  -14.3968   23.7415 O   0  0  0  0  0  0  0  0  0  0  0  0
   12.5149  -18.4552   21.2901 O   0  0  0  0  0  0  0  0  0  0  0  0
    5.6548  -12.3435   25.6426 C   0  0  0  0  0  0  0  0  0  0  0  0
    6.9898  -12.9786   25.3410 C   0  0  0  0  0  0  0  0  0  0  0  0
    7.4311  -13.9310   26.4305 C   0  0  2  0  0  0  0  0  0  0  0  0
    7.5688  -13.1623   27.6991 C   0  0  0  0  0  0  0  0  0  0  0  0
    8.6996  -14.6810   26.0595 C   0  0  2  0  0  0  0  0  0  0  0  0
    8.5088  -15.4476   24.8370 N   0  0  0  0  0  0  0  0  0  0  0  0
    9.0208  -15.5943   27.1683 C   0  0  0  0  0  0  0  0  0  0  0  0
    9.4469  -15.1879   28.2926 O   0  0  0  0  0  0  0  0  0  0  0  0
    8.8806  -16.9691   27.0646 O   0  0  0  0  0  0  0  0  0  0  0  0
  2  1  1  0
  2  4  1  0
  3  2  2  0
  5  6  1  6
  5  4  1  0
  7  5  1  0
  8  7  2  0
  9  7  1  0
 10  9  1  0
 11 12  1  0
 10 11  1  6
 13 12  1  0
 13 17  1  0
 14 13  2  0
 15 23  1  0
 15 10  1  0
 16 15  2  0
 19 18  1  0
 20 22  1  0
 20 19  1  0
 20 21  1  1
 22 23  1  6
 24 22  1  0
 25 24  2  0
 26 24  1  0
M  END
$$$$
