NEI.pdb
     RDKit          3D

 26 25  0  0  1  0  0  0  0  0999 V2000
    9.0039  -12.9520   17.0510 N   0  0  0  0  0  0  0  0  0  0  0  0
    7.8658  -13.8267   17.0991 C   0  0  0  0  0  0  0  0  0  0  0  0
    7.2122  -14.0110   16.0420 O   0  0  0  0  0  0  0  0  0  0  0  0
    7.5180  -14.4657   18.3861 C   0  0  0  0  0  0  0  0  0  0  0  0
    8.3816  -13.8772   19.4904 C   0  0  2  0  0  0  0  0  0  0  0  0
    9.7704  -13.9328   19.1189 N   0  0  0  0  0  0  0  0  0  0  0  0
    8.1238  -14.7358   20.6974 C   0  0  0  0  0  0  0  0  0  0  0  0
    6.9225  -14.7962   21.1312 O   0  0  0  0  0  0  0  0  0  0  0  0
    9.1772  -15.4282   21.3001 N   0  0  0  0  0  0  0  0  0  0  0  0
    8.9510  -16.1946   22.5296 C   0  0  1  0  0  0  0  0  0  0  0  0
    9.7830  -17.4291   22.3642 C   0  0  0  0  0  0  0  0  0  0  0  0
    9.5764  -18.2261   21.1306 C   0  0  0  0  0  0  0  0  0  0  0  0
   10.5578  -19.3670   21.1838 C   0  0  0  0  0  0  0  0  0  0  0  0
   11.4411  -19.3193   22.0662 O   0  0  0  0  0  0  0  0  0  0  0  0
    9.2315  -15.3822   23.7114 C   0  0  0  0  0  0  0  0  0  0  0  0
   10.3077  -14.7284   23.7369 O   0  0  0  0  0  0  0  0  0  0  0  0
   10.5243  -20.4439   20.3180 O   0  0  0  0  0  0  0  0  0  0  0  0
    5.7847  -11.9626   25.5266 C   0  0  0  0  0  0  0  0  0  0  0  0
    7.0663  -12.7041   25.2361 C   0  0  0  0  0  0  0  0  0  0  0  0
    7.4533  -13.6419   26.3583 C   0  0  2  0  0  0  0  0  0  0  0  0
    7.7119  -12.8306   27.5806 C   0  0  0  0  0  0  0  0  0  0  0  0
    8.6284  -14.5305   25.9857 C   0  0  2  0  0  0  0  0  0  0  0  0
    8.3258  -15.3185   24.7999 N   0  0  0  0  0  0  0  0  0  0  0  0
    8.8881  -15.4300   27.1215 C   0  0  0  0  0  0  0  0  0  0  0  0
    8.3862  -16.5926   27.2068 O   0  0  0  0  0  0  0  0  0  0  0  0
    9.7028  -15.0715   28.1837 O   0  0  0  0  0  0  0  0  0  0  0  0
  2  1  1  0
  2  4  1  0
  3  2  2  0
  5  6  1  6
  5  4  1  0
  7  5  1  0
  8  7  2  0
  9  7  1  0
 10  9  1  0
 11 12  1  0
 10 11  1  6
 13 12  1  0
 13 17  1  0
 14 13  2  0
 15 23  1  0
 15 10  1  0
 16 15  2  0
 19 18  1  0
 20 22  1  0
 20 19  1  0
 20 21  1  1
 22 23  1  6
 24 22  1  0
 25 24  2  0
 26 24  1  0
M  END
$$$$
