NEI.pdb
     RDKit          3D

 26 25  0  0  1  0  0  0  0  0999 V2000
    9.2055  -13.4253   16.9434 N   0  0  0  0  0  0  0  0  0  0  0  0
    7.8259  -13.3740   17.3392 C   0  0  0  0  0  0  0  0  0  0  0  0
    6.9813  -12.9706   16.5010 O   0  0  0  0  0  0  0  0  0  0  0  0
    7.4664  -13.7958   18.7098 C   0  0  0  0  0  0  0  0  0  0  0  0
    8.7349  -14.0776   19.4992 C   0  0  2  0  0  0  0  0  0  0  0  0
    9.5739  -14.9992   18.7803 N   0  0  0  0  0  0  0  0  0  0  0  0
    8.2712  -14.6861   20.7935 C   0  0  0  0  0  0  0  0  0  0  0  0
    7.2680  -14.1445   21.3725 O   0  0  0  0  0  0  0  0  0  0  0  0
    8.9320  -15.7998   21.3183 N   0  0  0  0  0  0  0  0  0  0  0  0
    8.5277  -16.3577   22.6126 C   0  0  1  0  0  0  0  0  0  0  0  0
    9.1786  -17.7058   22.6634 C   0  0  0  0  0  0  0  0  0  0  0  0
    9.1183  -18.4400   23.9506 C   0  0  0  0  0  0  0  0  0  0  0  0
    9.9332  -19.6936   23.7716 C   0  0  0  0  0  0  0  0  0  0  0  0
   10.9960  -19.7812   24.4227 O   0  0  0  0  0  0  0  0  0  0  0  0
    8.8571  -15.4419   23.7027 C   0  0  0  0  0  0  0  0  0  0  0  0
    9.9882  -14.8881   23.6875 O   0  0  0  0  0  0  0  0  0  0  0  0
    9.5638  -20.7316   22.9371 O   0  0  0  0  0  0  0  0  0  0  0  0
    7.8377  -11.0666   26.5431 C   0  0  0  0  0  0  0  0  0  0  0  0
    7.2171  -12.3072   27.1366 C   0  0  0  0  0  0  0  0  0  0  0  0
    6.9612  -13.3748   26.0957 C   0  0  2  0  0  0  0  0  0  0  0  0
    5.8567  -14.2487   26.5806 C   0  0  0  0  0  0  0  0  0  0  0  0
    8.2186  -14.1561   25.7522 C   0  0  2  0  0  0  0  0  0  0  0  0
    7.9386  -15.1718   24.7479 N   0  0  0  0  0  0  0  0  0  0  0  0
    8.6960  -14.8019   26.9858 C   0  0  0  0  0  0  0  0  0  0  0  0
    8.5622  -16.0444   27.2077 O   0  0  0  0  0  0  0  0  0  0  0  0
    9.3286  -14.0976   27.9977 O   0  0  0  0  0  0  0  0  0  0  0  0
  2  1  1  0
  2  4  1  0
  3  2  2  0
  5  6  1  6
  5  4  1  0
  7  5  1  0
  8  7  2  0
  9  7  1  0
 10  9  1  0
 11 12  1  0
 10 11  1  1
 13 12  1  0
 13 17  1  0
 14 13  2  0
 15 23  1  0
 15 10  1  0
 16 15  2  0
 19 18  1  0
 20 22  1  0
 20 19  1  0
 20 21  1  1
 22 23  1  6
 24 22  1  0
 25 24  2  0
 26 24  1  0
M  END
$$$$
