NEI.pdb
     RDKit          3D

 26 25  0  0  1  0  0  0  0  0999 V2000
    8.2002  -14.1421   16.1343 N   0  0  0  0  0  0  0  0  0  0  0  0
    7.8031  -14.4646   17.4763 C   0  0  0  0  0  0  0  0  0  0  0  0
    7.9721  -15.6424   17.8798 O   0  0  0  0  0  0  0  0  0  0  0  0
    7.2153  -13.3992   18.3159 C   0  0  0  0  0  0  0  0  0  0  0  0
    8.2385  -12.9468   19.3454 C   0  0  2  0  0  0  0  0  0  0  0  0
    9.5382  -12.8338   18.7386 N   0  0  0  0  0  0  0  0  0  0  0  0
    8.2407  -14.0171   20.4013 C   0  0  0  0  0  0  0  0  0  0  0  0
    7.1187  -14.3208   20.9340 O   0  0  0  0  0  0  0  0  0  0  0  0
    9.4389  -14.6371   20.7652 N   0  0  0  0  0  0  0  0  0  0  0  0
    9.4526  -15.6618   21.8139 C   0  0  1  0  0  0  0  0  0  0  0  0
   10.5622  -16.5888   21.4226 C   0  0  0  0  0  0  0  0  0  0  0  0
   10.9240  -17.6578   22.3848 C   0  0  0  0  0  0  0  0  0  0  0  0
   12.0153  -18.4696   21.7386 C   0  0  0  0  0  0  0  0  0  0  0  0
   11.6633  -19.3874   20.9672 O   0  0  0  0  0  0  0  0  0  0  0  0
    9.5584  -15.0533   23.1383 C   0  0  0  0  0  0  0  0  0  0  0  0
   10.4675  -14.2022   23.3263 O   0  0  0  0  0  0  0  0  0  0  0  0
   13.3622  -18.2478   21.9553 O   0  0  0  0  0  0  0  0  0  0  0  0
    6.5500  -12.0269   27.1428 C   0  0  0  0  0  0  0  0  0  0  0  0
    7.6293  -13.0722   27.0052 C   0  0  0  0  0  0  0  0  0  0  0  0
    7.5985  -13.7541   25.6551 C   0  0  2  0  0  0  0  0  0  0  0  0
    6.2621  -14.3882   25.4794 C   0  0  0  0  0  0  0  0  0  0  0  0
    8.7418  -14.7403   25.4828 C   0  0  2  0  0  0  0  0  0  0  0  0
    8.6678  -15.3971   24.1860 N   0  0  0  0  0  0  0  0  0  0  0  0
    8.6308  -15.7464   26.5514 C   0  0  0  0  0  0  0  0  0  0  0  0
    8.1895  -16.9191   26.3487 O   0  0  0  0  0  0  0  0  0  0  0  0
    9.0018  -15.4855   27.8608 O   0  0  0  0  0  0  0  0  0  0  0  0
  2  1  1  0
  2  4  1  0
  3  2  2  0
  5  6  1  6
  5  4  1  0
  7  5  1  0
  8  7  2  0
  9  7  1  0
 10  9  1  0
 11 12  1  0
 10 11  1  6
 13 12  1  0
 13 17  1  0
 14 13  2  0
 15 23  1  0
 15 10  1  0
 16 15  2  0
 19 18  1  0
 20 22  1  0
 20 19  1  0
 20 21  1  1
 22 23  1  6
 24 22  1  0
 25 24  2  0
 26 24  1  0
M  END
$$$$
