NEI.pdb
     RDKit          3D

 26 25  0  0  1  0  0  0  0  0999 V2000
    8.6095  -12.1681   17.5199 N   0  0  0  0  0  0  0  0  0  0  0  0
    7.9266  -13.4278   17.4235 C   0  0  0  0  0  0  0  0  0  0  0  0
    7.6246  -13.8548   16.2811 O   0  0  0  0  0  0  0  0  0  0  0  0
    7.6116  -14.1594   18.6690 C   0  0  0  0  0  0  0  0  0  0  0  0
    8.7261  -15.1496   18.9673 C   0  0  2  0  0  0  0  0  0  0  0  0
    8.6614  -16.2609   18.0557 N   0  0  0  0  0  0  0  0  0  0  0  0
    8.4825  -15.6098   20.3778 C   0  0  0  0  0  0  0  0  0  0  0  0
    7.2708  -15.6450   20.7846 O   0  0  0  0  0  0  0  0  0  0  0  0
    9.5595  -15.9776   21.1885 N   0  0  0  0  0  0  0  0  0  0  0  0
    9.3231  -16.5425   22.5209 C   0  0  1  0  0  0  0  0  0  0  0  0
   10.2121  -17.7464   22.5845 C   0  0  0  0  0  0  0  0  0  0  0  0
   10.2856  -18.4676   23.8783 C   0  0  0  0  0  0  0  0  0  0  0  0
   11.2870  -19.5777   23.6980 C   0  0  0  0  0  0  0  0  0  0  0  0
   12.4866  -19.3050   23.9161 O   0  0  0  0  0  0  0  0  0  0  0  0
    9.5273  -15.5352   23.5597 C   0  0  0  0  0  0  0  0  0  0  0  0
   10.5175  -14.7648   23.4489 O   0  0  0  0  0  0  0  0  0  0  0  0
   10.9443  -20.8597   23.3114 O   0  0  0  0  0  0  0  0  0  0  0  0
    6.8185  -11.6037   27.2546 C   0  0  0  0  0  0  0  0  0  0  0  0
    7.9261  -12.6209   27.1320 C   0  0  0  0  0  0  0  0  0  0  0  0
    7.7119  -13.5649   25.9694 C   0  0  2  0  0  0  0  0  0  0  0  0
    6.4510  -14.3222   26.2053 C   0  0  0  0  0  0  0  0  0  0  0  0
    8.9072  -14.4746   25.7396 C   0  0  2  0  0  0  0  0  0  0  0  0
    8.6423  -15.4146   24.6603 N   0  0  0  0  0  0  0  0  0  0  0  0
    9.1537  -15.2149   26.9878 C   0  0  0  0  0  0  0  0  0  0  0  0
    8.8727  -16.4450   27.1247 O   0  0  0  0  0  0  0  0  0  0  0  0
    9.7127  -14.6203   28.1078 O   0  0  0  0  0  0  0  0  0  0  0  0
  2  1  1  0
  2  4  1  0
  3  2  2  0
  5  6  1  6
  5  4  1  0
  7  5  1  0
  8  7  2  0
  9  7  1  0
 10  9  1  0
 11 12  1  0
 10 11  1  1
 13 12  1  0
 13 17  1  0
 14 13  2  0
 15 23  1  0
 15 10  1  0
 16 15  2  0
 19 18  1  0
 20 22  1  0
 20 19  1  0
 20 21  1  1
 22 23  1  6
 24 22  1  0
 25 24  2  0
 26 24  1  0
M  END
$$$$
