KHA.pdb
     RDKit          3D

 25 25  0  0  1  0  0  0  0  0999 V2000
   12.1927  -23.4349    0.0032 N   0  0  0  0  0  0  0  0  0  0  0  0
   13.5975  -23.1093    0.0385 C   0  0  1  0  0  0  0  0  0  0  0  0
   14.0183  -22.0582   -0.9215 C   0  0  0  0  0  0  0  0  0  0  0  0
   13.8717  -22.3854   -2.3745 C   0  0  0  0  0  0  0  0  0  0  0  0
   14.8832  -23.3290   -2.9334 C   0  0  0  0  0  0  0  0  0  0  0  0
   14.5230  -23.5289   -4.4194 C   0  0  0  0  0  0  0  0  0  0  0  0
   15.5651  -24.3378   -5.0157 N   0  0  0  0  0  0  0  0  0  0  0  0
   13.9716  -22.8030    1.4390 C   0  0  0  0  0  0  0  0  0  0  0  0
   13.1621  -22.3267    2.2767 O   0  0  0  0  0  0  0  0  0  0  0  0
   15.2890  -23.0434    1.8922 N   0  0  0  0  0  0  0  0  0  0  0  0
   15.6921  -22.7685    3.2902 C   0  0  1  0  0  0  0  0  0  0  0  0
   16.8467  -23.6238    3.6536 C   0  0  0  0  0  0  0  0  0  0  0  0
   17.2850  -23.5217    5.0455 C   0  0  0  0  0  0  0  0  0  0  0  0
   16.7043  -22.7091    6.0288 C   0  0  0  0  0  0  0  0  0  0  0  0
   17.3479  -22.8571    7.1804 N   0  0  0  0  0  0  0  0  0  0  0  0
   18.3409  -23.7446    6.9937 C   0  0  0  0  0  0  0  0  0  0  0  0
   18.2907  -24.1315    5.7169 N   0  0  0  0  0  0  0  0  0  0  0  0
   15.8090  -21.3243    3.5043 C   0  0  0  0  0  0  0  0  0  0  0  0
   16.4429  -20.6546    2.6108 O   0  0  0  0  0  0  0  0  0  0  0  0
   14.0934  -18.4649    4.9293 C   0  0  0  0  0  0  0  0  0  0  0  0
   15.4242  -19.1212    4.6530 C   0  0  2  0  0  0  0  0  0  0  0  0
   15.2969  -20.5708    4.5838 N   0  0  0  0  0  0  0  0  0  0  0  0
   16.4432  -18.6389    5.5863 C   0  0  0  0  0  0  0  0  0  0  0  0
   16.7425  -17.3037    5.6850 O   0  0  0  0  0  0  0  0  0  0  0  0
   17.0485  -19.4639    6.3039 O   0  0  0  0  0  0  0  0  0  0  0  0
  2  1  1  1
  3  2  1  0
  4  3  1  0
  5  4  1  0
  6  5  1  0
  6  7  1  0
  8  2  1  0
  9  8  2  0
 10  8  1  0
 11 10  1  0
 11 12  1  6
 12 13  1  0
 13 17  1  0
 14 13  2  0
 14 15  1  0
 15 16  1  0
 17 16  2  0
 18 19  2  0
 18 11  1  0
 21 20  1  1
 21 22  1  0
 22 18  1  0
 23 21  1  0
 24 23  1  0
 25 23  2  0
M  END
$$$$
