KHA.pdb
     RDKit          3D

 25 25  0  0  1  0  0  0  0  0999 V2000
   40.1131   -7.0951  -10.1371 N   0  0  0  0  0  0  0  0  0  0  0  0
   40.7021   -5.8820  -10.6491 C   0  0  1  0  0  0  0  0  0  0  0  0
   42.0630   -6.0421  -11.2199 C   0  0  0  0  0  0  0  0  0  0  0  0
   42.8974   -7.1478  -10.6534 C   0  0  0  0  0  0  0  0  0  0  0  0
   44.2601   -7.3001  -11.2413 C   0  0  0  0  0  0  0  0  0  0  0  0
   44.8819   -8.5519  -10.5898 C   0  0  0  0  0  0  0  0  0  0  0  0
   46.1797   -8.7603  -11.1965 N   0  0  0  0  0  0  0  0  0  0  0  0
   39.7442   -5.2587  -11.5921 C   0  0  0  0  0  0  0  0  0  0  0  0
   39.9893   -4.1924  -12.2140 O   0  0  0  0  0  0  0  0  0  0  0  0
   38.4870   -5.8600  -11.8300 N   0  0  0  0  0  0  0  0  0  0  0  0
   37.5095   -5.2703  -12.7730 C   0  0  1  0  0  0  0  0  0  0  0  0
   36.6616   -6.3417  -13.3472 C   0  0  0  0  0  0  0  0  0  0  0  0
   35.5916   -5.8830  -14.2330 C   0  0  0  0  0  0  0  0  0  0  0  0
   35.2879   -4.5463  -14.5255 C   0  0  0  0  0  0  0  0  0  0  0  0
   34.2595   -4.4856  -15.3628 N   0  0  0  0  0  0  0  0  0  0  0  0
   33.8686   -5.7427  -15.6371 C   0  0  0  0  0  0  0  0  0  0  0  0
   34.6716   -6.5641  -14.9567 N   0  0  0  0  0  0  0  0  0  0  0  0
   36.8446   -4.1216  -12.1536 C   0  0  0  0  0  0  0  0  0  0  0  0
   36.2878   -4.3187  -11.0134 O   0  0  0  0  0  0  0  0  0  0  0  0
   36.9172   -0.4691  -11.9508 C   0  0  0  0  0  0  0  0  0  0  0  0
   36.0928   -1.7332  -11.9270 C   0  0  2  0  0  0  0  0  0  0  0  0
   36.7470   -2.8073  -12.6621 N   0  0  0  0  0  0  0  0  0  0  0  0
   34.7145   -1.4604  -12.3368 C   0  0  0  0  0  0  0  0  0  0  0  0
   33.8453   -0.7942  -11.5105 O   0  0  0  0  0  0  0  0  0  0  0  0
   34.3283   -1.8442  -13.4619 O   0  0  0  0  0  0  0  0  0  0  0  0
  2  1  1  6
  3  2  1  0
  4  3  1  0
  5  4  1  0
  6  5  1  0
  6  7  1  0
  8  2  1  0
  9  8  2  0
 10  8  1  0
 11 10  1  0
 11 12  1  1
 12 13  1  0
 13 17  1  0
 14 13  2  0
 14 15  1  0
 15 16  1  0
 17 16  2  0
 18 19  2  0
 18 11  1  0
 21 20  1  6
 21 22  1  0
 22 18  1  0
 23 21  1  0
 24 23  1  0
 25 23  2  0
M  END
$$$$
