KHA.pdb
     RDKit          3D

 25 25  0  0  1  0  0  0  0  0999 V2000
   26.5363  -14.4837  -17.1931 N   0  0  0  0  0  0  0  0  0  0  0  0
   26.4445  -14.9143  -15.8194 C   0  0  1  0  0  0  0  0  0  0  0  0
   25.5917  -14.0615  -14.9542 C   0  0  0  0  0  0  0  0  0  0  0  0
   24.3713  -13.4751  -15.5917 C   0  0  0  0  0  0  0  0  0  0  0  0
   24.5089  -12.0772  -16.0947 C   0  0  0  0  0  0  0  0  0  0  0  0
   23.1605  -11.7107  -16.7471 C   0  0  0  0  0  0  0  0  0  0  0  0
   23.2274  -10.3171  -17.1334 N   0  0  0  0  0  0  0  0  0  0  0  0
   26.0487  -16.3420  -15.8023 C   0  0  0  0  0  0  0  0  0  0  0  0
   25.5172  -16.9182  -16.7868 O   0  0  0  0  0  0  0  0  0  0  0  0
   26.2619  -17.1253  -14.6449 N   0  0  0  0  0  0  0  0  0  0  0  0
   25.9208  -18.5658  -14.6079 C   0  0  1  0  0  0  0  0  0  0  0  0
   26.7419  -19.2464  -13.5788 C   0  0  0  0  0  0  0  0  0  0  0  0
   26.3430  -20.6196  -13.2702 C   0  0  0  0  0  0  0  0  0  0  0  0
   25.3072  -21.3302  -13.8921 C   0  0  0  0  0  0  0  0  0  0  0  0
   25.2139  -22.5479  -13.3717 N   0  0  0  0  0  0  0  0  0  0  0  0
   26.1571  -22.6700  -12.4210 C   0  0  0  0  0  0  0  0  0  0  0  0
   26.8216  -21.5131  -12.3721 N   0  0  0  0  0  0  0  0  0  0  0  0
   24.4670  -18.7362  -14.5542 C   0  0  0  0  0  0  0  0  0  0  0  0
   23.8310  -18.0275  -13.6928 O   0  0  0  0  0  0  0  0  0  0  0  0
   21.5644  -20.1312  -16.4765 C   0  0  0  0  0  0  0  0  0  0  0  0
   22.2248  -19.6732  -15.1989 C   0  0  2  0  0  0  0  0  0  0  0  0
   23.6715  -19.5907  -15.3493 N   0  0  0  0  0  0  0  0  0  0  0  0
   21.7711  -20.4781  -14.0639 C   0  0  0  0  0  0  0  0  0  0  0  0
   20.6518  -20.1333  -13.3495 O   0  0  0  0  0  0  0  0  0  0  0  0
   22.4199  -21.4975  -13.7446 O   0  0  0  0  0  0  0  0  0  0  0  0
  2  1  1  6
  3  2  1  0
  4  3  1  0
  5  4  1  0
  6  5  1  0
  6  7  1  0
  8  2  1  0
  9  8  2  0
 10  8  1  0
 11 10  1  0
 11 12  1  1
 12 13  1  0
 13 17  1  0
 14 13  2  0
 14 15  1  0
 15 16  1  0
 17 16  2  0
 18 19  2  0
 18 11  1  0
 21 20  1  6
 21 22  1  0
 22 18  1  0
 23 21  1  0
 24 23  1  0
 25 23  2  0
M  END
$$$$
