KHA.pdb
     RDKit          3D

 25 25  0  0  1  0  0  0  0  0999 V2000
   36.3853  -31.2490  -19.2983 N   0  0  0  0  0  0  0  0  0  0  0  0
   35.0898  -31.4144  -19.9109 C   0  0  1  0  0  0  0  0  0  0  0  0
   34.6900  -32.8232  -20.1534 C   0  0  0  0  0  0  0  0  0  0  0  0
   34.8245  -33.7628  -18.9963 C   0  0  0  0  0  0  0  0  0  0  0  0
   34.4203  -35.1753  -19.2558 C   0  0  0  0  0  0  0  0  0  0  0  0
   34.5238  -35.9163  -17.9075 C   0  0  0  0  0  0  0  0  0  0  0  0
   34.2780  -37.3202  -18.1614 N   0  0  0  0  0  0  0  0  0  0  0  0
   34.0963  -30.6551  -19.1162 C   0  0  0  0  0  0  0  0  0  0  0  0
   34.1578  -30.5470  -17.8638 O   0  0  0  0  0  0  0  0  0  0  0  0
   33.0155  -30.0088  -19.7588 N   0  0  0  0  0  0  0  0  0  0  0  0
   32.0074  -29.2372  -18.9967 C   0  0  1  0  0  0  0  0  0  0  0  0
   31.7639  -27.9374  -19.6660 C   0  0  0  0  0  0  0  0  0  0  0  0
   32.7780  -26.9113  -19.4236 C   0  0  0  0  0  0  0  0  0  0  0  0
   33.9010  -27.0499  -18.5965 C   0  0  0  0  0  0  0  0  0  0  0  0
   34.6117  -25.9286  -18.6019 N   0  0  0  0  0  0  0  0  0  0  0  0
   33.9954  -25.0465  -19.4082 C   0  0  0  0  0  0  0  0  0  0  0  0
   32.9045  -25.6463  -19.8904 N   0  0  0  0  0  0  0  0  0  0  0  0
   30.8515  -30.0840  -18.6929 C   0  0  0  0  0  0  0  0  0  0  0  0
   30.4208  -30.8389  -19.6380 O   0  0  0  0  0  0  0  0  0  0  0  0
   28.6049  -31.1425  -15.8333 C   0  0  0  0  0  0  0  0  0  0  0  0
   29.0272  -31.0838  -17.2812 C   0  0  2  0  0  0  0  0  0  0  0  0
   30.1505  -30.1758  -17.4700 N   0  0  0  0  0  0  0  0  0  0  0  0
   27.8757  -30.8233  -18.1463 C   0  0  0  0  0  0  0  0  0  0  0  0
   27.0185  -31.8299  -18.5121 O   0  0  0  0  0  0  0  0  0  0  0  0
   27.6753  -29.6596  -18.5561 O   0  0  0  0  0  0  0  0  0  0  0  0
  2  1  1  1
  3  2  1  0
  4  3  1  0
  5  4  1  0
  6  5  1  0
  6  7  1  0
  8  2  1  0
  9  8  2  0
 10  8  1  0
 11 10  1  0
 11 12  1  6
 12 13  1  0
 13 17  1  0
 14 13  2  0
 14 15  1  0
 15 16  1  0
 17 16  2  0
 18 19  2  0
 18 11  1  0
 21 20  1  1
 21 22  1  0
 22 18  1  0
 23 21  1  0
 24 23  1  0
 25 23  2  0
M  END
$$$$
