KHA.pdb
     RDKit          3D

 25 25  0  0  1  0  0  0  0  0999 V2000
   28.1118  -24.2180  -16.7357 N   0  0  0  0  0  0  0  0  0  0  0  0
   26.7900  -24.1178  -17.3045 C   0  0  1  0  0  0  0  0  0  0  0  0
   26.2912  -25.3599  -17.9460 C   0  0  0  0  0  0  0  0  0  0  0  0
   27.3090  -26.4211  -18.2246 C   0  0  0  0  0  0  0  0  0  0  0  0
   27.4286  -27.4934  -17.1941 C   0  0  0  0  0  0  0  0  0  0  0  0
   28.4332  -28.5240  -17.7475 C   0  0  0  0  0  0  0  0  0  0  0  0
   28.7164  -29.4693  -16.6882 N   0  0  0  0  0  0  0  0  0  0  0  0
   25.8735  -23.5888  -16.2674 C   0  0  0  0  0  0  0  0  0  0  0  0
   24.6285  -23.7713  -16.2947 O   0  0  0  0  0  0  0  0  0  0  0  0
   26.3837  -22.8400  -15.1823 N   0  0  0  0  0  0  0  0  0  0  0  0
   25.5020  -22.3287  -14.1082 C   0  0  1  0  0  0  0  0  0  0  0  0
   26.3208  -21.9252  -12.9406 C   0  0  0  0  0  0  0  0  0  0  0  0
   25.5627  -21.4996  -11.7641 C   0  0  0  0  0  0  0  0  0  0  0  0
   24.1659  -21.4290  -11.6722 C   0  0  0  0  0  0  0  0  0  0  0  0
   23.8097  -21.0036  -10.4661 N   0  0  0  0  0  0  0  0  0  0  0  0
   24.9282  -20.7885   -9.7512 C   0  0  0  0  0  0  0  0  0  0  0  0
   25.9643  -21.0883  -10.5379 N   0  0  0  0  0  0  0  0  0  0  0  0
   24.5554  -21.3548  -14.6567 C   0  0  0  0  0  0  0  0  0  0  0  0
   25.0545  -20.3214  -15.2327 O   0  0  0  0  0  0  0  0  0  0  0  0
   21.5982  -20.6950  -16.3905 C   0  0  0  0  0  0  0  0  0  0  0  0
   22.3056  -20.3277  -15.1088 C   0  0  2  0  0  0  0  0  0  0  0  0
   23.1446  -21.4198  -14.6338 N   0  0  0  0  0  0  0  0  0  0  0  0
   21.3556  -19.8105  -14.1229 C   0  0  0  0  0  0  0  0  0  0  0  0
   21.0782  -20.5023  -12.9712 O   0  0  0  0  0  0  0  0  0  0  0  0
   20.7898  -18.7174  -14.3402 O   0  0  0  0  0  0  0  0  0  0  0  0
  2  1  1  1
  3  2  1  0
  4  3  1  0
  5  4  1  0
  6  5  1  0
  6  7  1  0
  8  2  1  0
  9  8  2  0
 10  8  1  0
 11 10  1  0
 11 12  1  1
 12 13  1  0
 13 17  1  0
 14 13  2  0
 14 15  1  0
 15 16  1  0
 17 16  2  0
 18 19  2  0
 18 11  1  0
 21 20  1  6
 21 22  1  0
 22 18  1  0
 23 21  1  0
 24 23  1  0
 25 23  2  0
M  END
$$$$
