KHA.pdb
     RDKit          3D

 25 25  0  0  1  0  0  0  0  0999 V2000
   14.5487  -22.8707   -2.7222 N   0  0  0  0  0  0  0  0  0  0  0  0
   14.0542  -23.1238   -1.3910 C   0  0  1  0  0  0  0  0  0  0  0  0
   13.7823  -24.5511   -1.0875 C   0  0  0  0  0  0  0  0  0  0  0  0
   14.7983  -25.5397   -1.5674 C   0  0  0  0  0  0  0  0  0  0  0  0
   14.4456  -26.9771   -1.3792 C   0  0  0  0  0  0  0  0  0  0  0  0
   15.6271  -27.7957   -1.9378 C   0  0  0  0  0  0  0  0  0  0  0  0
   15.2602  -29.1944   -1.8680 N   0  0  0  0  0  0  0  0  0  0  0  0
   14.9754  -22.4868   -0.4209 C   0  0  0  0  0  0  0  0  0  0  0  0
   16.1289  -22.0893   -0.7297 O   0  0  0  0  0  0  0  0  0  0  0  0
   14.5758  -22.3000    0.9222 N   0  0  0  0  0  0  0  0  0  0  0  0
   15.4282  -21.5765    1.8930 C   0  0  1  0  0  0  0  0  0  0  0  0
   14.6617  -20.4596    2.4944 C   0  0  0  0  0  0  0  0  0  0  0  0
   15.3996  -19.6451    3.4597 C   0  0  0  0  0  0  0  0  0  0  0  0
   16.1017  -18.4673    3.1693 C   0  0  0  0  0  0  0  0  0  0  0  0
   16.6562  -17.9834    4.2743 N   0  0  0  0  0  0  0  0  0  0  0  0
   16.3444  -18.8042    5.2929 C   0  0  0  0  0  0  0  0  0  0  0  0
   15.5955  -19.7894    4.7920 N   0  0  0  0  0  0  0  0  0  0  0  0
   16.0821  -22.5283    2.7940 C   0  0  0  0  0  0  0  0  0  0  0  0
   15.3887  -23.5414    3.1703 O   0  0  0  0  0  0  0  0  0  0  0  0
   19.3872  -23.5172    4.2753 C   0  0  0  0  0  0  0  0  0  0  0  0
   17.8847  -23.3823    4.3244 C   0  0  2  0  0  0  0  0  0  0  0  0
   17.4001  -22.4685    3.2986 N   0  0  0  0  0  0  0  0  0  0  0  0
   17.4366  -23.0728    5.6829 C   0  0  0  0  0  0  0  0  0  0  0  0
   17.5420  -23.9940    6.6939 O   0  0  0  0  0  0  0  0  0  0  0  0
   16.9497  -21.9463    5.9197 O   0  0  0  0  0  0  0  0  0  0  0  0
  2  1  1  6
  3  2  1  0
  4  3  1  0
  5  4  1  0
  6  5  1  0
  6  7  1  0
  8  2  1  0
  9  8  2  0
 10  8  1  0
 11 10  1  0
 11 12  1  1
 12 13  1  0
 13 17  1  0
 14 13  2  0
 14 15  1  0
 15 16  1  0
 17 16  2  0
 18 19  2  0
 18 11  1  0
 21 20  1  1
 21 22  1  0
 22 18  1  0
 23 21  1  0
 24 23  1  0
 25 23  2  0
M  END
$$$$
