KHA.pdb
     RDKit          3D

 25 25  0  0  1  0  0  0  0  0999 V2000
   15.6709   -9.2788   -9.3737 N   0  0  0  0  0  0  0  0  0  0  0  0
   15.8761   -8.0030  -10.0148 C   0  0  1  0  0  0  0  0  0  0  0  0
   15.9036   -6.8393   -9.0938 C   0  0  0  0  0  0  0  0  0  0  0  0
   14.5861   -6.3986   -8.5373 C   0  0  0  0  0  0  0  0  0  0  0  0
   14.5848   -5.0819   -7.8356 C   0  0  0  0  0  0  0  0  0  0  0  0
   13.1303   -4.8206   -7.3951 C   0  0  0  0  0  0  0  0  0  0  0  0
   13.1107   -3.5624   -6.6793 N   0  0  0  0  0  0  0  0  0  0  0  0
   17.0821   -8.0980  -10.8702 C   0  0  0  0  0  0  0  0  0  0  0  0
   18.1132   -8.7362  -10.5335 O   0  0  0  0  0  0  0  0  0  0  0  0
   17.1138   -7.4555  -12.1291 N   0  0  0  0  0  0  0  0  0  0  0  0
   18.2388   -7.6489  -13.0722 C   0  0  1  0  0  0  0  0  0  0  0  0
   17.7586   -8.3560  -14.2830 C   0  0  0  0  0  0  0  0  0  0  0  0
   17.4485   -9.7733  -14.0958 C   0  0  0  0  0  0  0  0  0  0  0  0
   18.3736  -10.8255  -14.1351 C   0  0  0  0  0  0  0  0  0  0  0  0
   17.7565  -11.9825  -13.9270 N   0  0  0  0  0  0  0  0  0  0  0  0
   16.4471  -11.7323  -13.7502 C   0  0  0  0  0  0  0  0  0  0  0  0
   16.2791  -10.4120  -13.8536 N   0  0  0  0  0  0  0  0  0  0  0  0
   18.9659   -6.3901  -13.2512 C   0  0  0  0  0  0  0  0  0  0  0  0
   18.2628   -5.3173  -13.3115 O   0  0  0  0  0  0  0  0  0  0  0  0
   22.4738   -4.9901  -13.5919 C   0  0  0  0  0  0  0  0  0  0  0  0
   20.9667   -4.9075  -13.5970 C   0  0  2  0  0  0  0  0  0  0  0  0
   20.3629   -6.2119  -13.3598 N   0  0  0  0  0  0  0  0  0  0  0  0
   20.4899   -4.2202  -14.7980 C   0  0  0  0  0  0  0  0  0  0  0  0
   20.4100   -2.8516  -14.8499 O   0  0  0  0  0  0  0  0  0  0  0  0
   20.1505   -4.8985  -15.7914 O   0  0  0  0  0  0  0  0  0  0  0  0
  2  1  1  1
  3  2  1  0
  4  3  1  0
  5  4  1  0
  6  5  1  0
  6  7  1  0
  8  2  1  0
  9  8  2  0
 10  8  1  0
 11 10  1  0
 11 12  1  6
 12 13  1  0
 13 17  1  0
 14 13  2  0
 14 15  1  0
 15 16  1  0
 17 16  2  0
 18 19  2  0
 18 11  1  0
 21 20  1  6
 21 22  1  0
 22 18  1  0
 23 21  1  0
 24 23  1  0
 25 23  2  0
M  END
$$$$
