KHA.pdb
     RDKit          3D

 25 25  0  0  1  0  0  0  0  0999 V2000
   15.6124  -12.8114  -14.0732 N   0  0  0  0  0  0  0  0  0  0  0  0
   16.8850  -12.1554  -14.2488 C   0  0  1  0  0  0  0  0  0  0  0  0
   17.6688  -12.6185  -15.4211 C   0  0  0  0  0  0  0  0  0  0  0  0
   16.9331  -12.7087  -16.7213 C   0  0  0  0  0  0  0  0  0  0  0  0
   17.7000  -13.2868  -17.8631 C   0  0  0  0  0  0  0  0  0  0  0  0
   16.7308  -13.3382  -19.0615 C   0  0  0  0  0  0  0  0  0  0  0  0
   17.4308  -13.9671  -20.1617 N   0  0  0  0  0  0  0  0  0  0  0  0
   16.6614  -10.6907  -14.2390 C   0  0  0  0  0  0  0  0  0  0  0  0
   15.5494  -10.1649  -14.5051 O   0  0  0  0  0  0  0  0  0  0  0  0
   17.7217   -9.8115  -13.9209 N   0  0  0  0  0  0  0  0  0  0  0  0
   17.5564   -8.3412  -13.9802 C   0  0  1  0  0  0  0  0  0  0  0  0
   17.8378   -7.7536  -12.6490 C   0  0  0  0  0  0  0  0  0  0  0  0
   16.7707   -7.9089  -11.6605 C   0  0  0  0  0  0  0  0  0  0  0  0
   16.9008   -8.5177  -10.4047 C   0  0  0  0  0  0  0  0  0  0  0  0
   15.7391   -8.4898   -9.7625 N   0  0  0  0  0  0  0  0  0  0  0  0
   14.8384   -7.8803  -10.5535 C   0  0  0  0  0  0  0  0  0  0  0  0
   15.4677   -7.5400  -11.6806 N   0  0  0  0  0  0  0  0  0  0  0  0
   18.2733   -7.8017  -15.1380 C   0  0  0  0  0  0  0  0  0  0  0  0
   19.4975   -8.1613  -15.2817 O   0  0  0  0  0  0  0  0  0  0  0  0
   17.6646   -6.2069  -18.4682 C   0  0  0  0  0  0  0  0  0  0  0  0
   18.5544   -6.5436  -17.2965 C   0  0  2  0  0  0  0  0  0  0  0  0
   17.7723   -6.9294  -16.1296 N   0  0  0  0  0  0  0  0  0  0  0  0
   19.5243   -5.4736  -17.0585 C   0  0  0  0  0  0  0  0  0  0  0  0
   20.4270   -5.1041  -18.0231 O   0  0  0  0  0  0  0  0  0  0  0  0
   19.5249   -4.8896  -15.9535 O   0  0  0  0  0  0  0  0  0  0  0  0
  2  1  1  6
  3  2  1  0
  4  3  1  0
  5  4  1  0
  6  5  1  0
  6  7  1  0
  8  2  1  0
  9  8  2  0
 10  8  1  0
 11 10  1  0
 11 12  1  1
 12 13  1  0
 13 17  1  0
 14 13  2  0
 14 15  1  0
 15 16  1  0
 17 16  2  0
 18 19  2  0
 18 11  1  0
 21 20  1  6
 21 22  1  0
 22 18  1  0
 23 21  1  0
 24 23  1  0
 25 23  2  0
M  END
$$$$
