KHA.pdb
     RDKit          3D

 25 25  0  0  1  0  0  0  0  0999 V2000
   27.7034  -23.0298  -17.3415 N   0  0  0  0  0  0  0  0  0  0  0  0
   27.3224  -21.7009  -16.9295 C   0  0  1  0  0  0  0  0  0  0  0  0
   26.8554  -20.8175  -18.0271 C   0  0  0  0  0  0  0  0  0  0  0  0
   27.8259  -20.5649  -19.1379 C   0  0  0  0  0  0  0  0  0  0  0  0
   29.0362  -19.7713  -18.7755 C   0  0  0  0  0  0  0  0  0  0  0  0
   29.8046  -19.5184  -20.0883 C   0  0  0  0  0  0  0  0  0  0  0  0
   31.0817  -18.9322  -19.7402 N   0  0  0  0  0  0  0  0  0  0  0  0
   26.3476  -21.8168  -15.8197 C   0  0  0  0  0  0  0  0  0  0  0  0
   25.2896  -22.4930  -15.9040 O   0  0  0  0  0  0  0  0  0  0  0  0
   26.5822  -21.1515  -14.5946 N   0  0  0  0  0  0  0  0  0  0  0  0
   25.6184  -21.2259  -13.4730 C   0  0  1  0  0  0  0  0  0  0  0  0
   26.2730  -20.7747  -12.2222 C   0  0  0  0  0  0  0  0  0  0  0  0
   25.4397  -20.8442  -11.0219 C   0  0  0  0  0  0  0  0  0  0  0  0
   24.1027  -21.2625  -10.9769 C   0  0  0  0  0  0  0  0  0  0  0  0
   23.6485  -21.2030   -9.7308 N   0  0  0  0  0  0  0  0  0  0  0  0
   24.6435  -20.7570   -8.9437 C   0  0  0  0  0  0  0  0  0  0  0  0
   25.7041  -20.5477   -9.7271 N   0  0  0  0  0  0  0  0  0  0  0  0
   24.3530  -20.5952  -13.8557 C   0  0  0  0  0  0  0  0  0  0  0  0
   24.4187  -19.6238  -14.6929 O   0  0  0  0  0  0  0  0  0  0  0  0
   21.7339  -20.2928  -15.3759 C   0  0  0  0  0  0  0  0  0  0  0  0
   21.8657  -20.2297  -13.8736 C   0  0  2  0  0  0  0  0  0  0  0  0
   23.0548  -20.9352  -13.4150 N   0  0  0  0  0  0  0  0  0  0  0  0
   20.6196  -20.6429  -13.2267 C   0  0  0  0  0  0  0  0  0  0  0  0
   19.4237  -20.0489  -13.5413 O   0  0  0  0  0  0  0  0  0  0  0  0
   20.6524  -21.5546  -12.3723 O   0  0  0  0  0  0  0  0  0  0  0  0
  2  1  1  6
  3  2  1  0
  4  3  1  0
  5  4  1  0
  6  5  1  0
  6  7  1  0
  8  2  1  0
  9  8  2  0
 10  8  1  0
 11 10  1  0
 11 12  1  1
 12 13  1  0
 13 17  1  0
 14 13  2  0
 14 15  1  0
 15 16  1  0
 17 16  2  0
 18 19  2  0
 18 11  1  0
 21 20  1  6
 21 22  1  0
 22 18  1  0
 23 21  1  0
 24 23  1  0
 25 23  2  0
M  END
$$$$
