KHA.pdb
     RDKit          3D

 25 25  0  0  1  0  0  0  0  0999 V2000
   16.4022  -12.6173  -14.5646 N   0  0  0  0  0  0  0  0  0  0  0  0
   17.1758  -11.4711  -14.1538 C   0  0  1  0  0  0  0  0  0  0  0  0
   17.8942  -10.7775  -15.2520 C   0  0  0  0  0  0  0  0  0  0  0  0
   18.7948  -11.6226  -16.0974 C   0  0  0  0  0  0  0  0  0  0  0  0
   19.5046  -10.9128  -17.2011 C   0  0  0  0  0  0  0  0  0  0  0  0
   20.2106  -11.9983  -18.0385 C   0  0  0  0  0  0  0  0  0  0  0  0
   20.8247  -11.3426  -19.1737 N   0  0  0  0  0  0  0  0  0  0  0  0
   16.2975  -10.5701  -13.3715 C   0  0  0  0  0  0  0  0  0  0  0  0
   15.0509  -10.5149  -13.5356 O   0  0  0  0  0  0  0  0  0  0  0  0
   16.8484   -9.7185  -12.3867 N   0  0  0  0  0  0  0  0  0  0  0  0
   16.0087   -8.7657  -11.6254 C   0  0  1  0  0  0  0  0  0  0  0  0
   16.0503   -9.1061  -10.1835 C   0  0  0  0  0  0  0  0  0  0  0  0
   15.3041   -8.2028   -9.3076 C   0  0  0  0  0  0  0  0  0  0  0  0
   15.8452   -7.1296   -8.5866 C   0  0  0  0  0  0  0  0  0  0  0  0
   14.8913   -6.5197   -7.8932 N   0  0  0  0  0  0  0  0  0  0  0  0
   13.7301   -7.1549   -8.1309 C   0  0  0  0  0  0  0  0  0  0  0  0
   13.9920   -8.1554   -8.9752 N   0  0  0  0  0  0  0  0  0  0  0  0
   16.3260   -7.3911  -12.0193 C   0  0  0  0  0  0  0  0  0  0  0  0
   17.5594   -7.0396  -11.9568 O   0  0  0  0  0  0  0  0  0  0  0  0
   14.9918   -4.4674  -13.9153 C   0  0  0  0  0  0  0  0  0  0  0  0
   15.8705   -5.0587  -12.8399 C   0  0  2  0  0  0  0  0  0  0  0  0
   15.4296   -6.3972  -12.4708 N   0  0  0  0  0  0  0  0  0  0  0  0
   16.0134   -4.1290  -11.7186 C   0  0  0  0  0  0  0  0  0  0  0  0
   15.5698   -4.4561  -10.4623 O   0  0  0  0  0  0  0  0  0  0  0  0
   16.5506   -3.0179  -11.9159 O   0  0  0  0  0  0  0  0  0  0  0  0
  2  1  1  6
  3  2  1  0
  4  3  1  0
  5  4  1  0
  6  5  1  0
  6  7  1  0
  8  2  1  0
  9  8  2  0
 10  8  1  0
 11 10  1  0
 11 12  1  1
 12 13  1  0
 13 17  1  0
 14 13  2  0
 14 15  1  0
 15 16  1  0
 17 16  2  0
 18 19  2  0
 18 11  1  0
 21 20  1  6
 21 22  1  0
 22 18  1  0
 23 21  1  0
 24 23  1  0
 25 23  2  0
M  END
$$$$
