WTL.pdb
     RDKit          3D

 30 31  0  0  1  0  0  0  0  0999 V2000
   23.3405  -21.1771  -10.8804 N   0  0  0  0  0  0  0  0  0  0  0  0
   23.3207  -21.3830   -9.4527 C   0  0  1  0  0  0  0  0  0  0  0  0
   24.0514  -20.2904   -8.7674 C   0  0  0  0  0  0  0  0  0  0  0  0
   25.5131  -20.4910   -8.7378 C   0  0  0  0  0  0  0  0  0  0  0  0
   26.2940  -21.0537   -9.7485 C   0  0  0  0  0  0  0  0  0  0  0  0
   27.5783  -21.0319   -9.3630 N   0  0  0  0  0  0  0  0  0  0  0  0
   27.7077  -20.4766   -8.1272 C   0  0  0  0  0  0  0  0  0  0  0  0
   28.7973  -20.2450   -7.3214 C   0  0  0  0  0  0  0  0  0  0  0  0
   28.6374  -19.6662   -6.0888 C   0  0  0  0  0  0  0  0  0  0  0  0
   27.3707  -19.3245   -5.6774 C   0  0  0  0  0  0  0  0  0  0  0  0
   26.2923  -19.5652   -6.5009 C   0  0  0  0  0  0  0  0  0  0  0  0
   26.4018  -20.1435   -7.7495 C   0  0  0  0  0  0  0  0  0  0  0  0
   21.8869  -21.2866   -8.9876 C   0  0  0  0  0  0  0  0  0  0  0  0
   21.1925  -20.2713   -9.2442 O   0  0  0  0  0  0  0  0  0  0  0  0
   18.1977  -23.3704  -10.1475 C   0  0  0  0  0  0  0  0  0  0  0  0
   19.6219  -22.8915   -9.9573 C   0  0  1  0  0  0  0  0  0  0  0  0
   19.6288  -21.6127  -10.5838 O   0  0  0  0  0  0  0  0  0  0  0  0
   19.8602  -22.6389   -8.4929 C   0  0  2  0  0  0  0  0  0  0  0  0
   21.2616  -22.3181   -8.2514 N   0  0  0  0  0  0  0  0  0  0  0  0
   19.5321  -23.7970   -7.6218 C   0  0  0  0  0  0  0  0  0  0  0  0
   20.3565  -24.7834   -7.5230 O   0  0  0  0  0  0  0  0  0  0  0  0
   19.2046  -25.0641   -3.4507 C   0  0  0  0  0  0  0  0  0  0  0  0
   17.9945  -24.2277   -3.9023 C   0  0  2  0  0  0  0  0  0  0  0  0
   17.1840  -23.9214   -2.6760 C   0  0  0  0  0  0  0  0  0  0  0  0
   17.2165  -24.9635   -4.9469 C   0  0  0  0  0  0  0  0  0  0  0  0
   18.0520  -25.2008   -6.1629 C   0  0  2  0  0  0  0  0  0  0  0  0
   18.3610  -23.9454   -6.8498 N   0  0  0  0  0  0  0  0  0  0  0  0
   17.5590  -26.2216   -7.0873 C   0  0  0  0  0  0  0  0  0  0  0  0
   17.6709  -27.5792   -6.9753 O   0  0  0  0  0  0  0  0  0  0  0  0
   16.9447  -25.8149   -8.1391 O   0  0  0  0  0  0  0  0  0  0  0  0
  2  1  1  6
  2 13  1  0
  3  2  1  0
  3  4  1  0
  4 12  1  0
  4  5  2  0
  5  6  1  0
  7  6  1  0
  7  8  2  0
  9  8  1  0
 10  9  2  0
 11 12  2  0
 11 10  1  0
 12  7  1  0
 13 14  2  0
 16 15  1  1
 17 16  1  0
 18 16  1  0
 19 13  1  0
 18 19  1  6
 20 18  1  0
 20 21  2  0
 23 22  1  1
 23 25  1  0
 24 23  1  0
 26 28  1  0
 26 25  1  1
 26 27  1  0
 27 20  1  0
 28 29  1  0
 30 28  2  0
M  END
$$$$
