WTL.pdb
     RDKit          3D

 30 31  0  0  1  0  0  0  0  0999 V2000
   27.6576  -21.9081  -12.0983 N   0  0  0  0  0  0  0  0  0  0  0  0
   26.4712  -21.4154  -11.4417 C   0  0  1  0  0  0  0  0  0  0  0  0
   26.7886  -20.2004  -10.6542 C   0  0  0  0  0  0  0  0  0  0  0  0
   27.7881  -20.4335   -9.5939 C   0  0  0  0  0  0  0  0  0  0  0  0
   29.0510  -21.0054   -9.7553 C   0  0  0  0  0  0  0  0  0  0  0  0
   29.6744  -21.0149   -8.5680 N   0  0  0  0  0  0  0  0  0  0  0  0
   28.8876  -20.4722   -7.5991 C   0  0  0  0  0  0  0  0  0  0  0  0
   29.0765  -20.2710   -6.2523 C   0  0  0  0  0  0  0  0  0  0  0  0
   28.0898  -19.6984   -5.4917 C   0  0  0  0  0  0  0  0  0  0  0  0
   26.9130  -19.3320   -6.1013 C   0  0  0  0  0  0  0  0  0  0  0  0
   26.7445  -19.5425   -7.4527 C   0  0  0  0  0  0  0  0  0  0  0  0
   27.7073  -20.1133   -8.2604 C   0  0  0  0  0  0  0  0  0  0  0  0
   25.4939  -20.9819  -12.5087 C   0  0  0  0  0  0  0  0  0  0  0  0
   25.8723  -20.2904  -13.4872 O   0  0  0  0  0  0  0  0  0  0  0  0
   24.2914  -23.0210  -14.7787 C   0  0  0  0  0  0  0  0  0  0  0  0
   22.9851  -22.4032  -14.3256 C   0  0  1  0  0  0  0  0  0  0  0  0
   22.5268  -23.2978  -13.3168 O   0  0  0  0  0  0  0  0  0  0  0  0
   23.2769  -21.1025  -13.6271 C   0  0  2  0  0  0  0  0  0  0  0  0
   24.1243  -21.3270  -12.4625 N   0  0  0  0  0  0  0  0  0  0  0  0
   22.0637  -20.3956  -13.1412 C   0  0  0  0  0  0  0  0  0  0  0  0
   21.7425  -20.4493  -11.8937 O   0  0  0  0  0  0  0  0  0  0  0  0
   17.6806  -16.3242  -14.6955 C   0  0  0  0  0  0  0  0  0  0  0  0
   18.4157  -17.1004  -13.5888 C   0  0  2  0  0  0  0  0  0  0  0  0
   18.6943  -16.1310  -12.4766 C   0  0  0  0  0  0  0  0  0  0  0  0
   19.6562  -17.7330  -14.1355 C   0  0  0  0  0  0  0  0  0  0  0  0
   20.0283  -18.9443  -13.3436 C   0  0  2  0  0  0  0  0  0  0  0  0
   21.1796  -19.6317  -13.9313 N   0  0  0  0  0  0  0  0  0  0  0  0
   18.9366  -19.8696  -13.0407 C   0  0  0  0  0  0  0  0  0  0  0  0
   18.1349  -19.8876  -11.9339 O   0  0  0  0  0  0  0  0  0  0  0  0
   18.6847  -20.7848  -13.9055 O   0  0  0  0  0  0  0  0  0  0  0  0
  2  1  1  6
  2 13  1  0
  3  2  1  0
  3  4  1  0
  4 12  1  0
  4  5  2  0
  5  6  1  0
  7  6  1  0
  7  8  2  0
  9  8  1  0
 10  9  2  0
 11 12  2  0
 11 10  1  0
 12  7  1  0
 13 14  2  0
 16 15  1  1
 17 16  1  0
 18 16  1  0
 19 13  1  0
 18 19  1  1
 20 18  1  0
 20 21  2  0
 23 22  1  6
 23 25  1  0
 24 23  1  0
 26 28  1  0
 26 25  1  6
 26 27  1  0
 27 20  1  0
 28 29  1  0
 30 28  2  0
M  END
$$$$
