WTL.pdb
     RDKit          3D

 30 31  0  0  1  0  0  0  0  0999 V2000
   28.3110  -21.1563  -11.1430 N   0  0  0  0  0  0  0  0  0  0  0  0
   27.0356  -21.4419  -10.5323 C   0  0  1  0  0  0  0  0  0  0  0  0
   26.8416  -20.5953   -9.3311 C   0  0  0  0  0  0  0  0  0  0  0  0
   27.9293  -20.7228   -8.3420 C   0  0  0  0  0  0  0  0  0  0  0  0
   29.1497  -21.3733   -8.5301 C   0  0  0  0  0  0  0  0  0  0  0  0
   29.8834  -21.2431   -7.4151 N   0  0  0  0  0  0  0  0  0  0  0  0
   29.2130  -20.5290   -6.4701 C   0  0  0  0  0  0  0  0  0  0  0  0
   29.5373  -20.1463   -5.1901 C   0  0  0  0  0  0  0  0  0  0  0  0
   28.6491  -19.4226   -4.4368 C   0  0  0  0  0  0  0  0  0  0  0  0
   27.4331  -19.0900   -4.9856 C   0  0  0  0  0  0  0  0  0  0  0  0
   27.1283  -19.4836   -6.2706 C   0  0  0  0  0  0  0  0  0  0  0  0
   27.9883  -20.2111   -7.0685 C   0  0  0  0  0  0  0  0  0  0  0  0
   25.9525  -21.0440  -11.5069 C   0  0  0  0  0  0  0  0  0  0  0  0
   25.8410  -19.8547  -11.8969 O   0  0  0  0  0  0  0  0  0  0  0  0
   23.4739  -22.4028  -15.4178 C   0  0  0  0  0  0  0  0  0  0  0  0
   24.2175  -22.8110  -14.1632 C   0  0  1  0  0  0  0  0  0  0  0  0
   25.5575  -22.9847  -14.6129 O   0  0  0  0  0  0  0  0  0  0  0  0
   24.2456  -21.6454  -13.2116 C   0  0  2  0  0  0  0  0  0  0  0  0
   25.0229  -21.9748  -12.0232 N   0  0  0  0  0  0  0  0  0  0  0  0
   22.9021  -21.2231  -12.7382 C   0  0  0  0  0  0  0  0  0  0  0  0
   22.6129  -21.2817  -11.4831 O   0  0  0  0  0  0  0  0  0  0  0  0
   20.2222  -18.4837  -10.7546 C   0  0  0  0  0  0  0  0  0  0  0  0
   20.8224  -18.1069  -12.1204 C   0  0  2  0  0  0  0  0  0  0  0  0
   20.5779  -16.6394  -12.3232 C   0  0  0  0  0  0  0  0  0  0  0  0
   20.2250  -18.9524  -13.2004 C   0  0  0  0  0  0  0  0  0  0  0  0
   20.5475  -20.3954  -12.9849 C   0  0  2  0  0  0  0  0  0  0  0  0
   21.8542  -20.7389  -13.5487 N   0  0  0  0  0  0  0  0  0  0  0  0
   19.5126  -21.3480  -13.3863 C   0  0  0  0  0  0  0  0  0  0  0  0
   19.5707  -22.2780  -14.3863 O   0  0  0  0  0  0  0  0  0  0  0  0
   18.4065  -21.3240  -12.7343 O   0  0  0  0  0  0  0  0  0  0  0  0
  2  1  1  6
  2 13  1  0
  3  2  1  0
  3  4  1  0
  4 12  1  0
  4  5  2  0
  5  6  1  0
  7  6  1  0
  7  8  2  0
  9  8  1  0
 10  9  2  0
 11 12  2  0
 11 10  1  0
 12  7  1  0
 13 14  2  0
 16 15  1  6
 17 16  1  0
 18 16  1  0
 19 13  1  0
 18 19  1  1
 20 18  1  0
 20 21  2  0
 23 22  1  1
 23 25  1  0
 24 23  1  0
 26 28  1  0
 26 25  1  6
 26 27  1  0
 27 20  1  0
 28 29  1  0
 30 28  2  0
M  END
$$$$
