WTL.pdb
     RDKit          3D

 30 31  0  0  1  0  0  0  0  0999 V2000
   22.8993  -20.9338  -15.8276 N   0  0  0  0  0  0  0  0  0  0  0  0
   23.6219  -20.3267  -14.7364 C   0  0  1  0  0  0  0  0  0  0  0  0
   22.6780  -19.8648  -13.6909 C   0  0  0  0  0  0  0  0  0  0  0  0
   21.5754  -19.0391  -14.2199 C   0  0  0  0  0  0  0  0  0  0  0  0
   20.2095  -19.2824  -14.0671 C   0  0  0  0  0  0  0  0  0  0  0  0
   19.5268  -18.2915  -14.6592 N   0  0  0  0  0  0  0  0  0  0  0  0
   20.3717  -17.3790  -15.2122 C   0  0  0  0  0  0  0  0  0  0  0  0
   20.1550  -16.2188  -15.9172 C   0  0  0  0  0  0  0  0  0  0  0  0
   21.2138  -15.4795  -16.3779 C   0  0  0  0  0  0  0  0  0  0  0  0
   22.4905  -15.9210  -16.1218 C   0  0  0  0  0  0  0  0  0  0  0  0
   22.6853  -17.0867  -15.4131 C   0  0  0  0  0  0  0  0  0  0  0  0
   21.6533  -17.8643  -14.9276 C   0  0  0  0  0  0  0  0  0  0  0  0
   24.4751  -21.3934  -14.0917 C   0  0  0  0  0  0  0  0  0  0  0  0
   24.5068  -22.5611  -14.5546 O   0  0  0  0  0  0  0  0  0  0  0  0
   27.6963  -19.4507  -13.0381 C   0  0  0  0  0  0  0  0  0  0  0  0
   27.5644  -20.8080  -13.6968 C   0  0  1  0  0  0  0  0  0  0  0  0
   28.8583  -21.3813  -13.5382 O   0  0  0  0  0  0  0  0  0  0  0  0
   26.6295  -21.6582  -12.8795 C   0  0  2  0  0  0  0  0  0  0  0  0
   25.2701  -21.1369  -12.9518 N   0  0  0  0  0  0  0  0  0  0  0  0
   26.9834  -21.7263  -11.4382 C   0  0  0  0  0  0  0  0  0  0  0  0
   26.7752  -22.8115  -10.7737 O   0  0  0  0  0  0  0  0  0  0  0  0
   28.4297  -20.0496   -6.3194 C   0  0  0  0  0  0  0  0  0  0  0  0
   27.5896  -19.1473   -7.2401 C   0  0  2  0  0  0  0  0  0  0  0  0
   26.1460  -19.4621   -6.9734 C   0  0  0  0  0  0  0  0  0  0  0  0
   27.9784  -19.3591   -8.6690 C   0  0  0  0  0  0  0  0  0  0  0  0
   27.2201  -20.5019   -9.2622 C   0  0  2  0  0  0  0  0  0  0  0  0
   27.5524  -20.6846  -10.6763 N   0  0  0  0  0  0  0  0  0  0  0  0
   25.7747  -20.4944   -9.0379 C   0  0  0  0  0  0  0  0  0  0  0  0
   25.0479  -21.3164   -8.2230 O   0  0  0  0  0  0  0  0  0  0  0  0
   25.0855  -19.6180   -9.6751 O   0  0  0  0  0  0  0  0  0  0  0  0
  2  1  1  6
  2 13  1  0
  3  2  1  0
  3  4  1  0
  4 12  1  0
  4  5  2  0
  5  6  1  0
  7  6  1  0
  7  8  2  0
  9  8  1  0
 10  9  2  0
 11 12  2  0
 11 10  1  0
 12  7  1  0
 13 14  2  0
 16 15  1  1
 17 16  1  0
 18 16  1  0
 19 13  1  0
 18 19  1  1
 20 18  1  0
 20 21  2  0
 23 22  1  1
 23 25  1  0
 24 23  1  0
 26 28  1  0
 26 25  1  6
 26 27  1  0
 27 20  1  0
 28 29  1  0
 30 28  2  0
M  END
$$$$
