WTL.pdb
     RDKit          3D

 30 31  0  0  1  0  0  0  0  0999 V2000
   23.6154  -20.1120  -16.4922 N   0  0  0  0  0  0  0  0  0  0  0  0
   24.0882  -19.2704  -15.4200 C   0  0  1  0  0  0  0  0  0  0  0  0
   22.9741  -18.9376  -14.5006 C   0  0  0  0  0  0  0  0  0  0  0  0
   21.9058  -18.1433  -15.1374 C   0  0  0  0  0  0  0  0  0  0  0  0
   20.5515  -18.4745  -15.2014 C   0  0  0  0  0  0  0  0  0  0  0  0
   19.8960  -17.4873  -15.8293 N   0  0  0  0  0  0  0  0  0  0  0  0
   20.7486  -16.4927  -16.1985 C   0  0  0  0  0  0  0  0  0  0  0  0
   20.5580  -15.3025  -16.8596 C   0  0  0  0  0  0  0  0  0  0  0  0
   21.6202  -14.4743  -17.1162 C   0  0  0  0  0  0  0  0  0  0  0  0
   22.8737  -14.8577  -16.7011 C   0  0  0  0  0  0  0  0  0  0  0  0
   23.0424  -16.0549  -16.0399 C   0  0  0  0  0  0  0  0  0  0  0  0
   22.0058  -16.9213  -15.7571 C   0  0  0  0  0  0  0  0  0  0  0  0
   25.0817  -20.0659  -14.6066 C   0  0  0  0  0  0  0  0  0  0  0  0
   25.1257  -21.3190  -14.6881 O   0  0  0  0  0  0  0  0  0  0  0  0
   29.1842  -20.7050  -12.1852 C   0  0  0  0  0  0  0  0  0  0  0  0
   28.2797  -19.7393  -12.9222 C   0  0  1  0  0  0  0  0  0  0  0  0
   28.7132  -19.8444  -14.2746 O   0  0  0  0  0  0  0  0  0  0  0  0
   26.8720  -20.2709  -12.8938 C   0  0  2  0  0  0  0  0  0  0  0  0
   25.9996  -19.4510  -13.7255 N   0  0  0  0  0  0  0  0  0  0  0  0
   26.2663  -20.2968  -11.5374 C   0  0  0  0  0  0  0  0  0  0  0  0
   25.4109  -19.3945  -11.1959 O   0  0  0  0  0  0  0  0  0  0  0  0
   28.2471  -21.4526   -7.5403 C   0  0  0  0  0  0  0  0  0  0  0  0
   27.7449  -20.1872   -8.2575 C   0  0  2  0  0  0  0  0  0  0  0  0
   28.2800  -19.0060   -7.5008 C   0  0  0  0  0  0  0  0  0  0  0  0
   26.2513  -20.1976   -8.3424 C   0  0  0  0  0  0  0  0  0  0  0  0
   25.7796  -21.2651   -9.2756 C   0  0  2  0  0  0  0  0  0  0  0  0
   26.5342  -21.2471  -10.5301 N   0  0  0  0  0  0  0  0  0  0  0  0
   24.3364  -21.3187   -9.5077 C   0  0  0  0  0  0  0  0  0  0  0  0
   23.6843  -21.5500  -10.6864 O   0  0  0  0  0  0  0  0  0  0  0  0
   23.5706  -21.1264   -8.4950 O   0  0  0  0  0  0  0  0  0  0  0  0
  2  1  1  6
  2 13  1  0
  3  2  1  0
  3  4  1  0
  4 12  1  0
  4  5  2  0
  5  6  1  0
  7  6  1  0
  7  8  2  0
  9  8  1  0
 10  9  2  0
 11 12  2  0
 11 10  1  0
 12  7  1  0
 13 14  2  0
 16 15  1  1
 17 16  1  0
 18 16  1  0
 19 13  1  0
 18 19  1  6
 20 18  1  0
 20 21  2  0
 23 22  1  1
 23 25  1  0
 24 23  1  0
 26 28  1  0
 26 25  1  6
 26 27  1  0
 27 20  1  0
 28 29  1  0
 30 28  2  0
M  END
$$$$
