SSP.pdb
     RDKit          3D

 20 20  0  0  1  0  0  0  0  0999 V2000
   37.8773  -28.8539    1.1265 O   0  0  0  0  0  0  0  0  0  0  0  0
   38.2487  -29.7566    2.1385 C   0  0  0  0  0  0  0  0  0  0  0  0
   36.9687  -30.2157    2.7924 C   0  0  2  0  0  0  0  0  0  0  0  0
   36.0088  -30.6433    1.8287 N   0  0  0  0  0  0  0  0  0  0  0  0
   36.3744  -29.1800    3.6651 C   0  0  0  0  0  0  0  0  0  0  0  0
   35.3534  -28.5829    3.2454 O   0  0  0  0  0  0  0  0  0  0  0  0
   35.6508  -27.4653    8.0397 O   0  0  0  0  0  0  0  0  0  0  0  0
   36.1693  -28.3785    7.1251 C   0  0  0  0  0  0  0  0  0  0  0  0
   36.2000  -27.7704    5.7190 C   0  0  2  0  0  0  0  0  0  0  0  0
   36.8737  -28.8226    4.9245 N   0  0  0  0  0  0  0  0  0  0  0  0
   36.9440  -26.5149    5.6449 C   0  0  0  0  0  0  0  0  0  0  0  0
   38.2166  -26.6334    5.4944 O   0  0  0  0  0  0  0  0  0  0  0  0
   36.3623  -25.2254    5.7248 N   0  0  0  0  0  0  0  0  0  0  0  0
   34.8862  -25.0947    5.7363 C   0  0  0  0  0  0  0  0  0  0  0  0
   34.7133  -23.7580    6.4181 C   0  0  0  0  0  0  0  0  0  0  0  0
   35.7873  -22.9558    5.6928 C   0  0  0  0  0  0  0  0  0  0  0  0
   36.9593  -23.9284    5.8234 C   0  0  1  0  0  0  0  0  0  0  0  0
   37.6038  -23.6864    7.1320 C   0  0  0  0  0  0  0  0  0  0  0  0
   37.3871  -24.4753    8.0739 O   0  0  0  0  0  0  0  0  0  0  0  0
   38.4399  -22.6101    7.3409 O   0  0  0  0  0  0  0  0  0  0  0  0
  2  1  1  0
  3  5  1  0
  3  2  1  0
  3  4  1  6
  5  6  2  0
  7  8  1  0
  9  8  1  1
 10  9  1  0
 10  5  1  0
 11 12  2  0
 11  9  1  0
 13 11  1  0
 14 13  1  0
 14 15  1  0
 16 17  1  0
 16 15  1  0
 17 13  1  0
 17 18  1  1
 18 20  1  0
 19 18  2  0
M  END
$$$$
