SSP.pdb
     RDKit          3D

 20 20  0  0  1  0  0  0  0  0999 V2000
   14.2573  -10.6150  -11.0040 O   0  0  0  0  0  0  0  0  0  0  0  0
   15.3564  -10.5256  -11.8764 C   0  0  0  0  0  0  0  0  0  0  0  0
   15.4766   -9.0725  -12.2647 C   0  0  2  0  0  0  0  0  0  0  0  0
   14.4460   -8.6822  -13.1694 N   0  0  0  0  0  0  0  0  0  0  0  0
   16.7988   -8.7471  -12.8418 C   0  0  0  0  0  0  0  0  0  0  0  0
   17.8132   -8.9939  -12.1452 O   0  0  0  0  0  0  0  0  0  0  0  0
   18.0968   -9.2606  -16.5573 O   0  0  0  0  0  0  0  0  0  0  0  0
   18.1984   -7.9437  -16.1163 C   0  0  0  0  0  0  0  0  0  0  0  0
   18.3635   -7.8994  -14.5936 C   0  0  2  0  0  0  0  0  0  0  0  0
   16.9934   -8.1836  -14.1098 N   0  0  0  0  0  0  0  0  0  0  0  0
   18.8259   -6.6053  -14.0967 C   0  0  0  0  0  0  0  0  0  0  0  0
   17.9323   -5.6807  -14.0446 O   0  0  0  0  0  0  0  0  0  0  0  0
   20.1522   -6.3258  -13.6836 N   0  0  0  0  0  0  0  0  0  0  0  0
   21.1336   -7.4326  -13.5966 C   0  0  0  0  0  0  0  0  0  0  0  0
   22.4372   -6.6836  -13.7410 C   0  0  0  0  0  0  0  0  0  0  0  0
   22.1650   -5.5069  -12.8114 C   0  0  0  0  0  0  0  0  0  0  0  0
   20.7860   -5.0936  -13.3256 C   0  0  1  0  0  0  0  0  0  0  0  0
   20.9860   -4.1897  -14.4786 C   0  0  0  0  0  0  0  0  0  0  0  0
   20.9124   -4.6511  -15.6355 O   0  0  0  0  0  0  0  0  0  0  0  0
   21.2522   -2.8474  -14.3105 O   0  0  0  0  0  0  0  0  0  0  0  0
  2  1  1  0
  3  5  1  0
  3  2  1  0
  3  4  1  6
  5  6  2  0
  7  8  1  0
  9  8  1  6
 10  9  1  0
 10  5  1  0
 11 12  2  0
 11  9  1  0
 13 11  1  0
 14 13  1  0
 14 15  1  0
 16 17  1  0
 16 15  1  0
 17 13  1  0
 17 18  1  6
 18 20  1  0
 19 18  2  0
M  END
$$$$
