SSP.pdb
     RDKit          3D

 20 20  0  0  1  0  0  0  0  0999 V2000
   20.2748  -14.4081  -17.8332 O   0  0  0  0  0  0  0  0  0  0  0  0
   19.6342  -13.1589  -17.9107 C   0  0  0  0  0  0  0  0  0  0  0  0
   19.4723  -12.6728  -16.4915 C   0  0  2  0  0  0  0  0  0  0  0  0
   18.4262  -13.3650  -15.8138 N   0  0  0  0  0  0  0  0  0  0  0  0
   19.2392  -11.2144  -16.4145 C   0  0  0  0  0  0  0  0  0  0  0  0
   18.2684  -10.7466  -17.0579 O   0  0  0  0  0  0  0  0  0  0  0  0
   17.9366   -7.6226  -14.5095 O   0  0  0  0  0  0  0  0  0  0  0  0
   18.3449   -8.9172  -14.8205 C   0  0  0  0  0  0  0  0  0  0  0  0
   19.6616   -8.8905  -15.6038 C   0  0  2  0  0  0  0  0  0  0  0  0
   20.0272  -10.3236  -15.6737 N   0  0  0  0  0  0  0  0  0  0  0  0
   20.7151   -8.1231  -14.9433 C   0  0  0  0  0  0  0  0  0  0  0  0
   21.1543   -8.6205  -13.8406 O   0  0  0  0  0  0  0  0  0  0  0  0
   21.2589   -6.9098  -15.4334 N   0  0  0  0  0  0  0  0  0  0  0  0
   20.7145   -6.3220  -16.6801 C   0  0  0  0  0  0  0  0  0  0  0  0
   21.0811   -4.8672  -16.5053 C   0  0  0  0  0  0  0  0  0  0  0  0
   22.5139   -5.0184  -16.0080 C   0  0  0  0  0  0  0  0  0  0  0  0
   22.2924   -6.0654  -14.9165 C   0  0  1  0  0  0  0  0  0  0  0  0
   21.8951   -5.3545  -13.6823 C   0  0  0  0  0  0  0  0  0  0  0  0
   20.6853   -5.2695  -13.3897 O   0  0  0  0  0  0  0  0  0  0  0  0
   22.8272   -4.7813  -12.8434 O   0  0  0  0  0  0  0  0  0  0  0  0
  2  1  1  0
  3  5  1  0
  3  2  1  0
  3  4  1  6
  5  6  2  0
  7  8  1  0
  9  8  1  1
 10  9  1  0
 10  5  1  0
 11 12  2  0
 11  9  1  0
 13 11  1  0
 14 13  1  0
 14 15  1  0
 16 17  1  0
 16 15  1  0
 17 13  1  0
 17 18  1  1
 18 20  1  0
 19 18  2  0
M  END
$$$$
