SSP.pdb
     RDKit          3D

 20 20  0  0  1  0  0  0  0  0999 V2000
   19.6671  -13.5552  -19.1104 O   0  0  0  0  0  0  0  0  0  0  0  0
   20.4546  -14.7027  -19.3104 C   0  0  0  0  0  0  0  0  0  0  0  0
   21.7043  -14.2449  -20.0211 C   0  0  2  0  0  0  0  0  0  0  0  0
   22.5327  -15.3448  -20.3913 N   0  0  0  0  0  0  0  0  0  0  0  0
   22.4868  -13.2750  -19.2246 C   0  0  0  0  0  0  0  0  0  0  0  0
   23.0832  -13.7057  -18.2077 O   0  0  0  0  0  0  0  0  0  0  0  0
   24.5922   -8.9591  -18.9084 O   0  0  0  0  0  0  0  0  0  0  0  0
   23.8620   -9.9241  -19.5974 C   0  0  0  0  0  0  0  0  0  0  0  0
   23.3807  -11.0181  -18.6386 C   0  0  2  0  0  0  0  0  0  0  0  0
   22.6061  -11.9125  -19.5287 N   0  0  0  0  0  0  0  0  0  0  0  0
   22.5374  -10.5133  -17.5572 C   0  0  0  0  0  0  0  0  0  0  0  0
   21.3283  -10.2222  -17.8877 O   0  0  0  0  0  0  0  0  0  0  0  0
   22.9625  -10.3360  -16.2172 N   0  0  0  0  0  0  0  0  0  0  0  0
   24.3136  -10.7951  -15.8177 C   0  0  0  0  0  0  0  0  0  0  0  0
   24.5797   -9.9197  -14.6159 C   0  0  0  0  0  0  0  0  0  0  0  0
   23.2325  -10.0291  -13.9116 C   0  0  0  0  0  0  0  0  0  0  0  0
   22.3065   -9.7405  -15.0932 C   0  0  1  0  0  0  0  0  0  0  0  0
   22.1712   -8.2729  -15.2133 C   0  0  0  0  0  0  0  0  0  0  0  0
   21.4523   -7.6580  -14.3999 O   0  0  0  0  0  0  0  0  0  0  0  0
   22.8192   -7.5632  -16.2019 O   0  0  0  0  0  0  0  0  0  0  0  0
  2  1  1  0
  3  5  1  0
  3  2  1  0
  3  4  1  1
  5  6  2  0
  7  8  1  0
  9  8  1  6
 10  9  1  0
 10  5  1  0
 11 12  2  0
 11  9  1  0
 13 11  1  0
 14 13  1  0
 14 15  1  0
 16 17  1  0
 16 15  1  0
 17 13  1  0
 17 18  1  6
 18 20  1  0
 19 18  2  0
M  END
$$$$
