SSP.pdb
     RDKit          3D

 20 20  0  0  1  0  0  0  0  0999 V2000
   13.0269  -22.3239    2.7744 O   0  0  0  0  0  0  0  0  0  0  0  0
   14.3453  -22.0903    3.2038 C   0  0  0  0  0  0  0  0  0  0  0  0
   14.9294  -21.0722    2.2557 C   0  0  2  0  0  0  0  0  0  0  0  0
   15.1866  -21.6354    0.9713 N   0  0  0  0  0  0  0  0  0  0  0  0
   16.1612  -20.4467    2.7836 C   0  0  0  0  0  0  0  0  0  0  0  0
   17.2529  -21.0142    2.5359 O   0  0  0  0  0  0  0  0  0  0  0  0
   16.0985  -16.8917    4.7290 O   0  0  0  0  0  0  0  0  0  0  0  0
   17.2437  -17.2156    4.0060 C   0  0  0  0  0  0  0  0  0  0  0  0
   17.4807  -18.7293    4.0268 C   0  0  2  0  0  0  0  0  0  0  0  0
   16.1902  -19.2670    3.5389 N   0  0  0  0  0  0  0  0  0  0  0  0
   17.7849  -19.2516    5.3572 C   0  0  0  0  0  0  0  0  0  0  0  0
   16.7651  -19.5847    6.0679 O   0  0  0  0  0  0  0  0  0  0  0  0
   19.0908  -19.4066    5.8848 N   0  0  0  0  0  0  0  0  0  0  0  0
   20.2610  -19.1660    5.0079 C   0  0  0  0  0  0  0  0  0  0  0  0
   21.3284  -18.8349    6.0240 C   0  0  0  0  0  0  0  0  0  0  0  0
   21.0522  -19.9231    7.0548 C   0  0  0  0  0  0  0  0  0  0  0  0
   19.5395  -19.7561    7.1981 C   0  0  1  0  0  0  0  0  0  0  0  0
   19.2949  -18.6919    8.1952 C   0  0  0  0  0  0  0  0  0  0  0  0
   19.0208  -17.5397    7.8029 O   0  0  0  0  0  0  0  0  0  0  0  0
   19.3614  -18.9382    9.5502 O   0  0  0  0  0  0  0  0  0  0  0  0
  2  1  1  0
  3  5  1  0
  3  2  1  0
  3  4  1  6
  5  6  2  0
  7  8  1  0
  9  8  1  1
 10  9  1  0
 10  5  1  0
 11 12  2  0
 11  9  1  0
 13 11  1  0
 14 13  1  0
 14 15  1  0
 16 17  1  0
 16 15  1  0
 17 13  1  0
 17 18  1  1
 18 20  1  0
 19 18  2  0
M  END
$$$$
