SSP.pdb
     RDKit          3D

 20 20  0  0  1  0  0  0  0  0999 V2000
   14.1902  -12.8396    5.8067 O   0  0  0  0  0  0  0  0  0  0  0  0
   15.3891  -13.1871    6.4540 C   0  0  0  0  0  0  0  0  0  0  0  0
   16.4521  -13.2409    5.3846 C   0  0  2  0  0  0  0  0  0  0  0  0
   16.1951  -14.2758    4.4380 N   0  0  0  0  0  0  0  0  0  0  0  0
   17.8118  -13.4008    5.9440 C   0  0  0  0  0  0  0  0  0  0  0  0
   18.3791  -14.5089    5.7838 O   0  0  0  0  0  0  0  0  0  0  0  0
   21.6880  -11.3317    7.9744 O   0  0  0  0  0  0  0  0  0  0  0  0
   20.3979  -11.2651    7.4544 C   0  0  0  0  0  0  0  0  0  0  0  0
   19.8604  -12.6719    7.1720 C   0  0  2  0  0  0  0  0  0  0  0  0
   18.5061  -12.4012    6.6381 N   0  0  0  0  0  0  0  0  0  0  0  0
   19.7841  -13.5148    8.3633 C   0  0  0  0  0  0  0  0  0  0  0  0
   18.7857  -13.2843    9.1418 O   0  0  0  0  0  0  0  0  0  0  0  0
   20.7126  -14.5332    8.6929 N   0  0  0  0  0  0  0  0  0  0  0  0
   21.7956  -14.8648    7.7372 C   0  0  0  0  0  0  0  0  0  0  0  0
   22.8277  -15.4702    8.6589 C   0  0  0  0  0  0  0  0  0  0  0  0
   21.9279  -16.3618    9.5065 C   0  0  0  0  0  0  0  0  0  0  0  0
   20.8346  -15.3533    9.8594 C   0  0  1  0  0  0  0  0  0  0  0  0
   21.2816  -14.6009   11.0513 C   0  0  0  0  0  0  0  0  0  0  0  0
   21.7189  -13.4408   10.9117 O   0  0  0  0  0  0  0  0  0  0  0  0
   21.2283  -15.1472   12.3161 O   0  0  0  0  0  0  0  0  0  0  0  0
  2  1  1  0
  3  5  1  0
  3  2  1  0
  3  4  1  6
  5  6  2  0
  7  8  1  0
  9  8  1  1
 10  9  1  0
 10  5  1  0
 11 12  2  0
 11  9  1  0
 13 11  1  0
 14 13  1  0
 14 15  1  0
 16 17  1  0
 16 15  1  0
 17 13  1  0
 17 18  1  1
 18 20  1  0
 19 18  2  0
M  END
$$$$
