SSP.pdb
     RDKit          3D

 20 20  0  0  1  0  0  0  0  0999 V2000
   19.7450  -10.5095  -18.8500 O   0  0  0  0  0  0  0  0  0  0  0  0
   20.7966  -11.2182  -18.2427 C   0  0  0  0  0  0  0  0  0  0  0  0
   20.3558  -11.5091  -16.8293 C   0  0  2  0  0  0  0  0  0  0  0  0
   19.2056  -12.3512  -16.7991 N   0  0  0  0  0  0  0  0  0  0  0  0
   20.0953  -10.2783  -16.0517 C   0  0  0  0  0  0  0  0  0  0  0  0
   18.9030   -9.9021  -15.9419 O   0  0  0  0  0  0  0  0  0  0  0  0
   21.5160   -7.1151  -12.7589 O   0  0  0  0  0  0  0  0  0  0  0  0
   21.6876   -8.2644  -13.5263 C   0  0  0  0  0  0  0  0  0  0  0  0
   20.7226   -8.2634  -14.7165 C   0  0  2  0  0  0  0  0  0  0  0  0
   21.0875   -9.5074  -15.4318 N   0  0  0  0  0  0  0  0  0  0  0  0
   20.8794   -7.1031  -15.5908 C   0  0  0  0  0  0  0  0  0  0  0  0
   21.9249   -7.1123  -16.3411 O   0  0  0  0  0  0  0  0  0  0  0  0
   19.9769   -6.0126  -15.6554 N   0  0  0  0  0  0  0  0  0  0  0  0
   18.6860   -6.0952  -14.9322 C   0  0  0  0  0  0  0  0  0  0  0  0
   18.3580   -4.6328  -14.7453 C   0  0  0  0  0  0  0  0  0  0  0  0
   18.6989   -4.1104  -16.1360 C   0  0  0  0  0  0  0  0  0  0  0  0
   20.0783   -4.7451  -16.3123 C   0  0  1  0  0  0  0  0  0  0  0  0
   21.0723   -3.8471  -15.6862 C   0  0  0  0  0  0  0  0  0  0  0  0
   21.3790   -2.7823  -16.2596 O   0  0  0  0  0  0  0  0  0  0  0  0
   21.6714   -4.1545  -14.4830 O   0  0  0  0  0  0  0  0  0  0  0  0
  2  1  1  0
  3  5  1  0
  3  2  1  0
  3  4  1  6
  5  6  2  0
  7  8  1  0
  9  8  1  1
 10  9  1  0
 10  5  1  0
 11 12  2  0
 11  9  1  0
 13 11  1  0
 14 13  1  0
 14 15  1  0
 16 17  1  0
 16 15  1  0
 17 13  1  0
 17 18  1  1
 18 20  1  0
 19 18  2  0
M  END
$$$$
