SSP.pdb
     RDKit          3D

 20 20  0  0  1  0  0  0  0  0999 V2000
   23.0061  -20.2251  -10.9846 O   0  0  0  0  0  0  0  0  0  0  0  0
   23.6268  -21.4561  -10.7083 C   0  0  0  0  0  0  0  0  0  0  0  0
   24.9599  -21.1312  -10.0808 C   0  0  2  0  0  0  0  0  0  0  0  0
   24.8048  -20.4671   -8.8286 N   0  0  0  0  0  0  0  0  0  0  0  0
   25.8245  -20.3260  -10.9704 C   0  0  0  0  0  0  0  0  0  0  0  0
   26.8595  -19.8203  -10.4724 O   0  0  0  0  0  0  0  0  0  0  0  0
   28.0677  -21.9582  -14.1433 O   0  0  0  0  0  0  0  0  0  0  0  0
   27.0917  -21.6569  -13.1969 C   0  0  0  0  0  0  0  0  0  0  0  0
   26.6596  -20.1920  -13.3200 C   0  0  2  0  0  0  0  0  0  0  0  0
   25.5657  -20.0912  -12.3273 N   0  0  0  0  0  0  0  0  0  0  0  0
   26.1775  -19.8385  -14.6534 C   0  0  0  0  0  0  0  0  0  0  0  0
   25.2473  -20.5929  -15.1241 O   0  0  0  0  0  0  0  0  0  0  0  0
   26.6590  -18.7514  -15.4244 N   0  0  0  0  0  0  0  0  0  0  0  0
   27.8403  -17.9925  -14.9504 C   0  0  0  0  0  0  0  0  0  0  0  0
   28.3571  -17.4115  -16.2452 C   0  0  0  0  0  0  0  0  0  0  0  0
   27.0443  -16.9442  -16.8625 C   0  0  0  0  0  0  0  0  0  0  0  0
   26.2112  -18.2116  -16.6720 C   0  0  1  0  0  0  0  0  0  0  0  0
   26.4800  -19.1056  -17.8187 C   0  0  0  0  0  0  0  0  0  0  0  0
   27.2571  -20.0704  -17.6711 O   0  0  0  0  0  0  0  0  0  0  0  0
   25.8940  -18.9022  -19.0501 O   0  0  0  0  0  0  0  0  0  0  0  0
  2  1  1  0
  3  5  1  0
  3  2  1  0
  3  4  1  1
  5  6  2  0
  7  8  1  0
  9  8  1  6
 10  9  1  0
 10  5  1  0
 11 12  2  0
 11  9  1  0
 13 11  1  0
 14 13  1  0
 14 15  1  0
 16 17  1  0
 16 15  1  0
 17 13  1  0
 17 18  1  6
 18 20  1  0
 19 18  2  0
M  END
$$$$
