SSP.pdb
     RDKit          3D

 20 20  0  0  1  0  0  0  0  0999 V2000
   19.7543  -29.6647  -11.0190 O   0  0  0  0  0  0  0  0  0  0  0  0
   19.4313  -29.1190  -12.2739 C   0  0  0  0  0  0  0  0  0  0  0  0
   20.2797  -27.8814  -12.4329 C   0  0  2  0  0  0  0  0  0  0  0  0
   21.6715  -28.1901  -12.4073 N   0  0  0  0  0  0  0  0  0  0  0  0
   19.9768  -26.8515  -11.4157 C   0  0  0  0  0  0  0  0  0  0  0  0
   20.6866  -26.8308  -10.3809 O   0  0  0  0  0  0  0  0  0  0  0  0
   16.9148  -24.1485  -11.8242 O   0  0  0  0  0  0  0  0  0  0  0  0
   18.0777  -23.7468  -11.1719 C   0  0  0  0  0  0  0  0  0  0  0  0
   18.7166  -24.9302  -10.4376 C   0  0  2  0  0  0  0  0  0  0  0  0
   18.9539  -25.9008  -11.5303 N   0  0  0  0  0  0  0  0  0  0  0  0
   17.8537  -25.5121   -9.4119 C   0  0  0  0  0  0  0  0  0  0  0  0
   16.9195  -26.2832   -9.8462 O   0  0  0  0  0  0  0  0  0  0  0  0
   17.9865  -25.2832   -8.0198 N   0  0  0  0  0  0  0  0  0  0  0  0
   19.1399  -24.4984   -7.5202 C   0  0  0  0  0  0  0  0  0  0  0  0
   18.6032  -23.9904   -6.2029 C   0  0  0  0  0  0  0  0  0  0  0  0
   17.9528  -25.2652   -5.6786 C   0  0  0  0  0  0  0  0  0  0  0  0
   17.1575  -25.6708   -6.9194 C   0  0  1  0  0  0  0  0  0  0  0  0
   15.8673  -24.9492   -6.8850 C   0  0  0  0  0  0  0  0  0  0  0  0
   15.7053  -23.9538   -7.6196 O   0  0  0  0  0  0  0  0  0  0  0  0
   14.8355  -25.3469   -6.0615 O   0  0  0  0  0  0  0  0  0  0  0  0
  2  1  1  0
  3  5  1  0
  3  2  1  0
  3  4  1  1
  5  6  2  0
  7  8  1  0
  9  8  1  6
 10  9  1  0
 10  5  1  0
 11 12  2  0
 11  9  1  0
 13 11  1  0
 14 13  1  0
 14 15  1  0
 16 17  1  0
 16 15  1  0
 17 13  1  0
 17 18  1  6
 18 20  1  0
 19 18  2  0
M  END
$$$$
