SSP.pdb
     RDKit          3D

 20 20  0  0  1  0  0  0  0  0999 V2000
   15.1998   -8.1699  -15.6038 O   0  0  0  0  0  0  0  0  0  0  0  0
   15.2447   -8.1919  -17.0090 C   0  0  0  0  0  0  0  0  0  0  0  0
   15.9591   -9.4639  -17.3939 C   0  0  2  0  0  0  0  0  0  0  0  0
   15.2956  -10.6167  -16.8802 N   0  0  0  0  0  0  0  0  0  0  0  0
   17.3753   -9.4703  -16.9679 C   0  0  0  0  0  0  0  0  0  0  0  0
   17.6708  -10.1332  -15.9440 O   0  0  0  0  0  0  0  0  0  0  0  0
   20.8457   -9.6881  -19.1112 O   0  0  0  0  0  0  0  0  0  0  0  0
   20.6278   -8.5368  -18.3587 C   0  0  0  0  0  0  0  0  0  0  0  0
   19.7920   -8.8590  -17.1156 C   0  0  2  0  0  0  0  0  0  0  0  0
   18.4051   -8.7880  -17.6291 N   0  0  0  0  0  0  0  0  0  0  0  0
   19.9849   -7.9078  -16.0232 C   0  0  0  0  0  0  0  0  0  0  0  0
   19.2616   -6.8449  -16.0801 O   0  0  0  0  0  0  0  0  0  0  0  0
   20.8884   -8.0868  -14.9464 N   0  0  0  0  0  0  0  0  0  0  0  0
   21.5638   -9.3948  -14.7757 C   0  0  0  0  0  0  0  0  0  0  0  0
   22.7930   -8.9928  -13.9955 C   0  0  0  0  0  0  0  0  0  0  0  0
   22.1592   -8.0494  -12.9801 C   0  0  0  0  0  0  0  0  0  0  0  0
   21.3265   -7.1840  -13.9259 C   0  0  1  0  0  0  0  0  0  0  0  0
   22.2005   -6.1085  -14.4416 C   0  0  0  0  0  0  0  0  0  0  0  0
   22.6747   -6.2064  -15.5915 O   0  0  0  0  0  0  0  0  0  0  0  0
   22.5067   -4.9972  -13.6851 O   0  0  0  0  0  0  0  0  0  0  0  0
  2  1  1  0
  3  5  1  0
  3  2  1  0
  3  4  1  1
  5  6  2  0
  7  8  1  0
  9  8  1  6
 10  9  1  0
 10  5  1  0
 11 12  2  0
 11  9  1  0
 13 11  1  0
 14 13  1  0
 14 15  1  0
 16 17  1  0
 16 15  1  0
 17 13  1  0
 17 18  1  6
 18 20  1  0
 19 18  2  0
M  END
$$$$
