KCP.pdb
     RDKit          3D

 23 23  0  0  1  0  0  0  0  0999 V2000
   12.8286  -11.0971   -9.9508 N   0  0  0  0  0  0  0  0  0  0  0  0
   14.1460  -10.5870  -10.2966 C   0  0  1  0  0  0  0  0  0  0  0  0
   14.5635  -11.0830  -11.6396 C   0  0  0  0  0  0  0  0  0  0  0  0
   14.5334  -12.5042  -11.9588 C   0  0  0  0  0  0  0  0  0  0  0  0
   14.9730  -13.0482  -13.2554 C   0  0  0  0  0  0  0  0  0  0  0  0
   14.9368  -14.5029  -13.5057 C   0  0  0  0  0  0  0  0  0  0  0  0
   15.4771  -14.7805  -14.8597 N   0  0  0  0  0  0  0  0  0  0  0  0
   14.0718   -9.0775  -10.4149 C   0  0  0  0  0  0  0  0  0  0  0  0
   12.9783   -8.5157  -10.6642 O   0  0  0  0  0  0  0  0  0  0  0  0
   15.2032   -8.2442  -10.2545 N   0  0  0  0  0  0  0  0  0  0  0  0
   15.1349   -6.7959  -10.3159 C   0  0  1  0  0  0  0  0  0  0  0  0
   15.5987   -6.1813   -9.0049 C   0  0  0  0  0  0  0  0  0  0  0  0
   15.7700   -7.4722   -7.7260 S   0  0  0  0  0  0  0  0  0  0  0  0
   16.0637   -6.3344  -11.3681 C   0  0  0  0  0  0  0  0  0  0  0  0
   17.1083   -7.0587  -11.5498 O   0  0  0  0  0  0  0  0  0  0  0  0
   15.8594   -5.1704  -12.1576 N   0  0  0  0  0  0  0  0  0  0  0  0
   14.8421   -4.1720  -12.0572 C   0  0  0  0  0  0  0  0  0  0  0  0
   14.5765   -3.8103  -13.5226 C   0  0  0  0  0  0  0  0  0  0  0  0
   15.6908   -4.4400  -14.3226 C   0  0  0  0  0  0  0  0  0  0  0  0
   16.7074   -4.7811  -13.2551 C   0  0  1  0  0  0  0  0  0  0  0  0
   17.4915   -3.5481  -12.9759 C   0  0  0  0  0  0  0  0  0  0  0  0
   18.3083   -3.0269  -13.7752 O   0  0  0  0  0  0  0  0  0  0  0  0
   17.3321   -2.9052  -11.7560 O   0  0  0  0  0  0  0  0  0  0  0  0
  2  1  1  6
  2  3  1  0
  4  3  1  0
  5  4  1  0
  6  7  1  0
  6  5  1  0
  8 10  1  0
  8  2  1  0
  9  8  2  0
 11 10  1  0
 12 13  1  0
 11 12  1  1
 14 11  1  0
 14 15  2  0
 16 14  1  0
 17 18  1  0
 17 16  1  0
 18 19  1  0
 20 16  1  0
 20 19  1  0
 20 21  1  1
 22 21  2  0
 23 21  1  0
M  END
$$$$
