KCP.pdb
     RDKit          3D

 23 23  0  0  1  0  0  0  0  0999 V2000
   25.2104  -21.2066  -12.9340 N   0  0  0  0  0  0  0  0  0  0  0  0
   26.5597  -20.7488  -12.6425 C   0  0  1  0  0  0  0  0  0  0  0  0
   27.0379  -19.8183  -13.7053 C   0  0  0  0  0  0  0  0  0  0  0  0
   27.6385  -20.3239  -14.9325 C   0  0  0  0  0  0  0  0  0  0  0  0
   27.1437  -21.5183  -15.6391 C   0  0  0  0  0  0  0  0  0  0  0  0
   27.7504  -21.9330  -16.9197 C   0  0  0  0  0  0  0  0  0  0  0  0
   29.0446  -22.6083  -16.6526 N   0  0  0  0  0  0  0  0  0  0  0  0
   26.5369  -19.9400  -11.3606 C   0  0  0  0  0  0  0  0  0  0  0  0
   26.2894  -18.7107  -11.3927 O   0  0  0  0  0  0  0  0  0  0  0  0
   26.7872  -20.5146  -10.0927 N   0  0  0  0  0  0  0  0  0  0  0  0
   26.5299  -19.8207   -8.8443 C   0  0  1  0  0  0  0  0  0  0  0  0
   25.0676  -19.9525   -8.4493 C   0  0  0  0  0  0  0  0  0  0  0  0
   24.6674  -21.6934   -8.0744 S   0  0  0  0  0  0  0  0  0  0  0  0
   27.3295  -20.4675   -7.7836 C   0  0  0  0  0  0  0  0  0  0  0  0
   27.7298  -21.6617   -8.0339 O   0  0  0  0  0  0  0  0  0  0  0  0
   27.6629  -19.8501   -6.5477 N   0  0  0  0  0  0  0  0  0  0  0  0
   27.3011  -18.5604   -6.0501 C   0  0  0  0  0  0  0  0  0  0  0  0
   28.5561  -18.1287   -5.2835 C   0  0  0  0  0  0  0  0  0  0  0  0
   29.4266  -19.3566   -5.1713 C   0  0  0  0  0  0  0  0  0  0  0  0
   28.4673  -20.4713   -5.5268 C   0  0  1  0  0  0  0  0  0  0  0  0
   27.6953  -20.8037   -4.2994 C   0  0  0  0  0  0  0  0  0  0  0  0
   26.4644  -20.5999   -4.1549 O   0  0  0  0  0  0  0  0  0  0  0  0
   28.3522  -21.3801   -3.2209 O   0  0  0  0  0  0  0  0  0  0  0  0
  2  1  1  6
  2  3  1  0
  4  3  1  0
  5  4  1  0
  6  7  1  0
  6  5  1  0
  8 10  1  0
  8  2  1  0
  9  8  2  0
 11 10  1  0
 12 13  1  0
 11 12  1  1
 14 11  1  0
 14 15  2  0
 16 14  1  0
 17 18  1  0
 17 16  1  0
 18 19  1  0
 20 16  1  0
 20 19  1  0
 20 21  1  1
 22 21  2  0
 23 21  1  0
M  END
$$$$
