KCP.pdb
     RDKit          3D

 23 23  0  0  1  0  0  0  0  0999 V2000
   26.1001  -25.2442  -16.0819 N   0  0  0  0  0  0  0  0  0  0  0  0
   26.3241  -23.8762  -15.6415 C   0  0  1  0  0  0  0  0  0  0  0  0
   26.3956  -22.9546  -16.8118 C   0  0  0  0  0  0  0  0  0  0  0  0
   27.5753  -22.9139  -17.6655 C   0  0  0  0  0  0  0  0  0  0  0  0
   28.8355  -23.6004  -17.3317 C   0  0  0  0  0  0  0  0  0  0  0  0
   30.0181  -23.4558  -18.2038 C   0  0  0  0  0  0  0  0  0  0  0  0
   31.1645  -24.1777  -17.5981 N   0  0  0  0  0  0  0  0  0  0  0  0
   25.1296  -23.4218  -14.8261 C   0  0  0  0  0  0  0  0  0  0  0  0
   24.0139  -23.9752  -14.9763 O   0  0  0  0  0  0  0  0  0  0  0  0
   25.2084  -22.3763  -13.8770 N   0  0  0  0  0  0  0  0  0  0  0  0
   24.0776  -21.9492  -13.0739 C   0  0  1  0  0  0  0  0  0  0  0  0
   24.5262  -20.9882  -11.9845 C   0  0  0  0  0  0  0  0  0  0  0  0
   25.5442  -21.8634  -10.7480 S   0  0  0  0  0  0  0  0  0  0  0  0
   23.1422  -21.2128  -13.9488 C   0  0  0  0  0  0  0  0  0  0  0  0
   23.6781  -20.5509  -14.9099 O   0  0  0  0  0  0  0  0  0  0  0  0
   21.7309  -21.2058  -13.7808 N   0  0  0  0  0  0  0  0  0  0  0  0
   20.9375  -21.7792  -12.7399 C   0  0  0  0  0  0  0  0  0  0  0  0
   19.6892  -22.2573  -13.4897 C   0  0  0  0  0  0  0  0  0  0  0  0
   19.7615  -21.6431  -14.8665 C   0  0  0  0  0  0  0  0  0  0  0  0
   20.8134  -20.5698  -14.6911 C   0  0  1  0  0  0  0  0  0  0  0  0
   20.1420  -19.3793  -14.1038 C   0  0  0  0  0  0  0  0  0  0  0  0
   20.3109  -18.9744  -12.9268 O   0  0  0  0  0  0  0  0  0  0  0  0
   19.2617  -18.6433  -14.8850 O   0  0  0  0  0  0  0  0  0  0  0  0
  2  1  1  6
  2  3  1  0
  4  3  1  0
  5  4  1  0
  6  7  1  0
  6  5  1  0
  8 10  1  0
  8  2  1  0
  9  8  2  0
 11 10  1  0
 12 13  1  0
 11 12  1  1
 14 11  1  0
 14 15  2  0
 16 14  1  0
 17 18  1  0
 17 16  1  0
 18 19  1  0
 20 16  1  0
 20 19  1  0
 20 21  1  1
 22 21  2  0
 23 21  1  0
M  END
$$$$
