KCP.pdb
     RDKit          3D

 23 23  0  0  1  0  0  0  0  0999 V2000
   23.3912  -18.7940  -19.2623 N   0  0  0  0  0  0  0  0  0  0  0  0
   23.2843  -18.2565  -17.9151 C   0  0  1  0  0  0  0  0  0  0  0  0
   22.0051  -18.6860  -17.2801 C   0  0  0  0  0  0  0  0  0  0  0  0
   20.8786  -19.1347  -18.0876 C   0  0  0  0  0  0  0  0  0  0  0  0
   20.2399  -18.2956  -19.1165 C   0  0  0  0  0  0  0  0  0  0  0  0
   19.0832  -18.8028  -19.8812 C   0  0  0  0  0  0  0  0  0  0  0  0
   19.5029  -19.9804  -20.6809 N   0  0  0  0  0  0  0  0  0  0  0  0
   24.3906  -18.8461  -17.0628 C   0  0  0  0  0  0  0  0  0  0  0  0
   24.6276  -20.0774  -17.0973 O   0  0  0  0  0  0  0  0  0  0  0  0
   25.1937  -18.0586  -16.2053 N   0  0  0  0  0  0  0  0  0  0  0  0
   26.1988  -18.6222  -15.3233 C   0  0  1  0  0  0  0  0  0  0  0  0
   27.0860  -17.5272  -14.7526 C   0  0  0  0  0  0  0  0  0  0  0  0
   26.2006  -16.6122  -13.4449 S   0  0  0  0  0  0  0  0  0  0  0  0
   25.5074  -19.2624  -14.1853 C   0  0  0  0  0  0  0  0  0  0  0  0
   24.2331  -19.1090  -14.1465 O   0  0  0  0  0  0  0  0  0  0  0  0
   26.1646  -20.0119  -13.1723 N   0  0  0  0  0  0  0  0  0  0  0  0
   27.5615  -20.1430  -12.9014 C   0  0  0  0  0  0  0  0  0  0  0  0
   27.6835  -21.6021  -12.4488 C   0  0  0  0  0  0  0  0  0  0  0  0
   26.2746  -22.0946  -12.2240 C   0  0  0  0  0  0  0  0  0  0  0  0
   25.4804  -20.8073  -12.1853 C   0  0  1  0  0  0  0  0  0  0  0  0
   25.5959  -20.2534  -10.8094 C   0  0  0  0  0  0  0  0  0  0  0  0
   26.3547  -19.3070  -10.4837 O   0  0  0  0  0  0  0  0  0  0  0  0
   24.8245  -20.7987   -9.7923 O   0  0  0  0  0  0  0  0  0  0  0  0
  2  1  1  6
  2  3  1  0
  4  3  1  0
  5  4  1  0
  6  7  1  0
  6  5  1  0
  8 10  1  0
  8  2  1  0
  9  8  2  0
 11 10  1  0
 12 13  1  0
 11 12  1  1
 14 11  1  0
 14 15  2  0
 16 14  1  0
 17 18  1  0
 17 16  1  0
 18 19  1  0
 20 16  1  0
 20 19  1  0
 20 21  1  1
 22 21  2  0
 23 21  1  0
M  END
$$$$
