KCP.pdb
     RDKit          3D

 23 23  0  0  1  0  0  0  0  0999 V2000
   22.5922  -18.9139  -18.2988 N   0  0  0  0  0  0  0  0  0  0  0  0
   22.6480  -18.2954  -16.9836 C   0  0  1  0  0  0  0  0  0  0  0  0
   21.4967  -18.7404  -16.1466 C   0  0  0  0  0  0  0  0  0  0  0  0
   20.1241  -18.5645  -16.6018 C   0  0  0  0  0  0  0  0  0  0  0  0
   19.5463  -17.2496  -16.9302 C   0  0  0  0  0  0  0  0  0  0  0  0
   18.1177  -17.1288  -17.2830 C   0  0  0  0  0  0  0  0  0  0  0  0
   17.7893  -15.7002  -17.5141 N   0  0  0  0  0  0  0  0  0  0  0  0
   23.8942  -18.7774  -16.2676 C   0  0  0  0  0  0  0  0  0  0  0  0
   24.2887  -19.9594  -16.4110 O   0  0  0  0  0  0  0  0  0  0  0  0
   24.6583  -17.9406  -15.4213 N   0  0  0  0  0  0  0  0  0  0  0  0
   25.7952  -18.4159  -14.6548 C   0  0  1  0  0  0  0  0  0  0  0  0
   26.5762  -17.2479  -14.0739 C   0  0  0  0  0  0  0  0  0  0  0  0
   27.0067  -16.0576  -15.3889 S   0  0  0  0  0  0  0  0  0  0  0  0
   25.2856  -19.2100  -13.5179 C   0  0  0  0  0  0  0  0  0  0  0  0
   24.0303  -19.0954  -13.2730 O   0  0  0  0  0  0  0  0  0  0  0  0
   26.0917  -20.0624  -12.7156 N   0  0  0  0  0  0  0  0  0  0  0  0
   27.5128  -20.2102  -12.6917 C   0  0  0  0  0  0  0  0  0  0  0  0
   27.6931  -21.7097  -12.4314 C   0  0  0  0  0  0  0  0  0  0  0  0
   26.3349  -22.2372  -12.0374 C   0  0  0  0  0  0  0  0  0  0  0  0
   25.5696  -20.9697  -11.7261 C   0  0  1  0  0  0  0  0  0  0  0  0
   25.9121  -20.5726  -10.3339 C   0  0  0  0  0  0  0  0  0  0  0  0
   26.7280  -19.6667  -10.0317 O   0  0  0  0  0  0  0  0  0  0  0  0
   25.3047  -21.2298   -9.2727 O   0  0  0  0  0  0  0  0  0  0  0  0
  2  1  1  6
  2  3  1  0
  4  3  1  0
  5  4  1  0
  6  7  1  0
  6  5  1  0
  8 10  1  0
  8  2  1  0
  9  8  2  0
 11 10  1  0
 12 13  1  0
 11 12  1  1
 14 11  1  0
 14 15  2  0
 16 14  1  0
 17 18  1  0
 17 16  1  0
 18 19  1  0
 20 16  1  0
 20 19  1  0
 20 21  1  1
 22 21  2  0
 23 21  1  0
M  END
$$$$
