KCP.pdb
     RDKit          3D

 23 23  0  0  1  0  0  0  0  0999 V2000
   21.2890  -22.3235  -13.3937 N   0  0  0  0  0  0  0  0  0  0  0  0
   21.2275  -20.8704  -13.3890 C   0  0  1  0  0  0  0  0  0  0  0  0
   20.3758  -20.3861  -12.2646 C   0  0  0  0  0  0  0  0  0  0  0  0
   19.1000  -21.0205  -11.9608 C   0  0  0  0  0  0  0  0  0  0  0  0
   18.7358  -22.3664  -12.4369 C   0  0  0  0  0  0  0  0  0  0  0  0
   17.3778  -22.8979  -12.2060 C   0  0  0  0  0  0  0  0  0  0  0  0
   17.2768  -24.2564  -12.7948 N   0  0  0  0  0  0  0  0  0  0  0  0
   22.6159  -20.3217  -13.1257 C   0  0  0  0  0  0  0  0  0  0  0  0
   22.7770  -19.1040  -12.8713 O   0  0  0  0  0  0  0  0  0  0  0  0
   23.7737  -21.1336  -13.1524 N   0  0  0  0  0  0  0  0  0  0  0  0
   25.1203  -20.5935  -13.1207 C   0  0  1  0  0  0  0  0  0  0  0  0
   25.9766  -21.3473  -12.1157 C   0  0  0  0  0  0  0  0  0  0  0  0
   25.3275  -21.1097  -10.4265 S   0  0  0  0  0  0  0  0  0  0  0  0
   25.7293  -20.7940  -14.4517 C   0  0  0  0  0  0  0  0  0  0  0  0
   25.0701  -21.5406  -15.2623 O   0  0  0  0  0  0  0  0  0  0  0  0
   26.9635  -20.2187  -14.8588 N   0  0  0  0  0  0  0  0  0  0  0  0
   27.9464  -19.5331  -14.0806 C   0  0  0  0  0  0  0  0  0  0  0  0
   28.4469  -18.4512  -15.0438 C   0  0  0  0  0  0  0  0  0  0  0  0
   27.8984  -18.8088  -16.4037 C   0  0  0  0  0  0  0  0  0  0  0  0
   27.4575  -20.2433  -16.2118 C   0  0  1  0  0  0  0  0  0  0  0  0
   28.6589  -21.1049  -16.3771 C   0  0  0  0  0  0  0  0  0  0  0  0
   29.2091  -21.7464  -15.4479 O   0  0  0  0  0  0  0  0  0  0  0  0
   29.2359  -21.2295  -17.6335 O   0  0  0  0  0  0  0  0  0  0  0  0
  2  1  1  1
  2  3  1  0
  4  3  1  0
  5  4  1  0
  6  7  1  0
  6  5  1  0
  8 10  1  0
  8  2  1  0
  9  8  2  0
 11 10  1  0
 12 13  1  0
 11 12  1  1
 14 11  1  0
 14 15  2  0
 16 14  1  0
 17 18  1  0
 17 16  1  0
 18 19  1  0
 20 16  1  0
 20 19  1  0
 20 21  1  1
 22 21  2  0
 23 21  1  0
M  END
$$$$
