KCP.pdb
     RDKit          3D

 23 23  0  0  1  0  0  0  0  0999 V2000
   21.2711  -11.7575  -15.9471 N   0  0  0  0  0  0  0  0  0  0  0  0
   21.8588  -10.4979  -16.3752 C   0  0  1  0  0  0  0  0  0  0  0  0
   21.9336  -10.4342  -17.8633 C   0  0  0  0  0  0  0  0  0  0  0  0
   21.7564  -11.6297  -18.6767 C   0  0  0  0  0  0  0  0  0  0  0  0
   20.6554  -11.7914  -19.6423 C   0  0  0  0  0  0  0  0  0  0  0  0
   20.5847  -12.9910  -20.5001 C   0  0  0  0  0  0  0  0  0  0  0  0
   20.1886  -14.1598  -19.6759 N   0  0  0  0  0  0  0  0  0  0  0  0
   20.9456   -9.3630  -15.9554 C   0  0  0  0  0  0  0  0  0  0  0  0
   19.7069   -9.4490  -16.1335 O   0  0  0  0  0  0  0  0  0  0  0  0
   21.4301   -8.1772  -15.3558 N   0  0  0  0  0  0  0  0  0  0  0  0
   20.5602   -7.1142  -14.8877 C   0  0  1  0  0  0  0  0  0  0  0  0
   20.3677   -7.2029  -13.3822 C   0  0  0  0  0  0  0  0  0  0  0  0
   21.8531   -7.9133  -12.5947 S   0  0  0  0  0  0  0  0  0  0  0  0
   21.2184   -5.8217  -15.1692 C   0  0  0  0  0  0  0  0  0  0  0  0
   22.5007   -5.8486  -15.2322 O   0  0  0  0  0  0  0  0  0  0  0  0
   20.5222   -4.5985  -15.3663 N   0  0  0  0  0  0  0  0  0  0  0  0
   19.1312   -4.3101  -15.2118 C   0  0  0  0  0  0  0  0  0  0  0  0
   18.8652   -3.3093  -16.3416 C   0  0  0  0  0  0  0  0  0  0  0  0
   20.2181   -2.8927  -16.8652 C   0  0  0  0  0  0  0  0  0  0  0  0
   21.1518   -3.3687  -15.7740 C   0  0  1  0  0  0  0  0  0  0  0  0
   21.1534   -2.3335  -14.7056 C   0  0  0  0  0  0  0  0  0  0  0  0
   21.7146   -1.2137  -14.7993 O   0  0  0  0  0  0  0  0  0  0  0  0
   20.4978   -2.5927  -13.5098 O   0  0  0  0  0  0  0  0  0  0  0  0
  2  1  1  6
  2  3  1  0
  4  3  1  0
  5  4  1  0
  6  7  1  0
  6  5  1  0
  8 10  1  0
  8  2  1  0
  9  8  2  0
 11 10  1  0
 12 13  1  0
 11 12  1  1
 14 11  1  0
 14 15  2  0
 16 14  1  0
 17 18  1  0
 17 16  1  0
 18 19  1  0
 20 16  1  0
 20 19  1  0
 20 21  1  1
 22 21  2  0
 23 21  1  0
M  END
$$$$
