GCS.pdb
     RDKit          3D

 17 16  0  0  1  0  0  0  0  0999 V2000
   21.7226  -11.9189  -17.8389 N   0  0  0  0  0  0  0  0  0  0  0  0
   22.2690  -10.6209  -17.5314 C   0  0  0  0  0  0  0  0  0  0  0  0
   21.2118   -9.8551  -16.7956 C   0  0  0  0  0  0  0  0  0  0  0  0
   20.0545   -9.6813  -17.2764 O   0  0  0  0  0  0  0  0  0  0  0  0
   21.4533   -9.2823  -15.5165 N   0  0  0  0  0  0  0  0  0  0  0  0
   20.4555   -8.4488  -14.8755 C   0  0  1  0  0  0  0  0  0  0  0  0
   20.6900   -8.5961  -13.3668 C   0  0  0  0  0  0  0  0  0  0  0  0
   19.2987   -7.7537  -12.5557 S   0  0  0  0  0  0  0  0  0  0  0  0
   20.6734   -7.0444  -15.2274 C   0  0  0  0  0  0  0  0  0  0  0  0
   21.8235   -6.5356  -15.0739 O   0  0  0  0  0  0  0  0  0  0  0  0
   20.0648   -5.2822  -18.4453 O   0  0  0  0  0  0  0  0  0  0  0  0
   19.2759   -4.6227  -17.5087 C   0  0  0  0  0  0  0  0  0  0  0  0
   19.9186   -4.7996  -16.1266 C   0  0  2  0  0  0  0  0  0  0  0  0
   19.6824   -6.1724  -15.7414 N   0  0  0  0  0  0  0  0  0  0  0  0
   19.3006   -3.8367  -15.1951 C   0  0  0  0  0  0  0  0  0  0  0  0
   18.2045   -4.1592  -14.6764 O   0  0  0  0  0  0  0  0  0  0  0  0
   19.8455   -2.6120  -14.8588 O   0  0  0  0  0  0  0  0  0  0  0  0
  1  2  1  0
  2  3  1  0
  3  4  2  0
  5  6  1  0
  5  3  1  0
  7  8  1  0
  6  7  1  1
  9 14  1  0
  9  6  1  0
 10  9  2  0
 12 11  1  0
 13 14  1  0
 13 12  1  6
 15 13  1  0
 16 15  2  0
 17 15  1  0
M  END
$$$$
