GCS.pdb
     RDKit          3D

 17 16  0  0  1  0  0  0  0  0999 V2000
   16.0596  -11.1970  -11.4408 N   0  0  0  0  0  0  0  0  0  0  0  0
   16.8302   -9.9788  -11.4375 C   0  0  0  0  0  0  0  0  0  0  0  0
   15.9070   -8.8686  -11.0362 C   0  0  0  0  0  0  0  0  0  0  0  0
   14.8395   -8.6240  -11.6697 O   0  0  0  0  0  0  0  0  0  0  0  0
   16.1819   -8.0301   -9.9210 N   0  0  0  0  0  0  0  0  0  0  0  0
   15.2689   -6.9681   -9.5472 C   0  0  1  0  0  0  0  0  0  0  0  0
   15.4163   -6.8008   -8.0296 C   0  0  0  0  0  0  0  0  0  0  0  0
   14.4820   -8.1669   -7.2786 S   0  0  0  0  0  0  0  0  0  0  0  0
   15.6761   -5.7110  -10.1777 C   0  0  0  0  0  0  0  0  0  0  0  0
   16.8998   -5.3823  -10.1773 O   0  0  0  0  0  0  0  0  0  0  0  0
   13.8185   -4.1086  -13.3662 O   0  0  0  0  0  0  0  0  0  0  0  0
   14.0217   -3.1639  -12.3657 C   0  0  0  0  0  0  0  0  0  0  0  0
   15.2201   -3.6100  -11.5175 C   0  0  2  0  0  0  0  0  0  0  0  0
   14.7976   -4.7972  -10.8099 N   0  0  0  0  0  0  0  0  0  0  0  0
   15.5857   -2.5087  -10.6063 C   0  0  0  0  0  0  0  0  0  0  0  0
   15.0472   -2.4958   -9.4730 O   0  0  0  0  0  0  0  0  0  0  0  0
   16.4757   -1.4980  -10.9165 O   0  0  0  0  0  0  0  0  0  0  0  0
  1  2  1  0
  2  3  1  0
  3  4  2  0
  5  6  1  0
  5  3  1  0
  7  8  1  0
  6  7  1  1
  9 14  1  0
  9  6  1  0
 10  9  2  0
 12 11  1  0
 13 14  1  0
 13 12  1  6
 15 13  1  0
 16 15  2  0
 17 15  1  0
M  END
$$$$
