GCS.pdb
     RDKit          3D

 17 16  0  0  1  0  0  0  0  0999 V2000
   22.4022  -11.9597  -18.7813 N   0  0  0  0  0  0  0  0  0  0  0  0
   22.0404  -10.5944  -19.0693 C   0  0  0  0  0  0  0  0  0  0  0  0
   21.7031   -9.9380  -17.7651 C   0  0  0  0  0  0  0  0  0  0  0  0
   20.5143   -9.8711  -17.3373 O   0  0  0  0  0  0  0  0  0  0  0  0
   22.7021   -9.3548  -16.9379 N   0  0  0  0  0  0  0  0  0  0  0  0
   22.3540   -8.7473  -15.6687 C   0  0  1  0  0  0  0  0  0  0  0  0
   23.4665   -9.1470  -14.6913 C   0  0  0  0  0  0  0  0  0  0  0  0
   22.7363  -10.3796  -13.5730 S   0  0  0  0  0  0  0  0  0  0  0  0
   22.3678   -7.2882  -15.7901 C   0  0  0  0  0  0  0  0  0  0  0  0
   23.3305   -6.7227  -16.3890 O   0  0  0  0  0  0  0  0  0  0  0  0
   19.3531   -5.0808  -14.1997 O   0  0  0  0  0  0  0  0  0  0  0  0
   19.9027   -4.5415  -15.3582 C   0  0  0  0  0  0  0  0  0  0  0  0
   21.3687   -4.9855  -15.4483 C   0  0  2  0  0  0  0  0  0  0  0  0
   21.3694   -6.4212  -15.2821 N   0  0  0  0  0  0  0  0  0  0  0  0
   22.1341   -4.2939  -14.3934 C   0  0  0  0  0  0  0  0  0  0  0  0
   22.5415   -4.9861  -13.4294 O   0  0  0  0  0  0  0  0  0  0  0  0
   22.4294   -2.9439  -14.3972 O   0  0  0  0  0  0  0  0  0  0  0  0
  1  2  1  0
  2  3  1  0
  3  4  2  0
  5  6  1  0
  5  3  1  0
  7  8  1  0
  6  7  1  1
  9 14  1  0
  9  6  1  0
 10  9  2  0
 12 11  1  0
 13 14  1  0
 13 12  1  1
 15 13  1  0
 16 15  2  0
 17 15  1  0
M  END
$$$$
