GCS.pdb
     RDKit          3D

 17 16  0  0  1  0  0  0  0  0999 V2000
   24.8612  -20.9547   -8.1522 N   0  0  0  0  0  0  0  0  0  0  0  0
   25.7895  -20.6810   -9.2205 C   0  0  0  0  0  0  0  0  0  0  0  0
   25.2001  -21.2436  -10.4782 C   0  0  0  0  0  0  0  0  0  0  0  0
   25.4052  -22.4395  -10.8366 O   0  0  0  0  0  0  0  0  0  0  0  0
   24.3782  -20.4626  -11.3365 N   0  0  0  0  0  0  0  0  0  0  0  0
   23.7598  -21.0494  -12.5089 C   0  0  1  0  0  0  0  0  0  0  0  0
   22.3387  -20.4748  -12.5675 C   0  0  0  0  0  0  0  0  0  0  0  0
   21.3791  -21.3742  -11.3131 S   0  0  0  0  0  0  0  0  0  0  0  0
   24.4664  -20.6199  -13.7172 C   0  0  0  0  0  0  0  0  0  0  0  0
   24.6708  -19.3849  -13.9128 O   0  0  0  0  0  0  0  0  0  0  0  0
   26.3505  -23.3279  -15.8595 O   0  0  0  0  0  0  0  0  0  0  0  0
   26.8286  -22.0433  -16.0961 C   0  0  0  0  0  0  0  0  0  0  0  0
   25.6710  -21.0548  -15.9028 C   0  0  2  0  0  0  0  0  0  0  0  0
   24.9594  -21.4882  -14.7220 N   0  0  0  0  0  0  0  0  0  0  0  0
   24.8266  -21.0789  -17.1125 C   0  0  0  0  0  0  0  0  0  0  0  0
   25.3232  -20.6231  -18.1708 O   0  0  0  0  0  0  0  0  0  0  0  0
   23.5344  -21.5670  -17.1562 O   0  0  0  0  0  0  0  0  0  0  0  0
  1  2  1  0
  2  3  1  0
  3  4  2  0
  5  6  1  0
  5  3  1  0
  7  8  1  0
  6  7  1  6
  9 14  1  0
  9  6  1  0
 10  9  2  0
 12 11  1  0
 13 14  1  0
 13 12  1  6
 15 13  1  0
 16 15  2  0
 17 15  1  0
M  END
$$$$
