GCS.pdb
     RDKit          3D

 17 16  0  0  1  0  0  0  0  0999 V2000
   26.2263  -11.1734  -19.7935 N   0  0  0  0  0  0  0  0  0  0  0  0
   26.3246   -9.8212  -19.3037 C   0  0  0  0  0  0  0  0  0  0  0  0
   25.0999   -9.5545  -18.4824 C   0  0  0  0  0  0  0  0  0  0  0  0
   23.9657   -9.3712  -19.0123 O   0  0  0  0  0  0  0  0  0  0  0  0
   25.1473   -9.4932  -17.0624 N   0  0  0  0  0  0  0  0  0  0  0  0
   23.9463   -9.2467  -16.2891 C   0  0  1  0  0  0  0  0  0  0  0  0
   24.1426   -9.9857  -14.9594 C   0  0  0  0  0  0  0  0  0  0  0  0
   24.0400  -11.7582  -15.3476 S   0  0  0  0  0  0  0  0  0  0  0  0
   23.8241   -7.8180  -15.9934 C   0  0  0  0  0  0  0  0  0  0  0  0
   24.8580   -7.1573  -15.6772 O   0  0  0  0  0  0  0  0  0  0  0  0
   22.0664   -5.2745  -18.1838 O   0  0  0  0  0  0  0  0  0  0  0  0
   21.4950   -5.1723  -16.9197 C   0  0  0  0  0  0  0  0  0  0  0  0
   22.5247   -5.6461  -15.8855 C   0  0  2  0  0  0  0  0  0  0  0  0
   22.6148   -7.0812  -16.0296 N   0  0  0  0  0  0  0  0  0  0  0  0
   22.0630   -5.2404  -14.5441 C   0  0  0  0  0  0  0  0  0  0  0  0
   21.2998   -6.0283  -13.9349 O   0  0  0  0  0  0  0  0  0  0  0  0
   22.4134   -4.0586  -13.9193 O   0  0  0  0  0  0  0  0  0  0  0  0
  1  2  1  0
  2  3  1  0
  3  4  2  0
  5  6  1  0
  5  3  1  0
  7  8  1  0
  6  7  1  1
  9 14  1  0
  9  6  1  0
 10  9  2  0
 12 11  1  0
 13 14  1  0
 13 12  1  6
 15 13  1  0
 16 15  2  0
 17 15  1  0
M  END
$$$$
