GCS.pdb
     RDKit          3D

 17 16  0  0  1  0  0  0  0  0999 V2000
   19.6303  -11.6952  -18.4212 N   0  0  0  0  0  0  0  0  0  0  0  0
   20.3357  -10.4706  -18.7049 C   0  0  0  0  0  0  0  0  0  0  0  0
   20.7534   -9.8823  -17.3914 C   0  0  0  0  0  0  0  0  0  0  0  0
   19.9125   -9.5817  -16.4951 O   0  0  0  0  0  0  0  0  0  0  0  0
   22.1184   -9.6302  -17.0821 N   0  0  0  0  0  0  0  0  0  0  0  0
   22.4962   -9.0463  -15.8103 C   0  0  1  0  0  0  0  0  0  0  0  0
   23.9429   -9.4889  -15.5571 C   0  0  0  0  0  0  0  0  0  0  0  0
   23.8413  -11.1492  -14.8245 S   0  0  0  0  0  0  0  0  0  0  0  0
   22.4853   -7.5854  -15.9058 C   0  0  0  0  0  0  0  0  0  0  0  0
   23.0874   -7.0200  -16.8666 O   0  0  0  0  0  0  0  0  0  0  0  0
   19.5376   -5.5263  -14.4086 O   0  0  0  0  0  0  0  0  0  0  0  0
   20.3155   -4.9274  -15.3939 C   0  0  0  0  0  0  0  0  0  0  0  0
   21.7853   -5.2785  -15.1276 C   0  0  2  0  0  0  0  0  0  0  0  0
   21.8414   -6.7161  -14.9912 N   0  0  0  0  0  0  0  0  0  0  0  0
   22.2210   -4.5771  -13.9049 C   0  0  0  0  0  0  0  0  0  0  0  0
   22.5040   -5.2821  -12.9062 O   0  0  0  0  0  0  0  0  0  0  0  0
   22.3369   -3.2050  -13.7880 O   0  0  0  0  0  0  0  0  0  0  0  0
  1  2  1  0
  2  3  1  0
  3  4  2  0
  5  6  1  0
  5  3  1  0
  7  8  1  0
  6  7  1  6
  9 14  1  0
  9  6  1  0
 10  9  2  0
 12 11  1  0
 13 14  1  0
 13 12  1  1
 15 13  1  0
 16 15  2  0
 17 15  1  0
M  END
$$$$
