GCS.pdb
     RDKit          3D

 17 16  0  0  1  0  0  0  0  0999 V2000
   14.0072  -10.4260   -9.7729 N   0  0  0  0  0  0  0  0  0  0  0  0
   14.2064   -9.7794  -11.0457 C   0  0  0  0  0  0  0  0  0  0  0  0
   15.6233  -10.0373  -11.4598 C   0  0  0  0  0  0  0  0  0  0  0  0
   16.2129  -11.1232  -11.1880 O   0  0  0  0  0  0  0  0  0  0  0  0
   16.3816   -9.0742  -12.1808 N   0  0  0  0  0  0  0  0  0  0  0  0
   17.5337   -9.4718  -12.9654 C   0  0  1  0  0  0  0  0  0  0  0  0
   16.9823  -10.2983  -14.1341 C   0  0  0  0  0  0  0  0  0  0  0  0
   18.4278  -10.8511  -15.0870 S   0  0  0  0  0  0  0  0  0  0  0  0
   18.1923   -8.2898  -13.5247 C   0  0  0  0  0  0  0  0  0  0  0  0
   17.5143   -7.4626  -14.2040 O   0  0  0  0  0  0  0  0  0  0  0  0
   22.1636   -7.9653  -13.2099 O   0  0  0  0  0  0  0  0  0  0  0  0
   21.5822   -6.7045  -13.2952 C   0  0  0  0  0  0  0  0  0  0  0  0
   20.2217   -6.8470  -13.9905 C   0  0  2  0  0  0  0  0  0  0  0  0
   19.5649   -7.9753  -13.3707 N   0  0  0  0  0  0  0  0  0  0  0  0
   20.4514   -7.0494  -15.4338 C   0  0  0  0  0  0  0  0  0  0  0  0
   20.9012   -6.0773  -16.0874 O   0  0  0  0  0  0  0  0  0  0  0  0
   20.2057   -8.2304  -16.1081 O   0  0  0  0  0  0  0  0  0  0  0  0
  1  2  1  0
  2  3  1  0
  3  4  2  0
  5  6  1  0
  5  3  1  0
  7  8  1  0
  6  7  1  6
  9 14  1  0
  9  6  1  0
 10  9  2  0
 12 11  1  0
 13 14  1  0
 13 12  1  1
 15 13  1  0
 16 15  2  0
 17 15  1  0
M  END
$$$$
