GCS.pdb
     RDKit          3D

 17 16  0  0  1  0  0  0  0  0999 V2000
   12.6565  -10.4196   -9.0732 N   0  0  0  0  0  0  0  0  0  0  0  0
   13.9353  -10.3138   -9.7299 C   0  0  0  0  0  0  0  0  0  0  0  0
   14.1736   -8.8611  -10.0103 C   0  0  0  0  0  0  0  0  0  0  0  0
   13.3039   -8.1375  -10.5767 O   0  0  0  0  0  0  0  0  0  0  0  0
   15.3910   -8.2180   -9.6545 N   0  0  0  0  0  0  0  0  0  0  0  0
   15.5814   -6.8017   -9.8974 C   0  0  1  0  0  0  0  0  0  0  0  0
   16.3260   -6.2604   -8.6703 C   0  0  0  0  0  0  0  0  0  0  0  0
   15.0983   -6.1746   -7.3329 S   0  0  0  0  0  0  0  0  0  0  0  0
   16.4413   -6.6040  -11.0658 C   0  0  0  0  0  0  0  0  0  0  0  0
   17.5223   -7.2578  -11.1608 O   0  0  0  0  0  0  0  0  0  0  0  0
   14.8791   -4.8056  -14.1002 O   0  0  0  0  0  0  0  0  0  0  0  0
   16.0063   -5.5114  -14.5076 C   0  0  0  0  0  0  0  0  0  0  0  0
   16.9797   -5.5902  -13.3241 C   0  0  2  0  0  0  0  0  0  0  0  0
   16.1660   -5.7184  -12.1366 N   0  0  0  0  0  0  0  0  0  0  0  0
   17.8060   -4.3679  -13.3141 C   0  0  0  0  0  0  0  0  0  0  0  0
   17.5890   -3.5333  -12.4026 O   0  0  0  0  0  0  0  0  0  0  0  0
   18.7958   -4.0840  -14.2357 O   0  0  0  0  0  0  0  0  0  0  0  0
  1  2  1  0
  2  3  1  0
  3  4  2  0
  5  6  1  0
  5  3  1  0
  7  8  1  0
  6  7  1  1
  9 14  1  0
  9  6  1  0
 10  9  2  0
 12 11  1  0
 13 14  1  0
 13 12  1  6
 15 13  1  0
 16 15  2  0
 17 15  1  0
M  END
$$$$
