GCS.pdb
     RDKit          3D

 17 16  0  0  1  0  0  0  0  0999 V2000
   29.0508  -22.8567  -16.7960 N   0  0  0  0  0  0  0  0  0  0  0  0
   28.4385  -21.5688  -17.0064 C   0  0  0  0  0  0  0  0  0  0  0  0
   27.5615  -21.2935  -15.8229 C   0  0  0  0  0  0  0  0  0  0  0  0
   27.4040  -22.1395  -14.8955 O   0  0  0  0  0  0  0  0  0  0  0  0
   26.8589  -20.0655  -15.6790 N   0  0  0  0  0  0  0  0  0  0  0  0
   25.9915  -19.8349  -14.5407 C   0  0  1  0  0  0  0  0  0  0  0  0
   26.2232  -18.3772  -14.1232 C   0  0  0  0  0  0  0  0  0  0  0  0
   26.2483  -17.4101  -15.6618 S   0  0  0  0  0  0  0  0  0  0  0  0
   24.5899  -19.9681  -14.9425 C   0  0  0  0  0  0  0  0  0  0  0  0
   24.2353  -19.5899  -16.0986 O   0  0  0  0  0  0  0  0  0  0  0  0
   21.8338  -21.3110  -12.2960 O   0  0  0  0  0  0  0  0  0  0  0  0
   21.5706  -21.7078  -13.6029 C   0  0  0  0  0  0  0  0  0  0  0  0
   22.1883  -20.6744  -14.5542 C   0  0  2  0  0  0  0  0  0  0  0  0
   23.5586  -20.4992  -14.1296 N   0  0  0  0  0  0  0  0  0  0  0  0
   21.4049  -19.4274  -14.4650 C   0  0  0  0  0  0  0  0  0  0  0  0
   21.9168  -18.4692  -13.8371 O   0  0  0  0  0  0  0  0  0  0  0  0
   20.1537  -19.2467  -15.0233 O   0  0  0  0  0  0  0  0  0  0  0  0
  1  2  1  0
  2  3  1  0
  3  4  2  0
  5  6  1  0
  5  3  1  0
  7  8  1  0
  6  7  1  6
  9 14  1  0
  9  6  1  0
 10  9  2  0
 12 11  1  0
 13 14  1  0
 13 12  1  1
 15 13  1  0
 16 15  2  0
 17 15  1  0
M  END
$$$$
