GCS.pdb
     RDKit          3D

 17 16  0  0  1  0  0  0  0  0999 V2000
   25.1079  -32.4645   -8.3460 N   0  0  0  0  0  0  0  0  0  0  0  0
   26.3353  -32.1047   -7.6812 C   0  0  0  0  0  0  0  0  0  0  0  0
   26.8444  -33.3331   -6.9901 C   0  0  0  0  0  0  0  0  0  0  0  0
   26.1866  -34.4137   -6.9750 O   0  0  0  0  0  0  0  0  0  0  0  0
   28.0952  -33.3495   -6.3136 N   0  0  0  0  0  0  0  0  0  0  0  0
   28.5635  -34.5486   -5.6472 C   0  0  1  0  0  0  0  0  0  0  0  0
   30.0930  -34.5236   -5.7612 C   0  0  0  0  0  0  0  0  0  0  0  0
   30.6735  -36.1162   -5.1057 S   0  0  0  0  0  0  0  0  0  0  0  0
   28.2199  -34.4990   -4.2248 C   0  0  0  0  0  0  0  0  0  0  0  0
   28.3606  -33.4127   -3.5881 O   0  0  0  0  0  0  0  0  0  0  0  0
   26.0078  -36.6588   -0.4943 O   0  0  0  0  0  0  0  0  0  0  0  0
   26.5241  -36.7710   -1.7810 C   0  0  0  0  0  0  0  0  0  0  0  0
   27.3752  -35.5272   -2.0692 C   0  0  2  0  0  0  0  0  0  0  0  0
   27.7276  -35.5915   -3.4693 N   0  0  0  0  0  0  0  0  0  0  0  0
   28.5575  -35.5531   -1.1869 C   0  0  0  0  0  0  0  0  0  0  0  0
   29.5934  -36.1071   -1.6279 O   0  0  0  0  0  0  0  0  0  0  0  0
   28.5986  -35.0114    0.0838 O   0  0  0  0  0  0  0  0  0  0  0  0
  1  2  1  0
  2  3  1  0
  3  4  2  0
  5  6  1  0
  5  3  1  0
  7  8  1  0
  6  7  1  1
  9 14  1  0
  9  6  1  0
 10  9  2  0
 12 11  1  0
 13 14  1  0
 13 12  1  1
 15 13  1  0
 16 15  2  0
 17 15  1  0
M  END
$$$$
