KHE.pdb
     RDKit          3D

 29 29  0  0  1  0  0  0  0  0999 V2000
   24.9730  -14.7382  -16.6488 N   0  0  0  0  0  0  0  0  0  0  0  0
   25.0864  -13.2930  -16.7065 C   0  0  1  0  0  0  0  0  0  0  0  0
   25.9156  -12.8592  -17.8984 C   0  0  0  0  0  0  0  0  0  0  0  0
   25.5726  -13.8116  -19.0309 C   0  0  0  0  0  0  0  0  0  0  0  0
   26.3654  -13.4910  -20.2892 C   0  0  0  0  0  0  0  0  0  0  0  0
   26.0217  -14.4660  -21.3972 C   0  0  0  0  0  0  0  0  0  0  0  0
   26.8088  -14.1075  -22.5650 N   0  0  0  0  0  0  0  0  0  0  0  0
   23.7444  -12.6499  -16.7176 C   0  0  0  0  0  0  0  0  0  0  0  0
   23.0324  -12.7237  -17.7398 O   0  0  0  0  0  0  0  0  0  0  0  0
   23.2779  -11.9566  -15.5661 N   0  0  0  0  0  0  0  0  0  0  0  0
   21.9563  -11.3063  -15.5274 C   0  0  1  0  0  0  0  0  0  0  0  0
   21.1256  -11.8694  -14.4363 C   0  0  0  0  0  0  0  0  0  0  0  0
   19.7808  -11.2845  -14.2785 C   0  0  0  0  0  0  0  0  0  0  0  0
   19.1870  -10.3114  -15.0711 C   0  0  0  0  0  0  0  0  0  0  0  0
   17.9723  -10.0935  -14.5485 N   0  0  0  0  0  0  0  0  0  0  0  0
   17.7737  -10.8784  -13.4705 C   0  0  0  0  0  0  0  0  0  0  0  0
   18.8917  -11.5923  -13.3314 N   0  0  0  0  0  0  0  0  0  0  0  0
   22.1769   -9.8263  -15.4226 C   0  0  0  0  0  0  0  0  0  0  0  0
   23.0818   -9.3194  -14.7414 O   0  0  0  0  0  0  0  0  0  0  0  0
   21.3282   -8.9171  -16.1219 N   0  0  0  0  0  0  0  0  0  0  0  0
   21.5906   -7.4820  -16.1939 C   0  0  1  0  0  0  0  0  0  0  0  0
   21.3167   -6.9564  -17.5620 C   0  0  0  0  0  0  0  0  0  0  0  0
   21.6089   -5.4946  -17.6685 C   0  0  0  0  0  0  0  0  0  0  0  0
   21.2866   -4.9929  -19.0576 C   0  0  0  0  0  0  0  0  0  0  0  0
   20.8730   -5.7955  -19.9160 O   0  0  0  0  0  0  0  0  0  0  0  0
   20.7975   -6.7572  -15.1829 C   0  0  0  0  0  0  0  0  0  0  0  0
   21.2555   -5.6307  -14.5286 O   0  0  0  0  0  0  0  0  0  0  0  0
   21.4372   -3.6659  -19.4066 O   0  0  0  0  0  0  0  0  0  0  0  0
   19.6323   -7.1737  -14.8788 O   0  0  0  0  0  0  0  0  0  0  0  0
  2  1  1  6
  3  2  1  0
  4  5  1  0
  4  3  1  0
  6  7  1  0
  6  5  1  0
  8  2  1  0
  9  8  2  0
 10  8  1  0
 11 10  1  0
 12 13  1  0
 11 12  1  1
 13 14  2  0
 14 15  1  0
 16 15  1  0
 17 13  1  0
 17 16  2  0
 18 11  1  0
 18 19  2  0
 20 18  1  0
 21 20  1  0
 21 22  1  6
 23 22  1  0
 24 23  1  0
 24 25  2  0
 26 21  1  0
 27 26  1  0
 28 24  1  0
 29 26  2  0
M  END
$$$$
