KHE.pdb
     RDKit          3D

 29 29  0  0  1  0  0  0  0  0999 V2000
   25.6915  -18.6869  -18.9675 N   0  0  0  0  0  0  0  0  0  0  0  0
   24.8904  -19.8524  -19.2913 C   0  0  1  0  0  0  0  0  0  0  0  0
   25.4718  -20.6011  -20.4737 C   0  0  0  0  0  0  0  0  0  0  0  0
   26.0462  -19.5503  -21.4081 C   0  0  0  0  0  0  0  0  0  0  0  0
   27.5498  -19.4054  -21.2280 C   0  0  0  0  0  0  0  0  0  0  0  0
   28.0984  -18.3484  -22.1651 C   0  0  0  0  0  0  0  0  0  0  0  0
   29.5147  -18.1929  -21.8797 N   0  0  0  0  0  0  0  0  0  0  0  0
   24.7369  -20.7429  -18.1088 C   0  0  0  0  0  0  0  0  0  0  0  0
   24.2008  -21.8616  -18.2434 O   0  0  0  0  0  0  0  0  0  0  0  0
   25.2016  -20.3181  -16.8330 N   0  0  0  0  0  0  0  0  0  0  0  0
   24.9806  -21.1172  -15.6150 C   0  0  1  0  0  0  0  0  0  0  0  0
   26.2697  -21.4436  -14.9598 C   0  0  0  0  0  0  0  0  0  0  0  0
   27.1366  -22.3982  -15.6759 C   0  0  0  0  0  0  0  0  0  0  0  0
   26.8528  -23.0723  -16.8560 C   0  0  0  0  0  0  0  0  0  0  0  0
   27.9275  -23.8273  -17.1231 N   0  0  0  0  0  0  0  0  0  0  0  0
   28.8693  -23.6619  -16.1728 C   0  0  0  0  0  0  0  0  0  0  0  0
   28.3592  -22.7860  -15.3058 N   0  0  0  0  0  0  0  0  0  0  0  0
   24.0265  -20.3615  -14.7382 C   0  0  0  0  0  0  0  0  0  0  0  0
   24.2469  -19.2128  -14.3236 O   0  0  0  0  0  0  0  0  0  0  0  0
   22.7924  -20.9526  -14.3339 N   0  0  0  0  0  0  0  0  0  0  0  0
   21.7867  -20.2356  -13.5542 C   0  0  1  0  0  0  0  0  0  0  0  0
   21.2446  -19.0759  -14.3184 C   0  0  0  0  0  0  0  0  0  0  0  0
   20.3943  -19.5116  -15.4677 C   0  0  0  0  0  0  0  0  0  0  0  0
   19.6652  -18.3281  -16.0619 C   0  0  0  0  0  0  0  0  0  0  0  0
   19.8783  -18.0125  -17.2481 O   0  0  0  0  0  0  0  0  0  0  0  0
   20.7026  -21.1467  -13.1407 C   0  0  0  0  0  0  0  0  0  0  0  0
   19.7959  -20.8397  -12.1455 O   0  0  0  0  0  0  0  0  0  0  0  0
   18.7659  -17.5820  -15.3271 O   0  0  0  0  0  0  0  0  0  0  0  0
   20.5789  -22.2790  -13.7118 O   0  0  0  0  0  0  0  0  0  0  0  0
  2  1  1  1
  3  2  1  0
  4  5  1  0
  4  3  1  0
  6  7  1  0
  6  5  1  0
  8  2  1  0
  9  8  2  0
 10  8  1  0
 11 10  1  0
 12 13  1  0
 11 12  1  1
 13 14  2  0
 14 15  1  0
 16 15  1  0
 17 13  1  0
 17 16  2  0
 18 11  1  0
 18 19  2  0
 20 18  1  0
 21 20  1  0
 21 22  1  6
 23 22  1  0
 24 23  1  0
 24 25  2  0
 26 21  1  0
 27 26  1  0
 28 24  1  0
 29 26  2  0
M  END
$$$$
