KHE.pdb
     RDKit          3D

 29 29  0  0  1  0  0  0  0  0999 V2000
   22.8494  -32.7007   -8.4492 N   0  0  0  0  0  0  0  0  0  0  0  0
   24.2163  -33.1642   -8.3018 C   0  0  1  0  0  0  0  0  0  0  0  0
   25.1279  -32.5017   -9.3150 C   0  0  0  0  0  0  0  0  0  0  0  0
   24.9535  -33.2665  -10.6157 C   0  0  0  0  0  0  0  0  0  0  0  0
   26.2784  -33.8178  -11.1208 C   0  0  0  0  0  0  0  0  0  0  0  0
   26.1100  -34.4293  -12.4971 C   0  0  0  0  0  0  0  0  0  0  0  0
   27.4113  -34.9060  -12.9342 N   0  0  0  0  0  0  0  0  0  0  0  0
   24.7069  -32.9537   -6.9127 C   0  0  0  0  0  0  0  0  0  0  0  0
   24.4534  -31.8834   -6.3235 O   0  0  0  0  0  0  0  0  0  0  0  0
   25.4599  -33.9706   -6.2621 N   0  0  0  0  0  0  0  0  0  0  0  0
   25.5449  -34.0618   -4.7940 C   0  0  1  0  0  0  0  0  0  0  0  0
   24.1919  -34.1415   -4.1935 C   0  0  0  0  0  0  0  0  0  0  0  0
   24.1414  -34.2576   -2.7240 C   0  0  0  0  0  0  0  0  0  0  0  0
   24.5620  -33.3204   -1.7899 C   0  0  0  0  0  0  0  0  0  0  0  0
   24.3253  -33.8599   -0.5862 N   0  0  0  0  0  0  0  0  0  0  0  0
   23.7788  -35.0854   -0.7167 C   0  0  0  0  0  0  0  0  0  0  0  0
   23.6788  -35.2995   -2.0293 N   0  0  0  0  0  0  0  0  0  0  0  0
   26.4294  -35.2257   -4.4578 C   0  0  0  0  0  0  0  0  0  0  0  0
   26.1945  -36.3877   -4.8246 O   0  0  0  0  0  0  0  0  0  0  0  0
   27.6097  -35.0360   -3.6787 N   0  0  0  0  0  0  0  0  0  0  0  0
   28.4643  -36.1405   -3.2509 C   0  0  1  0  0  0  0  0  0  0  0  0
   29.7016  -35.6344   -2.5906 C   0  0  0  0  0  0  0  0  0  0  0  0
   30.5716  -36.7480   -2.1043 C   0  0  0  0  0  0  0  0  0  0  0  0
   31.8045  -36.1955   -1.4260 C   0  0  0  0  0  0  0  0  0  0  0  0
   31.7297  -35.1159   -0.8087 O   0  0  0  0  0  0  0  0  0  0  0  0
   27.7261  -37.0529   -2.3569 C   0  0  0  0  0  0  0  0  0  0  0  0
   26.4700  -36.7698   -1.8582 O   0  0  0  0  0  0  0  0  0  0  0  0
   33.0173  -36.8532   -1.4697 O   0  0  0  0  0  0  0  0  0  0  0  0
   28.2540  -38.1598   -2.0109 O   0  0  0  0  0  0  0  0  0  0  0  0
  2  1  1  1
  3  2  1  0
  4  5  1  0
  4  3  1  0
  6  7  1  0
  6  5  1  0
  8  2  1  0
  9  8  2  0
 10  8  1  0
 11 10  1  0
 12 13  1  0
 11 12  1  1
 13 14  2  0
 14 15  1  0
 16 15  1  0
 17 13  1  0
 17 16  2  0
 18 11  1  0
 18 19  2  0
 20 18  1  0
 21 20  1  0
 21 22  1  1
 23 22  1  0
 24 23  1  0
 24 25  2  0
 26 21  1  0
 27 26  1  0
 28 24  1  0
 29 26  2  0
M  END
$$$$
