KHE.pdb
     RDKit          3D

 29 29  0  0  1  0  0  0  0  0999 V2000
   28.8478  -24.2636  -16.2915 N   0  0  0  0  0  0  0  0  0  0  0  0
   27.7022  -23.6890  -16.9715 C   0  0  1  0  0  0  0  0  0  0  0  0
   26.5977  -24.7131  -17.1373 C   0  0  0  0  0  0  0  0  0  0  0  0
   27.1817  -25.8462  -17.9633 C   0  0  0  0  0  0  0  0  0  0  0  0
   27.4115  -27.0910  -17.1195 C   0  0  0  0  0  0  0  0  0  0  0  0
   27.8899  -28.2394  -17.9849 C   0  0  0  0  0  0  0  0  0  0  0  0
   28.0704  -29.3979  -17.1265 N   0  0  0  0  0  0  0  0  0  0  0  0
   27.2129  -22.4743  -16.2645 C   0  0  0  0  0  0  0  0  0  0  0  0
   27.1944  -22.4509  -15.0170 O   0  0  0  0  0  0  0  0  0  0  0  0
   26.7704  -21.3464  -17.0104 N   0  0  0  0  0  0  0  0  0  0  0  0
   26.2575  -20.1296  -16.3569 C   0  0  1  0  0  0  0  0  0  0  0  0
   26.8785  -18.9175  -16.9423 C   0  0  0  0  0  0  0  0  0  0  0  0
   26.3855  -17.6253  -16.4294 C   0  0  0  0  0  0  0  0  0  0  0  0
   26.7770  -16.9759  -15.2663 C   0  0  0  0  0  0  0  0  0  0  0  0
   26.0620  -15.8437  -15.2115 N   0  0  0  0  0  0  0  0  0  0  0  0
   25.2434  -15.7495  -16.2785 C   0  0  0  0  0  0  0  0  0  0  0  0
   25.4632  -16.8483  -17.0019 N   0  0  0  0  0  0  0  0  0  0  0  0
   24.7608  -20.1539  -16.4537 C   0  0  0  0  0  0  0  0  0  0  0  0
   24.1488  -20.6284  -17.4234 O   0  0  0  0  0  0  0  0  0  0  0  0
   23.9590  -19.6149  -15.4037 N   0  0  0  0  0  0  0  0  0  0  0  0
   22.5005  -19.6916  -15.3994 C   0  0  1  0  0  0  0  0  0  0  0  0
   22.0398  -21.1093  -15.3685 C   0  0  0  0  0  0  0  0  0  0  0  0
   21.0504  -21.3997  -16.4504 C   0  0  0  0  0  0  0  0  0  0  0  0
   21.5409  -22.5331  -17.3222 C   0  0  0  0  0  0  0  0  0  0  0  0
   21.7034  -23.6623  -16.8216 O   0  0  0  0  0  0  0  0  0  0  0  0
   21.9431  -18.9320  -14.2642 C   0  0  0  0  0  0  0  0  0  0  0  0
   20.6194  -18.5459  -14.1904 O   0  0  0  0  0  0  0  0  0  0  0  0
   21.8160  -22.3549  -18.6631 O   0  0  0  0  0  0  0  0  0  0  0  0
   22.7010  -18.6010  -13.2948 O   0  0  0  0  0  0  0  0  0  0  0  0
  2  1  1  1
  3  2  1  0
  4  5  1  0
  4  3  1  0
  6  7  1  0
  6  5  1  0
  8  2  1  0
  9  8  2  0
 10  8  1  0
 11 10  1  0
 12 13  1  0
 11 12  1  6
 13 14  2  0
 14 15  1  0
 16 15  1  0
 17 13  1  0
 17 16  2  0
 18 11  1  0
 18 19  2  0
 20 18  1  0
 21 20  1  0
 21 22  1  1
 23 22  1  0
 24 23  1  0
 24 25  2  0
 26 21  1  0
 27 26  1  0
 28 24  1  0
 29 26  2  0
M  END
$$$$
