KHE.pdb
     RDKit          3D

 29 29  0  0  1  0  0  0  0  0999 V2000
   26.7947  -19.4999  -19.1707 N   0  0  0  0  0  0  0  0  0  0  0  0
   26.1020  -18.7000  -18.1780 C   0  0  1  0  0  0  0  0  0  0  0  0
   24.9493  -17.9384  -18.8005 C   0  0  0  0  0  0  0  0  0  0  0  0
   25.5584  -16.7453  -19.5165 C   0  0  0  0  0  0  0  0  0  0  0  0
   25.1447  -15.4336  -18.8663 C   0  0  0  0  0  0  0  0  0  0  0  0
   25.8061  -14.2622  -19.5641 C   0  0  0  0  0  0  0  0  0  0  0  0
   25.2208  -13.0416  -19.0357 N   0  0  0  0  0  0  0  0  0  0  0  0
   25.6437  -19.5394  -17.0378 C   0  0  0  0  0  0  0  0  0  0  0  0
   24.9597  -20.5597  -17.2575 O   0  0  0  0  0  0  0  0  0  0  0  0
   25.9869  -19.1783  -15.7051 N   0  0  0  0  0  0  0  0  0  0  0  0
   25.4547  -19.9025  -14.5375 C   0  0  1  0  0  0  0  0  0  0  0  0
   26.2348  -19.5798  -13.3190 C   0  0  0  0  0  0  0  0  0  0  0  0
   25.7453  -20.1733  -12.0606 C   0  0  0  0  0  0  0  0  0  0  0  0
   26.0098  -21.4449  -11.5699 C   0  0  0  0  0  0  0  0  0  0  0  0
   25.3538  -21.5403  -10.4052 N   0  0  0  0  0  0  0  0  0  0  0  0
   24.6923  -20.3958  -10.1402 C   0  0  0  0  0  0  0  0  0  0  0  0
   24.9501  -19.5827  -11.1655 N   0  0  0  0  0  0  0  0  0  0  0  0
   23.9933  -19.5825  -14.4270 C   0  0  0  0  0  0  0  0  0  0  0  0
   23.5353  -18.4369  -14.5601 O   0  0  0  0  0  0  0  0  0  0  0  0
   23.0455  -20.6137  -14.1552 N   0  0  0  0  0  0  0  0  0  0  0  0
   21.6204  -20.3530  -13.9691 C   0  0  1  0  0  0  0  0  0  0  0  0
   20.7942  -21.3104  -14.7588 C   0  0  0  0  0  0  0  0  0  0  0  0
   19.3332  -21.0191  -14.6395 C   0  0  0  0  0  0  0  0  0  0  0  0
   18.5305  -22.0099  -15.4516 C   0  0  0  0  0  0  0  0  0  0  0  0
   17.5862  -21.6009  -16.1538 O   0  0  0  0  0  0  0  0  0  0  0  0
   21.2646  -20.4062  -12.5384 C   0  0  0  0  0  0  0  0  0  0  0  0
   20.2958  -19.6027  -11.9703 O   0  0  0  0  0  0  0  0  0  0  0  0
   18.8127  -23.3610  -15.4392 O   0  0  0  0  0  0  0  0  0  0  0  0
   21.8692  -21.2219  -11.7686 O   0  0  0  0  0  0  0  0  0  0  0  0
  2  1  1  6
  3  2  1  0
  4  5  1  0
  4  3  1  0
  6  7  1  0
  6  5  1  0
  8  2  1  0
  9  8  2  0
 10  8  1  0
 11 10  1  0
 12 13  1  0
 11 12  1  1
 13 14  2  0
 14 15  1  0
 16 15  1  0
 17 13  1  0
 17 16  2  0
 18 11  1  0
 18 19  2  0
 20 18  1  0
 21 20  1  0
 21 22  1  6
 23 22  1  0
 24 23  1  0
 24 25  2  0
 26 21  1  0
 27 26  1  0
 28 24  1  0
 29 26  2  0
M  END
$$$$
