KHE.pdb
     RDKit          3D

 29 29  0  0  1  0  0  0  0  0999 V2000
   24.1876  -14.0568  -17.5380 N   0  0  0  0  0  0  0  0  0  0  0  0
   23.9890  -13.1180  -16.4497 C   0  0  1  0  0  0  0  0  0  0  0  0
   25.3155  -12.6452  -15.8900 C   0  0  0  0  0  0  0  0  0  0  0  0
   26.2048  -13.8730  -15.7951 C   0  0  0  0  0  0  0  0  0  0  0  0
   27.2417  -13.8983  -16.9080 C   0  0  0  0  0  0  0  0  0  0  0  0
   28.2115  -15.0451  -16.7056 C   0  0  0  0  0  0  0  0  0  0  0  0
   29.0125  -15.1683  -17.9117 N   0  0  0  0  0  0  0  0  0  0  0  0
   23.1426  -11.9715  -16.8784 C   0  0  0  0  0  0  0  0  0  0  0  0
   23.2925  -11.4848  -18.0177 O   0  0  0  0  0  0  0  0  0  0  0  0
   22.1672  -11.4363  -15.9917 N   0  0  0  0  0  0  0  0  0  0  0  0
   21.1970  -10.4142  -16.4219 C   0  0  1  0  0  0  0  0  0  0  0  0
   19.8713  -11.0247  -16.6813 C   0  0  0  0  0  0  0  0  0  0  0  0
   18.7807  -10.0884  -17.0123 C   0  0  0  0  0  0  0  0  0  0  0  0
   17.8801   -9.5000  -16.1345 C   0  0  0  0  0  0  0  0  0  0  0  0
   17.0756   -8.7326  -16.8829 N   0  0  0  0  0  0  0  0  0  0  0  0
   17.4245   -8.8092  -18.1829 C   0  0  0  0  0  0  0  0  0  0  0  0
   18.4656   -9.6415  -18.2301 N   0  0  0  0  0  0  0  0  0  0  0  0
   21.1766   -9.3348  -15.3805 C   0  0  0  0  0  0  0  0  0  0  0  0
   21.2387   -9.5628  -14.1623 O   0  0  0  0  0  0  0  0  0  0  0  0
   21.0808   -7.9632  -15.7620 N   0  0  0  0  0  0  0  0  0  0  0  0
   20.9588   -6.8767  -14.7935 C   0  0  1  0  0  0  0  0  0  0  0  0
   21.6595   -5.6514  -15.2736 C   0  0  0  0  0  0  0  0  0  0  0  0
   21.6619   -4.5685  -14.2435 C   0  0  0  0  0  0  0  0  0  0  0  0
   22.3977   -3.3528  -14.7591 C   0  0  0  0  0  0  0  0  0  0  0  0
   23.1916   -3.4777  -15.7111 O   0  0  0  0  0  0  0  0  0  0  0  0
   19.5398   -6.5932  -14.5062 C   0  0  0  0  0  0  0  0  0  0  0  0
   19.0686   -6.3015  -13.2415 O   0  0  0  0  0  0  0  0  0  0  0  0
   22.2166   -2.1016  -14.2049 O   0  0  0  0  0  0  0  0  0  0  0  0
   18.6882   -6.6167  -15.4537 O   0  0  0  0  0  0  0  0  0  0  0  0
  2  1  1  6
  3  2  1  0
  4  5  1  0
  4  3  1  0
  6  7  1  0
  6  5  1  0
  8  2  1  0
  9  8  2  0
 10  8  1  0
 11 10  1  0
 12 13  1  0
 11 12  1  1
 13 14  2  0
 14 15  1  0
 16 15  1  0
 17 13  1  0
 17 16  2  0
 18 11  1  0
 18 19  2  0
 20 18  1  0
 21 20  1  0
 21 22  1  6
 23 22  1  0
 24 23  1  0
 24 25  2  0
 26 21  1  0
 27 26  1  0
 28 24  1  0
 29 26  2  0
M  END
$$$$
