KHE.pdb
     RDKit          3D

 29 29  0  0  1  0  0  0  0  0999 V2000
   25.0700  -34.4600  -14.7156 N   0  0  0  0  0  0  0  0  0  0  0  0
   24.5455  -33.5900  -13.6799 C   0  0  1  0  0  0  0  0  0  0  0  0
   23.0312  -33.5471  -13.7204 C   0  0  0  0  0  0  0  0  0  0  0  0
   22.5559  -34.9821  -13.5723 C   0  0  0  0  0  0  0  0  0  0  0  0
   21.0490  -35.0920  -13.7498 C   0  0  0  0  0  0  0  0  0  0  0  0
   20.5830  -36.5078  -13.4765 C   0  0  0  0  0  0  0  0  0  0  0  0
   19.1525  -36.5613  -13.7268 N   0  0  0  0  0  0  0  0  0  0  0  0
   25.0400  -33.9969  -12.3366 C   0  0  0  0  0  0  0  0  0  0  0  0
   25.6048  -35.1005  -12.1944 O   0  0  0  0  0  0  0  0  0  0  0  0
   24.8694  -33.1288  -11.2223 N   0  0  0  0  0  0  0  0  0  0  0  0
   25.4024  -33.4557   -9.8881 C   0  0  1  0  0  0  0  0  0  0  0  0
   25.5740  -32.2277   -9.0757 C   0  0  0  0  0  0  0  0  0  0  0  0
   26.0574  -32.4260   -7.6964 C   0  0  0  0  0  0  0  0  0  0  0  0
   25.3655  -32.1810   -6.5178 C   0  0  0  0  0  0  0  0  0  0  0  0
   26.2005  -32.5030   -5.5202 N   0  0  0  0  0  0  0  0  0  0  0  0
   27.3788  -32.9365   -6.0114 C   0  0  0  0  0  0  0  0  0  0  0  0
   27.2612  -32.8788   -7.3387 N   0  0  0  0  0  0  0  0  0  0  0  0
   24.4915  -34.4735   -9.2678 C   0  0  0  0  0  0  0  0  0  0  0  0
   23.2561  -34.4390   -9.3789 O   0  0  0  0  0  0  0  0  0  0  0  0
   25.0267  -35.5520   -8.5020 N   0  0  0  0  0  0  0  0  0  0  0  0
   24.1888  -36.4957   -7.7668 C   0  0  1  0  0  0  0  0  0  0  0  0
   25.0143  -37.5670   -7.1391 C   0  0  0  0  0  0  0  0  0  0  0  0
   25.5115  -38.5526   -8.1466 C   0  0  0  0  0  0  0  0  0  0  0  0
   26.3202  -39.6355   -7.4693 C   0  0  0  0  0  0  0  0  0  0  0  0
   26.5215  -39.5697   -6.2416 O   0  0  0  0  0  0  0  0  0  0  0  0
   23.3798  -35.7925   -6.7532 C   0  0  0  0  0  0  0  0  0  0  0  0
   23.7577  -34.5922   -6.1846 O   0  0  0  0  0  0  0  0  0  0  0  0
   26.8456  -40.7007   -8.1727 O   0  0  0  0  0  0  0  0  0  0  0  0
   22.2772  -36.2992   -6.3646 O   0  0  0  0  0  0  0  0  0  0  0  0
  2  1  1  6
  3  2  1  0
  4  5  1  0
  4  3  1  0
  6  7  1  0
  6  5  1  0
  8  2  1  0
  9  8  2  0
 10  8  1  0
 11 10  1  0
 12 13  1  0
 11 12  1  1
 13 14  2  0
 14 15  1  0
 16 15  1  0
 17 13  1  0
 17 16  2  0
 18 11  1  0
 18 19  2  0
 20 18  1  0
 21 20  1  0
 21 22  1  1
 23 22  1  0
 24 23  1  0
 24 25  2  0
 26 21  1  0
 27 26  1  0
 28 24  1  0
 29 26  2  0
M  END
$$$$
