FQT.pdb
     RDKit          3D

 28 28  0  0  1  0  0  0  0  0999 V2000
    7.1078  -14.9141   20.8675 N   0  0  0  0  0  0  0  0  0  0  0  0
    7.4691  -14.4768   22.1890 C   0  0  1  0  0  0  0  0  0  0  0  0
    6.2999  -13.9999   23.0047 C   0  0  0  0  0  0  0  0  0  0  0  0
    6.7781  -13.5840   24.3480 C   0  0  0  0  0  0  0  0  0  0  0  0
    7.3026  -12.3215   24.4748 C   0  0  0  0  0  0  0  0  0  0  0  0
    7.7544  -11.9123   25.7169 C   0  0  0  0  0  0  0  0  0  0  0  0
    7.6884  -12.7337   26.8077 C   0  0  0  0  0  0  0  0  0  0  0  0
    7.1627  -13.9951   26.6742 C   0  0  0  0  0  0  0  0  0  0  0  0
    6.7051  -14.4228   25.4383 C   0  0  0  0  0  0  0  0  0  0  0  0
    8.1659  -15.5707   22.9485 C   0  0  0  0  0  0  0  0  0  0  0  0
    7.6360  -16.6946   23.0928 O   0  0  0  0  0  0  0  0  0  0  0  0
   13.0178  -17.3057   21.6144 N   0  0  0  0  0  0  0  0  0  0  0  0
   13.3086  -17.8733   22.8772 C   0  0  0  0  0  0  0  0  0  0  0  0
   14.0777  -18.8500   23.0487 O   0  0  0  0  0  0  0  0  0  0  0  0
   12.6524  -17.2625   24.0755 C   0  0  0  0  0  0  0  0  0  0  0  0
   11.7274  -16.1602   23.6432 C   0  0  0  0  0  0  0  0  0  0  0  0
   10.3045  -16.3846   24.0288 C   0  0  2  0  0  0  0  0  0  0  0  0
    9.4468  -15.3148   23.5081 N   0  0  0  0  0  0  0  0  0  0  0  0
   10.0500  -16.5903   25.4644 C   0  0  0  0  0  0  0  0  0  0  0  0
   10.0464  -15.6604   26.2711 O   0  0  0  0  0  0  0  0  0  0  0  0
    6.9819  -18.2976   27.1681 C   0  0  0  0  0  0  0  0  0  0  0  0
    8.2442  -18.9969   27.5817 C   0  0  1  0  0  0  0  0  0  0  0  0
    8.4338  -20.1644   26.8345 O   0  0  0  0  0  0  0  0  0  0  0  0
    9.4754  -18.1464   27.3823 C   0  0  2  0  0  0  0  0  0  0  0  0
    9.7885  -17.8974   26.0153 N   0  0  0  0  0  0  0  0  0  0  0  0
   10.6025  -18.8422   28.0445 C   0  0  0  0  0  0  0  0  0  0  0  0
   11.5862  -19.1982   27.3521 O   0  0  0  0  0  0  0  0  0  0  0  0
   10.6205  -19.1205   29.4055 O   0  0  0  0  0  0  0  0  0  0  0  0
  2  1  1  6
  2  3  1  0
  3  4  1  0
  4  9  2  0
  5  6  2  0
  5  4  1  0
  6  7  1  0
  7  8  2  0
  9  8  1  0
 10 18  1  0
 10  2  1  0
 11 10  2  0
 13 12  1  0
 13 15  1  0
 14 13  2  0
 17 16  1  1
 16 15  1  0
 17 18  1  0
 19 20  2  0
 19 17  1  0
 22 21  1  6
 22 23  1  0
 24 22  1  0
 24 25  1  6
 25 19  1  0
 26 24  1  0
 27 26  2  0
 28 26  1  0
M  END
$$$$
