FQT.pdb
     RDKit          3D

 28 28  0  0  1  0  0  0  0  0999 V2000
    5.4912  -16.9476   25.1515 N   0  0  0  0  0  0  0  0  0  0  0  0
    6.4095  -15.9257   24.7265 C   0  0  1  0  0  0  0  0  0  0  0  0
    7.1867  -15.3089   25.8558 C   0  0  0  0  0  0  0  0  0  0  0  0
    6.7137  -13.9177   26.0723 C   0  0  0  0  0  0  0  0  0  0  0  0
    5.5197  -13.7455   26.7277 C   0  0  0  0  0  0  0  0  0  0  0  0
    5.0592  -12.4583   26.9407 C   0  0  0  0  0  0  0  0  0  0  0  0
    5.7643  -11.3672   26.5149 C   0  0  0  0  0  0  0  0  0  0  0  0
    6.9579  -11.5463   25.8601 C   0  0  0  0  0  0  0  0  0  0  0  0
    7.4353  -12.8278   25.6374 C   0  0  0  0  0  0  0  0  0  0  0  0
    7.3830  -16.4611   23.7142 C   0  0  0  0  0  0  0  0  0  0  0  0
    7.8518  -17.6163   23.8180 O   0  0  0  0  0  0  0  0  0  0  0  0
    6.9320  -14.0061   18.3229 N   0  0  0  0  0  0  0  0  0  0  0  0
    7.8001  -13.3042   19.1918 C   0  0  0  0  0  0  0  0  0  0  0  0
    8.3448  -12.2099   18.9083 O   0  0  0  0  0  0  0  0  0  0  0  0
    8.0784  -13.9147   20.5296 C   0  0  0  0  0  0  0  0  0  0  0  0
    8.5899  -15.3164   20.3533 C   0  0  0  0  0  0  0  0  0  0  0  0
    8.7680  -16.0564   21.6356 C   0  0  2  0  0  0  0  0  0  0  0  0
    7.7712  -15.6347   22.6254 N   0  0  0  0  0  0  0  0  0  0  0  0
   10.1183  -16.0161   22.2214 C   0  0  0  0  0  0  0  0  0  0  0  0
   10.8776  -15.0610   22.0576 O   0  0  0  0  0  0  0  0  0  0  0  0
   11.5067  -15.7181   25.6916 C   0  0  0  0  0  0  0  0  0  0  0  0
   11.8771  -17.0675   25.1480 C   0  0  1  0  0  0  0  0  0  0  0  0
   10.9484  -18.0357   25.5448 O   0  0  0  0  0  0  0  0  0  0  0  0
   11.9211  -17.0975   23.6393 C   0  0  2  0  0  0  0  0  0  0  0  0
   10.6360  -17.0961   23.0252 N   0  0  0  0  0  0  0  0  0  0  0  0
   12.6726  -18.3111   23.2453 C   0  0  0  0  0  0  0  0  0  0  0  0
   13.8955  -18.3817   23.5162 O   0  0  0  0  0  0  0  0  0  0  0  0
   12.0820  -19.3816   22.5855 O   0  0  0  0  0  0  0  0  0  0  0  0
  2  1  1  1
  2  3  1  0
  3  4  1  0
  4  9  2  0
  5  6  2  0
  5  4  1  0
  6  7  1  0
  7  8  2  0
  9  8  1  0
 10 18  1  0
 10  2  1  0
 11 10  2  0
 13 12  1  0
 13 15  1  0
 14 13  2  0
 17 16  1  6
 16 15  1  0
 17 18  1  0
 19 20  2  0
 19 17  1  0
 22 21  1  6
 22 23  1  0
 24 22  1  0
 24 25  1  6
 25 19  1  0
 26 24  1  0
 27 26  2  0
 28 26  1  0
M  END
$$$$
