FQT.pdb
     RDKit          3D

 28 28  0  0  1  0  0  0  0  0999 V2000
    5.9307  -16.7398   24.9020 N   0  0  0  0  0  0  0  0  0  0  0  0
    7.0373  -15.8597   24.6393 C   0  0  1  0  0  0  0  0  0  0  0  0
    7.7283  -15.3754   25.8834 C   0  0  0  0  0  0  0  0  0  0  0  0
    7.2971  -13.9837   26.1720 C   0  0  0  0  0  0  0  0  0  0  0  0
    8.1657  -12.9689   25.8547 C   0  0  0  0  0  0  0  0  0  0  0  0
    7.7853  -11.6643   26.1145 C   0  0  0  0  0  0  0  0  0  0  0  0
    6.5734  -11.3712   26.6754 C   0  0  0  0  0  0  0  0  0  0  0  0
    5.7093  -12.3907   26.9904 C   0  0  0  0  0  0  0  0  0  0  0  0
    6.0726  -13.7038   26.7376 C   0  0  0  0  0  0  0  0  0  0  0  0
    8.0564  -16.5220   23.7550 C   0  0  0  0  0  0  0  0  0  0  0  0
    8.3736  -17.7205   23.9214 O   0  0  0  0  0  0  0  0  0  0  0  0
    7.7151  -16.2253   18.4710 N   0  0  0  0  0  0  0  0  0  0  0  0
    7.5593  -15.0223   19.1990 C   0  0  0  0  0  0  0  0  0  0  0  0
    6.6436  -14.1895   18.9930 O   0  0  0  0  0  0  0  0  0  0  0  0
    8.5547  -14.7362   20.2794 C   0  0  0  0  0  0  0  0  0  0  0  0
    9.4925  -15.9004   20.4292 C   0  0  0  0  0  0  0  0  0  0  0  0
    9.7024  -16.3244   21.8434 C   0  0  2  0  0  0  0  0  0  0  0  0
    8.6639  -15.7666   22.7160 N   0  0  0  0  0  0  0  0  0  0  0  0
   11.0376  -16.0598   22.4047 C   0  0  0  0  0  0  0  0  0  0  0  0
   11.3256  -14.9888   22.9388 O   0  0  0  0  0  0  0  0  0  0  0  0
   13.1477  -18.6931   25.5698 C   0  0  0  0  0  0  0  0  0  0  0  0
   12.2264  -17.9542   24.6431 C   0  0  1  0  0  0  0  0  0  0  0  0
   11.5916  -16.9000   25.3089 O   0  0  0  0  0  0  0  0  0  0  0  0
   12.9466  -17.3526   23.4604 C   0  0  2  0  0  0  0  0  0  0  0  0
   12.0932  -17.0420   22.3632 N   0  0  0  0  0  0  0  0  0  0  0  0
   13.9855  -18.3203   23.0397 C   0  0  0  0  0  0  0  0  0  0  0  0
   15.0813  -18.3373   23.6503 O   0  0  0  0  0  0  0  0  0  0  0  0
   13.8013  -19.2157   21.9934 O   0  0  0  0  0  0  0  0  0  0  0  0
  2  1  1  1
  2  3  1  0
  3  4  1  0
  4  9  2  0
  5  6  2  0
  5  4  1  0
  6  7  1  0
  7  8  2  0
  9  8  1  0
 10 18  1  0
 10  2  1  0
 11 10  2  0
 13 12  1  0
 13 15  1  0
 14 13  2  0
 17 16  1  6
 16 15  1  0
 17 18  1  0
 19 20  2  0
 19 17  1  0
 22 21  1  1
 22 23  1  0
 24 22  1  0
 24 25  1  6
 25 19  1  0
 26 24  1  0
 27 26  2  0
 28 26  1  0
M  END
$$$$
