FQT.pdb
     RDKit          3D

 28 28  0  0  1  0  0  0  0  0999 V2000
    5.8289  -18.1700   24.2380 N   0  0  0  0  0  0  0  0  0  0  0  0
    6.4470  -16.9126   24.5618 C   0  0  1  0  0  0  0  0  0  0  0  0
    6.1839  -16.4589   25.9707 C   0  0  0  0  0  0  0  0  0  0  0  0
    6.5267  -15.0189   26.0927 C   0  0  0  0  0  0  0  0  0  0  0  0
    7.2471  -14.6266   27.1937 C   0  0  0  0  0  0  0  0  0  0  0  0
    7.5779  -13.2899   27.3284 C   0  0  0  0  0  0  0  0  0  0  0  0
    7.2043  -12.3634   26.3952 C   0  0  0  0  0  0  0  0  0  0  0  0
    6.4839  -12.7623   25.2964 C   0  0  0  0  0  0  0  0  0  0  0  0
    6.1432  -14.0967   25.1440 C   0  0  0  0  0  0  0  0  0  0  0  0
    7.9339  -16.9708   24.3495 C   0  0  0  0  0  0  0  0  0  0  0  0
    8.5975  -17.9707   24.7026 O   0  0  0  0  0  0  0  0  0  0  0  0
   10.8822  -13.3588   20.0289 N   0  0  0  0  0  0  0  0  0  0  0  0
    9.5619  -13.8317   20.2146 C   0  0  0  0  0  0  0  0  0  0  0  0
    8.5500  -13.3209   19.6764 O   0  0  0  0  0  0  0  0  0  0  0  0
    9.3729  -15.0153   21.1108 C   0  0  0  0  0  0  0  0  0  0  0  0
   10.2993  -14.9148   22.2894 C   0  0  0  0  0  0  0  0  0  0  0  0
   10.0067  -15.9011   23.3690 C   0  0  2  0  0  0  0  0  0  0  0  0
    8.5874  -15.8676   23.7370 N   0  0  0  0  0  0  0  0  0  0  0  0
   10.8491  -15.8082   24.5731 C   0  0  0  0  0  0  0  0  0  0  0  0
   12.0777  -15.7604   24.5136 O   0  0  0  0  0  0  0  0  0  0  0  0
    9.9626  -13.4236   27.7876 C   0  0  0  0  0  0  0  0  0  0  0  0
   10.2995  -14.8342   28.1752 C   0  0  1  0  0  0  0  0  0  0  0  0
    9.1383  -15.5670   28.4438 O   0  0  0  0  0  0  0  0  0  0  0  0
   11.0427  -15.5763   27.0908 C   0  0  2  0  0  0  0  0  0  0  0  0
   10.2850  -15.7673   25.8999 N   0  0  0  0  0  0  0  0  0  0  0  0
   11.4479  -16.8853   27.6522 C   0  0  0  0  0  0  0  0  0  0  0  0
   12.2437  -16.9091   28.6218 O   0  0  0  0  0  0  0  0  0  0  0  0
   10.9845  -18.0955   27.1514 O   0  0  0  0  0  0  0  0  0  0  0  0
  2  1  1  1
  2  3  1  0
  3  4  1  0
  4  9  2  0
  5  6  2  0
  5  4  1  0
  6  7  1  0
  7  8  2  0
  9  8  1  0
 10 18  1  0
 10  2  1  0
 11 10  2  0
 13 12  1  0
 13 15  1  0
 14 13  2  0
 17 16  1  6
 16 15  1  0
 17 18  1  0
 19 20  2  0
 19 17  1  0
 22 21  1  6
 22 23  1  0
 24 22  1  0
 24 25  1  6
 25 19  1  0
 26 24  1  0
 27 26  2  0
 28 26  1  0
M  END
$$$$
