FQT.pdb
     RDKit          3D

 28 28  0  0  1  0  0  0  0  0999 V2000
    5.4838  -17.4247   25.3790 N   0  0  0  0  0  0  0  0  0  0  0  0
    6.1968  -16.2104   25.0873 C   0  0  1  0  0  0  0  0  0  0  0  0
    6.9348  -15.6481   26.2701 C   0  0  0  0  0  0  0  0  0  0  0  0
    6.7791  -14.1711   26.2865 C   0  0  0  0  0  0  0  0  0  0  0  0
    5.8293  -13.6400   27.1236 C   0  0  0  0  0  0  0  0  0  0  0  0
    5.6665  -12.2664   27.1557 C   0  0  0  0  0  0  0  0  0  0  0  0
    6.4261  -11.4381   26.3773 C   0  0  0  0  0  0  0  0  0  0  0  0
    7.3744  -11.9756   25.5423 C   0  0  0  0  0  0  0  0  0  0  0  0
    7.5521  -13.3490   25.4963 C   0  0  0  0  0  0  0  0  0  0  0  0
    7.1774  -16.4153   23.9668 C   0  0  0  0  0  0  0  0  0  0  0  0
    7.8028  -17.4919   23.8454 O   0  0  0  0  0  0  0  0  0  0  0  0
    7.4554  -12.6196   19.0096 N   0  0  0  0  0  0  0  0  0  0  0  0
    8.4426  -13.5543   18.6184 C   0  0  0  0  0  0  0  0  0  0  0  0
    8.9821  -13.5746   17.4856 O   0  0  0  0  0  0  0  0  0  0  0  0
    8.8615  -14.5777   19.6269 C   0  0  0  0  0  0  0  0  0  0  0  0
    7.9875  -14.4797   20.8452 C   0  0  0  0  0  0  0  0  0  0  0  0
    8.2918  -15.5029   21.8864 C   0  0  2  0  0  0  0  0  0  0  0  0
    7.3909  -15.3637   23.0353 N   0  0  0  0  0  0  0  0  0  0  0  0
    9.6914  -15.5657   22.3394 C   0  0  0  0  0  0  0  0  0  0  0  0
   10.1790  -14.7178   23.0869 O   0  0  0  0  0  0  0  0  0  0  0  0
   11.9083  -18.3486   24.2488 C   0  0  0  0  0  0  0  0  0  0  0  0
   12.3309  -18.1038   22.8292 C   0  0  1  0  0  0  0  0  0  0  0  0
   11.7350  -19.0296   21.9661 O   0  0  0  0  0  0  0  0  0  0  0  0
   11.9431  -16.7319   22.3327 C   0  0  2  0  0  0  0  0  0  0  0  0
   10.5797  -16.6275   21.9341 N   0  0  0  0  0  0  0  0  0  0  0  0
   12.8330  -16.4086   21.1940 C   0  0  0  0  0  0  0  0  0  0  0  0
   12.3624  -16.4312   20.0313 O   0  0  0  0  0  0  0  0  0  0  0  0
   14.1731  -16.0796   21.3552 O   0  0  0  0  0  0  0  0  0  0  0  0
  2  1  1  1
  2  3  1  0
  3  4  1  0
  4  9  2  0
  5  6  2  0
  5  4  1  0
  6  7  1  0
  7  8  2  0
  9  8  1  0
 10 18  1  0
 10  2  1  0
 11 10  2  0
 13 12  1  0
 13 15  1  0
 14 13  2  0
 17 16  1  6
 16 15  1  0
 17 18  1  0
 19 20  2  0
 19 17  1  0
 22 21  1  1
 22 23  1  0
 24 22  1  0
 24 25  1  6
 25 19  1  0
 26 24  1  0
 27 26  2  0
 28 26  1  0
M  END
$$$$
