FQT.pdb
     RDKit          3D

 28 28  0  0  1  0  0  0  0  0999 V2000
    7.6124  -16.6833   26.1148 N   0  0  0  0  0  0  0  0  0  0  0  0
    6.5099  -16.7448   25.1935 C   0  0  1  0  0  0  0  0  0  0  0  0
    5.5702  -15.5765   25.3021 C   0  0  0  0  0  0  0  0  0  0  0  0
    6.3313  -14.3749   25.7298 C   0  0  0  0  0  0  0  0  0  0  0  0
    6.9689  -13.6451   24.7572 C   0  0  0  0  0  0  0  0  0  0  0  0
    7.6840  -12.5216   25.1323 C   0  0  0  0  0  0  0  0  0  0  0  0
    7.7660  -12.1299   26.4395 C   0  0  0  0  0  0  0  0  0  0  0  0
    7.1260  -12.8641   27.4073 C   0  0  0  0  0  0  0  0  0  0  0  0
    6.4049  -13.9923   27.0512 C   0  0  0  0  0  0  0  0  0  0  0  0
    6.9962  -16.8352   23.7741 C   0  0  0  0  0  0  0  0  0  0  0  0
    6.8413  -17.8802   23.1043 O   0  0  0  0  0  0  0  0  0  0  0  0
    7.2361  -12.4806   19.6156 N   0  0  0  0  0  0  0  0  0  0  0  0
    8.0311  -13.4462   18.9545 C   0  0  0  0  0  0  0  0  0  0  0  0
    8.1490  -13.5256   17.7077 O   0  0  0  0  0  0  0  0  0  0  0  0
    8.7730  -14.4285   19.8057 C   0  0  0  0  0  0  0  0  0  0  0  0
    8.2002  -14.4334   21.1947 C   0  0  0  0  0  0  0  0  0  0  0  0
    8.2676  -15.7627   21.8673 C   0  0  2  0  0  0  0  0  0  0  0  0
    7.6411  -15.7105   23.1924 N   0  0  0  0  0  0  0  0  0  0  0  0
    9.6046  -16.3726   21.9580 C   0  0  0  0  0  0  0  0  0  0  0  0
   10.3566  -16.4554   20.9869 O   0  0  0  0  0  0  0  0  0  0  0  0
   12.6293  -15.1820   23.5496 C   0  0  0  0  0  0  0  0  0  0  0  0
   12.3083  -16.4839   24.2247 C   0  0  1  0  0  0  0  0  0  0  0  0
   11.6102  -16.2668   25.4176 O   0  0  0  0  0  0  0  0  0  0  0  0
   11.4479  -17.3866   23.3738 C   0  0  2  0  0  0  0  0  0  0  0  0
   10.1171  -16.9121   23.1937 N   0  0  0  0  0  0  0  0  0  0  0  0
   11.4308  -18.7175   24.0228 C   0  0  0  0  0  0  0  0  0  0  0  0
   10.3525  -19.1455   24.5001 O   0  0  0  0  0  0  0  0  0  0  0  0
   12.5610  -19.5187   24.1280 O   0  0  0  0  0  0  0  0  0  0  0  0
  2  1  1  1
  2  3  1  0
  3  4  1  0
  4  9  2  0
  5  6  2  0
  5  4  1  0
  6  7  1  0
  7  8  2  0
  9  8  1  0
 10 18  1  0
 10  2  1  0
 11 10  2  0
 13 12  1  0
 13 15  1  0
 14 13  2  0
 17 16  1  1
 16 15  1  0
 17 18  1  0
 19 20  2  0
 19 17  1  0
 22 21  1  6
 22 23  1  0
 24 22  1  0
 24 25  1  1
 25 19  1  0
 26 24  1  0
 27 26  2  0
 28 26  1  0
M  END
$$$$
