FQT.pdb
     RDKit          3D

 28 28  0  0  1  0  0  0  0  0999 V2000
    5.9455  -16.4059   23.6545 N   0  0  0  0  0  0  0  0  0  0  0  0
    7.1442  -15.8670   24.2381 C   0  0  1  0  0  0  0  0  0  0  0  0
    6.9691  -15.4150   25.6611 C   0  0  0  0  0  0  0  0  0  0  0  0
    6.6376  -13.9672   25.6769 C   0  0  0  0  0  0  0  0  0  0  0  0
    7.5439  -13.1000   25.1189 C   0  0  0  0  0  0  0  0  0  0  0  0
    7.2563  -11.7467   25.1222 C   0  0  0  0  0  0  0  0  0  0  0  0
    6.0986  -11.2633   25.6653 C   0  0  0  0  0  0  0  0  0  0  0  0
    5.1962  -12.1359   26.2219 C   0  0  0  0  0  0  0  0  0  0  0  0
    5.4667  -13.4948   26.2279 C   0  0  0  0  0  0  0  0  0  0  0  0
    8.2654  -16.8669   24.1901 C   0  0  0  0  0  0  0  0  0  0  0  0
    8.2035  -17.8706   23.4459 O   0  0  0  0  0  0  0  0  0  0  0  0
   12.1826  -16.6526   20.4921 N   0  0  0  0  0  0  0  0  0  0  0  0
   12.4200  -17.7252   21.3836 C   0  0  0  0  0  0  0  0  0  0  0  0
   12.6146  -18.9107   21.0212 O   0  0  0  0  0  0  0  0  0  0  0  0
   12.4378  -17.4142   22.8474 C   0  0  0  0  0  0  0  0  0  0  0  0
   11.1037  -16.8655   23.2678 C   0  0  0  0  0  0  0  0  0  0  0  0
   10.7260  -17.2123   24.6681 C   0  0  2  0  0  0  0  0  0  0  0  0
    9.4100  -16.6605   25.0065 N   0  0  0  0  0  0  0  0  0  0  0  0
   11.7092  -16.8623   25.7068 C   0  0  0  0  0  0  0  0  0  0  0  0
   12.4323  -15.8699   25.6197 O   0  0  0  0  0  0  0  0  0  0  0  0
   10.7563  -15.0512   27.8095 C   0  0  0  0  0  0  0  0  0  0  0  0
   10.9800  -16.2471   28.6888 C   0  0  1  0  0  0  0  0  0  0  0  0
    9.8314  -17.0439   28.7466 O   0  0  0  0  0  0  0  0  0  0  0  0
   12.1004  -17.1318   28.1977 C   0  0  2  0  0  0  0  0  0  0  0  0
   11.8859  -17.6629   26.8936 N   0  0  0  0  0  0  0  0  0  0  0  0
   12.2535  -18.2320   29.1770 C   0  0  0  0  0  0  0  0  0  0  0  0
   11.9080  -19.3915   28.8452 O   0  0  0  0  0  0  0  0  0  0  0  0
   12.7651  -18.0378   30.4540 O   0  0  0  0  0  0  0  0  0  0  0  0
  2  1  1  1
  2  3  1  0
  3  4  1  0
  4  9  2  0
  5  6  2  0
  5  4  1  0
  6  7  1  0
  7  8  2  0
  9  8  1  0
 10 18  1  0
 10  2  1  0
 11 10  2  0
 13 12  1  0
 13 15  1  0
 14 13  2  0
 17 16  1  6
 16 15  1  0
 17 18  1  0
 19 20  2  0
 19 17  1  0
 22 21  1  6
 22 23  1  0
 24 22  1  0
 24 25  1  6
 25 19  1  0
 26 24  1  0
 27 26  2  0
 28 26  1  0
M  END
$$$$
