FQT.pdb
     RDKit          3D

 28 28  0  0  1  0  0  0  0  0999 V2000
    5.4899  -16.0327   24.6482 N   0  0  0  0  0  0  0  0  0  0  0  0
    6.7584  -15.6020   24.1250 C   0  0  1  0  0  0  0  0  0  0  0  0
    7.7315  -15.1718   25.1870 C   0  0  0  0  0  0  0  0  0  0  0  0
    7.2830  -13.8801   25.7670 C   0  0  0  0  0  0  0  0  0  0  0  0
    7.9240  -12.7389   25.3526 C   0  0  0  0  0  0  0  0  0  0  0  0
    7.5230  -11.5241   25.8794 C   0  0  0  0  0  0  0  0  0  0  0  0
    6.5112  -11.4410   26.7950 C   0  0  0  0  0  0  0  0  0  0  0  0
    5.8742  -12.5861   27.2053 C   0  0  0  0  0  0  0  0  0  0  0  0
    6.2617  -13.8120   26.6890 C   0  0  0  0  0  0  0  0  0  0  0  0
    7.3988  -16.6840   23.3014 C   0  0  0  0  0  0  0  0  0  0  0  0
    6.7306  -17.6524   22.8765 O   0  0  0  0  0  0  0  0  0  0  0  0
    7.3403  -12.4330   19.3350 N   0  0  0  0  0  0  0  0  0  0  0  0
    7.8182  -13.7642   19.3612 C   0  0  0  0  0  0  0  0  0  0  0  0
    7.2968  -14.7111   18.7240 O   0  0  0  0  0  0  0  0  0  0  0  0
    9.0211  -14.0486   20.2051 C   0  0  0  0  0  0  0  0  0  0  0  0
    8.5982  -14.6972   21.4927 C   0  0  0  0  0  0  0  0  0  0  0  0
    9.2890  -15.9894   21.7694 C   0  0  2  0  0  0  0  0  0  0  0  0
    8.7860  -16.5969   23.0059 N   0  0  0  0  0  0  0  0  0  0  0  0
   10.7607  -15.9437   21.7846 C   0  0  0  0  0  0  0  0  0  0  0  0
   11.3973  -15.0712   21.1940 O   0  0  0  0  0  0  0  0  0  0  0  0
   10.8650  -16.9395   25.5809 C   0  0  0  0  0  0  0  0  0  0  0  0
   12.0701  -17.4425   24.8404 C   0  0  1  0  0  0  0  0  0  0  0  0
   11.8764  -18.7602   24.4119 O   0  0  0  0  0  0  0  0  0  0  0  0
   12.3831  -16.6252   23.6103 C   0  0  2  0  0  0  0  0  0  0  0  0
   11.5490  -16.9211   22.4943 N   0  0  0  0  0  0  0  0  0  0  0  0
   13.8017  -16.8741   23.2663 C   0  0  0  0  0  0  0  0  0  0  0  0
   14.0722  -17.4349   22.1771 O   0  0  0  0  0  0  0  0  0  0  0  0
   14.8533  -16.5130   24.0994 O   0  0  0  0  0  0  0  0  0  0  0  0
  2  1  1  1
  2  3  1  0
  3  4  1  0
  4  9  2  0
  5  6  2  0
  5  4  1  0
  6  7  1  0
  7  8  2  0
  9  8  1  0
 10 18  1  0
 10  2  1  0
 11 10  2  0
 13 12  1  0
 13 15  1  0
 14 13  2  0
 17 16  1  1
 16 15  1  0
 17 18  1  0
 19 20  2  0
 19 17  1  0
 22 21  1  6
 22 23  1  0
 24 22  1  0
 24 25  1  6
 25 19  1  0
 26 24  1  0
 27 26  2  0
 28 26  1  0
M  END
$$$$
