FQT.pdb
     RDKit          3D

 28 28  0  0  1  0  0  0  0  0999 V2000
    7.1178  -17.9492   19.5689 N   0  0  0  0  0  0  0  0  0  0  0  0
    7.8180  -16.9836   20.3724 C   0  0  1  0  0  0  0  0  0  0  0  0
    6.9073  -16.0854   21.1620 C   0  0  0  0  0  0  0  0  0  0  0  0
    7.2598  -14.6688   20.8879 C   0  0  0  0  0  0  0  0  0  0  0  0
    7.7642  -13.9254   21.9262 C   0  0  0  0  0  0  0  0  0  0  0  0
    8.0996  -12.6033   21.6942 C   0  0  0  0  0  0  0  0  0  0  0  0
    7.9393  -12.0307   20.4632 C   0  0  0  0  0  0  0  0  0  0  0  0
    7.4344  -12.7795   19.4290 C   0  0  0  0  0  0  0  0  0  0  0  0
    7.0927  -14.1053   19.6420 C   0  0  0  0  0  0  0  0  0  0  0  0
    8.7654  -17.6581   21.3245 C   0  0  0  0  0  0  0  0  0  0  0  0
    8.3838  -18.5971   22.0577 O   0  0  0  0  0  0  0  0  0  0  0  0
   14.8167  -17.9461   20.4020 N   0  0  0  0  0  0  0  0  0  0  0  0
   13.7704  -18.4967   19.6252 C   0  0  0  0  0  0  0  0  0  0  0  0
   13.9225  -18.9627   18.4701 O   0  0  0  0  0  0  0  0  0  0  0  0
   12.4013  -18.5191   20.2293 C   0  0  0  0  0  0  0  0  0  0  0  0
   12.4399  -17.9076   21.6012 C   0  0  0  0  0  0  0  0  0  0  0  0
   11.1069  -17.8403   22.2663 C   0  0  2  0  0  0  0  0  0  0  0  0
   10.1143  -17.2153   21.3859 N   0  0  0  0  0  0  0  0  0  0  0  0
   11.0806  -17.2080   23.5958 C   0  0  0  0  0  0  0  0  0  0  0  0
   11.6033  -16.1150   23.8142 O   0  0  0  0  0  0  0  0  0  0  0  0
    8.8544  -15.4054   25.7516 C   0  0  0  0  0  0  0  0  0  0  0  0
    9.1527  -16.6836   26.4803 C   0  0  1  0  0  0  0  0  0  0  0  0
    8.1530  -17.6341   26.2471 O   0  0  0  0  0  0  0  0  0  0  0  0
   10.4581  -17.3092   26.0519 C   0  0  2  0  0  0  0  0  0  0  0  0
   10.4392  -17.8319   24.7271 N   0  0  0  0  0  0  0  0  0  0  0  0
   10.7683  -18.3859   27.0200 C   0  0  0  0  0  0  0  0  0  0  0  0
   10.7601  -19.5768   26.6257 O   0  0  0  0  0  0  0  0  0  0  0  0
   11.0698  -18.1362   28.3531 O   0  0  0  0  0  0  0  0  0  0  0  0
  2  1  1  1
  2  3  1  0
  3  4  1  0
  4  9  2  0
  5  6  2  0
  5  4  1  0
  6  7  1  0
  7  8  2  0
  9  8  1  0
 10 18  1  0
 10  2  1  0
 11 10  2  0
 13 12  1  0
 13 15  1  0
 14 13  2  0
 17 16  1  6
 16 15  1  0
 17 18  1  0
 19 20  2  0
 19 17  1  0
 22 21  1  6
 22 23  1  0
 24 22  1  0
 24 25  1  6
 25 19  1  0
 26 24  1  0
 27 26  2  0
 28 26  1  0
M  END
$$$$
