FQT.pdb
     RDKit          3D

 28 28  0  0  1  0  0  0  0  0999 V2000
    5.8516  -17.8932   25.6963 N   0  0  0  0  0  0  0  0  0  0  0  0
    6.3053  -16.5408   25.5147 C   0  0  1  0  0  0  0  0  0  0  0  0
    6.8027  -15.8988   26.7797 C   0  0  0  0  0  0  0  0  0  0  0  0
    6.6968  -14.4227   26.6534 C   0  0  0  0  0  0  0  0  0  0  0  0
    5.4387  -13.8788   26.5736 C   0  0  0  0  0  0  0  0  0  0  0  0
    5.3156  -12.5058   26.4555 C   0  0  0  0  0  0  0  0  0  0  0  0
    6.4122  -11.6904   26.4172 C   0  0  0  0  0  0  0  0  0  0  0  0
    7.6677  -12.2407   26.4974 C   0  0  0  0  0  0  0  0  0  0  0  0
    7.8111  -13.6137   26.6161 C   0  0  0  0  0  0  0  0  0  0  0  0
    7.3966  -16.4707   24.4835 C   0  0  0  0  0  0  0  0  0  0  0  0
    8.3111  -17.3237   24.4528 O   0  0  0  0  0  0  0  0  0  0  0  0
    7.0253  -12.5545   19.6269 N   0  0  0  0  0  0  0  0  0  0  0  0
    8.1411  -13.3117   19.1993 C   0  0  0  0  0  0  0  0  0  0  0  0
    8.6630  -13.2141   18.0623 O   0  0  0  0  0  0  0  0  0  0  0  0
    8.7268  -14.2865   20.1722 C   0  0  0  0  0  0  0  0  0  0  0  0
    7.9152  -14.2941   21.4366 C   0  0  0  0  0  0  0  0  0  0  0  0
    8.3027  -15.3712   22.3924 C   0  0  2  0  0  0  0  0  0  0  0  0
    7.3809  -15.4151   23.5323 N   0  0  0  0  0  0  0  0  0  0  0  0
    9.6973  -15.3439   22.8640 C   0  0  0  0  0  0  0  0  0  0  0  0
   10.1485  -14.4107   23.5281 O   0  0  0  0  0  0  0  0  0  0  0  0
   11.6606  -17.8904   25.1250 C   0  0  0  0  0  0  0  0  0  0  0  0
   12.2862  -17.7789   23.7649 C   0  0  1  0  0  0  0  0  0  0  0  0
   11.8398  -18.8061   22.9264 O   0  0  0  0  0  0  0  0  0  0  0  0
   11.9557  -16.4776   23.0748 C   0  0  2  0  0  0  0  0  0  0  0  0
   10.6231  -16.4119   22.5763 N   0  0  0  0  0  0  0  0  0  0  0  0
   12.9232  -16.3096   21.9663 C   0  0  0  0  0  0  0  0  0  0  0  0
   12.5324  -16.4899   20.7879 O   0  0  0  0  0  0  0  0  0  0  0  0
   14.2518  -15.9595   22.1728 O   0  0  0  0  0  0  0  0  0  0  0  0
  2  1  1  1
  2  3  1  0
  3  4  1  0
  4  9  2  0
  5  6  2  0
  5  4  1  0
  6  7  1  0
  7  8  2  0
  9  8  1  0
 10 18  1  0
 10  2  1  0
 11 10  2  0
 13 12  1  0
 13 15  1  0
 14 13  2  0
 17 16  1  1
 16 15  1  0
 17 18  1  0
 19 20  2  0
 19 17  1  0
 22 21  1  1
 22 23  1  0
 24 22  1  0
 24 25  1  6
 25 19  1  0
 26 24  1  0
 27 26  2  0
 28 26  1  0
M  END
$$$$
