FQT.pdb
     RDKit          3D

 28 28  0  0  1  0  0  0  0  0999 V2000
    4.8902  -16.2685   23.4377 N   0  0  0  0  0  0  0  0  0  0  0  0
    6.2574  -16.2680   22.9916 C   0  0  1  0  0  0  0  0  0  0  0  0
    6.9833  -14.9838   23.2811 C   0  0  0  0  0  0  0  0  0  0  0  0
    7.1769  -14.2349   22.0131 C   0  0  0  0  0  0  0  0  0  0  0  0
    7.8458  -13.0376   22.0762 C   0  0  0  0  0  0  0  0  0  0  0  0
    8.0379  -12.3225   20.9074 C   0  0  0  0  0  0  0  0  0  0  0  0
    7.5785  -12.7819   19.7046 C   0  0  0  0  0  0  0  0  0  0  0  0
    6.9103  -13.9801   19.6483 C   0  0  0  0  0  0  0  0  0  0  0  0
    6.7082  -14.7106   20.8082 C   0  0  0  0  0  0  0  0  0  0  0  0
    7.0279  -17.4010   23.6093 C   0  0  0  0  0  0  0  0  0  0  0  0
    6.7491  -17.8227   24.7536 O   0  0  0  0  0  0  0  0  0  0  0  0
    6.4394  -22.9423   22.7685 N   0  0  0  0  0  0  0  0  0  0  0  0
    6.0622  -21.8369   23.5667 C   0  0  0  0  0  0  0  0  0  0  0  0
    4.8745  -21.5453   23.8478 O   0  0  0  0  0  0  0  0  0  0  0  0
    7.1566  -20.9685   24.1035 C   0  0  0  0  0  0  0  0  0  0  0  0
    7.9808  -20.4283   22.9693 C   0  0  0  0  0  0  0  0  0  0  0  0
    8.7699  -19.2141   23.3256 C   0  0  2  0  0  0  0  0  0  0  0  0
    8.0882  -17.9965   22.8743 N   0  0  0  0  0  0  0  0  0  0  0  0
   10.1750  -19.2060   22.8855 C   0  0  0  0  0  0  0  0  0  0  0  0
   10.4935  -19.3162   21.7015 O   0  0  0  0  0  0  0  0  0  0  0  0
   11.3786  -16.8136   21.9941 C   0  0  0  0  0  0  0  0  0  0  0  0
   12.4008  -17.0156   23.0748 C   0  0  1  0  0  0  0  0  0  0  0  0
   12.0709  -16.2763   24.2159 O   0  0  0  0  0  0  0  0  0  0  0  0
   12.5165  -18.4573   23.5073 C   0  0  2  0  0  0  0  0  0  0  0  0
   11.2676  -19.0681   23.8170 N   0  0  0  0  0  0  0  0  0  0  0  0
   13.4074  -18.4915   24.6897 C   0  0  0  0  0  0  0  0  0  0  0  0
   12.8989  -18.6298   25.8282 O   0  0  0  0  0  0  0  0  0  0  0  0
   14.7888  -18.3768   24.5955 O   0  0  0  0  0  0  0  0  0  0  0  0
  2  1  1  1
  2  3  1  0
  3  4  1  0
  4  9  2  0
  5  6  2  0
  5  4  1  0
  6  7  1  0
  7  8  2  0
  9  8  1  0
 10 18  1  0
 10  2  1  0
 11 10  2  0
 13 12  1  0
 13 15  1  0
 14 13  2  0
 17 16  1  6
 16 15  1  0
 17 18  1  0
 19 20  2  0
 19 17  1  0
 22 21  1  6
 22 23  1  0
 24 22  1  0
 24 25  1  1
 25 19  1  0
 26 24  1  0
 27 26  2  0
 28 26  1  0
M  END
$$$$
