VYC.pdb
     RDKit          3D

 26 26  0  0  1  0  0  0  0  0999 V2000
   21.1235  -20.1497  -18.7357 C   0  0  0  0  0  0  0  0  0  0  0  0
   21.3397  -18.6849  -18.4203 C   0  0  2  0  0  0  0  0  0  0  0  0
   21.8402  -18.0311  -19.6941 C   0  0  0  0  0  0  0  0  0  0  0  0
   22.3972  -18.5357  -17.3764 C   0  0  2  0  0  0  0  0  0  0  0  0
   23.6381  -19.0454  -17.9210 N   0  0  0  0  0  0  0  0  0  0  0  0
   22.1206  -19.1696  -16.1019 C   0  0  0  0  0  0  0  0  0  0  0  0
   22.5628  -20.3304  -15.8947 O   0  0  0  0  0  0  0  0  0  0  0  0
   20.7892  -21.1228   -7.6572 O   0  0  0  0  0  0  0  0  0  0  0  0
   20.8792  -20.4512   -8.8905 C   0  0  0  0  0  0  0  0  0  0  0  0
   22.0987  -20.3204   -9.5108 C   0  0  0  0  0  0  0  0  0  0  0  0
   22.1823  -19.6525  -10.7355 C   0  0  0  0  0  0  0  0  0  0  0  0
   21.0633  -19.1215  -11.3341 C   0  0  0  0  0  0  0  0  0  0  0  0
   21.1184  -18.4246  -12.6018 C   0  0  0  0  0  0  0  0  0  0  0  0
   21.1587  -19.2829  -13.8238 C   0  0  2  0  0  0  0  0  0  0  0  0
   21.3772  -18.5846  -15.0398 N   0  0  0  0  0  0  0  0  0  0  0  0
   19.8608  -20.0578  -13.8403 C   0  0  0  0  0  0  0  0  0  0  0  0
   18.8175  -19.5042  -14.2484 O   0  0  0  0  0  0  0  0  0  0  0  0
   19.8580  -19.2710  -10.6848 C   0  0  0  0  0  0  0  0  0  0  0  0
   19.7463  -19.9297   -9.4679 C   0  0  0  0  0  0  0  0  0  0  0  0
   19.7944  -21.4027  -13.4031 N   0  0  0  0  0  0  0  0  0  0  0  0
   18.6343  -22.2498  -13.3782 C   0  0  1  0  0  0  0  0  0  0  0  0
   18.9022  -23.7097  -13.4626 C   0  0  0  0  0  0  0  0  0  0  0  0
   20.1649  -23.9759  -14.7519 S   0  0  0  0  0  0  0  0  0  0  0  0
   17.6381  -21.9055  -12.3231 C   0  0  0  0  0  0  0  0  0  0  0  0
   17.9662  -21.1773  -11.3745 O   0  0  0  0  0  0  0  0  0  0  0  0
   16.3370  -22.3796  -12.3675 O   0  0  0  0  0  0  0  0  0  0  0  0
  2  1  1  6
  2  4  1  0
  3  2  1  0
  4  6  1  0
  4  5  1  6
  6  7  2  0
  9  8  1  0
  9 19  2  0
 10  9  1  0
 11 10  2  0
 11 12  1  0
 12 18  2  0
 14 13  1  1
 13 12  1  0
 15 14  1  0
 15  6  1  0
 16 17  2  0
 16 14  1  0
 18 19  1  0
 20 16  1  0
 21 24  1  0
 21 20  1  0
 21 22  1  1
 23 22  1  0
 24 26  1  0
 25 24  2  0
M  END
$$$$
