VYC.pdb
     RDKit          3D

 26 26  0  0  1  0  0  0  0  0999 V2000
   24.1151  -11.2487  -16.6915 C   0  0  0  0  0  0  0  0  0  0  0  0
   23.7154  -11.6886  -15.2992 C   0  0  2  0  0  0  0  0  0  0  0  0
   24.4122  -13.0106  -15.0398 C   0  0  0  0  0  0  0  0  0  0  0  0
   22.2415  -11.9219  -15.2384 C   0  0  2  0  0  0  0  0  0  0  0  0
   21.9075  -12.9304  -16.2221 N   0  0  0  0  0  0  0  0  0  0  0  0
   21.4082  -10.7507  -15.4302 C   0  0  0  0  0  0  0  0  0  0  0  0
   21.1447  -10.3812  -16.6050 O   0  0  0  0  0  0  0  0  0  0  0  0
   15.4216  -12.5726  -17.1504 O   0  0  0  0  0  0  0  0  0  0  0  0
   16.2200  -11.6741  -16.4186 C   0  0  0  0  0  0  0  0  0  0  0  0
   16.8480  -12.0956  -15.2709 C   0  0  0  0  0  0  0  0  0  0  0  0
   17.6397  -11.1991  -14.5481 C   0  0  0  0  0  0  0  0  0  0  0  0
   17.8031   -9.8983  -14.9648 C   0  0  0  0  0  0  0  0  0  0  0  0
   18.6166   -8.9470  -14.2375 C   0  0  0  0  0  0  0  0  0  0  0  0
   20.0413   -8.8314  -14.6716 C   0  0  2  0  0  0  0  0  0  0  0  0
   20.8484   -9.9633  -14.3864 N   0  0  0  0  0  0  0  0  0  0  0  0
   20.5798   -7.5742  -14.0277 C   0  0  0  0  0  0  0  0  0  0  0  0
   21.0358   -7.6237  -12.8653 O   0  0  0  0  0  0  0  0  0  0  0  0
   17.1594   -9.5101  -16.1189 C   0  0  0  0  0  0  0  0  0  0  0  0
   16.3672  -10.3797  -16.8561 C   0  0  0  0  0  0  0  0  0  0  0  0
   20.5817   -6.3338  -14.7101 N   0  0  0  0  0  0  0  0  0  0  0  0
   21.0133   -5.0631  -14.1973 C   0  0  1  0  0  0  0  0  0  0  0  0
   22.3952   -4.6568  -14.5655 C   0  0  0  0  0  0  0  0  0  0  0  0
   22.7281   -3.0359  -13.7978 S   0  0  0  0  0  0  0  0  0  0  0  0
   20.0236   -3.9596  -14.3624 C   0  0  0  0  0  0  0  0  0  0  0  0
   19.9817   -3.0356  -13.5365 O   0  0  0  0  0  0  0  0  0  0  0  0
   19.1348   -3.9316  -15.4249 O   0  0  0  0  0  0  0  0  0  0  0  0
  2  1  1  6
  2  4  1  0
  3  2  1  0
  4  6  1  0
  4  5  1  6
  6  7  2  0
  9  8  1  0
  9 19  2  0
 10  9  1  0
 11 10  2  0
 11 12  1  0
 12 18  2  0
 14 13  1  1
 13 12  1  0
 15 14  1  0
 15  6  1  0
 16 17  2  0
 16 14  1  0
 18 19  1  0
 20 16  1  0
 21 24  1  0
 21 20  1  0
 21 22  1  6
 23 22  1  0
 24 26  1  0
 25 24  2  0
M  END
$$$$
