VYC.pdb
     RDKit          3D

 26 26  0  0  1  0  0  0  0  0999 V2000
   21.1771  -10.4618    8.1866 C   0  0  0  0  0  0  0  0  0  0  0  0
   20.2686  -11.6664    8.0630 C   0  0  2  0  0  0  0  0  0  0  0  0
   21.1627  -12.8673    7.8199 C   0  0  0  0  0  0  0  0  0  0  0  0
   19.3693  -11.5114    6.8808 C   0  0  2  0  0  0  0  0  0  0  0  0
   18.4378  -10.4401    7.1649 N   0  0  0  0  0  0  0  0  0  0  0  0
   18.6447  -12.7012    6.4781 C   0  0  0  0  0  0  0  0  0  0  0  0
   17.6736  -13.0856    7.1817 O   0  0  0  0  0  0  0  0  0  0  0  0
   15.2665  -19.6648    2.1739 O   0  0  0  0  0  0  0  0  0  0  0  0
   15.9860  -18.5096    2.5319 C   0  0  0  0  0  0  0  0  0  0  0  0
   16.5946  -18.4366    3.7620 C   0  0  0  0  0  0  0  0  0  0  0  0
   17.3079  -17.2870    4.1123 C   0  0  0  0  0  0  0  0  0  0  0  0
   17.4127  -16.2233    3.2463 C   0  0  0  0  0  0  0  0  0  0  0  0
   18.1444  -15.0198    3.5808 C   0  0  0  0  0  0  0  0  0  0  0  0
   18.1844  -14.6545    5.0288 C   0  0  2  0  0  0  0  0  0  0  0  0
   18.9391  -13.4918    5.3330 N   0  0  0  0  0  0  0  0  0  0  0  0
   18.7012  -15.8730    5.7590 C   0  0  0  0  0  0  0  0  0  0  0  0
   19.9304  -16.0954    5.7942 O   0  0  0  0  0  0  0  0  0  0  0  0
   16.7906  -16.3306    2.0223 C   0  0  0  0  0  0  0  0  0  0  0  0
   16.0759  -17.4606    1.6486 C   0  0  0  0  0  0  0  0  0  0  0  0
   17.8248  -16.7755    6.4085 N   0  0  0  0  0  0  0  0  0  0  0  0
   18.1876  -17.9225    7.1937 C   0  0  1  0  0  0  0  0  0  0  0  0
   18.4324  -17.6626    8.6369 C   0  0  0  0  0  0  0  0  0  0  0  0
   18.7196  -19.2669    9.4563 S   0  0  0  0  0  0  0  0  0  0  0  0
   17.3401  -19.1272    6.9596 C   0  0  0  0  0  0  0  0  0  0  0  0
   16.3499  -19.0537    6.2167 O   0  0  0  0  0  0  0  0  0  0  0  0
   17.6264  -20.3456    7.5537 O   0  0  0  0  0  0  0  0  0  0  0  0
  2  1  1  6
  2  4  1  0
  3  2  1  0
  4  6  1  0
  4  5  1  1
  6  7  2  0
  9  8  1  0
  9 19  2  0
 10  9  1  0
 11 10  2  0
 11 12  1  0
 12 18  2  0
 14 13  1  6
 13 12  1  0
 15 14  1  0
 15  6  1  0
 16 17  2  0
 16 14  1  0
 18 19  1  0
 20 16  1  0
 21 24  1  0
 21 20  1  0
 21 22  1  1
 23 22  1  0
 24 26  1  0
 25 24  2  0
M  END
$$$$
