VYC.pdb
     RDKit          3D

 26 26  0  0  1  0  0  0  0  0999 V2000
   24.0957  -31.7754   -8.2620 C   0  0  0  0  0  0  0  0  0  0  0  0
   24.9084  -32.7788   -7.4718 C   0  0  2  0  0  0  0  0  0  0  0  0
   25.0392  -32.2270   -6.0651 C   0  0  0  0  0  0  0  0  0  0  0  0
   26.2795  -32.8988   -8.0517 C   0  0  2  0  0  0  0  0  0  0  0  0
   26.1596  -33.5042   -9.3614 N   0  0  0  0  0  0  0  0  0  0  0  0
   27.2404  -33.6356   -7.2539 C   0  0  0  0  0  0  0  0  0  0  0  0
   27.1667  -34.8925   -7.2258 O   0  0  0  0  0  0  0  0  0  0  0  0
   34.3644  -36.5340   -2.9905 O   0  0  0  0  0  0  0  0  0  0  0  0
   33.4102  -35.7154   -3.6227 C   0  0  0  0  0  0  0  0  0  0  0  0
   32.5783  -34.9250   -2.8663 C   0  0  0  0  0  0  0  0  0  0  0  0
   31.6325  -34.1140   -3.4994 C   0  0  0  0  0  0  0  0  0  0  0  0
   31.5180  -34.0916   -4.8701 C   0  0  0  0  0  0  0  0  0  0  0  0
   30.5485  -33.2622   -5.5542 C   0  0  0  0  0  0  0  0  0  0  0  0
   29.1924  -33.8580   -5.7479 C   0  0  2  0  0  0  0  0  0  0  0  0
   28.2833  -33.0527   -6.4821 N   0  0  0  0  0  0  0  0  0  0  0  0
   28.6722  -34.1852   -4.3668 C   0  0  0  0  0  0  0  0  0  0  0  0
   28.2582  -33.2648   -3.6299 O   0  0  0  0  0  0  0  0  0  0  0  0
   32.3676  -34.8960   -5.5967 C   0  0  0  0  0  0  0  0  0  0  0  0
   33.3159  -35.7111   -4.9938 C   0  0  0  0  0  0  0  0  0  0  0  0
   28.6410  -35.5150   -3.8818 N   0  0  0  0  0  0  0  0  0  0  0  0
   28.1544  -35.9611   -2.6059 C   0  0  1  0  0  0  0  0  0  0  0  0
   27.0709  -36.9781   -2.6505 C   0  0  0  0  0  0  0  0  0  0  0  0
   27.7571  -38.4987   -3.3885 S   0  0  0  0  0  0  0  0  0  0  0  0
   29.2209  -36.2965   -1.6187 C   0  0  0  0  0  0  0  0  0  0  0  0
   30.3270  -36.6955   -2.0126 O   0  0  0  0  0  0  0  0  0  0  0  0
   29.0142  -36.1755   -0.2541 O   0  0  0  0  0  0  0  0  0  0  0  0
  2  1  1  6
  2  4  1  0
  3  2  1  0
  4  6  1  0
  4  5  1  6
  6  7  2  0
  9  8  1  0
  9 19  2  0
 10  9  1  0
 11 10  2  0
 11 12  1  0
 12 18  2  0
 14 13  1  1
 13 12  1  0
 15 14  1  0
 15  6  1  0
 16 17  2  0
 16 14  1  0
 18 19  1  0
 20 16  1  0
 21 24  1  0
 21 20  1  0
 21 22  1  6
 23 22  1  0
 24 26  1  0
 25 24  2  0
M  END
$$$$
