VYC.pdb
     RDKit          3D

 26 26  0  0  1  0  0  0  0  0999 V2000
   26.8879  -34.9475  -13.4072 C   0  0  0  0  0  0  0  0  0  0  0  0
   25.5529  -35.4603  -12.9106 C   0  0  2  0  0  0  0  0  0  0  0  0
   24.8622  -36.1060  -14.0967 C   0  0  0  0  0  0  0  0  0  0  0  0
   24.7066  -34.3210  -12.4456 C   0  0  2  0  0  0  0  0  0  0  0  0
   24.4607  -33.4547  -13.5792 N   0  0  0  0  0  0  0  0  0  0  0  0
   25.2399  -33.5480  -11.3407 C   0  0  0  0  0  0  0  0  0  0  0  0
   25.8078  -32.4514  -11.5877 O   0  0  0  0  0  0  0  0  0  0  0  0
   19.8103  -34.5388   -6.7640 O   0  0  0  0  0  0  0  0  0  0  0  0
   21.0294  -33.9488   -7.1461 C   0  0  0  0  0  0  0  0  0  0  0  0
   22.0490  -33.8322   -6.2319 C   0  0  0  0  0  0  0  0  0  0  0  0
   23.2576  -33.2454   -6.6167 C   0  0  0  0  0  0  0  0  0  0  0  0
   23.4468  -32.7806   -7.8976 C   0  0  0  0  0  0  0  0  0  0  0  0
   24.6869  -32.1684   -8.3255 C   0  0  0  0  0  0  0  0  0  0  0  0
   25.6901  -33.0813   -8.9517 C   0  0  2  0  0  0  0  0  0  0  0  0
   25.1780  -33.9257   -9.9709 N   0  0  0  0  0  0  0  0  0  0  0  0
   26.3098  -33.8695   -7.8204 C   0  0  0  0  0  0  0  0  0  0  0  0
   26.0820  -35.0945   -7.7253 O   0  0  0  0  0  0  0  0  0  0  0  0
   22.4040  -32.9136   -8.7874 C   0  0  0  0  0  0  0  0  0  0  0  0
   21.1932  -33.4923   -8.4319 C   0  0  0  0  0  0  0  0  0  0  0  0
   27.1472  -33.2537   -6.8591 N   0  0  0  0  0  0  0  0  0  0  0  0
   27.7052  -33.8583   -5.6814 C   0  0  1  0  0  0  0  0  0  0  0  0
   28.9238  -33.2026   -5.1378 C   0  0  0  0  0  0  0  0  0  0  0  0
   29.6290  -34.2976   -3.8605 S   0  0  0  0  0  0  0  0  0  0  0  0
   26.7079  -34.1911   -4.6237 C   0  0  0  0  0  0  0  0  0  0  0  0
   25.9349  -33.3173   -4.2034 O   0  0  0  0  0  0  0  0  0  0  0  0
   26.6143  -35.4646   -4.0859 O   0  0  0  0  0  0  0  0  0  0  0  0
  2  1  1  6
  2  4  1  0
  3  2  1  0
  4  6  1  0
  4  5  1  6
  6  7  2  0
  9  8  1  0
  9 19  2  0
 10  9  1  0
 11 10  2  0
 11 12  1  0
 12 18  2  0
 14 13  1  1
 13 12  1  0
 15 14  1  0
 15  6  1  0
 16 17  2  0
 16 14  1  0
 18 19  1  0
 20 16  1  0
 21 24  1  0
 21 20  1  0
 21 22  1  1
 23 22  1  0
 24 26  1  0
 25 24  2  0
M  END
$$$$
