MLP.pdb
     RDKit          3D

 24 24  0  0  1  0  0  0  0  0999 V2000
   21.0661  -22.5413  -17.7821 C   0  0  0  0  0  0  0  0  0  0  0  0
   19.4707  -22.6074  -16.9474 S   0  0  0  0  0  0  0  0  0  0  0  0
   19.5720  -21.8908  -15.2769 C   0  0  0  0  0  0  0  0  0  0  0  0
   20.8784  -21.1659  -15.1009 C   0  0  0  0  0  0  0  0  0  0  0  0
   21.0178  -20.6755  -13.6961 C   0  0  2  0  0  0  0  0  0  0  0  0
   20.0162  -19.7459  -13.2753 N   0  0  0  0  0  0  0  0  0  0  0  0
   22.3884  -20.1187  -13.4711 C   0  0  0  0  0  0  0  0  0  0  0  0
   22.6106  -18.9032  -13.8011 O   0  0  0  0  0  0  0  0  0  0  0  0
   24.9203  -19.3565  -10.1650 C   0  0  0  0  0  0  0  0  0  0  0  0
   24.8937  -20.8854  -10.4209 C   0  0  2  0  0  0  0  0  0  0  0  0
   25.5887  -21.5314   -9.2759 C   0  0  0  0  0  0  0  0  0  0  0  0
   25.4786  -21.1836  -11.7631 C   0  0  0  0  0  0  0  0  0  0  0  0
   24.7891  -20.5471  -12.9375 C   0  0  2  0  0  0  0  0  0  0  0  0
   23.3929  -20.9368  -12.9071 N   0  0  0  0  0  0  0  0  0  0  0  0
   25.4486  -20.6350  -14.2226 C   0  0  0  0  0  0  0  0  0  0  0  0
   24.8647  -21.3611  -15.1083 O   0  0  0  0  0  0  0  0  0  0  0  0
   26.6606  -20.0354  -14.6630 N   0  0  0  0  0  0  0  0  0  0  0  0
   27.6924  -19.3068  -13.9714 C   0  0  0  0  0  0  0  0  0  0  0  0
   27.9487  -18.1641  -14.9317 C   0  0  0  0  0  0  0  0  0  0  0  0
   27.5794  -18.6735  -16.2970 C   0  0  0  0  0  0  0  0  0  0  0  0
   27.1338  -20.0775  -16.0562 C   0  0  1  0  0  0  0  0  0  0  0  0
   28.2410  -21.0193  -16.1690 C   0  0  0  0  0  0  0  0  0  0  0  0
   28.8735  -21.3884  -17.3448 O   0  0  0  0  0  0  0  0  0  0  0  0
   28.7157  -21.5865  -15.1214 O   0  0  0  0  0  0  0  0  0  0  0  0
  1  2  1  0
  2  3  1  0
  4  5  1  0
  4  3  1  0
  5  6  1  6
  7  8  2  0
  7  5  1  0
 10  9  1  1
 10 12  1  0
 11 10  1  0
 13 12  1  1
 13 14  1  0
 14  7  1  0
 15 13  1  0
 16 15  2  0
 17 21  1  0
 17 15  1  0
 18 17  1  0
 19 20  1  0
 19 18  1  0
 20 21  1  0
 21 22  1  1
 22 24  2  0
 22 23  1  0
M  END
$$$$
