MLP.pdb
     RDKit          3D

 24 24  0  0  1  0  0  0  0  0999 V2000
   19.0949   -8.5343  -23.3888 C   0  0  0  0  0  0  0  0  0  0  0  0
   18.7520  -10.1745  -24.0508 S   0  0  0  0  0  0  0  0  0  0  0  0
   19.0718  -11.4658  -22.8079 C   0  0  0  0  0  0  0  0  0  0  0  0
   19.5167  -10.8419  -21.5133 C   0  0  0  0  0  0  0  0  0  0  0  0
   19.8367  -11.8997  -20.5073 C   0  0  2  0  0  0  0  0  0  0  0  0
   18.9557  -13.0258  -20.5091 N   0  0  0  0  0  0  0  0  0  0  0  0
   19.9366  -11.3046  -19.1380 C   0  0  0  0  0  0  0  0  0  0  0  0
   18.8582  -11.1295  -18.4730 O   0  0  0  0  0  0  0  0  0  0  0  0
   24.3139  -10.9283  -14.8888 C   0  0  0  0  0  0  0  0  0  0  0  0
   22.9234  -10.3903  -15.3141 C   0  0  2  0  0  0  0  0  0  0  0  0
   21.9846  -10.6768  -14.1970 C   0  0  0  0  0  0  0  0  0  0  0  0
   22.5347  -10.9792  -16.6312 C   0  0  0  0  0  0  0  0  0  0  0  0
   21.3394  -10.3612  -17.3011 C   0  0  2  0  0  0  0  0  0  0  0  0
   21.2024  -10.9541  -18.6172 N   0  0  0  0  0  0  0  0  0  0  0  0
   21.2102   -8.9215  -17.2331 C   0  0  0  0  0  0  0  0  0  0  0  0
   21.8474   -8.2545  -18.1286 O   0  0  0  0  0  0  0  0  0  0  0  0
   20.4785   -8.1188  -16.3150 N   0  0  0  0  0  0  0  0  0  0  0  0
   19.6474   -8.4458  -15.1853 C   0  0  0  0  0  0  0  0  0  0  0  0
   18.4758   -7.5087  -15.3928 C   0  0  0  0  0  0  0  0  0  0  0  0
   19.0113   -6.3321  -16.1600 C   0  0  0  0  0  0  0  0  0  0  0  0
   20.4574   -6.6475  -16.3526 C   0  0  1  0  0  0  0  0  0  0  0  0
   21.2720   -6.1182  -15.2654 C   0  0  0  0  0  0  0  0  0  0  0  0
   21.6300   -4.7911  -15.0938 O   0  0  0  0  0  0  0  0  0  0  0  0
   21.7240   -6.9018  -14.3564 O   0  0  0  0  0  0  0  0  0  0  0  0
  1  2  1  0
  2  3  1  0
  4  5  1  0
  4  3  1  0
  5  6  1  1
  7  8  2  0
  7  5  1  0
 10  9  1  1
 10 12  1  0
 11 10  1  0
 13 12  1  6
 13 14  1  0
 14  7  1  0
 15 13  1  0
 16 15  2  0
 17 21  1  0
 17 15  1  0
 18 17  1  0
 19 20  1  0
 19 18  1  0
 20 21  1  0
 21 22  1  1
 22 24  2  0
 22 23  1  0
M  END
$$$$
