MLP.pdb
     RDKit          3D

 24 24  0  0  1  0  0  0  0  0999 V2000
   21.2843  -23.7687  -13.3184 C   0  0  0  0  0  0  0  0  0  0  0  0
   19.8350  -22.6986  -13.3419 S   0  0  0  0  0  0  0  0  0  0  0  0
   20.2386  -21.0307  -12.7339 C   0  0  0  0  0  0  0  0  0  0  0  0
   21.7266  -20.8115  -12.7675 C   0  0  0  0  0  0  0  0  0  0  0  0
   22.0770  -19.5105  -12.1210 C   0  0  2  0  0  0  0  0  0  0  0  0
   21.5865  -18.3473  -12.7923 N   0  0  0  0  0  0  0  0  0  0  0  0
   23.5547  -19.4164  -11.9047 C   0  0  0  0  0  0  0  0  0  0  0  0
   24.2536  -18.7773  -12.7642 O   0  0  0  0  0  0  0  0  0  0  0  0
   26.1839  -18.6289   -8.2555 C   0  0  0  0  0  0  0  0  0  0  0  0
   25.4570  -19.9966   -8.1876 C   0  0  2  0  0  0  0  0  0  0  0  0
   25.7422  -20.5760   -6.8480 C   0  0  0  0  0  0  0  0  0  0  0  0
   25.8716  -20.8474   -9.3437 C   0  0  0  0  0  0  0  0  0  0  0  0
   25.5597  -20.3001  -10.7086 C   0  0  2  0  0  0  0  0  0  0  0  0
   24.1371  -20.0274  -10.7717 N   0  0  0  0  0  0  0  0  0  0  0  0
   26.1285  -20.9896  -11.8467 C   0  0  0  0  0  0  0  0  0  0  0  0
   25.3123  -21.6969  -12.5440 O   0  0  0  0  0  0  0  0  0  0  0  0
   27.4699  -21.0075  -12.3187 N   0  0  0  0  0  0  0  0  0  0  0  0
   28.7144  -20.5879  -11.7279 C   0  0  0  0  0  0  0  0  0  0  0  0
   29.3728  -19.8732  -12.8896 C   0  0  0  0  0  0  0  0  0  0  0  0
   28.8123  -20.4971  -14.1371 C   0  0  0  0  0  0  0  0  0  0  0  0
   27.8661  -21.5361  -13.6342 C   0  0  1  0  0  0  0  0  0  0  0  0
   28.5248  -22.8257  -13.4654 C   0  0  0  0  0  0  0  0  0  0  0  0
   28.8411  -23.7126  -14.4815 O   0  0  0  0  0  0  0  0  0  0  0  0
   28.8676  -23.2280  -12.2969 O   0  0  0  0  0  0  0  0  0  0  0  0
  1  2  1  0
  2  3  1  0
  4  5  1  0
  4  3  1  0
  5  6  1  6
  7  8  2  0
  7  5  1  0
 10  9  1  6
 10 12  1  0
 11 10  1  0
 13 12  1  1
 13 14  1  0
 14  7  1  0
 15 13  1  0
 16 15  2  0
 17 21  1  0
 17 15  1  0
 18 17  1  0
 19 20  1  0
 19 18  1  0
 20 21  1  0
 21 22  1  1
 22 24  2  0
 22 23  1  0
M  END
$$$$
