MLP.pdb
     RDKit          3D

 24 24  0  0  1  0  0  0  0  0999 V2000
   20.3795  -21.9141  -17.2534 C   0  0  0  0  0  0  0  0  0  0  0  0
   19.2527  -22.4665  -15.9606 S   0  0  0  0  0  0  0  0  0  0  0  0
   18.7842  -21.0908  -14.8641 C   0  0  0  0  0  0  0  0  0  0  0  0
   19.9896  -20.2509  -14.5404 C   0  0  0  0  0  0  0  0  0  0  0  0
   20.8478  -20.9381  -13.5282 C   0  0  2  0  0  0  0  0  0  0  0  0
   20.2163  -21.1965  -12.2717 N   0  0  0  0  0  0  0  0  0  0  0  0
   22.1291  -20.1895  -13.3356 C   0  0  0  0  0  0  0  0  0  0  0  0
   22.0772  -19.0237  -12.8124 O   0  0  0  0  0  0  0  0  0  0  0  0
   25.0457  -19.8645  -10.7376 C   0  0  0  0  0  0  0  0  0  0  0  0
   25.2722  -21.1692  -11.5440 C   0  0  2  0  0  0  0  0  0  0  0  0
   26.3038  -21.9569  -10.8182 C   0  0  0  0  0  0  0  0  0  0  0  0
   25.6141  -20.8357  -12.9597 C   0  0  0  0  0  0  0  0  0  0  0  0
   24.5919  -20.0293  -13.7110 C   0  0  2  0  0  0  0  0  0  0  0  0
   23.3509  -20.7789  -13.7308 N   0  0  0  0  0  0  0  0  0  0  0  0
   25.0025  -19.4413  -14.9678 C   0  0  0  0  0  0  0  0  0  0  0  0
   24.3865  -19.8606  -16.0154 O   0  0  0  0  0  0  0  0  0  0  0  0
   25.9973  -18.4587  -15.2274 N   0  0  0  0  0  0  0  0  0  0  0  0
   26.9554  -17.7973  -14.3797 C   0  0  0  0  0  0  0  0  0  0  0  0
   26.8418  -16.3649  -14.8584 C   0  0  0  0  0  0  0  0  0  0  0  0
   26.3865  -16.4363  -16.2892 C   0  0  0  0  0  0  0  0  0  0  0  0
   26.2637  -17.8985  -16.5623 C   0  0  1  0  0  0  0  0  0  0  0  0
   27.5057  -18.4531  -17.0871 C   0  0  0  0  0  0  0  0  0  0  0  0
   28.1259  -18.0762  -18.2671 O   0  0  0  0  0  0  0  0  0  0  0  0
   28.1258  -19.3722  -16.4427 O   0  0  0  0  0  0  0  0  0  0  0  0
  1  2  1  0
  2  3  1  0
  4  5  1  0
  4  3  1  0
  5  6  1  1
  7  8  2  0
  7  5  1  0
 10  9  1  1
 10 12  1  0
 11 10  1  0
 13 12  1  6
 13 14  1  0
 14  7  1  0
 15 13  1  0
 16 15  2  0
 17 21  1  0
 17 15  1  0
 18 17  1  0
 19 20  1  0
 19 18  1  0
 20 21  1  0
 21 22  1  1
 22 24  2  0
 22 23  1  0
M  END
$$$$
