MLP.pdb
     RDKit          3D

 24 24  0  0  1  0  0  0  0  0999 V2000
   14.6378  -12.6514  -17.2262 C   0  0  0  0  0  0  0  0  0  0  0  0
   15.9006  -13.4983  -18.1928 S   0  0  0  0  0  0  0  0  0  0  0  0
   17.2198  -12.3511  -18.7009 C   0  0  0  0  0  0  0  0  0  0  0  0
   17.6500  -11.5046  -17.5341 C   0  0  0  0  0  0  0  0  0  0  0  0
   18.7029  -10.5315  -17.9556 C   0  0  2  0  0  0  0  0  0  0  0  0
   19.9300  -11.1177  -18.3970 N   0  0  0  0  0  0  0  0  0  0  0  0
   18.9514   -9.5295  -16.8724 C   0  0  0  0  0  0  0  0  0  0  0  0
   17.9460   -8.9235  -16.3649 O   0  0  0  0  0  0  0  0  0  0  0  0
   20.7156   -9.8144  -12.7553 C   0  0  0  0  0  0  0  0  0  0  0  0
   21.7026   -9.9734  -13.9403 C   0  0  2  0  0  0  0  0  0  0  0  0
   22.9869  -10.4658  -13.3751 C   0  0  0  0  0  0  0  0  0  0  0  0
   21.7978   -8.6874  -14.6950 C   0  0  0  0  0  0  0  0  0  0  0  0
   20.5613   -8.2688  -15.4403 C   0  0  2  0  0  0  0  0  0  0  0  0
   20.2730   -9.2784  -16.4402 N   0  0  0  0  0  0  0  0  0  0  0  0
   20.4858   -6.8929  -15.8822 C   0  0  0  0  0  0  0  0  0  0  0  0
   20.9095   -6.6584  -17.0731 O   0  0  0  0  0  0  0  0  0  0  0  0
   20.0104   -5.7436  -15.1927 N   0  0  0  0  0  0  0  0  0  0  0  0
   19.4597   -5.5587  -13.8750 C   0  0  0  0  0  0  0  0  0  0  0  0
   18.2960   -4.6330  -14.1627 C   0  0  0  0  0  0  0  0  0  0  0  0
   18.6660   -3.8680  -15.4028 C   0  0  0  0  0  0  0  0  0  0  0  0
   20.0182   -4.3868  -15.7638 C   0  0  1  0  0  0  0  0  0  0  0  0
   21.0781   -3.6008  -15.1440 C   0  0  0  0  0  0  0  0  0  0  0  0
   21.5068   -2.3503  -15.5582 O   0  0  0  0  0  0  0  0  0  0  0  0
   21.7039   -4.0538  -14.1203 O   0  0  0  0  0  0  0  0  0  0  0  0
  1  2  1  0
  2  3  1  0
  4  5  1  0
  4  3  1  0
  5  6  1  1
  7  8  2  0
  7  5  1  0
 10  9  1  1
 10 12  1  0
 11 10  1  0
 13 12  1  6
 13 14  1  0
 14  7  1  0
 15 13  1  0
 16 15  2  0
 17 21  1  0
 17 15  1  0
 18 17  1  0
 19 20  1  0
 19 18  1  0
 20 21  1  0
 21 22  1  1
 22 24  2  0
 22 23  1  0
M  END
$$$$
