MLP.pdb
     RDKit          3D

 24 24  0  0  1  0  0  0  0  0999 V2000
   26.9229  -22.6357  -14.7386 C   0  0  0  0  0  0  0  0  0  0  0  0
   26.2418  -20.9847  -14.9764 S   0  0  0  0  0  0  0  0  0  0  0  0
   25.5332  -20.3361  -13.4299 C   0  0  0  0  0  0  0  0  0  0  0  0
   26.0965  -21.0786  -12.2489 C   0  0  0  0  0  0  0  0  0  0  0  0
   25.5515  -20.5211  -10.9740 C   0  0  2  0  0  0  0  0  0  0  0  0
   25.3318  -19.1083  -10.9738 N   0  0  0  0  0  0  0  0  0  0  0  0
   26.4108  -20.9260   -9.8178 C   0  0  0  0  0  0  0  0  0  0  0  0
   26.7672  -22.1509   -9.7270 O   0  0  0  0  0  0  0  0  0  0  0  0
   28.8481  -18.1576   -4.9228 C   0  0  0  0  0  0  0  0  0  0  0  0
   28.5869  -19.5417   -5.5708 C   0  0  2  0  0  0  0  0  0  0  0  0
   29.8170  -20.3540   -5.3752 C   0  0  0  0  0  0  0  0  0  0  0  0
   28.1692  -19.3627   -6.9942 C   0  0  0  0  0  0  0  0  0  0  0  0
   27.1418  -20.3336   -7.5055 C   0  0  2  0  0  0  0  0  0  0  0  0
   26.8040  -19.9595   -8.8650 N   0  0  0  0  0  0  0  0  0  0  0  0
   26.0292  -20.6438   -6.6337 C   0  0  0  0  0  0  0  0  0  0  0  0
   24.9118  -20.0766   -6.9206 O   0  0  0  0  0  0  0  0  0  0  0  0
   25.9804  -21.4897   -5.4915 N   0  0  0  0  0  0  0  0  0  0  0  0
   27.0034  -22.1743   -4.7440 C   0  0  0  0  0  0  0  0  0  0  0  0
   26.3650  -23.5316   -4.5344 C   0  0  0  0  0  0  0  0  0  0  0  0
   24.8792  -23.3046   -4.5626 C   0  0  0  0  0  0  0  0  0  0  0  0
   24.7371  -21.8353   -4.7833 C   0  0  1  0  0  0  0  0  0  0  0  0
   24.6732  -21.1064   -3.5223 C   0  0  0  0  0  0  0  0  0  0  0  0
   23.5475  -20.9585   -2.7286 O   0  0  0  0  0  0  0  0  0  0  0  0
   25.7201  -20.5322   -3.0543 O   0  0  0  0  0  0  0  0  0  0  0  0
  1  2  1  0
  2  3  1  0
  4  5  1  0
  4  3  1  0
  5  6  1  6
  7  8  2  0
  7  5  1  0
 10  9  1  6
 10 12  1  0
 11 10  1  0
 13 12  1  1
 13 14  1  0
 14  7  1  0
 15 13  1  0
 16 15  2  0
 17 21  1  0
 17 15  1  0
 18 17  1  0
 19 20  1  0
 19 18  1  0
 20 21  1  0
 21 22  1  1
 22 24  2  0
 22 23  1  0
M  END
$$$$
