FKK.pdb
     RDKit          3D

 30 30  0  0  1  0  0  0  0  0999 V2000
   16.8856  -10.4476  -11.0696 N   0  0  0  0  0  0  0  0  0  0  0  0
   15.8001   -9.5234  -11.2216 C   0  0  1  0  0  0  0  0  0  0  0  0
   14.7442   -9.8132  -10.1907 C   0  0  0  0  0  0  0  0  0  0  0  0
   13.9079  -10.9313  -10.7017 C   0  0  0  0  0  0  0  0  0  0  0  0
   12.8031  -10.6408  -11.4818 C   0  0  0  0  0  0  0  0  0  0  0  0
   12.0470  -11.6991  -11.9409 C   0  0  0  0  0  0  0  0  0  0  0  0
   12.3238  -13.0115  -11.6718 C   0  0  0  0  0  0  0  0  0  0  0  0
   13.4335  -13.3052  -10.8881 C   0  0  0  0  0  0  0  0  0  0  0  0
   14.2084  -12.2653  -10.4150 C   0  0  0  0  0  0  0  0  0  0  0  0
   16.2719   -8.1180  -11.1723 C   0  0  0  0  0  0  0  0  0  0  0  0
   16.9084   -7.7444  -10.1526 O   0  0  0  0  0  0  0  0  0  0  0  0
   16.0522   -7.1821  -12.1908 N   0  0  0  0  0  0  0  0  0  0  0  0
   16.4267   -5.8048  -12.0973 C   0  0  1  0  0  0  0  0  0  0  0  0
   16.4780   -5.1268  -13.4575 C   0  0  0  0  0  0  0  0  0  0  0  0
   17.3293   -5.9749  -14.4103 C   0  0  0  0  0  0  0  0  0  0  0  0
   17.4784   -5.2985  -15.7465 C   0  0  0  0  0  0  0  0  0  0  0  0
   18.3694   -6.1785  -16.5975 C   0  0  0  0  0  0  0  0  0  0  0  0
   18.6168   -5.5964  -17.8920 N   0  0  0  0  0  0  0  0  0  0  0  0
   15.4758   -5.0443  -11.2574 C   0  0  0  0  0  0  0  0  0  0  0  0
   14.2590   -5.3246  -11.3645 O   0  0  0  0  0  0  0  0  0  0  0  0
   15.8682   -4.0327  -10.3541 N   0  0  0  0  0  0  0  0  0  0  0  0
   14.8035   -3.2936   -9.6521 C   0  0  1  0  0  0  0  0  0  0  0  0
   14.7394   -3.7447   -8.2105 C   0  0  0  0  0  0  0  0  0  0  0  0
   13.7552   -2.9315   -7.4573 C   0  0  0  0  0  0  0  0  0  0  0  0
   12.9654   -3.7308   -6.4404 C   0  0  0  0  0  0  0  0  0  0  0  0
   11.9103   -2.9069   -5.7497 C   0  0  0  0  0  0  0  0  0  0  0  0
   11.1980   -3.6637   -4.7426 N   0  0  0  0  0  0  0  0  0  0  0  0
   15.1088   -1.8733   -9.8390 C   0  0  0  0  0  0  0  0  0  0  0  0
   16.0833   -1.2675   -9.3159 O   0  0  0  0  0  0  0  0  0  0  0  0
   14.2968   -1.0580  -10.6511 O   0  0  0  0  0  0  0  0  0  0  0  0
  2  1  1  1
  2  3  1  0
  3  4  1  0
  4  9  2  0
  5  4  1  0
  5  6  2  0
  6  7  1  0
  7  8  2  0
  9  8  1  0
 10 12  1  0
 10  2  1  0
 11 10  2  0
 13 19  1  0
 13 12  1  0
 13 14  1  6
 15 14  1  0
 16 15  1  0
 17 18  1  0
 17 16  1  0
 19 21  1  0
 20 19  2  0
 21 22  1  0
 22 28  1  0
 23 24  1  0
 22 23  1  1
 25 24  1  0
 26 25  1  0
 27 26  1  0
 28 29  2  0
 28 30  1  0
M  END
$$$$
