FKK.pdb
     RDKit          3D

 30 30  0  0  1  0  0  0  0  0999 V2000
   23.9228  -16.2792  -19.7894 N   0  0  0  0  0  0  0  0  0  0  0  0
   23.8906  -16.0237  -18.3790 C   0  0  1  0  0  0  0  0  0  0  0  0
   22.7359  -15.1150  -18.0583 C   0  0  0  0  0  0  0  0  0  0  0  0
   23.0376  -13.7790  -18.6371 C   0  0  0  0  0  0  0  0  0  0  0  0
   22.3207  -13.3476  -19.7387 C   0  0  0  0  0  0  0  0  0  0  0  0
   22.6235  -12.1041  -20.2529 C   0  0  0  0  0  0  0  0  0  0  0  0
   23.5853  -11.2771  -19.7406 C   0  0  0  0  0  0  0  0  0  0  0  0
   24.3065  -11.7090  -18.6337 C   0  0  0  0  0  0  0  0  0  0  0  0
   24.0244  -12.9498  -18.0982 C   0  0  0  0  0  0  0  0  0  0  0  0
   23.8548  -17.2849  -17.5989 C   0  0  0  0  0  0  0  0  0  0  0  0
   23.0312  -18.1710  -17.9466 O   0  0  0  0  0  0  0  0  0  0  0  0
   24.6812  -17.5493  -16.4996 N   0  0  0  0  0  0  0  0  0  0  0  0
   24.6038  -18.7445  -15.7177 C   0  0  1  0  0  0  0  0  0  0  0  0
   25.7572  -18.8668  -14.7342 C   0  0  0  0  0  0  0  0  0  0  0  0
   25.5643  -20.1310  -13.8877 C   0  0  0  0  0  0  0  0  0  0  0  0
   25.5249  -21.3599  -14.7556 C   0  0  0  0  0  0  0  0  0  0  0  0
   25.2872  -22.5452  -13.8440 C   0  0  0  0  0  0  0  0  0  0  0  0
   25.1687  -23.7748  -14.5853 N   0  0  0  0  0  0  0  0  0  0  0  0
   23.3477  -18.7973  -14.9382 C   0  0  0  0  0  0  0  0  0  0  0  0
   23.0712  -17.8073  -14.2214 O   0  0  0  0  0  0  0  0  0  0  0  0
   22.4589  -19.8939  -14.9631 N   0  0  0  0  0  0  0  0  0  0  0  0
   21.2378  -19.8019  -14.1429 C   0  0  1  0  0  0  0  0  0  0  0  0
   20.0220  -19.9960  -15.0205 C   0  0  0  0  0  0  0  0  0  0  0  0
   19.1196  -21.0164  -14.4360 C   0  0  0  0  0  0  0  0  0  0  0  0
   17.9345  -21.3500  -15.3197 C   0  0  0  0  0  0  0  0  0  0  0  0
   17.0617  -22.4293  -14.7344 C   0  0  0  0  0  0  0  0  0  0  0  0
   15.9245  -22.7299  -15.5775 N   0  0  0  0  0  0  0  0  0  0  0  0
   21.3922  -20.7955  -13.0779 C   0  0  0  0  0  0  0  0  0  0  0  0
   21.9054  -21.9383  -13.2229 O   0  0  0  0  0  0  0  0  0  0  0  0
   20.9578  -20.5251  -11.7657 O   0  0  0  0  0  0  0  0  0  0  0  0
  2  1  1  6
  2  3  1  0
  3  4  1  0
  4  9  2  0
  5  4  1  0
  5  6  2  0
  6  7  1  0
  7  8  2  0
  9  8  1  0
 10 12  1  0
 10  2  1  0
 11 10  2  0
 13 19  1  0
 13 12  1  0
 13 14  1  1
 15 14  1  0
 16 15  1  0
 17 18  1  0
 17 16  1  0
 19 21  1  0
 20 19  2  0
 21 22  1  0
 22 28  1  0
 23 24  1  0
 22 23  1  6
 25 24  1  0
 26 25  1  0
 27 26  1  0
 28 29  2  0
 28 30  1  0
M  END
$$$$
