FKK.pdb
     RDKit          3D

 30 30  0  0  1  0  0  0  0  0999 V2000
   26.9709  -21.4564   -8.0862 N   0  0  0  0  0  0  0  0  0  0  0  0
   26.5065  -20.1154   -8.2897 C   0  0  1  0  0  0  0  0  0  0  0  0
   27.6064  -19.1456   -7.9556 C   0  0  0  0  0  0  0  0  0  0  0  0
   27.9855  -19.3638   -6.5346 C   0  0  0  0  0  0  0  0  0  0  0  0
   27.2586  -18.7321   -5.5416 C   0  0  0  0  0  0  0  0  0  0  0  0
   27.6345  -18.9540   -4.2331 C   0  0  0  0  0  0  0  0  0  0  0  0
   28.6776  -19.7573   -3.8618 C   0  0  0  0  0  0  0  0  0  0  0  0
   29.4090  -20.3928   -4.8583 C   0  0  0  0  0  0  0  0  0  0  0  0
   29.0549  -20.1887   -6.1770 C   0  0  0  0  0  0  0  0  0  0  0  0
   25.9792  -19.9254   -9.6631 C   0  0  0  0  0  0  0  0  0  0  0  0
   25.4740  -18.8094   -9.9524 O   0  0  0  0  0  0  0  0  0  0  0  0
   26.0094  -20.9118  -10.6568 N   0  0  0  0  0  0  0  0  0  0  0  0
   25.7804  -20.6483  -12.0440 C   0  0  1  0  0  0  0  0  0  0  0  0
   26.9088  -21.1635  -12.9235 C   0  0  0  0  0  0  0  0  0  0  0  0
   26.6058  -20.8148  -14.3859 C   0  0  0  0  0  0  0  0  0  0  0  0
   27.6533  -21.3849  -15.3040 C   0  0  0  0  0  0  0  0  0  0  0  0
   27.3152  -20.9290  -16.7077 C   0  0  0  0  0  0  0  0  0  0  0  0
   28.3464  -21.2852  -17.6487 N   0  0  0  0  0  0  0  0  0  0  0  0
   24.5279  -21.2808  -12.5123 C   0  0  0  0  0  0  0  0  0  0  0  0
   24.4064  -22.5164  -12.3420 O   0  0  0  0  0  0  0  0  0  0  0  0
   23.4783  -20.5688  -13.1327 N   0  0  0  0  0  0  0  0  0  0  0  0
   22.1788  -21.2505  -13.2703 C   0  0  1  0  0  0  0  0  0  0  0  0
   21.1235  -20.4901  -12.4996 C   0  0  0  0  0  0  0  0  0  0  0  0
   19.8912  -21.3034  -12.3695 C   0  0  0  0  0  0  0  0  0  0  0  0
   19.9225  -22.2613  -11.1955 C   0  0  0  0  0  0  0  0  0  0  0  0
   18.7437  -23.1991  -11.1821 C   0  0  0  0  0  0  0  0  0  0  0  0
   18.8490  -24.1947  -10.1369 N   0  0  0  0  0  0  0  0  0  0  0  0
   21.9308  -21.3580  -14.7099 C   0  0  0  0  0  0  0  0  0  0  0  0
   21.1737  -22.2081  -15.2525 O   0  0  0  0  0  0  0  0  0  0  0  0
   22.5501  -20.4791  -15.6197 O   0  0  0  0  0  0  0  0  0  0  0  0
  2  1  1  6
  2  3  1  0
  3  4  1  0
  4  9  2  0
  5  4  1  0
  5  6  2  0
  6  7  1  0
  7  8  2  0
  9  8  1  0
 10 12  1  0
 10  2  1  0
 11 10  2  0
 13 19  1  0
 13 12  1  0
 13 14  1  6
 15 14  1  0
 16 15  1  0
 17 18  1  0
 17 16  1  0
 19 21  1  0
 20 19  2  0
 21 22  1  0
 22 28  1  0
 23 24  1  0
 22 23  1  1
 25 24  1  0
 26 25  1  0
 27 26  1  0
 28 29  2  0
 28 30  1  0
M  END
$$$$
