FKK.pdb
     RDKit          3D

 30 30  0  0  1  0  0  0  0  0999 V2000
   21.1004  -17.9256  -21.1072 N   0  0  0  0  0  0  0  0  0  0  0  0
   21.7177  -17.4416  -19.9072 C   0  0  1  0  0  0  0  0  0  0  0  0
   20.7533  -16.5566  -19.1665 C   0  0  0  0  0  0  0  0  0  0  0  0
   20.5100  -15.3523  -20.0038 C   0  0  0  0  0  0  0  0  0  0  0  0
   21.4737  -14.3609  -20.0494 C   0  0  0  0  0  0  0  0  0  0  0  0
   21.2193  -13.2560  -20.8348 C   0  0  0  0  0  0  0  0  0  0  0  0
   20.0766  -13.0838  -21.5670 C   0  0  0  0  0  0  0  0  0  0  0  0
   19.1073  -14.0789  -21.5223 C   0  0  0  0  0  0  0  0  0  0  0  0
   19.3356  -15.1962  -20.7442 C   0  0  0  0  0  0  0  0  0  0  0  0
   22.2249  -18.5557  -19.0694 C   0  0  0  0  0  0  0  0  0  0  0  0
   21.4848  -19.5619  -18.9141 O   0  0  0  0  0  0  0  0  0  0  0  0
   23.4766  -18.5559  -18.4411 N   0  0  0  0  0  0  0  0  0  0  0  0
   23.9529  -19.6269  -17.6213 C   0  0  1  0  0  0  0  0  0  0  0  0
   25.4708  -19.6548  -17.5323 C   0  0  0  0  0  0  0  0  0  0  0  0
   25.9013  -20.8346  -16.6523 C   0  0  0  0  0  0  0  0  0  0  0  0
   27.3954  -20.8560  -16.4727 C   0  0  0  0  0  0  0  0  0  0  0  0
   27.8181  -22.3082  -16.4052 C   0  0  0  0  0  0  0  0  0  0  0  0
   29.2126  -22.4444  -16.0698 N   0  0  0  0  0  0  0  0  0  0  0  0
   23.4288  -19.5229  -16.2420 C   0  0  0  0  0  0  0  0  0  0  0  0
   22.9878  -18.4090  -15.8745 O   0  0  0  0  0  0  0  0  0  0  0  0
   23.4023  -20.6032  -15.3334 N   0  0  0  0  0  0  0  0  0  0  0  0
   22.4699  -20.5155  -14.1952 C   0  0  1  0  0  0  0  0  0  0  0  0
   21.0541  -20.3832  -14.7090 C   0  0  0  0  0  0  0  0  0  0  0  0
   20.0937  -20.3653  -13.5801 C   0  0  0  0  0  0  0  0  0  0  0  0
   18.6448  -20.4230  -14.0206 C   0  0  0  0  0  0  0  0  0  0  0  0
   17.6844  -20.3538  -12.8621 C   0  0  0  0  0  0  0  0  0  0  0  0
   17.3385  -21.6662  -12.3597 N   0  0  0  0  0  0  0  0  0  0  0  0
   22.7188  -21.7053  -13.3781 C   0  0  0  0  0  0  0  0  0  0  0  0
   22.7454  -21.7250  -12.1174 O   0  0  0  0  0  0  0  0  0  0  0  0
   22.9547  -22.9587  -13.9756 O   0  0  0  0  0  0  0  0  0  0  0  0
  2  1  1  6
  2  3  1  0
  3  4  1  0
  4  9  2  0
  5  4  1  0
  5  6  2  0
  6  7  1  0
  7  8  2  0
  9  8  1  0
 10 12  1  0
 10  2  1  0
 11 10  2  0
 13 19  1  0
 13 12  1  0
 13 14  1  1
 15 14  1  0
 16 15  1  0
 17 18  1  0
 17 16  1  0
 19 21  1  0
 20 19  2  0
 21 22  1  0
 22 28  1  0
 23 24  1  0
 22 23  1  6
 25 24  1  0
 26 25  1  0
 27 26  1  0
 28 29  2  0
 28 30  1  0
M  END
$$$$
