FKK.pdb
     RDKit          3D

 30 30  0  0  1  0  0  0  0  0999 V2000
   25.0722  -10.5384  -18.3342 N   0  0  0  0  0  0  0  0  0  0  0  0
   24.5694   -9.9861  -17.1104 C   0  0  1  0  0  0  0  0  0  0  0  0
   25.6071   -9.0837  -16.5016 C   0  0  0  0  0  0  0  0  0  0  0  0
   26.8089   -9.9090  -16.2095 C   0  0  0  0  0  0  0  0  0  0  0  0
   26.7711  -10.7981  -15.1504 C   0  0  0  0  0  0  0  0  0  0  0  0
   27.9013  -11.5495  -14.9044 C   0  0  0  0  0  0  0  0  0  0  0  0
   29.0507  -11.4678  -15.6418 C   0  0  0  0  0  0  0  0  0  0  0  0
   29.0904  -10.5750  -16.7063 C   0  0  0  0  0  0  0  0  0  0  0  0
   27.9731   -9.8100  -16.9755 C   0  0  0  0  0  0  0  0  0  0  0  0
   23.2705   -9.3001  -17.3169 C   0  0  0  0  0  0  0  0  0  0  0  0
   23.0624   -8.7530  -18.4312 O   0  0  0  0  0  0  0  0  0  0  0  0
   22.2624   -9.2242  -16.3477 N   0  0  0  0  0  0  0  0  0  0  0  0
   20.9722   -8.6550  -16.5875 C   0  0  1  0  0  0  0  0  0  0  0  0
   19.9264   -9.1614  -15.6064 C   0  0  0  0  0  0  0  0  0  0  0  0
   19.1326  -10.2990  -16.2603 C   0  0  0  0  0  0  0  0  0  0  0  0
   19.3707  -11.6021  -15.5459 C   0  0  0  0  0  0  0  0  0  0  0  0
   18.6016  -12.6705  -16.2939 C   0  0  0  0  0  0  0  0  0  0  0  0
   18.7321  -13.9612  -15.6673 N   0  0  0  0  0  0  0  0  0  0  0  0
   21.0060   -7.1802  -16.4789 C   0  0  0  0  0  0  0  0  0  0  0  0
   21.6693   -6.6857  -15.5377 O   0  0  0  0  0  0  0  0  0  0  0  0
   20.3363   -6.3161  -17.3723 N   0  0  0  0  0  0  0  0  0  0  0  0
   20.4410   -4.8663  -17.1276 C   0  0  1  0  0  0  0  0  0  0  0  0
   19.9215   -4.1107  -18.3297 C   0  0  0  0  0  0  0  0  0  0  0  0
   20.1247   -2.6532  -18.1520 C   0  0  0  0  0  0  0  0  0  0  0  0
   19.6243   -1.8281  -19.3206 C   0  0  0  0  0  0  0  0  0  0  0  0
   19.9551   -0.3652  -19.1799 C   0  0  0  0  0  0  0  0  0  0  0  0
   19.4570    0.1911  -17.9402 N   0  0  0  0  0  0  0  0  0  0  0  0
   19.7134   -4.6146  -15.8816 C   0  0  0  0  0  0  0  0  0  0  0  0
   20.0796   -3.8141  -14.9786 O   0  0  0  0  0  0  0  0  0  0  0  0
   18.5047   -5.2807  -15.6008 O   0  0  0  0  0  0  0  0  0  0  0  0
  2  1  1  6
  2  3  1  0
  3  4  1  0
  4  9  2  0
  5  4  1  0
  5  6  2  0
  6  7  1  0
  7  8  2  0
  9  8  1  0
 10 12  1  0
 10  2  1  0
 11 10  2  0
 13 19  1  0
 13 12  1  0
 13 14  1  1
 15 14  1  0
 16 15  1  0
 17 18  1  0
 17 16  1  0
 19 21  1  0
 20 19  2  0
 21 22  1  0
 22 28  1  0
 23 24  1  0
 22 23  1  6
 25 24  1  0
 26 25  1  0
 27 26  1  0
 28 29  2  0
 28 30  1  0
M  END
$$$$
