FKK.pdb
     RDKit          3D

 30 30  0  0  1  0  0  0  0  0999 V2000
   26.5708  -18.9087   -9.6450 N   0  0  0  0  0  0  0  0  0  0  0  0
   25.8570  -20.1461   -9.5227 C   0  0  1  0  0  0  0  0  0  0  0  0
   25.7010  -20.4957   -8.0683 C   0  0  0  0  0  0  0  0  0  0  0  0
   27.0283  -20.3311   -7.4187 C   0  0  0  0  0  0  0  0  0  0  0  0
   27.1578  -19.4325   -6.3750 C   0  0  0  0  0  0  0  0  0  0  0  0
   28.4013  -19.3019   -5.7929 C   0  0  0  0  0  0  0  0  0  0  0  0
   29.5078  -20.0046   -6.1845 C   0  0  0  0  0  0  0  0  0  0  0  0
   29.3795  -20.9079   -7.2330 C   0  0  0  0  0  0  0  0  0  0  0  0
   28.1460  -21.0590   -7.8344 C   0  0  0  0  0  0  0  0  0  0  0  0
   24.5584  -20.0974  -10.2378 C   0  0  0  0  0  0  0  0  0  0  0  0
   23.7111  -19.2442   -9.8657 O   0  0  0  0  0  0  0  0  0  0  0  0
   24.2180  -20.9426  -11.3014 N   0  0  0  0  0  0  0  0  0  0  0  0
   23.0929  -20.7269  -12.1579 C   0  0  1  0  0  0  0  0  0  0  0  0
   23.4816  -20.7086  -13.6280 C   0  0  0  0  0  0  0  0  0  0  0  0
   22.2616  -20.3061  -14.4657 C   0  0  0  0  0  0  0  0  0  0  0  0
   21.9187  -21.3762  -15.4669 C   0  0  0  0  0  0  0  0  0  0  0  0
   20.7625  -20.8597  -16.2968 C   0  0  0  0  0  0  0  0  0  0  0  0
   20.3346  -21.8249  -17.2772 N   0  0  0  0  0  0  0  0  0  0  0  0
   22.0719  -21.7826  -11.9814 C   0  0  0  0  0  0  0  0  0  0  0  0
   22.4043  -22.9590  -12.2569 O   0  0  0  0  0  0  0  0  0  0  0  0
   20.7600  -21.5312  -11.5241 N   0  0  0  0  0  0  0  0  0  0  0  0
   19.8889  -22.6940  -11.2757 C   0  0  1  0  0  0  0  0  0  0  0  0
   19.5072  -22.7381   -9.8134 C   0  0  0  0  0  0  0  0  0  0  0  0
   18.6127  -23.8896   -9.5468 C   0  0  0  0  0  0  0  0  0  0  0  0
   18.1156  -23.9479   -8.1163 C   0  0  0  0  0  0  0  0  0  0  0  0
   17.5765  -25.3049   -7.7458 C   0  0  0  0  0  0  0  0  0  0  0  0
   17.1226  -25.3565   -6.3726 N   0  0  0  0  0  0  0  0  0  0  0  0
   18.7621  -22.5581  -12.2015 C   0  0  0  0  0  0  0  0  0  0  0  0
   18.1854  -21.4731  -12.4854 O   0  0  0  0  0  0  0  0  0  0  0  0
   18.2276  -23.6809  -12.8627 O   0  0  0  0  0  0  0  0  0  0  0  0
  2  1  1  1
  2  3  1  0
  3  4  1  0
  4  9  2  0
  5  4  1  0
  5  6  2  0
  6  7  1  0
  7  8  2  0
  9  8  1  0
 10 12  1  0
 10  2  1  0
 11 10  2  0
 13 19  1  0
 13 12  1  0
 13 14  1  6
 15 14  1  0
 16 15  1  0
 17 18  1  0
 17 16  1  0
 19 21  1  0
 20 19  2  0
 21 22  1  0
 22 28  1  0
 23 24  1  0
 22 23  1  1
 25 24  1  0
 26 25  1  0
 27 26  1  0
 28 29  2  0
 28 30  1  0
M  END
$$$$
