FKK.pdb
     RDKit          3D

 30 30  0  0  1  0  0  0  0  0999 V2000
   24.4115  -18.1975  -22.1478 N   0  0  0  0  0  0  0  0  0  0  0  0
   23.8486  -17.6235  -20.9608 C   0  0  1  0  0  0  0  0  0  0  0  0
   22.7808  -16.6339  -21.3379 C   0  0  0  0  0  0  0  0  0  0  0  0
   23.4459  -15.4819  -22.0022 C   0  0  0  0  0  0  0  0  0  0  0  0
   23.4166  -15.3949  -23.3825 C   0  0  0  0  0  0  0  0  0  0  0  0
   24.0424  -14.3150  -23.9695 C   0  0  0  0  0  0  0  0  0  0  0  0
   24.6866  -13.3307  -23.2712 C   0  0  0  0  0  0  0  0  0  0  0  0
   24.7170  -13.4166  -21.8843 C   0  0  0  0  0  0  0  0  0  0  0  0
   24.0985  -14.4871  -21.2699 C   0  0  0  0  0  0  0  0  0  0  0  0
   23.3520  -18.6697  -20.0339 C   0  0  0  0  0  0  0  0  0  0  0  0
   22.6451  -19.5949  -20.5121 O   0  0  0  0  0  0  0  0  0  0  0  0
   23.6219  -18.6905  -18.6598 N   0  0  0  0  0  0  0  0  0  0  0  0
   23.1728  -19.7236  -17.7783 C   0  0  1  0  0  0  0  0  0  0  0  0
   24.2237  -20.0981  -16.7450 C   0  0  0  0  0  0  0  0  0  0  0  0
   25.2989  -20.9643  -17.4125 C   0  0  0  0  0  0  0  0  0  0  0  0
   26.3124  -21.4366  -16.4051 C   0  0  0  0  0  0  0  0  0  0  0  0
   27.2935  -22.3259  -17.1393 C   0  0  0  0  0  0  0  0  0  0  0  0
   28.3149  -22.8355  -16.2602 N   0  0  0  0  0  0  0  0  0  0  0  0
   21.9551  -19.3139  -17.0452 C   0  0  0  0  0  0  0  0  0  0  0  0
   21.9693  -18.1941  -16.4827 O   0  0  0  0  0  0  0  0  0  0  0  0
   20.7948  -20.1127  -16.9507 N   0  0  0  0  0  0  0  0  0  0  0  0
   19.6926  -19.6187  -16.1060 C   0  0  1  0  0  0  0  0  0  0  0  0
   18.3681  -20.0094  -16.7215 C   0  0  0  0  0  0  0  0  0  0  0  0
   17.2451  -19.5011  -15.8983 C   0  0  0  0  0  0  0  0  0  0  0  0
   16.1759  -20.5410  -15.6297 C   0  0  0  0  0  0  0  0  0  0  0  0
   14.9737  -19.9668  -14.9266 C   0  0  0  0  0  0  0  0  0  0  0  0
   13.9332  -20.9531  -14.7288 N   0  0  0  0  0  0  0  0  0  0  0  0
   19.9341  -20.1649  -14.7686 C   0  0  0  0  0  0  0  0  0  0  0  0
   20.4916  -21.2702  -14.5280 O   0  0  0  0  0  0  0  0  0  0  0  0
   19.5414  -19.4584  -13.6152 O   0  0  0  0  0  0  0  0  0  0  0  0
  2  1  1  6
  2  3  1  0
  3  4  1  0
  4  9  2  0
  5  4  1  0
  5  6  2  0
  6  7  1  0
  7  8  2  0
  9  8  1  0
 10 12  1  0
 10  2  1  0
 11 10  2  0
 13 19  1  0
 13 12  1  0
 13 14  1  1
 15 14  1  0
 16 15  1  0
 17 18  1  0
 17 16  1  0
 19 21  1  0
 20 19  2  0
 21 22  1  0
 22 28  1  0
 23 24  1  0
 22 23  1  6
 25 24  1  0
 26 25  1  0
 27 26  1  0
 28 29  2  0
 28 30  1  0
M  END
$$$$
