FKK.pdb
     RDKit          3D

 30 30  0  0  1  0  0  0  0  0999 V2000
   25.9790  -22.1319   -9.5938 N   0  0  0  0  0  0  0  0  0  0  0  0
   25.7157  -20.8657  -10.2123 C   0  0  1  0  0  0  0  0  0  0  0  0
   26.9777  -20.0483  -10.2431 C   0  0  0  0  0  0  0  0  0  0  0  0
   27.3759  -19.7779   -8.8363 C   0  0  0  0  0  0  0  0  0  0  0  0
   28.5677  -20.2980   -8.3645 C   0  0  0  0  0  0  0  0  0  0  0  0
   28.9097  -20.0301   -7.0554 C   0  0  0  0  0  0  0  0  0  0  0  0
   28.1441  -19.2847   -6.2011 C   0  0  0  0  0  0  0  0  0  0  0  0
   26.9463  -18.7614   -6.6736 C   0  0  0  0  0  0  0  0  0  0  0  0
   26.5789  -19.0138   -7.9803 C   0  0  0  0  0  0  0  0  0  0  0  0
   25.1139  -21.0327  -11.5578 C   0  0  0  0  0  0  0  0  0  0  0  0
   25.7164  -21.7629  -12.3874 O   0  0  0  0  0  0  0  0  0  0  0  0
   23.9169  -20.4277  -11.9608 N   0  0  0  0  0  0  0  0  0  0  0  0
   23.2939  -20.6659  -13.2261 C   0  0  1  0  0  0  0  0  0  0  0  0
   21.8122  -20.3237  -13.2137 C   0  0  0  0  0  0  0  0  0  0  0  0
   21.0354  -21.4764  -12.5659 C   0  0  0  0  0  0  0  0  0  0  0  0
   19.5516  -21.2359  -12.6416 C   0  0  0  0  0  0  0  0  0  0  0  0
   18.8707  -22.4339  -12.0142 C   0  0  0  0  0  0  0  0  0  0  0  0
   18.8382  -22.3388  -10.5770 N   0  0  0  0  0  0  0  0  0  0  0  0
   23.9260  -19.8643  -14.2966 C   0  0  0  0  0  0  0  0  0  0  0  0
   24.5488  -18.8324  -13.9538 O   0  0  0  0  0  0  0  0  0  0  0  0
   23.8619  -20.2019  -15.6660 N   0  0  0  0  0  0  0  0  0  0  0  0
   24.7283  -19.4542  -16.5949 C   0  0  1  0  0  0  0  0  0  0  0  0
   26.1756  -19.7997  -16.3271 C   0  0  0  0  0  0  0  0  0  0  0  0
   26.4387  -21.2198  -16.6607 C   0  0  0  0  0  0  0  0  0  0  0  0
   27.8917  -21.6183  -16.4964 C   0  0  0  0  0  0  0  0  0  0  0  0
   28.1641  -23.0217  -16.9710 C   0  0  0  0  0  0  0  0  0  0  0  0
   29.5676  -23.3648  -16.8859 N   0  0  0  0  0  0  0  0  0  0  0  0
   24.2560  -19.7856  -17.9412 C   0  0  0  0  0  0  0  0  0  0  0  0
   24.9744  -19.7987  -18.9775 O   0  0  0  0  0  0  0  0  0  0  0  0
   22.9092  -20.1257  -18.1736 O   0  0  0  0  0  0  0  0  0  0  0  0
  2  1  1  6
  2  3  1  0
  3  4  1  0
  4  9  2  0
  5  4  1  0
  5  6  2  0
  6  7  1  0
  7  8  2  0
  9  8  1  0
 10 12  1  0
 10  2  1  0
 11 10  2  0
 13 19  1  0
 13 12  1  0
 13 14  1  1
 15 14  1  0
 16 15  1  0
 17 18  1  0
 17 16  1  0
 19 21  1  0
 20 19  2  0
 21 22  1  0
 22 28  1  0
 23 24  1  0
 22 23  1  6
 25 24  1  0
 26 25  1  0
 27 26  1  0
 28 29  2  0
 28 30  1  0
M  END
$$$$
