FKK.pdb
     RDKit          3D

 30 30  0  0  1  0  0  0  0  0999 V2000
   25.7938  -21.3300   -7.9584 N   0  0  0  0  0  0  0  0  0  0  0  0
   26.3826  -20.1687   -8.5585 C   0  0  1  0  0  0  0  0  0  0  0  0
   27.8567  -20.1412   -8.2616 C   0  0  0  0  0  0  0  0  0  0  0  0
   28.0200  -19.8895   -6.8053 C   0  0  0  0  0  0  0  0  0  0  0  0
   27.5502  -18.7025   -6.2726 C   0  0  0  0  0  0  0  0  0  0  0  0
   27.7164  -18.4979   -4.9187 C   0  0  0  0  0  0  0  0  0  0  0  0
   28.3150  -19.3946   -4.0766 C   0  0  0  0  0  0  0  0  0  0  0  0
   28.7877  -20.5877   -4.6102 C   0  0  0  0  0  0  0  0  0  0  0  0
   28.6347  -20.8191   -5.9627 C   0  0  0  0  0  0  0  0  0  0  0  0
   26.0945  -20.1029  -10.0121 C   0  0  0  0  0  0  0  0  0  0  0  0
   26.6540  -19.1978  -10.6845 O   0  0  0  0  0  0  0  0  0  0  0  0
   25.2381  -20.9861  -10.6813 N   0  0  0  0  0  0  0  0  0  0  0  0
   24.9745  -20.9248  -12.0859 C   0  0  1  0  0  0  0  0  0  0  0  0
   25.0660  -22.2894  -12.7507 C   0  0  0  0  0  0  0  0  0  0  0  0
   26.4404  -22.4336  -13.4156 C   0  0  0  0  0  0  0  0  0  0  0  0
   26.5488  -21.5470  -14.6269 C   0  0  0  0  0  0  0  0  0  0  0  0
   27.9571  -21.6914  -15.1637 C   0  0  0  0  0  0  0  0  0  0  0  0
   28.1979  -20.8103  -16.2778 N   0  0  0  0  0  0  0  0  0  0  0  0
   23.6228  -20.3883  -12.3568 C   0  0  0  0  0  0  0  0  0  0  0  0
   22.7056  -20.7075  -11.5648 O   0  0  0  0  0  0  0  0  0  0  0  0
   23.3216  -19.5463  -13.4493 N   0  0  0  0  0  0  0  0  0  0  0  0
   21.9634  -18.9779  -13.5192 C   0  0  1  0  0  0  0  0  0  0  0  0
   21.9483  -17.8192  -14.4903 C   0  0  0  0  0  0  0  0  0  0  0  0
   21.7684  -18.3093  -15.8776 C   0  0  0  0  0  0  0  0  0  0  0  0
   22.6144  -17.5680  -16.8932 C   0  0  0  0  0  0  0  0  0  0  0  0
   22.4016  -18.0671  -18.2985 C   0  0  0  0  0  0  0  0  0  0  0  0
   21.2498  -17.4565  -18.9270 N   0  0  0  0  0  0  0  0  0  0  0  0
   21.0793  -20.0901  -13.8751 C   0  0  0  0  0  0  0  0  0  0  0  0
   21.4448  -21.1479  -14.4563 O   0  0  0  0  0  0  0  0  0  0  0  0
   19.7034  -20.0463  -13.5772 O   0  0  0  0  0  0  0  0  0  0  0  0
  2  1  1  6
  2  3  1  0
  3  4  1  0
  4  9  2  0
  5  4  1  0
  5  6  2  0
  6  7  1  0
  7  8  2  0
  9  8  1  0
 10 12  1  0
 10  2  1  0
 11 10  2  0
 13 19  1  0
 13 12  1  0
 13 14  1  1
 15 14  1  0
 16 15  1  0
 17 18  1  0
 17 16  1  0
 19 21  1  0
 20 19  2  0
 21 22  1  0
 22 28  1  0
 23 24  1  0
 22 23  1  6
 25 24  1  0
 26 25  1  0
 27 26  1  0
 28 29  2  0
 28 30  1  0
M  END
$$$$
