FKK.pdb
     RDKit          3D

 30 30  0  0  1  0  0  0  0  0999 V2000
   26.7455  -18.2599   -7.6221 N   0  0  0  0  0  0  0  0  0  0  0  0
   26.8969  -19.6483   -7.9457 C   0  0  1  0  0  0  0  0  0  0  0  0
   26.4524  -20.4883   -6.7801 C   0  0  0  0  0  0  0  0  0  0  0  0
   27.3911  -20.2341   -5.6554 C   0  0  0  0  0  0  0  0  0  0  0  0
   26.8952  -20.1890   -4.3648 C   0  0  0  0  0  0  0  0  0  0  0  0
   27.7904  -19.9512   -3.3427 C   0  0  0  0  0  0  0  0  0  0  0  0
   29.1319  -19.7585   -3.5292 C   0  0  0  0  0  0  0  0  0  0  0  0
   29.6318  -19.8035   -4.8253 C   0  0  0  0  0  0  0  0  0  0  0  0
   28.7582  -20.0398   -5.8679 C   0  0  0  0  0  0  0  0  0  0  0  0
   26.1850  -19.9948   -9.2001 C   0  0  0  0  0  0  0  0  0  0  0  0
   24.9886  -19.6230   -9.3219 O   0  0  0  0  0  0  0  0  0  0  0  0
   26.7628  -20.7102  -10.2564 N   0  0  0  0  0  0  0  0  0  0  0  0
   26.4024  -20.5289  -11.6287 C   0  0  1  0  0  0  0  0  0  0  0  0
   27.5119  -20.9535  -12.5780 C   0  0  0  0  0  0  0  0  0  0  0  0
   27.0497  -20.7308  -14.0232 C   0  0  0  0  0  0  0  0  0  0  0  0
   28.0886  -21.2101  -15.0011 C   0  0  0  0  0  0  0  0  0  0  0  0
   27.6333  -20.7875  -16.3819 C   0  0  0  0  0  0  0  0  0  0  0  0
   28.5942  -21.1440  -17.3943 N   0  0  0  0  0  0  0  0  0  0  0  0
   25.1964  -21.3116  -11.9763 C   0  0  0  0  0  0  0  0  0  0  0  0
   24.9987  -22.3773  -11.3473 O   0  0  0  0  0  0  0  0  0  0  0  0
   24.2711  -20.9207  -12.9685 N   0  0  0  0  0  0  0  0  0  0  0  0
   22.8539  -21.2643  -12.7539 C   0  0  1  0  0  0  0  0  0  0  0  0
   22.3374  -20.5431  -11.5297 C   0  0  0  0  0  0  0  0  0  0  0  0
   20.8924  -20.8143  -11.3407 C   0  0  0  0  0  0  0  0  0  0  0  0
   20.6034  -22.2111  -10.8287 C   0  0  0  0  0  0  0  0  0  0  0  0
   19.1291  -22.4740  -10.6651 C   0  0  0  0  0  0  0  0  0  0  0  0
   18.8646  -23.7968  -10.1408 N   0  0  0  0  0  0  0  0  0  0  0  0
   22.1647  -20.9284  -14.0019 C   0  0  0  0  0  0  0  0  0  0  0  0
   21.3324  -21.6701  -14.5915 O   0  0  0  0  0  0  0  0  0  0  0  0
   22.3986  -19.7008  -14.6514 O   0  0  0  0  0  0  0  0  0  0  0  0
  2  1  1  1
  2  3  1  0
  3  4  1  0
  4  9  2  0
  5  4  1  0
  5  6  2  0
  6  7  1  0
  7  8  2  0
  9  8  1  0
 10 12  1  0
 10  2  1  0
 11 10  2  0
 13 19  1  0
 13 12  1  0
 13 14  1  6
 15 14  1  0
 16 15  1  0
 17 18  1  0
 17 16  1  0
 19 21  1  0
 20 19  2  0
 21 22  1  0
 22 28  1  0
 23 24  1  0
 22 23  1  1
 25 24  1  0
 26 25  1  0
 27 26  1  0
 28 29  2  0
 28 30  1  0
M  END
$$$$
