SNM.pdb
     RDKit          3D

 23 22  0  0  1  0  0  0  0  0999 V2000
   10.6642  -12.7512   20.1161 O   0  0  0  0  0  0  0  0  0  0  0  0
   10.2788  -13.3443   18.9161 C   0  0  0  0  0  0  0  0  0  0  0  0
    8.8132  -13.7489   18.9929 C   0  0  2  0  0  0  0  0  0  0  0  0
    8.0596  -12.5386   19.1971 N   0  0  0  0  0  0  0  0  0  0  0  0
    8.5450  -14.6886   20.1037 C   0  0  0  0  0  0  0  0  0  0  0  0
    7.8523  -14.3006   21.0739 O   0  0  0  0  0  0  0  0  0  0  0  0
    7.0093  -19.6861   20.5337 N   0  0  0  0  0  0  0  0  0  0  0  0
    8.0546  -18.9090   19.9582 C   0  0  0  0  0  0  0  0  0  0  0  0
    8.0570  -18.7882   18.7217 O   0  0  0  0  0  0  0  0  0  0  0  0
    9.0491  -18.3109   20.8796 C   0  0  0  0  0  0  0  0  0  0  0  0
    8.7281  -16.8982   21.2705 C   0  0  2  0  0  0  0  0  0  0  0  0
    9.0215  -16.0271   20.1578 N   0  0  0  0  0  0  0  0  0  0  0  0
    9.6046  -16.5575   22.4247 C   0  0  0  0  0  0  0  0  0  0  0  0
   10.7873  -16.1377   22.2316 O   0  0  0  0  0  0  0  0  0  0  0  0
    9.8330  -12.4796   28.7937 C   0  0  0  0  0  0  0  0  0  0  0  0
    8.8543  -13.8407   28.0906 S   0  0  0  0  0  0  0  0  0  0  0  0
    9.9127  -14.8322   26.9745 C   0  0  0  0  0  0  0  0  0  0  0  0
    9.1440  -15.2864   25.7712 C   0  0  0  0  0  0  0  0  0  0  0  0
    9.9852  -16.1107   24.8720 C   0  0  2  0  0  0  0  0  0  0  0  0
    9.1964  -16.6732   23.7733 N   0  0  0  0  0  0  0  0  0  0  0  0
   10.5358  -17.2762   25.5962 C   0  0  0  0  0  0  0  0  0  0  0  0
   10.1726  -18.4655   25.4046 O   0  0  0  0  0  0  0  0  0  0  0  0
   11.5320  -17.0782   26.5691 O   0  0  0  0  0  0  0  0  0  0  0  0
  1  2  1  0
  3  2  1  0
  3  5  1  0
  3  4  1  1
  5  6  2  0
  7  8  1  0
  8 10  1  0
  9  8  2  0
 11 10  1  6
 11 13  1  0
 12 11  1  0
 12  5  1  0
 13 14  2  0
 13 20  1  0
 16 15  1  0
 17 16  1  0
 18 17  1  0
 19 18  1  1
 20 19  1  0
 21 23  1  0
 21 19  1  0
 22 21  2  0
M  END
$$$$
