SNM.pdb
     RDKit          3D

 23 22  0  0  1  0  0  0  0  0999 V2000
    6.0284  -15.2080   20.8646 O   0  0  0  0  0  0  0  0  0  0  0  0
    6.8140  -14.6955   19.8348 C   0  0  0  0  0  0  0  0  0  0  0  0
    7.8227  -15.7455   19.3898 C   0  0  2  0  0  0  0  0  0  0  0  0
    7.0644  -16.8553   18.8726 N   0  0  0  0  0  0  0  0  0  0  0  0
    8.6797  -16.2112   20.5022 C   0  0  0  0  0  0  0  0  0  0  0  0
    8.3678  -17.2620   21.1106 O   0  0  0  0  0  0  0  0  0  0  0  0
   13.1103  -15.2910   19.7655 N   0  0  0  0  0  0  0  0  0  0  0  0
   12.7124  -16.1557   20.8245 C   0  0  0  0  0  0  0  0  0  0  0  0
   12.9795  -17.3629   20.7020 O   0  0  0  0  0  0  0  0  0  0  0  0
   12.0153  -15.5454   21.9809 C   0  0  0  0  0  0  0  0  0  0  0  0
   10.5847  -15.9781   22.1129 C   0  0  2  0  0  0  0  0  0  0  0  0
    9.8558  -15.5458   20.9446 N   0  0  0  0  0  0  0  0  0  0  0  0
   10.0391  -15.3092   23.3259 C   0  0  0  0  0  0  0  0  0  0  0  0
    9.6859  -14.0903   23.2836 O   0  0  0  0  0  0  0  0  0  0  0  0
    6.4121  -11.4408   26.4786 C   0  0  0  0  0  0  0  0  0  0  0  0
    7.6961  -12.6470   26.9272 S   0  0  0  0  0  0  0  0  0  0  0  0
    7.1085  -14.3328   26.5249 C   0  0  0  0  0  0  0  0  0  0  0  0
    7.8389  -14.8856   25.3391 C   0  0  0  0  0  0  0  0  0  0  0  0
    9.2090  -15.3180   25.7017 C   0  0  2  0  0  0  0  0  0  0  0  0
    9.8806  -15.9614   24.5701 N   0  0  0  0  0  0  0  0  0  0  0  0
    9.1677  -16.3422   26.7672 C   0  0  0  0  0  0  0  0  0  0  0  0
    9.1400  -16.0832   27.9981 O   0  0  0  0  0  0  0  0  0  0  0  0
    9.1572  -17.7043   26.4169 O   0  0  0  0  0  0  0  0  0  0  0  0
  1  2  1  0
  3  2  1  0
  3  5  1  0
  3  4  1  1
  5  6  2  0
  7  8  1  0
  8 10  1  0
  9  8  2  0
 11 10  1  6
 11 13  1  0
 12 11  1  0
 12  5  1  0
 13 14  2  0
 13 20  1  0
 16 15  1  0
 17 16  1  0
 18 17  1  0
 19 18  1  6
 20 19  1  0
 21 23  1  0
 21 19  1  0
 22 21  2  0
M  END
$$$$
