SNM.pdb
     RDKit          3D

 23 22  0  0  1  0  0  0  0  0999 V2000
    9.6423  -11.8083   18.1289 O   0  0  0  0  0  0  0  0  0  0  0  0
    8.9624  -12.5378   19.1014 C   0  0  0  0  0  0  0  0  0  0  0  0
    8.7518  -13.9654   18.6162 C   0  0  2  0  0  0  0  0  0  0  0  0
    7.6052  -13.9418   17.7449 N   0  0  0  0  0  0  0  0  0  0  0  0
    8.5047  -14.9085   19.7289 C   0  0  0  0  0  0  0  0  0  0  0  0
    7.3629  -14.9543   20.2444 O   0  0  0  0  0  0  0  0  0  0  0  0
    9.2289  -19.7850   22.5535 N   0  0  0  0  0  0  0  0  0  0  0  0
   10.0644  -18.6336   22.6169 C   0  0  0  0  0  0  0  0  0  0  0  0
   10.6582  -18.4217   23.6874 O   0  0  0  0  0  0  0  0  0  0  0  0
   10.1557  -17.7870   21.4042 C   0  0  0  0  0  0  0  0  0  0  0  0
    9.2079  -16.6238   21.4144 C   0  0  2  0  0  0  0  0  0  0  0  0
    9.4825  -15.7871   20.2708 N   0  0  0  0  0  0  0  0  0  0  0  0
    9.4651  -15.8656   22.6696 C   0  0  0  0  0  0  0  0  0  0  0  0
   10.5621  -15.2478   22.8339 O   0  0  0  0  0  0  0  0  0  0  0  0
    6.3474  -11.0942   27.9894 C   0  0  0  0  0  0  0  0  0  0  0  0
    6.0786  -12.2545   26.6161 S   0  0  0  0  0  0  0  0  0  0  0  0
    7.6308  -13.1643   26.2811 C   0  0  0  0  0  0  0  0  0  0  0  0
    7.4728  -14.0773   25.1037 C   0  0  0  0  0  0  0  0  0  0  0  0
    8.7142  -14.8432   24.8432 C   0  0  2  0  0  0  0  0  0  0  0  0
    8.5370  -15.7819   23.7327 N   0  0  0  0  0  0  0  0  0  0  0  0
    9.0660  -15.6790   26.0109 C   0  0  0  0  0  0  0  0  0  0  0  0
    9.4661  -15.2235   27.1134 O   0  0  0  0  0  0  0  0  0  0  0  0
    8.9572  -17.0782   25.9177 O   0  0  0  0  0  0  0  0  0  0  0  0
  1  2  1  0
  3  2  1  0
  3  5  1  0
  3  4  1  6
  5  6  2  0
  7  8  1  0
  8 10  1  0
  9  8  2  0
 11 10  1  6
 11 13  1  0
 12 11  1  0
 12  5  1  0
 13 14  2  0
 13 20  1  0
 16 15  1  0
 17 16  1  0
 18 17  1  0
 19 18  1  1
 20 19  1  0
 21 23  1  0
 21 19  1  0
 22 21  2  0
M  END
$$$$
