SNM.pdb
     RDKit          3D

 23 22  0  0  1  0  0  0  0  0999 V2000
   10.1462  -14.9566   20.3850 O   0  0  0  0  0  0  0  0  0  0  0  0
   10.0132  -16.1546   19.6868 C   0  0  0  0  0  0  0  0  0  0  0  0
    8.5659  -16.6231   19.7457 C   0  0  2  0  0  0  0  0  0  0  0  0
    7.8014  -15.7089   18.9369 N   0  0  0  0  0  0  0  0  0  0  0  0
    8.0299  -16.6262   21.1247 C   0  0  0  0  0  0  0  0  0  0  0  0
    7.1979  -15.7485   21.4552 O   0  0  0  0  0  0  0  0  0  0  0  0
    6.3381  -17.9205   25.7324 N   0  0  0  0  0  0  0  0  0  0  0  0
    6.9647  -19.0920   25.2199 C   0  0  0  0  0  0  0  0  0  0  0  0
    6.8188  -20.1427   25.8669 O   0  0  0  0  0  0  0  0  0  0  0  0
    7.7358  -18.9606   23.9615 C   0  0  0  0  0  0  0  0  0  0  0  0
    7.7934  -17.5550   23.4397 C   0  0  2  0  0  0  0  0  0  0  0  0
    8.3920  -17.5681   22.1264 N   0  0  0  0  0  0  0  0  0  0  0  0
    8.6494  -16.7784   24.3781 C   0  0  0  0  0  0  0  0  0  0  0  0
    9.9139  -16.8038   24.2654 O   0  0  0  0  0  0  0  0  0  0  0  0
    5.8675  -10.7709   25.4795 C   0  0  0  0  0  0  0  0  0  0  0  0
    6.5455  -11.8990   26.7334 S   0  0  0  0  0  0  0  0  0  0  0  0
    7.5837  -13.1623   25.9116 C   0  0  0  0  0  0  0  0  0  0  0  0
    8.2270  -14.0651   26.9196 C   0  0  0  0  0  0  0  0  0  0  0  0
    8.9974  -15.1469   26.2624 C   0  0  2  0  0  0  0  0  0  0  0  0
    8.1328  -15.9837   25.4270 N   0  0  0  0  0  0  0  0  0  0  0  0
    9.5742  -16.0623   27.2700 C   0  0  0  0  0  0  0  0  0  0  0  0
   10.3800  -15.7089   28.1694 O   0  0  0  0  0  0  0  0  0  0  0  0
    9.2200  -17.4233   27.2509 O   0  0  0  0  0  0  0  0  0  0  0  0
  1  2  1  0
  3  2  1  0
  3  5  1  0
  3  4  1  6
  5  6  2  0
  7  8  1  0
  8 10  1  0
  9  8  2  0
 11 10  1  1
 11 13  1  0
 12 11  1  0
 12  5  1  0
 13 14  2  0
 13 20  1  0
 16 15  1  0
 17 16  1  0
 18 17  1  0
 19 18  1  1
 20 19  1  0
 21 23  1  0
 21 19  1  0
 22 21  2  0
M  END
$$$$
