SNM.pdb
     RDKit          3D

 23 22  0  0  1  0  0  0  0  0999 V2000
    6.6976  -18.5929   22.4626 O   0  0  0  0  0  0  0  0  0  0  0  0
    6.9637  -19.2854   21.2836 C   0  0  0  0  0  0  0  0  0  0  0  0
    7.0227  -18.3075   20.1182 C   0  0  2  0  0  0  0  0  0  0  0  0
    7.3447  -19.0796   18.9456 N   0  0  0  0  0  0  0  0  0  0  0  0
    8.0479  -17.2589   20.3133 C   0  0  0  0  0  0  0  0  0  0  0  0
    9.2561  -17.5531   20.1538 O   0  0  0  0  0  0  0  0  0  0  0  0
    7.3818  -12.4337   18.4479 N   0  0  0  0  0  0  0  0  0  0  0  0
    8.1030  -13.5512   18.9564 C   0  0  0  0  0  0  0  0  0  0  0  0
    8.4805  -14.4040   18.1356 O   0  0  0  0  0  0  0  0  0  0  0  0
    8.3423  -13.6035   20.4178 C   0  0  0  0  0  0  0  0  0  0  0  0
    8.8103  -14.9452   20.8994 C   0  0  2  0  0  0  0  0  0  0  0  0
    7.7637  -15.9135   20.6750 N   0  0  0  0  0  0  0  0  0  0  0  0
    9.0745  -14.8146   22.3587 C   0  0  0  0  0  0  0  0  0  0  0  0
    9.9635  -14.0128   22.7817 O   0  0  0  0  0  0  0  0  0  0  0  0
    6.7729  -11.0262   27.0672 C   0  0  0  0  0  0  0  0  0  0  0  0
    6.5205  -12.8131   26.8480 S   0  0  0  0  0  0  0  0  0  0  0  0
    7.8747  -13.4932   25.8220 C   0  0  0  0  0  0  0  0  0  0  0  0
    7.6951  -14.9650   25.6056 C   0  0  0  0  0  0  0  0  0  0  0  0
    8.7732  -15.5217   24.7551 C   0  0  2  0  0  0  0  0  0  0  0  0
    8.3776  -15.5495   23.3450 N   0  0  0  0  0  0  0  0  0  0  0  0
    9.0455  -16.9300   25.1139 C   0  0  0  0  0  0  0  0  0  0  0  0
    8.3044  -17.8970   24.7999 O   0  0  0  0  0  0  0  0  0  0  0  0
   10.1996  -17.2444   25.8537 O   0  0  0  0  0  0  0  0  0  0  0  0
  1  2  1  0
  3  2  1  0
  3  5  1  0
  3  4  1  6
  5  6  2  0
  7  8  1  0
  8 10  1  0
  9  8  2  0
 11 10  1  1
 11 13  1  0
 12 11  1  0
 12  5  1  0
 13 14  2  0
 13 20  1  0
 16 15  1  0
 17 16  1  0
 18 17  1  0
 19 18  1  1
 20 19  1  0
 21 23  1  0
 21 19  1  0
 22 21  2  0
M  END
$$$$
