SNM.pdb
     RDKit          3D

 23 22  0  0  1  0  0  0  0  0999 V2000
    8.5116  -13.6944   19.5006 O   0  0  0  0  0  0  0  0  0  0  0  0
    7.6049  -14.4094   18.7215 C   0  0  0  0  0  0  0  0  0  0  0  0
    8.0504  -15.8617   18.6211 C   0  0  2  0  0  0  0  0  0  0  0  0
    7.0385  -16.5540   17.8652 N   0  0  0  0  0  0  0  0  0  0  0  0
    8.1959  -16.4999   19.9479 C   0  0  0  0  0  0  0  0  0  0  0  0
    7.1724  -16.9283   20.5316 O   0  0  0  0  0  0  0  0  0  0  0  0
   12.2540  -18.4792   24.0333 N   0  0  0  0  0  0  0  0  0  0  0  0
   10.9689  -18.6035   23.4328 C   0  0  0  0  0  0  0  0  0  0  0  0
   10.0963  -19.2068   24.0796 O   0  0  0  0  0  0  0  0  0  0  0  0
   10.7801  -18.0047   22.0906 C   0  0  0  0  0  0  0  0  0  0  0  0
    9.5044  -17.2261   21.9574 C   0  0  2  0  0  0  0  0  0  0  0  0
    9.4332  -16.6696   20.6276 N   0  0  0  0  0  0  0  0  0  0  0  0
    9.5584  -16.1293   22.9627 C   0  0  0  0  0  0  0  0  0  0  0  0
   10.3280  -15.1346   22.7878 O   0  0  0  0  0  0  0  0  0  0  0  0
    6.2097  -10.9800   27.5909 C   0  0  0  0  0  0  0  0  0  0  0  0
    6.0451  -12.3497   26.4070 S   0  0  0  0  0  0  0  0  0  0  0  0
    7.6481  -13.2209   26.2643 C   0  0  0  0  0  0  0  0  0  0  0  0
    7.5764  -14.3090   25.2367 C   0  0  0  0  0  0  0  0  0  0  0  0
    8.8685  -15.0244   25.1160 C   0  0  2  0  0  0  0  0  0  0  0  0
    8.7826  -16.1173   24.1444 N   0  0  0  0  0  0  0  0  0  0  0  0
    9.2306  -15.6665   26.3976 C   0  0  0  0  0  0  0  0  0  0  0  0
    9.1981  -16.9074   26.6023 O   0  0  0  0  0  0  0  0  0  0  0  0
    9.6432  -14.8675   27.4791 O   0  0  0  0  0  0  0  0  0  0  0  0
  1  2  1  0
  3  2  1  0
  3  5  1  0
  3  4  1  6
  5  6  2  0
  7  8  1  0
  8 10  1  0
  9  8  2  0
 11 10  1  6
 11 13  1  0
 12 11  1  0
 12  5  1  0
 13 14  2  0
 13 20  1  0
 16 15  1  0
 17 16  1  0
 18 17  1  0
 19 18  1  1
 20 19  1  0
 21 23  1  0
 21 19  1  0
 22 21  2  0
M  END
$$$$
