SNM.pdb
     RDKit          3D

 23 22  0  0  1  0  0  0  0  0999 V2000
    9.9787  -15.3686   18.8858 O   0  0  0  0  0  0  0  0  0  0  0  0
   10.6018  -16.6143   18.8952 C   0  0  0  0  0  0  0  0  0  0  0  0
    9.5524  -17.7103   19.0203 C   0  0  2  0  0  0  0  0  0  0  0  0
    8.8306  -17.7366   17.7742 N   0  0  0  0  0  0  0  0  0  0  0  0
    8.6073  -17.4619   20.1310 C   0  0  0  0  0  0  0  0  0  0  0  0
    7.3787  -17.6049   19.9269 O   0  0  0  0  0  0  0  0  0  0  0  0
    5.6921  -18.9079   23.9000 N   0  0  0  0  0  0  0  0  0  0  0  0
    7.1075  -18.9796   24.0386 C   0  0  0  0  0  0  0  0  0  0  0  0
    7.5534  -19.2769   25.1595 O   0  0  0  0  0  0  0  0  0  0  0  0
    7.9278  -18.6946   22.8380 C   0  0  0  0  0  0  0  0  0  0  0  0
    8.1165  -17.2291   22.5770 C   0  0  2  0  0  0  0  0  0  0  0  0
    8.9920  -17.0656   21.4412 N   0  0  0  0  0  0  0  0  0  0  0  0
    8.7514  -16.6500   23.7927 C   0  0  0  0  0  0  0  0  0  0  0  0
    9.9779  -16.8648   24.0416 O   0  0  0  0  0  0  0  0  0  0  0  0
    6.4318  -10.3354   25.5949 C   0  0  0  0  0  0  0  0  0  0  0  0
    6.4799  -11.8926   26.5315 S   0  0  0  0  0  0  0  0  0  0  0  0
    7.6915  -13.0256   25.7585 C   0  0  0  0  0  0  0  0  0  0  0  0
    7.8509  -14.2744   26.5709 C   0  0  0  0  0  0  0  0  0  0  0  0
    8.7260  -15.2556   25.8877 C   0  0  2  0  0  0  0  0  0  0  0  0
    8.0573  -15.8463   24.7260 N   0  0  0  0  0  0  0  0  0  0  0  0
    9.0337  -16.3916   26.7826 C   0  0  0  0  0  0  0  0  0  0  0  0
    9.6843  -16.2927   27.8549 O   0  0  0  0  0  0  0  0  0  0  0  0
    8.5845  -17.6805   26.4434 O   0  0  0  0  0  0  0  0  0  0  0  0
  1  2  1  0
  3  2  1  0
  3  5  1  0
  3  4  1  6
  5  6  2  0
  7  8  1  0
  8 10  1  0
  9  8  2  0
 11 10  1  1
 11 13  1  0
 12 11  1  0
 12  5  1  0
 13 14  2  0
 13 20  1  0
 16 15  1  0
 17 16  1  0
 18 17  1  0
 19 18  1  1
 20 19  1  0
 21 23  1  0
 21 19  1  0
 22 21  2  0
M  END
$$$$
