SNM.pdb
     RDKit          3D

 23 22  0  0  1  0  0  0  0  0999 V2000
    5.0445  -16.9635   21.2127 O   0  0  0  0  0  0  0  0  0  0  0  0
    6.2888  -17.3137   21.7318 C   0  0  0  0  0  0  0  0  0  0  0  0
    7.3445  -17.2170   20.6391 C   0  0  2  0  0  0  0  0  0  0  0  0
    7.0581  -18.2642   19.6926 N   0  0  0  0  0  0  0  0  0  0  0  0
    8.7168  -17.3904   21.1641 C   0  0  0  0  0  0  0  0  0  0  0  0
    9.1234  -18.5455   21.4322 O   0  0  0  0  0  0  0  0  0  0  0  0
   13.9179  -14.5458   22.7486 N   0  0  0  0  0  0  0  0  0  0  0  0
   13.1673  -15.7104   22.4200 C   0  0  0  0  0  0  0  0  0  0  0  0
   13.6688  -16.8093   22.7107 O   0  0  0  0  0  0  0  0  0  0  0  0
   11.8546  -15.5149   21.7610 C   0  0  0  0  0  0  0  0  0  0  0  0
   10.8085  -16.4920   22.2107 C   0  0  2  0  0  0  0  0  0  0  0  0
    9.6311  -16.3257   21.3927 N   0  0  0  0  0  0  0  0  0  0  0  0
   10.4903  -16.1654   23.6279 C   0  0  0  0  0  0  0  0  0  0  0  0
   11.3112  -15.5031   24.3348 O   0  0  0  0  0  0  0  0  0  0  0  0
    7.1394  -11.2924   25.9762 C   0  0  0  0  0  0  0  0  0  0  0  0
    6.7022  -13.0518   26.1107 S   0  0  0  0  0  0  0  0  0  0  0  0
    8.2022  -14.0684   25.8549 C   0  0  0  0  0  0  0  0  0  0  0  0
    7.8845  -15.5286   25.9645 C   0  0  0  0  0  0  0  0  0  0  0  0
    9.0807  -16.3631   25.7035 C   0  0  2  0  0  0  0  0  0  0  0  0
    9.2912  -16.5563   24.2668 N   0  0  0  0  0  0  0  0  0  0  0  0
    8.9005  -17.7212   26.2595 C   0  0  0  0  0  0  0  0  0  0  0  0
    8.7779  -17.9740   27.4859 O   0  0  0  0  0  0  0  0  0  0  0  0
    8.8585  -18.8249   25.3888 O   0  0  0  0  0  0  0  0  0  0  0  0
  1  2  1  0
  3  2  1  0
  3  5  1  0
  3  4  1  6
  5  6  2  0
  7  8  1  0
  8 10  1  0
  9  8  2  0
 11 10  1  6
 11 13  1  0
 12 11  1  0
 12  5  1  0
 13 14  2  0
 13 20  1  0
 16 15  1  0
 17 16  1  0
 18 17  1  0
 19 18  1  6
 20 19  1  0
 21 23  1  0
 21 19  1  0
 22 21  2  0
M  END
$$$$
