SNM.pdb
     RDKit          3D

 23 22  0  0  1  0  0  0  0  0999 V2000
   10.4513  -12.9449   19.4348 O   0  0  0  0  0  0  0  0  0  0  0  0
    9.9402  -13.9937   18.6738 C   0  0  0  0  0  0  0  0  0  0  0  0
    8.4361  -14.0948   18.8869 C   0  0  2  0  0  0  0  0  0  0  0  0
    7.9072  -12.7626   18.7452 N   0  0  0  0  0  0  0  0  0  0  0  0
    8.0904  -14.6214   20.2255 C   0  0  0  0  0  0  0  0  0  0  0  0
    7.5650  -13.8518   21.0642 O   0  0  0  0  0  0  0  0  0  0  0  0
    5.4764  -18.0017   21.9109 N   0  0  0  0  0  0  0  0  0  0  0  0
    6.6951  -18.7377   21.8825 C   0  0  0  0  0  0  0  0  0  0  0  0
    6.6089  -19.9764   21.8392 O   0  0  0  0  0  0  0  0  0  0  0  0
    7.9604  -17.9670   21.9068 C   0  0  0  0  0  0  0  0  0  0  0  0
    7.7561  -16.4810   21.8711 C   0  0  2  0  0  0  0  0  0  0  0  0
    8.3119  -15.9621   20.6443 N   0  0  0  0  0  0  0  0  0  0  0  0
    8.4875  -15.9143   23.0374 C   0  0  0  0  0  0  0  0  0  0  0  0
    9.7377  -15.7026   22.9709 O   0  0  0  0  0  0  0  0  0  0  0  0
    5.5345  -11.6963   26.5731 C   0  0  0  0  0  0  0  0  0  0  0  0
    7.0626  -11.6708   27.5574 S   0  0  0  0  0  0  0  0  0  0  0  0
    8.2130  -12.9436   26.9205 C   0  0  0  0  0  0  0  0  0  0  0  0
    7.5847  -13.7237   25.8062 C   0  0  0  0  0  0  0  0  0  0  0  0
    8.5195  -14.7359   25.2610 C   0  0  2  0  0  0  0  0  0  0  0  0
    7.8632  -15.5823   24.2616 N   0  0  0  0  0  0  0  0  0  0  0  0
    8.9660  -15.6600   26.3253 C   0  0  0  0  0  0  0  0  0  0  0  0
    9.6748  -15.3197   27.3075 O   0  0  0  0  0  0  0  0  0  0  0  0
    8.5915  -17.0144   26.2670 O   0  0  0  0  0  0  0  0  0  0  0  0
  1  2  1  0
  3  2  1  0
  3  5  1  0
  3  4  1  1
  5  6  2  0
  7  8  1  0
  8 10  1  0
  9  8  2  0
 11 10  1  6
 11 13  1  0
 12 11  1  0
 12  5  1  0
 13 14  2  0
 13 20  1  0
 16 15  1  0
 17 16  1  0
 18 17  1  0
 19 18  1  1
 20 19  1  0
 21 23  1  0
 21 19  1  0
 22 21  2  0
M  END
$$$$
