SNM.pdb
     RDKit          3D

 23 22  0  0  1  0  0  0  0  0999 V2000
   11.2781  -18.0090   20.0523 O   0  0  0  0  0  0  0  0  0  0  0  0
   10.6484  -19.1559   19.5743 C   0  0  0  0  0  0  0  0  0  0  0  0
    9.2022  -18.8364   19.2220 C   0  0  2  0  0  0  0  0  0  0  0  0
    9.2375  -17.7716   18.2527 N   0  0  0  0  0  0  0  0  0  0  0  0
    8.4173  -18.4041   20.3992 C   0  0  0  0  0  0  0  0  0  0  0  0
    7.4690  -17.6006   20.2355 O   0  0  0  0  0  0  0  0  0  0  0  0
    7.2793  -19.8429   26.2149 N   0  0  0  0  0  0  0  0  0  0  0  0
    6.8208  -19.4361   24.9297 C   0  0  0  0  0  0  0  0  0  0  0  0
    5.6922  -18.9203   24.8670 O   0  0  0  0  0  0  0  0  0  0  0  0
    7.7253  -19.6610   23.7778 C   0  0  0  0  0  0  0  0  0  0  0  0
    7.7666  -18.5097   22.8164 C   0  0  2  0  0  0  0  0  0  0  0  0
    8.6594  -18.8388   21.7311 N   0  0  0  0  0  0  0  0  0  0  0  0
    8.2932  -17.3365   23.5667 C   0  0  0  0  0  0  0  0  0  0  0  0
    9.5418  -17.2005   23.7531 O   0  0  0  0  0  0  0  0  0  0  0  0
    6.9219  -10.5564   27.4701 C   0  0  0  0  0  0  0  0  0  0  0  0
    6.1914  -11.9274   26.5260 S   0  0  0  0  0  0  0  0  0  0  0  0
    7.5102  -13.1032   26.0494 C   0  0  0  0  0  0  0  0  0  0  0  0
    6.9546  -14.2274   25.2294 C   0  0  0  0  0  0  0  0  0  0  0  0
    8.0257  -15.1436   24.7722 C   0  0  2  0  0  0  0  0  0  0  0  0
    7.4681  -16.3237   24.1072 N   0  0  0  0  0  0  0  0  0  0  0  0
    8.7907  -15.6672   25.9239 C   0  0  0  0  0  0  0  0  0  0  0  0
    8.4839  -16.7052   26.5652 O   0  0  0  0  0  0  0  0  0  0  0  0
    9.9419  -14.9851   26.3570 O   0  0  0  0  0  0  0  0  0  0  0  0
  1  2  1  0
  3  2  1  0
  3  5  1  0
  3  4  1  6
  5  6  2  0
  7  8  1  0
  8 10  1  0
  9  8  2  0
 11 10  1  1
 11 13  1  0
 12 11  1  0
 12  5  1  0
 13 14  2  0
 13 20  1  0
 16 15  1  0
 17 16  1  0
 18 17  1  0
 19 18  1  1
 20 19  1  0
 21 23  1  0
 21 19  1  0
 22 21  2  0
M  END
$$$$
