YDQ.pdb
     RDKit          3D

 30 30  0  0  1  0  0  0  0  0999 V2000
    5.1146  -10.1341   26.6275 O   0  0  0  0  0  0  0  0  0  0  0  0
    5.7509  -11.3576   26.4836 C   0  0  0  0  0  0  0  0  0  0  0  0
    5.7176  -12.3387   27.4475 C   0  0  0  0  0  0  0  0  0  0  0  0
    6.3633  -13.5577   27.2807 C   0  0  0  0  0  0  0  0  0  0  0  0
    7.0660  -13.8236   26.1292 C   0  0  0  0  0  0  0  0  0  0  0  0
    7.7622  -15.1114   25.9462 C   0  0  0  0  0  0  0  0  0  0  0  0
    7.3874  -15.7623   24.6578 C   0  0  2  0  0  0  0  0  0  0  0  0
    6.1280  -16.4989   24.8542 N   0  0  0  0  0  0  0  0  0  0  0  0
    8.4210  -16.6913   24.1560 C   0  0  0  0  0  0  0  0  0  0  0  0
    8.4170  -17.9252   24.4788 O   0  0  0  0  0  0  0  0  0  0  0  0
    7.1052  -12.8392   25.1500 C   0  0  0  0  0  0  0  0  0  0  0  0
    6.4622  -11.6491   25.3375 C   0  0  0  0  0  0  0  0  0  0  0  0
    9.4327  -16.1808   23.2988 N   0  0  0  0  0  0  0  0  0  0  0  0
   10.5798  -16.9788   22.9830 C   0  0  1  0  0  0  0  0  0  0  0  0
   11.3488  -16.3682   21.8818 C   0  0  0  0  0  0  0  0  0  0  0  0
   12.4965  -17.2367   21.5336 C   0  0  0  0  0  0  0  0  0  0  0  0
   13.5635  -16.8116   21.0287 O   0  0  0  0  0  0  0  0  0  0  0  0
   11.3697  -17.2203   24.2129 C   0  0  0  0  0  0  0  0  0  0  0  0
   11.9498  -16.2380   24.7307 O   0  0  0  0  0  0  0  0  0  0  0  0
   12.4492  -18.6272   21.7576 O   0  0  0  0  0  0  0  0  0  0  0  0
    9.8811  -21.0843   29.5889 N   0  0  0  0  0  0  0  0  0  0  0  0
   10.8283  -20.3158   28.8738 C   0  0  0  0  0  0  0  0  0  0  0  0
   11.8809  -19.9099   29.4579 O   0  0  0  0  0  0  0  0  0  0  0  0
   10.6409  -19.9699   27.4586 C   0  0  0  0  0  0  0  0  0  0  0  0
   11.1931  -18.6410   27.1488 C   0  0  0  0  0  0  0  0  0  0  0  0
   12.2483  -18.6313   26.1149 C   0  0  2  0  0  0  0  0  0  0  0  0
   11.5077  -18.4741   24.8306 N   0  0  0  0  0  0  0  0  0  0  0  0
   13.2403  -19.6645   26.0345 C   0  0  0  0  0  0  0  0  0  0  0  0
   14.1646  -19.7403   26.9258 O   0  0  0  0  0  0  0  0  0  0  0  0
   13.3317  -20.6597   25.0629 O   0  0  0  0  0  0  0  0  0  0  0  0
  1  2  1  0
  2  3  2  0
  3  4  1  0
  5  6  1  0
  5  4  2  0
  7  9  1  0
  7  6  1  0
  7  8  1  1
  9 10  2  0
 11  5  1  0
 12 11  2  0
 12  2  1  0
 13 14  1  0
 13  9  1  0
 14 15  1  6
 15 16  1  0
 16 17  2  0
 18 14  1  0
 19 18  2  0
 20 16  1  0
 21 22  1  0
 22 23  2  0
 24 22  1  0
 24 25  1  0
 26 25  1  1
 26 27  1  0
 27 18  1  0
 28 26  1  0
 28 30  1  0
 29 28  2  0
M  END
$$$$
