YDQ.pdb
     RDKit          3D

 30 30  0  0  1  0  0  0  0  0999 V2000
    4.9862  -10.1945   27.1629 O   0  0  0  0  0  0  0  0  0  0  0  0
    5.7283  -11.2646   26.6866 C   0  0  0  0  0  0  0  0  0  0  0  0
    6.5432  -11.1799   25.5815 C   0  0  0  0  0  0  0  0  0  0  0  0
    7.2778  -12.2665   25.1227 C   0  0  0  0  0  0  0  0  0  0  0  0
    7.2107  -13.4777   25.7698 C   0  0  0  0  0  0  0  0  0  0  0  0
    7.9801  -14.6397   25.2855 C   0  0  0  0  0  0  0  0  0  0  0  0
    7.1521  -15.5258   24.4175 C   0  0  2  0  0  0  0  0  0  0  0  0
    6.3477  -16.4071   25.2797 N   0  0  0  0  0  0  0  0  0  0  0  0
    7.9592  -16.3518   23.4958 C   0  0  0  0  0  0  0  0  0  0  0  0
    8.3565  -17.5181   23.8255 O   0  0  0  0  0  0  0  0  0  0  0  0
    6.3907  -13.5730   26.8868 C   0  0  0  0  0  0  0  0  0  0  0  0
    5.6786  -12.4906   27.3183 C   0  0  0  0  0  0  0  0  0  0  0  0
    8.2907  -15.8183   22.2213 N   0  0  0  0  0  0  0  0  0  0  0  0
    9.3178  -16.4278   21.4299 C   0  0  1  0  0  0  0  0  0  0  0  0
    9.2904  -15.9027   20.0514 C   0  0  0  0  0  0  0  0  0  0  0  0
   10.2873  -16.6204   19.2246 C   0  0  0  0  0  0  0  0  0  0  0  0
   10.8841  -16.1043   18.2491 O   0  0  0  0  0  0  0  0  0  0  0  0
   10.6247  -16.2753   22.1109 C   0  0  0  0  0  0  0  0  0  0  0  0
   10.7420  -15.3396   22.9358 O   0  0  0  0  0  0  0  0  0  0  0  0
   10.6281  -17.9602   19.4978 O   0  0  0  0  0  0  0  0  0  0  0  0
    9.9411  -18.0560   26.1041 N   0  0  0  0  0  0  0  0  0  0  0  0
   11.3006  -17.8431   26.4293 C   0  0  0  0  0  0  0  0  0  0  0  0
   11.6932  -17.9950   27.6279 O   0  0  0  0  0  0  0  0  0  0  0  0
   12.2912  -17.4537   25.4171 C   0  0  0  0  0  0  0  0  0  0  0  0
   11.9145  -17.9354   24.0781 C   0  0  0  0  0  0  0  0  0  0  0  0
   12.7234  -17.3881   22.9696 C   0  0  2  0  0  0  0  0  0  0  0  0
   11.7332  -17.1091   21.8906 N   0  0  0  0  0  0  0  0  0  0  0  0
   13.8807  -18.0706   22.4667 C   0  0  0  0  0  0  0  0  0  0  0  0
   13.7857  -18.8150   21.4220 O   0  0  0  0  0  0  0  0  0  0  0  0
   15.1716  -18.0214   22.9902 O   0  0  0  0  0  0  0  0  0  0  0  0
  1  2  1  0
  2  3  2  0
  3  4  1  0
  5  6  1  0
  5  4  2  0
  7  9  1  0
  7  6  1  0
  7  8  1  1
  9 10  2  0
 11  5  1  0
 12 11  2  0
 12  2  1  0
 13 14  1  0
 13  9  1  0
 14 15  1  6
 15 16  1  0
 16 17  2  0
 18 14  1  0
 19 18  2  0
 20 16  1  0
 21 22  1  0
 22 23  2  0
 24 22  1  0
 24 25  1  0
 26 25  1  1
 26 27  1  0
 27 18  1  0
 28 26  1  0
 28 30  1  0
 29 28  2  0
M  END
$$$$
