YDQ.pdb
     RDKit          3D

 30 30  0  0  1  0  0  0  0  0999 V2000
    6.0281  -11.5985   18.2258 O   0  0  0  0  0  0  0  0  0  0  0  0
    7.0903  -12.4219   18.5671 C   0  0  0  0  0  0  0  0  0  0  0  0
    7.7168  -13.2511   17.6657 C   0  0  0  0  0  0  0  0  0  0  0  0
    8.7799  -14.0677   18.0313 C   0  0  0  0  0  0  0  0  0  0  0  0
    9.2443  -14.0715   19.3254 C   0  0  0  0  0  0  0  0  0  0  0  0
   10.3668  -14.9414   19.7256 C   0  0  0  0  0  0  0  0  0  0  0  0
    9.9715  -16.3793   19.7407 C   0  0  2  0  0  0  0  0  0  0  0  0
    8.9649  -16.5772   20.7965 N   0  0  0  0  0  0  0  0  0  0  0  0
   11.1102  -17.2905   19.9774 C   0  0  0  0  0  0  0  0  0  0  0  0
   12.0794  -17.3693   19.1520 O   0  0  0  0  0  0  0  0  0  0  0  0
    8.6182  -13.2374   20.2428 C   0  0  0  0  0  0  0  0  0  0  0  0
    7.5752  -12.4439   19.8589 C   0  0  0  0  0  0  0  0  0  0  0  0
   11.1068  -18.0886   21.1530 N   0  0  0  0  0  0  0  0  0  0  0  0
   12.1426  -19.0539   21.3716 C   0  0  1  0  0  0  0  0  0  0  0  0
   13.4717  -18.4324   21.2162 C   0  0  0  0  0  0  0  0  0  0  0  0
   14.4092  -19.4049   20.6098 C   0  0  0  0  0  0  0  0  0  0  0  0
   15.5358  -19.6782   21.0896 O   0  0  0  0  0  0  0  0  0  0  0  0
   11.9332  -19.7183   22.6792 C   0  0  0  0  0  0  0  0  0  0  0  0
   10.8529  -20.3286   22.8521 O   0  0  0  0  0  0  0  0  0  0  0  0
   14.0755  -20.0950   19.4273 O   0  0  0  0  0  0  0  0  0  0  0  0
   10.2762  -23.5648   25.0642 N   0  0  0  0  0  0  0  0  0  0  0  0
   10.9177  -23.1301   23.8816 C   0  0  0  0  0  0  0  0  0  0  0  0
   10.9015  -23.8683   22.8479 O   0  0  0  0  0  0  0  0  0  0  0  0
   11.6064  -21.8352   23.8006 C   0  0  0  0  0  0  0  0  0  0  0  0
   11.6414  -21.1585   25.1073 C   0  0  0  0  0  0  0  0  0  0  0  0
   12.4442  -19.9189   25.1447 C   0  0  2  0  0  0  0  0  0  0  0  0
   12.8647  -19.7065   23.7303 N   0  0  0  0  0  0  0  0  0  0  0  0
   13.5393  -19.7522   26.0565 C   0  0  0  0  0  0  0  0  0  0  0  0
   14.7291  -19.5628   25.6058 O   0  0  0  0  0  0  0  0  0  0  0  0
   13.4747  -19.7612   27.4488 O   0  0  0  0  0  0  0  0  0  0  0  0
  1  2  1  0
  2  3  2  0
  3  4  1  0
  5  6  1  0
  5  4  2  0
  7  9  1  0
  7  6  1  0
  7  8  1  1
  9 10  2  0
 11  5  1  0
 12 11  2  0
 12  2  1  0
 13 14  1  0
 13  9  1  0
 14 15  1  1
 15 16  1  0
 16 17  2  0
 18 14  1  0
 19 18  2  0
 20 16  1  0
 21 22  1  0
 22 23  2  0
 24 22  1  0
 24 25  1  0
 26 25  1  6
 26 27  1  0
 27 18  1  0
 28 26  1  0
 28 30  1  0
 29 28  2  0
M  END
$$$$
