YDQ.pdb
     RDKit          3D

 30 30  0  0  1  0  0  0  0  0999 V2000
    7.0694  -12.5853   16.4430 O   0  0  0  0  0  0  0  0  0  0  0  0
    7.2869  -13.1925   17.6705 C   0  0  0  0  0  0  0  0  0  0  0  0
    7.9249  -12.5652   18.7154 C   0  0  0  0  0  0  0  0  0  0  0  0
    8.1315  -13.1943   19.9370 C   0  0  0  0  0  0  0  0  0  0  0  0
    7.6977  -14.4829   20.1408 C   0  0  0  0  0  0  0  0  0  0  0  0
    7.9199  -15.1626   21.4312 C   0  0  0  0  0  0  0  0  0  0  0  0
    9.3728  -15.3179   21.7293 C   0  0  2  0  0  0  0  0  0  0  0  0
   10.0225  -15.9570   20.5732 N   0  0  0  0  0  0  0  0  0  0  0  0
    9.6327  -16.1237   22.9402 C   0  0  0  0  0  0  0  0  0  0  0  0
    9.0438  -15.8724   24.0433 O   0  0  0  0  0  0  0  0  0  0  0  0
    7.0521  -15.1246   19.0916 C   0  0  0  0  0  0  0  0  0  0  0  0
    6.8609  -14.4849   17.9003 C   0  0  0  0  0  0  0  0  0  0  0  0
   10.5621  -17.1951   22.8548 N   0  0  0  0  0  0  0  0  0  0  0  0
   10.8550  -17.9888   24.0111 C   0  0  1  0  0  0  0  0  0  0  0  0
   11.6873  -19.1507   23.6450 C   0  0  0  0  0  0  0  0  0  0  0  0
   11.0714  -20.3906   24.1703 C   0  0  0  0  0  0  0  0  0  0  0  0
   10.7459  -20.5517   25.3713 O   0  0  0  0  0  0  0  0  0  0  0  0
   11.4429  -17.1302   25.0657 C   0  0  0  0  0  0  0  0  0  0  0  0
   11.8511  -15.9951   24.7275 O   0  0  0  0  0  0  0  0  0  0  0  0
   10.8109  -21.4869   23.3242 O   0  0  0  0  0  0  0  0  0  0  0  0
    8.0184  -14.4419   28.3372 N   0  0  0  0  0  0  0  0  0  0  0  0
    8.9877  -13.7602   27.5659 C   0  0  0  0  0  0  0  0  0  0  0  0
    8.9500  -12.4931   27.4830 O   0  0  0  0  0  0  0  0  0  0  0  0
   10.0558  -14.4723   26.8521 C   0  0  0  0  0  0  0  0  0  0  0  0
    9.9509  -15.9290   27.0351 C   0  0  0  0  0  0  0  0  0  0  0  0
   11.1828  -16.5857   27.5185 C   0  0  2  0  0  0  0  0  0  0  0  0
   11.5702  -17.5074   26.4126 N   0  0  0  0  0  0  0  0  0  0  0  0
   11.2452  -17.2328   28.7974 C   0  0  0  0  0  0  0  0  0  0  0  0
   12.0688  -16.8130   29.6918 O   0  0  0  0  0  0  0  0  0  0  0  0
   10.4775  -18.3156   29.2230 O   0  0  0  0  0  0  0  0  0  0  0  0
  1  2  1  0
  2  3  2  0
  3  4  1  0
  5  6  1  0
  5  4  2  0
  7  9  1  0
  7  6  1  0
  7  8  1  6
  9 10  2  0
 11  5  1  0
 12 11  2  0
 12  2  1  0
 13 14  1  0
 13  9  1  0
 14 15  1  6
 15 16  1  0
 16 17  2  0
 18 14  1  0
 19 18  2  0
 20 16  1  0
 21 22  1  0
 22 23  2  0
 24 22  1  0
 24 25  1  0
 26 25  1  6
 26 27  1  0
 27 18  1  0
 28 26  1  0
 28 30  1  0
 29 28  2  0
M  END
$$$$
