YDQ.pdb
     RDKit          3D

 30 30  0  0  1  0  0  0  0  0999 V2000
    7.0996  -12.2374   17.1552 O   0  0  0  0  0  0  0  0  0  0  0  0
    7.3389  -13.0804   18.2298 C   0  0  0  0  0  0  0  0  0  0  0  0
    7.1987  -14.4470   18.1572 C   0  0  0  0  0  0  0  0  0  0  0  0
    7.4442  -15.2720   19.2480 C   0  0  0  0  0  0  0  0  0  0  0  0
    7.8407  -14.7383   20.4515 C   0  0  0  0  0  0  0  0  0  0  0  0
    8.0954  -15.6049   21.6180 C   0  0  0  0  0  0  0  0  0  0  0  0
    9.4790  -15.4267   22.1453 C   0  0  2  0  0  0  0  0  0  0  0  0
   10.4248  -15.5246   21.0213 N   0  0  0  0  0  0  0  0  0  0  0  0
    9.8401  -16.4246   23.1732 C   0  0  0  0  0  0  0  0  0  0  0  0
    9.0666  -16.6742   24.1561 O   0  0  0  0  0  0  0  0  0  0  0  0
    7.9852  -13.3593   20.5346 C   0  0  0  0  0  0  0  0  0  0  0  0
    7.7379  -12.5697   19.4482 C   0  0  0  0  0  0  0  0  0  0  0  0
   11.0791  -17.1088   23.0480 N   0  0  0  0  0  0  0  0  0  0  0  0
   11.4914  -18.0427   24.0532 C   0  0  1  0  0  0  0  0  0  0  0  0
   12.6751  -18.7998   23.6033 C   0  0  0  0  0  0  0  0  0  0  0  0
   13.1158  -19.7202   24.6762 C   0  0  0  0  0  0  0  0  0  0  0  0
   12.6388  -20.8677   24.8488 O   0  0  0  0  0  0  0  0  0  0  0  0
   11.6782  -17.3347   25.3411 C   0  0  0  0  0  0  0  0  0  0  0  0
   12.0902  -16.1523   25.2974 O   0  0  0  0  0  0  0  0  0  0  0  0
   14.1238  -19.3447   25.5866 O   0  0  0  0  0  0  0  0  0  0  0  0
   10.0940  -12.7848   28.0819 N   0  0  0  0  0  0  0  0  0  0  0  0
    9.2769  -13.8796   27.7171 C   0  0  0  0  0  0  0  0  0  0  0  0
    8.3423  -13.7148   26.8727 O   0  0  0  0  0  0  0  0  0  0  0  0
    9.4757  -15.2211   28.2814 C   0  0  0  0  0  0  0  0  0  0  0  0
   10.0155  -16.1549   27.2797 C   0  0  0  0  0  0  0  0  0  0  0  0
   11.0723  -17.0590   27.7778 C   0  0  2  0  0  0  0  0  0  0  0  0
   11.4238  -17.9029   26.6001 N   0  0  0  0  0  0  0  0  0  0  0  0
   10.8991  -17.8466   28.9643 C   0  0  0  0  0  0  0  0  0  0  0  0
   10.7137  -19.1162   28.8730 O   0  0  0  0  0  0  0  0  0  0  0  0
   10.9151  -17.3875   30.2803 O   0  0  0  0  0  0  0  0  0  0  0  0
  1  2  1  0
  2  3  2  0
  3  4  1  0
  5  6  1  0
  5  4  2  0
  7  9  1  0
  7  6  1  0
  7  8  1  6
  9 10  2  0
 11  5  1  0
 12 11  2  0
 12  2  1  0
 13 14  1  0
 13  9  1  0
 14 15  1  6
 15 16  1  0
 16 17  2  0
 18 14  1  0
 19 18  2  0
 20 16  1  0
 21 22  1  0
 22 23  2  0
 24 22  1  0
 24 25  1  0
 26 25  1  6
 26 27  1  0
 27 18  1  0
 28 26  1  0
 28 30  1  0
 29 28  2  0
M  END
$$$$
