YDQ.pdb
     RDKit          3D

 30 30  0  0  1  0  0  0  0  0999 V2000
    5.1336  -12.5697   19.4130 O   0  0  0  0  0  0  0  0  0  0  0  0
    6.5039  -12.7207   19.5615 C   0  0  0  0  0  0  0  0  0  0  0  0
    7.0779  -13.3275   20.6546 C   0  0  0  0  0  0  0  0  0  0  0  0
    8.4546  -13.4674   20.7814 C   0  0  0  0  0  0  0  0  0  0  0  0
    9.2972  -12.9957   19.8027 C   0  0  0  0  0  0  0  0  0  0  0  0
   10.7606  -13.1315   19.9320 C   0  0  0  0  0  0  0  0  0  0  0  0
   11.3210  -14.0571   18.9057 C   0  0  2  0  0  0  0  0  0  0  0  0
   10.5871  -15.3314   18.9736 N   0  0  0  0  0  0  0  0  0  0  0  0
   12.7642  -14.3168   19.0863 C   0  0  0  0  0  0  0  0  0  0  0  0
   13.6154  -13.3670   19.0768 O   0  0  0  0  0  0  0  0  0  0  0  0
    8.7269  -12.3815   18.6950 C   0  0  0  0  0  0  0  0  0  0  0  0
    7.3709  -12.2562   18.5934 C   0  0  0  0  0  0  0  0  0  0  0  0
   13.1936  -15.6585   19.2715 N   0  0  0  0  0  0  0  0  0  0  0  0
   14.5428  -16.0319   18.9667 C   0  0  1  0  0  0  0  0  0  0  0  0
   15.1463  -15.0708   18.0239 C   0  0  0  0  0  0  0  0  0  0  0  0
   16.4005  -15.6331   17.4731 C   0  0  0  0  0  0  0  0  0  0  0  0
   16.5669  -16.8514   17.2237 O   0  0  0  0  0  0  0  0  0  0  0  0
   15.3051  -16.2069   20.2250 C   0  0  0  0  0  0  0  0  0  0  0  0
   15.9557  -15.2239   20.6492 O   0  0  0  0  0  0  0  0  0  0  0  0
   17.5055  -14.8052   17.1918 O   0  0  0  0  0  0  0  0  0  0  0  0
   12.4981  -18.1475   25.4374 N   0  0  0  0  0  0  0  0  0  0  0  0
   12.4240  -17.9145   24.0448 C   0  0  0  0  0  0  0  0  0  0  0  0
   11.4135  -18.3204   23.3906 O   0  0  0  0  0  0  0  0  0  0  0  0
   13.4842  -17.2046   23.3170 C   0  0  0  0  0  0  0  0  0  0  0  0
   14.6657  -18.0586   23.1133 C   0  0  0  0  0  0  0  0  0  0  0  0
   15.7822  -17.4142   22.3918 C   0  0  2  0  0  0  0  0  0  0  0  0
   15.3434  -17.3988   20.9670 N   0  0  0  0  0  0  0  0  0  0  0  0
   17.1358  -17.8701   22.5270 C   0  0  0  0  0  0  0  0  0  0  0  0
   17.7391  -18.4024   21.5234 O   0  0  0  0  0  0  0  0  0  0  0  0
   17.9301  -17.7987   23.6701 O   0  0  0  0  0  0  0  0  0  0  0  0
  1  2  1  0
  2  3  2  0
  3  4  1  0
  5  6  1  0
  5  4  2  0
  7  9  1  0
  7  6  1  0
  7  8  1  1
  9 10  2  0
 11  5  1  0
 12 11  2  0
 12  2  1  0
 13 14  1  0
 13  9  1  0
 14 15  1  6
 15 16  1  0
 16 17  2  0
 18 14  1  0
 19 18  2  0
 20 16  1  0
 21 22  1  0
 22 23  2  0
 24 22  1  0
 24 25  1  0
 26 25  1  1
 26 27  1  0
 27 18  1  0
 28 26  1  0
 28 30  1  0
 29 28  2  0
M  END
$$$$
