YDQ.pdb
     RDKit          3D

 30 30  0  0  1  0  0  0  0  0999 V2000
    5.8210  -10.2950   27.1055 O   0  0  0  0  0  0  0  0  0  0  0  0
    6.1841  -11.3781   26.3196 C   0  0  0  0  0  0  0  0  0  0  0  0
    7.1057  -11.2913   25.3019 C   0  0  0  0  0  0  0  0  0  0  0  0
    7.4539  -12.3912   24.5273 C   0  0  0  0  0  0  0  0  0  0  0  0
    6.8783  -13.6181   24.7586 C   0  0  0  0  0  0  0  0  0  0  0  0
    7.2347  -14.7900   23.9362 C   0  0  0  0  0  0  0  0  0  0  0  0
    8.1039  -15.7440   24.6835 C   0  0  2  0  0  0  0  0  0  0  0  0
    9.0328  -14.9711   25.5243 N   0  0  0  0  0  0  0  0  0  0  0  0
    8.8784  -16.6376   23.7977 C   0  0  0  0  0  0  0  0  0  0  0  0
    8.3368  -17.6460   23.2349 O   0  0  0  0  0  0  0  0  0  0  0  0
    5.9467  -13.7158   25.7843 C   0  0  0  0  0  0  0  0  0  0  0  0
    5.6213  -12.6202   26.5317 C   0  0  0  0  0  0  0  0  0  0  0  0
   10.2535  -16.3526   23.5818 N   0  0  0  0  0  0  0  0  0  0  0  0
   11.1656  -17.4081   23.2553 C   0  0  1  0  0  0  0  0  0  0  0  0
   12.1228  -16.9654   22.2235 C   0  0  0  0  0  0  0  0  0  0  0  0
   11.9449  -17.7763   20.9974 C   0  0  0  0  0  0  0  0  0  0  0  0
   11.0303  -18.6223   20.8487 O   0  0  0  0  0  0  0  0  0  0  0  0
   11.8009  -17.9152   24.4939 C   0  0  0  0  0  0  0  0  0  0  0  0
   12.6768  -17.1982   25.0308 O   0  0  0  0  0  0  0  0  0  0  0  0
   12.8190  -17.6365   19.9010 O   0  0  0  0  0  0  0  0  0  0  0  0
   12.5668  -15.9851   28.3945 N   0  0  0  0  0  0  0  0  0  0  0  0
   11.7162  -16.8118   29.1641 C   0  0  0  0  0  0  0  0  0  0  0  0
   11.3740  -16.4499   30.3328 O   0  0  0  0  0  0  0  0  0  0  0  0
   11.2008  -18.0887   28.6526 C   0  0  0  0  0  0  0  0  0  0  0  0
   11.1679  -18.1083   27.1812 C   0  0  0  0  0  0  0  0  0  0  0  0
   11.6639  -19.3557   26.5643 C   0  0  2  0  0  0  0  0  0  0  0  0
   11.4843  -19.1421   25.0998 N   0  0  0  0  0  0  0  0  0  0  0  0
   11.1900  -20.6456   26.9762 C   0  0  0  0  0  0  0  0  0  0  0  0
   11.6820  -21.2081   28.0232 O   0  0  0  0  0  0  0  0  0  0  0  0
   10.2015  -21.4084   26.3566 O   0  0  0  0  0  0  0  0  0  0  0  0
  1  2  1  0
  2  3  2  0
  3  4  1  0
  5  6  1  0
  5  4  2  0
  7  9  1  0
  7  6  1  0
  7  8  1  6
  9 10  2  0
 11  5  1  0
 12 11  2  0
 12  2  1  0
 13 14  1  0
 13  9  1  0
 14 15  1  6
 15 16  1  0
 16 17  2  0
 18 14  1  0
 19 18  2  0
 20 16  1  0
 21 22  1  0
 22 23  2  0
 24 22  1  0
 24 25  1  0
 26 25  1  1
 26 27  1  0
 27 18  1  0
 28 26  1  0
 28 30  1  0
 29 28  2  0
M  END
$$$$
