YDQ.pdb
     RDKit          3D

 30 30  0  0  1  0  0  0  0  0999 V2000
    5.1220  -10.3880   27.4556 O   0  0  0  0  0  0  0  0  0  0  0  0
    5.8664  -11.4598   26.9867 C   0  0  0  0  0  0  0  0  0  0  0  0
    6.1873  -12.5481   27.7645 C   0  0  0  0  0  0  0  0  0  0  0  0
    6.9349  -13.6109   27.2722 C   0  0  0  0  0  0  0  0  0  0  0  0
    7.3834  -13.6060   25.9726 C   0  0  0  0  0  0  0  0  0  0  0  0
    8.1852  -14.7255   25.4430 C   0  0  0  0  0  0  0  0  0  0  0  0
    7.4035  -15.5580   24.4839 C   0  0  2  0  0  0  0  0  0  0  0  0
    6.3923  -16.3167   25.2383 N   0  0  0  0  0  0  0  0  0  0  0  0
    8.2440  -16.4990   23.7150 C   0  0  0  0  0  0  0  0  0  0  0  0
    8.4755  -17.6797   24.1383 O   0  0  0  0  0  0  0  0  0  0  0  0
    7.0643  -12.5114   25.1793 C   0  0  0  0  0  0  0  0  0  0  0  0
    6.3280  -11.4791   25.6863 C   0  0  0  0  0  0  0  0  0  0  0  0
    8.7982  -16.0610   22.4822 N   0  0  0  0  0  0  0  0  0  0  0  0
    9.7536  -16.8753   21.7918 C   0  0  1  0  0  0  0  0  0  0  0  0
    9.9097  -16.4215   20.3967 C   0  0  0  0  0  0  0  0  0  0  0  0
   10.9075  -17.2693   19.7052 C   0  0  0  0  0  0  0  0  0  0  0  0
   10.9814  -18.5138   19.8464 O   0  0  0  0  0  0  0  0  0  0  0  0
   11.0190  -16.9155   22.5614 C   0  0  0  0  0  0  0  0  0  0  0  0
   11.5999  -15.8268   22.7777 O   0  0  0  0  0  0  0  0  0  0  0  0
   11.8544  -16.7065   18.8263 O   0  0  0  0  0  0  0  0  0  0  0  0
   11.7462  -18.3381   27.9433 N   0  0  0  0  0  0  0  0  0  0  0  0
   11.5626  -19.4683   27.1139 C   0  0  0  0  0  0  0  0  0  0  0  0
   11.0627  -20.5311   27.5981 O   0  0  0  0  0  0  0  0  0  0  0  0
   11.9275  -19.4570   25.6911 C   0  0  0  0  0  0  0  0  0  0  0  0
   12.4032  -18.1307   25.2651 C   0  0  0  0  0  0  0  0  0  0  0  0
   12.8603  -18.0546   23.8623 C   0  0  2  0  0  0  0  0  0  0  0  0
   11.6040  -18.0909   23.0604 N   0  0  0  0  0  0  0  0  0  0  0  0
   13.8522  -18.9491   23.3387 C   0  0  0  0  0  0  0  0  0  0  0  0
   13.5551  -19.7462   22.3738 O   0  0  0  0  0  0  0  0  0  0  0  0
   15.1757  -19.0663   23.7598 O   0  0  0  0  0  0  0  0  0  0  0  0
  1  2  1  0
  2  3  2  0
  3  4  1  0
  5  6  1  0
  5  4  2  0
  7  9  1  0
  7  6  1  0
  7  8  1  1
  9 10  2  0
 11  5  1  0
 12 11  2  0
 12  2  1  0
 13 14  1  0
 13  9  1  0
 14 15  1  6
 15 16  1  0
 16 17  2  0
 18 14  1  0
 19 18  2  0
 20 16  1  0
 21 22  1  0
 22 23  2  0
 24 22  1  0
 24 25  1  0
 26 25  1  1
 26 27  1  0
 27 18  1  0
 28 26  1  0
 28 30  1  0
 29 28  2  0
M  END
$$$$
