QNP.pdb
     RDKit          3D

 25 25  0  0  1  0  0  0  0  0999 V2000
   15.8295  -26.5444   -4.9722 N   0  0  0  0  0  0  0  0  0  0  0  0
   16.4732  -26.1880   -3.7362 C   0  0  0  0  0  0  0  0  0  0  0  0
   16.8957  -27.1081   -2.9890 O   0  0  0  0  0  0  0  0  0  0  0  0
   16.6121  -24.7579   -3.3969 C   0  0  0  0  0  0  0  0  0  0  0  0
   15.2961  -24.1539   -3.0566 C   0  0  0  0  0  0  0  0  0  0  0  0
   14.7988  -24.4632   -1.6652 C   0  0  2  0  0  0  0  0  0  0  0  0
   13.5916  -25.2829   -1.8592 N   0  0  0  0  0  0  0  0  0  0  0  0
   14.3477  -23.2303   -0.9641 C   0  0  0  0  0  0  0  0  0  0  0  0
   13.3421  -22.5632   -1.3588 O   0  0  0  0  0  0  0  0  0  0  0  0
   12.2374  -20.9193    3.4729 N   0  0  0  0  0  0  0  0  0  0  0  0
   12.4822  -20.6842    2.1038 C   0  0  0  0  0  0  0  0  0  0  0  0
   12.2936  -19.5957    1.5187 O   0  0  0  0  0  0  0  0  0  0  0  0
   13.0133  -21.8395    1.2832 C   0  0  0  0  0  0  0  0  0  0  0  0
   14.4769  -21.6060    0.9827 C   0  0  2  0  0  0  0  0  0  0  0  0
   15.0040  -22.7200    0.1833 N   0  0  0  0  0  0  0  0  0  0  0  0
   15.3110  -21.3615    2.1568 C   0  0  0  0  0  0  0  0  0  0  0  0
   15.2814  -22.2706    3.0594 O   0  0  0  0  0  0  0  0  0  0  0  0
   16.1413  -20.2418    2.4049 N   0  0  0  0  0  0  0  0  0  0  0  0
   16.3078  -19.2286    1.3381 C   0  0  0  0  0  0  0  0  0  0  0  0
   16.5378  -17.9603    2.1093 C   0  0  0  0  0  0  0  0  0  0  0  0
   17.5952  -18.4729    3.0987 C   0  0  0  0  0  0  0  0  0  0  0  0
   16.9358  -19.8240    3.5083 C   0  0  1  0  0  0  0  0  0  0  0  0
   16.1941  -19.6021    4.7713 C   0  0  0  0  0  0  0  0  0  0  0  0
   16.8469  -19.6198    5.9864 O   0  0  0  0  0  0  0  0  0  0  0  0
   14.9717  -19.3976    4.7471 O   0  0  0  0  0  0  0  0  0  0  0  0
  2  1  1  0
  2  3  2  0
  4  2  1  0
  5  4  1  0
  6  5  1  0
  6  7  1  6
  8  6  1  0
  8 15  1  0
  9  8  2  0
 11 10  1  0
 11 13  1  0
 12 11  2  0
 14 13  1  1
 14 15  1  0
 16 14  1  0
 17 16  2  0
 18 16  1  0
 18 22  1  0
 19 20  1  0
 19 18  1  0
 20 21  1  0
 22 21  1  0
 23 24  1  0
 22 23  1  1
 25 23  2  0
M  END
$$$$
