QNP.pdb
     RDKit          3D

 25 25  0  0  1  0  0  0  0  0999 V2000
   40.6226  -13.4865  -13.8450 N   0  0  0  0  0  0  0  0  0  0  0  0
   41.6377  -14.5033  -13.9134 C   0  0  0  0  0  0  0  0  0  0  0  0
   41.8363  -15.0844  -15.0116 O   0  0  0  0  0  0  0  0  0  0  0  0
   42.4045  -14.8215  -12.6926 C   0  0  0  0  0  0  0  0  0  0  0  0
   41.9654  -13.9824  -11.5456 C   0  0  0  0  0  0  0  0  0  0  0  0
   42.7267  -12.6894  -11.3796 C   0  0  2  0  0  0  0  0  0  0  0  0
   44.0891  -13.0898  -10.9918 N   0  0  0  0  0  0  0  0  0  0  0  0
   42.1958  -11.8899  -10.2420 C   0  0  0  0  0  0  0  0  0  0  0  0
   41.0042  -11.4521  -10.2273 O   0  0  0  0  0  0  0  0  0  0  0  0
   42.5017  -10.3279   -4.6823 N   0  0  0  0  0  0  0  0  0  0  0  0
   41.6294  -10.8419   -5.6643 C   0  0  0  0  0  0  0  0  0  0  0  0
   40.3906  -10.6749   -5.6805 O   0  0  0  0  0  0  0  0  0  0  0  0
   42.2426  -11.6574   -6.7819 C   0  0  0  0  0  0  0  0  0  0  0  0
   42.4702  -10.7662   -7.9822 C   0  0  2  0  0  0  0  0  0  0  0  0
   42.9774  -11.5653   -9.1056 N   0  0  0  0  0  0  0  0  0  0  0  0
   43.3267   -9.6097   -7.7317 C   0  0  0  0  0  0  0  0  0  0  0  0
   44.5428   -9.8737   -7.4257 O   0  0  0  0  0  0  0  0  0  0  0  0
   42.9652   -8.2419   -7.7898 N   0  0  0  0  0  0  0  0  0  0  0  0
   41.6251   -7.8810   -8.3057 C   0  0  0  0  0  0  0  0  0  0  0  0
   41.3058   -6.6159   -7.5614 C   0  0  0  0  0  0  0  0  0  0  0  0
   42.6327   -5.8727   -7.7771 C   0  0  0  0  0  0  0  0  0  0  0  0
   43.6319   -7.0275   -7.4672 C   0  0  1  0  0  0  0  0  0  0  0  0
   44.0528   -6.8956   -6.0530 C   0  0  0  0  0  0  0  0  0  0  0  0
   45.3588   -6.5908   -5.7301 O   0  0  0  0  0  0  0  0  0  0  0  0
   43.2293   -7.0597   -5.1410 O   0  0  0  0  0  0  0  0  0  0  0  0
  2  1  1  0
  2  3  2  0
  4  2  1  0
  5  4  1  0
  6  5  1  0
  6  7  1  1
  8  6  1  0
  8 15  1  0
  9  8  2  0
 11 10  1  0
 11 13  1  0
 12 11  2  0
 14 13  1  1
 14 15  1  0
 16 14  1  0
 17 16  2  0
 18 16  1  0
 18 22  1  0
 19 20  1  0
 19 18  1  0
 20 21  1  0
 22 21  1  0
 23 24  1  0
 22 23  1  1
 25 23  2  0
M  END
$$$$
