YKA.pdb
     RDKit          3D

 27 27  0  0  1  0  0  0  0  0999 V2000
   27.6608    3.3524   -2.4019 O   0  0  0  0  0  0  0  0  0  0  0  0
   28.7171    2.5646   -1.9543 C   0  0  0  0  0  0  0  0  0  0  0  0
   30.0187    2.8553   -2.3094 C   0  0  0  0  0  0  0  0  0  0  0  0
   31.0781    2.0810   -1.8718 C   0  0  0  0  0  0  0  0  0  0  0  0
   30.8773    0.9837   -1.0605 C   0  0  0  0  0  0  0  0  0  0  0  0
   32.0160    0.1474   -0.5870 C   0  0  0  0  0  0  0  0  0  0  0  0
   32.5050   -0.8040   -1.6594 C   0  0  2  0  0  0  0  0  0  0  0  0
   31.5441   -1.8799   -1.8535 N   0  0  0  0  0  0  0  0  0  0  0  0
   33.8138   -1.3077   -1.2131 C   0  0  0  0  0  0  0  0  0  0  0  0
   33.8649   -2.3223   -0.5012 O   0  0  0  0  0  0  0  0  0  0  0  0
   29.5751    0.6959   -0.7074 C   0  0  0  0  0  0  0  0  0  0  0  0
   28.5144    1.4675   -1.1429 C   0  0  0  0  0  0  0  0  0  0  0  0
   34.9782   -0.6390   -1.5956 N   0  0  0  0  0  0  0  0  0  0  0  0
   36.2912   -1.1759   -1.2019 C   0  0  1  0  0  0  0  0  0  0  0  0
   36.8542   -1.8296   -2.4372 C   0  0  0  0  0  0  0  0  0  0  0  0
   38.2119   -2.3872   -2.1934 C   0  0  0  0  0  0  0  0  0  0  0  0
   38.6085   -3.1231   -3.4838 C   0  0  0  0  0  0  0  0  0  0  0  0
   39.9584   -3.7586   -3.2200 C   0  0  0  0  0  0  0  0  0  0  0  0
   40.3784   -4.4038   -4.4519 N   0  0  0  0  0  0  0  0  0  0  0  0
   37.1036    0.0123   -0.8671 C   0  0  0  0  0  0  0  0  0  0  0  0
   37.0101    1.0267   -1.5946 O   0  0  0  0  0  0  0  0  0  0  0  0
   39.6322    1.1710    1.6768 C   0  0  0  0  0  0  0  0  0  0  0  0
   38.7912    1.2809    0.4438 C   0  0  2  0  0  0  0  0  0  0  0  0
   37.9996    0.0924    0.2379 N   0  0  0  0  0  0  0  0  0  0  0  0
   39.6601    1.5799   -0.7249 C   0  0  0  0  0  0  0  0  0  0  0  0
   40.2252    0.6791   -1.3932 O   0  0  0  0  0  0  0  0  0  0  0  0
   39.8616    2.8947   -1.1001 O   0  0  0  0  0  0  0  0  0  0  0  0
  2  1  1  0
  3  2  2  0
  4  3  1  0
  5  4  2  0
  5 11  1  0
  6  5  1  0
  7  6  1  0
  7  9  1  0
  7  8  1  1
  9 13  1  0
 10  9  2  0
 11 12  2  0
 12  2  1  0
 13 14  1  0
 14 20  1  0
 14 15  1  6
 16 15  1  0
 17 18  1  0
 17 16  1  0
 19 18  1  0
 20 24  1  0
 21 20  2  0
 23 22  1  1
 23 25  1  0
 24 23  1  0
 25 26  2  0
 25 27  1  0
M  END
$$$$
