YKA.pdb
     RDKit          3D

 27 27  0  0  1  0  0  0  0  0999 V2000
   27.1753  -16.7723  -16.2042 O   0  0  0  0  0  0  0  0  0  0  0  0
   26.4788  -15.5727  -16.3176 C   0  0  0  0  0  0  0  0  0  0  0  0
   26.2887  -14.9766  -17.5477 C   0  0  0  0  0  0  0  0  0  0  0  0
   25.5986  -13.7846  -17.6752 C   0  0  0  0  0  0  0  0  0  0  0  0
   25.0705  -13.1406  -16.5756 C   0  0  0  0  0  0  0  0  0  0  0  0
   24.3263  -11.8566  -16.7089 C   0  0  0  0  0  0  0  0  0  0  0  0
   22.8266  -12.0683  -16.7113 C   0  0  2  0  0  0  0  0  0  0  0  0
   22.4578  -13.0434  -17.7271 N   0  0  0  0  0  0  0  0  0  0  0  0
   22.2143  -10.7536  -16.9612 C   0  0  0  0  0  0  0  0  0  0  0  0
   22.0677  -10.3627  -18.1294 O   0  0  0  0  0  0  0  0  0  0  0  0
   25.2622  -13.7391  -15.3474 C   0  0  0  0  0  0  0  0  0  0  0  0
   25.9513  -14.9301  -15.2168 C   0  0  0  0  0  0  0  0  0  0  0  0
   21.8074   -9.9651  -15.8833 N   0  0  0  0  0  0  0  0  0  0  0  0
   20.9901   -8.7646  -16.1244 C   0  0  1  0  0  0  0  0  0  0  0  0
   19.6628   -9.0324  -15.4635 C   0  0  0  0  0  0  0  0  0  0  0  0
   18.7117   -9.7010  -16.3919 C   0  0  0  0  0  0  0  0  0  0  0  0
   18.0269  -10.8093  -15.5754 C   0  0  0  0  0  0  0  0  0  0  0  0
   17.0021  -11.4481  -16.4904 C   0  0  0  0  0  0  0  0  0  0  0  0
   16.3211  -12.4762  -15.7226 N   0  0  0  0  0  0  0  0  0  0  0  0
   21.6842   -7.6796  -15.3999 C   0  0  0  0  0  0  0  0  0  0  0  0
   22.2274   -7.9430  -14.3033 O   0  0  0  0  0  0  0  0  0  0  0  0
   22.6928   -4.0832  -15.8380 C   0  0  0  0  0  0  0  0  0  0  0  0
   22.4659   -5.3445  -15.0652 C   0  0  2  0  0  0  0  0  0  0  0  0
   21.7835   -6.3353  -15.8616 N   0  0  0  0  0  0  0  0  0  0  0  0
   21.7283   -5.0333  -13.8125 C   0  0  0  0  0  0  0  0  0  0  0  0
   20.5092   -5.2961  -13.6646 O   0  0  0  0  0  0  0  0  0  0  0  0
   22.3984   -4.4323  -12.7637 O   0  0  0  0  0  0  0  0  0  0  0  0
  2  1  1  0
  3  2  2  0
  4  3  1  0
  5  4  2  0
  5 11  1  0
  6  5  1  0
  7  6  1  0
  7  9  1  0
  7  8  1  6
  9 13  1  0
 10  9  2  0
 11 12  2  0
 12  2  1  0
 13 14  1  0
 14 20  1  0
 14 15  1  1
 16 15  1  0
 17 18  1  0
 17 16  1  0
 19 18  1  0
 20 24  1  0
 21 20  2  0
 23 22  1  6
 23 25  1  0
 24 23  1  0
 25 26  2  0
 25 27  1  0
M  END
$$$$
