YKA.pdb
     RDKit          3D

 27 27  0  0  1  0  0  0  0  0999 V2000
   28.7436  -19.9971   -3.6113 O   0  0  0  0  0  0  0  0  0  0  0  0
   28.2125  -19.9477   -4.8967 C   0  0  0  0  0  0  0  0  0  0  0  0
   28.8269  -19.2126   -5.8901 C   0  0  0  0  0  0  0  0  0  0  0  0
   28.3102  -19.1546   -7.1719 C   0  0  0  0  0  0  0  0  0  0  0  0
   27.1566  -19.8305   -7.5113 C   0  0  0  0  0  0  0  0  0  0  0  0
   26.5971  -19.7706   -8.8910 C   0  0  0  0  0  0  0  0  0  0  0  0
   26.9598  -20.9963   -9.7035 C   0  0  2  0  0  0  0  0  0  0  0  0
   28.4063  -21.1324   -9.7902 N   0  0  0  0  0  0  0  0  0  0  0  0
   26.3420  -20.8237  -11.0281 C   0  0  0  0  0  0  0  0  0  0  0  0
   26.9217  -20.1398  -11.8855 O   0  0  0  0  0  0  0  0  0  0  0  0
   26.5449  -20.5643   -6.5160 C   0  0  0  0  0  0  0  0  0  0  0  0
   27.0587  -20.6243   -5.2344 C   0  0  0  0  0  0  0  0  0  0  0  0
   25.1147  -21.4301  -11.3021 N   0  0  0  0  0  0  0  0  0  0  0  0
   24.5650  -21.3816  -12.6669 C   0  0  1  0  0  0  0  0  0  0  0  0
   24.4993  -22.8128  -13.1337 C   0  0  0  0  0  0  0  0  0  0  0  0
   25.0692  -22.9721  -14.4987 C   0  0  0  0  0  0  0  0  0  0  0  0
   24.9667  -24.4697  -14.8314 C   0  0  0  0  0  0  0  0  0  0  0  0
   25.4962  -24.6353  -16.2413 C   0  0  0  0  0  0  0  0  0  0  0  0
   26.9425  -24.5178  -16.1745 N   0  0  0  0  0  0  0  0  0  0  0  0
   23.1921  -20.8589  -12.5062 C   0  0  0  0  0  0  0  0  0  0  0  0
   22.5146  -21.2449  -11.5269 O   0  0  0  0  0  0  0  0  0  0  0  0
   20.8421  -18.3660  -14.0653 C   0  0  0  0  0  0  0  0  0  0  0  0
   21.2244  -19.4816  -13.1441 C   0  0  2  0  0  0  0  0  0  0  0  0
   22.5710  -19.9347  -13.3951 N   0  0  0  0  0  0  0  0  0  0  0  0
   20.2350  -20.5849  -13.2629 C   0  0  0  0  0  0  0  0  0  0  0  0
   20.4160  -21.5751  -14.0138 O   0  0  0  0  0  0  0  0  0  0  0  0
   19.0681  -20.5304  -12.5243 O   0  0  0  0  0  0  0  0  0  0  0  0
  2  1  1  0
  3  2  2  0
  4  3  1  0
  5  4  2  0
  5 11  1  0
  6  5  1  0
  7  6  1  0
  7  9  1  0
  7  8  1  6
  9 13  1  0
 10  9  2  0
 11 12  2  0
 12  2  1  0
 13 14  1  0
 14 20  1  0
 14 15  1  1
 16 15  1  0
 17 18  1  0
 17 16  1  0
 19 18  1  0
 20 24  1  0
 21 20  2  0
 23 22  1  6
 23 25  1  0
 24 23  1  0
 25 26  2  0
 25 27  1  0
M  END
$$$$
