YKA.pdb
     RDKit          3D

 27 27  0  0  1  0  0  0  0  0999 V2000
   23.3090  -20.4991   -6.7830 O   0  0  0  0  0  0  0  0  0  0  0  0
   23.8875  -20.4421   -8.0475 C   0  0  0  0  0  0  0  0  0  0  0  0
   23.1301  -20.6430   -9.1836 C   0  0  0  0  0  0  0  0  0  0  0  0
   23.6919  -20.5893  -10.4465 C   0  0  0  0  0  0  0  0  0  0  0  0
   25.0355  -20.3321  -10.6233 C   0  0  0  0  0  0  0  0  0  0  0  0
   25.6441  -20.2731  -11.9821 C   0  0  0  0  0  0  0  0  0  0  0  0
   25.6154  -21.6197  -12.6749 C   0  0  2  0  0  0  0  0  0  0  0  0
   26.4768  -22.5629  -11.9772 N   0  0  0  0  0  0  0  0  0  0  0  0
   26.0558  -21.3919  -14.0606 C   0  0  0  0  0  0  0  0  0  0  0  0
   27.2681  -21.2962  -14.3059 O   0  0  0  0  0  0  0  0  0  0  0  0
   25.7897  -20.1317   -9.4857 C   0  0  0  0  0  0  0  0  0  0  0  0
   25.2315  -20.1847   -8.2225 C   0  0  0  0  0  0  0  0  0  0  0  0
   25.1063  -21.2867  -15.0787 N   0  0  0  0  0  0  0  0  0  0  0  0
   25.5385  -21.3139  -16.4857 C   0  0  1  0  0  0  0  0  0  0  0  0
   25.1028  -22.6526  -17.0227 C   0  0  0  0  0  0  0  0  0  0  0  0
   25.9858  -23.7503  -16.5442 C   0  0  0  0  0  0  0  0  0  0  0  0
   25.4152  -25.0473  -17.1410 C   0  0  0  0  0  0  0  0  0  0  0  0
   26.5504  -25.7118  -17.8928 C   0  0  0  0  0  0  0  0  0  0  0  0
   27.1762  -26.6546  -16.9819 N   0  0  0  0  0  0  0  0  0  0  0  0
   24.7565  -20.2474  -17.1450 C   0  0  0  0  0  0  0  0  0  0  0  0
   23.5440  -20.1281  -16.8574 O   0  0  0  0  0  0  0  0  0  0  0  0
   25.2425  -17.3293  -19.4745 C   0  0  0  0  0  0  0  0  0  0  0  0
   24.4502  -18.2862  -18.6403 C   0  0  2  0  0  0  0  0  0  0  0  0
   25.2857  -19.3302  -18.0984 N   0  0  0  0  0  0  0  0  0  0  0  0
   23.3268  -18.8342  -19.4452 C   0  0  0  0  0  0  0  0  0  0  0  0
   23.4114  -19.9207  -20.0693 O   0  0  0  0  0  0  0  0  0  0  0  0
   22.1392  -18.1308  -19.5172 O   0  0  0  0  0  0  0  0  0  0  0  0
  2  1  1  0
  3  2  2  0
  4  3  1  0
  5  4  2  0
  5 11  1  0
  6  5  1  0
  7  6  1  0
  7  9  1  0
  7  8  1  1
  9 13  1  0
 10  9  2  0
 11 12  2  0
 12  2  1  0
 13 14  1  0
 14 20  1  0
 14 15  1  6
 16 15  1  0
 17 18  1  0
 17 16  1  0
 19 18  1  0
 20 24  1  0
 21 20  2  0
 23 22  1  6
 23 25  1  0
 24 23  1  0
 25 26  2  0
 25 27  1  0
M  END
$$$$
