YKA.pdb
     RDKit          3D

 27 27  0  0  1  0  0  0  0  0999 V2000
   28.7829  -18.6459   -2.9706 O   0  0  0  0  0  0  0  0  0  0  0  0
   28.4712  -19.1419   -4.2330 C   0  0  0  0  0  0  0  0  0  0  0  0
   28.4454  -20.5004   -4.4747 C   0  0  0  0  0  0  0  0  0  0  0  0
   28.1373  -21.0072   -5.7244 C   0  0  0  0  0  0  0  0  0  0  0  0
   27.8422  -20.1739   -6.7833 C   0  0  0  0  0  0  0  0  0  0  0  0
   27.5095  -20.7161   -8.1307 C   0  0  0  0  0  0  0  0  0  0  0  0
   26.0699  -20.4410   -8.5128 C   0  0  2  0  0  0  0  0  0  0  0  0
   25.1673  -21.0905   -7.5737 N   0  0  0  0  0  0  0  0  0  0  0  0
   25.8931  -20.9435   -9.8847 C   0  0  0  0  0  0  0  0  0  0  0  0
   25.6858  -22.1528  -10.0679 O   0  0  0  0  0  0  0  0  0  0  0  0
   27.8688  -18.8165   -6.5383 C   0  0  0  0  0  0  0  0  0  0  0  0
   28.1763  -18.3070   -5.2909 C   0  0  0  0  0  0  0  0  0  0  0  0
   25.9608  -20.0553  -10.9597 N   0  0  0  0  0  0  0  0  0  0  0  0
   25.8986  -20.5704  -12.3374 C   0  0  1  0  0  0  0  0  0  0  0  0
   24.4623  -20.9662  -12.5629 C   0  0  0  0  0  0  0  0  0  0  0  0
   23.5410  -19.8103  -12.3943 C   0  0  0  0  0  0  0  0  0  0  0  0
   22.1299  -20.3428  -12.6931 C   0  0  0  0  0  0  0  0  0  0  0  0
   21.6609  -19.6394  -13.9504 C   0  0  0  0  0  0  0  0  0  0  0  0
   20.3256  -20.1294  -14.2452 N   0  0  0  0  0  0  0  0  0  0  0  0
   26.2235  -19.4101  -13.1929 C   0  0  0  0  0  0  0  0  0  0  0  0
   25.7219  -18.2984  -12.9108 O   0  0  0  0  0  0  0  0  0  0  0  0
   28.7972  -18.2523  -15.5489 C   0  0  0  0  0  0  0  0  0  0  0  0
   27.3814  -18.2555  -15.0643 C   0  0  2  0  0  0  0  0  0  0  0  0
   27.0774  -19.4612  -14.3324 N   0  0  0  0  0  0  0  0  0  0  0  0
   26.4620  -18.0568  -16.2156 C   0  0  0  0  0  0  0  0  0  0  0  0
   25.5898  -18.9017  -16.5358 O   0  0  0  0  0  0  0  0  0  0  0  0
   26.5609  -16.9027  -16.9697 O   0  0  0  0  0  0  0  0  0  0  0  0
  2  1  1  0
  3  2  2  0
  4  3  1  0
  5  4  2  0
  5 11  1  0
  6  5  1  0
  7  6  1  0
  7  9  1  0
  7  8  1  1
  9 13  1  0
 10  9  2  0
 11 12  2  0
 12  2  1  0
 13 14  1  0
 14 20  1  0
 14 15  1  6
 16 15  1  0
 17 18  1  0
 17 16  1  0
 19 18  1  0
 20 24  1  0
 21 20  2  0
 23 22  1  6
 23 25  1  0
 24 23  1  0
 25 26  2  0
 25 27  1  0
M  END
$$$$
