YKA.pdb
     RDKit          3D

 27 27  0  0  1  0  0  0  0  0999 V2000
   14.3235   -2.3081  -28.8065 O   0  0  0  0  0  0  0  0  0  0  0  0
   14.5041   -2.5507  -27.4481 C   0  0  0  0  0  0  0  0  0  0  0  0
   15.6054   -3.2465  -26.9923 C   0  0  0  0  0  0  0  0  0  0  0  0
   15.7976   -3.4948  -25.6451 C   0  0  0  0  0  0  0  0  0  0  0  0
   14.8946   -3.0563  -24.6992 C   0  0  0  0  0  0  0  0  0  0  0  0
   15.0984   -3.3217  -23.2471 C   0  0  0  0  0  0  0  0  0  0  0  0
   14.8732   -4.7788  -22.9002 C   0  0  2  0  0  0  0  0  0  0  0  0
   13.4822   -5.1412  -23.1287 N   0  0  0  0  0  0  0  0  0  0  0  0
   15.2610   -4.9425  -21.4900 C   0  0  0  0  0  0  0  0  0  0  0  0
   14.3936   -4.8608  -20.6068 O   0  0  0  0  0  0  0  0  0  0  0  0
   13.7949   -2.3611  -25.1580 C   0  0  0  0  0  0  0  0  0  0  0  0
   13.5999   -2.1114  -26.5033 C   0  0  0  0  0  0  0  0  0  0  0  0
   16.5965   -5.1869  -21.1648 N   0  0  0  0  0  0  0  0  0  0  0  0
   16.9828   -5.3728  -19.7564 C   0  0  1  0  0  0  0  0  0  0  0  0
   18.0451   -6.4413  -19.7600 C   0  0  0  0  0  0  0  0  0  0  0  0
   18.5158   -6.7526  -18.3834 C   0  0  0  0  0  0  0  0  0  0  0  0
   17.6372   -7.9114  -17.8842 C   0  0  0  0  0  0  0  0  0  0  0  0
   18.1690   -8.2987  -16.5194 C   0  0  0  0  0  0  0  0  0  0  0  0
   17.4519   -9.4905  -16.1004 N   0  0  0  0  0  0  0  0  0  0  0  0
   17.5884   -4.0861  -19.3547 C   0  0  0  0  0  0  0  0  0  0  0  0
   18.5313   -3.6279  -20.0387 O   0  0  0  0  0  0  0  0  0  0  0  0
   16.7745   -1.0536  -17.4397 C   0  0  0  0  0  0  0  0  0  0  0  0
   17.7764   -2.0296  -17.9721 C   0  0  2  0  0  0  0  0  0  0  0  0
   17.1744   -3.3152  -18.2300 N   0  0  0  0  0  0  0  0  0  0  0  0
   18.9211   -2.1304  -17.0289 C   0  0  0  0  0  0  0  0  0  0  0  0
   19.2724   -3.2181  -16.5086 O   0  0  0  0  0  0  0  0  0  0  0  0
   19.6334   -0.9913  -16.7045 O   0  0  0  0  0  0  0  0  0  0  0  0
  2  1  1  0
  3  2  2  0
  4  3  1  0
  5  4  2  0
  5 11  1  0
  6  5  1  0
  7  6  1  0
  7  9  1  0
  7  8  1  1
  9 13  1  0
 10  9  2  0
 11 12  2  0
 12  2  1  0
 13 14  1  0
 14 20  1  0
 14 15  1  6
 16 15  1  0
 17 18  1  0
 17 16  1  0
 19 18  1  0
 20 24  1  0
 21 20  2  0
 23 22  1  1
 23 25  1  0
 24 23  1  0
 25 26  2  0
 25 27  1  0
M  END
$$$$
