YKA.pdb
     RDKit          3D

 27 27  0  0  1  0  0  0  0  0999 V2000
   27.8883  -17.6498  -15.6315 O   0  0  0  0  0  0  0  0  0  0  0  0
   27.0081  -16.6249  -15.9655 C   0  0  0  0  0  0  0  0  0  0  0  0
   26.2233  -16.0224  -15.0033 C   0  0  0  0  0  0  0  0  0  0  0  0
   25.3442  -15.0027  -15.3210 C   0  0  0  0  0  0  0  0  0  0  0  0
   25.2152  -14.5446  -16.6157 C   0  0  0  0  0  0  0  0  0  0  0  0
   24.2696  -13.4462  -16.9617 C   0  0  0  0  0  0  0  0  0  0  0  0
   22.8540  -13.9533  -17.1435 C   0  0  2  0  0  0  0  0  0  0  0  0
   22.8062  -14.9388  -18.2136 N   0  0  0  0  0  0  0  0  0  0  0  0
   22.0185  -12.7782  -17.4385 C   0  0  0  0  0  0  0  0  0  0  0  0
   21.9682  -12.3431  -18.5992 O   0  0  0  0  0  0  0  0  0  0  0  0
   26.0011  -15.1488  -17.5751 C   0  0  0  0  0  0  0  0  0  0  0  0
   26.8803  -16.1679  -17.2609 C   0  0  0  0  0  0  0  0  0  0  0  0
   21.2949  -12.1698  -16.4112 N   0  0  0  0  0  0  0  0  0  0  0  0
   20.3199  -11.1142  -16.7310 C   0  0  1  0  0  0  0  0  0  0  0  0
   19.0723  -11.4611  -15.9606 C   0  0  0  0  0  0  0  0  0  0  0  0
   18.1953  -12.3891  -16.7243 C   0  0  0  0  0  0  0  0  0  0  0  0
   18.1244  -13.6845  -15.8992 C   0  0  0  0  0  0  0  0  0  0  0  0
   17.1046  -14.5742  -16.5804 C   0  0  0  0  0  0  0  0  0  0  0  0
   17.0405  -15.8128  -15.8241 N   0  0  0  0  0  0  0  0  0  0  0  0
   20.9047   -9.8751  -16.1773 C   0  0  0  0  0  0  0  0  0  0  0  0
   21.4739   -9.9266  -15.0636 O   0  0  0  0  0  0  0  0  0  0  0  0
   21.4809   -6.2703  -17.0864 C   0  0  0  0  0  0  0  0  0  0  0  0
   21.3813   -7.4362  -16.1535 C   0  0  2  0  0  0  0  0  0  0  0  0
   20.8694   -8.6063  -16.8247 N   0  0  0  0  0  0  0  0  0  0  0  0
   20.5521   -7.0619  -14.9777 C   0  0  0  0  0  0  0  0  0  0  0  0
   19.3619   -7.4400  -14.8439 O   0  0  0  0  0  0  0  0  0  0  0  0
   21.1001   -6.2683  -13.9877 O   0  0  0  0  0  0  0  0  0  0  0  0
  2  1  1  0
  3  2  2  0
  4  3  1  0
  5  4  2  0
  5 11  1  0
  6  5  1  0
  7  6  1  0
  7  9  1  0
  7  8  1  6
  9 13  1  0
 10  9  2  0
 11 12  2  0
 12  2  1  0
 13 14  1  0
 14 20  1  0
 14 15  1  1
 16 15  1  0
 17 18  1  0
 17 16  1  0
 19 18  1  0
 20 24  1  0
 21 20  2  0
 23 22  1  6
 23 25  1  0
 24 23  1  0
 25 26  2  0
 25 27  1  0
M  END
$$$$
