YKA.pdb
     RDKit          3D

 27 27  0  0  1  0  0  0  0  0999 V2000
   24.1043   -8.1076    7.5512 O   0  0  0  0  0  0  0  0  0  0  0  0
   23.4131   -9.2591    7.9160 C   0  0  0  0  0  0  0  0  0  0  0  0
   23.1003  -10.2248    6.9810 C   0  0  0  0  0  0  0  0  0  0  0  0
   22.4138  -11.3740    7.3296 C   0  0  0  0  0  0  0  0  0  0  0  0
   22.0124  -11.6031    8.6292 C   0  0  0  0  0  0  0  0  0  0  0  0
   21.2729  -12.8399    9.0085 C   0  0  0  0  0  0  0  0  0  0  0  0
   19.9051  -12.9036    8.3610 C   0  0  2  0  0  0  0  0  0  0  0  0
   19.0836  -11.7892    8.8102 N   0  0  0  0  0  0  0  0  0  0  0  0
   19.3219  -14.2030    8.7316 C   0  0  0  0  0  0  0  0  0  0  0  0
   18.6346  -14.2902    9.7607 O   0  0  0  0  0  0  0  0  0  0  0  0
   22.3265  -10.6359    9.5614 C   0  0  0  0  0  0  0  0  0  0  0  0
   23.0123   -9.4866    9.2163 C   0  0  0  0  0  0  0  0  0  0  0  0
   19.5489  -15.3179    7.9226 N   0  0  0  0  0  0  0  0  0  0  0  0
   18.9147  -16.6037    8.2568 C   0  0  1  0  0  0  0  0  0  0  0  0
   18.6312  -17.2761    6.9385 C   0  0  0  0  0  0  0  0  0  0  0  0
   17.8915  -18.5540    7.1214 C   0  0  0  0  0  0  0  0  0  0  0  0
   17.4908  -19.0201    5.7121 C   0  0  0  0  0  0  0  0  0  0  0  0
   16.7106  -20.3068    5.8892 C   0  0  0  0  0  0  0  0  0  0  0  0
   16.3271  -20.7634    4.5646 N   0  0  0  0  0  0  0  0  0  0  0  0
   19.9555  -17.3658    8.9777 C   0  0  0  0  0  0  0  0  0  0  0  0
   21.0925  -17.4621    8.4629 O   0  0  0  0  0  0  0  0  0  0  0  0
   20.9789  -18.4463   12.2888 C   0  0  0  0  0  0  0  0  0  0  0  0
   20.8323  -18.7659   10.8342 C   0  0  2  0  0  0  0  0  0  0  0  0
   19.7603  -18.0098   10.2337 N   0  0  0  0  0  0  0  0  0  0  0  0
   20.6429  -20.2307   10.6644 C   0  0  0  0  0  0  0  0  0  0  0  0
   21.4985  -21.0695   11.0409 O   0  0  0  0  0  0  0  0  0  0  0  0
   19.4860  -20.6996   10.0713 O   0  0  0  0  0  0  0  0  0  0  0  0
  2  1  1  0
  3  2  2  0
  4  3  1  0
  5  4  2  0
  5 11  1  0
  6  5  1  0
  7  6  1  0
  7  9  1  0
  7  8  1  1
  9 13  1  0
 10  9  2  0
 11 12  2  0
 12  2  1  0
 13 14  1  0
 14 20  1  0
 14 15  1  6
 16 15  1  0
 17 18  1  0
 17 16  1  0
 19 18  1  0
 20 24  1  0
 21 20  2  0
 23 22  1  1
 23 25  1  0
 24 23  1  0
 25 26  2  0
 25 27  1  0
M  END
$$$$
