YKA.pdb
     RDKit          3D

 27 27  0  0  1  0  0  0  0  0999 V2000
   27.2542  -19.9669   -4.6201 O   0  0  0  0  0  0  0  0  0  0  0  0
   27.1892  -19.8330   -6.0038 C   0  0  0  0  0  0  0  0  0  0  0  0
   26.2445  -20.5198   -6.7391 C   0  0  0  0  0  0  0  0  0  0  0  0
   26.1685  -20.3962   -8.1147 C   0  0  0  0  0  0  0  0  0  0  0  0
   27.0356  -19.5796   -8.8104 C   0  0  0  0  0  0  0  0  0  0  0  0
   26.9566  -19.4438  -10.2921 C   0  0  0  0  0  0  0  0  0  0  0  0
   26.8736  -20.7900  -10.9811 C   0  0  2  0  0  0  0  0  0  0  0  0
   28.0830  -21.5597  -10.7287 N   0  0  0  0  0  0  0  0  0  0  0  0
   26.6813  -20.5201  -12.4150 C   0  0  0  0  0  0  0  0  0  0  0  0
   27.6713  -20.3156  -13.1340 O   0  0  0  0  0  0  0  0  0  0  0  0
   27.9786  -18.8945   -8.0724 C   0  0  0  0  0  0  0  0  0  0  0  0
   28.0572  -19.0158   -6.6979 C   0  0  0  0  0  0  0  0  0  0  0  0
   25.3905  -20.4977  -12.9465 N   0  0  0  0  0  0  0  0  0  0  0  0
   25.1989  -20.2807  -14.3899 C   0  0  1  0  0  0  0  0  0  0  0  0
   24.3751  -21.4457  -14.8741 C   0  0  0  0  0  0  0  0  0  0  0  0
   25.2301  -22.5327  -15.4228 C   0  0  0  0  0  0  0  0  0  0  0  0
   25.1075  -23.7087  -14.4400 C   0  0  0  0  0  0  0  0  0  0  0  0
   24.1585  -24.7044  -15.0753 C   0  0  0  0  0  0  0  0  0  0  0  0
   24.1230  -25.8744  -14.2150 N   0  0  0  0  0  0  0  0  0  0  0  0
   24.3959  -19.0439  -14.4858 C   0  0  0  0  0  0  0  0  0  0  0  0
   23.4238  -18.8988  -13.7106 O   0  0  0  0  0  0  0  0  0  0  0  0
   24.5894  -15.6469  -16.0545 C   0  0  0  0  0  0  0  0  0  0  0  0
   23.9038  -16.7544  -15.3177 C   0  0  2  0  0  0  0  0  0  0  0  0
   24.6476  -17.9874  -15.4082 N   0  0  0  0  0  0  0  0  0  0  0  0
   22.5149  -16.9039  -15.8263 C   0  0  0  0  0  0  0  0  0  0  0  0
   22.2038  -17.7518  -16.6989 O   0  0  0  0  0  0  0  0  0  0  0  0
   21.5195  -16.0847  -15.3279 O   0  0  0  0  0  0  0  0  0  0  0  0
  2  1  1  0
  3  2  2  0
  4  3  1  0
  5  4  2  0
  5 11  1  0
  6  5  1  0
  7  6  1  0
  7  9  1  0
  7  8  1  6
  9 13  1  0
 10  9  2  0
 11 12  2  0
 12  2  1  0
 13 14  1  0
 14 20  1  0
 14 15  1  1
 16 15  1  0
 17 18  1  0
 17 16  1  0
 19 18  1  0
 20 24  1  0
 21 20  2  0
 23 22  1  6
 23 25  1  0
 24 23  1  0
 25 26  2  0
 25 27  1  0
M  END
$$$$
