CHW.pdb
     RDKit          3D

 31 33  0  0  1  0  0  0  0  0999 V2000
   39.3533  -24.9696    4.6756 N   0  0  0  0  0  0  0  0  0  0  0  0
   39.0780  -24.4850    5.9999 C   0  0  1  0  0  0  0  0  0  0  0  0
   39.0054  -22.9560    5.9874 C   0  0  0  0  0  0  0  0  0  0  0  0
   40.6855  -22.2869    5.9109 S   0  0  0  0  0  0  0  0  0  0  0  0
   37.7399  -24.9844    6.4274 C   0  0  0  0  0  0  0  0  0  0  0  0
   36.8404  -25.0562    5.5457 O   0  0  0  0  0  0  0  0  0  0  0  0
   37.5018  -25.3652    7.7890 N   0  0  0  0  0  0  0  0  0  0  0  0
   36.2351  -25.9080    8.1478 C   0  0  1  0  0  0  0  0  0  0  0  0
   36.3533  -26.9448    9.2182 C   0  0  0  0  0  0  0  0  0  0  0  0
   36.3903  -28.3009    8.6399 C   0  0  0  0  0  0  0  0  0  0  0  0
   36.2445  -28.6935    7.3249 C   0  0  0  0  0  0  0  0  0  0  0  0
   36.3527  -30.0299    7.2565 N   0  0  0  0  0  0  0  0  0  0  0  0
   36.5628  -30.4808    8.4998 C   0  0  0  0  0  0  0  0  0  0  0  0
   36.5873  -29.4514    9.3392 N   0  0  0  0  0  0  0  0  0  0  0  0
   35.2762  -24.8193    8.5183 C   0  0  0  0  0  0  0  0  0  0  0  0
   35.7190  -23.8063    9.0932 O   0  0  0  0  0  0  0  0  0  0  0  0
   33.9007  -24.9281    8.2282 N   0  0  0  0  0  0  0  0  0  0  0  0
   33.0419  -23.7723    8.5599 C   0  0  1  0  0  0  0  0  0  0  0  0
   32.1892  -23.4254    7.3924 C   0  0  0  0  0  0  0  0  0  0  0  0
   32.6451  -22.3473    6.5117 C   0  0  0  0  0  0  0  0  0  0  0  0
   33.4310  -22.4678    5.3532 C   0  0  0  0  0  0  0  0  0  0  0  0
   33.6775  -21.2520    4.8387 N   0  0  0  0  0  0  0  0  0  0  0  0
   33.0828  -20.3190    5.6115 C   0  0  0  0  0  0  0  0  0  0  0  0
   32.9989  -18.9424    5.5397 C   0  0  0  0  0  0  0  0  0  0  0  0
   32.2824  -18.2491    6.4915 C   0  0  0  0  0  0  0  0  0  0  0  0
   31.6348  -18.8782    7.5297 C   0  0  0  0  0  0  0  0  0  0  0  0
   31.7300  -20.2459    7.5857 C   0  0  0  0  0  0  0  0  0  0  0  0
   32.4469  -20.9896    6.6415 C   0  0  0  0  0  0  0  0  0  0  0  0
   32.3063  -24.1054    9.7783 C   0  0  0  0  0  0  0  0  0  0  0  0
   31.6407  -23.1280   10.5267 O   0  0  0  0  0  0  0  0  0  0  0  0
   32.2202  -25.2725   10.2333 O   0  0  0  0  0  0  0  0  0  0  0  0
  2  1  1  6
  2  3  1  0
  3  4  1  0
  5  2  1  0
  5  6  2  0
  7  5  1  0
  8  7  1  0
  8  9  1  1
 10  9  1  0
 11 10  2  0
 12 11  1  0
 13 12  1  0
 13 14  2  0
 14 10  1  0
 15 17  1  0
 15  8  1  0
 16 15  2  0
 18 17  1  0
 18 29  1  0
 18 19  1  6
 20 19  1  0
 21 20  2  0
 22 23  1  0
 22 21  1  0
 23 28  2  0
 24 25  2  0
 24 23  1  0
 25 26  1  0
 26 27  2  0
 28 27  1  0
 28 20  1  0
 29 30  1  0
 31 29  2  0
M  END
$$$$
