CHW.pdb
     RDKit          3D

 31 33  0  0  1  0  0  0  0  0999 V2000
   21.9839  -21.3863  -17.0391 N   0  0  0  0  0  0  0  0  0  0  0  0
   21.1189  -22.4341  -16.5717 C   0  0  1  0  0  0  0  0  0  0  0  0
   21.8407  -23.7810  -16.6627 C   0  0  0  0  0  0  0  0  0  0  0  0
   21.7844  -24.3653  -18.3749 S   0  0  0  0  0  0  0  0  0  0  0  0
   20.8102  -22.1980  -15.1325 C   0  0  0  0  0  0  0  0  0  0  0  0
   21.7412  -21.7536  -14.4063 O   0  0  0  0  0  0  0  0  0  0  0  0
   19.5024  -22.4687  -14.6107 N   0  0  0  0  0  0  0  0  0  0  0  0
   19.2359  -22.2133  -13.2353 C   0  0  1  0  0  0  0  0  0  0  0  0
   18.3057  -21.0579  -13.0505 C   0  0  0  0  0  0  0  0  0  0  0  0
   19.0340  -19.7770  -13.1109 C   0  0  0  0  0  0  0  0  0  0  0  0
   20.3826  -19.5472  -13.2927 C   0  0  0  0  0  0  0  0  0  0  0  0
   20.6023  -18.2228  -13.2837 N   0  0  0  0  0  0  0  0  0  0  0  0
   19.4205  -17.6202  -13.1002 C   0  0  0  0  0  0  0  0  0  0  0  0
   18.4713  -18.5435  -12.9952 N   0  0  0  0  0  0  0  0  0  0  0  0
   18.7438  -23.4508  -12.5508 C   0  0  0  0  0  0  0  0  0  0  0  0
   18.1150  -24.2920  -13.2215 O   0  0  0  0  0  0  0  0  0  0  0  0
   18.9808  -23.6689  -11.1781 N   0  0  0  0  0  0  0  0  0  0  0  0
   18.4227  -24.8988  -10.5785 C   0  0  1  0  0  0  0  0  0  0  0  0
   19.2215  -25.2865   -9.3860 C   0  0  0  0  0  0  0  0  0  0  0  0
   18.7124  -26.3755   -8.5492 C   0  0  0  0  0  0  0  0  0  0  0  0
   18.7686  -27.7538   -8.8165 C   0  0  0  0  0  0  0  0  0  0  0  0
   18.1594  -28.4362   -7.8332 N   0  0  0  0  0  0  0  0  0  0  0  0
   17.6971  -27.5631   -6.9137 C   0  0  0  0  0  0  0  0  0  0  0  0
   17.0236  -27.7148   -5.7176 C   0  0  0  0  0  0  0  0  0  0  0  0
   16.6963  -26.6040   -4.9699 C   0  0  0  0  0  0  0  0  0  0  0  0
   17.0163  -25.3266   -5.3688 C   0  0  0  0  0  0  0  0  0  0  0  0
   17.6843  -25.1950   -6.5600 C   0  0  0  0  0  0  0  0  0  0  0  0
   18.0357  -26.2947   -7.3512 C   0  0  0  0  0  0  0  0  0  0  0  0
   17.0057  -24.6559  -10.3140 C   0  0  0  0  0  0  0  0  0  0  0  0
   16.0531  -25.6763  -10.4131 O   0  0  0  0  0  0  0  0  0  0  0  0
   16.5491  -23.5336   -9.9847 O   0  0  0  0  0  0  0  0  0  0  0  0
  2  1  1  1
  2  3  1  0
  3  4  1  0
  5  2  1  0
  5  6  2  0
  7  5  1  0
  8  7  1  0
  8  9  1  6
 10  9  1  0
 11 10  2  0
 12 11  1  0
 13 12  1  0
 13 14  2  0
 14 10  1  0
 15 17  1  0
 15  8  1  0
 16 15  2  0
 18 17  1  0
 18 29  1  0
 18 19  1  1
 20 19  1  0
 21 20  2  0
 22 23  1  0
 22 21  1  0
 23 28  2  0
 24 25  2  0
 24 23  1  0
 25 26  1  0
 26 27  2  0
 28 27  1  0
 28 20  1  0
 29 30  1  0
 31 29  2  0
M  END
$$$$
