CHW.pdb
     RDKit          3D

 31 33  0  0  1  0  0  0  0  0999 V2000
   27.3387  -17.5590  -20.0013 N   0  0  0  0  0  0  0  0  0  0  0  0
   27.5779  -18.5932  -19.0330 C   0  0  1  0  0  0  0  0  0  0  0  0
   29.0389  -18.5493  -18.5782 C   0  0  0  0  0  0  0  0  0  0  0  0
   29.3819  -20.0032  -17.5561 S   0  0  0  0  0  0  0  0  0  0  0  0
   26.7360  -18.3318  -17.8307 C   0  0  0  0  0  0  0  0  0  0  0  0
   26.6310  -17.1346  -17.4471 O   0  0  0  0  0  0  0  0  0  0  0  0
   26.0776  -19.4086  -17.1503 N   0  0  0  0  0  0  0  0  0  0  0  0
   25.0257  -19.1140  -16.2367 C   0  0  1  0  0  0  0  0  0  0  0  0
   23.9081  -18.3679  -16.8916 C   0  0  0  0  0  0  0  0  0  0  0  0
   22.7714  -18.1990  -15.9674 C   0  0  0  0  0  0  0  0  0  0  0  0
   21.6379  -18.9736  -15.8268 C   0  0  0  0  0  0  0  0  0  0  0  0
   20.8709  -18.4486  -14.8580 N   0  0  0  0  0  0  0  0  0  0  0  0
   21.5004  -17.3632  -14.3902 C   0  0  0  0  0  0  0  0  0  0  0  0
   22.6429  -17.2033  -15.0489 N   0  0  0  0  0  0  0  0  0  0  0  0
   24.5510  -20.3590  -15.5537 C   0  0  0  0  0  0  0  0  0  0  0  0
   24.3249  -21.3692  -16.2473 O   0  0  0  0  0  0  0  0  0  0  0  0
   24.3601  -20.3980  -14.1572 N   0  0  0  0  0  0  0  0  0  0  0  0
   23.9015  -21.6735  -13.5687 C   0  0  1  0  0  0  0  0  0  0  0  0
   24.9961  -22.2821  -12.7674 C   0  0  0  0  0  0  0  0  0  0  0  0
   25.6504  -21.4441  -11.7598 C   0  0  0  0  0  0  0  0  0  0  0  0
   25.0509  -20.8102  -10.6585 C   0  0  0  0  0  0  0  0  0  0  0  0
   25.9681  -20.0957   -9.9862 N   0  0  0  0  0  0  0  0  0  0  0  0
   27.1637  -20.2292  -10.5979 C   0  0  0  0  0  0  0  0  0  0  0  0
   28.4257  -19.7369  -10.3293 C   0  0  0  0  0  0  0  0  0  0  0  0
   29.4819  -20.0757  -11.1476 C   0  0  0  0  0  0  0  0  0  0  0  0
   29.3331  -20.8978  -12.2408 C   0  0  0  0  0  0  0  0  0  0  0  0
   28.0722  -21.3767  -12.4929 C   0  0  0  0  0  0  0  0  0  0  0  0
   26.9716  -21.0581  -11.6892 C   0  0  0  0  0  0  0  0  0  0  0  0
   22.6757  -21.3982  -12.8216 C   0  0  0  0  0  0  0  0  0  0  0  0
   22.2237  -20.0917  -12.6045 O   0  0  0  0  0  0  0  0  0  0  0  0
   21.9525  -22.2988  -12.3291 O   0  0  0  0  0  0  0  0  0  0  0  0
  2  1  1  6
  2  3  1  0
  3  4  1  0
  5  2  1  0
  5  6  2  0
  7  5  1  0
  8  7  1  0
  8  9  1  6
 10  9  1  0
 11 10  2  0
 12 11  1  0
 13 12  1  0
 13 14  2  0
 14 10  1  0
 15 17  1  0
 15  8  1  0
 16 15  2  0
 18 17  1  0
 18 29  1  0
 18 19  1  1
 20 19  1  0
 21 20  2  0
 22 23  1  0
 22 21  1  0
 23 28  2  0
 24 25  2  0
 24 23  1  0
 25 26  1  0
 26 27  2  0
 28 27  1  0
 28 20  1  0
 29 30  1  0
 31 29  2  0
M  END
$$$$
