AQL.pdb
     RDKit          3D

 23 22  0  0  1  0  0  0  0  0999 V2000
   14.9876  -11.7837  -17.7473 C   0  0  0  0  0  0  0  0  0  0  0  0
   15.6096  -10.5973  -18.4502 C   0  0  2  0  0  0  0  0  0  0  0  0
   16.8047  -11.0679  -19.1167 N   0  0  0  0  0  0  0  0  0  0  0  0
   15.9083   -9.5541  -17.4398 C   0  0  0  0  0  0  0  0  0  0  0  0
   15.0182   -9.0047  -16.7384 O   0  0  0  0  0  0  0  0  0  0  0  0
   22.0579   -7.2278  -16.3873 N   0  0  0  0  0  0  0  0  0  0  0  0
   21.2174   -7.3691  -15.2226 C   0  0  0  0  0  0  0  0  0  0  0  0
   21.7583   -7.6644  -14.1361 O   0  0  0  0  0  0  0  0  0  0  0  0
   19.7548   -7.1667  -15.3271 C   0  0  0  0  0  0  0  0  0  0  0  0
   19.1939   -8.2031  -16.2463 C   0  0  0  0  0  0  0  0  0  0  0  0
   17.6837   -8.1590  -16.3181 C   0  0  2  0  0  0  0  0  0  0  0  0
   17.2441   -9.1514  -17.2471 N   0  0  0  0  0  0  0  0  0  0  0  0
   17.2608   -6.7890  -16.6657 C   0  0  0  0  0  0  0  0  0  0  0  0
   17.3477   -6.4096  -17.8626 O   0  0  0  0  0  0  0  0  0  0  0  0
   12.9864   -2.7296  -15.4249 C   0  0  0  0  0  0  0  0  0  0  0  0
   14.3150   -2.9779  -16.0807 C   0  0  2  0  0  0  0  0  0  0  0  0
   14.2707   -2.5432  -17.5077 C   0  0  0  0  0  0  0  0  0  0  0  0
   14.9527   -4.2678  -15.7859 C   0  0  0  0  0  0  0  0  0  0  0  0
   16.3812   -4.4755  -16.1021 C   0  0  2  0  0  0  0  0  0  0  0  0
   16.7540   -5.8539  -15.7253 N   0  0  0  0  0  0  0  0  0  0  0  0
   17.3583   -3.5934  -15.4633 C   0  0  0  0  0  0  0  0  0  0  0  0
   17.7525   -2.3399  -15.9000 O   0  0  0  0  0  0  0  0  0  0  0  0
   17.9410   -3.9752  -14.3875 O   0  0  0  0  0  0  0  0  0  0  0  0
  2  1  1  1
  2  3  1  0
  4  2  1  0
  5  4  2  0
  6  7  1  0
  7  8  2  0
  7  9  1  0
  9 10  1  0
 11 10  1  6
 11 13  1  0
 11 12  1  0
 12  4  1  0
 13 20  1  0
 14 13  2  0
 16 15  1  6
 17 16  1  0
 18 16  1  0
 19 18  1  1
 19 21  1  0
 20 19  1  0
 21 22  1  0
 23 21  2  0
M  END
$$$$
