AQL.pdb
     RDKit          3D

 23 22  0  0  1  0  0  0  0  0999 V2000
   24.8522  -10.8637  -19.1091 C   0  0  0  0  0  0  0  0  0  0  0  0
   23.5398  -11.5870  -18.9020 C   0  0  2  0  0  0  0  0  0  0  0  0
   23.2622  -12.3330  -20.1104 N   0  0  0  0  0  0  0  0  0  0  0  0
   22.4883  -10.5824  -18.6125 C   0  0  0  0  0  0  0  0  0  0  0  0
   22.4099   -9.4795  -19.2153 O   0  0  0  0  0  0  0  0  0  0  0  0
   17.0393  -11.6587  -18.3319 N   0  0  0  0  0  0  0  0  0  0  0  0
   16.8783  -10.5370  -17.4382 C   0  0  0  0  0  0  0  0  0  0  0  0
   15.7550   -9.9953  -17.3665 O   0  0  0  0  0  0  0  0  0  0  0  0
   18.0222  -10.0517  -16.6339 C   0  0  0  0  0  0  0  0  0  0  0  0
   19.2281  -10.8637  -16.9804 C   0  0  0  0  0  0  0  0  0  0  0  0
   20.4459  -10.0082  -17.2506 C   0  0  2  0  0  0  0  0  0  0  0  0
   21.5286  -10.8636  -17.6208 N   0  0  0  0  0  0  0  0  0  0  0  0
   20.7216   -9.1789  -16.0620 C   0  0  0  0  0  0  0  0  0  0  0  0
   21.2361   -9.7188  -15.0483 O   0  0  0  0  0  0  0  0  0  0  0  0
   21.3294   -3.1767  -14.6726 C   0  0  0  0  0  0  0  0  0  0  0  0
   21.5176   -4.6034  -14.2414 C   0  0  2  0  0  0  0  0  0  0  0  0
   22.8114   -4.7513  -13.5125 C   0  0  0  0  0  0  0  0  0  0  0  0
   21.1796   -5.6311  -15.2349 C   0  0  0  0  0  0  0  0  0  0  0  0
   20.7731   -6.9812  -14.7927 C   0  0  2  0  0  0  0  0  0  0  0  0
   20.4409   -7.7894  -15.9832 N   0  0  0  0  0  0  0  0  0  0  0  0
   19.6286   -7.0886  -13.8874 C   0  0  0  0  0  0  0  0  0  0  0  0
   18.2897   -7.0097  -14.2319 O   0  0  0  0  0  0  0  0  0  0  0  0
   19.8325   -7.2713  -12.6354 O   0  0  0  0  0  0  0  0  0  0  0  0
  2  1  1  6
  2  3  1  0
  4  2  1  0
  5  4  2  0
  6  7  1  0
  7  8  2  0
  7  9  1  0
  9 10  1  0
 11 10  1  1
 11 13  1  0
 11 12  1  0
 12  4  1  0
 13 20  1  0
 14 13  2  0
 16 15  1  6
 17 16  1  0
 18 16  1  0
 19 18  1  6
 19 21  1  0
 20 19  1  0
 21 22  1  0
 23 21  2  0
M  END
$$$$
