AQL.pdb
     RDKit          3D

 23 22  0  0  1  0  0  0  0  0999 V2000
   17.8377  -15.1391  -18.7405 C   0  0  0  0  0  0  0  0  0  0  0  0
   18.5873  -14.7288  -17.4923 C   0  0  2  0  0  0  0  0  0  0  0  0
   17.8055  -15.1655  -16.3557 N   0  0  0  0  0  0  0  0  0  0  0  0
   18.7677  -13.2572  -17.5130 C   0  0  0  0  0  0  0  0  0  0  0  0
   19.5376  -12.6726  -18.3202 O   0  0  0  0  0  0  0  0  0  0  0  0
   14.8673   -9.3270  -17.2693 N   0  0  0  0  0  0  0  0  0  0  0  0
   15.7579   -8.4598  -16.5362 C   0  0  0  0  0  0  0  0  0  0  0  0
   15.5595   -7.2277  -16.5895 O   0  0  0  0  0  0  0  0  0  0  0  0
   16.8730   -9.0287  -15.7461 C   0  0  0  0  0  0  0  0  0  0  0  0
   16.8612  -10.5147  -15.9049 C   0  0  0  0  0  0  0  0  0  0  0  0
   18.1649  -11.0501  -16.4539 C   0  0  2  0  0  0  0  0  0  0  0  0
   18.0510  -12.4674  -16.5930 N   0  0  0  0  0  0  0  0  0  0  0  0
   19.2670  -10.6251  -15.5699 C   0  0  0  0  0  0  0  0  0  0  0  0
   19.3141  -11.0749  -14.3954 O   0  0  0  0  0  0  0  0  0  0  0  0
   24.0743   -9.9598  -13.6691 C   0  0  0  0  0  0  0  0  0  0  0  0
   23.7373  -10.5461  -15.0106 C   0  0  2  0  0  0  0  0  0  0  0  0
   24.9880  -10.9086  -15.7396 C   0  0  0  0  0  0  0  0  0  0  0  0
   22.6850   -9.8603  -15.7721 C   0  0  0  0  0  0  0  0  0  0  0  0
   21.4491   -9.4192  -15.0928 C   0  0  2  0  0  0  0  0  0  0  0  0
   20.2953   -9.7279  -15.9613 N   0  0  0  0  0  0  0  0  0  0  0  0
   21.3320   -8.0048  -14.7367 C   0  0  0  0  0  0  0  0  0  0  0  0
   21.7583   -7.4084  -13.5620 O   0  0  0  0  0  0  0  0  0  0  0  0
   20.7823   -7.1923  -15.5615 O   0  0  0  0  0  0  0  0  0  0  0  0
  2  1  1  6
  2  3  1  0
  4  2  1  0
  5  4  2  0
  6  7  1  0
  7  8  2  0
  7  9  1  0
  9 10  1  0
 11 10  1  1
 11 13  1  0
 11 12  1  0
 12  4  1  0
 13 20  1  0
 14 13  2  0
 16 15  1  1
 17 16  1  0
 18 16  1  0
 19 18  1  6
 19 21  1  0
 20 19  1  0
 21 22  1  0
 23 21  2  0
M  END
$$$$
