AQL.pdb
     RDKit          3D

 23 22  0  0  1  0  0  0  0  0999 V2000
   15.8503  -12.4236  -18.0824 C   0  0  0  0  0  0  0  0  0  0  0  0
   16.4727  -11.1684  -18.6528 C   0  0  2  0  0  0  0  0  0  0  0  0
   17.7011  -11.5563  -19.3119 N   0  0  0  0  0  0  0  0  0  0  0  0
   16.7121  -10.2145  -17.5431 C   0  0  0  0  0  0  0  0  0  0  0  0
   15.7851   -9.7438  -16.8323 O   0  0  0  0  0  0  0  0  0  0  0  0
   22.3966   -9.6573  -15.1472 N   0  0  0  0  0  0  0  0  0  0  0  0
   21.6855   -8.6818  -14.3564 C   0  0  0  0  0  0  0  0  0  0  0  0
   22.2766   -8.1641  -13.3853 O   0  0  0  0  0  0  0  0  0  0  0  0
   20.2930   -8.3138  -14.6981 C   0  0  0  0  0  0  0  0  0  0  0  0
   19.8235   -9.1994  -15.8066 C   0  0  0  0  0  0  0  0  0  0  0  0
   18.4132   -8.8778  -16.2486 C   0  0  2  0  0  0  0  0  0  0  0  0
   18.0314   -9.8096  -17.2621 N   0  0  0  0  0  0  0  0  0  0  0  0
   18.3573   -7.4691  -16.6833 C   0  0  0  0  0  0  0  0  0  0  0  0
   18.6893   -7.1816  -17.8627 O   0  0  0  0  0  0  0  0  0  0  0  0
   16.4282   -2.0617  -15.8540 C   0  0  0  0  0  0  0  0  0  0  0  0
   16.3459   -3.1324  -16.9044 C   0  0  2  0  0  0  0  0  0  0  0  0
   15.1568   -2.9034  -17.7767 C   0  0  0  0  0  0  0  0  0  0  0  0
   16.5974   -4.5066  -16.4508 C   0  0  0  0  0  0  0  0  0  0  0  0
   17.9847   -4.9893  -16.2891 C   0  0  2  0  0  0  0  0  0  0  0  0
   17.9474   -6.3977  -15.8466 N   0  0  0  0  0  0  0  0  0  0  0  0
   18.8492   -4.2816  -15.3443 C   0  0  0  0  0  0  0  0  0  0  0  0
   19.1105   -4.6398  -14.0324 O   0  0  0  0  0  0  0  0  0  0  0  0
   19.4470   -3.2117  -15.7191 O   0  0  0  0  0  0  0  0  0  0  0  0
  2  1  1  1
  2  3  1  0
  4  2  1  0
  5  4  2  0
  6  7  1  0
  7  8  2  0
  7  9  1  0
  9 10  1  0
 11 10  1  6
 11 13  1  0
 11 12  1  0
 12  4  1  0
 13 20  1  0
 14 13  2  0
 16 15  1  1
 17 16  1  0
 18 16  1  0
 19 18  1  1
 19 21  1  0
 20 19  1  0
 21 22  1  0
 23 21  2  0
M  END
$$$$
