AQL.pdb
     RDKit          3D

 23 22  0  0  1  0  0  0  0  0999 V2000
   28.9563  -17.5783  -18.1133 C   0  0  0  0  0  0  0  0  0  0  0  0
   27.7641  -18.5004  -18.2427 C   0  0  2  0  0  0  0  0  0  0  0  0
   27.1250  -18.2054  -19.5070 N   0  0  0  0  0  0  0  0  0  0  0  0
   26.8592  -18.2654  -17.0919 C   0  0  0  0  0  0  0  0  0  0  0  0
   27.1575  -17.5112  -16.1285 O   0  0  0  0  0  0  0  0  0  0  0  0
   23.6201  -17.9664  -19.3078 N   0  0  0  0  0  0  0  0  0  0  0  0
   23.0421  -16.9859  -18.4206 C   0  0  0  0  0  0  0  0  0  0  0  0
   22.8048  -15.8463  -18.8737 O   0  0  0  0  0  0  0  0  0  0  0  0
   22.7435  -17.3348  -17.0134 C   0  0  0  0  0  0  0  0  0  0  0  0
   23.2481  -18.7161  -16.7466 C   0  0  0  0  0  0  0  0  0  0  0  0
   24.6002  -18.7191  -16.0685 C   0  0  2  0  0  0  0  0  0  0  0  0
   25.6070  -18.9095  -17.0640 N   0  0  0  0  0  0  0  0  0  0  0  0
   24.6039  -19.7498  -15.0129 C   0  0  0  0  0  0  0  0  0  0  0  0
   24.7734  -20.9539  -15.3376 O   0  0  0  0  0  0  0  0  0  0  0  0
   26.3849  -22.1662  -10.5925 C   0  0  0  0  0  0  0  0  0  0  0  0
   25.6399  -20.8872  -10.3359 C   0  0  2  0  0  0  0  0  0  0  0  0
   24.4963  -21.1378   -9.4104 C   0  0  0  0  0  0  0  0  0  0  0  0
   25.3886  -20.0370  -11.5070 C   0  0  0  0  0  0  0  0  0  0  0  0
   24.5124  -20.5182  -12.5953 C   0  0  2  0  0  0  0  0  0  0  0  0
   24.4264  -19.4703  -13.6323 N   0  0  0  0  0  0  0  0  0  0  0  0
   23.1354  -20.8784  -12.2560 C   0  0  0  0  0  0  0  0  0  0  0  0
   22.6472  -22.1521  -12.0177 O   0  0  0  0  0  0  0  0  0  0  0  0
   22.2498  -19.9569  -12.1607 O   0  0  0  0  0  0  0  0  0  0  0  0
  2  1  1  1
  2  3  1  0
  4  2  1  0
  5  4  2  0
  6  7  1  0
  7  8  2  0
  7  9  1  0
  9 10  1  0
 11 10  1  6
 11 13  1  0
 11 12  1  0
 12  4  1  0
 13 20  1  0
 14 13  2  0
 16 15  1  6
 17 16  1  0
 18 16  1  0
 19 18  1  1
 19 21  1  0
 20 19  1  0
 21 22  1  0
 23 21  2  0
M  END
$$$$
