LGD.pdb
     RDKit          3D

 21 20  0  0  1  0  0  0  0  0999 V2000
    5.1251  -12.4519   27.0664 C   0  0  0  0  0  0  0  0  0  0  0  0
    6.6389  -12.4325   26.8645 C   0  0  2  0  0  0  0  0  0  0  0  0
    7.1325  -11.0942   27.2786 C   0  0  0  0  0  0  0  0  0  0  0  0
    6.9047  -12.8514   25.4559 C   0  0  0  0  0  0  0  0  0  0  0  0
    7.0394  -14.2937   25.2006 C   0  0  2  0  0  0  0  0  0  0  0  0
    7.8203  -14.9749   26.1753 N   0  0  0  0  0  0  0  0  0  0  0  0
    7.4992  -14.6327   23.8354 C   0  0  0  0  0  0  0  0  0  0  0  0
    6.7957  -14.2616   22.8651 O   0  0  0  0  0  0  0  0  0  0  0  0
    8.6966  -15.3529   23.6455 N   0  0  0  0  0  0  0  0  0  0  0  0
    9.2061  -15.6772   22.3351 C   0  0  0  0  0  0  0  0  0  0  0  0
   10.4729  -16.4314   22.4883 C   0  0  0  0  0  0  0  0  0  0  0  0
   10.9995  -17.0972   21.5579 O   0  0  0  0  0  0  0  0  0  0  0  0
   11.1618  -16.4234   23.7494 N   0  0  0  0  0  0  0  0  0  0  0  0
   12.0929  -17.4806   24.1199 C   0  0  1  0  0  0  0  0  0  0  0  0
   13.3545  -16.8704   24.7192 C   0  0  0  0  0  0  0  0  0  0  0  0
   13.9777  -16.0059   23.6872 C   0  0  0  0  0  0  0  0  0  0  0  0
   13.6654  -16.0807   22.4784 O   0  0  0  0  0  0  0  0  0  0  0  0
   11.4263  -18.3562   25.1420 C   0  0  0  0  0  0  0  0  0  0  0  0
   11.9981  -19.3628   25.6168 O   0  0  0  0  0  0  0  0  0  0  0  0
   14.9578  -15.0615   24.0555 O   0  0  0  0  0  0  0  0  0  0  0  0
   10.1348  -18.0786   25.5998 O   0  0  0  0  0  0  0  0  0  0  0  0
  2  1  1  6
  3  2  1  0
  4  2  1  0
  5  4  1  0
  5  6  1  1
  7  5  1  0
  7  8  2  0
  9  7  1  0
 10  9  1  0
 10 11  1  0
 11 13  1  0
 12 11  2  0
 13 14  1  0
 14 18  1  0
 14 15  1  1
 15 16  1  0
 16 20  1  0
 17 16  2  0
 18 19  2  0
 18 21  1  0
M  END
$$$$
