LGD.pdb
     RDKit          3D

 21 20  0  0  1  0  0  0  0  0999 V2000
    9.4172  -13.2133   20.2229 C   0  0  0  0  0  0  0  0  0  0  0  0
    7.9406  -13.4232   19.8938 C   0  0  2  0  0  0  0  0  0  0  0  0
    7.4427  -12.1847   19.2424 C   0  0  0  0  0  0  0  0  0  0  0  0
    7.2613  -13.8518   21.1528 C   0  0  0  0  0  0  0  0  0  0  0  0
    7.7728  -15.0641   21.8102 C   0  0  2  0  0  0  0  0  0  0  0  0
    7.9022  -16.1768   20.9332 N   0  0  0  0  0  0  0  0  0  0  0  0
    7.0400  -15.4503   23.0365 C   0  0  0  0  0  0  0  0  0  0  0  0
    5.8242  -15.1511   23.1179 O   0  0  0  0  0  0  0  0  0  0  0  0
    7.7023  -16.1351   24.0761 N   0  0  0  0  0  0  0  0  0  0  0  0
    7.1437  -17.3027   24.7137 C   0  0  0  0  0  0  0  0  0  0  0  0
    8.0908  -17.7810   25.7487 C   0  0  0  0  0  0  0  0  0  0  0  0
    7.8451  -18.7464   26.5195 O   0  0  0  0  0  0  0  0  0  0  0  0
    9.3635  -17.1330   25.9075 N   0  0  0  0  0  0  0  0  0  0  0  0
   10.5555  -17.8725   26.3003 C   0  0  1  0  0  0  0  0  0  0  0  0
   11.8018  -17.0812   25.9216 C   0  0  0  0  0  0  0  0  0  0  0  0
   11.9495  -17.1409   24.4467 C   0  0  0  0  0  0  0  0  0  0  0  0
   12.6648  -16.3319   23.8155 O   0  0  0  0  0  0  0  0  0  0  0  0
   10.5186  -18.0655   27.7894 C   0  0  0  0  0  0  0  0  0  0  0  0
   11.0592  -19.0523   28.3368 O   0  0  0  0  0  0  0  0  0  0  0  0
   11.2707  -18.1323   23.7088 O   0  0  0  0  0  0  0  0  0  0  0  0
    9.8726  -17.1465   28.6217 O   0  0  0  0  0  0  0  0  0  0  0  0
  2  1  1  1
  3  2  1  0
  4  2  1  0
  5  4  1  0
  5  6  1  6
  7  5  1  0
  7  8  2  0
  9  7  1  0
 10  9  1  0
 10 11  1  0
 11 13  1  0
 12 11  2  0
 13 14  1  0
 14 18  1  0
 14 15  1  1
 15 16  1  0
 16 20  1  0
 17 16  2  0
 18 19  2  0
 18 21  1  0
M  END
$$$$
