LGD.pdb
     RDKit          3D

 21 20  0  0  1  0  0  0  0  0999 V2000
    5.5328  -11.9695   26.8341 C   0  0  0  0  0  0  0  0  0  0  0  0
    7.0363  -12.2218   26.7425 C   0  0  2  0  0  0  0  0  0  0  0  0
    7.7292  -11.0065   27.2414 C   0  0  0  0  0  0  0  0  0  0  0  0
    7.3309  -12.6480   25.3418 C   0  0  0  0  0  0  0  0  0  0  0  0
    6.9538  -14.0191   24.9659 C   0  0  2  0  0  0  0  0  0  0  0  0
    7.2649  -14.9887   25.9593 N   0  0  0  0  0  0  0  0  0  0  0  0
    7.4557  -14.4503   23.6422 C   0  0  0  0  0  0  0  0  0  0  0  0
    7.0307  -13.8515   22.6248 O   0  0  0  0  0  0  0  0  0  0  0  0
    8.3856  -15.5056   23.5423 N   0  0  0  0  0  0  0  0  0  0  0  0
    8.9159  -15.9538   22.2775 C   0  0  0  0  0  0  0  0  0  0  0  0
    9.9954  -16.9368   22.5334 C   0  0  0  0  0  0  0  0  0  0  0  0
   10.9250  -17.1731   21.7171 O   0  0  0  0  0  0  0  0  0  0  0  0
   10.0127  -17.6750   23.7662 N   0  0  0  0  0  0  0  0  0  0  0  0
   11.2561  -18.1550   24.3538 C   0  0  1  0  0  0  0  0  0  0  0  0
   12.2833  -17.0292   24.3788 C   0  0  0  0  0  0  0  0  0  0  0  0
   13.5362  -17.5676   24.9628 C   0  0  0  0  0  0  0  0  0  0  0  0
   14.4838  -16.8264   25.3051 O   0  0  0  0  0  0  0  0  0  0  0  0
   10.9694  -18.6020   25.7587 C   0  0  0  0  0  0  0  0  0  0  0  0
   11.8677  -19.0661   26.4959 O   0  0  0  0  0  0  0  0  0  0  0  0
   13.6890  -18.9571   25.1472 O   0  0  0  0  0  0  0  0  0  0  0  0
    9.6811  -18.5185   26.2953 O   0  0  0  0  0  0  0  0  0  0  0  0
  2  1  1  6
  3  2  1  0
  4  2  1  0
  5  4  1  0
  5  6  1  1
  7  5  1  0
  7  8  2  0
  9  7  1  0
 10  9  1  0
 10 11  1  0
 11 13  1  0
 12 11  2  0
 13 14  1  0
 14 18  1  0
 14 15  1  1
 15 16  1  0
 16 20  1  0
 17 16  2  0
 18 19  2  0
 18 21  1  0
M  END
$$$$
