LGD.pdb
     RDKit          3D

 21 20  0  0  1  0  0  0  0  0999 V2000
    5.4670  -12.2336   26.7278 C   0  0  0  0  0  0  0  0  0  0  0  0
    6.8634  -12.8095   26.5021 C   0  0  2  0  0  0  0  0  0  0  0  0
    7.8116  -12.0385   27.3464 C   0  0  0  0  0  0  0  0  0  0  0  0
    7.1100  -12.8132   25.0292 C   0  0  0  0  0  0  0  0  0  0  0  0
    6.9351  -14.0923   24.3244 C   0  0  2  0  0  0  0  0  0  0  0  0
    6.7181  -15.1973   25.1938 N   0  0  0  0  0  0  0  0  0  0  0  0
    8.0008  -14.4017   23.3453 C   0  0  0  0  0  0  0  0  0  0  0  0
    8.4107  -13.4754   22.6049 O   0  0  0  0  0  0  0  0  0  0  0  0
    8.5314  -15.7053   23.2582 N   0  0  0  0  0  0  0  0  0  0  0  0
    9.5983  -16.0483   22.3494 C   0  0  0  0  0  0  0  0  0  0  0  0
   10.5418  -16.9578   23.0419 C   0  0  0  0  0  0  0  0  0  0  0  0
   11.6936  -17.2233   22.6068 O   0  0  0  0  0  0  0  0  0  0  0  0
   10.1549  -17.5852   24.2755 N   0  0  0  0  0  0  0  0  0  0  0  0
   10.9945  -18.5843   24.9226 C   0  0  1  0  0  0  0  0  0  0  0  0
   10.7117  -18.6043   26.4202 C   0  0  0  0  0  0  0  0  0  0  0  0
   11.3974  -17.4385   27.0296 C   0  0  0  0  0  0  0  0  0  0  0  0
   12.2401  -16.7589   26.4029 O   0  0  0  0  0  0  0  0  0  0  0  0
   10.6660  -19.9262   24.3334 C   0  0  0  0  0  0  0  0  0  0  0  0
    9.7487  -20.0675   23.4942 O   0  0  0  0  0  0  0  0  0  0  0  0
   11.1081  -17.0643   28.3578 O   0  0  0  0  0  0  0  0  0  0  0  0
   11.3748  -21.0723   24.7056 O   0  0  0  0  0  0  0  0  0  0  0  0
  2  1  1  6
  3  2  1  0
  4  2  1  0
  5  4  1  0
  5  6  1  1
  7  5  1  0
  7  8  2  0
  9  7  1  0
 10  9  1  0
 10 11  1  0
 11 13  1  0
 12 11  2  0
 13 14  1  0
 14 18  1  0
 14 15  1  1
 15 16  1  0
 16 20  1  0
 17 16  2  0
 18 19  2  0
 18 21  1  0
M  END
$$$$
