LGD.pdb
     RDKit          3D

 21 20  0  0  1  0  0  0  0  0999 V2000
    6.2262  -12.1183   26.7028 C   0  0  0  0  0  0  0  0  0  0  0  0
    7.5600  -12.8623   26.7104 C   0  0  2  0  0  0  0  0  0  0  0  0
    8.5693  -11.9735   27.3408 C   0  0  0  0  0  0  0  0  0  0  0  0
    7.8263  -13.3115   25.3112 C   0  0  0  0  0  0  0  0  0  0  0  0
    7.0725  -14.4784   24.8279 C   0  0  2  0  0  0  0  0  0  0  0  0
    6.9027  -15.4940   25.8095 N   0  0  0  0  0  0  0  0  0  0  0  0
    7.5829  -15.0557   23.5645 C   0  0  0  0  0  0  0  0  0  0  0  0
    8.0754  -14.2754   22.7142 O   0  0  0  0  0  0  0  0  0  0  0  0
    7.5114  -16.4453   23.3362 N   0  0  0  0  0  0  0  0  0  0  0  0
    7.9474  -17.0511   22.1014 C   0  0  0  0  0  0  0  0  0  0  0  0
    9.3458  -17.5145   22.2642 C   0  0  0  0  0  0  0  0  0  0  0  0
    9.9504  -18.2081   21.4041 O   0  0  0  0  0  0  0  0  0  0  0  0
   10.0788  -17.1724   23.4520 N   0  0  0  0  0  0  0  0  0  0  0  0
   11.5279  -17.3029   23.5217 C   0  0  1  0  0  0  0  0  0  0  0  0
   12.1869  -16.0765   22.9017 C   0  0  0  0  0  0  0  0  0  0  0  0
   13.6563  -16.2734   22.9523 C   0  0  0  0  0  0  0  0  0  0  0  0
   14.2027  -17.3202   22.5396 O   0  0  0  0  0  0  0  0  0  0  0  0
   11.9209  -17.4049   24.9677 C   0  0  0  0  0  0  0  0  0  0  0  0
   11.1278  -17.1000   25.8863 O   0  0  0  0  0  0  0  0  0  0  0  0
   14.4864  -15.2628   23.4793 O   0  0  0  0  0  0  0  0  0  0  0  0
   13.1947  -17.8432   25.3416 O   0  0  0  0  0  0  0  0  0  0  0  0
  2  1  1  6
  3  2  1  0
  4  2  1  0
  5  4  1  0
  5  6  1  1
  7  5  1  0
  7  8  2  0
  9  7  1  0
 10  9  1  0
 10 11  1  0
 11 13  1  0
 12 11  2  0
 13 14  1  0
 14 18  1  0
 14 15  1  1
 15 16  1  0
 16 20  1  0
 17 16  2  0
 18 19  2  0
 18 21  1  0
M  END
$$$$
