LGD.pdb
     RDKit          3D

 21 20  0  0  1  0  0  0  0  0999 V2000
    7.9032  -12.3081   19.8392 C   0  0  0  0  0  0  0  0  0  0  0  0
    7.4699  -13.4985   20.6924 C   0  0  2  0  0  0  0  0  0  0  0  0
    7.4222  -13.0469   22.1065 C   0  0  0  0  0  0  0  0  0  0  0  0
    8.3855  -14.6334   20.3696 C   0  0  0  0  0  0  0  0  0  0  0  0
    7.8625  -15.9934   20.5703 C   0  0  2  0  0  0  0  0  0  0  0  0
    7.4127  -16.2413   21.8970 N   0  0  0  0  0  0  0  0  0  0  0  0
    8.7710  -17.0707   20.1188 C   0  0  0  0  0  0  0  0  0  0  0  0
    9.1375  -17.0711   18.9188 O   0  0  0  0  0  0  0  0  0  0  0  0
    9.2047  -18.0623   21.0228 N   0  0  0  0  0  0  0  0  0  0  0  0
   10.0504  -19.1602   20.6213 C   0  0  0  0  0  0  0  0  0  0  0  0
   11.4447  -18.8622   21.0265 C   0  0  0  0  0  0  0  0  0  0  0  0
   12.3227  -19.7498   21.1923 O   0  0  0  0  0  0  0  0  0  0  0  0
   11.8492  -17.5013   21.2493 N   0  0  0  0  0  0  0  0  0  0  0  0
   13.1797  -17.1687   21.7400 C   0  0  1  0  0  0  0  0  0  0  0  0
   13.6287  -15.8365   21.1512 C   0  0  0  0  0  0  0  0  0  0  0  0
   14.0836  -16.0824   19.7608 C   0  0  0  0  0  0  0  0  0  0  0  0
   14.7597  -17.0875   19.4491 O   0  0  0  0  0  0  0  0  0  0  0  0
   13.1137  -17.0575   23.2364 C   0  0  0  0  0  0  0  0  0  0  0  0
   12.0217  -16.9626   23.8398 O   0  0  0  0  0  0  0  0  0  0  0  0
   13.7571  -15.1674   18.7389 O   0  0  0  0  0  0  0  0  0  0  0  0
   14.2763  -17.0528   24.0129 O   0  0  0  0  0  0  0  0  0  0  0  0
  2  1  1  6
  3  2  1  0
  4  2  1  0
  5  4  1  0
  5  6  1  1
  7  5  1  0
  7  8  2  0
  9  7  1  0
 10  9  1  0
 10 11  1  0
 11 13  1  0
 12 11  2  0
 13 14  1  0
 14 18  1  0
 14 15  1  6
 15 16  1  0
 16 20  1  0
 17 16  2  0
 18 19  2  0
 18 21  1  0
M  END
$$$$
