LGD.pdb
     RDKit          3D

 21 20  0  0  1  0  0  0  0  0999 V2000
    7.1612  -12.9042   21.0147 C   0  0  0  0  0  0  0  0  0  0  0  0
    8.4562  -12.9072   20.2050 C   0  0  2  0  0  0  0  0  0  0  0  0
    8.3855  -11.7836   19.2362 C   0  0  0  0  0  0  0  0  0  0  0  0
    8.6269  -14.2809   19.6446 C   0  0  0  0  0  0  0  0  0  0  0  0
    8.9089  -15.3633   20.5999 C   0  0  2  0  0  0  0  0  0  0  0  0
    9.5592  -14.9221   21.7858 N   0  0  0  0  0  0  0  0  0  0  0  0
    9.6195  -16.5233   20.0173 C   0  0  0  0  0  0  0  0  0  0  0  0
    9.0682  -17.1424   19.0755 O   0  0  0  0  0  0  0  0  0  0  0  0
   10.8802  -16.9104   20.5165 N   0  0  0  0  0  0  0  0  0  0  0  0
   11.7142  -17.8792   19.8474 C   0  0  0  0  0  0  0  0  0  0  0  0
   13.1321  -17.4747   19.9989 C   0  0  0  0  0  0  0  0  0  0  0  0
   14.1001  -18.1901   19.6280 O   0  0  0  0  0  0  0  0  0  0  0  0
   13.4544  -16.2074   20.5950 N   0  0  0  0  0  0  0  0  0  0  0  0
   14.8332  -15.8000   20.8291 C   0  0  1  0  0  0  0  0  0  0  0  0
   15.0338  -14.3641   20.3589 C   0  0  0  0  0  0  0  0  0  0  0  0
   15.1358  -14.3786   18.8790 C   0  0  0  0  0  0  0  0  0  0  0  0
   15.9320  -15.1297   18.2736 O   0  0  0  0  0  0  0  0  0  0  0  0
   15.1040  -15.8861   22.3039 C   0  0  0  0  0  0  0  0  0  0  0  0
   16.2046  -15.5426   22.7901 O   0  0  0  0  0  0  0  0  0  0  0  0
   14.3200  -13.5265   18.1068 O   0  0  0  0  0  0  0  0  0  0  0  0
   14.1323  -16.3587   23.1910 O   0  0  0  0  0  0  0  0  0  0  0  0
  2  1  1  6
  3  2  1  0
  4  2  1  0
  5  4  1  0
  5  6  1  1
  7  5  1  0
  7  8  2  0
  9  7  1  0
 10  9  1  0
 10 11  1  0
 11 13  1  0
 12 11  2  0
 13 14  1  0
 14 18  1  0
 14 15  1  1
 15 16  1  0
 16 20  1  0
 17 16  2  0
 18 19  2  0
 18 21  1  0
M  END
$$$$
