LGD.pdb
     RDKit          3D

 21 20  0  0  1  0  0  0  0  0999 V2000
    9.0988  -12.5727   18.6948 C   0  0  0  0  0  0  0  0  0  0  0  0
    7.9258  -13.3502   19.2883 C   0  0  2  0  0  0  0  0  0  0  0  0
    6.7696  -12.4224   19.3804 C   0  0  0  0  0  0  0  0  0  0  0  0
    8.4031  -13.9732   20.5590 C   0  0  0  0  0  0  0  0  0  0  0  0
    9.5643  -14.8715   20.4692 C   0  0  2  0  0  0  0  0  0  0  0  0
    9.4145  -15.9017   19.4995 N   0  0  0  0  0  0  0  0  0  0  0  0
   10.0023  -15.4360   21.7651 C   0  0  0  0  0  0  0  0  0  0  0  0
   10.2616  -14.6399   22.6996 O   0  0  0  0  0  0  0  0  0  0  0  0
   10.1204  -16.8314   21.9307 N   0  0  0  0  0  0  0  0  0  0  0  0
   10.5718  -17.4298   23.1636 C   0  0  0  0  0  0  0  0  0  0  0  0
   12.0534  -17.4716   23.1600 C   0  0  0  0  0  0  0  0  0  0  0  0
   12.7254  -18.2799   23.8539 O   0  0  0  0  0  0  0  0  0  0  0  0
   12.7925  -16.5574   22.3335 N   0  0  0  0  0  0  0  0  0  0  0  0
   14.2479  -16.5038   22.3630 C   0  0  1  0  0  0  0  0  0  0  0  0
   14.7408  -15.3731   21.4676 C   0  0  0  0  0  0  0  0  0  0  0  0
   16.2240  -15.3992   21.4746 C   0  0  0  0  0  0  0  0  0  0  0  0
   16.9015  -14.5803   22.1340 O   0  0  0  0  0  0  0  0  0  0  0  0
   14.6794  -16.2457   23.7783 C   0  0  0  0  0  0  0  0  0  0  0  0
   15.7737  -16.6645   24.2174 O   0  0  0  0  0  0  0  0  0  0  0  0
   16.9166  -16.3686   20.7205 O   0  0  0  0  0  0  0  0  0  0  0  0
   13.8683  -15.5272   24.6617 O   0  0  0  0  0  0  0  0  0  0  0  0
  2  1  1  1
  3  2  1  0
  4  2  1  0
  5  4  1  0
  5  6  1  6
  7  5  1  0
  7  8  2  0
  9  7  1  0
 10  9  1  0
 10 11  1  0
 11 13  1  0
 12 11  2  0
 13 14  1  0
 14 18  1  0
 14 15  1  6
 15 16  1  0
 16 20  1  0
 17 16  2  0
 18 19  2  0
 18 21  1  0
M  END
$$$$
