LGD.pdb
     RDKit          3D

 21 20  0  0  1  0  0  0  0  0999 V2000
    9.0399  -12.5518   20.4792 C   0  0  0  0  0  0  0  0  0  0  0  0
    7.9224  -13.4237   19.9103 C   0  0  2  0  0  0  0  0  0  0  0  0
    6.9934  -12.5371   19.1640 C   0  0  0  0  0  0  0  0  0  0  0  0
    7.3512  -14.2100   21.0443 C   0  0  0  0  0  0  0  0  0  0  0  0
    8.2539  -15.1459   21.7317 C   0  0  2  0  0  0  0  0  0  0  0  0
    9.0228  -15.9510   20.8459 N   0  0  0  0  0  0  0  0  0  0  0  0
    7.5983  -15.9839   22.7603 C   0  0  0  0  0  0  0  0  0  0  0  0
    7.2440  -17.1441   22.4401 O   0  0  0  0  0  0  0  0  0  0  0  0
    7.3844  -15.4795   24.0596 N   0  0  0  0  0  0  0  0  0  0  0  0
    6.6636  -16.2177   25.0683 C   0  0  0  0  0  0  0  0  0  0  0  0
    7.5221  -17.3231   25.5562 C   0  0  0  0  0  0  0  0  0  0  0  0
    7.2327  -18.5404   25.4121 O   0  0  0  0  0  0  0  0  0  0  0  0
    8.7549  -17.0260   26.2322 N   0  0  0  0  0  0  0  0  0  0  0  0
    9.8155  -18.0162   26.3607 C   0  0  1  0  0  0  0  0  0  0  0  0
   11.0449  -17.5593   25.5841 C   0  0  0  0  0  0  0  0  0  0  0  0
   11.6744  -18.7588   24.9795 C   0  0  0  0  0  0  0  0  0  0  0  0
   11.2204  -19.9107   25.1577 O   0  0  0  0  0  0  0  0  0  0  0  0
   10.1627  -18.1458   27.8162 C   0  0  0  0  0  0  0  0  0  0  0  0
    9.8279  -17.2757   28.6506 O   0  0  0  0  0  0  0  0  0  0  0  0
   12.8238  -18.6228   24.1743 O   0  0  0  0  0  0  0  0  0  0  0  0
   10.8791  -19.2475   28.2932 O   0  0  0  0  0  0  0  0  0  0  0  0
  2  1  1  1
  3  2  1  0
  4  2  1  0
  5  4  1  0
  5  6  1  6
  7  5  1  0
  7  8  2  0
  9  7  1  0
 10  9  1  0
 10 11  1  0
 11 13  1  0
 12 11  2  0
 13 14  1  0
 14 18  1  0
 14 15  1  6
 15 16  1  0
 16 20  1  0
 17 16  2  0
 18 19  2  0
 18 21  1  0
M  END
$$$$
