NAK.pdb
     RDKit          3D

 23 22  0  0  1  0  0  0  0  0999 V2000
   15.0171  -16.6135  -14.5953 N   0  0  0  0  0  0  0  0  0  0  0  0
   14.9046  -15.3222  -13.9617 C   0  0  0  0  0  0  0  0  0  0  0  0
   13.9701  -15.1863  -13.1402 O   0  0  0  0  0  0  0  0  0  0  0  0
   15.8871  -14.2983  -14.3358 C   0  0  0  0  0  0  0  0  0  0  0  0
   16.7905  -14.7821  -15.4681 C   0  0  2  0  0  0  0  0  0  0  0  0
   17.6728  -15.8080  -15.0450 N   0  0  0  0  0  0  0  0  0  0  0  0
   17.3894  -13.6177  -16.1114 C   0  0  0  0  0  0  0  0  0  0  0  0
   18.5663  -13.3095  -15.7181 O   0  0  0  0  0  0  0  0  0  0  0  0
   16.8171  -11.2371  -18.9977 C   0  0  0  0  0  0  0  0  0  0  0  0
   17.5252  -11.7056  -17.7451 C   0  0  2  0  0  0  0  0  0  0  0  0
   16.8382  -12.7971  -17.1038 N   0  0  0  0  0  0  0  0  0  0  0  0
   17.7846  -10.5811  -16.8076 C   0  0  0  0  0  0  0  0  0  0  0  0
   17.0359  -10.4066  -15.8118 O   0  0  0  0  0  0  0  0  0  0  0  0
   18.8505   -9.6648  -16.9646 N   0  0  0  0  0  0  0  0  0  0  0  0
   19.0779   -8.5644  -16.0410 C   0  0  1  0  0  0  0  0  0  0  0  0
   20.4792   -8.1177  -15.9955 C   0  0  0  0  0  0  0  0  0  0  0  0
   20.6783   -7.0201  -14.9886 C   0  0  0  0  0  0  0  0  0  0  0  0
   22.1340   -6.4916  -15.0772 C   0  0  0  0  0  0  0  0  0  0  0  0
   22.4119   -5.5554  -13.9350 C   0  0  0  0  0  0  0  0  0  0  0  0
   22.4233   -6.2433  -12.6591 N   0  0  0  0  0  0  0  0  0  0  0  0
   18.1026   -7.4868  -16.2834 C   0  0  0  0  0  0  0  0  0  0  0  0
   17.6870   -7.2987  -17.4556 O   0  0  0  0  0  0  0  0  0  0  0  0
   17.5960   -6.6542  -15.3140 O   0  0  0  0  0  0  0  0  0  0  0  0
  2  4  1  0
  2  1  1  0
  3  2  2  0
  5  6  1  1
  5  4  1  0
  7  8  2  0
  7  5  1  0
 10  9  1  6
 10 11  1  0
 10 12  1  0
 11  7  1  0
 12 14  1  0
 12 13  2  0
 14 15  1  0
 15 16  1  6
 15 21  1  0
 17 16  1  0
 18 17  1  0
 19 18  1  0
 20 19  1  0
 21 22  2  0
 21 23  1  0
M  END
$$$$
