NAK.pdb
     RDKit          3D

 23 22  0  0  1  0  0  0  0  0999 V2000
   20.7433  -14.5514  -19.7868 N   0  0  0  0  0  0  0  0  0  0  0  0
   19.7578  -13.5719  -19.3985 C   0  0  0  0  0  0  0  0  0  0  0  0
   18.7459  -13.4823  -20.1298 O   0  0  0  0  0  0  0  0  0  0  0  0
   20.0309  -12.7794  -18.1940 C   0  0  0  0  0  0  0  0  0  0  0  0
   21.3515  -13.1900  -17.5460 C   0  0  2  0  0  0  0  0  0  0  0  0
   21.3248  -14.5301  -17.0842 N   0  0  0  0  0  0  0  0  0  0  0  0
   21.7314  -12.1646  -16.5803 C   0  0  0  0  0  0  0  0  0  0  0  0
   20.7750  -11.6676  -15.8924 O   0  0  0  0  0  0  0  0  0  0  0  0
   24.7818  -10.3607  -15.2185 C   0  0  0  0  0  0  0  0  0  0  0  0
   23.2960  -10.5965  -15.3819 C   0  0  2  0  0  0  0  0  0  0  0  0
   23.0094  -11.6577  -16.3127 N   0  0  0  0  0  0  0  0  0  0  0  0
   22.5753   -9.3423  -15.7256 C   0  0  0  0  0  0  0  0  0  0  0  0
   22.4889   -8.9748  -16.9255 O   0  0  0  0  0  0  0  0  0  0  0  0
   21.9604   -8.5074  -14.7635 N   0  0  0  0  0  0  0  0  0  0  0  0
   21.2620   -7.2833  -15.1230 C   0  0  1  0  0  0  0  0  0  0  0  0
   19.7972   -7.4231  -15.1241 C   0  0  0  0  0  0  0  0  0  0  0  0
   19.1187   -6.1420  -15.5197 C   0  0  0  0  0  0  0  0  0  0  0  0
   17.5800   -6.3335  -15.4741 C   0  0  0  0  0  0  0  0  0  0  0  0
   16.8914   -5.0720  -15.9131 C   0  0  0  0  0  0  0  0  0  0  0  0
   15.4485   -5.1830  -15.8287 N   0  0  0  0  0  0  0  0  0  0  0  0
   21.7657   -6.1554  -14.3194 C   0  0  0  0  0  0  0  0  0  0  0  0
   22.2453   -6.3899  -13.1805 O   0  0  0  0  0  0  0  0  0  0  0  0
   21.7575   -4.8407  -14.7206 O   0  0  0  0  0  0  0  0  0  0  0  0
  2  4  1  0
  2  1  1  0
  3  2  2  0
  5  6  1  1
  5  4  1  0
  7  8  2  0
  7  5  1  0
 10  9  1  6
 10 11  1  0
 10 12  1  0
 11  7  1  0
 12 14  1  0
 12 13  2  0
 14 15  1  0
 15 16  1  1
 15 21  1  0
 17 16  1  0
 18 17  1  0
 19 18  1  0
 20 19  1  0
 21 22  2  0
 21 23  1  0
M  END
$$$$
