NAK.pdb
     RDKit          3D

 23 22  0  0  1  0  0  0  0  0999 V2000
   21.9668  -23.3007  -16.0143 N   0  0  0  0  0  0  0  0  0  0  0  0
   21.1683  -22.6314  -17.0121 C   0  0  0  0  0  0  0  0  0  0  0  0
   20.3250  -23.3353  -17.6122 O   0  0  0  0  0  0  0  0  0  0  0  0
   21.4165  -21.2013  -17.2283 C   0  0  0  0  0  0  0  0  0  0  0  0
   22.4464  -20.6600  -16.2390 C   0  0  2  0  0  0  0  0  0  0  0  0
   23.6722  -21.3694  -16.3038 N   0  0  0  0  0  0  0  0  0  0  0  0
   21.8148  -20.5484  -14.9287 C   0  0  0  0  0  0  0  0  0  0  0  0
   22.0541  -21.5037  -14.1132 O   0  0  0  0  0  0  0  0  0  0  0  0
   19.7921  -18.1070  -12.8445 C   0  0  0  0  0  0  0  0  0  0  0  0
   20.5106  -19.4147  -13.0964 C   0  0  2  0  0  0  0  0  0  0  0  0
   20.9812  -19.5282  -14.4529 N   0  0  0  0  0  0  0  0  0  0  0  0
   19.6836  -20.5825  -12.6926 C   0  0  0  0  0  0  0  0  0  0  0  0
   19.0320  -21.2215  -13.5582 O   0  0  0  0  0  0  0  0  0  0  0  0
   19.5766  -21.0382  -11.3578 N   0  0  0  0  0  0  0  0  0  0  0  0
   18.7874  -22.2035  -10.9906 C   0  0  1  0  0  0  0  0  0  0  0  0
   19.0195  -22.6571   -9.6102 C   0  0  0  0  0  0  0  0  0  0  0  0
   18.2001  -23.8731   -9.2815 C   0  0  0  0  0  0  0  0  0  0  0  0
   18.4050  -24.2502   -7.7908 C   0  0  0  0  0  0  0  0  0  0  0  0
   17.5785  -25.4572   -7.4471 C   0  0  0  0  0  0  0  0  0  0  0  0
   17.6145  -25.7546   -6.0288 N   0  0  0  0  0  0  0  0  0  0  0  0
   17.3701  -21.9856  -11.3300 C   0  0  0  0  0  0  0  0  0  0  0  0
   16.6992  -22.9512  -11.7771 O   0  0  0  0  0  0  0  0  0  0  0  0
   16.7051  -20.7904  -11.1931 O   0  0  0  0  0  0  0  0  0  0  0  0
  2  4  1  0
  2  1  1  0
  3  2  2  0
  5  6  1  1
  5  4  1  0
  7  8  2  0
  7  5  1  0
 10  9  1  6
 10 11  1  0
 10 12  1  0
 11  7  1  0
 12 14  1  0
 12 13  2  0
 14 15  1  0
 15 16  1  1
 15 21  1  0
 17 16  1  0
 18 17  1  0
 19 18  1  0
 20 19  1  0
 21 22  2  0
 21 23  1  0
M  END
$$$$
