NAK.pdb
     RDKit          3D

 23 22  0  0  1  0  0  0  0  0999 V2000
   22.5994  -14.6609  -19.6950 N   0  0  0  0  0  0  0  0  0  0  0  0
   22.3328  -14.6233  -18.2776 C   0  0  0  0  0  0  0  0  0  0  0  0
   21.8806  -15.6741  -17.7696 O   0  0  0  0  0  0  0  0  0  0  0  0
   22.6139  -13.3686  -17.5703 C   0  0  0  0  0  0  0  0  0  0  0  0
   23.0588  -12.2731  -18.5369 C   0  0  2  0  0  0  0  0  0  0  0  0
   24.1590  -12.6794  -19.3334 N   0  0  0  0  0  0  0  0  0  0  0  0
   23.2064  -11.0289  -17.7896 C   0  0  0  0  0  0  0  0  0  0  0  0
   22.1946  -10.6765  -17.0918 O   0  0  0  0  0  0  0  0  0  0  0  0
   25.7360   -8.3059  -17.0256 C   0  0  0  0  0  0  0  0  0  0  0  0
   24.3470   -8.9054  -17.0595 C   0  0  2  0  0  0  0  0  0  0  0  0
   24.3149  -10.1741  -17.7406 N   0  0  0  0  0  0  0  0  0  0  0  0
   23.3498   -7.9503  -17.6108 C   0  0  0  0  0  0  0  0  0  0  0  0
   23.1719   -7.8738  -18.8537 O   0  0  0  0  0  0  0  0  0  0  0  0
   22.5621   -7.0941  -16.8062 N   0  0  0  0  0  0  0  0  0  0  0  0
   21.6094   -6.1502  -17.3691 C   0  0  1  0  0  0  0  0  0  0  0  0
   20.2077   -6.5710  -17.2164 C   0  0  0  0  0  0  0  0  0  0  0  0
   19.2614   -5.5793  -17.8322 C   0  0  0  0  0  0  0  0  0  0  0  0
   17.8000   -6.0524  -17.6160 C   0  0  0  0  0  0  0  0  0  0  0  0
   16.8443   -5.0660  -18.2259 C   0  0  0  0  0  0  0  0  0  0  0  0
   15.4708   -5.5236  -18.1526 N   0  0  0  0  0  0  0  0  0  0  0  0
   21.8934   -4.7889  -16.8817 C   0  0  0  0  0  0  0  0  0  0  0  0
   21.3268   -3.8150  -17.4409 O   0  0  0  0  0  0  0  0  0  0  0  0
   22.7418   -4.4884  -15.8426 O   0  0  0  0  0  0  0  0  0  0  0  0
  2  4  1  0
  2  1  1  0
  3  2  2  0
  5  6  1  1
  5  4  1  0
  7  8  2  0
  7  5  1  0
 10  9  1  6
 10 11  1  0
 10 12  1  0
 11  7  1  0
 12 14  1  0
 12 13  2  0
 14 15  1  0
 15 16  1  1
 15 21  1  0
 17 16  1  0
 18 17  1  0
 19 18  1  0
 20 19  1  0
 21 22  2  0
 21 23  1  0
M  END
$$$$
