NAK.pdb
     RDKit          3D

 23 22  0  0  1  0  0  0  0  0999 V2000
   16.6279  -13.3237  -10.3159 N   0  0  0  0  0  0  0  0  0  0  0  0
   16.9615  -12.6081  -11.5234 C   0  0  0  0  0  0  0  0  0  0  0  0
   17.6421  -13.2320  -12.3686 O   0  0  0  0  0  0  0  0  0  0  0  0
   16.4763  -11.2287  -11.6472 C   0  0  0  0  0  0  0  0  0  0  0  0
   15.6670  -10.8119  -10.4209 C   0  0  2  0  0  0  0  0  0  0  0  0
   14.5071  -11.6093  -10.2513 N   0  0  0  0  0  0  0  0  0  0  0  0
   15.4760   -9.3662  -10.4624 C   0  0  0  0  0  0  0  0  0  0  0  0
   14.6137   -8.9435  -11.3066 O   0  0  0  0  0  0  0  0  0  0  0  0
   16.2951   -6.2112   -8.5715 C   0  0  0  0  0  0  0  0  0  0  0  0
   15.8969   -6.9675   -9.8202 C   0  0  2  0  0  0  0  0  0  0  0  0
   16.1172   -8.3854   -9.6950 N   0  0  0  0  0  0  0  0  0  0  0  0
   16.5480   -6.4062  -11.0333 C   0  0  0  0  0  0  0  0  0  0  0  0
   17.7545   -6.6659  -11.2772 O   0  0  0  0  0  0  0  0  0  0  0  0
   15.8812   -5.5730  -11.9617 N   0  0  0  0  0  0  0  0  0  0  0  0
   16.5599   -4.9673  -13.0966 C   0  0  1  0  0  0  0  0  0  0  0  0
   15.8299   -5.1191  -14.3652 C   0  0  0  0  0  0  0  0  0  0  0  0
   16.1475   -6.4267  -15.0340 C   0  0  0  0  0  0  0  0  0  0  0  0
   14.8380   -7.2280  -15.2563 C   0  0  0  0  0  0  0  0  0  0  0  0
   15.1381   -8.5174  -15.9674 C   0  0  0  0  0  0  0  0  0  0  0  0
   15.2847   -9.6255  -15.0445 N   0  0  0  0  0  0  0  0  0  0  0  0
   16.9460   -3.5814  -12.7780 C   0  0  0  0  0  0  0  0  0  0  0  0
   17.7298   -2.9774  -13.5547 O   0  0  0  0  0  0  0  0  0  0  0  0
   16.5095   -2.8775  -11.6809 O   0  0  0  0  0  0  0  0  0  0  0  0
  2  4  1  0
  2  1  1  0
  3  2  2  0
  5  6  1  6
  5  4  1  0
  7  8  2  0
  7  5  1  0
 10  9  1  1
 10 11  1  0
 10 12  1  0
 11  7  1  0
 12 14  1  0
 12 13  2  0
 14 15  1  0
 15 16  1  6
 15 21  1  0
 17 16  1  0
 18 17  1  0
 19 18  1  0
 20 19  1  0
 21 22  2  0
 21 23  1  0
M  END
$$$$
