NAK.pdb
     RDKit          3D

 23 22  0  0  1  0  0  0  0  0999 V2000
   16.1573  -14.6965  -17.2367 N   0  0  0  0  0  0  0  0  0  0  0  0
   15.4535  -14.1051  -16.1248 C   0  0  0  0  0  0  0  0  0  0  0  0
   14.2670  -14.4691  -15.9618 O   0  0  0  0  0  0  0  0  0  0  0  0
   16.1871  -13.1413  -15.2964 C   0  0  0  0  0  0  0  0  0  0  0  0
   17.6389  -13.0088  -15.7515 C   0  0  2  0  0  0  0  0  0  0  0  0
   18.4020  -14.1630  -15.4427 N   0  0  0  0  0  0  0  0  0  0  0  0
   18.1559  -11.7282  -15.2812 C   0  0  0  0  0  0  0  0  0  0  0  0
   18.2333  -11.5924  -14.0122 O   0  0  0  0  0  0  0  0  0  0  0  0
   19.7551   -8.5377  -16.5440 C   0  0  0  0  0  0  0  0  0  0  0  0
   19.0655   -9.3899  -15.5009 C   0  0  2  0  0  0  0  0  0  0  0  0
   18.5774  -10.6315  -16.0438 N   0  0  0  0  0  0  0  0  0  0  0  0
   18.0003   -8.6339  -14.7907 C   0  0  0  0  0  0  0  0  0  0  0  0
   16.8195   -8.6528  -15.2241 O   0  0  0  0  0  0  0  0  0  0  0  0
   18.2323   -7.8700  -13.6230 N   0  0  0  0  0  0  0  0  0  0  0  0
   17.1709   -7.1520  -12.9350 C   0  0  1  0  0  0  0  0  0  0  0  0
   17.0499   -7.5072  -11.5122 C   0  0  0  0  0  0  0  0  0  0  0  0
   15.9670   -6.7163  -10.8339 C   0  0  0  0  0  0  0  0  0  0  0  0
   15.8976   -7.1098   -9.3350 C   0  0  0  0  0  0  0  0  0  0  0  0
   14.7920   -6.3525   -8.6549 C   0  0  0  0  0  0  0  0  0  0  0  0
   14.6747   -6.7040   -7.2535 N   0  0  0  0  0  0  0  0  0  0  0  0
   17.2838   -5.7058  -13.1943 C   0  0  0  0  0  0  0  0  0  0  0  0
   18.4287   -5.2024  -13.3288 O   0  0  0  0  0  0  0  0  0  0  0  0
   16.2195   -4.8432  -13.3068 O   0  0  0  0  0  0  0  0  0  0  0  0
  2  4  1  0
  2  1  1  0
  3  2  2  0
  5  6  1  1
  5  4  1  0
  7  8  2  0
  7  5  1  0
 10  9  1  6
 10 11  1  0
 10 12  1  0
 11  7  1  0
 12 14  1  0
 12 13  2  0
 14 15  1  0
 15 16  1  1
 15 21  1  0
 17 16  1  0
 18 17  1  0
 19 18  1  0
 20 19  1  0
 21 22  2  0
 21 23  1  0
M  END
$$$$
