NVH.pdb
     RDKit          3D

 26 26  0  0  1  0  0  0  0  0999 V2000
   13.3902  -19.1274   17.3067 N   0  0  0  0  0  0  0  0  0  0  0  0
   12.2806  -18.2480   17.1459 C   0  0  0  0  0  0  0  0  0  0  0  0
   11.5591  -18.3712   16.0957 O   0  0  0  0  0  0  0  0  0  0  0  0
   11.9468  -17.2165   18.1444 C   0  0  0  0  0  0  0  0  0  0  0  0
   10.9409  -17.8331   19.0956 C   0  0  2  0  0  0  0  0  0  0  0  0
    9.7195  -17.9984   18.3207 N   0  0  0  0  0  0  0  0  0  0  0  0
   10.7203  -16.9858   20.2899 C   0  0  0  0  0  0  0  0  0  0  0  0
   11.6758  -16.7078   21.0567 O   0  0  0  0  0  0  0  0  0  0  0  0
    6.7670  -15.7376   21.8195 C   0  0  0  0  0  0  0  0  0  0  0  0
    7.9634  -14.8133   21.7086 C   0  0  1  0  0  0  0  0  0  0  0  0
    7.9137  -13.9330   22.9435 C   0  0  0  0  0  0  0  0  0  0  0  0
    9.2004  -15.6771   21.8174 C   0  0  2  0  0  0  0  0  0  0  0  0
    9.4505  -16.4500   20.6263 N   0  0  0  0  0  0  0  0  0  0  0  0
    9.2304  -16.4862   23.0475 C   0  0  0  0  0  0  0  0  0  0  0  0
    8.6012  -17.5588   23.2147 O   0  0  0  0  0  0  0  0  0  0  0  0
   10.0175  -16.0883   24.1963 N   0  0  0  0  0  0  0  0  0  0  0  0
   10.0337  -16.8916   25.3905 C   0  0  1  0  0  0  0  0  0  0  0  0
   11.1364  -16.3024   26.2762 C   0  0  0  0  0  0  0  0  0  0  0  0
   11.2690  -17.0411   27.5461 C   0  0  0  0  0  0  0  0  0  0  0  0
   12.2476  -17.9635   27.8222 C   0  0  0  0  0  0  0  0  0  0  0  0
   12.0693  -18.4585   29.0848 N   0  0  0  0  0  0  0  0  0  0  0  0
   10.9774  -17.8244   29.5625 C   0  0  0  0  0  0  0  0  0  0  0  0
   10.4924  -16.9654   28.6297 N   0  0  0  0  0  0  0  0  0  0  0  0
    8.7417  -16.9145   26.1140 C   0  0  0  0  0  0  0  0  0  0  0  0
    8.3915  -17.9827   26.9074 O   0  0  0  0  0  0  0  0  0  0  0  0
    7.9157  -15.9650   26.0324 O   0  0  0  0  0  0  0  0  0  0  0  0
  2  3  2  0
  2  1  1  0
  4  2  1  0
  5  4  1  0
  5  7  1  0
  5  6  1  6
  7 13  1  0
  7  8  2  0
 10 11  1  1
 10  9  1  0
 12 10  1  0
 12 13  1  6
 14 12  1  0
 14 15  2  0
 16 14  1  0
 17 16  1  0
 17 18  1  1
 19 18  1  0
 20 19  2  0
 21 20  1  0
 22 21  1  0
 22 23  2  0
 23 19  1  0
 24 17  1  0
 25 24  1  0
 26 24  2  0
M  END
$$$$
