NVH.pdb
     RDKit          3D

 26 26  0  0  1  0  0  0  0  0999 V2000
    8.1393  -17.9159   19.0242 N   0  0  0  0  0  0  0  0  0  0  0  0
    7.2450  -17.4491   20.0304 C   0  0  0  0  0  0  0  0  0  0  0  0
    6.0055  -17.3347   19.7315 O   0  0  0  0  0  0  0  0  0  0  0  0
    7.7041  -17.1013   21.3872 C   0  0  0  0  0  0  0  0  0  0  0  0
    7.9253  -15.6021   21.4067 C   0  0  2  0  0  0  0  0  0  0  0  0
    8.8967  -15.3359   20.3555 N   0  0  0  0  0  0  0  0  0  0  0  0
    8.4055  -15.1329   22.7266 C   0  0  0  0  0  0  0  0  0  0  0  0
    9.5480  -15.4550   23.1380 O   0  0  0  0  0  0  0  0  0  0  0  0
    5.8682  -13.2116   25.7781 C   0  0  0  0  0  0  0  0  0  0  0  0
    7.2669  -12.7363   25.4377 C   0  0  1  0  0  0  0  0  0  0  0  0
    7.8972  -12.3446   26.7612 C   0  0  0  0  0  0  0  0  0  0  0  0
    8.0249  -13.9351   24.9121 C   0  0  2  0  0  0  0  0  0  0  0  0
    7.6244  -14.3108   23.5791 N   0  0  0  0  0  0  0  0  0  0  0  0
    8.0336  -15.0680   25.8531 C   0  0  0  0  0  0  0  0  0  0  0  0
    7.0082  -15.5990   26.3439 O   0  0  0  0  0  0  0  0  0  0  0  0
    9.2718  -15.6739   26.2970 N   0  0  0  0  0  0  0  0  0  0  0  0
    9.2662  -16.7149   27.2910 C   0  0  1  0  0  0  0  0  0  0  0  0
    8.5580  -17.9088   26.6425 C   0  0  0  0  0  0  0  0  0  0  0  0
    9.3230  -18.4416   25.4993 C   0  0  0  0  0  0  0  0  0  0  0  0
   10.5062  -17.9240   25.0335 C   0  0  0  0  0  0  0  0  0  0  0  0
   10.9367  -18.6549   23.9606 N   0  0  0  0  0  0  0  0  0  0  0  0
   10.0028  -19.6146   23.7886 C   0  0  0  0  0  0  0  0  0  0  0  0
    9.0248  -19.4850   24.7213 N   0  0  0  0  0  0  0  0  0  0  0  0
   10.6165  -17.1024   27.7596 C   0  0  0  0  0  0  0  0  0  0  0  0
   10.7820  -18.0593   28.7344 O   0  0  0  0  0  0  0  0  0  0  0  0
   11.6613  -16.5751   27.2898 O   0  0  0  0  0  0  0  0  0  0  0  0
  2  3  2  0
  2  1  1  0
  4  2  1  0
  5  4  1  0
  5  7  1  0
  5  6  1  6
  7 13  1  0
  7  8  2  0
 10 11  1  1
 10  9  1  0
 12 10  1  0
 12 13  1  6
 14 12  1  0
 14 15  2  0
 16 14  1  0
 17 16  1  0
 17 18  1  6
 19 18  1  0
 20 19  2  0
 21 20  1  0
 22 21  1  0
 22 23  2  0
 23 19  1  0
 24 17  1  0
 25 24  1  0
 26 24  2  0
M  END
$$$$
