NVH.pdb
     RDKit          3D

 26 26  0  0  1  0  0  0  0  0999 V2000
    9.8757  -18.9422   14.7562 N   0  0  0  0  0  0  0  0  0  0  0  0
    8.9924  -17.9755   15.3182 C   0  0  0  0  0  0  0  0  0  0  0  0
    7.7752  -17.9666   14.9219 O   0  0  0  0  0  0  0  0  0  0  0  0
    9.4381  -17.0012   16.3303 C   0  0  0  0  0  0  0  0  0  0  0  0
    8.7950  -17.4034   17.6424 C   0  0  2  0  0  0  0  0  0  0  0  0
    7.3648  -17.2076   17.4536 N   0  0  0  0  0  0  0  0  0  0  0  0
    9.3112  -16.6041   18.7772 C   0  0  0  0  0  0  0  0  0  0  0  0
   10.5451  -16.5511   19.0073 O   0  0  0  0  0  0  0  0  0  0  0  0
    7.7739  -13.2042   19.8398 C   0  0  0  0  0  0  0  0  0  0  0  0
    8.0509  -13.9491   21.1307 C   0  0  1  0  0  0  0  0  0  0  0  0
    6.7122  -14.5109   21.5718 C   0  0  0  0  0  0  0  0  0  0  0  0
    8.9414  -15.1209   20.7820 C   0  0  2  0  0  0  0  0  0  0  0  0
    8.4641  -15.8685   19.6454 N   0  0  0  0  0  0  0  0  0  0  0  0
    9.2533  -15.9718   21.9428 C   0  0  0  0  0  0  0  0  0  0  0  0
    8.5340  -16.9141   22.3539 O   0  0  0  0  0  0  0  0  0  0  0  0
   10.4575  -15.7758   22.7233 N   0  0  0  0  0  0  0  0  0  0  0  0
   10.7813  -16.6615   23.8106 C   0  0  1  0  0  0  0  0  0  0  0  0
   12.0761  -17.3710   23.4010 C   0  0  0  0  0  0  0  0  0  0  0  0
   12.4817  -18.3825   24.3951 C   0  0  0  0  0  0  0  0  0  0  0  0
   11.6204  -19.0818   25.2037 C   0  0  0  0  0  0  0  0  0  0  0  0
   12.3314  -19.9300   26.0075 N   0  0  0  0  0  0  0  0  0  0  0  0
   13.6245  -19.7337   25.6729 C   0  0  0  0  0  0  0  0  0  0  0  0
   13.7154  -18.7958   24.6956 N   0  0  0  0  0  0  0  0  0  0  0  0
   10.9532  -15.9746   25.1113 C   0  0  0  0  0  0  0  0  0  0  0  0
   10.9392  -16.6789   26.2932 O   0  0  0  0  0  0  0  0  0  0  0  0
   11.1168  -14.7265   25.1889 O   0  0  0  0  0  0  0  0  0  0  0  0
  2  3  2  0
  2  1  1  0
  4  2  1  0
  5  4  1  0
  5  7  1  0
  5  6  1  6
  7 13  1  0
  7  8  2  0
 10 11  1  6
 10  9  1  0
 12 10  1  0
 12 13  1  6
 14 12  1  0
 14 15  2  0
 16 14  1  0
 17 16  1  0
 17 18  1  6
 19 18  1  0
 20 19  2  0
 21 20  1  0
 22 21  1  0
 22 23  2  0
 23 19  1  0
 24 17  1  0
 25 24  1  0
 26 24  2  0
M  END
$$$$
