NVH.pdb
     RDKit          3D

 26 26  0  0  1  0  0  0  0  0999 V2000
    9.4930  -18.0800   14.2191 N   0  0  0  0  0  0  0  0  0  0  0  0
    8.4248  -17.4260   14.8984 C   0  0  0  0  0  0  0  0  0  0  0  0
    7.2250  -17.7266   14.5686 O   0  0  0  0  0  0  0  0  0  0  0  0
    8.6631  -16.4281   15.9567 C   0  0  0  0  0  0  0  0  0  0  0  0
    8.5757  -17.1604   17.2807 C   0  0  2  0  0  0  0  0  0  0  0  0
    7.1568  -17.3988   17.5033 N   0  0  0  0  0  0  0  0  0  0  0  0
    9.1784  -16.3781   18.3842 C   0  0  0  0  0  0  0  0  0  0  0  0
   10.4248  -16.2377   18.4561 O   0  0  0  0  0  0  0  0  0  0  0  0
    7.8852  -13.0298   19.7990 C   0  0  0  0  0  0  0  0  0  0  0  0
    8.1321  -13.9129   21.0062 C   0  0  1  0  0  0  0  0  0  0  0  0
    6.7714  -14.4597   21.3957 C   0  0  0  0  0  0  0  0  0  0  0  0
    8.9714  -15.0798   20.5353 C   0  0  2  0  0  0  0  0  0  0  0  0
    8.4028  -15.7552   19.3956 N   0  0  0  0  0  0  0  0  0  0  0  0
    9.3419  -15.9986   21.6251 C   0  0  0  0  0  0  0  0  0  0  0  0
    8.6113  -16.9186   22.0655 O   0  0  0  0  0  0  0  0  0  0  0  0
   10.6239  -15.9036   22.2923 N   0  0  0  0  0  0  0  0  0  0  0  0
   10.9416  -16.7652   23.4007 C   0  0  1  0  0  0  0  0  0  0  0  0
   12.4450  -17.0419   23.2980 C   0  0  0  0  0  0  0  0  0  0  0  0
   12.7759  -17.8147   22.0859 C   0  0  0  0  0  0  0  0  0  0  0  0
   12.0092  -18.8264   21.5632 C   0  0  0  0  0  0  0  0  0  0  0  0
   12.6127  -19.3286   20.4432 N   0  0  0  0  0  0  0  0  0  0  0  0
   13.7458  -18.6089   20.2991 C   0  0  0  0  0  0  0  0  0  0  0  0
   13.8446  -17.6914   21.2948 N   0  0  0  0  0  0  0  0  0  0  0  0
   10.6077  -16.1875   24.7228 C   0  0  0  0  0  0  0  0  0  0  0  0
   10.8028  -16.9050   25.8805 O   0  0  0  0  0  0  0  0  0  0  0  0
   10.1336  -15.0249   24.8411 O   0  0  0  0  0  0  0  0  0  0  0  0
  2  3  2  0
  2  1  1  0
  4  2  1  0
  5  4  1  0
  5  7  1  0
  5  6  1  1
  7 13  1  0
  7  8  2  0
 10 11  1  6
 10  9  1  0
 12 10  1  0
 12 13  1  6
 14 12  1  0
 14 15  2  0
 16 14  1  0
 17 16  1  0
 17 18  1  1
 19 18  1  0
 20 19  2  0
 21 20  1  0
 22 21  1  0
 22 23  2  0
 23 19  1  0
 24 17  1  0
 25 24  1  0
 26 24  2  0
M  END
$$$$
