NVH.pdb
     RDKit          3D

 26 26  0  0  1  0  0  0  0  0999 V2000
    7.9851  -18.9938   15.7298 N   0  0  0  0  0  0  0  0  0  0  0  0
    9.3755  -18.8930   16.0252 C   0  0  0  0  0  0  0  0  0  0  0  0
   10.2089  -19.3788   15.1837 O   0  0  0  0  0  0  0  0  0  0  0  0
    9.8708  -18.2515   17.2563 C   0  0  0  0  0  0  0  0  0  0  0  0
    9.4287  -16.8027   17.2069 C   0  0  2  0  0  0  0  0  0  0  0  0
   10.1696  -16.2047   16.1054 N   0  0  0  0  0  0  0  0  0  0  0  0
    9.6900  -16.1027   18.4854 C   0  0  0  0  0  0  0  0  0  0  0  0
   10.8406  -16.1096   18.9897 O   0  0  0  0  0  0  0  0  0  0  0  0
    8.2048  -12.6761   19.4523 C   0  0  0  0  0  0  0  0  0  0  0  0
    8.0366  -13.5467   20.6819 C   0  0  1  0  0  0  0  0  0  0  0  0
    6.5884  -13.9993   20.6654 C   0  0  0  0  0  0  0  0  0  0  0  0
    8.8971  -14.7734   20.4755 C   0  0  2  0  0  0  0  0  0  0  0  0
    8.6826  -15.3991   19.1945 N   0  0  0  0  0  0  0  0  0  0  0  0
    8.8263  -15.7216   21.6001 C   0  0  0  0  0  0  0  0  0  0  0  0
    8.0533  -16.7084   21.6571 O   0  0  0  0  0  0  0  0  0  0  0  0
    9.6748  -15.5791   22.7650 N   0  0  0  0  0  0  0  0  0  0  0  0
   10.1789  -16.7380   23.4539 C   0  0  1  0  0  0  0  0  0  0  0  0
   10.9791  -17.5282   22.4133 C   0  0  0  0  0  0  0  0  0  0  0  0
   11.5725  -18.7480   22.9928 C   0  0  0  0  0  0  0  0  0  0  0  0
   11.4301  -19.1498   24.2978 C   0  0  0  0  0  0  0  0  0  0  0  0
   12.1144  -20.3173   24.4964 N   0  0  0  0  0  0  0  0  0  0  0  0
   12.6664  -20.6117   23.3000 C   0  0  0  0  0  0  0  0  0  0  0  0
   12.3379  -19.6604   22.3889 N   0  0  0  0  0  0  0  0  0  0  0  0
   11.0244  -16.4167   24.6265 C   0  0  0  0  0  0  0  0  0  0  0  0
   11.3314  -15.1137   24.9445 O   0  0  0  0  0  0  0  0  0  0  0  0
   11.4951  -17.3162   25.3747 O   0  0  0  0  0  0  0  0  0  0  0  0
  2  3  2  0
  2  1  1  0
  4  2  1  0
  5  4  1  0
  5  7  1  0
  5  6  1  6
  7 13  1  0
  7  8  2  0
 10 11  1  6
 10  9  1  0
 12 10  1  0
 12 13  1  6
 14 12  1  0
 14 15  2  0
 16 14  1  0
 17 16  1  0
 17 18  1  6
 19 18  1  0
 20 19  2  0
 21 20  1  0
 22 21  1  0
 22 23  2  0
 23 19  1  0
 24 17  1  0
 25 24  1  0
 26 24  2  0
M  END
$$$$
