NVH.pdb
     RDKit          3D

 26 26  0  0  1  0  0  0  0  0999 V2000
    5.9170  -17.6800   19.9054 N   0  0  0  0  0  0  0  0  0  0  0  0
    7.1884  -17.6962   20.5486 C   0  0  0  0  0  0  0  0  0  0  0  0
    8.2006  -18.0990   19.8764 O   0  0  0  0  0  0  0  0  0  0  0  0
    7.3649  -17.2656   21.9472 C   0  0  0  0  0  0  0  0  0  0  0  0
    7.7233  -15.7935   21.9132 C   0  0  2  0  0  0  0  0  0  0  0  0
    8.7115  -15.6555   20.8530 N   0  0  0  0  0  0  0  0  0  0  0  0
    8.2492  -15.3240   23.2155 C   0  0  0  0  0  0  0  0  0  0  0  0
    9.4207  -15.6101   23.5677 O   0  0  0  0  0  0  0  0  0  0  0  0
    7.4880  -11.8422   24.6685 C   0  0  0  0  0  0  0  0  0  0  0  0
    7.3650  -12.7917   25.8439 C   0  0  1  0  0  0  0  0  0  0  0  0
    5.8757  -13.0040   26.0416 C   0  0  0  0  0  0  0  0  0  0  0  0
    7.9571  -14.1134   25.4075 C   0  0  2  0  0  0  0  0  0  0  0  0
    7.4813  -14.5412   24.1156 N   0  0  0  0  0  0  0  0  0  0  0  0
    7.8493  -15.1601   26.4379 C   0  0  0  0  0  0  0  0  0  0  0  0
    6.7914  -15.7653   26.7359 O   0  0  0  0  0  0  0  0  0  0  0  0
    8.9989  -15.5827   27.2108 N   0  0  0  0  0  0  0  0  0  0  0  0
    9.0806  -16.9205   27.7357 C   0  0  1  0  0  0  0  0  0  0  0  0
    8.9976  -17.8519   26.5221 C   0  0  0  0  0  0  0  0  0  0  0  0
    9.1459  -19.2674   26.9098 C   0  0  0  0  0  0  0  0  0  0  0  0
    9.4105  -19.7122   28.1813 C   0  0  0  0  0  0  0  0  0  0  0  0
    9.4899  -21.0777   28.1832 N   0  0  0  0  0  0  0  0  0  0  0  0
    9.2696  -21.4467   26.9034 C   0  0  0  0  0  0  0  0  0  0  0  0
    9.0611  -20.3493   26.1317 N   0  0  0  0  0  0  0  0  0  0  0  0
   10.3142  -17.1848   28.5113 C   0  0  0  0  0  0  0  0  0  0  0  0
   11.4322  -16.3978   28.3566 O   0  0  0  0  0  0  0  0  0  0  0  0
   10.3908  -18.1346   29.3374 O   0  0  0  0  0  0  0  0  0  0  0  0
  2  3  2  0
  2  1  1  0
  4  2  1  0
  5  4  1  0
  5  7  1  0
  5  6  1  6
  7 13  1  0
  7  8  2  0
 10 11  1  6
 10  9  1  0
 12 10  1  0
 12 13  1  6
 14 12  1  0
 14 15  2  0
 16 14  1  0
 17 16  1  0
 17 18  1  6
 19 18  1  0
 20 19  2  0
 21 20  1  0
 22 21  1  0
 22 23  2  0
 23 19  1  0
 24 17  1  0
 25 24  1  0
 26 24  2  0
M  END
$$$$
