NVH.pdb
     RDKit          3D

 26 26  0  0  1  0  0  0  0  0999 V2000
    8.5957  -22.4016   20.5961 N   0  0  0  0  0  0  0  0  0  0  0  0
    7.9545  -21.1884   20.9798 C   0  0  0  0  0  0  0  0  0  0  0  0
    6.6851  -21.1044   20.8371 O   0  0  0  0  0  0  0  0  0  0  0  0
    8.7047  -20.0453   21.5303 C   0  0  0  0  0  0  0  0  0  0  0  0
    8.1094  -18.7924   20.9199 C   0  0  2  0  0  0  0  0  0  0  0  0
    8.1455  -19.0033   19.4798 N   0  0  0  0  0  0  0  0  0  0  0  0
    8.8591  -17.5776   21.3137 C   0  0  0  0  0  0  0  0  0  0  0  0
   10.0276  -17.3882   20.8930 O   0  0  0  0  0  0  0  0  0  0  0  0
    7.2250  -14.1390   21.3388 C   0  0  0  0  0  0  0  0  0  0  0  0
    8.0509  -14.1745   22.6095 C   0  0  1  0  0  0  0  0  0  0  0  0
    7.0699  -14.4867   23.7242 C   0  0  0  0  0  0  0  0  0  0  0  0
    8.9924  -15.3525   22.4914 C   0  0  2  0  0  0  0  0  0  0  0  0
    8.3136  -16.5815   22.1639 N   0  0  0  0  0  0  0  0  0  0  0  0
    9.8980  -15.4830   23.6453 C   0  0  0  0  0  0  0  0  0  0  0  0
   10.6645  -14.5801   24.0598 O   0  0  0  0  0  0  0  0  0  0  0  0
    9.9727  -16.7080   24.4143 N   0  0  0  0  0  0  0  0  0  0  0  0
   10.8698  -16.8196   25.5343 C   0  0  1  0  0  0  0  0  0  0  0  0
    9.9866  -16.7643   26.7850 C   0  0  0  0  0  0  0  0  0  0  0  0
    9.7874  -15.3791   27.2513 C   0  0  0  0  0  0  0  0  0  0  0  0
    9.9313  -14.2576   26.4726 C   0  0  0  0  0  0  0  0  0  0  0  0
    9.6790  -13.1420   27.2227 N   0  0  0  0  0  0  0  0  0  0  0  0
    9.3818  -13.6045   28.4557 C   0  0  0  0  0  0  0  0  0  0  0  0
    9.4476  -14.9604   28.4729 N   0  0  0  0  0  0  0  0  0  0  0  0
   11.6853  -18.0558   25.5272 C   0  0  0  0  0  0  0  0  0  0  0  0
   12.6709  -18.2613   26.4650 O   0  0  0  0  0  0  0  0  0  0  0  0
   11.5125  -18.9627   24.6680 O   0  0  0  0  0  0  0  0  0  0  0  0
  2  3  2  0
  2  1  1  0
  4  2  1  0
  5  4  1  0
  5  7  1  0
  5  6  1  6
  7 13  1  0
  7  8  2  0
 10 11  1  1
 10  9  1  0
 12 10  1  0
 12 13  1  1
 14 12  1  0
 14 15  2  0
 16 14  1  0
 17 16  1  0
 17 18  1  1
 19 18  1  0
 20 19  2  0
 21 20  1  0
 22 21  1  0
 22 23  2  0
 23 19  1  0
 24 17  1  0
 25 24  1  0
 26 24  2  0
M  END
$$$$
