NVH.pdb
     RDKit          3D

 26 26  0  0  1  0  0  0  0  0999 V2000
    8.7022  -16.9160   13.6644 N   0  0  0  0  0  0  0  0  0  0  0  0
    9.6906  -16.7673   14.6800 C   0  0  0  0  0  0  0  0  0  0  0  0
   10.7907  -17.4091   14.5512 O   0  0  0  0  0  0  0  0  0  0  0  0
    9.4818  -15.9046   15.8567 C   0  0  0  0  0  0  0  0  0  0  0  0
    9.4354  -16.8147   17.0677 C   0  0  2  0  0  0  0  0  0  0  0  0
    8.1642  -17.5188   16.9798 N   0  0  0  0  0  0  0  0  0  0  0  0
    9.5534  -16.0549   18.3332 C   0  0  0  0  0  0  0  0  0  0  0  0
   10.6824  -15.7146   18.7668 O   0  0  0  0  0  0  0  0  0  0  0  0
    7.6614  -13.5078   22.0501 C   0  0  0  0  0  0  0  0  0  0  0  0
    7.2969  -14.3078   20.8151 C   0  0  1  0  0  0  0  0  0  0  0  0
    7.0596  -13.2830   19.7215 C   0  0  0  0  0  0  0  0  0  0  0  0
    8.5218  -15.1069   20.4291 C   0  0  2  0  0  0  0  0  0  0  0  0
    8.4271  -15.6742   19.1072 N   0  0  0  0  0  0  0  0  0  0  0  0
    8.9128  -16.0907   21.4529 C   0  0  0  0  0  0  0  0  0  0  0  0
    9.1861  -17.2935   21.2227 O   0  0  0  0  0  0  0  0  0  0  0  0
    9.0142  -15.7283   22.8514 N   0  0  0  0  0  0  0  0  0  0  0  0
   10.0992  -16.2173   23.6610 C   0  0  1  0  0  0  0  0  0  0  0  0
   11.3805  -15.6935   23.0041 C   0  0  0  0  0  0  0  0  0  0  0  0
   12.1619  -16.7823   22.3878 C   0  0  0  0  0  0  0  0  0  0  0  0
   11.7944  -18.1049   22.3735 C   0  0  0  0  0  0  0  0  0  0  0  0
   12.7494  -18.8402   21.7268 N   0  0  0  0  0  0  0  0  0  0  0  0
   13.6906  -17.9472   21.3532 C   0  0  0  0  0  0  0  0  0  0  0  0
   13.3343  -16.7000   21.7540 N   0  0  0  0  0  0  0  0  0  0  0  0
   10.0286  -15.7908   25.0774 C   0  0  0  0  0  0  0  0  0  0  0  0
   10.5896  -16.5523   26.0767 O   0  0  0  0  0  0  0  0  0  0  0  0
    9.4553  -14.7221   25.4234 O   0  0  0  0  0  0  0  0  0  0  0  0
  2  3  2  0
  2  1  1  0
  4  2  1  0
  5  4  1  0
  5  7  1  0
  5  6  1  1
  7 13  1  0
  7  8  2  0
 10 11  1  6
 10  9  1  0
 12 10  1  0
 12 13  1  6
 14 12  1  0
 14 15  2  0
 16 14  1  0
 17 16  1  0
 17 18  1  6
 19 18  1  0
 20 19  2  0
 21 20  1  0
 22 21  1  0
 22 23  2  0
 23 19  1  0
 24 17  1  0
 25 24  1  0
 26 24  2  0
M  END
$$$$
