QNP.pdb
     RDKit          3D

 25 25  0  0  1  0  0  0  0  0999 V2000
    7.8715  -12.3592   17.6654 N   0  0  0  0  0  0  0  0  0  0  0  0
    8.4640  -13.6557   17.4730 C   0  0  0  0  0  0  0  0  0  0  0  0
    8.2930  -14.2396   16.3716 O   0  0  0  0  0  0  0  0  0  0  0  0
    9.2489  -14.2460   18.5753 C   0  0  0  0  0  0  0  0  0  0  0  0
    8.4314  -14.3744   19.8113 C   0  0  0  0  0  0  0  0  0  0  0  0
    8.3451  -15.7740   20.3703 C   0  0  2  0  0  0  0  0  0  0  0  0
    7.4096  -16.4870   19.4852 N   0  0  0  0  0  0  0  0  0  0  0  0
    7.7174  -15.7811   21.7197 C   0  0  0  0  0  0  0  0  0  0  0  0
    6.4678  -15.6238   21.8799 O   0  0  0  0  0  0  0  0  0  0  0  0
    5.8399  -17.6691   26.3075 N   0  0  0  0  0  0  0  0  0  0  0  0
    7.2231  -17.6509   26.0318 C   0  0  0  0  0  0  0  0  0  0  0  0
    8.1264  -17.7225   26.8930 O   0  0  0  0  0  0  0  0  0  0  0  0
    7.6425  -17.5354   24.5823 C   0  0  0  0  0  0  0  0  0  0  0  0
    7.8481  -16.0775   24.2377 C   0  0  2  0  0  0  0  0  0  0  0  0
    8.4651  -15.9629   22.9095 N   0  0  0  0  0  0  0  0  0  0  0  0
    8.5973  -15.3136   25.2322 C   0  0  0  0  0  0  0  0  0  0  0  0
    9.7981  -15.7063   25.4466 O   0  0  0  0  0  0  0  0  0  0  0  0
    8.1476  -14.1972   25.9781 N   0  0  0  0  0  0  0  0  0  0  0  0
    6.8245  -13.6142   25.6592 C   0  0  0  0  0  0  0  0  0  0  0  0
    6.3687  -13.0665   26.9816 C   0  0  0  0  0  0  0  0  0  0  0  0
    7.6532  -12.3284   27.3878 C   0  0  0  0  0  0  0  0  0  0  0  0
    8.7057  -13.4208   27.0312 C   0  0  1  0  0  0  0  0  0  0  0  0
    9.0184  -14.1706   28.2700 C   0  0  0  0  0  0  0  0  0  0  0  0
    8.5318  -15.4465   28.4655 O   0  0  0  0  0  0  0  0  0  0  0  0
    9.7248  -13.6541   29.1481 O   0  0  0  0  0  0  0  0  0  0  0  0
  2  1  1  0
  2  3  2  0
  4  2  1  0
  5  4  1  0
  6  5  1  0
  6  7  1  6
  8  6  1  0
  8 15  1  0
  9  8  2  0
 11 10  1  0
 11 13  1  0
 12 11  2  0
 14 13  1  1
 14 15  1  0
 16 14  1  0
 17 16  2  0
 18 16  1  0
 18 22  1  0
 19 20  1  0
 19 18  1  0
 20 21  1  0
 22 21  1  0
 23 24  1  0
 22 23  1  1
 25 23  2  0
M  END
$$$$
