QNP.pdb
     RDKit          3D

 25 25  0  0  1  0  0  0  0  0999 V2000
    8.9343  -12.6415   18.2097 N   0  0  0  0  0  0  0  0  0  0  0  0
    9.9894  -13.0240   19.1095 C   0  0  0  0  0  0  0  0  0  0  0  0
   10.9950  -12.2748   19.2131 O   0  0  0  0  0  0  0  0  0  0  0  0
    9.8474  -14.2787   19.8744 C   0  0  0  0  0  0  0  0  0  0  0  0
    8.5625  -14.9592   19.5608 C   0  0  0  0  0  0  0  0  0  0  0  0
    8.2919  -16.2043   20.3705 C   0  0  2  0  0  0  0  0  0  0  0  0
    7.2433  -16.9261   19.6313 N   0  0  0  0  0  0  0  0  0  0  0  0
    7.7026  -15.8716   21.6961 C   0  0  0  0  0  0  0  0  0  0  0  0
    6.7364  -15.0567   21.8159 O   0  0  0  0  0  0  0  0  0  0  0  0
    6.5787  -19.1742   23.2090 N   0  0  0  0  0  0  0  0  0  0  0  0
    6.1070  -18.0529   23.9231 C   0  0  0  0  0  0  0  0  0  0  0  0
    4.9538  -17.5790   23.8326 O   0  0  0  0  0  0  0  0  0  0  0  0
    7.0728  -17.3738   24.8697 C   0  0  0  0  0  0  0  0  0  0  0  0
    7.6047  -16.1156   24.2211 C   0  0  2  0  0  0  0  0  0  0  0  0
    8.1752  -16.4371   22.9062 N   0  0  0  0  0  0  0  0  0  0  0  0
    8.5548  -15.3621   25.0356 C   0  0  0  0  0  0  0  0  0  0  0  0
    9.7725  -15.7575   24.9788 O   0  0  0  0  0  0  0  0  0  0  0  0
    8.2817  -14.2533   25.8727 N   0  0  0  0  0  0  0  0  0  0  0  0
    6.9901  -13.5460   25.7184 C   0  0  0  0  0  0  0  0  0  0  0  0
    6.7179  -13.0332   27.1038 C   0  0  0  0  0  0  0  0  0  0  0  0
    8.0965  -12.4272   27.4074 C   0  0  0  0  0  0  0  0  0  0  0  0
    9.0078  -13.5830   26.8958 C   0  0  1  0  0  0  0  0  0  0  0  0
    9.3745  -14.4209   28.0612 C   0  0  0  0  0  0  0  0  0  0  0  0
   10.3934  -14.0427   28.9106 O   0  0  0  0  0  0  0  0  0  0  0  0
    8.7650  -15.4771   28.2843 O   0  0  0  0  0  0  0  0  0  0  0  0
  2  1  1  0
  2  3  2  0
  4  2  1  0
  5  4  1  0
  6  5  1  0
  6  7  1  6
  8  6  1  0
  8 15  1  0
  9  8  2  0
 11 10  1  0
 11 13  1  0
 12 11  2  0
 14 13  1  1
 14 15  1  0
 16 14  1  0
 17 16  2  0
 18 16  1  0
 18 22  1  0
 19 20  1  0
 19 18  1  0
 20 21  1  0
 22 21  1  0
 23 24  1  0
 22 23  1  1
 25 23  2  0
M  END
$$$$
