QNP.pdb
     RDKit          3D

 25 25  0  0  1  0  0  0  0  0999 V2000
    8.8307  -13.5358   16.5333 N   0  0  0  0  0  0  0  0  0  0  0  0
    7.8697  -14.4005   17.1639 C   0  0  0  0  0  0  0  0  0  0  0  0
    7.3086  -15.2868   16.4690 O   0  0  0  0  0  0  0  0  0  0  0  0
    7.5832  -14.2126   18.5999 C   0  0  0  0  0  0  0  0  0  0  0  0
    8.3916  -13.1020   19.1705 C   0  0  0  0  0  0  0  0  0  0  0  0
    9.2025  -13.4711   20.3892 C   0  0  2  0  0  0  0  0  0  0  0  0
    9.8655  -14.7391   20.0432 N   0  0  0  0  0  0  0  0  0  0  0  0
    8.3253  -13.7725   21.5531 C   0  0  0  0  0  0  0  0  0  0  0  0
    7.5122  -12.9168   22.0206 O   0  0  0  0  0  0  0  0  0  0  0  0
    7.1607  -17.9933   25.6020 N   0  0  0  0  0  0  0  0  0  0  0  0
    6.4915  -17.0527   24.7914 C   0  0  0  0  0  0  0  0  0  0  0  0
    5.4323  -16.4651   25.1007 O   0  0  0  0  0  0  0  0  0  0  0  0
    7.1045  -16.7328   23.4453 C   0  0  0  0  0  0  0  0  0  0  0  0
    7.5734  -15.2952   23.4402 C   0  0  2  0  0  0  0  0  0  0  0  0
    8.3366  -15.0256   22.2144 N   0  0  0  0  0  0  0  0  0  0  0  0
    8.3256  -14.8930   24.6261 C   0  0  0  0  0  0  0  0  0  0  0  0
    9.4419  -15.4954   24.8078 O   0  0  0  0  0  0  0  0  0  0  0  0
    7.9612  -13.9195   25.5876 N   0  0  0  0  0  0  0  0  0  0  0  0
    6.7949  -13.0497   25.3133 C   0  0  0  0  0  0  0  0  0  0  0  0
    6.2637  -12.7533   26.6867 C   0  0  0  0  0  0  0  0  0  0  0  0
    7.5839  -12.3743   27.3747 C   0  0  0  0  0  0  0  0  0  0  0  0
    8.4929  -13.5243   26.8463 C   0  0  1  0  0  0  0  0  0  0  0  0
    8.5263  -14.5865   27.8784 C   0  0  0  0  0  0  0  0  0  0  0  0
    9.3472  -14.4743   28.9813 O   0  0  0  0  0  0  0  0  0  0  0  0
    7.8122  -15.5927   27.7587 O   0  0  0  0  0  0  0  0  0  0  0  0
  2  1  1  0
  2  3  2  0
  4  2  1  0
  5  4  1  0
  6  5  1  0
  6  7  1  6
  8  6  1  0
  8 15  1  0
  9  8  2  0
 11 10  1  0
 11 13  1  0
 12 11  2  0
 14 13  1  1
 14 15  1  0
 16 14  1  0
 17 16  2  0
 18 16  1  0
 18 22  1  0
 19 20  1  0
 19 18  1  0
 20 21  1  0
 22 21  1  0
 23 24  1  0
 22 23  1  1
 25 23  2  0
M  END
$$$$
