QNP.pdb
     RDKit          3D

 25 25  0  0  1  0  0  0  0  0999 V2000
   13.1869  -14.2970   20.1861 N   0  0  0  0  0  0  0  0  0  0  0  0
   12.9283  -14.6029   18.8045 C   0  0  0  0  0  0  0  0  0  0  0  0
   13.8457  -15.1266   18.1208 O   0  0  0  0  0  0  0  0  0  0  0  0
   11.5972  -14.2907   18.2474 C   0  0  0  0  0  0  0  0  0  0  0  0
   10.6308  -13.9414   19.3227 C   0  0  0  0  0  0  0  0  0  0  0  0
   10.2129  -15.0982   20.1981 C   0  0  2  0  0  0  0  0  0  0  0  0
    9.5000  -16.0233   19.3021 N   0  0  0  0  0  0  0  0  0  0  0  0
    9.2193  -14.6726   21.2212 C   0  0  0  0  0  0  0  0  0  0  0  0
    9.0064  -13.4484   21.4820 O   0  0  0  0  0  0  0  0  0  0  0  0
    5.2703  -15.6124   21.1869 N   0  0  0  0  0  0  0  0  0  0  0  0
    5.9077  -16.6294   21.9278 C   0  0  0  0  0  0  0  0  0  0  0  0
    6.0252  -17.8181   21.5591 O   0  0  0  0  0  0  0  0  0  0  0  0
    6.4924  -16.2499   23.2710 C   0  0  0  0  0  0  0  0  0  0  0  0
    7.5615  -15.1994   23.0702 C   0  0  2  0  0  0  0  0  0  0  0  0
    8.4482  -15.5969   21.9686 N   0  0  0  0  0  0  0  0  0  0  0  0
    8.3286  -14.8704   24.2691 C   0  0  0  0  0  0  0  0  0  0  0  0
    9.3186  -15.6426   24.5255 O   0  0  0  0  0  0  0  0  0  0  0  0
    8.1017  -13.8022   25.1702 N   0  0  0  0  0  0  0  0  0  0  0  0
    7.1345  -12.7463   24.7935 C   0  0  0  0  0  0  0  0  0  0  0  0
    6.5956  -12.2925   26.1202 C   0  0  0  0  0  0  0  0  0  0  0  0
    7.9247  -12.1312   26.8733 C   0  0  0  0  0  0  0  0  0  0  0  0
    8.6300  -13.4526   26.4438 C   0  0  1  0  0  0  0  0  0  0  0  0
    8.4095  -14.4528   27.5142 C   0  0  0  0  0  0  0  0  0  0  0  0
    9.2124  -14.4761   28.6355 O   0  0  0  0  0  0  0  0  0  0  0  0
    7.4954  -15.2837   27.4103 O   0  0  0  0  0  0  0  0  0  0  0  0
  2  1  1  0
  2  3  2  0
  4  2  1  0
  5  4  1  0
  6  5  1  0
  6  7  1  6
  8  6  1  0
  8 15  1  0
  9  8  2  0
 11 10  1  0
 11 13  1  0
 12 11  2  0
 14 13  1  1
 14 15  1  0
 16 14  1  0
 17 16  2  0
 18 16  1  0
 18 22  1  0
 19 20  1  0
 19 18  1  0
 20 21  1  0
 22 21  1  0
 23 24  1  0
 22 23  1  1
 25 23  2  0
M  END
$$$$
