QNP.pdb
     RDKit          3D

 25 25  0  0  1  0  0  0  0  0999 V2000
    8.9401  -13.0206   18.2050 N   0  0  0  0  0  0  0  0  0  0  0  0
    9.1371  -12.7382   19.6016 C   0  0  0  0  0  0  0  0  0  0  0  0
   10.1265  -12.0393   19.9420 O   0  0  0  0  0  0  0  0  0  0  0  0
    8.1694  -13.2791   20.5767 C   0  0  0  0  0  0  0  0  0  0  0  0
    7.2025  -14.2009   19.9226 C   0  0  0  0  0  0  0  0  0  0  0  0
    7.2692  -15.6311   20.4010 C   0  0  2  0  0  0  0  0  0  0  0  0
    6.2045  -16.3345   19.6670 N   0  0  0  0  0  0  0  0  0  0  0  0
    6.9119  -15.7380   21.8419 C   0  0  0  0  0  0  0  0  0  0  0  0
    5.7572  -15.4320   22.2719 O   0  0  0  0  0  0  0  0  0  0  0  0
    6.8800  -16.7467   26.8096 N   0  0  0  0  0  0  0  0  0  0  0  0
    6.8441  -17.9167   26.0226 C   0  0  0  0  0  0  0  0  0  0  0  0
    6.5845  -19.0616   26.4523 O   0  0  0  0  0  0  0  0  0  0  0  0
    7.1435  -17.7721   24.5463 C   0  0  0  0  0  0  0  0  0  0  0  0
    7.4788  -16.3286   24.2449 C   0  0  2  0  0  0  0  0  0  0  0  0
    7.8285  -16.1855   22.8254 N   0  0  0  0  0  0  0  0  0  0  0  0
    8.5109  -15.7489   25.1009 C   0  0  0  0  0  0  0  0  0  0  0  0
    9.6371  -16.3603   25.1067 O   0  0  0  0  0  0  0  0  0  0  0  0
    8.4056  -14.5964   25.9166 N   0  0  0  0  0  0  0  0  0  0  0  0
    7.1817  -13.7682   25.8242 C   0  0  0  0  0  0  0  0  0  0  0  0
    7.0569  -13.1941   27.2066 C   0  0  0  0  0  0  0  0  0  0  0  0
    8.5057  -12.7207   27.3984 C   0  0  0  0  0  0  0  0  0  0  0  0
    9.2624  -13.9748   26.8668 C   0  0  1  0  0  0  0  0  0  0  0  0
    9.6248  -14.8138   28.0328 C   0  0  0  0  0  0  0  0  0  0  0  0
   10.6609  -14.4521   28.8686 O   0  0  0  0  0  0  0  0  0  0  0  0
    8.9959  -15.8557   28.2689 O   0  0  0  0  0  0  0  0  0  0  0  0
  2  1  1  0
  2  3  2  0
  4  2  1  0
  5  4  1  0
  6  5  1  0
  6  7  1  6
  8  6  1  0
  8 15  1  0
  9  8  2  0
 11 10  1  0
 11 13  1  0
 12 11  2  0
 14 13  1  1
 14 15  1  0
 16 14  1  0
 17 16  2  0
 18 16  1  0
 18 22  1  0
 19 20  1  0
 19 18  1  0
 20 21  1  0
 22 21  1  0
 23 24  1  0
 22 23  1  1
 25 23  2  0
M  END
$$$$
