MLC.pdb
     RDKit          3D

 23 22  0  0  1  0  0  0  0  0999 V2000
    7.6876  -11.5385   19.1552 C   0  0  0  0  0  0  0  0  0  0  0  0
    7.7445  -13.1153   18.2748 S   0  0  0  0  0  0  0  0  0  0  0  0
    7.7354  -14.5230   19.4225 C   0  0  0  0  0  0  0  0  0  0  0  0
    8.6934  -14.2975   20.5717 C   0  0  0  0  0  0  0  0  0  0  0  0
    8.7385  -15.5276   21.4765 C   0  0  2  0  0  0  0  0  0  0  0  0
    7.3798  -16.0412   21.6419 N   0  0  0  0  0  0  0  0  0  0  0  0
    9.2316  -15.2198   22.8292 C   0  0  0  0  0  0  0  0  0  0  0  0
   10.3927  -14.8355   23.0984 O   0  0  0  0  0  0  0  0  0  0  0  0
    5.6765  -13.2864   26.6905 C   0  0  0  0  0  0  0  0  0  0  0  0
    6.9398  -13.4469   25.8971 C   0  0  1  0  0  0  0  0  0  0  0  0
    7.7672  -12.1811   26.0815 C   0  0  0  0  0  0  0  0  0  0  0  0
    7.7231  -14.6711   26.2850 C   0  0  0  0  0  0  0  0  0  0  0  0
    8.7384  -15.0788   25.2911 C   0  0  2  0  0  0  0  0  0  0  0  0
    8.3376  -15.3531   23.9677 N   0  0  0  0  0  0  0  0  0  0  0  0
    9.7748  -16.0131   25.7710 C   0  0  0  0  0  0  0  0  0  0  0  0
   10.7331  -16.3395   25.0237 O   0  0  0  0  0  0  0  0  0  0  0  0
    9.7131  -16.5629   27.0643 N   0  0  0  0  0  0  0  0  0  0  0  0
   10.9487  -16.9254   27.7483 C   0  0  1  0  0  0  0  0  0  0  0  0
   11.7604  -15.7172   28.0802 C   0  0  0  0  0  0  0  0  0  0  0  0
   10.9516  -14.7571   29.3844 S   0  0  0  0  0  0  0  0  0  0  0  0
   10.6856  -17.6776   29.0017 C   0  0  0  0  0  0  0  0  0  0  0  0
    9.4820  -17.7981   29.3413 O   0  0  0  0  0  0  0  0  0  0  0  0
   11.7171  -18.2252   29.7679 O   0  0  0  0  0  0  0  0  0  0  0  0
  2  1  1  0
  3  2  1  0
  4  3  1  0
  5  4  1  0
  5  7  1  0
  5  6  1  1
  7 14  1  0
  7  8  2  0
 10  9  1  1
 10 11  1  0
 12 10  1  0
 13 12  1  1
 14 13  1  0
 15 13  1  0
 15 17  1  0
 16 15  2  0
 18 21  1  0
 18 19  1  1
 18 17  1  0
 20 19  1  0
 21 23  1  0
 22 21  2  0
M  END
$$$$
