HCL.pdb
     RDKit          3D

 25 25  0  0  1  0  0  0  0  0999 V2000
    9.2865  -16.4176   18.9253 N   0  0  0  0  0  0  0  0  0  0  0  0
    8.2511  -15.5217   19.3635 C   0  0  1  0  0  0  0  0  0  0  0  0
    7.1456  -15.5680   18.3258 C   0  0  0  0  0  0  0  0  0  0  0  0
    7.6087  -14.8233   17.1392 C   0  0  0  0  0  0  0  0  0  0  0  0
    8.2818  -13.6270   17.0945 C   0  0  0  0  0  0  0  0  0  0  0  0
    8.5041  -13.3190   15.7834 N   0  0  0  0  0  0  0  0  0  0  0  0
    7.9821  -14.2996   15.0324 C   0  0  0  0  0  0  0  0  0  0  0  0
    7.4393  -15.2107   15.8663 N   0  0  0  0  0  0  0  0  0  0  0  0
    7.7649  -15.9225   20.7044 C   0  0  0  0  0  0  0  0  0  0  0  0
    6.6561  -16.5031   20.7971 O   0  0  0  0  0  0  0  0  0  0  0  0
    8.4922  -15.6822   21.8926 N   0  0  0  0  0  0  0  0  0  0  0  0
    8.0014  -16.1560   23.1403 C   0  0  1  0  0  0  0  0  0  0  0  0
    7.9994  -17.6800   23.2268 C   0  0  0  0  0  0  0  0  0  0  0  0
    9.6786  -18.3239   23.3589 S   0  0  0  0  0  0  0  0  0  0  0  0
    8.7523  -15.5715   24.2935 C   0  0  0  0  0  0  0  0  0  0  0  0
    9.9961  -15.3910   24.2458 O   0  0  0  0  0  0  0  0  0  0  0  0
    5.9067  -12.0590   27.0271 C   0  0  0  0  0  0  0  0  0  0  0  0
    6.9879  -12.8139   26.3197 C   0  0  1  0  0  0  0  0  0  0  0  0
    7.9090  -11.7683   25.6731 C   0  0  0  0  0  0  0  0  0  0  0  0
    7.8404  -13.6107   27.2436 C   0  0  0  0  0  0  0  0  0  0  0  0
    8.8272  -14.5271   26.5915 C   0  0  2  0  0  0  0  0  0  0  0  0
    8.1021  -15.1906   25.4999 N   0  0  0  0  0  0  0  0  0  0  0  0
    9.4385  -15.5041   27.5000 C   0  0  0  0  0  0  0  0  0  0  0  0
    9.1910  -16.7362   27.4667 O   0  0  0  0  0  0  0  0  0  0  0  0
   10.3433  -15.0763   28.4592 O   0  0  0  0  0  0  0  0  0  0  0  0
  2  1  1  6
  3  2  1  0
  3  4  1  0
  4  8  1  0
  5  4  2  0
  5  6  1  0
  6  7  1  0
  8  7  2  0
  9  2  1  0
  9 10  2  0
 11  9  1  0
 12 11  1  0
 12 15  1  0
 12 13  1  6
 14 13  1  0
 15 22  1  0
 16 15  2  0
 18 17  1  1
 18 19  1  0
 20 18  1  0
 21 20  1  1
 22 21  1  0
 23 25  1  0
 23 21  1  0
 24 23  2  0
M  END
$$$$
