HCL.pdb
     RDKit          3D

 25 25  0  0  1  0  0  0  0  0999 V2000
    7.8028  -17.0557   19.3039 N   0  0  0  0  0  0  0  0  0  0  0  0
    7.8470  -15.8555   20.0942 C   0  0  1  0  0  0  0  0  0  0  0  0
    6.9639  -14.8307   19.4077 C   0  0  0  0  0  0  0  0  0  0  0  0
    7.6681  -14.3664   18.1972 C   0  0  0  0  0  0  0  0  0  0  0  0
    8.6672  -13.4289   18.1005 C   0  0  0  0  0  0  0  0  0  0  0  0
    9.0163  -13.3213   16.7853 N   0  0  0  0  0  0  0  0  0  0  0  0
    8.2531  -14.1708   16.0825 C   0  0  0  0  0  0  0  0  0  0  0  0
    7.4357  -14.8024   16.9502 N   0  0  0  0  0  0  0  0  0  0  0  0
    7.3915  -16.1382   21.4753 C   0  0  0  0  0  0  0  0  0  0  0  0
    6.1616  -16.2604   21.6934 O   0  0  0  0  0  0  0  0  0  0  0  0
    8.2787  -16.2783   22.5670 N   0  0  0  0  0  0  0  0  0  0  0  0
    7.7761  -16.5726   23.8643 C   0  0  1  0  0  0  0  0  0  0  0  0
    7.7295  -18.0721   24.1467 C   0  0  0  0  0  0  0  0  0  0  0  0
    7.3347  -18.3939   25.8765 S   0  0  0  0  0  0  0  0  0  0  0  0
    8.5455  -15.8665   24.9342 C   0  0  0  0  0  0  0  0  0  0  0  0
    9.8031  -15.8576   24.9441 O   0  0  0  0  0  0  0  0  0  0  0  0
    5.7189  -11.9911   27.3615 C   0  0  0  0  0  0  0  0  0  0  0  0
    6.8161  -12.7466   26.6797 C   0  0  1  0  0  0  0  0  0  0  0  0
    7.7004  -11.7062   25.9759 C   0  0  0  0  0  0  0  0  0  0  0  0
    7.6994  -13.4738   27.6315 C   0  0  0  0  0  0  0  0  0  0  0  0
    8.6589  -14.4441   27.0178 C   0  0  2  0  0  0  0  0  0  0  0  0
    7.8982  -15.1706   25.9925 N   0  0  0  0  0  0  0  0  0  0  0  0
    9.2837  -15.3652   27.9743 C   0  0  0  0  0  0  0  0  0  0  0  0
    9.0187  -16.5926   28.0342 O   0  0  0  0  0  0  0  0  0  0  0  0
   10.2225  -14.8861   28.8747 O   0  0  0  0  0  0  0  0  0  0  0  0
  2  1  1  6
  3  2  1  0
  3  4  1  0
  4  8  1  0
  5  4  2  0
  5  6  1  0
  6  7  1  0
  8  7  2  0
  9  2  1  0
  9 10  2  0
 11  9  1  0
 12 11  1  0
 12 15  1  0
 12 13  1  1
 14 13  1  0
 15 22  1  0
 16 15  2  0
 18 17  1  1
 18 19  1  0
 20 18  1  0
 21 20  1  1
 22 21  1  0
 23 25  1  0
 23 21  1  0
 24 23  2  0
M  END
$$$$
