HCL.pdb
     RDKit          3D

 25 25  0  0  1  0  0  0  0  0999 V2000
    7.4288  -17.2043   19.3174 N   0  0  0  0  0  0  0  0  0  0  0  0
    7.4874  -16.0648   20.1921 C   0  0  1  0  0  0  0  0  0  0  0  0
    6.5335  -15.0226   19.6397 C   0  0  0  0  0  0  0  0  0  0  0  0
    7.2835  -14.1857   18.6837 C   0  0  0  0  0  0  0  0  0  0  0  0
    7.9827  -13.0296   18.9307 C   0  0  0  0  0  0  0  0  0  0  0  0
    8.5153  -12.6004   17.7495 N   0  0  0  0  0  0  0  0  0  0  0  0
    8.1559  -13.4682   16.7925 C   0  0  0  0  0  0  0  0  0  0  0  0
    7.4064  -14.4296   17.3705 N   0  0  0  0  0  0  0  0  0  0  0  0
    7.1279  -16.4637   21.5729 C   0  0  0  0  0  0  0  0  0  0  0  0
    6.1543  -17.2370   21.7449 O   0  0  0  0  0  0  0  0  0  0  0  0
    7.8311  -16.0142   22.7138 N   0  0  0  0  0  0  0  0  0  0  0  0
    7.4919  -16.5074   24.0038 C   0  0  1  0  0  0  0  0  0  0  0  0
    7.5264  -18.0319   24.0743 C   0  0  0  0  0  0  0  0  0  0  0  0
    7.2650  -18.6087   25.7628 S   0  0  0  0  0  0  0  0  0  0  0  0
    8.3570  -15.9185   25.0715 C   0  0  0  0  0  0  0  0  0  0  0  0
    9.6019  -16.0975   25.0835 O   0  0  0  0  0  0  0  0  0  0  0  0
    5.9370  -11.6955   27.2573 C   0  0  0  0  0  0  0  0  0  0  0  0
    6.9225  -12.6160   26.6086 C   0  0  1  0  0  0  0  0  0  0  0  0
    7.8013  -11.7509   25.6926 C   0  0  0  0  0  0  0  0  0  0  0  0
    7.8419  -13.2635   27.5836 C   0  0  0  0  0  0  0  0  0  0  0  0
    8.6844  -14.3761   27.0441 C   0  0  2  0  0  0  0  0  0  0  0  0
    7.8199  -15.1283   26.1252 N   0  0  0  0  0  0  0  0  0  0  0  0
    9.2634  -15.2500   28.0710 C   0  0  0  0  0  0  0  0  0  0  0  0
   10.1127  -14.8658   28.9145 O   0  0  0  0  0  0  0  0  0  0  0  0
    8.8727  -16.5782   28.1412 O   0  0  0  0  0  0  0  0  0  0  0  0
  2  1  1  6
  3  2  1  0
  3  4  1  0
  4  8  1  0
  5  4  2  0
  5  6  1  0
  6  7  1  0
  8  7  2  0
  9  2  1  0
  9 10  2  0
 11  9  1  0
 12 11  1  0
 12 15  1  0
 12 13  1  6
 14 13  1  0
 15 22  1  0
 16 15  2  0
 18 17  1  1
 18 19  1  0
 20 18  1  0
 21 20  1  1
 22 21  1  0
 23 25  1  0
 23 21  1  0
 24 23  2  0
M  END
$$$$
