HCL.pdb
     RDKit          3D

 25 25  0  0  1  0  0  0  0  0999 V2000
    8.9625  -17.9131   18.4576 N   0  0  0  0  0  0  0  0  0  0  0  0
    8.9523  -16.6706   19.1807 C   0  0  1  0  0  0  0  0  0  0  0  0
    8.1338  -15.6837   18.3699 C   0  0  0  0  0  0  0  0  0  0  0  0
    8.2247  -14.3691   19.0336 C   0  0  0  0  0  0  0  0  0  0  0  0
    9.2132  -13.4228   18.9161 C   0  0  0  0  0  0  0  0  0  0  0  0
    8.8795  -12.3657   19.7126 N   0  0  0  0  0  0  0  0  0  0  0  0
    7.7127  -12.6484   20.3100 C   0  0  0  0  0  0  0  0  0  0  0  0
    7.3220  -13.8696   19.8907 N   0  0  0  0  0  0  0  0  0  0  0  0
    8.3864  -16.8741   20.5347 C   0  0  0  0  0  0  0  0  0  0  0  0
    7.4206  -17.6634   20.6742 O   0  0  0  0  0  0  0  0  0  0  0  0
    8.8831  -16.2195   21.6850 N   0  0  0  0  0  0  0  0  0  0  0  0
    8.3829  -16.5574   22.9726 C   0  0  1  0  0  0  0  0  0  0  0  0
    8.6460  -18.0161   23.3375 C   0  0  0  0  0  0  0  0  0  0  0  0
   10.4153  -18.3538   23.4232 S   0  0  0  0  0  0  0  0  0  0  0  0
    8.9189  -15.6518   24.0346 C   0  0  0  0  0  0  0  0  0  0  0  0
   10.0663  -15.1437   23.9493 O   0  0  0  0  0  0  0  0  0  0  0  0
    5.3999  -12.5689   26.6259 C   0  0  0  0  0  0  0  0  0  0  0  0
    6.6391  -13.0777   25.9589 C   0  0  1  0  0  0  0  0  0  0  0  0
    7.4090  -11.8475   25.4553 C   0  0  0  0  0  0  0  0  0  0  0  0
    7.5516  -13.7904   26.8941 C   0  0  0  0  0  0  0  0  0  0  0  0
    8.7190  -14.4823   26.2639 C   0  0  2  0  0  0  0  0  0  0  0  0
    8.1626  -15.3187   25.1923 N   0  0  0  0  0  0  0  0  0  0  0  0
    9.5289  -15.2750   27.1963 C   0  0  0  0  0  0  0  0  0  0  0  0
   10.2608  -14.7708   28.0854 O   0  0  0  0  0  0  0  0  0  0  0  0
    9.5071  -16.6588   27.1183 O   0  0  0  0  0  0  0  0  0  0  0  0
  2  1  1  6
  3  2  1  0
  3  4  1  0
  4  8  1  0
  5  4  2  0
  5  6  1  0
  6  7  1  0
  8  7  2  0
  9  2  1  0
  9 10  2  0
 11  9  1  0
 12 11  1  0
 12 15  1  0
 12 13  1  1
 14 13  1  0
 15 22  1  0
 16 15  2  0
 18 17  1  1
 18 19  1  0
 20 18  1  0
 21 20  1  1
 22 21  1  0
 23 25  1  0
 23 21  1  0
 24 23  2  0
M  END
$$$$
