HCL.pdb
     RDKit          3D

 25 25  0  0  1  0  0  0  0  0999 V2000
    9.4649  -15.1709   19.3846 N   0  0  0  0  0  0  0  0  0  0  0  0
    8.1410  -14.8999   19.8751 C   0  0  1  0  0  0  0  0  0  0  0  0
    7.1620  -15.3891   18.8246 C   0  0  0  0  0  0  0  0  0  0  0  0
    7.4299  -14.6474   17.5776 C   0  0  0  0  0  0  0  0  0  0  0  0
    7.8102  -13.3357   17.4324 C   0  0  0  0  0  0  0  0  0  0  0  0
    7.9426  -13.0821   16.0977 N   0  0  0  0  0  0  0  0  0  0  0  0
    7.6518  -14.2083   15.4304 C   0  0  0  0  0  0  0  0  0  0  0  0
    7.3409  -15.1555   16.3394 N   0  0  0  0  0  0  0  0  0  0  0  0
    7.9329  -15.5735   21.1781 C   0  0  0  0  0  0  0  0  0  0  0  0
    6.7931  -15.5379   21.7022 O   0  0  0  0  0  0  0  0  0  0  0  0
    8.9607  -16.2590   21.8652 N   0  0  0  0  0  0  0  0  0  0  0  0
    8.7093  -16.8316   23.1424 C   0  0  1  0  0  0  0  0  0  0  0  0
    9.3156  -18.2250   23.2877 C   0  0  0  0  0  0  0  0  0  0  0  0
    9.5601  -18.6475   25.0237 S   0  0  0  0  0  0  0  0  0  0  0  0
    9.1740  -15.9448   24.2527 C   0  0  0  0  0  0  0  0  0  0  0  0
   10.3563  -15.5191   24.3045 O   0  0  0  0  0  0  0  0  0  0  0  0
    5.9048  -12.2159   26.1378 C   0  0  0  0  0  0  0  0  0  0  0  0
    7.1401  -12.9613   25.7409 C   0  0  1  0  0  0  0  0  0  0  0  0
    8.2273  -11.9091   25.4753 C   0  0  0  0  0  0  0  0  0  0  0  0
    7.6615  -13.8401   26.8230 C   0  0  0  0  0  0  0  0  0  0  0  0
    8.7915  -14.7432   26.4407 C   0  0  2  0  0  0  0  0  0  0  0  0
    8.3070  -15.5377   25.3043 N   0  0  0  0  0  0  0  0  0  0  0  0
    9.2746  -15.6025   27.5278 C   0  0  0  0  0  0  0  0  0  0  0  0
    8.8493  -16.7669   27.7367 O   0  0  0  0  0  0  0  0  0  0  0  0
   10.2541  -15.1334   28.3893 O   0  0  0  0  0  0  0  0  0  0  0  0
  2  1  1  6
  3  2  1  0
  3  4  1  0
  4  8  1  0
  5  4  2  0
  5  6  1  0
  6  7  1  0
  8  7  2  0
  9  2  1  0
  9 10  2  0
 11  9  1  0
 12 11  1  0
 12 15  1  0
 12 13  1  6
 14 13  1  0
 15 22  1  0
 16 15  2  0
 18 17  1  1
 18 19  1  0
 20 18  1  0
 21 20  1  1
 22 21  1  0
 23 25  1  0
 23 21  1  0
 24 23  2  0
M  END
$$$$
