HCL.pdb
     RDKit          3D

 25 25  0  0  1  0  0  0  0  0999 V2000
    8.7876  -16.7373   18.6540 N   0  0  0  0  0  0  0  0  0  0  0  0
    8.2184  -15.5822   19.2933 C   0  0  1  0  0  0  0  0  0  0  0  0
    7.0996  -15.0784   18.4012 C   0  0  0  0  0  0  0  0  0  0  0  0
    7.7067  -14.5887   17.1487 C   0  0  0  0  0  0  0  0  0  0  0  0
    8.3807  -13.4116   16.9329 C   0  0  0  0  0  0  0  0  0  0  0  0
    8.7640  -13.3812   15.6233 N   0  0  0  0  0  0  0  0  0  0  0  0
    8.3388  -14.5112   15.0400 C   0  0  0  0  0  0  0  0  0  0  0  0
    7.6964  -15.2399   15.9762 N   0  0  0  0  0  0  0  0  0  0  0  0
    7.7271  -15.9385   20.6448 C   0  0  0  0  0  0  0  0  0  0  0  0
    6.6094  -16.4990   20.7537 O   0  0  0  0  0  0  0  0  0  0  0  0
    8.4591  -15.6773   21.8257 N   0  0  0  0  0  0  0  0  0  0  0  0
    8.0262  -16.2141   23.0694 C   0  0  1  0  0  0  0  0  0  0  0  0
    8.1587  -17.7337   23.1279 C   0  0  0  0  0  0  0  0  0  0  0  0
    9.7084  -18.2194   23.9116 S   0  0  0  0  0  0  0  0  0  0  0  0
    8.7364  -15.5861   24.2255 C   0  0  0  0  0  0  0  0  0  0  0  0
    9.9815  -15.4088   24.2158 O   0  0  0  0  0  0  0  0  0  0  0  0
    5.7511  -11.9877   26.5171 C   0  0  0  0  0  0  0  0  0  0  0  0
    6.9050  -12.7462   25.9404 C   0  0  1  0  0  0  0  0  0  0  0  0
    7.8220  -11.7143   25.2666 C   0  0  0  0  0  0  0  0  0  0  0  0
    7.7287  -13.4272   26.9762 C   0  0  0  0  0  0  0  0  0  0  0  0
    8.7232  -14.4222   26.4666 C   0  0  2  0  0  0  0  0  0  0  0  0
    8.0440  -15.1580   25.3919 N   0  0  0  0  0  0  0  0  0  0  0  0
    9.2479  -15.3330   27.4907 C   0  0  0  0  0  0  0  0  0  0  0  0
    8.9892  -16.5626   27.5278 O   0  0  0  0  0  0  0  0  0  0  0  0
   10.0779  -14.8409   28.4860 O   0  0  0  0  0  0  0  0  0  0  0  0
  2  1  1  6
  3  2  1  0
  3  4  1  0
  4  8  1  0
  5  4  2  0
  5  6  1  0
  6  7  1  0
  8  7  2  0
  9  2  1  0
  9 10  2  0
 11  9  1  0
 12 11  1  0
 12 15  1  0
 12 13  1  6
 14 13  1  0
 15 22  1  0
 16 15  2  0
 18 17  1  1
 18 19  1  0
 20 18  1  0
 21 20  1  1
 22 21  1  0
 23 25  1  0
 23 21  1  0
 24 23  2  0
M  END
$$$$
