NRL.pdb
     RDKit          3D

 28 27  0  0  1  0  0  0  0  0999 V2000
    7.5455  -14.5874   16.2066 N   0  0  0  0  0  0  0  0  0  0  0  0
    7.9669  -13.6355   17.1691 C   0  0  0  0  0  0  0  0  0  0  0  0
    8.7447  -12.7148   16.8226 O   0  0  0  0  0  0  0  0  0  0  0  0
    7.4903  -13.7309   18.5710 C   0  0  0  0  0  0  0  0  0  0  0  0
    8.6812  -13.9136   19.4992 C   0  0  2  0  0  0  0  0  0  0  0  0
    9.7713  -14.5767   18.8483 N   0  0  0  0  0  0  0  0  0  0  0  0
    8.2397  -14.6075   20.7350 C   0  0  0  0  0  0  0  0  0  0  0  0
    7.2144  -14.1304   21.3069 O   0  0  0  0  0  0  0  0  0  0  0  0
   10.3336  -20.2881   19.1685 N   0  0  0  0  0  0  0  0  0  0  0  0
    8.9988  -20.8175   19.2983 C   0  0  0  0  0  0  0  0  0  0  0  0
    8.4003  -21.2132   18.2402 N   0  0  0  0  0  0  0  0  0  0  0  0
    8.3943  -20.8843   20.5764 N   0  0  0  0  0  0  0  0  0  0  0  0
    8.8957  -20.0239   21.6145 C   0  0  0  0  0  0  0  0  0  0  0  0
    8.3332  -18.6135   21.4914 C   0  0  0  0  0  0  0  0  0  0  0  0
    8.8767  -17.7812   22.6322 C   0  0  0  0  0  0  0  0  0  0  0  0
    8.4118  -16.3269   22.5107 C   0  0  2  0  0  0  0  0  0  0  0  0
    8.8893  -15.7363   21.2822 N   0  0  0  0  0  0  0  0  0  0  0  0
    8.8789  -15.5898   23.7046 C   0  0  0  0  0  0  0  0  0  0  0  0
   10.0815  -15.2408   23.7977 O   0  0  0  0  0  0  0  0  0  0  0  0
    7.4374  -21.5842   18.2566 C   0  0  0  0  0  0  0  0  0  0  0  0
    5.8357  -11.8741   26.5703 C   0  0  1  0  0  0  0  0  0  0  0  0
    7.0373  -12.4958   25.8474 C   0  0  0  0  0  0  0  0  0  0  0  0
    8.0706  -11.3979   25.6802 C   0  0  0  0  0  0  0  0  0  0  0  0
    7.6180  -13.6096   26.6546 C   0  0  2  0  0  0  0  0  0  0  0  0
    8.5190  -14.5612   25.9685 N   0  0  0  0  0  0  0  0  0  0  0  0
    8.0236  -15.2329   24.8025 C   0  0  0  0  0  0  0  0  0  0  0  0
    9.0298  -15.5909   26.9175 O   0  0  0  0  0  0  0  0  0  0  0  0
    8.5732  -16.7572   26.8421 O   0  0  0  0  0  0  0  0  0  0  0  0
  1  2  1  0
  2  3  2  0
  4  2  1  0
  4  5  1  0
  5  6  1  6
  7  8  2  0
  7  5  1  0
 10  9  1  0
 10 12  1  0
 11 10  2  0
 13 12  1  0
 13 14  1  0
 14 15  1  0
 16 15  1  1
 16 17  1  0
 17  7  1  0
 18 16  1  0
 19 18  2  0
 21 20  1  6
 21 23  1  0
 22 21  1  0
 24 23  1  6
 24 26  1  0
 24 25  1  0
 25 18  1  0
 26 28  1  0
 27 26  2  0
M  END
$$$$
