NRL.pdb
     RDKit          3D

 28 27  0  0  1  0  0  0  0  0999 V2000
    7.9864  -12.1591   18.0132 N   0  0  0  0  0  0  0  0  0  0  0  0
    7.9103  -13.5694   18.1373 C   0  0  0  0  0  0  0  0  0  0  0  0
    8.0674  -14.2848   17.1194 O   0  0  0  0  0  0  0  0  0  0  0  0
    7.6473  -14.1888   19.4598 C   0  0  0  0  0  0  0  0  0  0  0  0
    8.9688  -14.4842   20.1522 C   0  0  2  0  0  0  0  0  0  0  0  0
    9.9288  -15.0533   19.2543 N   0  0  0  0  0  0  0  0  0  0  0  0
    8.7204  -15.3332   21.3443 C   0  0  0  0  0  0  0  0  0  0  0  0
    7.9124  -14.8676   22.2024 O   0  0  0  0  0  0  0  0  0  0  0  0
   12.9338  -19.7808   24.8098 N   0  0  0  0  0  0  0  0  0  0  0  0
   13.5914  -20.1623   23.5847 C   0  0  0  0  0  0  0  0  0  0  0  0
   14.8692  -20.1411   23.5530 N   0  0  0  0  0  0  0  0  0  0  0  0
   12.8154  -20.5451   22.4646 N   0  0  0  0  0  0  0  0  0  0  0  0
   11.3892  -20.3688   22.5297 C   0  0  0  0  0  0  0  0  0  0  0  0
   11.0106  -18.8944   22.5890 C   0  0  0  0  0  0  0  0  0  0  0  0
    9.5016  -18.7898   22.6269 C   0  0  0  0  0  0  0  0  0  0  0  0
    9.0635  -17.3293   22.7715 C   0  0  2  0  0  0  0  0  0  0  0  0
    9.3238  -16.5928   21.5567 N   0  0  0  0  0  0  0  0  0  0  0  0
    9.7625  -16.7492   23.9384 C   0  0  0  0  0  0  0  0  0  0  0  0
   10.9286  -16.3005   23.8139 O   0  0  0  0  0  0  0  0  0  0  0  0
   15.4046  -20.3869   22.7058 C   0  0  0  0  0  0  0  0  0  0  0  0
   10.9524  -13.3980   27.7768 C   0  0  2  0  0  0  0  0  0  0  0  0
    9.7626  -14.2675   28.2031 C   0  0  0  0  0  0  0  0  0  0  0  0
    8.7708  -13.3525   28.8961 C   0  0  0  0  0  0  0  0  0  0  0  0
    9.1161  -14.8946   27.0122 C   0  0  1  0  0  0  0  0  0  0  0  0
    9.8397  -15.9912   26.3327 N   0  0  0  0  0  0  0  0  0  0  0  0
    9.1805  -16.6601   25.2490 C   0  0  0  0  0  0  0  0  0  0  0  0
   10.2883  -17.0215   27.3120 O   0  0  0  0  0  0  0  0  0  0  0  0
   11.2000  -16.7251   28.1214 O   0  0  0  0  0  0  0  0  0  0  0  0
  1  2  1  0
  2  3  2  0
  4  2  1  0
  4  5  1  0
  5  6  1  6
  7  8  2  0
  7  5  1  0
 10  9  1  0
 10 12  1  0
 11 10  2  0
 13 12  1  0
 13 14  1  0
 14 15  1  0
 16 15  1  6
 16 17  1  0
 17  7  1  0
 18 16  1  0
 19 18  2  0
 21 20  1  1
 21 23  1  0
 22 21  1  0
 24 23  1  6
 24 26  1  0
 24 25  1  0
 25 18  1  0
 26 28  1  0
 27 26  2  0
M  END
$$$$
