NRL.pdb
     RDKit          3D

 28 27  0  0  1  0  0  0  0  0999 V2000
   11.0468  -18.3235   17.5910 N   0  0  0  0  0  0  0  0  0  0  0  0
   11.6030  -17.6723   18.7209 C   0  0  0  0  0  0  0  0  0  0  0  0
   12.8423  -17.4876   18.7750 O   0  0  0  0  0  0  0  0  0  0  0  0
   10.7246  -17.2154   19.8260 C   0  0  0  0  0  0  0  0  0  0  0  0
    9.3221  -17.7658   19.6184 C   0  0  2  0  0  0  0  0  0  0  0  0
    8.7378  -17.2974   18.3973 N   0  0  0  0  0  0  0  0  0  0  0  0
    8.4917  -17.4581   20.8099 C   0  0  0  0  0  0  0  0  0  0  0  0
    7.8119  -16.3900   20.7555 O   0  0  0  0  0  0  0  0  0  0  0  0
    7.8102  -22.3336   25.5023 N   0  0  0  0  0  0  0  0  0  0  0  0
    8.0930  -21.4744   26.6250 C   0  0  0  0  0  0  0  0  0  0  0  0
    9.0061  -21.8326   27.4449 N   0  0  0  0  0  0  0  0  0  0  0  0
    7.3620  -20.2734   26.7878 N   0  0  0  0  0  0  0  0  0  0  0  0
    6.2054  -20.0604   25.9595 C   0  0  0  0  0  0  0  0  0  0  0  0
    6.3664  -18.8256   25.0819 C   0  0  0  0  0  0  0  0  0  0  0  0
    7.2615  -19.1822   23.9152 C   0  0  0  0  0  0  0  0  0  0  0  0
    7.5090  -17.9579   23.0288 C   0  0  2  0  0  0  0  0  0  0  0  0
    8.4283  -18.2748   21.9608 N   0  0  0  0  0  0  0  0  0  0  0  0
    8.0035  -16.8582   23.8848 C   0  0  0  0  0  0  0  0  0  0  0  0
    9.2117  -16.8202   24.2247 O   0  0  0  0  0  0  0  0  0  0  0  0
    9.2834  -21.2509   28.2510 C   0  0  0  0  0  0  0  0  0  0  0  0
    7.7540  -11.6950   25.1195 C   0  0  2  0  0  0  0  0  0  0  0  0
    7.2015  -12.5053   26.2991 C   0  0  0  0  0  0  0  0  0  0  0  0
    6.0604  -11.7015   26.8931 C   0  0  0  0  0  0  0  0  0  0  0  0
    6.6911  -13.8293   25.8344 C   0  0  2  0  0  0  0  0  0  0  0  0
    7.6656  -14.7785   25.2538 N   0  0  0  0  0  0  0  0  0  0  0  0
    7.1695  -15.7940   24.3713 C   0  0  0  0  0  0  0  0  0  0  0  0
    8.4667  -15.4407   26.3222 O   0  0  0  0  0  0  0  0  0  0  0  0
    7.9581  -16.4036   26.9456 O   0  0  0  0  0  0  0  0  0  0  0  0
  1  2  1  0
  2  3  2  0
  4  2  1  0
  4  5  1  0
  5  6  1  6
  7  8  2  0
  7  5  1  0
 10  9  1  0
 10 12  1  0
 11 10  2  0
 13 12  1  0
 13 14  1  0
 14 15  1  0
 16 15  1  1
 16 17  1  0
 17  7  1  0
 18 16  1  0
 19 18  2  0
 21 20  1  1
 21 23  1  0
 22 21  1  0
 24 23  1  6
 24 26  1  0
 24 25  1  0
 25 18  1  0
 26 28  1  0
 27 26  2  0
M  END
$$$$
