NRL.pdb
     RDKit          3D

 28 27  0  0  1  0  0  0  0  0999 V2000
    8.3315  -12.5627   16.8481 N   0  0  0  0  0  0  0  0  0  0  0  0
    7.9612  -13.9027   17.1259 C   0  0  0  0  0  0  0  0  0  0  0  0
    8.0707  -14.7693   16.2261 O   0  0  0  0  0  0  0  0  0  0  0  0
    7.4497  -14.2722   18.4689 C   0  0  0  0  0  0  0  0  0  0  0  0
    8.6021  -14.2942   19.4611 C   0  0  2  0  0  0  0  0  0  0  0  0
    9.7643  -14.9321   18.9187 N   0  0  0  0  0  0  0  0  0  0  0  0
    8.1457  -14.9118   20.7315 C   0  0  0  0  0  0  0  0  0  0  0  0
    7.1273  -14.3866   21.2729 O   0  0  0  0  0  0  0  0  0  0  0  0
    5.8666  -20.8888   24.1217 N   0  0  0  0  0  0  0  0  0  0  0  0
    6.6549  -21.0349   25.3200 C   0  0  0  0  0  0  0  0  0  0  0  0
    6.0770  -21.4699   26.3741 N   0  0  0  0  0  0  0  0  0  0  0  0
    8.0293  -20.6973   25.2981 N   0  0  0  0  0  0  0  0  0  0  0  0
    8.5590  -20.0677   24.1182 C   0  0  0  0  0  0  0  0  0  0  0  0
    8.0492  -18.6398   23.9700 C   0  0  0  0  0  0  0  0  0  0  0  0
    8.6667  -18.0387   22.7263 C   0  0  0  0  0  0  0  0  0  0  0  0
    8.2440  -16.5755   22.5649 C   0  0  2  0  0  0  0  0  0  0  0  0
    8.7744  -16.0199   21.3418 N   0  0  0  0  0  0  0  0  0  0  0  0
    8.6932  -15.8288   23.7597 C   0  0  0  0  0  0  0  0  0  0  0  0
    9.9068  -15.5391   23.9009 O   0  0  0  0  0  0  0  0  0  0  0  0
    6.5929  -21.6632   27.2467 C   0  0  0  0  0  0  0  0  0  0  0  0
    5.3962  -12.1513   26.6409 C   0  0  2  0  0  0  0  0  0  0  0  0
    6.5177  -12.7851   25.8080 C   0  0  0  0  0  0  0  0  0  0  0  0
    7.4360  -11.6594   25.3716 C   0  0  0  0  0  0  0  0  0  0  0  0
    7.2875  -13.7696   26.6251 C   0  0  2  0  0  0  0  0  0  0  0  0
    8.2675  -14.6290   25.9258 N   0  0  0  0  0  0  0  0  0  0  0  0
    7.8077  -15.3971   24.8056 C   0  0  0  0  0  0  0  0  0  0  0  0
    8.9416  -15.5547   26.8800 O   0  0  0  0  0  0  0  0  0  0  0  0
    8.7911  -16.7908   26.7264 O   0  0  0  0  0  0  0  0  0  0  0  0
  1  2  1  0
  2  3  2  0
  4  2  1  0
  4  5  1  0
  5  6  1  6
  7  8  2  0
  7  5  1  0
 10  9  1  0
 10 12  1  0
 11 10  2  0
 13 12  1  0
 13 14  1  0
 14 15  1  0
 16 15  1  1
 16 17  1  0
 17  7  1  0
 18 16  1  0
 19 18  2  0
 21 20  1  6
 21 23  1  0
 22 21  1  0
 24 23  1  6
 24 26  1  0
 24 25  1  0
 25 18  1  0
 26 28  1  0
 27 26  2  0
M  END
$$$$
