NRL.pdb
     RDKit          3D

 28 27  0  0  1  0  0  0  0  0999 V2000
    7.9096  -12.2495   17.1819 N   0  0  0  0  0  0  0  0  0  0  0  0
    7.8347  -13.6591   17.3133 C   0  0  0  0  0  0  0  0  0  0  0  0
    8.0724  -14.3823   16.3167 O   0  0  0  0  0  0  0  0  0  0  0  0
    7.4784  -14.2688   18.6183 C   0  0  0  0  0  0  0  0  0  0  0  0
    8.6188  -14.0603   19.6027 C   0  0  2  0  0  0  0  0  0  0  0  0
    9.8826  -14.4430   19.0477 N   0  0  0  0  0  0  0  0  0  0  0  0
    8.3088  -14.7664   20.8712 C   0  0  0  0  0  0  0  0  0  0  0  0
    7.1690  -14.5350   21.3744 O   0  0  0  0  0  0  0  0  0  0  0  0
   11.3027  -22.3246   21.7135 N   0  0  0  0  0  0  0  0  0  0  0  0
   10.2895  -22.0378   20.7286 C   0  0  0  0  0  0  0  0  0  0  0  0
   10.0396  -22.9251   19.8428 N   0  0  0  0  0  0  0  0  0  0  0  0
    9.6075  -20.7982   20.7678 N   0  0  0  0  0  0  0  0  0  0  0  0
    9.9634  -19.8552   21.7941 C   0  0  0  0  0  0  0  0  0  0  0  0
    9.1151  -18.5926   21.7114 C   0  0  0  0  0  0  0  0  0  0  0  0
    9.4990  -17.6831   22.8581 C   0  0  0  0  0  0  0  0  0  0  0  0
    8.7974  -16.3275   22.7322 C   0  0  2  0  0  0  0  0  0  0  0  0
    9.1972  -15.6533   21.5190 N   0  0  0  0  0  0  0  0  0  0  0  0
    9.1040  -15.5329   23.9410 C   0  0  0  0  0  0  0  0  0  0  0  0
   10.2563  -15.0633   24.1096 O   0  0  0  0  0  0  0  0  0  0  0  0
    9.3334  -22.7838   19.1038 C   0  0  0  0  0  0  0  0  0  0  0  0
    6.0039  -11.6251   26.4153 C   0  0  1  0  0  0  0  0  0  0  0  0
    7.1842  -12.4075   25.8256 C   0  0  0  0  0  0  0  0  0  0  0  0
    8.3553  -11.4470   25.7422 C   0  0  0  0  0  0  0  0  0  0  0  0
    7.5442  -13.5589   26.7054 C   0  0  2  0  0  0  0  0  0  0  0  0
    8.4965  -14.5594   26.1763 N   0  0  0  0  0  0  0  0  0  0  0  0
    8.1427  -15.2511   24.9711 C   0  0  0  0  0  0  0  0  0  0  0  0
    8.8346  -15.5748   27.2138 O   0  0  0  0  0  0  0  0  0  0  0  0
    9.2725  -15.1799   28.3214 O   0  0  0  0  0  0  0  0  0  0  0  0
  1  2  1  0
  2  3  2  0
  4  2  1  0
  4  5  1  0
  5  6  1  6
  7  8  2  0
  7  5  1  0
 10  9  1  0
 10 12  1  0
 11 10  2  0
 13 12  1  0
 13 14  1  0
 14 15  1  0
 16 15  1  1
 16 17  1  0
 17  7  1  0
 18 16  1  0
 19 18  2  0
 21 20  1  6
 21 23  1  0
 22 21  1  0
 24 23  1  6
 24 26  1  0
 24 25  1  0
 25 18  1  0
 26 28  1  0
 27 26  2  0
M  END
$$$$
