NRL.pdb
     RDKit          3D

 28 27  0  0  1  0  0  0  0  0999 V2000
    8.2343  -12.6269   16.9320 N   0  0  0  0  0  0  0  0  0  0  0  0
    8.0161  -14.0218   17.0604 C   0  0  0  0  0  0  0  0  0  0  0  0
    8.3438  -14.7839   16.1199 O   0  0  0  0  0  0  0  0  0  0  0  0
    7.4058  -14.5707   18.2965 C   0  0  0  0  0  0  0  0  0  0  0  0
    8.5035  -14.9373   19.2833 C   0  0  2  0  0  0  0  0  0  0  0  0
    9.4141  -15.8998   18.7389 N   0  0  0  0  0  0  0  0  0  0  0  0
    7.8892  -15.3824   20.5593 C   0  0  0  0  0  0  0  0  0  0  0  0
    7.0648  -14.5805   21.0913 O   0  0  0  0  0  0  0  0  0  0  0  0
    8.7025  -20.8214   26.4360 N   0  0  0  0  0  0  0  0  0  0  0  0
    7.3599  -20.4887   26.8430 C   0  0  0  0  0  0  0  0  0  0  0  0
    7.0474  -20.6374   28.0737 N   0  0  0  0  0  0  0  0  0  0  0  0
    6.4358  -20.0127   25.8824 N   0  0  0  0  0  0  0  0  0  0  0  0
    6.8941  -19.8160   24.5331 C   0  0  0  0  0  0  0  0  0  0  0  0
    7.7042  -18.5328   24.3997 C   0  0  0  0  0  0  0  0  0  0  0  0
    8.0303  -18.3235   22.9370 C   0  0  0  0  0  0  0  0  0  0  0  0
    7.6305  -16.9144   22.4894 C   0  0  2  0  0  0  0  0  0  0  0  0
    8.1733  -16.6171   21.1844 N   0  0  0  0  0  0  0  0  0  0  0  0
    8.0873  -15.9545   23.5174 C   0  0  0  0  0  0  0  0  0  0  0  0
    9.3105  -15.6981   23.6392 O   0  0  0  0  0  0  0  0  0  0  0  0
    6.0891  -20.4800   28.4228 C   0  0  0  0  0  0  0  0  0  0  0  0
    7.9336  -11.2146   26.0152 C   0  0  2  0  0  0  0  0  0  0  0  0
    7.1691  -12.2713   26.8227 C   0  0  0  0  0  0  0  0  0  0  0  0
    5.9930  -11.5673   27.4724 C   0  0  0  0  0  0  0  0  0  0  0  0
    6.6693  -13.3570   25.9279 C   0  0  1  0  0  0  0  0  0  0  0  0
    7.6648  -14.2827   25.3449 N   0  0  0  0  0  0  0  0  0  0  0  0
    7.1990  -15.2718   24.4170 C   0  0  0  0  0  0  0  0  0  0  0  0
    8.4395  -14.9750   26.4137 O   0  0  0  0  0  0  0  0  0  0  0  0
    9.3014  -14.3222   27.0503 O   0  0  0  0  0  0  0  0  0  0  0  0
  1  2  1  0
  2  3  2  0
  4  2  1  0
  4  5  1  0
  5  6  1  6
  7  8  2  0
  7  5  1  0
 10  9  1  0
 10 12  1  0
 11 10  2  0
 13 12  1  0
 13 14  1  0
 14 15  1  0
 16 15  1  1
 16 17  1  0
 17  7  1  0
 18 16  1  0
 19 18  2  0
 21 20  1  1
 21 23  1  0
 22 21  1  0
 24 23  1  6
 24 26  1  0
 24 25  1  0
 25 18  1  0
 26 28  1  0
 27 26  2  0
M  END
$$$$
