NRL.pdb
     RDKit          3D

 28 27  0  0  1  0  0  0  0  0999 V2000
   15.7797  -14.1281   20.2006 N   0  0  0  0  0  0  0  0  0  0  0  0
   14.9300  -14.3387   19.0854 C   0  0  0  0  0  0  0  0  0  0  0  0
   15.4211  -14.3443   17.9314 O   0  0  0  0  0  0  0  0  0  0  0  0
   13.4750  -14.5501   19.2855 C   0  0  0  0  0  0  0  0  0  0  0  0
   13.2440  -15.2570   20.6121 C   0  0  2  0  0  0  0  0  0  0  0  0
   13.2341  -16.6818   20.4656 N   0  0  0  0  0  0  0  0  0  0  0  0
   12.0043  -14.7335   21.2390 C   0  0  0  0  0  0  0  0  0  0  0  0
   11.9668  -13.4832   21.4420 O   0  0  0  0  0  0  0  0  0  0  0  0
    7.0156  -13.0031   18.3130 N   0  0  0  0  0  0  0  0  0  0  0  0
    7.3890  -14.0579   17.4037 C   0  0  0  0  0  0  0  0  0  0  0  0
    7.7966  -13.7330   16.2364 N   0  0  0  0  0  0  0  0  0  0  0  0
    7.2956  -15.4069   17.8217 N   0  0  0  0  0  0  0  0  0  0  0  0
    7.2829  -15.6851   19.2330 C   0  0  0  0  0  0  0  0  0  0  0  0
    8.4427  -15.0029   19.9474 C   0  0  0  0  0  0  0  0  0  0  0  0
    8.4642  -15.4772   21.3841 C   0  0  0  0  0  0  0  0  0  0  0  0
    9.6954  -14.9336   22.1153 C   0  0  2  0  0  0  0  0  0  0  0  0
   10.9037  -15.5394   21.6062 N   0  0  0  0  0  0  0  0  0  0  0  0
    9.5170  -15.1722   23.5637 C   0  0  0  0  0  0  0  0  0  0  0  0
   10.2351  -16.0154   24.1554 O   0  0  0  0  0  0  0  0  0  0  0  0
    8.0799  -14.4353   15.5353 C   0  0  0  0  0  0  0  0  0  0  0  0
    6.3054  -11.7110   26.7585 C   0  0  1  0  0  0  0  0  0  0  0  0
    7.5690  -12.4299   26.2691 C   0  0  0  0  0  0  0  0  0  0  0  0
    8.7394  -11.8363   27.0299 C   0  0  0  0  0  0  0  0  0  0  0  0
    7.4826  -13.8941   26.5482 C   0  0  2  0  0  0  0  0  0  0  0  0
    8.3393  -14.7994   25.7517 N   0  0  0  0  0  0  0  0  0  0  0  0
    8.5465  -14.4831   24.3685 C   0  0  0  0  0  0  0  0  0  0  0  0
    7.8557  -16.2065   25.8402 O   0  0  0  0  0  0  0  0  0  0  0  0
    7.7389  -16.7320   26.9736 O   0  0  0  0  0  0  0  0  0  0  0  0
  1  2  1  0
  2  3  2  0
  4  2  1  0
  4  5  1  0
  5  6  1  6
  7  8  2  0
  7  5  1  0
 10  9  1  0
 10 12  1  0
 11 10  2  0
 13 12  1  0
 13 14  1  0
 14 15  1  0
 16 15  1  6
 16 17  1  0
 17  7  1  0
 18 16  1  0
 19 18  2  0
 21 20  1  6
 21 23  1  0
 22 21  1  0
 24 23  1  1
 24 26  1  0
 24 25  1  0
 25 18  1  0
 26 28  1  0
 27 26  2  0
M  END
$$$$
