RNS.pdb
     RDKit          3D

 26 25  0  0  1  0  0  0  0  0999 V2000
    6.9943  -13.4955   19.6724 N   0  0  0  0  0  0  0  0  0  0  0  0
    7.5890  -13.3321   18.3944 C   0  0  0  0  0  0  0  0  0  0  0  0
    6.9004  -13.4771   17.2952 N   0  0  0  0  0  0  0  0  0  0  0  0
    8.9696  -13.0042   18.3384 N   0  0  0  0  0  0  0  0  0  0  0  0
    9.8295  -13.2290   19.4852 C   0  0  0  0  0  0  0  0  0  0  0  0
    9.5437  -14.5385   20.1582 C   0  0  0  0  0  0  0  0  0  0  0  0
    9.5786  -14.4639   21.6496 C   0  0  0  0  0  0  0  0  0  0  0  0
   10.2689  -15.6343   22.3019 C   0  0  2  0  0  0  0  0  0  0  0  0
    9.6498  -16.8893   22.0376 N   0  0  0  0  0  0  0  0  0  0  0  0
   10.5588  -15.3922   23.7232 C   0  0  0  0  0  0  0  0  0  0  0  0
   10.6392  -14.1885   24.1395 O   0  0  0  0  0  0  0  0  0  0  0  0
    7.3971  -13.4003   16.3883 N   0  0  0  0  0  0  0  0  0  0  0  0
    9.8441  -14.0904   28.4402 C   0  0  0  0  0  0  0  0  0  0  0  0
    9.2253  -15.2918   27.8957 O   0  0  0  0  0  0  0  0  0  0  0  0
    8.5370  -15.9960   28.6757 C   0  0  0  0  0  0  0  0  0  0  0  0
    9.4731  -15.5532   26.4878 C   0  0  1  0  0  0  0  0  0  0  0  0
   10.7918  -16.1451   26.1389 N   0  0  0  0  0  0  0  0  0  0  0  0
   10.7551  -16.4267   24.6614 C   0  0  0  0  0  0  0  0  0  0  0  0
   11.0079  -17.4875   26.7493 O   0  0  0  0  0  0  0  0  0  0  0  0
   10.3763  -18.4966   26.2351 O   0  0  0  0  0  0  0  0  0  0  0  0
   14.1632  -18.4604   28.7243 C   0  0  0  0  0  0  0  0  0  0  0  0
   13.1244  -19.2127   29.2626 C   0  0  2  0  0  0  0  0  0  0  0  0
   11.8984  -19.1962   28.3693 N   0  0  0  0  0  0  0  0  0  0  0  0
   11.8352  -17.8144   27.8378 C   0  0  0  0  0  0  0  0  0  0  0  0
   10.7379  -19.4709   29.2299 O   0  0  0  0  0  0  0  0  0  0  0  0
   10.6252  -20.6880   29.8604 O   0  0  0  0  0  0  0  0  0  0  0  0
  2  3  2  0
  2  1  1  0
  4  2  1  0
  5  4  1  0
  6  5  1  0
  7  6  1  0
  8 10  1  0
  8  7  1  0
  8  9  1  1
 10 17  1  0
 11 10  2  0
 13 12  1  0
 14 13  2  0
 15 13  1  0
 16 17  1  0
 16 15  1  6
 18 16  1  0
 19 18  2  0
 21 20  1  0
 22 21  1  6
 22 23  1  0
 22 24  1  0
 23 18  1  0
 24 25  1  0
 26 24  2  0
M  END
$$$$
