RNS.pdb
     RDKit          3D

 26 25  0  0  1  0  0  0  0  0999 V2000
    6.9876  -13.7204   15.5795 N   0  0  0  0  0  0  0  0  0  0  0  0
    6.8349  -13.0285   16.8090 C   0  0  0  0  0  0  0  0  0  0  0  0
    5.6595  -12.6813   17.2577 N   0  0  0  0  0  0  0  0  0  0  0  0
    8.0062  -12.7172   17.5489 N   0  0  0  0  0  0  0  0  0  0  0  0
    8.9111  -13.7677   17.9763 C   0  0  0  0  0  0  0  0  0  0  0  0
    8.6546  -14.1941   19.3911 C   0  0  0  0  0  0  0  0  0  0  0  0
    9.5860  -15.2579   19.8727 C   0  0  0  0  0  0  0  0  0  0  0  0
   10.6564  -15.6263   18.8775 C   0  0  2  0  0  0  0  0  0  0  0  0
   10.1825  -16.4040   17.7826 N   0  0  0  0  0  0  0  0  0  0  0  0
   11.8607  -16.1675   19.5251 C   0  0  0  0  0  0  0  0  0  0  0  0
   11.9727  -17.4316   19.6601 O   0  0  0  0  0  0  0  0  0  0  0  0
    5.6099  -12.1195   18.1278 N   0  0  0  0  0  0  0  0  0  0  0  0
   15.5861  -13.5640   18.6188 C   0  0  0  0  0  0  0  0  0  0  0  0
   15.7613  -14.8647   19.2515 O   0  0  0  0  0  0  0  0  0  0  0  0
   16.3681  -15.7510   18.6003 C   0  0  0  0  0  0  0  0  0  0  0  0
   15.2076  -15.0022   20.5881 C   0  0  2  0  0  0  0  0  0  0  0  0
   14.0771  -15.9545   20.7495 N   0  0  0  0  0  0  0  0  0  0  0  0
   12.9096  -15.3592   20.0104 C   0  0  0  0  0  0  0  0  0  0  0  0
   13.5929  -16.0513   22.1558 O   0  0  0  0  0  0  0  0  0  0  0  0
   13.6508  -14.9855   22.8921 O   0  0  0  0  0  0  0  0  0  0  0  0
   10.7347  -18.1992   23.4166 C   0  0  0  0  0  0  0  0  0  0  0  0
   11.2217  -17.2504   24.3098 C   0  0  1  0  0  0  0  0  0  0  0  0
   12.7342  -17.1498   24.2518 N   0  0  0  0  0  0  0  0  0  0  0  0
   13.0608  -17.1780   22.8066 C   0  0  0  0  0  0  0  0  0  0  0  0
   13.2688  -18.3434   24.9243 O   0  0  0  0  0  0  0  0  0  0  0  0
   13.1318  -18.4820   26.2857 O   0  0  0  0  0  0  0  0  0  0  0  0
  2  3  2  0
  2  1  1  0
  4  2  1  0
  5  4  1  0
  6  5  1  0
  7  6  1  0
  8 10  1  0
  8  7  1  0
  8  9  1  6
 10 17  1  0
 11 10  2  0
 13 12  1  0
 14 13  2  0
 15 13  1  0
 16 17  1  0
 16 15  1  6
 18 16  1  0
 19 18  2  0
 21 20  1  0
 22 21  1  6
 22 23  1  0
 22 24  1  0
 23 18  1  0
 24 25  1  0
 26 24  2  0
M  END
$$$$
