RNS.pdb
     RDKit          3D

 26 25  0  0  1  0  0  0  0  0999 V2000
    7.9660  -13.0538   16.2338 N   0  0  0  0  0  0  0  0  0  0  0  0
    8.2968  -13.9991   17.2391 C   0  0  0  0  0  0  0  0  0  0  0  0
    8.2757  -15.2830   17.0052 N   0  0  0  0  0  0  0  0  0  0  0  0
    8.6548  -13.5094   18.5231 N   0  0  0  0  0  0  0  0  0  0  0  0
    7.6343  -13.0827   19.4620 C   0  0  0  0  0  0  0  0  0  0  0  0
    6.7818  -14.2251   19.9283 C   0  0  0  0  0  0  0  0  0  0  0  0
    6.8402  -14.4509   21.4037 C   0  0  0  0  0  0  0  0  0  0  0  0
    7.8741  -15.4639   21.8242 C   0  0  2  0  0  0  0  0  0  0  0  0
    8.0895  -16.4982   20.8692 N   0  0  0  0  0  0  0  0  0  0  0  0
    7.6601  -15.9456   23.1970 C   0  0  0  0  0  0  0  0  0  0  0  0
    7.2497  -15.1228   24.0820 O   0  0  0  0  0  0  0  0  0  0  0  0
    8.5748  -15.9270   17.7608 N   0  0  0  0  0  0  0  0  0  0  0  0
    6.2540  -21.2188   25.8584 C   0  0  0  0  0  0  0  0  0  0  0  0
    6.5151  -19.7945   26.0194 O   0  0  0  0  0  0  0  0  0  0  0  0
    6.4349  -19.3160   27.1780 C   0  0  0  0  0  0  0  0  0  0  0  0
    6.8452  -19.0667   24.8056 C   0  0  2  0  0  0  0  0  0  0  0  0
    7.5254  -17.7554   24.9756 N   0  0  0  0  0  0  0  0  0  0  0  0
    7.8856  -17.2799   23.5943 C   0  0  0  0  0  0  0  0  0  0  0  0
    8.8419  -17.8669   25.6654 O   0  0  0  0  0  0  0  0  0  0  0  0
    9.9017  -18.0058   24.9312 O   0  0  0  0  0  0  0  0  0  0  0  0
    9.3210  -17.9354   29.7211 C   0  0  0  0  0  0  0  0  0  0  0  0
   10.4455  -17.5759   28.9854 C   0  0  1  0  0  0  0  0  0  0  0  0
   10.4254  -18.1852   27.5964 N   0  0  0  0  0  0  0  0  0  0  0  0
    9.0940  -17.8348   27.0479 C   0  0  0  0  0  0  0  0  0  0  0  0
   10.5460  -19.6410   27.7656 O   0  0  0  0  0  0  0  0  0  0  0  0
   11.7456  -20.1884   28.1569 O   0  0  0  0  0  0  0  0  0  0  0  0
  2  3  2  0
  2  1  1  0
  4  2  1  0
  5  4  1  0
  6  5  1  0
  7  6  1  0
  8 10  1  0
  8  7  1  0
  8  9  1  6
 10 17  1  0
 11 10  2  0
 13 12  1  0
 14 13  2  0
 15 13  1  0
 16 17  1  0
 16 15  1  6
 18 16  1  0
 19 18  2  0
 21 20  1  0
 22 21  1  6
 22 23  1  0
 22 24  1  0
 23 18  1  0
 24 25  1  0
 26 24  2  0
M  END
$$$$
