RNS.pdb
     RDKit          3D

 26 25  0  0  1  0  0  0  0  0999 V2000
    7.8243  -12.5306   19.0441 N   0  0  0  0  0  0  0  0  0  0  0  0
    8.2956  -13.4425   18.0643 C   0  0  0  0  0  0  0  0  0  0  0  0
    9.2463  -13.1203   17.2302 N   0  0  0  0  0  0  0  0  0  0  0  0
    7.6998  -14.7304   18.0108 N   0  0  0  0  0  0  0  0  0  0  0  0
    7.8883  -15.6773   19.0939 C   0  0  0  0  0  0  0  0  0  0  0  0
    9.2739  -16.2510   19.1088 C   0  0  0  0  0  0  0  0  0  0  0  0
   10.0164  -15.9866   20.3776 C   0  0  0  0  0  0  0  0  0  0  0  0
    9.6760  -16.9418   21.4928 C   0  0  2  0  0  0  0  0  0  0  0  0
    8.4261  -17.6033   21.3238 N   0  0  0  0  0  0  0  0  0  0  0  0
    9.8657  -16.3414   22.8217 C   0  0  0  0  0  0  0  0  0  0  0  0
   10.8648  -15.5708   23.0130 O   0  0  0  0  0  0  0  0  0  0  0  0
    9.4566  -13.7678   16.4481 N   0  0  0  0  0  0  0  0  0  0  0  0
    8.3008  -13.7676   23.9514 C   0  0  0  0  0  0  0  0  0  0  0  0
    7.4555  -14.2915   25.0162 O   0  0  0  0  0  0  0  0  0  0  0  0
    6.3481  -13.7307   25.2085 C   0  0  0  0  0  0  0  0  0  0  0  0
    7.9900  -15.4234   25.7545 C   0  0  2  0  0  0  0  0  0  0  0  0
    9.2745  -15.9932   25.2684 N   0  0  0  0  0  0  0  0  0  0  0  0
    8.9962  -16.5722   23.9079 C   0  0  0  0  0  0  0  0  0  0  0  0
    9.7300  -17.1672   26.0657 O   0  0  0  0  0  0  0  0  0  0  0  0
    9.0469  -18.2655   25.9730 O   0  0  0  0  0  0  0  0  0  0  0  0
    9.6510  -19.9957   28.9871 C   0  0  0  0  0  0  0  0  0  0  0  0
    9.6349  -18.8469   28.2028 C   0  0  1  0  0  0  0  0  0  0  0  0
   11.0363  -18.4056   27.8256 N   0  0  0  0  0  0  0  0  0  0  0  0
   10.8390  -17.2446   26.9261 C   0  0  0  0  0  0  0  0  0  0  0  0
   11.6553  -19.5229   27.0966 O   0  0  0  0  0  0  0  0  0  0  0  0
   11.8054  -19.4509   25.7314 O   0  0  0  0  0  0  0  0  0  0  0  0
  2  3  2  0
  2  1  1  0
  4  2  1  0
  5  4  1  0
  6  5  1  0
  7  6  1  0
  8 10  1  0
  8  7  1  0
  8  9  1  6
 10 17  1  0
 11 10  2  0
 13 12  1  0
 14 13  2  0
 15 13  1  0
 16 17  1  0
 16 15  1  6
 18 16  1  0
 19 18  2  0
 21 20  1  0
 22 21  1  1
 22 23  1  0
 22 24  1  0
 23 18  1  0
 24 25  1  0
 26 24  2  0
M  END
$$$$
