RNS.pdb
     RDKit          3D

 26 25  0  0  1  0  0  0  0  0999 V2000
    9.1637  -17.1142   12.7461 N   0  0  0  0  0  0  0  0  0  0  0  0
    7.9469  -17.4995   13.3662 C   0  0  0  0  0  0  0  0  0  0  0  0
    6.8323  -16.8578   13.1445 N   0  0  0  0  0  0  0  0  0  0  0  0
    7.9707  -18.6136   14.2465 N   0  0  0  0  0  0  0  0  0  0  0  0
    9.0490  -18.7761   15.2036 C   0  0  0  0  0  0  0  0  0  0  0  0
    9.0427  -17.7018   16.2502 C   0  0  0  0  0  0  0  0  0  0  0  0
   10.0944  -17.8803   17.2959 C   0  0  0  0  0  0  0  0  0  0  0  0
    9.5501  -17.9635   18.6990 C   0  0  2  0  0  0  0  0  0  0  0  0
    8.2006  -18.4134   18.7681 N   0  0  0  0  0  0  0  0  0  0  0  0
    9.8204  -16.7455   19.4775 C   0  0  0  0  0  0  0  0  0  0  0  0
   11.0074  -16.2771   19.4969 O   0  0  0  0  0  0  0  0  0  0  0  0
    5.9642  -17.2084   13.5901 N   0  0  0  0  0  0  0  0  0  0  0  0
    6.7197  -12.7809   19.0326 C   0  0  0  0  0  0  0  0  0  0  0  0
    8.0282  -13.0966   19.5903 O   0  0  0  0  0  0  0  0  0  0  0  0
    9.0392  -12.6698   18.9789 C   0  0  0  0  0  0  0  0  0  0  0  0
    8.0264  -13.8833   20.8122 C   0  0  2  0  0  0  0  0  0  0  0  0
    9.1619  -14.8239   21.0042 N   0  0  0  0  0  0  0  0  0  0  0  0
    8.8309  -16.0591   20.2114 C   0  0  0  0  0  0  0  0  0  0  0  0
    9.2754  -15.3224   22.4042 O   0  0  0  0  0  0  0  0  0  0  0  0
    8.1917  -15.3934   23.1127 O   0  0  0  0  0  0  0  0  0  0  0  0
   10.1579  -18.6302   23.7106 C   0  0  0  0  0  0  0  0  0  0  0  0
    9.4739  -17.5572   24.2724 C   0  0  1  0  0  0  0  0  0  0  0  0
   10.3684  -16.3422   24.4297 N   0  0  0  0  0  0  0  0  0  0  0  0
   10.4363  -15.7436   23.0759 C   0  0  0  0  0  0  0  0  0  0  0  0
   11.6912  -16.8350   24.8422 O   0  0  0  0  0  0  0  0  0  0  0  0
   12.7609  -16.7264   23.9845 O   0  0  0  0  0  0  0  0  0  0  0  0
  2  3  2  0
  2  1  1  0
  4  2  1  0
  5  4  1  0
  6  5  1  0
  7  6  1  0
  8 10  1  0
  8  7  1  0
  8  9  1  6
 10 17  1  0
 11 10  2  0
 13 12  1  0
 14 13  2  0
 15 13  1  0
 16 17  1  0
 16 15  1  6
 18 16  1  0
 19 18  2  0
 21 20  1  0
 22 21  1  1
 22 23  1  0
 22 24  1  0
 23 18  1  0
 24 25  1  0
 26 24  2  0
M  END
$$$$
