RNS.pdb
     RDKit          3D

 26 25  0  0  1  0  0  0  0  0999 V2000
    9.1804  -13.3918   16.9553 N   0  0  0  0  0  0  0  0  0  0  0  0
    8.4457  -13.0646   18.1244 C   0  0  0  0  0  0  0  0  0  0  0  0
    8.5481  -11.8938   18.6921 N   0  0  0  0  0  0  0  0  0  0  0  0
    7.5861  -14.0543   18.6705 N   0  0  0  0  0  0  0  0  0  0  0  0
    7.9128  -14.7059   19.9250 C   0  0  0  0  0  0  0  0  0  0  0  0
    6.8836  -14.4428   20.9837 C   0  0  0  0  0  0  0  0  0  0  0  0
    7.2104  -15.0642   22.3022 C   0  0  0  0  0  0  0  0  0  0  0  0
    7.5625  -16.5272   22.2154 C   0  0  2  0  0  0  0  0  0  0  0  0
    6.4800  -17.3573   21.8064 N   0  0  0  0  0  0  0  0  0  0  0  0
    8.2699  -17.0049   23.4129 C   0  0  0  0  0  0  0  0  0  0  0  0
    7.5875  -17.4495   24.3954 O   0  0  0  0  0  0  0  0  0  0  0  0
    8.0121  -11.7191   19.5622 N   0  0  0  0  0  0  0  0  0  0  0  0
   13.8735  -18.6767   25.1818 C   0  0  0  0  0  0  0  0  0  0  0  0
   12.4471  -18.6295   25.4750 O   0  0  0  0  0  0  0  0  0  0  0  0
   12.0748  -19.0073   26.6137 C   0  0  0  0  0  0  0  0  0  0  0  0
   11.5929  -18.1439   24.4043 C   0  0  2  0  0  0  0  0  0  0  0  0
   10.3483  -17.4380   24.8091 N   0  0  0  0  0  0  0  0  0  0  0  0
    9.6747  -16.9989   23.5374 C   0  0  0  0  0  0  0  0  0  0  0  0
   10.6112  -16.1598   25.5292 O   0  0  0  0  0  0  0  0  0  0  0  0
   11.4016  -15.2986   24.9679 O   0  0  0  0  0  0  0  0  0  0  0  0
    8.5575  -13.8271   27.6292 C   0  0  0  0  0  0  0  0  0  0  0  0
    9.9051  -13.5015   27.5147 C   0  0  1  0  0  0  0  0  0  0  0  0
   10.7883  -14.7321   27.5951 N   0  0  0  0  0  0  0  0  0  0  0  0
   10.0954  -15.7506   26.7712 C   0  0  0  0  0  0  0  0  0  0  0  0
   10.8197  -15.1452   29.0061 O   0  0  0  0  0  0  0  0  0  0  0  0
   10.3841  -16.4001   29.3627 O   0  0  0  0  0  0  0  0  0  0  0  0
  2  3  2  0
  2  1  1  0
  4  2  1  0
  5  4  1  0
  6  5  1  0
  7  6  1  0
  8 10  1  0
  8  7  1  0
  8  9  1  1
 10 17  1  0
 11 10  2  0
 13 12  1  0
 14 13  2  0
 15 13  1  0
 16 17  1  0
 16 15  1  6
 18 16  1  0
 19 18  2  0
 21 20  1  0
 22 21  1  6
 22 23  1  0
 22 24  1  0
 23 18  1  0
 24 25  1  0
 26 24  2  0
M  END
$$$$
