RNS.pdb
     RDKit          3D

 26 25  0  0  1  0  0  0  0  0999 V2000
   15.8289  -13.5707   18.9095 N   0  0  0  0  0  0  0  0  0  0  0  0
   16.0850  -13.2953   17.5412 C   0  0  0  0  0  0  0  0  0  0  0  0
   17.1551  -12.6522   17.1608 N   0  0  0  0  0  0  0  0  0  0  0  0
   15.1365  -13.7403   16.5826 N   0  0  0  0  0  0  0  0  0  0  0  0
   14.4912  -15.0319   16.7262 C   0  0  0  0  0  0  0  0  0  0  0  0
   13.1590  -14.9260   17.4069 C   0  0  0  0  0  0  0  0  0  0  0  0
   12.6038  -16.2428   17.8416 C   0  0  0  0  0  0  0  0  0  0  0  0
   13.5834  -17.0933   18.6089 C   0  0  2  0  0  0  0  0  0  0  0  0
   14.5224  -17.7769   17.7847 N   0  0  0  0  0  0  0  0  0  0  0  0
   12.9219  -17.9479   19.6061 C   0  0  0  0  0  0  0  0  0  0  0  0
   12.0893  -17.4191   20.4159 O   0  0  0  0  0  0  0  0  0  0  0  0
   17.2418  -12.3859   16.1625 N   0  0  0  0  0  0  0  0  0  0  0  0
   11.1462  -23.4202   20.8423 C   0  0  0  0  0  0  0  0  0  0  0  0
   12.2408  -22.5944   21.3348 O   0  0  0  0  0  0  0  0  0  0  0  0
   12.6562  -22.8140   22.4997 C   0  0  0  0  0  0  0  0  0  0  0  0
   12.7439  -21.5891   20.4138 C   0  0  1  0  0  0  0  0  0  0  0  0
   12.4276  -20.1716   20.7322 N   0  0  0  0  0  0  0  0  0  0  0  0
   13.1587  -19.3337   19.7188 C   0  0  0  0  0  0  0  0  0  0  0  0
   12.9967  -19.7261   22.0357 O   0  0  0  0  0  0  0  0  0  0  0  0
   13.6545  -18.6088   22.0604 O   0  0  0  0  0  0  0  0  0  0  0  0
   10.9547  -18.1955   25.4428 C   0  0  0  0  0  0  0  0  0  0  0  0
   11.3227  -18.9505   24.3340 C   0  0  1  0  0  0  0  0  0  0  0  0
   12.6733  -19.6129   24.5297 N   0  0  0  0  0  0  0  0  0  0  0  0
   12.9069  -20.3741   23.2799 C   0  0  0  0  0  0  0  0  0  0  0  0
   12.5397  -20.5280   25.6731 O   0  0  0  0  0  0  0  0  0  0  0  0
   13.1096  -20.2023   26.8818 O   0  0  0  0  0  0  0  0  0  0  0  0
  2  3  2  0
  2  1  1  0
  4  2  1  0
  5  4  1  0
  6  5  1  0
  7  6  1  0
  8 10  1  0
  8  7  1  0
  8  9  1  6
 10 17  1  0
 11 10  2  0
 13 12  1  0
 14 13  2  0
 15 13  1  0
 16 17  1  0
 16 15  1  6
 18 16  1  0
 19 18  2  0
 21 20  1  0
 22 21  1  6
 22 23  1  0
 22 24  1  0
 23 18  1  0
 24 25  1  0
 26 24  2  0
M  END
$$$$
