RNS.pdb
     RDKit          3D

 26 25  0  0  1  0  0  0  0  0999 V2000
    8.8737  -15.1030   16.6168 N   0  0  0  0  0  0  0  0  0  0  0  0
    8.2396  -13.8765   16.9447 C   0  0  0  0  0  0  0  0  0  0  0  0
    7.9755  -12.9779   16.0358 N   0  0  0  0  0  0  0  0  0  0  0  0
    7.8958  -13.6460   18.3031 N   0  0  0  0  0  0  0  0  0  0  0  0
    7.8899  -14.7373   19.2592 C   0  0  0  0  0  0  0  0  0  0  0  0
    6.7378  -14.6454   20.2151 C   0  0  0  0  0  0  0  0  0  0  0  0
    7.1540  -14.4316   21.6336 C   0  0  0  0  0  0  0  0  0  0  0  0
    7.7847  -15.6425   22.2722 C   0  0  2  0  0  0  0  0  0  0  0  0
    6.9298  -16.7807   22.3191 N   0  0  0  0  0  0  0  0  0  0  0  0
    8.4369  -15.3251   23.5515 C   0  0  0  0  0  0  0  0  0  0  0  0
    9.4208  -14.5123   23.5568 O   0  0  0  0  0  0  0  0  0  0  0  0
    7.5414  -12.0855   16.3361 N   0  0  0  0  0  0  0  0  0  0  0  0
    6.0391  -13.1448   26.5128 C   0  0  0  0  0  0  0  0  0  0  0  0
    7.4369  -13.4903   26.7353 O   0  0  0  0  0  0  0  0  0  0  0  0
    8.2761  -12.5557   26.7219 C   0  0  0  0  0  0  0  0  0  0  0  0
    7.7175  -14.8997   26.9519 C   0  0  2  0  0  0  0  0  0  0  0  0
    8.7372  -15.5227   26.0670 N   0  0  0  0  0  0  0  0  0  0  0  0
    8.0317  -15.8746   24.7856 C   0  0  0  0  0  0  0  0  0  0  0  0
    9.2245  -16.8367   26.5745 O   0  0  0  0  0  0  0  0  0  0  0  0
    8.3492  -17.7722   26.7746 O   0  0  0  0  0  0  0  0  0  0  0  0
   12.8935  -18.0960   26.2153 C   0  0  0  0  0  0  0  0  0  0  0  0
   11.9739  -19.0832   26.5542 C   0  0  1  0  0  0  0  0  0  0  0  0
   10.8665  -18.5390   27.4366 N   0  0  0  0  0  0  0  0  0  0  0  0
   10.5481  -17.2081   26.8680 C   0  0  0  0  0  0  0  0  0  0  0  0
   11.4260  -18.4009   28.7896 O   0  0  0  0  0  0  0  0  0  0  0  0
   11.5154  -17.1575   29.3705 O   0  0  0  0  0  0  0  0  0  0  0  0
  2  3  2  0
  2  1  1  0
  4  2  1  0
  5  4  1  0
  6  5  1  0
  7  6  1  0
  8 10  1  0
  8  7  1  0
  8  9  1  1
 10 17  1  0
 11 10  2  0
 13 12  1  0
 14 13  2  0
 15 13  1  0
 16 17  1  0
 16 15  1  6
 18 16  1  0
 19 18  2  0
 21 20  1  0
 22 21  1  6
 22 23  1  0
 22 24  1  0
 23 18  1  0
 24 25  1  0
 26 24  2  0
M  END
$$$$
