RNS.pdb
     RDKit          3D

 26 25  0  0  1  0  0  0  0  0999 V2000
    6.9848  -19.7326   14.4802 N   0  0  0  0  0  0  0  0  0  0  0  0
    5.9723  -18.7393   14.4365 C   0  0  0  0  0  0  0  0  0  0  0  0
    5.6184  -18.1711   13.3161 N   0  0  0  0  0  0  0  0  0  0  0  0
    5.3455  -18.3720   15.6567 N   0  0  0  0  0  0  0  0  0  0  0  0
    5.5991  -19.1219   16.8726 C   0  0  0  0  0  0  0  0  0  0  0  0
    4.9055  -20.4517   16.8718 C   0  0  0  0  0  0  0  0  0  0  0  0
    5.0749  -21.2147   18.1447 C   0  0  0  0  0  0  0  0  0  0  0  0
    3.8022  -21.3663   18.9378 C   0  0  2  0  0  0  0  0  0  0  0  0
    2.7184  -20.5855   18.4436 N   0  0  0  0  0  0  0  0  0  0  0  0
    4.0261  -21.2390   20.3857 C   0  0  0  0  0  0  0  0  0  0  0  0
    3.7110  -20.1460   20.9643 O   0  0  0  0  0  0  0  0  0  0  0  0
    4.8630  -17.4613   13.3401 N   0  0  0  0  0  0  0  0  0  0  0  0
    5.0914  -22.3761   25.3930 C   0  0  0  0  0  0  0  0  0  0  0  0
    4.6786  -23.5855   24.6931 O   0  0  0  0  0  0  0  0  0  0  0  0
    4.4865  -24.6186   25.3813 C   0  0  0  0  0  0  0  0  0  0  0  0
    4.5306  -23.4679   23.2522 C   0  0  2  0  0  0  0  0  0  0  0  0
    4.7203  -22.1137   22.6682 N   0  0  0  0  0  0  0  0  0  0  0  0
    4.5754  -22.2678   21.1786 C   0  0  0  0  0  0  0  0  0  0  0  0
    6.1076  -21.5955   22.8365 O   0  0  0  0  0  0  0  0  0  0  0  0
    7.0264  -22.0529   22.0440 O   0  0  0  0  0  0  0  0  0  0  0  0
    9.1354  -18.1617   24.3911 C   0  0  0  0  0  0  0  0  0  0  0  0
    7.8813  -18.6979   24.1174 C   0  0  1  0  0  0  0  0  0  0  0  0
    7.9670  -20.1684   23.7548 N   0  0  0  0  0  0  0  0  0  0  0  0
    6.5635  -20.6439   23.7653 C   0  0  0  0  0  0  0  0  0  0  0  0
    8.7421  -20.8268   24.8170 O   0  0  0  0  0  0  0  0  0  0  0  0
   10.1162  -20.7729   24.7965 O   0  0  0  0  0  0  0  0  0  0  0  0
  2  3  2  0
  2  1  1  0
  4  2  1  0
  5  4  1  0
  6  5  1  0
  7  6  1  0
  8 10  1  0
  8  7  1  0
  8  9  1  6
 10 17  1  0
 11 10  2  0
 13 12  1  0
 14 13  2  0
 15 13  1  0
 16 17  1  0
 16 15  1  1
 18 16  1  0
 19 18  2  0
 21 20  1  0
 22 21  1  6
 22 23  1  0
 22 24  1  0
 23 18  1  0
 24 25  1  0
 26 24  2  0
M  END
$$$$
