RNS.pdb
     RDKit          3D

 26 25  0  0  1  0  0  0  0  0999 V2000
    8.5590  -13.9798   17.7632 N   0  0  0  0  0  0  0  0  0  0  0  0
    8.5123  -12.9131   18.6978 C   0  0  0  0  0  0  0  0  0  0  0  0
    9.2512  -11.8465   18.5570 N   0  0  0  0  0  0  0  0  0  0  0  0
    7.6321  -13.0352   19.8055 N   0  0  0  0  0  0  0  0  0  0  0  0
    6.9106  -14.2714   20.0431 C   0  0  0  0  0  0  0  0  0  0  0  0
    7.8225  -15.4618   20.0716 C   0  0  0  0  0  0  0  0  0  0  0  0
    8.0633  -15.9972   21.4451 C   0  0  0  0  0  0  0  0  0  0  0  0
    9.4422  -15.7056   21.9793 C   0  0  2  0  0  0  0  0  0  0  0  0
   10.4921  -16.0327   21.0744 N   0  0  0  0  0  0  0  0  0  0  0  0
    9.6364  -16.2248   23.3414 C   0  0  0  0  0  0  0  0  0  0  0  0
    8.7159  -16.0445   24.2068 O   0  0  0  0  0  0  0  0  0  0  0  0
    9.2424  -11.1370   19.3131 N   0  0  0  0  0  0  0  0  0  0  0  0
   10.7674  -19.9235   23.9655 C   0  0  0  0  0  0  0  0  0  0  0  0
   12.0582  -19.5973   24.5571 O   0  0  0  0  0  0  0  0  0  0  0  0
   12.9624  -20.4671   24.4959 C   0  0  0  0  0  0  0  0  0  0  0  0
   12.1656  -18.2815   25.1647 C   0  0  2  0  0  0  0  0  0  0  0  0
   10.9417  -17.4372   25.1534 N   0  0  0  0  0  0  0  0  0  0  0  0
   10.7950  -16.9180   23.7489 C   0  0  0  0  0  0  0  0  0  0  0  0
   11.0789  -16.2010   25.9746 O   0  0  0  0  0  0  0  0  0  0  0  0
   12.0745  -15.4104   25.7193 O   0  0  0  0  0  0  0  0  0  0  0  0
    8.3802  -14.0913   27.5389 C   0  0  0  0  0  0  0  0  0  0  0  0
    9.6560  -13.5878   27.7711 C   0  0  1  0  0  0  0  0  0  0  0  0
   10.6728  -14.6986   27.9533 N   0  0  0  0  0  0  0  0  0  0  0  0
   10.2430  -15.7635   27.0167 C   0  0  0  0  0  0  0  0  0  0  0  0
   10.5585  -15.1596   29.3452 O   0  0  0  0  0  0  0  0  0  0  0  0
   10.8123  -14.2883   30.3786 O   0  0  0  0  0  0  0  0  0  0  0  0
  2  3  2  0
  2  1  1  0
  4  2  1  0
  5  4  1  0
  6  5  1  0
  7  6  1  0
  8 10  1  0
  8  7  1  0
  8  9  1  6
 10 17  1  0
 11 10  2  0
 13 12  1  0
 14 13  2  0
 15 13  1  0
 16 17  1  0
 16 15  1  6
 18 16  1  0
 19 18  2  0
 21 20  1  0
 22 21  1  6
 22 23  1  0
 22 24  1  0
 23 18  1  0
 24 25  1  0
 26 24  2  0
M  END
$$$$
