RNS.pdb
     RDKit          3D

 26 25  0  0  1  0  0  0  0  0999 V2000
    9.1274  -15.0368   16.9728 N   0  0  0  0  0  0  0  0  0  0  0  0
    8.7076  -13.7466   17.3883 C   0  0  0  0  0  0  0  0  0  0  0  0
    7.7201  -13.1261   16.8022 N   0  0  0  0  0  0  0  0  0  0  0  0
    9.3968  -13.1373   18.4701 N   0  0  0  0  0  0  0  0  0  0  0  0
    9.3195  -13.6991   19.8056 C   0  0  0  0  0  0  0  0  0  0  0  0
    7.9765  -14.3044   20.0876 C   0  0  0  0  0  0  0  0  0  0  0  0
    7.8683  -14.9108   21.4484 C   0  0  0  0  0  0  0  0  0  0  0  0
    8.3042  -16.3524   21.5091 C   0  0  2  0  0  0  0  0  0  0  0  0
    7.4579  -17.2414   20.7868 N   0  0  0  0  0  0  0  0  0  0  0  0
    8.6068  -16.7886   22.8805 C   0  0  0  0  0  0  0  0  0  0  0  0
    7.6949  -17.3710   23.5574 O   0  0  0  0  0  0  0  0  0  0  0  0
    7.4580  -12.1829   17.1439 N   0  0  0  0  0  0  0  0  0  0  0  0
   13.3781  -18.3650   26.2346 C   0  0  0  0  0  0  0  0  0  0  0  0
   11.9282  -18.3528   26.0923 O   0  0  0  0  0  0  0  0  0  0  0  0
   11.2459  -18.7855   27.0542 C   0  0  0  0  0  0  0  0  0  0  0  0
   11.4164  -17.8344   24.8348 C   0  0  2  0  0  0  0  0  0  0  0  0
   10.1303  -17.0902   24.8917 N   0  0  0  0  0  0  0  0  0  0  0  0
    9.8612  -16.5971   23.4959 C   0  0  0  0  0  0  0  0  0  0  0  0
   10.2159  -15.8395   25.6979 O   0  0  0  0  0  0  0  0  0  0  0  0
   11.1155  -14.9657   25.3684 O   0  0  0  0  0  0  0  0  0  0  0  0
    7.7319  -13.4582   26.5258 C   0  0  0  0  0  0  0  0  0  0  0  0
    8.4056  -13.5391   27.7401 C   0  0  2  0  0  0  0  0  0  0  0  0
    9.7321  -14.2613   27.5985 N   0  0  0  0  0  0  0  0  0  0  0  0
    9.4226  -15.4691   26.7976 C   0  0  0  0  0  0  0  0  0  0  0  0
   10.1613  -14.6379   28.9538 O   0  0  0  0  0  0  0  0  0  0  0  0
   10.4477  -13.6606   29.8782 O   0  0  0  0  0  0  0  0  0  0  0  0
  2  3  2  0
  2  1  1  0
  4  2  1  0
  5  4  1  0
  6  5  1  0
  7  6  1  0
  8 10  1  0
  8  7  1  0
  8  9  1  1
 10 17  1  0
 11 10  2  0
 13 12  1  0
 14 13  2  0
 15 13  1  0
 16 17  1  0
 16 15  1  6
 18 16  1  0
 19 18  2  0
 21 20  1  0
 22 21  1  6
 22 23  1  0
 22 24  1  0
 23 18  1  0
 24 25  1  0
 26 24  2  0
M  END
$$$$
