RNS.pdb
     RDKit          3D

 26 25  0  0  1  0  0  0  0  0999 V2000
    8.8317  -13.6284   14.9180 N   0  0  0  0  0  0  0  0  0  0  0  0
    9.0992  -13.7838   16.3029 C   0  0  0  0  0  0  0  0  0  0  0  0
    9.3196  -12.7565   17.0772 N   0  0  0  0  0  0  0  0  0  0  0  0
    9.1234  -15.1008   16.8337 N   0  0  0  0  0  0  0  0  0  0  0  0
    9.3342  -16.2437   15.9651 C   0  0  0  0  0  0  0  0  0  0  0  0
    9.4182  -17.5294   16.7327 C   0  0  0  0  0  0  0  0  0  0  0  0
   10.7525  -17.7636   17.3618 C   0  0  0  0  0  0  0  0  0  0  0  0
   10.7877  -17.4746   18.8407 C   0  0  2  0  0  0  0  0  0  0  0  0
    9.8197  -16.5199   19.2647 N   0  0  0  0  0  0  0  0  0  0  0  0
   12.1499  -17.2091   19.3271 C   0  0  0  0  0  0  0  0  0  0  0  0
   13.0463  -18.1034   19.1682 O   0  0  0  0  0  0  0  0  0  0  0  0
    9.6477  -12.9300   18.0453 N   0  0  0  0  0  0  0  0  0  0  0  0
   13.4409  -13.1730   18.2357 C   0  0  0  0  0  0  0  0  0  0  0  0
   14.4049  -14.1450   18.7344 O   0  0  0  0  0  0  0  0  0  0  0  0
   15.2122  -14.6395   17.9087 C   0  0  0  0  0  0  0  0  0  0  0  0
   14.3302  -14.4447   20.1544 C   0  0  2  0  0  0  0  0  0  0  0  0
   13.9082  -15.8211   20.5266 N   0  0  0  0  0  0  0  0  0  0  0  0
   12.5247  -16.0089   19.9660 C   0  0  0  0  0  0  0  0  0  0  0  0
   13.7214  -15.9964   21.9948 O   0  0  0  0  0  0  0  0  0  0  0  0
   14.7165  -15.7024   22.7724 O   0  0  0  0  0  0  0  0  0  0  0  0
   10.8749  -16.0139   25.8566 C   0  0  0  0  0  0  0  0  0  0  0  0
   11.0976  -16.0266   24.4835 C   0  0  1  0  0  0  0  0  0  0  0  0
   12.5079  -16.4736   24.1482 N   0  0  0  0  0  0  0  0  0  0  0  0
   12.5723  -16.4466   22.6680 C   0  0  0  0  0  0  0  0  0  0  0  0
   12.6501  -17.8504   24.6451 O   0  0  0  0  0  0  0  0  0  0  0  0
   12.4283  -18.9110   23.7980 O   0  0  0  0  0  0  0  0  0  0  0  0
  2  3  2  0
  2  1  1  0
  4  2  1  0
  5  4  1  0
  6  5  1  0
  7  6  1  0
  8 10  1  0
  8  7  1  0
  8  9  1  6
 10 17  1  0
 11 10  2  0
 13 12  1  0
 14 13  2  0
 15 13  1  0
 16 17  1  0
 16 15  1  6
 18 16  1  0
 19 18  2  0
 21 20  1  0
 22 21  1  1
 22 23  1  0
 22 24  1  0
 23 18  1  0
 24 25  1  0
 26 24  2  0
M  END
$$$$
