RNS.pdb
     RDKit          3D

 26 25  0  0  1  0  0  0  0  0999 V2000
   10.2535  -17.7043   15.2761 N   0  0  0  0  0  0  0  0  0  0  0  0
    9.4183  -17.1136   14.2926 C   0  0  0  0  0  0  0  0  0  0  0  0
    9.6416  -17.2769   13.0171 N   0  0  0  0  0  0  0  0  0  0  0  0
    8.3202  -16.3290   14.7342 N   0  0  0  0  0  0  0  0  0  0  0  0
    7.9478  -16.3022   16.1363 C   0  0  0  0  0  0  0  0  0  0  0  0
    7.3590  -17.6047   16.5900 C   0  0  0  0  0  0  0  0  0  0  0  0
    8.0799  -18.2156   17.7469 C   0  0  0  0  0  0  0  0  0  0  0  0
    7.5646  -17.7679   19.0907 C   0  0  2  0  0  0  0  0  0  0  0  0
    6.2368  -17.2537   19.0569 N   0  0  0  0  0  0  0  0  0  0  0  0
    8.5252  -16.9109   19.8016 C   0  0  0  0  0  0  0  0  0  0  0  0
    9.7385  -17.2943   19.8994 O   0  0  0  0  0  0  0  0  0  0  0  0
    9.0230  -16.7908   12.3418 N   0  0  0  0  0  0  0  0  0  0  0  0
    8.9440  -12.2750   18.5325 C   0  0  0  0  0  0  0  0  0  0  0  0
    9.7157  -13.0331   19.5085 O   0  0  0  0  0  0  0  0  0  0  0  0
   10.9214  -13.2648   19.2431 C   0  0  0  0  0  0  0  0  0  0  0  0
    8.9994  -13.4478   20.7030 C   0  0  2  0  0  0  0  0  0  0  0  0
    9.1880  -14.8560   21.1415 N   0  0  0  0  0  0  0  0  0  0  0  0
    8.1768  -15.6762   20.3875 C   0  0  0  0  0  0  0  0  0  0  0  0
    8.8258  -15.0749   22.5706 O   0  0  0  0  0  0  0  0  0  0  0  0
    7.6428  -14.7129   22.9589 O   0  0  0  0  0  0  0  0  0  0  0  0
    8.3337  -17.9944   24.4554 C   0  0  0  0  0  0  0  0  0  0  0  0
    7.9397  -16.7258   24.8683 C   0  0  1  0  0  0  0  0  0  0  0  0
    9.1193  -15.7775   24.9701 N   0  0  0  0  0  0  0  0  0  0  0  0
    9.6195  -15.6442   23.5815 C   0  0  0  0  0  0  0  0  0  0  0  0
   10.1246  -16.4342   25.8191 O   0  0  0  0  0  0  0  0  0  0  0  0
    9.8660  -16.6382   27.1544 O   0  0  0  0  0  0  0  0  0  0  0  0
  2  3  2  0
  2  1  1  0
  4  2  1  0
  5  4  1  0
  6  5  1  0
  7  6  1  0
  8 10  1  0
  8  7  1  0
  8  9  1  6
 10 17  1  0
 11 10  2  0
 13 12  1  0
 14 13  2  0
 15 13  1  0
 16 17  1  0
 16 15  1  6
 18 16  1  0
 19 18  2  0
 21 20  1  0
 22 21  1  6
 22 23  1  0
 22 24  1  0
 23 18  1  0
 24 25  1  0
 26 24  2  0
M  END
$$$$
