MKA.pdb
     RDKit          3D

 23 22  0  0  1  0  0  0  0  0999 V2000
    8.9909  -11.8788   20.3075 C   0  0  0  0  0  0  0  0  0  0  0  0
    7.3065  -12.4691   20.3503 S   0  0  0  0  0  0  0  0  0  0  0  0
    7.0994  -14.1589   19.8145 C   0  0  0  0  0  0  0  0  0  0  0  0
    7.9443  -15.1405   20.5586 C   0  0  0  0  0  0  0  0  0  0  0  0
    7.8848  -16.5161   19.9094 C   0  0  2  0  0  0  0  0  0  0  0  0
    6.5631  -17.0580   19.9008 N   0  0  0  0  0  0  0  0  0  0  0  0
    8.8193  -17.4658   20.5512 C   0  0  0  0  0  0  0  0  0  0  0  0
    8.3668  -18.2548   21.4278 O   0  0  0  0  0  0  0  0  0  0  0  0
   10.2119  -17.5095   20.2032 N   0  0  0  0  0  0  0  0  0  0  0  0
   11.0873  -18.4320   20.8464 C   0  0  1  0  0  0  0  0  0  0  0  0
   12.3305  -18.6254   19.9972 C   0  0  0  0  0  0  0  0  0  0  0  0
   13.2305  -19.6946   20.5843 C   0  0  0  0  0  0  0  0  0  0  0  0
   14.4262  -19.9620   19.7277 C   0  0  0  0  0  0  0  0  0  0  0  0
   15.2434  -21.0580   20.3558 C   0  0  0  0  0  0  0  0  0  0  0  0
   16.4242  -21.3745   19.5901 N   0  0  0  0  0  0  0  0  0  0  0  0
   11.5054  -17.9941   22.2051 C   0  0  0  0  0  0  0  0  0  0  0  0
   12.0766  -16.8830   22.3546 O   0  0  0  0  0  0  0  0  0  0  0  0
   10.8231  -18.8790   25.7978 C   0  0  0  0  0  0  0  0  0  0  0  0
   11.6656  -18.2514   24.7039 C   0  0  2  0  0  0  0  0  0  0  0  0
   11.3011  -18.7625   23.3852 N   0  0  0  0  0  0  0  0  0  0  0  0
   13.1124  -18.4499   24.9085 C   0  0  0  0  0  0  0  0  0  0  0  0
   13.7388  -19.4459   24.4639 O   0  0  0  0  0  0  0  0  0  0  0  0
   13.8529  -17.5176   25.6198 O   0  0  0  0  0  0  0  0  0  0  0  0
  2  3  1  0
  2  1  1  0
  4  5  1  0
  4  3  1  0
  5  6  1  1
  7  8  2  0
  7  5  1  0
  9  7  1  0
 10 11  1  6
 10  9  1  0
 11 12  1  0
 12 13  1  0
 13 14  1  0
 14 15  1  0
 16 10  1  0
 17 16  2  0
 19 18  1  1
 19 20  1  0
 20 16  1  0
 21 19  1  0
 21 23  1  0
 22 21  2  0
M  END
$$$$
