MKA.pdb
     RDKit          3D

 23 22  0  0  1  0  0  0  0  0999 V2000
    4.8991  -10.4854   25.8888 C   0  0  0  0  0  0  0  0  0  0  0  0
    6.2307  -11.6369   26.1856 S   0  0  0  0  0  0  0  0  0  0  0  0
    6.0679  -13.1949   25.3301 C   0  0  0  0  0  0  0  0  0  0  0  0
    7.1963  -14.1429   25.5734 C   0  0  0  0  0  0  0  0  0  0  0  0
    6.9991  -15.4380   24.7982 C   0  0  2  0  0  0  0  0  0  0  0  0
    5.8036  -16.1227   25.1758 N   0  0  0  0  0  0  0  0  0  0  0  0
    8.1643  -16.3390   24.9313 C   0  0  0  0  0  0  0  0  0  0  0  0
    8.1718  -17.1764   25.8770 O   0  0  0  0  0  0  0  0  0  0  0  0
    9.2728  -16.2828   24.0200 N   0  0  0  0  0  0  0  0  0  0  0  0
   10.4840  -16.9738   24.3142 C   0  0  1  0  0  0  0  0  0  0  0  0
   11.4245  -16.8734   23.1270 C   0  0  0  0  0  0  0  0  0  0  0  0
   10.8549  -17.5896   21.9184 C   0  0  0  0  0  0  0  0  0  0  0  0
   11.6981  -17.4010   20.6984 C   0  0  0  0  0  0  0  0  0  0  0  0
   10.9716  -17.9669   19.5087 C   0  0  0  0  0  0  0  0  0  0  0  0
   11.7603  -17.9113   18.3022 N   0  0  0  0  0  0  0  0  0  0  0  0
   11.1824  -16.4471   25.5173 C   0  0  0  0  0  0  0  0  0  0  0  0
   12.1396  -15.6419   25.3810 O   0  0  0  0  0  0  0  0  0  0  0  0
   10.7795  -15.0018   28.5366 C   0  0  0  0  0  0  0  0  0  0  0  0
   11.5244  -16.2090   27.9997 C   0  0  2  0  0  0  0  0  0  0  0  0
   10.8377  -16.7973   26.8527 N   0  0  0  0  0  0  0  0  0  0  0  0
   11.7323  -17.2549   29.0182 C   0  0  0  0  0  0  0  0  0  0  0  0
   12.3497  -17.0520   30.0951 O   0  0  0  0  0  0  0  0  0  0  0  0
   11.2397  -18.5356   28.8167 O   0  0  0  0  0  0  0  0  0  0  0  0
  2  3  1  0
  2  1  1  0
  4  5  1  0
  4  3  1  0
  5  6  1  1
  7  8  2  0
  7  5  1  0
  9  7  1  0
 10 11  1  6
 10  9  1  0
 11 12  1  0
 12 13  1  0
 13 14  1  0
 14 15  1  0
 16 10  1  0
 17 16  2  0
 19 18  1  1
 19 20  1  0
 20 16  1  0
 21 19  1  0
 21 23  1  0
 22 21  2  0
M  END
$$$$
