MKA.pdb
     RDKit          3D

 23 22  0  0  1  0  0  0  0  0999 V2000
    5.7223  -11.3243   26.4013 C   0  0  0  0  0  0  0  0  0  0  0  0
    6.9098  -12.3284   27.2782 S   0  0  0  0  0  0  0  0  0  0  0  0
    6.3625  -13.9918   27.6236 C   0  0  0  0  0  0  0  0  0  0  0  0
    6.1315  -14.8215   26.4033 C   0  0  0  0  0  0  0  0  0  0  0  0
    7.4478  -15.3214   25.8247 C   0  0  2  0  0  0  0  0  0  0  0  0
    8.5324  -14.4297   26.0875 N   0  0  0  0  0  0  0  0  0  0  0  0
    7.3443  -15.5816   24.3726 C   0  0  0  0  0  0  0  0  0  0  0  0
    6.5788  -16.5068   23.9806 O   0  0  0  0  0  0  0  0  0  0  0  0
    8.0859  -14.8145   23.4113 N   0  0  0  0  0  0  0  0  0  0  0  0
    8.1050  -15.2015   22.0399 C   0  0  1  0  0  0  0  0  0  0  0  0
    8.2012  -13.9638   21.1665 C   0  0  0  0  0  0  0  0  0  0  0  0
    8.0695  -14.3207   19.6991 C   0  0  0  0  0  0  0  0  0  0  0  0
    8.1368  -13.1170   18.8149 C   0  0  0  0  0  0  0  0  0  0  0  0
    7.9656  -13.5502   17.3843 C   0  0  0  0  0  0  0  0  0  0  0  0
    7.9071  -12.4339   16.4726 N   0  0  0  0  0  0  0  0  0  0  0  0
    9.2347  -16.1083   21.7020 C   0  0  0  0  0  0  0  0  0  0  0  0
    9.2525  -16.6956   20.5894 O   0  0  0  0  0  0  0  0  0  0  0  0
   12.6509  -16.8111   21.8743 C   0  0  0  0  0  0  0  0  0  0  0  0
   11.3141  -17.4072   22.2720 C   0  0  2  0  0  0  0  0  0  0  0  0
   10.3309  -16.3693   22.5709 N   0  0  0  0  0  0  0  0  0  0  0  0
   11.4126  -18.3172   23.4282 C   0  0  0  0  0  0  0  0  0  0  0  0
   10.7170  -18.1849   24.4677 O   0  0  0  0  0  0  0  0  0  0  0  0
   12.3025  -19.3807   23.4076 O   0  0  0  0  0  0  0  0  0  0  0  0
  2  3  1  0
  2  1  1  0
  4  5  1  0
  4  3  1  0
  5  6  1  6
  7  8  2  0
  7  5  1  0
  9  7  1  0
 10 11  1  6
 10  9  1  0
 11 12  1  0
 12 13  1  0
 13 14  1  0
 14 15  1  0
 16 10  1  0
 17 16  2  0
 19 18  1  1
 19 20  1  0
 20 16  1  0
 21 19  1  0
 21 23  1  0
 22 21  2  0
M  END
$$$$
