MKA.pdb
     RDKit          3D

 23 22  0  0  1  0  0  0  0  0999 V2000
    6.4425  -11.1757   27.0751 C   0  0  0  0  0  0  0  0  0  0  0  0
    5.6379  -10.9936   25.4918 S   0  0  0  0  0  0  0  0  0  0  0  0
    6.1338  -12.1925   24.2661 C   0  0  0  0  0  0  0  0  0  0  0  0
    6.5393  -13.5123   24.8360 C   0  0  0  0  0  0  0  0  0  0  0  0
    7.6819  -14.1246   24.0380 C   0  0  2  0  0  0  0  0  0  0  0  0
    7.3104  -14.4163   22.6899 N   0  0  0  0  0  0  0  0  0  0  0  0
    8.2178  -15.3383   24.6914 C   0  0  0  0  0  0  0  0  0  0  0  0
    7.7925  -15.6391   25.8422 O   0  0  0  0  0  0  0  0  0  0  0  0
    9.1985  -16.1712   24.0535 N   0  0  0  0  0  0  0  0  0  0  0  0
    9.8476  -17.2091   24.7831 C   0  0  1  0  0  0  0  0  0  0  0  0
   10.7662  -17.9819   23.8542 C   0  0  0  0  0  0  0  0  0  0  0  0
   11.3686  -19.1819   24.5577 C   0  0  0  0  0  0  0  0  0  0  0  0
   12.2656  -19.9733   23.6610 C   0  0  0  0  0  0  0  0  0  0  0  0
   12.8586  -21.1132   24.4437 C   0  0  0  0  0  0  0  0  0  0  0  0
   13.6646  -21.9852   23.6246 N   0  0  0  0  0  0  0  0  0  0  0  0
   10.6491  -16.7063   25.9310 C   0  0  0  0  0  0  0  0  0  0  0  0
   11.7346  -16.1064   25.7193 O   0  0  0  0  0  0  0  0  0  0  0  0
   10.4080  -15.2381   29.1421 C   0  0  0  0  0  0  0  0  0  0  0  0
   11.0998  -16.3537   28.3822 C   0  0  2  0  0  0  0  0  0  0  0  0
   10.2674  -16.8583   27.2934 N   0  0  0  0  0  0  0  0  0  0  0  0
   11.4882  -17.4827   29.2476 C   0  0  0  0  0  0  0  0  0  0  0  0
   12.2726  -17.3621   30.2233 O   0  0  0  0  0  0  0  0  0  0  0  0
   10.9869  -18.7533   29.0071 O   0  0  0  0  0  0  0  0  0  0  0  0
  2  3  1  0
  2  1  1  0
  4  5  1  0
  4  3  1  0
  5  6  1  6
  7  8  2  0
  7  5  1  0
  9  7  1  0
 10 11  1  6
 10  9  1  0
 11 12  1  0
 12 13  1  0
 13 14  1  0
 14 15  1  0
 16 10  1  0
 17 16  2  0
 19 18  1  1
 19 20  1  0
 20 16  1  0
 21 19  1  0
 21 23  1  0
 22 21  2  0
M  END
$$$$
