MKA.pdb
     RDKit          3D

 23 22  0  0  1  0  0  0  0  0999 V2000
    5.4219  -11.8051   27.3216 C   0  0  0  0  0  0  0  0  0  0  0  0
    7.0509  -12.0472   26.6321 S   0  0  0  0  0  0  0  0  0  0  0  0
    7.4173  -13.7318   26.1702 C   0  0  0  0  0  0  0  0  0  0  0  0
    6.2368  -14.4934   25.6625 C   0  0  0  0  0  0  0  0  0  0  0  0
    6.6013  -15.9449   25.3838 C   0  0  2  0  0  0  0  0  0  0  0  0
    7.3480  -16.5338   26.4497 N   0  0  0  0  0  0  0  0  0  0  0  0
    7.3353  -16.0903   24.1082 C   0  0  0  0  0  0  0  0  0  0  0  0
    7.1810  -17.1533   23.4436 O   0  0  0  0  0  0  0  0  0  0  0  0
    8.2083  -15.0618   23.6156 N   0  0  0  0  0  0  0  0  0  0  0  0
    8.8402  -15.1994   22.3457 C   0  0  1  0  0  0  0  0  0  0  0  0
    8.9780  -13.8332   21.6988 C   0  0  0  0  0  0  0  0  0  0  0  0
    7.9286  -13.6309   20.6238 C   0  0  0  0  0  0  0  0  0  0  0  0
    8.5332  -13.4528   19.2681 C   0  0  0  0  0  0  0  0  0  0  0  0
    7.4306  -13.2816   18.2589 C   0  0  0  0  0  0  0  0  0  0  0  0
    7.9298  -13.1566   16.9114 N   0  0  0  0  0  0  0  0  0  0  0  0
   10.1881  -15.8235   22.4258 C   0  0  0  0  0  0  0  0  0  0  0  0
   10.8816  -15.9472   21.3833 O   0  0  0  0  0  0  0  0  0  0  0  0
   13.0390  -16.4548   24.5749 C   0  0  0  0  0  0  0  0  0  0  0  0
   12.0198  -17.0612   23.6295 C   0  0  2  0  0  0  0  0  0  0  0  0
   10.7695  -16.3062   23.6315 N   0  0  0  0  0  0  0  0  0  0  0  0
   11.7240  -18.4735   23.9336 C   0  0  0  0  0  0  0  0  0  0  0  0
   10.5679  -18.8913   24.2000 O   0  0  0  0  0  0  0  0  0  0  0  0
   12.7410  -19.4164   23.9365 O   0  0  0  0  0  0  0  0  0  0  0  0
  2  3  1  0
  2  1  1  0
  4  5  1  0
  4  3  1  0
  5  6  1  1
  7  8  2  0
  7  5  1  0
  9  7  1  0
 10 11  1  1
 10  9  1  0
 11 12  1  0
 12 13  1  0
 13 14  1  0
 14 15  1  0
 16 10  1  0
 17 16  2  0
 19 18  1  1
 19 20  1  0
 20 16  1  0
 21 19  1  0
 21 23  1  0
 22 21  2  0
M  END
$$$$
