MKA.pdb
     RDKit          3D

 23 22  0  0  1  0  0  0  0  0999 V2000
    8.1673  -25.0914   31.6408 C   0  0  0  0  0  0  0  0  0  0  0  0
    8.2243  -24.2672   30.0582 S   0  0  0  0  0  0  0  0  0  0  0  0
    7.0401  -24.8689   28.8660 C   0  0  0  0  0  0  0  0  0  0  0  0
    7.0095  -24.0889   27.5926 C   0  0  0  0  0  0  0  0  0  0  0  0
    6.0029  -24.6781   26.6144 C   0  0  2  0  0  0  0  0  0  0  0  0
    6.0828  -26.1025   26.5419 N   0  0  0  0  0  0  0  0  0  0  0  0
    6.1435  -24.0919   25.2640 C   0  0  0  0  0  0  0  0  0  0  0  0
    6.9957  -24.5921   24.4772 O   0  0  0  0  0  0  0  0  0  0  0  0
    5.3418  -22.9807   24.8338 N   0  0  0  0  0  0  0  0  0  0  0  0
    5.4925  -22.4484   23.5205 C   0  0  1  0  0  0  0  0  0  0  0  0
    4.2201  -21.7245   23.1193 C   0  0  0  0  0  0  0  0  0  0  0  0
    4.2350  -21.3728   21.6448 C   0  0  0  0  0  0  0  0  0  0  0  0
    2.9543  -20.7431   21.1994 C   0  0  0  0  0  0  0  0  0  0  0  0
    3.0293  -20.4737   19.7212 C   0  0  0  0  0  0  0  0  0  0  0  0
    1.8979  -19.7197   19.2392 N   0  0  0  0  0  0  0  0  0  0  0  0
    6.6340  -21.5025   23.3984 C   0  0  0  0  0  0  0  0  0  0  0  0
    6.8454  -20.6586   24.3074 O   0  0  0  0  0  0  0  0  0  0  0  0
    8.2286  -19.1228   22.4392 C   0  0  0  0  0  0  0  0  0  0  0  0
    8.6678  -20.5624   22.2514 C   0  0  2  0  0  0  0  0  0  0  0  0
    7.5326  -21.4802   22.2953 N   0  0  0  0  0  0  0  0  0  0  0  0
    9.6669  -20.9922   23.2472 C   0  0  0  0  0  0  0  0  0  0  0  0
    9.4261  -21.8488   24.1362 O   0  0  0  0  0  0  0  0  0  0  0  0
   10.9433  -20.4499   23.2367 O   0  0  0  0  0  0  0  0  0  0  0  0
  2  3  1  0
  2  1  1  0
  4  5  1  0
  4  3  1  0
  5  6  1  6
  7  8  2  0
  7  5  1  0
  9  7  1  0
 10 11  1  1
 10  9  1  0
 11 12  1  0
 12 13  1  0
 13 14  1  0
 14 15  1  0
 16 10  1  0
 17 16  2  0
 19 18  1  1
 19 20  1  0
 20 16  1  0
 21 19  1  0
 21 23  1  0
 22 21  2  0
M  END
$$$$
