MKA.pdb
     RDKit          3D

 23 22  0  0  1  0  0  0  0  0999 V2000
    7.6445  -11.3332   20.1964 C   0  0  0  0  0  0  0  0  0  0  0  0
    8.0163  -12.6827   19.0883 S   0  0  0  0  0  0  0  0  0  0  0  0
    7.1132  -14.1857   19.4214 C   0  0  0  0  0  0  0  0  0  0  0  0
    6.8322  -14.4178   20.8699 C   0  0  0  0  0  0  0  0  0  0  0  0
    7.8931  -15.3119   21.4963 C   0  0  2  0  0  0  0  0  0  0  0  0
    8.0405  -16.5516   20.8019 N   0  0  0  0  0  0  0  0  0  0  0  0
    7.6236  -15.5609   22.9289 C   0  0  0  0  0  0  0  0  0  0  0  0
    7.0849  -14.6419   23.6079 O   0  0  0  0  0  0  0  0  0  0  0  0
    7.9568  -16.8091   23.5562 N   0  0  0  0  0  0  0  0  0  0  0  0
    7.7721  -16.9834   24.9585 C   0  0  1  0  0  0  0  0  0  0  0  0
    7.7401  -18.4656   25.2839 C   0  0  0  0  0  0  0  0  0  0  0  0
    7.5480  -18.6932   26.7702 C   0  0  0  0  0  0  0  0  0  0  0  0
    7.4367  -20.1445   27.1116 C   0  0  0  0  0  0  0  0  0  0  0  0
    7.1096  -20.2799   28.5739 C   0  0  0  0  0  0  0  0  0  0  0  0
    6.9202  -21.6532   28.9726 N   0  0  0  0  0  0  0  0  0  0  0  0
    8.8379  -16.3424   25.7746 C   0  0  0  0  0  0  0  0  0  0  0  0
   10.0450  -16.6210   25.5548 O   0  0  0  0  0  0  0  0  0  0  0  0
    9.2708  -13.3863   28.0445 C   0  0  0  0  0  0  0  0  0  0  0  0
    9.6743  -14.7603   27.5447 C   0  0  2  0  0  0  0  0  0  0  0  0
    8.5857  -15.4085   26.8181 N   0  0  0  0  0  0  0  0  0  0  0  0
   10.1242  -15.6554   28.6268 C   0  0  0  0  0  0  0  0  0  0  0  0
    9.4967  -16.6908   28.9673 O   0  0  0  0  0  0  0  0  0  0  0  0
   11.2889  -15.3768   29.3263 O   0  0  0  0  0  0  0  0  0  0  0  0
  2  3  1  0
  2  1  1  0
  4  5  1  0
  4  3  1  0
  5  6  1  6
  7  8  2  0
  7  5  1  0
  9  7  1  0
 10 11  1  6
 10  9  1  0
 11 12  1  0
 12 13  1  0
 13 14  1  0
 14 15  1  0
 16 10  1  0
 17 16  2  0
 19 18  1  1
 19 20  1  0
 20 16  1  0
 21 19  1  0
 21 23  1  0
 22 21  2  0
M  END
$$$$
