HQS.pdb
     RDKit          3D

 26 26  0  0  1  0  0  0  0  0999 V2000
   27.9020  -18.5749  -16.7973 N   0  0  0  0  0  0  0  0  0  0  0  0
   27.2404  -18.0640  -15.6384 C   0  0  1  0  0  0  0  0  0  0  0  0
   26.2990  -16.9551  -16.0810 C   0  0  0  0  0  0  0  0  0  0  0  0
   27.0918  -15.7668  -16.4710 C   0  0  0  0  0  0  0  0  0  0  0  0
   27.4176  -15.4060  -17.7509 C   0  0  0  0  0  0  0  0  0  0  0  0
   28.1429  -14.2692  -17.6728 N   0  0  0  0  0  0  0  0  0  0  0  0
   28.2801  -13.9104  -16.3960 C   0  0  0  0  0  0  0  0  0  0  0  0
   27.6249  -14.8444  -15.6509 N   0  0  0  0  0  0  0  0  0  0  0  0
   26.4081  -19.0918  -14.9539 C   0  0  0  0  0  0  0  0  0  0  0  0
   25.8162  -19.9701  -15.6317 O   0  0  0  0  0  0  0  0  0  0  0  0
   25.8275  -20.3965   -8.6811 N   0  0  0  0  0  0  0  0  0  0  0  0
   25.0289  -21.3753   -9.3270 C   0  0  0  0  0  0  0  0  0  0  0  0
   24.4811  -22.2385   -8.5961 O   0  0  0  0  0  0  0  0  0  0  0  0
   24.8975  -21.3157  -10.7837 C   0  0  0  0  0  0  0  0  0  0  0  0
   25.7061  -20.2113  -11.4104 C   0  0  0  0  0  0  0  0  0  0  0  0
   25.4424  -20.1531  -12.9024 C   0  0  2  0  0  0  0  0  0  0  0  0
   26.2417  -19.1360  -13.5444 N   0  0  0  0  0  0  0  0  0  0  0  0
   23.9940  -19.9849  -13.1941 C   0  0  0  0  0  0  0  0  0  0  0  0
   23.4331  -18.8672  -13.0670 O   0  0  0  0  0  0  0  0  0  0  0  0
   21.9771  -21.6027  -16.1553 O   0  0  0  0  0  0  0  0  0  0  0  0
   21.3263  -21.8089  -14.9499 C   0  0  0  0  0  0  0  0  0  0  0  0
   21.7693  -20.8438  -13.8870 C   0  0  2  0  0  0  0  0  0  0  0  0
   23.1776  -21.0652  -13.6265 N   0  0  0  0  0  0  0  0  0  0  0  0
   20.9598  -20.9629  -12.6472 C   0  0  0  0  0  0  0  0  0  0  0  0
   19.6856  -20.4146  -12.6468 O   0  0  0  0  0  0  0  0  0  0  0  0
   21.3675  -21.5257  -11.6200 O   0  0  0  0  0  0  0  0  0  0  0  0
  2  1  1  6
  3  2  1  0
  4  3  1  0
  5  4  2  0
  6  5  1  0
  7  6  1  0
  7  8  2  0
  8  4  1  0
  9  2  1  0
  9 10  2  0
 12 11  1  0
 13 12  2  0
 14 12  1  0
 16 15  1  1
 15 14  1  0
 17 16  1  0
 17  9  1  0
 18 19  2  0
 18 16  1  0
 20 21  1  0
 22 21  1  6
 22 24  1  0
 22 23  1  0
 23 18  1  0
 24 25  1  0
 26 24  2  0
M  END
$$$$
