HQS.pdb
     RDKit          3D

 26 26  0  0  1  0  0  0  0  0999 V2000
   28.2991  -34.9268   -5.4325 N   0  0  0  0  0  0  0  0  0  0  0  0
   27.5965  -34.1880   -4.4313 C   0  0  1  0  0  0  0  0  0  0  0  0
   26.1696  -33.9777   -4.9125 C   0  0  0  0  0  0  0  0  0  0  0  0
   26.1702  -33.0210   -6.0427 C   0  0  0  0  0  0  0  0  0  0  0  0
   25.9830  -31.6681   -5.9471 C   0  0  0  0  0  0  0  0  0  0  0  0
   26.0563  -31.1655   -7.1987 N   0  0  0  0  0  0  0  0  0  0  0  0
   26.2815  -32.1522   -8.0667 C   0  0  0  0  0  0  0  0  0  0  0  0
   26.3519  -33.3053   -7.3441 N   0  0  0  0  0  0  0  0  0  0  0  0
   27.5140  -34.9154   -3.1346 C   0  0  0  0  0  0  0  0  0  0  0  0
   27.5620  -36.1718   -3.1180 O   0  0  0  0  0  0  0  0  0  0  0  0
   29.0449  -32.5836    2.4609 N   0  0  0  0  0  0  0  0  0  0  0  0
   29.9341  -33.3594    1.6732 C   0  0  0  0  0  0  0  0  0  0  0  0
   31.1625  -33.2327    1.9066 O   0  0  0  0  0  0  0  0  0  0  0  0
   29.3690  -34.2448    0.6537 C   0  0  0  0  0  0  0  0  0  0  0  0
   27.8767  -34.1103    0.5083 C   0  0  0  0  0  0  0  0  0  0  0  0
   27.3833  -34.9752   -0.6352 C   0  0  2  0  0  0  0  0  0  0  0  0
   27.3810  -34.2528   -1.8857 N   0  0  0  0  0  0  0  0  0  0  0  0
   26.0529  -35.5681   -0.3359 C   0  0  0  0  0  0  0  0  0  0  0  0
   24.9923  -34.9512   -0.6094 O   0  0  0  0  0  0  0  0  0  0  0  0
   23.4330  -39.4573    0.7867 O   0  0  0  0  0  0  0  0  0  0  0  0
   24.6765  -38.8631    0.6463 C   0  0  0  0  0  0  0  0  0  0  0  0
   24.5892  -37.3660    0.5544 C   0  0  2  0  0  0  0  0  0  0  0  0
   25.9117  -36.8474    0.2675 N   0  0  0  0  0  0  0  0  0  0  0  0
   24.0208  -36.7597    1.7856 C   0  0  0  0  0  0  0  0  0  0  0  0
   24.8212  -35.8904    2.5123 O   0  0  0  0  0  0  0  0  0  0  0  0
   22.8722  -36.9930    2.1911 O   0  0  0  0  0  0  0  0  0  0  0  0
  2  1  1  6
  3  2  1  0
  4  3  1  0
  5  4  2  0
  6  5  1  0
  7  6  1  0
  7  8  2  0
  8  4  1  0
  9  2  1  0
  9 10  2  0
 12 11  1  0
 13 12  2  0
 14 12  1  0
 16 15  1  1
 15 14  1  0
 17 16  1  0
 17  9  1  0
 18 19  2  0
 18 16  1  0
 20 21  1  0
 22 21  1  1
 22 24  1  0
 22 23  1  0
 23 18  1  0
 24 25  1  0
 26 24  2  0
M  END
$$$$
