HQS.pdb
     RDKit          3D

 26 26  0  0  1  0  0  0  0  0999 V2000
   19.2941  -13.4245  -17.3210 N   0  0  0  0  0  0  0  0  0  0  0  0
   18.6504  -12.2123  -16.9236 C   0  0  1  0  0  0  0  0  0  0  0  0
   18.1540  -12.3856  -15.4970 C   0  0  0  0  0  0  0  0  0  0  0  0
   17.0099  -13.3255  -15.4877 C   0  0  0  0  0  0  0  0  0  0  0  0
   17.0273  -14.6039  -14.9977 C   0  0  0  0  0  0  0  0  0  0  0  0
   15.7910  -15.1173  -15.1780 N   0  0  0  0  0  0  0  0  0  0  0  0
   15.0076  -14.2090  -15.7601 C   0  0  0  0  0  0  0  0  0  0  0  0
   15.7691  -13.0953  -15.9514 N   0  0  0  0  0  0  0  0  0  0  0  0
   19.5761  -11.0458  -16.9219 C   0  0  0  0  0  0  0  0  0  0  0  0
   20.8018  -11.2203  -16.7024 O   0  0  0  0  0  0  0  0  0  0  0  0
   19.5682   -6.1544  -20.7052 N   0  0  0  0  0  0  0  0  0  0  0  0
   20.5880   -5.8040  -19.7832 C   0  0  0  0  0  0  0  0  0  0  0  0
   21.2993   -4.8083  -20.0696 O   0  0  0  0  0  0  0  0  0  0  0  0
   20.7423   -6.6153  -18.5746 C   0  0  0  0  0  0  0  0  0  0  0  0
   19.8086   -7.7951  -18.5254 C   0  0  0  0  0  0  0  0  0  0  0  0
   20.0722   -8.6182  -17.2795 C   0  0  2  0  0  0  0  0  0  0  0  0
   19.1408   -9.7153  -17.1600 N   0  0  0  0  0  0  0  0  0  0  0  0
   20.0875   -7.7696  -16.0585 C   0  0  0  0  0  0  0  0  0  0  0  0
   19.0175   -7.4208  -15.4985 O   0  0  0  0  0  0  0  0  0  0  0  0
   21.8269   -7.0187  -11.8807 O   0  0  0  0  0  0  0  0  0  0  0  0
   21.7253   -7.6081  -13.1302 C   0  0  0  0  0  0  0  0  0  0  0  0
   21.2629   -6.6420  -14.1838 C   0  0  2  0  0  0  0  0  0  0  0  0
   21.2973   -7.3139  -15.4674 N   0  0  0  0  0  0  0  0  0  0  0  0
   22.0724   -5.3966  -14.1982 C   0  0  0  0  0  0  0  0  0  0  0  0
   21.7874   -4.4241  -13.2508 O   0  0  0  0  0  0  0  0  0  0  0  0
   22.9845   -5.1874  -15.0121 O   0  0  0  0  0  0  0  0  0  0  0  0
  2  1  1  1
  3  2  1  0
  4  3  1  0
  5  4  2  0
  6  5  1  0
  7  6  1  0
  7  8  2  0
  8  4  1  0
  9  2  1  0
  9 10  2  0
 12 11  1  0
 13 12  2  0
 14 12  1  0
 16 15  1  6
 15 14  1  0
 17 16  1  0
 17  9  1  0
 18 19  2  0
 18 16  1  0
 20 21  1  0
 22 21  1  1
 22 24  1  0
 22 23  1  0
 23 18  1  0
 24 25  1  0
 26 24  2  0
M  END
$$$$
