HQS.pdb
     RDKit          3D

 26 26  0  0  1  0  0  0  0  0999 V2000
   20.0087  -12.9629  -16.1623 N   0  0  0  0  0  0  0  0  0  0  0  0
   19.7485  -11.6256  -16.5934 C   0  0  1  0  0  0  0  0  0  0  0  0
   18.4290  -11.1800  -15.9833 C   0  0  0  0  0  0  0  0  0  0  0  0
   17.3196  -11.9301  -16.6149 C   0  0  0  0  0  0  0  0  0  0  0  0
   16.6508  -12.9886  -16.0610 C   0  0  0  0  0  0  0  0  0  0  0  0
   15.7183  -13.3836  -16.9550 N   0  0  0  0  0  0  0  0  0  0  0  0
   15.7819  -12.6127  -18.0410 C   0  0  0  0  0  0  0  0  0  0  0  0
   16.7793  -11.7095  -17.8261 N   0  0  0  0  0  0  0  0  0  0  0  0
   20.7865  -10.6626  -16.1324 C   0  0  0  0  0  0  0  0  0  0  0  0
   21.1578  -10.6707  -14.9310 O   0  0  0  0  0  0  0  0  0  0  0  0
   25.6453   -8.1381  -19.1978 N   0  0  0  0  0  0  0  0  0  0  0  0
   25.6918   -7.4941  -17.9345 C   0  0  0  0  0  0  0  0  0  0  0  0
   26.6827   -6.7556  -17.7060 O   0  0  0  0  0  0  0  0  0  0  0  0
   24.5963   -7.7294  -16.9926 C   0  0  0  0  0  0  0  0  0  0  0  0
   23.5527   -8.6791  -17.5172 C   0  0  0  0  0  0  0  0  0  0  0  0
   22.4105   -8.7987  -16.5273 C   0  0  2  0  0  0  0  0  0  0  0  0
   21.3950   -9.7128  -16.9949 N   0  0  0  0  0  0  0  0  0  0  0  0
   21.8424   -7.4673  -16.1867 C   0  0  0  0  0  0  0  0  0  0  0  0
   21.2167   -6.7918  -17.0424 O   0  0  0  0  0  0  0  0  0  0  0  0
   19.7211   -6.6551  -13.1774 O   0  0  0  0  0  0  0  0  0  0  0  0
   20.7211   -5.6984  -13.2408 C   0  0  0  0  0  0  0  0  0  0  0  0
   21.3529   -5.6192  -14.6017 C   0  0  2  0  0  0  0  0  0  0  0  0
   21.9750   -6.8955  -14.8921 N   0  0  0  0  0  0  0  0  0  0  0  0
   22.3261   -4.5018  -14.7052 C   0  0  0  0  0  0  0  0  0  0  0  0
   21.8514   -3.2083  -14.5439 O   0  0  0  0  0  0  0  0  0  0  0  0
   23.5345   -4.6704  -14.9274 O   0  0  0  0  0  0  0  0  0  0  0  0
  2  1  1  1
  3  2  1  0
  4  3  1  0
  5  4  2  0
  6  5  1  0
  7  6  1  0
  7  8  2  0
  8  4  1  0
  9  2  1  0
  9 10  2  0
 12 11  1  0
 13 12  2  0
 14 12  1  0
 16 15  1  6
 15 14  1  0
 17 16  1  0
 17  9  1  0
 18 19  2  0
 18 16  1  0
 20 21  1  0
 22 21  1  1
 22 24  1  0
 22 23  1  0
 23 18  1  0
 24 25  1  0
 26 24  2  0
M  END
$$$$
