HQS.pdb
     RDKit          3D

 26 26  0  0  1  0  0  0  0  0999 V2000
   19.9311  -14.0537  -16.6208 N   0  0  0  0  0  0  0  0  0  0  0  0
   19.2825  -12.8236  -16.9492 C   0  0  1  0  0  0  0  0  0  0  0  0
   17.7988  -13.1037  -17.1272 C   0  0  0  0  0  0  0  0  0  0  0  0
   17.6083  -14.0247  -18.2710 C   0  0  0  0  0  0  0  0  0  0  0  0
   18.0472  -13.8141  -19.5507 C   0  0  0  0  0  0  0  0  0  0  0  0
   17.6721  -14.8855  -20.2827 N   0  0  0  0  0  0  0  0  0  0  0  0
   17.0182  -15.7521  -19.5087 C   0  0  0  0  0  0  0  0  0  0  0  0
   16.9803  -15.2133  -18.2576 N   0  0  0  0  0  0  0  0  0  0  0  0
   19.4050  -11.8051  -15.8699 C   0  0  0  0  0  0  0  0  0  0  0  0
   19.6389  -12.1697  -14.6894 O   0  0  0  0  0  0  0  0  0  0  0  0
   23.4260   -9.5376  -13.4819 N   0  0  0  0  0  0  0  0  0  0  0  0
   23.2741   -9.2660  -14.8661 C   0  0  0  0  0  0  0  0  0  0  0  0
   24.3143   -8.9752  -15.5086 O   0  0  0  0  0  0  0  0  0  0  0  0
   21.9326   -9.3417  -15.4471 C   0  0  0  0  0  0  0  0  0  0  0  0
   20.8548   -9.5951  -14.4271 C   0  0  0  0  0  0  0  0  0  0  0  0
   19.4871   -9.4368  -15.0623 C   0  0  2  0  0  0  0  0  0  0  0  0
   19.2691  -10.4114  -16.1055 N   0  0  0  0  0  0  0  0  0  0  0  0
   19.2686   -8.0483  -15.5474 C   0  0  0  0  0  0  0  0  0  0  0  0
   19.6357   -7.6986  -16.6977 O   0  0  0  0  0  0  0  0  0  0  0  0
   16.7972   -3.9396  -15.1097 O   0  0  0  0  0  0  0  0  0  0  0  0
   17.1084   -5.2176  -14.6749 C   0  0  0  0  0  0  0  0  0  0  0  0
   18.3643   -5.7479  -15.3067 C   0  0  2  0  0  0  0  0  0  0  0  0
   18.6411   -7.0556  -14.7466 N   0  0  0  0  0  0  0  0  0  0  0  0
   19.5146   -4.8247  -15.1311 C   0  0  0  0  0  0  0  0  0  0  0  0
   19.5011   -3.6275  -15.8318 O   0  0  0  0  0  0  0  0  0  0  0  0
   20.4796   -5.0728  -14.3926 O   0  0  0  0  0  0  0  0  0  0  0  0
  2  1  1  1
  3  2  1  0
  4  3  1  0
  5  4  2  0
  6  5  1  0
  7  6  1  0
  7  8  2  0
  8  4  1  0
  9  2  1  0
  9 10  2  0
 12 11  1  0
 13 12  2  0
 14 12  1  0
 16 15  1  6
 15 14  1  0
 17 16  1  0
 17  9  1  0
 18 19  2  0
 18 16  1  0
 20 21  1  0
 22 21  1  1
 22 24  1  0
 22 23  1  0
 23 18  1  0
 24 25  1  0
 26 24  2  0
M  END
$$$$
