HQS.pdb
     RDKit          3D

 26 26  0  0  1  0  0  0  0  0999 V2000
   20.4858  -11.7494  -17.1616 N   0  0  0  0  0  0  0  0  0  0  0  0
   20.5232  -10.9237  -15.9960 C   0  0  1  0  0  0  0  0  0  0  0  0
   21.7263  -10.0008  -16.1083 C   0  0  0  0  0  0  0  0  0  0  0  0
   22.9671  -10.8082  -16.0766 C   0  0  0  0  0  0  0  0  0  0  0  0
   23.6485  -11.1860  -14.9508 C   0  0  0  0  0  0  0  0  0  0  0  0
   24.7173  -11.9069  -15.3541 N   0  0  0  0  0  0  0  0  0  0  0  0
   24.7262  -11.9915  -16.6847 C   0  0  0  0  0  0  0  0  0  0  0  0
   23.6358  -11.3068  -17.1310 N   0  0  0  0  0  0  0  0  0  0  0  0
   19.3205  -10.0547  -15.8704 C   0  0  0  0  0  0  0  0  0  0  0  0
   18.8154   -9.5334  -16.8971 O   0  0  0  0  0  0  0  0  0  0  0  0
   14.5645  -10.6017  -11.8594 N   0  0  0  0  0  0  0  0  0  0  0  0
   14.2357   -9.4164  -12.5665 C   0  0  0  0  0  0  0  0  0  0  0  0
   13.0991   -8.9230  -12.3568 O   0  0  0  0  0  0  0  0  0  0  0  0
   15.2298   -8.8537  -13.4819 C   0  0  0  0  0  0  0  0  0  0  0  0
   16.4869   -9.6766  -13.5758 C   0  0  0  0  0  0  0  0  0  0  0  0
   17.4625   -9.0314  -14.5406 C   0  0  2  0  0  0  0  0  0  0  0  0
   18.6973   -9.7754  -14.6254 N   0  0  0  0  0  0  0  0  0  0  0  0
   17.6992   -7.6027  -14.2028 C   0  0  0  0  0  0  0  0  0  0  0  0
   18.5569   -7.2733  -13.3449 O   0  0  0  0  0  0  0  0  0  0  0  0
   18.0656   -3.1574  -15.5692 O   0  0  0  0  0  0  0  0  0  0  0  0
   17.8334   -4.5113  -15.7483 C   0  0  0  0  0  0  0  0  0  0  0  0
   17.3006   -5.1705  -14.5078 C   0  0  2  0  0  0  0  0  0  0  0  0
   16.9776   -6.5474  -14.8241 N   0  0  0  0  0  0  0  0  0  0  0  0
   16.1286   -4.4500  -13.9478 C   0  0  0  0  0  0  0  0  0  0  0  0
   16.3650   -3.3107  -13.1925 O   0  0  0  0  0  0  0  0  0  0  0  0
   14.9570   -4.8171  -14.1229 O   0  0  0  0  0  0  0  0  0  0  0  0
  2  1  1  6
  3  2  1  0
  4  3  1  0
  5  4  2  0
  6  5  1  0
  7  6  1  0
  7  8  2  0
  8  4  1  0
  9  2  1  0
  9 10  2  0
 12 11  1  0
 13 12  2  0
 14 12  1  0
 16 15  1  1
 15 14  1  0
 17 16  1  0
 17  9  1  0
 18 19  2  0
 18 16  1  0
 20 21  1  0
 22 21  1  6
 22 24  1  0
 22 23  1  0
 23 18  1  0
 24 25  1  0
 26 24  2  0
M  END
$$$$
