HQS.pdb
     RDKit          3D

 26 26  0  0  1  0  0  0  0  0999 V2000
   24.8649  -16.6036  -17.3427 N   0  0  0  0  0  0  0  0  0  0  0  0
   24.6558  -17.8452  -16.6670 C   0  0  1  0  0  0  0  0  0  0  0  0
   25.5390  -17.8652  -15.4296 C   0  0  0  0  0  0  0  0  0  0  0  0
   26.9001  -18.3097  -15.8070 C   0  0  0  0  0  0  0  0  0  0  0  0
   27.3287  -18.5873  -17.0773 C   0  0  0  0  0  0  0  0  0  0  0  0
   28.6249  -18.9571  -16.9895 N   0  0  0  0  0  0  0  0  0  0  0  0
   29.0175  -18.9200  -15.7158 C   0  0  0  0  0  0  0  0  0  0  0  0
   27.9419  -18.5168  -14.9828 N   0  0  0  0  0  0  0  0  0  0  0  0
   23.2518  -18.0143  -16.2003 C   0  0  0  0  0  0  0  0  0  0  0  0
   22.7319  -17.1461  -15.4539 O   0  0  0  0  0  0  0  0  0  0  0  0
   18.5829  -20.1108  -19.5027 N   0  0  0  0  0  0  0  0  0  0  0  0
   19.2766  -18.8732  -19.5062 C   0  0  0  0  0  0  0  0  0  0  0  0
   19.0918  -18.1176  -20.4933 O   0  0  0  0  0  0  0  0  0  0  0  0
   20.1508  -18.5622  -18.3739 C   0  0  0  0  0  0  0  0  0  0  0  0
   20.1816  -19.6459  -17.3294 C   0  0  0  0  0  0  0  0  0  0  0  0
   21.0619  -19.2270  -16.1681 C   0  0  2  0  0  0  0  0  0  0  0  0
   22.4483  -19.1284  -16.5601 N   0  0  0  0  0  0  0  0  0  0  0  0
   20.8806  -20.1232  -14.9954 C   0  0  0  0  0  0  0  0  0  0  0  0
   21.5683  -21.1674  -14.8656 O   0  0  0  0  0  0  0  0  0  0  0  0
   18.0150  -19.4602  -11.9182 O   0  0  0  0  0  0  0  0  0  0  0  0
   19.2983  -19.9163  -11.6645 C   0  0  0  0  0  0  0  0  0  0  0  0
   19.8606  -20.7112  -12.8088 C   0  0  2  0  0  0  0  0  0  0  0  0
   19.9324  -19.8501  -13.9723 N   0  0  0  0  0  0  0  0  0  0  0  0
   19.0677  -21.9365  -13.0850 C   0  0  0  0  0  0  0  0  0  0  0  0
   19.2088  -23.0118  -12.2199 O   0  0  0  0  0  0  0  0  0  0  0  0
   18.2911  -22.0421  -14.0462 O   0  0  0  0  0  0  0  0  0  0  0  0
  2  1  1  1
  3  2  1  0
  4  3  1  0
  5  4  2  0
  6  5  1  0
  7  6  1  0
  7  8  2  0
  8  4  1  0
  9  2  1  0
  9 10  2  0
 12 11  1  0
 13 12  2  0
 14 12  1  0
 16 15  1  6
 15 14  1  0
 17 16  1  0
 17  9  1  0
 18 19  2  0
 18 16  1  0
 20 21  1  0
 22 21  1  1
 22 24  1  0
 22 23  1  0
 23 18  1  0
 24 25  1  0
 26 24  2  0
M  END
$$$$
