HQS.pdb
     RDKit          3D

 26 26  0  0  1  0  0  0  0  0999 V2000
   18.3832  -15.0925  -17.9260 N   0  0  0  0  0  0  0  0  0  0  0  0
   18.0825  -14.0656  -16.9790 C   0  0  1  0  0  0  0  0  0  0  0  0
   18.3724  -14.6054  -15.5875 C   0  0  0  0  0  0  0  0  0  0  0  0
   17.3926  -15.6663  -15.2602 C   0  0  0  0  0  0  0  0  0  0  0  0
   17.6811  -16.9903  -15.0645 C   0  0  0  0  0  0  0  0  0  0  0  0
   16.5162  -17.6161  -14.7888 N   0  0  0  0  0  0  0  0  0  0  0  0
   15.5169  -16.7336  -14.8056 C   0  0  0  0  0  0  0  0  0  0  0  0
   16.0658  -15.5214  -15.0992 N   0  0  0  0  0  0  0  0  0  0  0  0
   18.9294  -12.8540  -17.1591 C   0  0  0  0  0  0  0  0  0  0  0  0
   20.1820  -12.9631  -17.1749 O   0  0  0  0  0  0  0  0  0  0  0  0
   18.1190   -8.3009  -21.0021 N   0  0  0  0  0  0  0  0  0  0  0  0
   18.6699   -9.6001  -21.1498 C   0  0  0  0  0  0  0  0  0  0  0  0
   18.7743  -10.0465  -22.3199 O   0  0  0  0  0  0  0  0  0  0  0  0
   19.0750  -10.3253  -19.9445 C   0  0  0  0  0  0  0  0  0  0  0  0
   18.8217   -9.5586  -18.6740 C   0  0  0  0  0  0  0  0  0  0  0  0
   19.2306  -10.3886  -17.4728 C   0  0  2  0  0  0  0  0  0  0  0  0
   18.3878  -11.5510  -17.3178 N   0  0  0  0  0  0  0  0  0  0  0  0
   19.2759   -9.5685  -16.2332 C   0  0  0  0  0  0  0  0  0  0  0  0
   18.2897   -9.5147  -15.4556 O   0  0  0  0  0  0  0  0  0  0  0  0
   21.8473   -7.7933  -12.6768 O   0  0  0  0  0  0  0  0  0  0  0  0
   21.7258   -8.4474  -13.8919 C   0  0  0  0  0  0  0  0  0  0  0  0
   20.4450   -8.1078  -14.6000 C   0  0  2  0  0  0  0  0  0  0  0  0
   20.4220   -8.8117  -15.8666 N   0  0  0  0  0  0  0  0  0  0  0  0
   20.2771   -6.6437  -14.7865 C   0  0  0  0  0  0  0  0  0  0  0  0
   20.5554   -6.1108  -16.0367 O   0  0  0  0  0  0  0  0  0  0  0  0
   19.9026   -5.8813  -13.8829 O   0  0  0  0  0  0  0  0  0  0  0  0
  2  1  1  6
  3  2  1  0
  4  3  1  0
  5  4  2  0
  6  5  1  0
  7  6  1  0
  7  8  2  0
  8  4  1  0
  9  2  1  0
  9 10  2  0
 12 11  1  0
 13 12  2  0
 14 12  1  0
 16 15  1  6
 15 14  1  0
 17 16  1  0
 17  9  1  0
 18 19  2  0
 18 16  1  0
 20 21  1  0
 22 21  1  6
 22 24  1  0
 22 23  1  0
 23 18  1  0
 24 25  1  0
 26 24  2  0
M  END
$$$$
