HQS.pdb
     RDKit          3D

 26 26  0  0  1  0  0  0  0  0999 V2000
   21.4667  -34.2899  -10.5303 N   0  0  0  0  0  0  0  0  0  0  0  0
   21.5929  -33.6656   -9.2512 C   0  0  1  0  0  0  0  0  0  0  0  0
   20.3164  -33.9286   -8.4682 C   0  0  0  0  0  0  0  0  0  0  0  0
   19.1885  -33.2246   -9.1200 C   0  0  0  0  0  0  0  0  0  0  0  0
   19.0224  -31.8672   -9.1862 C   0  0  0  0  0  0  0  0  0  0  0  0
   17.8750  -31.6378   -9.8609 N   0  0  0  0  0  0  0  0  0  0  0  0
   17.3227  -32.7983  -10.2159 C   0  0  0  0  0  0  0  0  0  0  0  0
   18.1426  -33.7836   -9.7533 N   0  0  0  0  0  0  0  0  0  0  0  0
   22.7163  -34.2243   -8.4492 C   0  0  0  0  0  0  0  0  0  0  0  0
   23.1096  -35.4002   -8.6579 O   0  0  0  0  0  0  0  0  0  0  0  0
   28.0931  -33.6525   -5.5428 N   0  0  0  0  0  0  0  0  0  0  0  0
   27.2277  -32.8234   -4.7836 C   0  0  0  0  0  0  0  0  0  0  0  0
   27.6623  -32.4005   -3.6828 O   0  0  0  0  0  0  0  0  0  0  0  0
   25.9025  -32.5192   -5.3259 C   0  0  0  0  0  0  0  0  0  0  0  0
   25.6853  -33.0667   -6.7113 C   0  0  0  0  0  0  0  0  0  0  0  0
   24.5115  -34.0264   -6.7155 C   0  0  2  0  0  0  0  0  0  0  0  0
   23.3842  -33.4848   -7.4375 N   0  0  0  0  0  0  0  0  0  0  0  0
   24.1391  -34.4386   -5.3361 C   0  0  0  0  0  0  0  0  0  0  0  0
   23.2930  -33.7883   -4.6718 O   0  0  0  0  0  0  0  0  0  0  0  0
   23.9354  -38.2596   -4.1641 O   0  0  0  0  0  0  0  0  0  0  0  0
   24.5607  -37.4533   -3.2270 C   0  0  0  0  0  0  0  0  0  0  0  0
   24.2255  -35.9998   -3.4067 C   0  0  2  0  0  0  0  0  0  0  0  0
   24.7129  -35.5750   -4.7038 N   0  0  0  0  0  0  0  0  0  0  0  0
   24.7760  -35.1570   -2.3144 C   0  0  0  0  0  0  0  0  0  0  0  0
   24.3597  -35.4192   -1.0173 O   0  0  0  0  0  0  0  0  0  0  0  0
   25.5845  -34.2366   -2.5068 O   0  0  0  0  0  0  0  0  0  0  0  0
  2  1  1  6
  3  2  1  0
  4  3  1  0
  5  4  2  0
  6  5  1  0
  7  6  1  0
  7  8  2  0
  8  4  1  0
  9  2  1  0
  9 10  2  0
 12 11  1  0
 13 12  2  0
 14 12  1  0
 16 15  1  1
 15 14  1  0
 17 16  1  0
 17  9  1  0
 18 19  2  0
 18 16  1  0
 20 21  1  0
 22 21  1  1
 22 24  1  0
 22 23  1  0
 23 18  1  0
 24 25  1  0
 26 24  2  0
M  END
$$$$
