EHW.pdb
     RDKit          3D

 34 36  0  0  1  0  0  0  0  0999 V2000
    9.4329  -18.6389   19.4704 N   0  0  0  0  0  0  0  0  0  0  0  0
   10.7217  -18.0073   19.5175 C   0  0  1  0  0  0  0  0  0  0  0  0
   11.3577  -17.9258   18.2022 C   0  0  0  0  0  0  0  0  0  0  0  0
   10.2884  -17.7553   17.1220 C   0  0  0  0  0  0  0  0  0  0  0  0
   10.8779  -17.6523   15.7695 C   0  0  0  0  0  0  0  0  0  0  0  0
   10.2424  -17.4937   14.7041 O   0  0  0  0  0  0  0  0  0  0  0  0
   10.7245  -16.7525   20.3370 C   0  0  0  0  0  0  0  0  0  0  0  0
   11.8603  -16.2540   20.5206 O   0  0  0  0  0  0  0  0  0  0  0  0
   12.2461  -17.7338   15.6563 O   0  0  0  0  0  0  0  0  0  0  0  0
    9.5376  -16.2038   20.8383 N   0  0  0  0  0  0  0  0  0  0  0  0
    9.2320  -15.0565   21.5669 C   0  0  1  0  0  0  0  0  0  0  0  0
    7.9616  -14.3561   21.1367 C   0  0  0  0  0  0  0  0  0  0  0  0
    7.8496  -14.1264   19.6956 C   0  0  0  0  0  0  0  0  0  0  0  0
    8.2534  -13.0125   19.0193 C   0  0  0  0  0  0  0  0  0  0  0  0
    7.9802  -13.1524   17.7196 N   0  0  0  0  0  0  0  0  0  0  0  0
    7.3975  -14.3771   17.5918 C   0  0  0  0  0  0  0  0  0  0  0  0
    7.3221  -14.9508   18.7850 N   0  0  0  0  0  0  0  0  0  0  0  0
    9.4555  -15.0388   23.0329 C   0  0  0  0  0  0  0  0  0  0  0  0
    9.7522  -14.0169   23.7022 O   0  0  0  0  0  0  0  0  0  0  0  0
    9.3412  -16.2324   23.8327 N   0  0  0  0  0  0  0  0  0  0  0  0
    9.8043  -16.2458   25.2178 C   0  0  1  0  0  0  0  0  0  0  0  0
    8.5886  -16.5744   26.0397 C   0  0  0  0  0  0  0  0  0  0  0  0
    7.4619  -15.6406   25.9313 C   0  0  0  0  0  0  0  0  0  0  0  0
    6.1842  -15.9217   25.4148 C   0  0  0  0  0  0  0  0  0  0  0  0
    5.4485  -14.8166   25.4413 N   0  0  0  0  0  0  0  0  0  0  0  0
    6.1606  -13.7632   25.9614 C   0  0  0  0  0  0  0  0  0  0  0  0
    5.8182  -12.4512   26.1848 C   0  0  0  0  0  0  0  0  0  0  0  0
    6.7565  -11.6150   26.7345 C   0  0  0  0  0  0  0  0  0  0  0  0
    7.9982  -12.1201   27.0393 C   0  0  0  0  0  0  0  0  0  0  0  0
    8.3256  -13.4275   26.8104 C   0  0  0  0  0  0  0  0  0  0  0  0
    7.4009  -14.3130   26.2512 C   0  0  0  0  0  0  0  0  0  0  0  0
   10.9642  -17.1072   25.4483 C   0  0  0  0  0  0  0  0  0  0  0  0
   11.4519  -17.8862   24.5529 O   0  0  0  0  0  0  0  0  0  0  0  0
   11.6310  -17.1451   26.6574 O   0  0  0  0  0  0  0  0  0  0  0  0
  2  1  1  6
  2  3  1  0
  3  4  1  0
  4  5  1  0
  5  9  1  0
  6  5  2  0
  7  2  1  0
  7  8  2  0
 10  7  1  0
 11 10  1  0
 11 12  1  1
 13 14  2  0
 13 12  1  0
 15 14  1  0
 16 17  2  0
 16 15  1  0
 17 13  1  0
 18 11  1  0
 19 18  2  0
 20 18  1  0
 21 20  1  0
 21 22  1  1
 22 23  1  0
 23 31  1  0
 24 25  1  0
 24 23  2  0
 25 26  1  0
 26 31  2  0
 26 27  1  0
 27 28  2  0
 28 29  1  0
 30 29  2  0
 31 30  1  0
 32 21  1  0
 32 34  1  0
 33 32  2  0
M  END
$$$$
