EHW.pdb
     RDKit          3D

 34 36  0  0  1  0  0  0  0  0999 V2000
   11.2829  -16.4058   18.3624 N   0  0  0  0  0  0  0  0  0  0  0  0
   10.0483  -15.7377   18.6650 C   0  0  1  0  0  0  0  0  0  0  0  0
    9.1622  -15.6383   17.5048 C   0  0  0  0  0  0  0  0  0  0  0  0
    9.7943  -16.3545   16.3104 C   0  0  0  0  0  0  0  0  0  0  0  0
    8.9703  -16.2286   15.0887 C   0  0  0  0  0  0  0  0  0  0  0  0
    7.9104  -16.8494   14.8533 O   0  0  0  0  0  0  0  0  0  0  0  0
    9.4242  -16.2189   19.9398 C   0  0  0  0  0  0  0  0  0  0  0  0
    8.3037  -15.7162   20.1923 O   0  0  0  0  0  0  0  0  0  0  0  0
    9.3921  -15.3527   14.1159 O   0  0  0  0  0  0  0  0  0  0  0  0
   10.0639  -17.1584   20.7581 N   0  0  0  0  0  0  0  0  0  0  0  0
    9.7925  -17.6931   22.0154 C   0  0  1  0  0  0  0  0  0  0  0  0
    9.7136  -19.2036   22.0546 C   0  0  0  0  0  0  0  0  0  0  0  0
    8.6253  -19.7783   21.2625 C   0  0  0  0  0  0  0  0  0  0  0  0
    7.6896  -19.0871   20.5499 C   0  0  0  0  0  0  0  0  0  0  0  0
    6.8478  -19.9428   19.9648 N   0  0  0  0  0  0  0  0  0  0  0  0
    7.2735  -21.1865   20.3227 C   0  0  0  0  0  0  0  0  0  0  0  0
    8.3393  -21.0745   21.1038 N   0  0  0  0  0  0  0  0  0  0  0  0
   10.4266  -17.0977   23.2167 C   0  0  0  0  0  0  0  0  0  0  0  0
   11.6160  -16.6955   23.2765 O   0  0  0  0  0  0  0  0  0  0  0  0
    9.7017  -16.9236   24.4503 N   0  0  0  0  0  0  0  0  0  0  0  0
   10.4028  -16.5608   25.6791 C   0  0  1  0  0  0  0  0  0  0  0  0
   10.0314  -15.1270   25.9396 C   0  0  0  0  0  0  0  0  0  0  0  0
    8.6024  -14.8522   26.1281 C   0  0  0  0  0  0  0  0  0  0  0  0
    7.5504  -15.7827   26.0516 C   0  0  0  0  0  0  0  0  0  0  0  0
    6.3955  -15.1539   26.2363 N   0  0  0  0  0  0  0  0  0  0  0  0
    6.5939  -13.8104   26.4435 C   0  0  0  0  0  0  0  0  0  0  0  0
    5.7123  -12.7831   26.6803 C   0  0  0  0  0  0  0  0  0  0  0  0
    6.2142  -11.5189   26.8589 C   0  0  0  0  0  0  0  0  0  0  0  0
    7.5743  -11.3296   26.7944 C   0  0  0  0  0  0  0  0  0  0  0  0
    8.4397  -12.3609   26.5569 C   0  0  0  0  0  0  0  0  0  0  0  0
    7.9713  -13.6635   26.3680 C   0  0  0  0  0  0  0  0  0  0  0  0
   10.1638  -17.4789   26.7928 C   0  0  0  0  0  0  0  0  0  0  0  0
    9.3101  -18.4357   26.7459 O   0  0  0  0  0  0  0  0  0  0  0  0
   10.8481  -17.3872   27.9892 O   0  0  0  0  0  0  0  0  0  0  0  0
  2  1  1  6
  2  3  1  0
  3  4  1  0
  4  5  1  0
  5  9  1  0
  6  5  2  0
  7  2  1  0
  7  8  2  0
 10  7  1  0
 11 10  1  0
 11 12  1  6
 13 14  2  0
 13 12  1  0
 15 14  1  0
 16 17  2  0
 16 15  1  0
 17 13  1  0
 18 11  1  0
 19 18  2  0
 20 18  1  0
 21 20  1  0
 21 22  1  1
 22 23  1  0
 23 31  1  0
 24 25  1  0
 24 23  2  0
 25 26  1  0
 26 31  2  0
 26 27  1  0
 27 28  2  0
 28 29  1  0
 30 29  2  0
 31 30  1  0
 32 21  1  0
 32 34  1  0
 33 32  2  0
M  END
$$$$
