EHW.pdb
     RDKit          3D

 34 36  0  0  1  0  0  0  0  0999 V2000
   12.2018  -19.7303   19.6453 N   0  0  0  0  0  0  0  0  0  0  0  0
   12.9560  -18.6178   20.1509 C   0  0  1  0  0  0  0  0  0  0  0  0
   13.7595  -17.9652   19.1167 C   0  0  0  0  0  0  0  0  0  0  0  0
   13.3815  -18.5208   17.7428 C   0  0  0  0  0  0  0  0  0  0  0  0
   14.2193  -17.9520   16.6648 C   0  0  0  0  0  0  0  0  0  0  0  0
   15.4692  -17.9674   16.6237 O   0  0  0  0  0  0  0  0  0  0  0  0
   12.1435  -17.7162   21.0302 C   0  0  0  0  0  0  0  0  0  0  0  0
   12.7605  -16.7110   21.4558 O   0  0  0  0  0  0  0  0  0  0  0  0
   13.5823  -17.3511   15.6044 O   0  0  0  0  0  0  0  0  0  0  0  0
   10.8048  -17.9985   21.3292 N   0  0  0  0  0  0  0  0  0  0  0  0
    9.8904  -17.4942   22.2512 C   0  0  1  0  0  0  0  0  0  0  0  0
    8.4561  -17.9111   22.0092 C   0  0  0  0  0  0  0  0  0  0  0  0
    7.8691  -17.3889   20.7743 C   0  0  0  0  0  0  0  0  0  0  0  0
    8.4787  -16.5667   19.8723 C   0  0  0  0  0  0  0  0  0  0  0  0
    7.6337  -16.2869   18.8768 N   0  0  0  0  0  0  0  0  0  0  0  0
    6.4807  -16.9506   19.1700 C   0  0  0  0  0  0  0  0  0  0  0  0
    6.6335  -17.6061   20.3127 N   0  0  0  0  0  0  0  0  0  0  0  0
   10.2582  -17.4285   23.6864 C   0  0  0  0  0  0  0  0  0  0  0  0
   11.0069  -18.2493   24.2745 O   0  0  0  0  0  0  0  0  0  0  0  0
    9.7728  -16.3793   24.5472 N   0  0  0  0  0  0  0  0  0  0  0  0
   10.0696  -16.3945   25.9772 C   0  0  1  0  0  0  0  0  0  0  0  0
    9.6364  -15.0477   26.4869 C   0  0  0  0  0  0  0  0  0  0  0  0
    8.2376  -14.6805   26.2382 C   0  0  0  0  0  0  0  0  0  0  0  0
    7.1953  -15.5470   25.8628 C   0  0  0  0  0  0  0  0  0  0  0  0
    6.0827  -14.8434   25.6880 N   0  0  0  0  0  0  0  0  0  0  0  0
    6.3010  -13.5088   25.9293 C   0  0  0  0  0  0  0  0  0  0  0  0
    5.4604  -12.4226   25.8809 C   0  0  0  0  0  0  0  0  0  0  0  0
    5.9709  -11.1865   26.1863 C   0  0  0  0  0  0  0  0  0  0  0  0
    7.2985  -11.0827   26.5275 C   0  0  0  0  0  0  0  0  0  0  0  0
    8.1238  -12.1718   26.5703 C   0  0  0  0  0  0  0  0  0  0  0  0
    7.6456  -13.4486   26.2656 C   0  0  0  0  0  0  0  0  0  0  0  0
    9.5056  -17.5416   26.6889 C   0  0  0  0  0  0  0  0  0  0  0  0
    8.5888  -18.2933   26.1984 O   0  0  0  0  0  0  0  0  0  0  0  0
    9.9236  -17.9082   27.9534 O   0  0  0  0  0  0  0  0  0  0  0  0
  2  1  1  6
  2  3  1  0
  3  4  1  0
  4  5  1  0
  5  9  1  0
  6  5  2  0
  7  2  1  0
  7  8  2  0
 10  7  1  0
 11 10  1  0
 11 12  1  1
 13 14  2  0
 13 12  1  0
 15 14  1  0
 16 17  2  0
 16 15  1  0
 17 13  1  0
 18 11  1  0
 19 18  2  0
 20 18  1  0
 21 20  1  0
 21 22  1  1
 22 23  1  0
 23 31  1  0
 24 25  1  0
 24 23  2  0
 25 26  1  0
 26 31  2  0
 26 27  1  0
 27 28  2  0
 28 29  1  0
 30 29  2  0
 31 30  1  0
 32 21  1  0
 32 34  1  0
 33 32  2  0
M  END
$$$$
