EHW.pdb
     RDKit          3D

 34 36  0  0  1  0  0  0  0  0999 V2000
    9.0808  -18.3579   19.2948 N   0  0  0  0  0  0  0  0  0  0  0  0
   10.4548  -17.9733   19.4571 C   0  0  1  0  0  0  0  0  0  0  0  0
   11.1945  -17.9790   18.1946 C   0  0  0  0  0  0  0  0  0  0  0  0
   10.2205  -18.1449   17.0270 C   0  0  0  0  0  0  0  0  0  0  0  0
   10.9197  -18.1977   15.7248 C   0  0  0  0  0  0  0  0  0  0  0  0
   10.3789  -18.3670   14.6099 O   0  0  0  0  0  0  0  0  0  0  0  0
   10.6206  -16.7594   20.3202 C   0  0  0  0  0  0  0  0  0  0  0  0
   11.8084  -16.3870   20.4710 O   0  0  0  0  0  0  0  0  0  0  0  0
   12.2866  -18.0462   15.7221 O   0  0  0  0  0  0  0  0  0  0  0  0
    9.5181  -16.1133   20.8932 N   0  0  0  0  0  0  0  0  0  0  0  0
    9.3694  -15.0203   21.7440 C   0  0  1  0  0  0  0  0  0  0  0  0
    8.3300  -14.0137   21.3015 C   0  0  0  0  0  0  0  0  0  0  0  0
    8.1327  -13.9370   19.8533 C   0  0  0  0  0  0  0  0  0  0  0  0
    6.9949  -14.2587   19.1728 C   0  0  0  0  0  0  0  0  0  0  0  0
    7.1875  -14.0766   17.8640 N   0  0  0  0  0  0  0  0  0  0  0  0
    8.4690  -13.6327   17.7349 C   0  0  0  0  0  0  0  0  0  0  0  0
    9.0268  -13.5557   18.9356 N   0  0  0  0  0  0  0  0  0  0  0  0
    9.4154  -15.2238   23.2123 C   0  0  0  0  0  0  0  0  0  0  0  0
    8.5115  -14.8775   24.0143 O   0  0  0  0  0  0  0  0  0  0  0  0
   10.5368  -15.8609   23.8557 N   0  0  0  0  0  0  0  0  0  0  0  0
   10.4599  -16.2605   25.2584 C   0  0  1  0  0  0  0  0  0  0  0  0
    9.0324  -16.0159   25.6631 C   0  0  0  0  0  0  0  0  0  0  0  0
    8.8016  -14.8893   26.5745 C   0  0  0  0  0  0  0  0  0  0  0  0
    9.3943  -14.6929   27.8349 C   0  0  0  0  0  0  0  0  0  0  0  0
    8.9067  -13.5845   28.3800 N   0  0  0  0  0  0  0  0  0  0  0  0
    7.9910  -12.9879   27.5476 C   0  0  0  0  0  0  0  0  0  0  0  0
    7.2454  -11.8414   27.6825 C   0  0  0  0  0  0  0  0  0  0  0  0
    6.4023  -11.4857   26.6605 C   0  0  0  0  0  0  0  0  0  0  0  0
    6.3362  -12.2869   25.5454 C   0  0  0  0  0  0  0  0  0  0  0  0
    7.0830  -13.4257   25.4251 C   0  0  0  0  0  0  0  0  0  0  0  0
    7.9533  -13.8255   26.4423 C   0  0  0  0  0  0  0  0  0  0  0  0
   10.9596  -17.6103   25.5201 C   0  0  0  0  0  0  0  0  0  0  0  0
   11.3075  -18.4248   24.5916 O   0  0  0  0  0  0  0  0  0  0  0  0
   11.0998  -18.1142   26.7985 O   0  0  0  0  0  0  0  0  0  0  0  0
  2  1  1  6
  2  3  1  0
  3  4  1  0
  4  5  1  0
  5  9  1  0
  6  5  2  0
  7  2  1  0
  7  8  2  0
 10  7  1  0
 11 10  1  0
 11 12  1  1
 13 14  2  0
 13 12  1  0
 15 14  1  0
 16 17  2  0
 16 15  1  0
 17 13  1  0
 18 11  1  0
 19 18  2  0
 20 18  1  0
 21 20  1  0
 21 22  1  6
 22 23  1  0
 23 31  1  0
 24 25  1  0
 24 23  2  0
 25 26  1  0
 26 31  2  0
 26 27  1  0
 27 28  2  0
 28 29  1  0
 30 29  2  0
 31 30  1  0
 32 21  1  0
 32 34  1  0
 33 32  2  0
M  END
$$$$
