EHW.pdb
     RDKit          3D

 34 36  0  0  1  0  0  0  0  0999 V2000
   10.7187  -15.9061   16.8757 N   0  0  0  0  0  0  0  0  0  0  0  0
    9.4953  -15.4665   17.4856 C   0  0  1  0  0  0  0  0  0  0  0  0
    8.3400  -15.6115   16.5995 C   0  0  0  0  0  0  0  0  0  0  0  0
    8.7518  -15.2996   15.1599 C   0  0  0  0  0  0  0  0  0  0  0  0
    7.6396  -15.5076   14.2075 C   0  0  0  0  0  0  0  0  0  0  0  0
    6.5619  -16.0912   14.4567 O   0  0  0  0  0  0  0  0  0  0  0  0
    9.3283  -15.9747   18.8856 C   0  0  0  0  0  0  0  0  0  0  0  0
    8.3847  -15.4475   19.5210 O   0  0  0  0  0  0  0  0  0  0  0  0
    7.7868  -15.0193   12.9303 O   0  0  0  0  0  0  0  0  0  0  0  0
   10.1710  -16.9625   19.4104 N   0  0  0  0  0  0  0  0  0  0  0  0
   10.2186  -17.6544   20.6185 C   0  0  1  0  0  0  0  0  0  0  0  0
   11.1611  -18.8380   20.6306 C   0  0  0  0  0  0  0  0  0  0  0  0
   10.8533  -19.8730   19.6426 C   0  0  0  0  0  0  0  0  0  0  0  0
    9.7173  -20.6262   19.5857 C   0  0  0  0  0  0  0  0  0  0  0  0
    9.7927  -21.4763   18.5587 N   0  0  0  0  0  0  0  0  0  0  0  0
   10.9986  -21.2419   17.9698 C   0  0  0  0  0  0  0  0  0  0  0  0
   11.6271  -20.2795   18.6311 N   0  0  0  0  0  0  0  0  0  0  0  0
   10.1915  -16.9006   21.8955 C   0  0  0  0  0  0  0  0  0  0  0  0
   11.0164  -16.0099   22.2217 O   0  0  0  0  0  0  0  0  0  0  0  0
    9.1793  -17.1355   22.8944 N   0  0  0  0  0  0  0  0  0  0  0  0
    9.1126  -16.3052   24.0941 C   0  0  1  0  0  0  0  0  0  0  0  0
    8.0706  -15.2622   23.7975 C   0  0  0  0  0  0  0  0  0  0  0  0
    7.3978  -14.6703   24.9595 C   0  0  0  0  0  0  0  0  0  0  0  0
    6.5021  -15.3158   25.8310 C   0  0  0  0  0  0  0  0  0  0  0  0
    6.0679  -14.4459   26.7354 N   0  0  0  0  0  0  0  0  0  0  0  0
    6.6274  -13.2073   26.5359 C   0  0  0  0  0  0  0  0  0  0  0  0
    6.4831  -12.0202   27.2132 C   0  0  0  0  0  0  0  0  0  0  0  0
    7.1900  -10.9285   26.7771 C   0  0  0  0  0  0  0  0  0  0  0  0
    8.0120  -11.0637   25.6836 C   0  0  0  0  0  0  0  0  0  0  0  0
    8.1450  -12.2506   25.0184 C   0  0  0  0  0  0  0  0  0  0  0  0
    7.4428  -13.3869   25.4280 C   0  0  0  0  0  0  0  0  0  0  0  0
    8.9043  -17.0612   25.3292 C   0  0  0  0  0  0  0  0  0  0  0  0
    8.2854  -18.1844   25.3714 O   0  0  0  0  0  0  0  0  0  0  0  0
    9.3655  -16.6211   26.5546 O   0  0  0  0  0  0  0  0  0  0  0  0
  2  1  1  6
  2  3  1  0
  3  4  1  0
  4  5  1  0
  5  9  1  0
  6  5  2  0
  7  2  1  0
  7  8  2  0
 10  7  1  0
 11 10  1  0
 11 12  1  6
 13 14  2  0
 13 12  1  0
 15 14  1  0
 16 17  2  0
 16 15  1  0
 17 13  1  0
 18 11  1  0
 19 18  2  0
 20 18  1  0
 21 20  1  0
 21 22  1  6
 22 23  1  0
 23 31  1  0
 24 25  1  0
 24 23  2  0
 25 26  1  0
 26 31  2  0
 26 27  1  0
 27 28  2  0
 28 29  1  0
 30 29  2  0
 31 30  1  0
 32 21  1  0
 32 34  1  0
 33 32  2  0
M  END
$$$$
