EHW.pdb
     RDKit          3D

 34 36  0  0  1  0  0  0  0  0999 V2000
   11.6185  -19.5853   20.0422 N   0  0  0  0  0  0  0  0  0  0  0  0
   11.4716  -18.2576   20.5693 C   0  0  1  0  0  0  0  0  0  0  0  0
   11.0756  -17.2867   19.5488 C   0  0  0  0  0  0  0  0  0  0  0  0
   11.8977  -17.5096   18.2784 C   0  0  0  0  0  0  0  0  0  0  0  0
   11.5664  -16.5269   17.2239 C   0  0  0  0  0  0  0  0  0  0  0  0
   10.6618  -16.6478   16.3687 O   0  0  0  0  0  0  0  0  0  0  0  0
   10.7012  -18.2242   21.8543 C   0  0  0  0  0  0  0  0  0  0  0  0
    9.4656  -18.0622   21.7157 O   0  0  0  0  0  0  0  0  0  0  0  0
   12.3082  -15.3703   17.1667 O   0  0  0  0  0  0  0  0  0  0  0  0
   11.3382  -18.3703   23.0929 N   0  0  0  0  0  0  0  0  0  0  0  0
   10.8891  -18.4783   24.4072 C   0  0  1  0  0  0  0  0  0  0  0  0
   11.2828  -19.7620   25.1046 C   0  0  0  0  0  0  0  0  0  0  0  0
   10.8710  -20.9838   24.4118 C   0  0  0  0  0  0  0  0  0  0  0  0
    9.6485  -21.2277   23.8577 C   0  0  0  0  0  0  0  0  0  0  0  0
    9.6332  -22.4517   23.3239 N   0  0  0  0  0  0  0  0  0  0  0  0
   10.8712  -22.9724   23.5524 C   0  0  0  0  0  0  0  0  0  0  0  0
   11.6041  -22.0830   24.2085 N   0  0  0  0  0  0  0  0  0  0  0  0
   10.9163  -17.2872   25.2905 C   0  0  0  0  0  0  0  0  0  0  0  0
   11.8614  -16.4607   25.3532 O   0  0  0  0  0  0  0  0  0  0  0  0
    9.8212  -16.9712   26.1727 N   0  0  0  0  0  0  0  0  0  0  0  0
   10.0229  -16.0930   27.3222 C   0  0  1  0  0  0  0  0  0  0  0  0
    8.6413  -15.7136   27.7791 C   0  0  0  0  0  0  0  0  0  0  0  0
    7.7664  -15.1128   26.7659 C   0  0  0  0  0  0  0  0  0  0  0  0
    6.9984  -15.7967   25.8064 C   0  0  0  0  0  0  0  0  0  0  0  0
    6.3712  -14.9142   25.0376 N   0  0  0  0  0  0  0  0  0  0  0  0
    6.6666  -13.6287   25.4216 C   0  0  0  0  0  0  0  0  0  0  0  0
    6.2541  -12.4122   24.9332 C   0  0  0  0  0  0  0  0  0  0  0  0
    6.7209  -11.2726   25.5377 C   0  0  0  0  0  0  0  0  0  0  0  0
    7.5798  -11.3913   26.6044 C   0  0  0  0  0  0  0  0  0  0  0  0
    7.9829  -12.6084   27.0790 C   0  0  0  0  0  0  0  0  0  0  0  0
    7.5329  -13.7938   26.4925 C   0  0  0  0  0  0  0  0  0  0  0  0
   10.8886  -16.6584   28.3572 C   0  0  0  0  0  0  0  0  0  0  0  0
   11.2806  -15.9982   29.3853 O   0  0  0  0  0  0  0  0  0  0  0  0
   11.3510  -17.9590   28.3080 O   0  0  0  0  0  0  0  0  0  0  0  0
  2  1  1  6
  2  3  1  0
  3  4  1  0
  4  5  1  0
  5  9  1  0
  6  5  2  0
  7  2  1  0
  7  8  2  0
 10  7  1  0
 11 10  1  0
 11 12  1  1
 13 14  2  0
 13 12  1  0
 15 14  1  0
 16 17  2  0
 16 15  1  0
 17 13  1  0
 18 11  1  0
 19 18  2  0
 20 18  1  0
 21 20  1  0
 21 22  1  1
 22 23  1  0
 23 31  1  0
 24 25  1  0
 24 23  2  0
 25 26  1  0
 26 31  2  0
 26 27  1  0
 27 28  2  0
 28 29  1  0
 30 29  2  0
 31 30  1  0
 32 21  1  0
 32 34  1  0
 33 32  2  0
M  END
$$$$
