EHW.pdb
     RDKit          3D

 34 36  0  0  1  0  0  0  0  0999 V2000
   12.2385  -18.7850   18.8135 N   0  0  0  0  0  0  0  0  0  0  0  0
   11.4229  -17.6623   19.1831 C   0  0  1  0  0  0  0  0  0  0  0  0
   10.9765  -16.8851   18.0266 C   0  0  0  0  0  0  0  0  0  0  0  0
   10.6617  -17.8265   16.8630 C   0  0  0  0  0  0  0  0  0  0  0  0
   10.2514  -17.0890   15.6484 C   0  0  0  0  0  0  0  0  0  0  0  0
   10.1775  -15.8455   15.5370 O   0  0  0  0  0  0  0  0  0  0  0  0
   10.3738  -18.0137   20.1940 C   0  0  0  0  0  0  0  0  0  0  0  0
    9.2995  -18.4350   19.7035 O   0  0  0  0  0  0  0  0  0  0  0  0
    9.9208  -17.8213   14.5323 O   0  0  0  0  0  0  0  0  0  0  0  0
   10.6070  -17.8763   21.5680 N   0  0  0  0  0  0  0  0  0  0  0  0
    9.8542  -18.1398   22.7102 C   0  0  1  0  0  0  0  0  0  0  0  0
    9.4375  -19.5855   22.8710 C   0  0  0  0  0  0  0  0  0  0  0  0
   10.5466  -20.5400   22.9041 C   0  0  0  0  0  0  0  0  0  0  0  0
   11.8658  -20.2561   22.7033 C   0  0  0  0  0  0  0  0  0  0  0  0
   12.5857  -21.3770   22.7961 N   0  0  0  0  0  0  0  0  0  0  0  0
   11.6930  -22.3715   23.0605 C   0  0  0  0  0  0  0  0  0  0  0  0
   10.4722  -21.8571   23.1202 N   0  0  0  0  0  0  0  0  0  0  0  0
   10.2058  -17.4749   23.9884 C   0  0  0  0  0  0  0  0  0  0  0  0
   11.3560  -17.0713   24.2957 O   0  0  0  0  0  0  0  0  0  0  0  0
    9.2209  -17.2268   25.0111 N   0  0  0  0  0  0  0  0  0  0  0  0
    9.6093  -16.6353   26.2887 C   0  0  1  0  0  0  0  0  0  0  0  0
    8.3341  -16.1073   26.8858 C   0  0  0  0  0  0  0  0  0  0  0  0
    7.5849  -15.1470   26.0674 C   0  0  0  0  0  0  0  0  0  0  0  0
    6.9135  -15.4148   24.8609 C   0  0  0  0  0  0  0  0  0  0  0  0
    6.3890  -14.2884   24.3924 N   0  0  0  0  0  0  0  0  0  0  0  0
    6.6638  -13.2327   25.2273 C   0  0  0  0  0  0  0  0  0  0  0  0
    6.3283  -11.9018   25.1572 C   0  0  0  0  0  0  0  0  0  0  0  0
    6.7469  -11.0682   26.1631 C   0  0  0  0  0  0  0  0  0  0  0  0
    7.4829  -11.5944   27.1980 C   0  0  0  0  0  0  0  0  0  0  0  0
    7.8105  -12.9205   27.2542 C   0  0  0  0  0  0  0  0  0  0  0  0
    7.4059  -13.8042   26.2507 C   0  0  0  0  0  0  0  0  0  0  0  0
   10.3761  -17.5345   27.1512 C   0  0  0  0  0  0  0  0  0  0  0  0
   10.4793  -18.7957   26.9391 O   0  0  0  0  0  0  0  0  0  0  0  0
   11.0566  -17.0895   28.2678 O   0  0  0  0  0  0  0  0  0  0  0  0
  2  1  1  6
  2  3  1  0
  3  4  1  0
  4  5  1  0
  5  9  1  0
  6  5  2  0
  7  2  1  0
  7  8  2  0
 10  7  1  0
 11 10  1  0
 11 12  1  1
 13 14  2  0
 13 12  1  0
 15 14  1  0
 16 17  2  0
 16 15  1  0
 17 13  1  0
 18 11  1  0
 19 18  2  0
 20 18  1  0
 21 20  1  0
 21 22  1  1
 22 23  1  0
 23 31  1  0
 24 25  1  0
 24 23  2  0
 25 26  1  0
 26 31  2  0
 26 27  1  0
 27 28  2  0
 28 29  1  0
 30 29  2  0
 31 30  1  0
 32 21  1  0
 32 34  1  0
 33 32  2  0
M  END
$$$$
