QDT.pdb
     RDKit          3D

 25 24  0  0  1  0  0  0  0  0999 V2000
   11.3707  -12.0468  -14.0874 N   0  0  0  0  0  0  0  0  0  0  0  0
   11.2132  -13.3076  -13.4568 C   0  0  0  0  0  0  0  0  0  0  0  0
   10.3794  -14.1029  -13.9209 O   0  0  0  0  0  0  0  0  0  0  0  0
   12.0210  -13.6397  -12.2862 C   0  0  0  0  0  0  0  0  0  0  0  0
   13.0022  -12.6252  -11.8151 C   0  0  0  0  0  0  0  0  0  0  0  0
   14.2288  -12.6206  -12.6440 C   0  0  2  0  0  0  0  0  0  0  0  0
   14.9685  -13.8453  -12.5712 N   0  0  0  0  0  0  0  0  0  0  0  0
   15.1669  -11.5017  -12.2491 C   0  0  0  0  0  0  0  0  0  0  0  0
   15.8351  -11.5553  -11.1851 O   0  0  0  0  0  0  0  0  0  0  0  0
   15.3230  -10.3461  -13.0756 N   0  0  0  0  0  0  0  0  0  0  0  0
   16.2272   -9.2756  -12.7692 C   0  0  1  0  0  0  0  0  0  0  0  0
   16.9968   -8.7974  -13.9651 C   0  0  0  0  0  0  0  0  0  0  0  0
   17.9383   -7.7258  -13.6893 C   0  0  0  0  0  0  0  0  0  0  0  0
   18.7227   -7.7955  -12.7220 O   0  0  0  0  0  0  0  0  0  0  0  0
   15.5619   -8.1657  -12.0389 C   0  0  0  0  0  0  0  0  0  0  0  0
   14.4355   -7.7520  -12.4139 O   0  0  0  0  0  0  0  0  0  0  0  0
   17.9869   -6.6060  -14.4906 O   0  0  0  0  0  0  0  0  0  0  0  0
   14.9539   -7.5030   -8.1178 C   0  0  0  0  0  0  0  0  0  0  0  0
   15.8684   -6.5161   -8.7721 C   0  0  1  0  0  0  0  0  0  0  0  0
   17.2147   -6.8286   -8.6198 O   0  0  0  0  0  0  0  0  0  0  0  0
   15.6177   -6.3787  -10.2649 C   0  0  2  0  0  0  0  0  0  0  0  0
   16.1744   -7.5547  -10.9159 N   0  0  0  0  0  0  0  0  0  0  0  0
   16.2965   -5.1470  -10.7087 C   0  0  0  0  0  0  0  0  0  0  0  0
   15.8415   -3.9259  -10.2653 O   0  0  0  0  0  0  0  0  0  0  0  0
   17.2734   -5.2213  -11.4792 O   0  0  0  0  0  0  0  0  0  0  0  0
  2  1  1  0
  2  3  2  0
  4  5  1  0
  4  2  1  0
  5  6  1  0
  6  7  1  1
  8  6  1  0
  8  9  2  0
 10  8  1  0
 11 10  1  0
 11 12  1  6
 13 12  1  0
 14 13  2  0
 15 11  1  0
 16 15  2  0
 17 13  1  0
 19 20  1  0
 19 18  1  6
 21 19  1  0
 21 22  1  6
 22 15  1  0
 23 24  1  0
 23 21  1  0
 25 23  2  0
M  END
$$$$
