QDT.pdb
     RDKit          3D

 25 24  0  0  1  0  0  0  0  0999 V2000
   17.7037  -14.5088  -20.5087 N   0  0  0  0  0  0  0  0  0  0  0  0
   16.5633  -13.9333  -19.8922 C   0  0  0  0  0  0  0  0  0  0  0  0
   15.5076  -13.8652  -20.5434 O   0  0  0  0  0  0  0  0  0  0  0  0
   16.6529  -13.4341  -18.5225 C   0  0  0  0  0  0  0  0  0  0  0  0
   17.9691  -13.5363  -17.8360 C   0  0  0  0  0  0  0  0  0  0  0  0
   17.9646  -12.8354  -16.5319 C   0  0  2  0  0  0  0  0  0  0  0  0
   16.6814  -12.8283  -15.8951 N   0  0  0  0  0  0  0  0  0  0  0  0
   18.4095  -11.3963  -16.6686 C   0  0  0  0  0  0  0  0  0  0  0  0
   19.5445  -11.1047  -17.1251 O   0  0  0  0  0  0  0  0  0  0  0  0
   17.5512  -10.3208  -16.2819 N   0  0  0  0  0  0  0  0  0  0  0  0
   17.9446   -8.9424  -16.3334 C   0  0  1  0  0  0  0  0  0  0  0  0
   16.7774   -8.0001  -16.3637 C   0  0  0  0  0  0  0  0  0  0  0  0
   17.1370   -6.5926  -16.3869 C   0  0  0  0  0  0  0  0  0  0  0  0
   18.0521   -6.1775  -17.1258 O   0  0  0  0  0  0  0  0  0  0  0  0
   18.9291   -8.5959  -15.2758 C   0  0  0  0  0  0  0  0  0  0  0  0
   18.5967   -8.6509  -14.0646 O   0  0  0  0  0  0  0  0  0  0  0  0
   16.4750   -5.6823  -15.5924 O   0  0  0  0  0  0  0  0  0  0  0  0
   22.4072  -10.1348  -14.6018 C   0  0  0  0  0  0  0  0  0  0  0  0
   22.5086   -8.6819  -14.9441 C   0  0  1  0  0  0  0  0  0  0  0  0
   22.7573   -8.4504  -16.2924 O   0  0  0  0  0  0  0  0  0  0  0  0
   21.2518   -7.9032  -14.5913 C   0  0  2  0  0  0  0  0  0  0  0  0
   20.2502   -8.2000  -15.6038 N   0  0  0  0  0  0  0  0  0  0  0  0
   21.6109   -6.4729  -14.5938 C   0  0  0  0  0  0  0  0  0  0  0  0
   21.0694   -5.6407  -15.5472 O   0  0  0  0  0  0  0  0  0  0  0  0
   22.3992   -6.0305  -13.7357 O   0  0  0  0  0  0  0  0  0  0  0  0
  2  1  1  0
  2  3  2  0
  4  5  1  0
  4  2  1  0
  5  6  1  0
  6  7  1  6
  8  6  1  0
  8  9  2  0
 10  8  1  0
 11 10  1  0
 11 12  1  1
 13 12  1  0
 14 13  2  0
 15 11  1  0
 16 15  2  0
 17 13  1  0
 19 20  1  0
 19 18  1  6
 21 19  1  0
 21 22  1  6
 22 15  1  0
 23 24  1  0
 23 21  1  0
 25 23  2  0
M  END
$$$$
