QDT.pdb
     RDKit          3D

 25 24  0  0  1  0  0  0  0  0999 V2000
   17.9470  -12.6569  -13.6921 N   0  0  0  0  0  0  0  0  0  0  0  0
   16.6179  -13.1284  -13.8453 C   0  0  0  0  0  0  0  0  0  0  0  0
   16.4314  -14.1830  -14.4747 O   0  0  0  0  0  0  0  0  0  0  0  0
   15.5086  -12.3715  -13.2713 C   0  0  0  0  0  0  0  0  0  0  0  0
   15.8365  -11.1285  -12.5219 C   0  0  0  0  0  0  0  0  0  0  0  0
   15.0169  -10.9933  -11.2964 C   0  0  2  0  0  0  0  0  0  0  0  0
   13.7366  -11.6282  -11.3961 N   0  0  0  0  0  0  0  0  0  0  0  0
   14.7758   -9.5428  -10.9416 C   0  0  0  0  0  0  0  0  0  0  0  0
   13.8337   -8.8918  -11.4614 O   0  0  0  0  0  0  0  0  0  0  0  0
   15.6138   -8.8660  -10.0021 N   0  0  0  0  0  0  0  0  0  0  0  0
   15.4759   -7.4741   -9.6846 C   0  0  1  0  0  0  0  0  0  0  0  0
   15.6788   -7.1820   -8.2270 C   0  0  0  0  0  0  0  0  0  0  0  0
   15.3999   -5.8094   -7.8408 C   0  0  0  0  0  0  0  0  0  0  0  0
   15.9630   -5.2947   -6.8540 O   0  0  0  0  0  0  0  0  0  0  0  0
   16.3093   -6.6097  -10.5601 C   0  0  0  0  0  0  0  0  0  0  0  0
   17.5628   -6.6955  -10.5192 O   0  0  0  0  0  0  0  0  0  0  0  0
   14.5059   -5.0432   -8.5563 O   0  0  0  0  0  0  0  0  0  0  0  0
   16.6202   -6.3572  -14.3410 C   0  0  0  0  0  0  0  0  0  0  0  0
   16.0349   -5.1080  -13.7620 C   0  0  1  0  0  0  0  0  0  0  0  0
   14.6449   -5.1154  -13.7294 O   0  0  0  0  0  0  0  0  0  0  0  0
   16.5041   -4.8398  -12.3413 C   0  0  2  0  0  0  0  0  0  0  0  0
   15.7174   -5.6793  -11.4510 N   0  0  0  0  0  0  0  0  0  0  0  0
   16.2762   -3.4081  -12.0707 C   0  0  0  0  0  0  0  0  0  0  0  0
   17.0716   -2.4679  -12.6855 O   0  0  0  0  0  0  0  0  0  0  0  0
   15.3682   -3.0621  -11.2900 O   0  0  0  0  0  0  0  0  0  0  0  0
  2  1  1  0
  2  3  2  0
  4  5  1  0
  4  2  1  0
  5  6  1  0
  6  7  1  6
  8  6  1  0
  8  9  2  0
 10  8  1  0
 11 10  1  0
 11 12  1  1
 13 12  1  0
 14 13  2  0
 15 11  1  0
 16 15  2  0
 17 13  1  0
 19 20  1  0
 19 18  1  1
 21 19  1  0
 21 22  1  1
 22 15  1  0
 23 24  1  0
 23 21  1  0
 25 23  2  0
M  END
$$$$
