QDT.pdb
     RDKit          3D

 25 24  0  0  1  0  0  0  0  0999 V2000
   14.8006  -13.9380  -18.3460 N   0  0  0  0  0  0  0  0  0  0  0  0
   14.9867  -14.1901  -16.9625 C   0  0  0  0  0  0  0  0  0  0  0  0
   14.1481  -14.8882  -16.3687 O   0  0  0  0  0  0  0  0  0  0  0  0
   16.1436  -13.6271  -16.2713 C   0  0  0  0  0  0  0  0  0  0  0  0
   17.1205  -12.8507  -17.0817 C   0  0  0  0  0  0  0  0  0  0  0  0
   18.2037  -12.2868  -16.2447 C   0  0  2  0  0  0  0  0  0  0  0  0
   18.0635  -12.5928  -14.8522 N   0  0  0  0  0  0  0  0  0  0  0  0
   18.2827  -10.7816  -16.3711 C   0  0  0  0  0  0  0  0  0  0  0  0
   18.4376  -10.2280  -17.4897 O   0  0  0  0  0  0  0  0  0  0  0  0
   18.1834   -9.9403  -15.2200 N   0  0  0  0  0  0  0  0  0  0  0  0
   18.2045   -8.5077  -15.2881 C   0  0  1  0  0  0  0  0  0  0  0  0
   16.8479   -7.8920  -15.1100 C   0  0  0  0  0  0  0  0  0  0  0  0
   16.8316   -6.4400  -15.1600 C   0  0  0  0  0  0  0  0  0  0  0  0
   16.1470   -5.7790  -14.3536 O   0  0  0  0  0  0  0  0  0  0  0  0
   19.2228   -7.9139  -14.3833 C   0  0  0  0  0  0  0  0  0  0  0  0
   19.1973   -8.1708  -13.1530 O   0  0  0  0  0  0  0  0  0  0  0  0
   17.5727   -5.7583  -16.1003 O   0  0  0  0  0  0  0  0  0  0  0  0
   22.7223   -8.5504  -13.9950 C   0  0  0  0  0  0  0  0  0  0  0  0
   22.5945   -7.1281  -14.4411 C   0  0  1  0  0  0  0  0  0  0  0  0
   22.7002   -6.9720  -15.8187 O   0  0  0  0  0  0  0  0  0  0  0  0
   21.2746   -6.4967  -14.0296 C   0  0  2  0  0  0  0  0  0  0  0  0
   20.2345   -7.0543  -14.8804 N   0  0  0  0  0  0  0  0  0  0  0  0
   21.4078   -5.0414  -14.2275 C   0  0  0  0  0  0  0  0  0  0  0  0
   22.1687   -4.3055  -13.3476 O   0  0  0  0  0  0  0  0  0  0  0  0
   20.8323   -4.4914  -15.1866 O   0  0  0  0  0  0  0  0  0  0  0  0
  2  1  1  0
  2  3  2  0
  4  5  1  0
  4  2  1  0
  5  6  1  0
  6  7  1  1
  8  6  1  0
  8  9  2  0
 10  8  1  0
 11 10  1  0
 11 12  1  1
 13 12  1  0
 14 13  2  0
 15 11  1  0
 16 15  2  0
 17 13  1  0
 19 20  1  0
 19 18  1  6
 21 19  1  0
 21 22  1  6
 22 15  1  0
 23 24  1  0
 23 21  1  0
 25 23  2  0
M  END
$$$$
