QDT.pdb
     RDKit          3D

 25 24  0  0  1  0  0  0  0  0999 V2000
   26.2090  -21.1430  -16.0815 N   0  0  0  0  0  0  0  0  0  0  0  0
   26.8756  -22.3881  -15.9492 C   0  0  0  0  0  0  0  0  0  0  0  0
   28.1175  -22.3960  -15.9208 O   0  0  0  0  0  0  0  0  0  0  0  0
   26.0985  -23.6211  -15.8547 C   0  0  0  0  0  0  0  0  0  0  0  0
   24.6219  -23.4970  -15.7194 C   0  0  0  0  0  0  0  0  0  0  0  0
   24.2376  -22.8929  -14.4236 C   0  0  2  0  0  0  0  0  0  0  0  0
   23.9807  -23.8610  -13.3993 N   0  0  0  0  0  0  0  0  0  0  0  0
   23.0007  -22.0320  -14.5524 C   0  0  0  0  0  0  0  0  0  0  0  0
   22.3998  -21.9132  -15.6508 O   0  0  0  0  0  0  0  0  0  0  0  0
   22.4757  -21.3251  -13.4265 N   0  0  0  0  0  0  0  0  0  0  0  0
   21.2811  -20.5332  -13.4818 C   0  0  1  0  0  0  0  0  0  0  0  0
   20.7185  -20.2249  -12.1254 C   0  0  0  0  0  0  0  0  0  0  0  0
   19.4237  -20.8268  -11.8567 C   0  0  0  0  0  0  0  0  0  0  0  0
   19.2616  -21.5897  -10.8833 O   0  0  0  0  0  0  0  0  0  0  0  0
   21.4475  -19.3171  -14.3193 C   0  0  0  0  0  0  0  0  0  0  0  0
   22.2283  -18.4027  -13.9524 O   0  0  0  0  0  0  0  0  0  0  0  0
   18.3433  -20.5689  -12.6717 O   0  0  0  0  0  0  0  0  0  0  0  0
   22.7312  -18.7834  -17.7900 C   0  0  0  0  0  0  0  0  0  0  0  0
   21.2896  -18.3862  -17.7420 C   0  0  1  0  0  0  0  0  0  0  0  0
   20.4266  -19.3971  -18.1500 O   0  0  0  0  0  0  0  0  0  0  0  0
   20.8402  -17.9617  -16.3534 C   0  0  2  0  0  0  0  0  0  0  0  0
   20.7382  -19.1614  -15.5367 N   0  0  0  0  0  0  0  0  0  0  0  0
   19.5305  -17.3006  -16.5029 C   0  0  0  0  0  0  0  0  0  0  0  0
   19.4566  -16.0799  -17.1348 O   0  0  0  0  0  0  0  0  0  0  0  0
   18.5045  -17.8505  -16.0575 O   0  0  0  0  0  0  0  0  0  0  0  0
  2  1  1  0
  2  3  2  0
  4  5  1  0
  4  2  1  0
  5  6  1  0
  6  7  1  1
  8  6  1  0
  8  9  2  0
 10  8  1  0
 11 10  1  0
 11 12  1  1
 13 12  1  0
 14 13  2  0
 15 11  1  0
 16 15  2  0
 17 13  1  0
 19 20  1  0
 19 18  1  1
 21 19  1  0
 21 22  1  1
 22 15  1  0
 23 24  1  0
 23 21  1  0
 25 23  2  0
M  END
$$$$
