QDT.pdb
     RDKit          3D

 25 24  0  0  1  0  0  0  0  0999 V2000
   14.1390  -15.6695  -12.9406 N   0  0  0  0  0  0  0  0  0  0  0  0
   13.0422  -14.8126  -13.2144 C   0  0  0  0  0  0  0  0  0  0  0  0
   12.0272  -15.2980  -13.7409 O   0  0  0  0  0  0  0  0  0  0  0  0
   13.1288  -13.3935  -12.8803 C   0  0  0  0  0  0  0  0  0  0  0  0
   14.3928  -12.9057  -12.2652 C   0  0  0  0  0  0  0  0  0  0  0  0
   15.3454  -12.4115  -13.2852 C   0  0  2  0  0  0  0  0  0  0  0  0
   16.2959  -13.3994  -13.7009 N   0  0  0  0  0  0  0  0  0  0  0  0
   16.1252  -11.2142  -12.7892 C   0  0  0  0  0  0  0  0  0  0  0  0
   16.8921  -11.3007  -11.7962 O   0  0  0  0  0  0  0  0  0  0  0  0
   16.0140   -9.9443  -13.4357 N   0  0  0  0  0  0  0  0  0  0  0  0
   16.6875   -8.7649  -12.9747 C   0  0  1  0  0  0  0  0  0  0  0  0
   17.4138   -8.0388  -14.0686 C   0  0  0  0  0  0  0  0  0  0  0  0
   18.0880   -6.8238  -13.6439 C   0  0  0  0  0  0  0  0  0  0  0  0
   18.8124   -6.8147  -12.6286 O   0  0  0  0  0  0  0  0  0  0  0  0
   15.7924   -7.8713  -12.1947 C   0  0  0  0  0  0  0  0  0  0  0  0
   14.6451   -7.5961  -12.6285 O   0  0  0  0  0  0  0  0  0  0  0  0
   17.9427   -5.6518  -14.3535 O   0  0  0  0  0  0  0  0  0  0  0  0
   14.6987   -7.8196   -8.3287 C   0  0  0  0  0  0  0  0  0  0  0  0
   15.5334   -6.6517   -8.7502 C   0  0  1  0  0  0  0  0  0  0  0  0
   16.8888   -6.8224   -8.4918 O   0  0  0  0  0  0  0  0  0  0  0  0
   15.4067   -6.3402  -10.2325 C   0  0  2  0  0  0  0  0  0  0  0  0
   16.2063   -7.3152  -10.9582 N   0  0  0  0  0  0  0  0  0  0  0  0
   15.9157   -4.9708  -10.4345 C   0  0  0  0  0  0  0  0  0  0  0  0
   15.2209   -3.9058   -9.9076 O   0  0  0  0  0  0  0  0  0  0  0  0
   16.9673   -4.7895  -11.0785 O   0  0  0  0  0  0  0  0  0  0  0  0
  2  1  1  0
  2  3  2  0
  4  5  1  0
  4  2  1  0
  5  6  1  0
  6  7  1  1
  8  6  1  0
  8  9  2  0
 10  8  1  0
 11 10  1  0
 11 12  1  6
 13 12  1  0
 14 13  2  0
 15 11  1  0
 16 15  2  0
 17 13  1  0
 19 20  1  0
 19 18  1  6
 21 19  1  0
 21 22  1  6
 22 15  1  0
 23 24  1  0
 23 21  1  0
 25 23  2  0
M  END
$$$$
