QDT.pdb
     RDKit          3D

 25 24  0  0  1  0  0  0  0  0999 V2000
   17.0272  -12.6573  -13.7820 N   0  0  0  0  0  0  0  0  0  0  0  0
   16.4469  -12.9179  -15.0498 C   0  0  0  0  0  0  0  0  0  0  0  0
   15.8409  -13.9895  -15.2159 O   0  0  0  0  0  0  0  0  0  0  0  0
   16.5759  -11.9355  -16.1229 C   0  0  0  0  0  0  0  0  0  0  0  0
   17.3458  -10.6955  -15.8338 C   0  0  0  0  0  0  0  0  0  0  0  0
   17.4826   -9.8409  -17.0349 C   0  0  2  0  0  0  0  0  0  0  0  0
   18.2981  -10.4247  -18.0578 N   0  0  0  0  0  0  0  0  0  0  0  0
   18.0777   -8.4920  -16.6972 C   0  0  0  0  0  0  0  0  0  0  0  0
   19.2477   -8.1893  -17.0452 O   0  0  0  0  0  0  0  0  0  0  0  0
   17.3262   -7.5174  -15.9703 N   0  0  0  0  0  0  0  0  0  0  0  0
   17.8231   -6.2065  -15.6668 C   0  0  1  0  0  0  0  0  0  0  0  0
   16.7310   -5.2099  -15.4113 C   0  0  0  0  0  0  0  0  0  0  0  0
   15.7217   -5.1383  -16.4540 C   0  0  0  0  0  0  0  0  0  0  0  0
   15.9915   -4.6623  -17.5749 O   0  0  0  0  0  0  0  0  0  0  0  0
   18.8420   -6.2248  -14.5853 C   0  0  0  0  0  0  0  0  0  0  0  0
   18.5078   -6.5258  -13.4114 O   0  0  0  0  0  0  0  0  0  0  0  0
   14.4415   -5.5949  -16.2288 O   0  0  0  0  0  0  0  0  0  0  0  0
   22.0790   -8.2714  -14.5709 C   0  0  0  0  0  0  0  0  0  0  0  0
   22.3853   -6.8126  -14.4429 C   0  0  1  0  0  0  0  0  0  0  0  0
   22.6944   -6.2069  -15.6557 O   0  0  0  0  0  0  0  0  0  0  0  0
   21.2384   -6.0196  -13.8380 C   0  0  2  0  0  0  0  0  0  0  0  0
   20.1982   -5.9072  -14.8489 N   0  0  0  0  0  0  0  0  0  0  0  0
   21.7724   -4.6959  -13.4672 C   0  0  0  0  0  0  0  0  0  0  0  0
   21.4042   -3.5887  -14.1974 O   0  0  0  0  0  0  0  0  0  0  0  0
   22.5502   -4.5906  -12.4990 O   0  0  0  0  0  0  0  0  0  0  0  0
  2  1  1  0
  2  3  2  0
  4  5  1  0
  4  2  1  0
  5  6  1  0
  6  7  1  6
  8  6  1  0
  8  9  2  0
 10  8  1  0
 11 10  1  0
 11 12  1  1
 13 12  1  0
 14 13  2  0
 15 11  1  0
 16 15  2  0
 17 13  1  0
 19 20  1  0
 19 18  1  6
 21 19  1  0
 21 22  1  6
 22 15  1  0
 23 24  1  0
 23 21  1  0
 25 23  2  0
M  END
$$$$
