QDT.pdb
     RDKit          3D

 25 24  0  0  1  0  0  0  0  0999 V2000
   16.5805  -12.4720  -18.2922 N   0  0  0  0  0  0  0  0  0  0  0  0
   17.5109  -13.5393  -18.3777 C   0  0  0  0  0  0  0  0  0  0  0  0
   17.1464  -14.6736  -18.0262 O   0  0  0  0  0  0  0  0  0  0  0  0
   18.8635  -13.2857  -18.8668 C   0  0  0  0  0  0  0  0  0  0  0  0
   19.1692  -11.9201  -19.3726 C   0  0  0  0  0  0  0  0  0  0  0  0
   20.3680  -11.3475  -18.7192 C   0  0  2  0  0  0  0  0  0  0  0  0
   21.0590  -12.2816  -17.8811 N   0  0  0  0  0  0  0  0  0  0  0  0
   20.0213  -10.1466  -17.8676 C   0  0  0  0  0  0  0  0  0  0  0  0
   19.6903   -9.0508  -18.3886 O   0  0  0  0  0  0  0  0  0  0  0  0
   20.0593  -10.2206  -16.4407 N   0  0  0  0  0  0  0  0  0  0  0  0
   19.7200   -9.1196  -15.5863 C   0  0  1  0  0  0  0  0  0  0  0  0
   18.9569   -9.5390  -14.3643 C   0  0  0  0  0  0  0  0  0  0  0  0
   18.6435   -8.4573  -13.4463 C   0  0  0  0  0  0  0  0  0  0  0  0
   18.3165   -7.3311  -13.8713 O   0  0  0  0  0  0  0  0  0  0  0  0
   20.8974   -8.2738  -15.2601 C   0  0  0  0  0  0  0  0  0  0  0  0
   21.9205   -8.7916  -14.7450 O   0  0  0  0  0  0  0  0  0  0  0  0
   18.7001   -8.6503  -12.0834 O   0  0  0  0  0  0  0  0  0  0  0  0
   23.0723   -5.9639  -17.4132 C   0  0  0  0  0  0  0  0  0  0  0  0
   22.3643   -5.1757  -16.3571 C   0  0  1  0  0  0  0  0  0  0  0  0
   21.1872   -4.5874  -16.8060 O   0  0  0  0  0  0  0  0  0  0  0  0
   21.9991   -6.0120  -15.1416 C   0  0  2  0  0  0  0  0  0  0  0  0
   20.8943   -6.8800  -15.5190 N   0  0  0  0  0  0  0  0  0  0  0  0
   21.6060   -5.0764  -14.0716 C   0  0  0  0  0  0  0  0  0  0  0  0
   22.5660   -4.2959  -13.4684 O   0  0  0  0  0  0  0  0  0  0  0  0
   20.4116   -5.0000  -13.7233 O   0  0  0  0  0  0  0  0  0  0  0  0
  2  1  1  0
  2  3  2  0
  4  5  1  0
  4  2  1  0
  5  6  1  0
  6  7  1  1
  8  6  1  0
  8  9  2  0
 10  8  1  0
 11 10  1  0
 11 12  1  1
 13 12  1  0
 14 13  2  0
 15 11  1  0
 16 15  2  0
 17 13  1  0
 19 20  1  0
 19 18  1  6
 21 19  1  0
 21 22  1  6
 22 15  1  0
 23 24  1  0
 23 21  1  0
 25 23  2  0
M  END
$$$$
