QDT.pdb
     RDKit          3D

 25 24  0  0  1  0  0  0  0  0999 V2000
   19.2693  -11.6296  -21.0737 N   0  0  0  0  0  0  0  0  0  0  0  0
   18.7161  -10.7513  -20.1069 C   0  0  0  0  0  0  0  0  0  0  0  0
   18.4277   -9.5937  -20.4532 O   0  0  0  0  0  0  0  0  0  0  0  0
   18.5034  -11.2182  -18.7395 C   0  0  0  0  0  0  0  0  0  0  0  0
   18.5439  -10.2049  -17.6506 C   0  0  0  0  0  0  0  0  0  0  0  0
   19.9202   -9.9936  -17.1475 C   0  0  2  0  0  0  0  0  0  0  0  0
   20.4526  -11.1290  -16.4549 N   0  0  0  0  0  0  0  0  0  0  0  0
   19.9965   -8.8127  -16.2054 C   0  0  0  0  0  0  0  0  0  0  0  0
   19.3277   -8.7830  -15.1407 O   0  0  0  0  0  0  0  0  0  0  0  0
   20.8333   -7.6913  -16.4974 N   0  0  0  0  0  0  0  0  0  0  0  0
   20.9331   -6.5412  -15.6463 C   0  0  1  0  0  0  0  0  0  0  0  0
   22.2853   -6.3962  -15.0123 C   0  0  0  0  0  0  0  0  0  0  0  0
   22.4192   -5.2506  -14.1287 C   0  0  0  0  0  0  0  0  0  0  0  0
   23.0618   -4.2415  -14.4814 O   0  0  0  0  0  0  0  0  0  0  0  0
   20.4851   -5.2966  -16.3233 C   0  0  0  0  0  0  0  0  0  0  0  0
   21.0390   -4.9262  -17.3893 O   0  0  0  0  0  0  0  0  0  0  0  0
   21.8389   -5.2521  -12.8792 O   0  0  0  0  0  0  0  0  0  0  0  0
   16.9506   -4.3236  -17.5129 C   0  0  0  0  0  0  0  0  0  0  0  0
   17.4516   -3.3509  -16.4926 C   0  0  1  0  0  0  0  0  0  0  0  0
   17.0109   -3.6297  -15.2037 O   0  0  0  0  0  0  0  0  0  0  0  0
   18.9690   -3.2884  -16.4318 C   0  0  2  0  0  0  0  0  0  0  0  0
   19.4355   -4.5074  -15.7894 N   0  0  0  0  0  0  0  0  0  0  0  0
   19.3242   -2.0949  -15.6416 C   0  0  0  0  0  0  0  0  0  0  0  0
   19.8446   -2.2507  -14.3769 O   0  0  0  0  0  0  0  0  0  0  0  0
   19.1509   -0.9586  -16.1237 O   0  0  0  0  0  0  0  0  0  0  0  0
  2  1  1  0
  2  3  2  0
  4  5  1  0
  4  2  1  0
  5  6  1  0
  6  7  1  1
  8  6  1  0
  8  9  2  0
 10  8  1  0
 11 10  1  0
 11 12  1  6
 13 12  1  0
 14 13  2  0
 15 11  1  0
 16 15  2  0
 17 13  1  0
 19 20  1  0
 19 18  1  6
 21 19  1  0
 21 22  1  1
 22 15  1  0
 23 24  1  0
 23 21  1  0
 25 23  2  0
M  END
$$$$
