SRL.pdb
     RDKit          3D

 26 25  0  0  1  0  0  0  0  0999 V2000
    7.5126  -11.6585   20.3876 O   0  0  0  0  0  0  0  0  0  0  0  0
    8.3815  -12.0654   19.3797 C   0  0  0  0  0  0  0  0  0  0  0  0
    8.0495  -13.4746   18.9450 C   0  0  2  0  0  0  0  0  0  0  0  0
    6.6508  -13.5298   18.5761 N   0  0  0  0  0  0  0  0  0  0  0  0
    8.2896  -14.4425   20.0694 C   0  0  0  0  0  0  0  0  0  0  0  0
    7.3218  -14.8595   20.7617 O   0  0  0  0  0  0  0  0  0  0  0  0
   13.9721  -16.0666   17.9828 N   0  0  0  0  0  0  0  0  0  0  0  0
   14.3420  -15.6111   19.2651 C   0  0  0  0  0  0  0  0  0  0  0  0
   15.1234  -14.6129   19.4669 N   0  0  0  0  0  0  0  0  0  0  0  0
   13.8135  -16.3038   20.3822 N   0  0  0  0  0  0  0  0  0  0  0  0
   12.9765  -17.4596   20.2265 C   0  0  0  0  0  0  0  0  0  0  0  0
   11.4970  -17.0712   20.2657 C   0  0  0  0  0  0  0  0  0  0  0  0
   11.1923  -16.2844   21.5106 C   0  0  0  0  0  0  0  0  0  0  0  0
    9.7584  -15.8048   21.5795 C   0  0  2  0  0  0  0  0  0  0  0  0
    9.5855  -14.9207   20.3962 N   0  0  0  0  0  0  0  0  0  0  0  0
    9.4428  -15.0285   22.7923 C   0  0  0  0  0  0  0  0  0  0  0  0
    9.7128  -13.7817   22.7734 O   0  0  0  0  0  0  0  0  0  0  0  0
   15.4115  -14.3127   20.4137 C   0  0  0  0  0  0  0  0  0  0  0  0
    5.5998  -12.6389   26.2252 C   0  0  1  0  0  0  0  0  0  0  0  0
    7.0918  -13.0356   26.2036 C   0  0  0  0  0  0  0  0  0  0  0  0
    7.9302  -11.7772   26.2993 C   0  0  0  0  0  0  0  0  0  0  0  0
    7.3853  -13.8493   24.9754 C   0  0  2  0  0  0  0  0  0  0  0  0
    8.6157  -14.6643   25.1529 N   0  0  0  0  0  0  0  0  0  0  0  0
    8.8705  -15.5057   23.9784 C   0  0  0  0  0  0  0  0  0  0  0  0
    8.5616  -15.4683   26.3738 O   0  0  0  0  0  0  0  0  0  0  0  0
    8.5190  -16.8809   26.2270 O   0  0  0  0  0  0  0  0  0  0  0  0
  1  2  1  0
  3  2  1  0
  3  4  1  1
  5  3  1  0
  6  5  2  0
  7  8  1  0
  8 10  1  0
  8  9  2  0
 10 11  1  0
 11 12  1  0
 13 12  1  0
 14 13  1  1
 14 15  1  0
 15  5  1  0
 16 14  1  0
 16 17  2  0
 19 21  1  0
 19 18  1  1
 20 19  1  0
 22 21  1  6
 22 23  1  0
 23 16  1  0
 24 22  1  0
 25 24  1  0
 26 24  2  0
M  END
$$$$
