SRL.pdb
     RDKit          3D

 26 25  0  0  1  0  0  0  0  0999 V2000
    7.1389  -18.7733   24.9097 O   0  0  0  0  0  0  0  0  0  0  0  0
    5.9423  -18.6059   24.2194 C   0  0  0  0  0  0  0  0  0  0  0  0
    6.1714  -18.7716   22.7344 C   0  0  2  0  0  0  0  0  0  0  0  0
    6.6832  -20.1033   22.4890 N   0  0  0  0  0  0  0  0  0  0  0  0
    7.1785  -17.7703   22.2424 C   0  0  0  0  0  0  0  0  0  0  0  0
    8.3598  -18.1331   21.9920 O   0  0  0  0  0  0  0  0  0  0  0  0
    7.9056  -13.0409   15.8128 N   0  0  0  0  0  0  0  0  0  0  0  0
    8.2593  -14.2777   16.3907 C   0  0  0  0  0  0  0  0  0  0  0  0
    8.5036  -15.3371   15.7084 N   0  0  0  0  0  0  0  0  0  0  0  0
    8.3456  -14.3379   17.8035 N   0  0  0  0  0  0  0  0  0  0  0  0
    8.0398  -13.2028   18.6272 C   0  0  0  0  0  0  0  0  0  0  0  0
    8.2949  -13.5151   20.1033 C   0  0  0  0  0  0  0  0  0  0  0  0
    7.3505  -14.5810   20.5865 C   0  0  0  0  0  0  0  0  0  0  0  0
    7.9333  -15.4438   21.6850 C   0  0  2  0  0  0  0  0  0  0  0  0
    6.8544  -16.4031   22.0416 N   0  0  0  0  0  0  0  0  0  0  0  0
    8.3130  -14.6963   22.8976 C   0  0  0  0  0  0  0  0  0  0  0  0
    8.3496  -13.4240   22.8107 O   0  0  0  0  0  0  0  0  0  0  0  0
    8.7878  -16.2296   16.1469 C   0  0  0  0  0  0  0  0  0  0  0  0
    6.0085  -12.4949   27.2801 C   0  0  1  0  0  0  0  0  0  0  0  0
    7.4368  -12.9394   26.8980 C   0  0  0  0  0  0  0  0  0  0  0  0
    8.3241  -11.7134   26.8264 C   0  0  0  0  0  0  0  0  0  0  0  0
    7.4019  -13.7193   25.6145 C   0  0  2  0  0  0  0  0  0  0  0  0
    8.6866  -14.4303   25.3832 N   0  0  0  0  0  0  0  0  0  0  0  0
    8.6398  -15.2268   24.1520 C   0  0  0  0  0  0  0  0  0  0  0  0
    9.0624  -15.2570   26.5301 O   0  0  0  0  0  0  0  0  0  0  0  0
    9.3958  -16.6149   26.2781 O   0  0  0  0  0  0  0  0  0  0  0  0
  1  2  1  0
  3  2  1  0
  3  4  1  1
  5  3  1  0
  6  5  2  0
  7  8  1  0
  8 10  1  0
  8  9  2  0
 10 11  1  0
 11 12  1  0
 13 12  1  0
 14 13  1  6
 14 15  1  0
 15  5  1  0
 16 14  1  0
 16 17  2  0
 19 21  1  0
 19 18  1  1
 20 19  1  0
 22 21  1  6
 22 23  1  0
 23 16  1  0
 24 22  1  0
 25 24  1  0
 26 24  2  0
M  END
$$$$
