SRL.pdb
     RDKit          3D

 26 25  0  0  1  0  0  0  0  0999 V2000
    9.2409  -12.8354   20.5439 O   0  0  0  0  0  0  0  0  0  0  0  0
    8.2138  -12.9826   19.6165 C   0  0  0  0  0  0  0  0  0  0  0  0
    7.9421  -14.4492   19.3704 C   0  0  2  0  0  0  0  0  0  0  0  0
    6.8993  -14.5676   18.3734 N   0  0  0  0  0  0  0  0  0  0  0  0
    7.4785  -15.1177   20.6341 C   0  0  0  0  0  0  0  0  0  0  0  0
    6.3088  -14.9194   21.0613 O   0  0  0  0  0  0  0  0  0  0  0  0
    7.3710  -22.4686   24.1226 N   0  0  0  0  0  0  0  0  0  0  0  0
    6.1784  -21.7501   23.8987 C   0  0  0  0  0  0  0  0  0  0  0  0
    5.1674  -21.7867   24.6888 N   0  0  0  0  0  0  0  0  0  0  0  0
    6.1078  -20.9480   22.7330 N   0  0  0  0  0  0  0  0  0  0  0  0
    7.1909  -20.0922   22.3393 C   0  0  0  0  0  0  0  0  0  0  0  0
    7.3062  -18.8902   23.2792 C   0  0  0  0  0  0  0  0  0  0  0  0
    8.3397  -17.9227   22.7719 C   0  0  0  0  0  0  0  0  0  0  0  0
    7.8392  -16.4962   22.6988 C   0  0  2  0  0  0  0  0  0  0  0  0
    8.3152  -15.9825   21.3868 N   0  0  0  0  0  0  0  0  0  0  0  0
    8.3651  -15.6205   23.7617 C   0  0  0  0  0  0  0  0  0  0  0  0
    9.5876  -15.2663   23.6738 O   0  0  0  0  0  0  0  0  0  0  0  0
    4.2868  -21.2815   24.4915 C   0  0  0  0  0  0  0  0  0  0  0  0
    7.0882  -11.8492   25.1060 C   0  0  2  0  0  0  0  0  0  0  0  0
    6.3371  -12.9185   25.9284 C   0  0  0  0  0  0  0  0  0  0  0  0
    5.2360  -12.2395   26.7171 C   0  0  0  0  0  0  0  0  0  0  0  0
    7.3074  -13.6699   26.7948 C   0  0  2  0  0  0  0  0  0  0  0  0
    8.3101  -14.3965   25.9725 N   0  0  0  0  0  0  0  0  0  0  0  0
    7.6691  -15.1225   24.8705 C   0  0  0  0  0  0  0  0  0  0  0  0
    9.1305  -15.2936   26.7861 O   0  0  0  0  0  0  0  0  0  0  0  0
    9.9984  -14.7014   27.7425 O   0  0  0  0  0  0  0  0  0  0  0  0
  1  2  1  0
  3  2  1  0
  3  4  1  6
  5  3  1  0
  6  5  2  0
  7  8  1  0
  8 10  1  0
  8  9  2  0
 10 11  1  0
 11 12  1  0
 13 12  1  0
 14 13  1  1
 14 15  1  0
 15  5  1  0
 16 14  1  0
 16 17  2  0
 19 21  1  0
 19 18  1  6
 20 19  1  0
 22 21  1  6
 22 23  1  0
 23 16  1  0
 24 22  1  0
 25 24  1  0
 26 24  2  0
M  END
$$$$
