SRL.pdb
     RDKit          3D

 26 25  0  0  1  0  0  0  0  0999 V2000
   10.0036  -13.1250   19.9655 O   0  0  0  0  0  0  0  0  0  0  0  0
    9.5650  -14.1593   19.1443 C   0  0  0  0  0  0  0  0  0  0  0  0
    8.0555  -14.2361   19.1666 C   0  0  2  0  0  0  0  0  0  0  0  0
    7.5191  -12.9192   18.8954 N   0  0  0  0  0  0  0  0  0  0  0  0
    7.5713  -14.6845   20.5169 C   0  0  0  0  0  0  0  0  0  0  0  0
    7.0451  -13.8547   21.3071 O   0  0  0  0  0  0  0  0  0  0  0  0
    6.3085  -20.9790   26.0862 N   0  0  0  0  0  0  0  0  0  0  0  0
    7.5878  -20.9485   25.4938 C   0  0  0  0  0  0  0  0  0  0  0  0
    8.6701  -21.2298   26.1241 N   0  0  0  0  0  0  0  0  0  0  0  0
    7.6663  -20.5855   24.1266 N   0  0  0  0  0  0  0  0  0  0  0  0
    6.5299  -20.0716   23.4159 C   0  0  0  0  0  0  0  0  0  0  0  0
    6.4857  -18.5438   23.4890 C   0  0  0  0  0  0  0  0  0  0  0  0
    7.0276  -17.9405   22.2225 C   0  0  0  0  0  0  0  0  0  0  0  0
    7.0648  -16.4277   22.2484 C   0  0  2  0  0  0  0  0  0  0  0  0
    7.6810  -16.0302   20.9547 N   0  0  0  0  0  0  0  0  0  0  0  0
    7.8758  -15.8659   23.3439 C   0  0  0  0  0  0  0  0  0  0  0  0
    9.1080  -15.6414   23.1013 O   0  0  0  0  0  0  0  0  0  0  0  0
    9.5909  -21.2809   25.6560 C   0  0  0  0  0  0  0  0  0  0  0  0
    6.2707  -11.5788   27.2348 C   0  0  1  0  0  0  0  0  0  0  0  0
    7.4425  -12.2648   26.4999 C   0  0  0  0  0  0  0  0  0  0  0  0
    8.2011  -11.2168   25.7113 C   0  0  0  0  0  0  0  0  0  0  0  0
    6.9223  -13.3855   25.6455 C   0  0  2  0  0  0  0  0  0  0  0  0
    7.9714  -14.4117   25.4091 N   0  0  0  0  0  0  0  0  0  0  0  0
    7.4450  -15.5427   24.6369 C   0  0  0  0  0  0  0  0  0  0  0  0
    8.5766  -14.8662   26.6609 O   0  0  0  0  0  0  0  0  0  0  0  0
    8.5536  -16.2608   26.9316 O   0  0  0  0  0  0  0  0  0  0  0  0
  1  2  1  0
  3  2  1  0
  3  4  1  1
  5  3  1  0
  6  5  2  0
  7  8  1  0
  8 10  1  0
  8  9  2  0
 10 11  1  0
 11 12  1  0
 13 12  1  0
 14 13  1  1
 14 15  1  0
 15  5  1  0
 16 14  1  0
 16 17  2  0
 19 21  1  0
 19 18  1  1
 20 19  1  0
 22 21  1  6
 22 23  1  0
 23 16  1  0
 24 22  1  0
 25 24  1  0
 26 24  2  0
M  END
$$$$
