SRL.pdb
     RDKit          3D

 26 25  0  0  1  0  0  0  0  0999 V2000
   10.1077  -13.5276   19.7945 O   0  0  0  0  0  0  0  0  0  0  0  0
    8.9863  -13.0125   19.1514 C   0  0  0  0  0  0  0  0  0  0  0  0
    7.9051  -14.0657   19.0685 C   0  0  2  0  0  0  0  0  0  0  0  0
    6.7563  -13.5002   18.3932 N   0  0  0  0  0  0  0  0  0  0  0  0
    7.4882  -14.5013   20.4452 C   0  0  0  0  0  0  0  0  0  0  0  0
    6.7914  -13.7365   21.1660 O   0  0  0  0  0  0  0  0  0  0  0  0
    8.5382  -20.4404   25.3906 N   0  0  0  0  0  0  0  0  0  0  0  0
    7.2999  -20.2807   26.0461 C   0  0  0  0  0  0  0  0  0  0  0  0
    7.0758  -20.6725   27.2478 N   0  0  0  0  0  0  0  0  0  0  0  0
    6.2554  -19.6509   25.3253 N   0  0  0  0  0  0  0  0  0  0  0  0
    6.4332  -19.2085   23.9713 C   0  0  0  0  0  0  0  0  0  0  0  0
    7.5040  -18.1185   23.8895 C   0  0  0  0  0  0  0  0  0  0  0  0
    7.6261  -17.6055   22.4811 C   0  0  0  0  0  0  0  0  0  0  0  0
    7.4381  -16.1077   22.3715 C   0  0  2  0  0  0  0  0  0  0  0  0
    7.8505  -15.7631   20.9848 N   0  0  0  0  0  0  0  0  0  0  0  0
    8.2645  -15.3287   23.3114 C   0  0  0  0  0  0  0  0  0  0  0  0
    8.9264  -14.3489   22.8321 O   0  0  0  0  0  0  0  0  0  0  0  0
    6.1773  -20.5035   27.7311 C   0  0  0  0  0  0  0  0  0  0  0  0
    5.8260  -11.8532   26.6623 C   0  0  1  0  0  0  0  0  0  0  0  0
    7.2247  -12.5023   26.5847 C   0  0  0  0  0  0  0  0  0  0  0  0
    8.2491  -11.4181   26.3187 C   0  0  0  0  0  0  0  0  0  0  0  0
    7.2270  -13.5855   25.5438 C   0  0  2  0  0  0  0  0  0  0  0  0
    8.4238  -14.4568   25.6785 N   0  0  0  0  0  0  0  0  0  0  0  0
    8.4078  -15.5396   24.6887 C   0  0  0  0  0  0  0  0  0  0  0  0
    8.5581  -14.9870   27.0353 O   0  0  0  0  0  0  0  0  0  0  0  0
    7.9845  -16.2593   27.3017 O   0  0  0  0  0  0  0  0  0  0  0  0
  1  2  1  0
  3  2  1  0
  3  4  1  1
  5  3  1  0
  6  5  2  0
  7  8  1  0
  8 10  1  0
  8  9  2  0
 10 11  1  0
 11 12  1  0
 13 12  1  0
 14 13  1  1
 14 15  1  0
 15  5  1  0
 16 14  1  0
 16 17  2  0
 19 21  1  0
 19 18  1  1
 20 19  1  0
 22 21  1  6
 22 23  1  0
 23 16  1  0
 24 22  1  0
 25 24  1  0
 26 24  2  0
M  END
$$$$
