SRL.pdb
     RDKit          3D

 26 25  0  0  1  0  0  0  0  0999 V2000
    9.0316  -11.7287   20.4069 O   0  0  0  0  0  0  0  0  0  0  0  0
    9.2059  -12.7943   19.5291 C   0  0  0  0  0  0  0  0  0  0  0  0
    7.9607  -13.6509   19.4979 C   0  0  2  0  0  0  0  0  0  0  0  0
    6.8048  -12.7866   19.3871 N   0  0  0  0  0  0  0  0  0  0  0  0
    7.8424  -14.4537   20.7630 C   0  0  0  0  0  0  0  0  0  0  0  0
    6.9282  -14.1953   21.5920 O   0  0  0  0  0  0  0  0  0  0  0  0
   12.2972  -20.3053   24.5762 N   0  0  0  0  0  0  0  0  0  0  0  0
   11.1124  -21.0171   24.8558 C   0  0  0  0  0  0  0  0  0  0  0  0
   11.0170  -21.9044   25.7783 N   0  0  0  0  0  0  0  0  0  0  0  0
    9.9729  -20.7250   24.0661 N   0  0  0  0  0  0  0  0  0  0  0  0
   10.0356  -19.8136   22.9590 C   0  0  0  0  0  0  0  0  0  0  0  0
    9.2539  -18.5333   23.2611 C   0  0  0  0  0  0  0  0  0  0  0  0
    9.2979  -17.5995   22.0830 C   0  0  0  0  0  0  0  0  0  0  0  0
    8.4848  -16.3394   22.2876 C   0  0  2  0  0  0  0  0  0  0  0  0
    8.7325  -15.5142   21.0755 N   0  0  0  0  0  0  0  0  0  0  0  0
    8.8785  -15.5571   23.4735 C   0  0  0  0  0  0  0  0  0  0  0  0
   10.0634  -15.0845   23.4933 O   0  0  0  0  0  0  0  0  0  0  0  0
   10.1459  -22.4329   25.9559 C   0  0  0  0  0  0  0  0  0  0  0  0
    8.1128  -11.7186   25.3901 C   0  0  1  0  0  0  0  0  0  0  0  0
    7.0133  -12.7696   25.6554 C   0  0  0  0  0  0  0  0  0  0  0  0
    5.8121  -12.0730   26.2618 C   0  0  0  0  0  0  0  0  0  0  0  0
    7.5578  -13.8697   26.5214 C   0  0  2  0  0  0  0  0  0  0  0  0
    8.6156  -14.6368   25.8129 N   0  0  0  0  0  0  0  0  0  0  0  0
    8.0919  -15.2654   24.5951 C   0  0  0  0  0  0  0  0  0  0  0  0
    9.2442  -15.6272   26.6869 O   0  0  0  0  0  0  0  0  0  0  0  0
    9.9670  -15.1446   27.8109 O   0  0  0  0  0  0  0  0  0  0  0  0
  1  2  1  0
  3  2  1  0
  3  4  1  1
  5  3  1  0
  6  5  2  0
  7  8  1  0
  8 10  1  0
  8  9  2  0
 10 11  1  0
 11 12  1  0
 13 12  1  0
 14 13  1  6
 14 15  1  0
 15  5  1  0
 16 14  1  0
 16 17  2  0
 19 21  1  0
 19 18  1  6
 20 19  1  0
 22 21  1  6
 22 23  1  0
 23 16  1  0
 24 22  1  0
 25 24  1  0
 26 24  2  0
M  END
$$$$
