ITF.pdb
     RDKit          3D

 27 27  0  0  1  0  0  0  0  0999 V2000
   11.6799  -12.7458  -15.8247 C   0  0  0  0  0  0  0  0  0  0  0  0
   13.0932  -12.2874  -16.0341 C   0  0  0  0  0  0  0  0  0  0  0  0
   13.6886  -11.6946  -14.7448 C   0  0  2  0  0  0  0  0  0  0  0  0
   12.8353  -10.5731  -14.2477 C   0  0  0  0  0  0  0  0  0  0  0  0
   15.1173  -11.2289  -15.0348 C   0  0  2  0  0  0  0  0  0  0  0  0
   15.8352  -12.4969  -15.3090 N   0  0  0  0  0  0  0  0  0  0  0  0
   15.7760  -10.6261  -13.8717 C   0  0  0  0  0  0  0  0  0  0  0  0
   15.9532  -11.3113  -12.8261 O   0  0  0  0  0  0  0  0  0  0  0  0
   19.0564   -9.7601  -13.2798 C   0  0  0  0  0  0  0  0  0  0  0  0
   18.3407   -8.4952  -12.8999 C   0  0  1  0  0  0  0  0  0  0  0  0
   18.4166   -7.5172  -13.8660 O   0  0  0  0  0  0  0  0  0  0  0  0
   16.8540   -8.7592  -12.5944 C   0  0  2  0  0  0  0  0  0  0  0  0
   16.2674   -9.2847  -13.7851 N   0  0  0  0  0  0  0  0  0  0  0  0
   16.2179   -7.5780  -12.0149 C   0  0  0  0  0  0  0  0  0  0  0  0
   15.5340   -6.7977  -12.7686 O   0  0  0  0  0  0  0  0  0  0  0  0
   16.2670   -7.1713  -10.6559 N   0  0  0  0  0  0  0  0  0  0  0  0
   15.7322   -5.8809  -10.1912 C   0  0  1  0  0  0  0  0  0  0  0  0
   14.2443   -5.8268  -10.3694 C   0  0  0  0  0  0  0  0  0  0  0  0
   13.4889   -6.7047   -9.4498 C   0  0  0  0  0  0  0  0  0  0  0  0
   13.0617   -7.9632   -9.8213 C   0  0  0  0  0  0  0  0  0  0  0  0
   12.3610   -8.7915   -8.9651 C   0  0  0  0  0  0  0  0  0  0  0  0
   12.0632   -8.3756   -7.6911 C   0  0  0  0  0  0  0  0  0  0  0  0
   12.4748   -7.1247   -7.2884 C   0  0  0  0  0  0  0  0  0  0  0  0
   13.1729   -6.3056   -8.1485 C   0  0  0  0  0  0  0  0  0  0  0  0
   16.1436   -5.6788   -8.7941 C   0  0  0  0  0  0  0  0  0  0  0  0
   15.9059   -4.4792   -8.1485 O   0  0  0  0  0  0  0  0  0  0  0  0
   16.7206   -6.5942   -8.1577 O   0  0  0  0  0  0  0  0  0  0  0  0
  2  1  1  0
  3  2  1  0
  3  4  1  6
  5  6  1  1
  5  3  1  0
  7  5  1  0
  8  7  2  0
 10  9  1  6
 10 11  1  0
 12 10  1  0
 12 13  1  6
 13  7  1  0
 14 15  2  0
 14 12  1  0
 16 14  1  0
 17 25  1  0
 17 16  1  0
 17 18  1  1
 18 19  1  0
 19 20  2  0
 19 24  1  0
 20 21  1  0
 21 22  2  0
 23 22  1  0
 24 23  2  0
 25 26  1  0
 27 25  2  0
M  END
$$$$
