ITF.pdb
     RDKit          3D

 27 27  0  0  1  0  0  0  0  0999 V2000
   24.3491  -14.1737  -16.1945 C   0  0  0  0  0  0  0  0  0  0  0  0
   23.0101  -13.7416  -16.7159 C   0  0  0  0  0  0  0  0  0  0  0  0
   22.8843  -12.2081  -16.7394 C   0  0  2  0  0  0  0  0  0  0  0  0
   23.1230  -11.6475  -15.3750 C   0  0  0  0  0  0  0  0  0  0  0  0
   21.4949  -11.8393  -17.2643 C   0  0  2  0  0  0  0  0  0  0  0  0
   21.4594  -12.4795  -18.6011 N   0  0  0  0  0  0  0  0  0  0  0  0
   21.3263  -10.4006  -17.4924 C   0  0  0  0  0  0  0  0  0  0  0  0
   22.0761   -9.8036  -18.3143 O   0  0  0  0  0  0  0  0  0  0  0  0
   18.6475   -8.3639  -18.8990 C   0  0  0  0  0  0  0  0  0  0  0  0
   18.9250   -7.7736  -17.5458 C   0  0  1  0  0  0  0  0  0  0  0  0
   18.0149   -8.1600  -16.5878 O   0  0  0  0  0  0  0  0  0  0  0  0
   20.3361   -8.1418  -17.0494 C   0  0  2  0  0  0  0  0  0  0  0  0
   20.3588   -9.5566  -16.8599 N   0  0  0  0  0  0  0  0  0  0  0  0
   20.7224   -7.3197  -15.9046 C   0  0  0  0  0  0  0  0  0  0  0  0
   20.3992   -7.6957  -14.7219 O   0  0  0  0  0  0  0  0  0  0  0  0
   21.4463   -6.0993  -15.9449 N   0  0  0  0  0  0  0  0  0  0  0  0
   21.7777   -5.3299  -14.7345 C   0  0  1  0  0  0  0  0  0  0  0  0
   23.1222   -5.7279  -14.2031 C   0  0  0  0  0  0  0  0  0  0  0  0
   24.1846   -5.8021  -15.2292 C   0  0  0  0  0  0  0  0  0  0  0  0
   24.7999   -4.6739  -15.7320 C   0  0  0  0  0  0  0  0  0  0  0  0
   25.7979   -4.7361  -16.6861 C   0  0  0  0  0  0  0  0  0  0  0  0
   26.2146   -5.9507  -17.1719 C   0  0  0  0  0  0  0  0  0  0  0  0
   25.6209   -7.0965  -16.6912 C   0  0  0  0  0  0  0  0  0  0  0  0
   24.6269   -7.0252  -15.7401 C   0  0  0  0  0  0  0  0  0  0  0  0
   21.6955   -3.8968  -15.0531 C   0  0  0  0  0  0  0  0  0  0  0  0
   21.8365   -2.9389  -14.0656 O   0  0  0  0  0  0  0  0  0  0  0  0
   21.4952   -3.5132  -16.2314 O   0  0  0  0  0  0  0  0  0  0  0  0
  2  1  1  0
  3  2  1  0
  3  4  1  1
  5  6  1  6
  5  3  1  0
  7  5  1  0
  8  7  2  0
 10  9  1  6
 10 11  1  0
 12 10  1  0
 12 13  1  1
 13  7  1  0
 14 15  2  0
 14 12  1  0
 16 14  1  0
 17 25  1  0
 17 16  1  0
 17 18  1  6
 18 19  1  0
 19 20  2  0
 19 24  1  0
 20 21  1  0
 21 22  2  0
 23 22  1  0
 24 23  2  0
 25 26  1  0
 27 25  2  0
M  END
$$$$
