ITF.pdb
     RDKit          3D

 27 27  0  0  1  0  0  0  0  0999 V2000
   18.5081  -18.0486  -13.3274 C   0  0  0  0  0  0  0  0  0  0  0  0
   19.7671  -18.5694  -13.9559 C   0  0  0  0  0  0  0  0  0  0  0  0
   20.5473  -19.4737  -12.9854 C   0  0  2  0  0  0  0  0  0  0  0  0
   20.7953  -18.7588  -11.6968 C   0  0  0  0  0  0  0  0  0  0  0  0
   21.8566  -19.8960  -13.6558 C   0  0  2  0  0  0  0  0  0  0  0  0
   21.4044  -20.8146  -14.7282 N   0  0  0  0  0  0  0  0  0  0  0  0
   22.7271  -20.6847  -12.7781 C   0  0  0  0  0  0  0  0  0  0  0  0
   22.2616  -21.6889  -12.1707 O   0  0  0  0  0  0  0  0  0  0  0  0
   25.0416  -22.9602  -13.5087 C   0  0  0  0  0  0  0  0  0  0  0  0
   25.8246  -22.0998  -12.5583 C   0  0  1  0  0  0  0  0  0  0  0  0
   26.6983  -21.2458  -13.1930 O   0  0  0  0  0  0  0  0  0  0  0  0
   24.8946  -21.2614  -11.6608 C   0  0  2  0  0  0  0  0  0  0  0  0
   24.1129  -20.4342  -12.5226 N   0  0  0  0  0  0  0  0  0  0  0  0
   25.6489  -20.5849  -10.6078 C   0  0  0  0  0  0  0  0  0  0  0  0
   25.6467  -19.3035  -10.5558 O   0  0  0  0  0  0  0  0  0  0  0  0
   26.4187  -21.2028   -9.5878 N   0  0  0  0  0  0  0  0  0  0  0  0
   27.2959  -20.4433   -8.6818 C   0  0  1  0  0  0  0  0  0  0  0  0
   26.8140  -20.5458   -7.2655 C   0  0  0  0  0  0  0  0  0  0  0  0
   27.7256  -19.9460   -6.2674 C   0  0  0  0  0  0  0  0  0  0  0  0
   27.7405  -18.5908   -6.0076 C   0  0  0  0  0  0  0  0  0  0  0  0
   28.5850  -18.0241   -5.0717 C   0  0  0  0  0  0  0  0  0  0  0  0
   29.4533  -18.8123   -4.3577 C   0  0  0  0  0  0  0  0  0  0  0  0
   29.4640  -20.1690   -4.5929 C   0  0  0  0  0  0  0  0  0  0  0  0
   28.6187  -20.7254   -5.5276 C   0  0  0  0  0  0  0  0  0  0  0  0
   28.6740  -20.9281   -8.8482 C   0  0  0  0  0  0  0  0  0  0  0  0
   29.7518  -20.1621   -8.4429 O   0  0  0  0  0  0  0  0  0  0  0  0
   28.9003  -22.0503   -9.3631 O   0  0  0  0  0  0  0  0  0  0  0  0
  2  1  1  0
  3  2  1  0
  3  4  1  1
  5  6  1  6
  5  3  1  0
  7  5  1  0
  8  7  2  0
 10  9  1  6
 10 11  1  0
 12 10  1  0
 12 13  1  6
 13  7  1  0
 14 15  2  0
 14 12  1  0
 16 14  1  0
 17 25  1  0
 17 16  1  0
 17 18  1  1
 18 19  1  0
 19 20  2  0
 19 24  1  0
 20 21  1  0
 21 22  2  0
 23 22  1  0
 24 23  2  0
 25 26  1  0
 27 25  2  0
M  END
$$$$
