ITF.pdb
     RDKit          3D

 27 27  0  0  1  0  0  0  0  0999 V2000
   20.2876  -19.7367  -16.4083 C   0  0  0  0  0  0  0  0  0  0  0  0
   20.7214  -19.3252  -15.0321 C   0  0  0  0  0  0  0  0  0  0  0  0
   20.8247  -20.5372  -14.0894 C   0  0  2  0  0  0  0  0  0  0  0  0
   19.5146  -21.2526  -14.0195 C   0  0  0  0  0  0  0  0  0  0  0  0
   21.2728  -20.0476  -12.7105 C   0  0  2  0  0  0  0  0  0  0  0  0
   21.8170  -18.6977  -12.9933 N   0  0  0  0  0  0  0  0  0  0  0  0
   22.3805  -20.8291  -12.1516 C   0  0  0  0  0  0  0  0  0  0  0  0
   22.1438  -21.9201  -11.5617 O   0  0  0  0  0  0  0  0  0  0  0  0
   24.9754  -22.6449  -13.7171 C   0  0  0  0  0  0  0  0  0  0  0  0
   25.7080  -21.7617  -12.7477 C   0  0  1  0  0  0  0  0  0  0  0  0
   26.2699  -20.6535  -13.3406 O   0  0  0  0  0  0  0  0  0  0  0  0
   24.7842  -21.2859  -11.6104 C   0  0  2  0  0  0  0  0  0  0  0  0
   23.7673  -20.4792  -12.2048 N   0  0  0  0  0  0  0  0  0  0  0  0
   25.5537  -20.6792  -10.5262 C   0  0  0  0  0  0  0  0  0  0  0  0
   25.2115  -19.5267  -10.0798 O   0  0  0  0  0  0  0  0  0  0  0  0
   26.6859  -21.2371   -9.8769 N   0  0  0  0  0  0  0  0  0  0  0  0
   27.4957  -20.4863   -8.9034 C   0  0  1  0  0  0  0  0  0  0  0  0
   26.8591  -20.5172   -7.5462 C   0  0  0  0  0  0  0  0  0  0  0  0
   27.6980  -19.9522   -6.4673 C   0  0  0  0  0  0  0  0  0  0  0  0
   27.8753  -18.5927   -6.3106 C   0  0  0  0  0  0  0  0  0  0  0  0
   28.6526  -18.0574   -5.3009 C   0  0  0  0  0  0  0  0  0  0  0  0
   29.2851  -18.8828   -4.4045 C   0  0  0  0  0  0  0  0  0  0  0  0
   29.1292  -20.2450   -4.5328 C   0  0  0  0  0  0  0  0  0  0  0  0
   28.3525  -20.7699   -5.5423 C   0  0  0  0  0  0  0  0  0  0  0  0
   28.8587  -21.0380   -8.9030 C   0  0  0  0  0  0  0  0  0  0  0  0
   29.9444  -20.2523   -8.5619 O   0  0  0  0  0  0  0  0  0  0  0  0
   29.0643  -22.2368   -9.2132 O   0  0  0  0  0  0  0  0  0  0  0  0
  2  1  1  0
  3  2  1  0
  3  4  1  1
  5  6  1  6
  5  3  1  0
  7  5  1  0
  8  7  2  0
 10  9  1  6
 10 11  1  0
 12 10  1  0
 12 13  1  6
 13  7  1  0
 14 15  2  0
 14 12  1  0
 16 14  1  0
 17 25  1  0
 17 16  1  0
 17 18  1  1
 18 19  1  0
 19 20  2  0
 19 24  1  0
 20 21  1  0
 21 22  2  0
 23 22  1  0
 24 23  2  0
 25 26  1  0
 27 25  2  0
M  END
$$$$
