ITF.pdb
     RDKit          3D

 27 27  0  0  1  0  0  0  0  0999 V2000
   28.3395  -15.9673  -17.0187 C   0  0  0  0  0  0  0  0  0  0  0  0
   27.8663  -17.3823  -16.8599 C   0  0  0  0  0  0  0  0  0  0  0  0
   27.2165  -17.6064  -15.4831 C   0  0  2  0  0  0  0  0  0  0  0  0
   28.1923  -17.3008  -14.3934 C   0  0  0  0  0  0  0  0  0  0  0  0
   26.7209  -19.0522  -15.4056 C   0  0  2  0  0  0  0  0  0  0  0  0
   25.7613  -19.1398  -16.5325 N   0  0  0  0  0  0  0  0  0  0  0  0
   25.9536  -19.3357  -14.1887 C   0  0  0  0  0  0  0  0  0  0  0  0
   24.6998  -19.1866  -14.1885 O   0  0  0  0  0  0  0  0  0  0  0  0
   24.0527  -20.9980  -13.6395 C   0  0  0  0  0  0  0  0  0  0  0  0
   24.8105  -21.3975  -12.4055 C   0  0  1  0  0  0  0  0  0  0  0  0
   25.6342  -22.4830  -12.6017 O   0  0  0  0  0  0  0  0  0  0  0  0
   25.6639  -20.2334  -11.8672 C   0  0  2  0  0  0  0  0  0  0  0  0
   26.4914  -19.7873  -12.9416 N   0  0  0  0  0  0  0  0  0  0  0  0
   26.3418  -20.6071  -10.6277 C   0  0  0  0  0  0  0  0  0  0  0  0
   27.6136  -20.7721  -10.6308 O   0  0  0  0  0  0  0  0  0  0  0  0
   25.7352  -20.8188   -9.3619 N   0  0  0  0  0  0  0  0  0  0  0  0
   26.5142  -21.0011   -8.1262 C   0  0  1  0  0  0  0  0  0  0  0  0
   27.4281  -19.8346   -7.8969 C   0  0  0  0  0  0  0  0  0  0  0  0
   28.0470  -19.8009   -6.5542 C   0  0  0  0  0  0  0  0  0  0  0  0
   29.0325  -20.6904   -6.1775 C   0  0  0  0  0  0  0  0  0  0  0  0
   29.6199  -20.6606   -4.9268 C   0  0  0  0  0  0  0  0  0  0  0  0
   29.2299  -19.7235   -4.0024 C   0  0  0  0  0  0  0  0  0  0  0  0
   28.2484  -18.8209   -4.3462 C   0  0  0  0  0  0  0  0  0  0  0  0
   27.6684  -18.8578   -5.5953 C   0  0  0  0  0  0  0  0  0  0  0  0
   25.5804  -21.2175   -7.0112 C   0  0  0  0  0  0  0  0  0  0  0  0
   26.0059  -21.7937   -5.8282 O   0  0  0  0  0  0  0  0  0  0  0  0
   24.3749  -20.8825   -7.1114 O   0  0  0  0  0  0  0  0  0  0  0  0
  2  1  1  0
  3  2  1  0
  3  4  1  1
  5  6  1  6
  5  3  1  0
  7  5  1  0
  8  7  2  0
 10  9  1  6
 10 11  1  0
 12 10  1  0
 12 13  1  6
 13  7  1  0
 14 15  2  0
 14 12  1  0
 16 14  1  0
 17 25  1  0
 17 16  1  0
 17 18  1  1
 18 19  1  0
 19 20  2  0
 19 24  1  0
 20 21  1  0
 21 22  2  0
 23 22  1  0
 24 23  2  0
 25 26  1  0
 27 25  2  0
M  END
$$$$
