WPA.pdb
     RDKit          3D

 27 29  0  0  1  0  0  0  0  0999 V2000
   17.1300   -7.4774  -20.6441 N   0  0  0  0  0  0  0  0  0  0  0  0
   18.4106   -6.8756  -20.5244 C   0  0  1  0  0  0  0  0  0  0  0  0
   18.3979   -5.3717  -20.6127 C   0  0  0  0  0  0  0  0  0  0  0  0
   17.5044   -4.8609  -21.6679 C   0  0  0  0  0  0  0  0  0  0  0  0
   17.3968   -5.2718  -22.9737 C   0  0  0  0  0  0  0  0  0  0  0  0
   16.4579   -4.5275  -23.5638 N   0  0  0  0  0  0  0  0  0  0  0  0
   15.9541   -3.6550  -22.7001 C   0  0  0  0  0  0  0  0  0  0  0  0
   14.9777   -2.6665  -22.7806 C   0  0  0  0  0  0  0  0  0  0  0  0
   14.6552   -1.8913  -21.6890 C   0  0  0  0  0  0  0  0  0  0  0  0
   15.2934   -2.0754  -20.4849 C   0  0  0  0  0  0  0  0  0  0  0  0
   16.2572   -3.0507  -20.4043 C   0  0  0  0  0  0  0  0  0  0  0  0
   16.5916   -3.8442  -21.5104 C   0  0  0  0  0  0  0  0  0  0  0  0
   19.1275   -7.3619  -19.3272 C   0  0  0  0  0  0  0  0  0  0  0  0
   18.4501   -7.9857  -18.4306 O   0  0  0  0  0  0  0  0  0  0  0  0
   20.5165   -7.2012  -19.0714 N   0  0  0  0  0  0  0  0  0  0  0  0
   21.4635   -6.5665  -19.9548 C   0  0  0  0  0  0  0  0  0  0  0  0
   22.8443   -6.8425  -19.3497 C   0  0  0  0  0  0  0  0  0  0  0  0
   22.5663   -8.0111  -18.3861 C   0  0  0  0  0  0  0  0  0  0  0  0
   21.1938   -7.6295  -17.9009 C   0  0  1  0  0  0  0  0  0  0  0  0
   21.3825   -6.5535  -16.8896 C   0  0  0  0  0  0  0  0  0  0  0  0
   21.3938   -5.3554  -17.2630 O   0  0  0  0  0  0  0  0  0  0  0  0
   21.0351   -6.5410  -13.1199 C   0  0  0  0  0  0  0  0  0  0  0  0
   21.2486   -5.8967  -14.4504 C   0  0  2  0  0  0  0  0  0  0  0  0
   21.5513   -6.8365  -15.5100 N   0  0  0  0  0  0  0  0  0  0  0  0
   22.3873   -4.9378  -14.3721 C   0  0  0  0  0  0  0  0  0  0  0  0
   23.4886   -5.1707  -14.9302 O   0  0  0  0  0  0  0  0  0  0  0  0
   22.2719   -3.7309  -13.6676 O   0  0  0  0  0  0  0  0  0  0  0  0
  2  1  1  1
  2 13  1  0
  3  2  1  0
  4  3  1  0
  4  5  2  0
  6  5  1  0
  7  6  1  0
  8  7  2  0
  9  8  1  0
 10  9  2  0
 10 11  1  0
 11 12  2  0
 12  7  1  0
 12  4  1  0
 13 14  2  0
 15 13  1  0
 15 16  1  0
 17 16  1  0
 18 17  1  0
 19 18  1  0
 19 15  1  0
 19 20  1  1
 21 20  2  0
 23 22  1  1
 23 24  1  0
 24 20  1  0
 25 23  1  0
 25 27  1  0
 26 25  2  0
M  END
$$$$
