WPA.pdb
     RDKit          3D

 27 29  0  0  1  0  0  0  0  0999 V2000
   16.9085   -9.9532  -18.0588 N   0  0  0  0  0  0  0  0  0  0  0  0
   16.7556   -8.9970  -17.0203 C   0  0  1  0  0  0  0  0  0  0  0  0
   16.5858   -9.5960  -15.6484 C   0  0  0  0  0  0  0  0  0  0  0  0
   15.4233  -10.4967  -15.5493 C   0  0  0  0  0  0  0  0  0  0  0  0
   14.0952  -10.2076  -15.7449 C   0  0  0  0  0  0  0  0  0  0  0  0
   13.3964  -11.3289  -15.5499 N   0  0  0  0  0  0  0  0  0  0  0  0
   14.2111  -12.3288  -15.2374 C   0  0  0  0  0  0  0  0  0  0  0  0
   14.0218  -13.6751  -14.9401 C   0  0  0  0  0  0  0  0  0  0  0  0
   15.0864  -14.4973  -14.6446 C   0  0  0  0  0  0  0  0  0  0  0  0
   16.3707  -14.0060  -14.6359 C   0  0  0  0  0  0  0  0  0  0  0  0
   16.5587  -12.6773  -14.9291 C   0  0  0  0  0  0  0  0  0  0  0  0
   15.4809  -11.8335  -15.2310 C   0  0  0  0  0  0  0  0  0  0  0  0
   17.8257   -7.9786  -17.0600 C   0  0  0  0  0  0  0  0  0  0  0  0
   18.9749   -8.3290  -17.5165 O   0  0  0  0  0  0  0  0  0  0  0  0
   17.7003   -6.6284  -16.6339 N   0  0  0  0  0  0  0  0  0  0  0  0
   16.5045   -6.0264  -16.0975 C   0  0  0  0  0  0  0  0  0  0  0  0
   16.8010   -4.5256  -16.0060 C   0  0  0  0  0  0  0  0  0  0  0  0
   18.0197   -4.3622  -16.9332 C   0  0  0  0  0  0  0  0  0  0  0  0
   18.7343   -5.6575  -16.6570 C   0  0  1  0  0  0  0  0  0  0  0  0
   19.4300   -5.4912  -15.3515 C   0  0  0  0  0  0  0  0  0  0  0  0
   18.7539   -5.4664  -14.2945 O   0  0  0  0  0  0  0  0  0  0  0  0
   22.8335   -6.3349  -14.1936 C   0  0  0  0  0  0  0  0  0  0  0  0
   21.5874   -5.5276  -14.0311 C   0  0  2  0  0  0  0  0  0  0  0  0
   20.8392   -5.3587  -15.2597 N   0  0  0  0  0  0  0  0  0  0  0  0
   21.9279   -4.1653  -13.5305 C   0  0  0  0  0  0  0  0  0  0  0  0
   21.7283   -3.1363  -14.2233 O   0  0  0  0  0  0  0  0  0  0  0  0
   22.4878   -3.9791  -12.2584 O   0  0  0  0  0  0  0  0  0  0  0  0
  2  1  1  6
  2 13  1  0
  3  2  1  0
  4  3  1  0
  4  5  2  0
  6  5  1  0
  7  6  1  0
  8  7  2  0
  9  8  1  0
 10  9  2  0
 10 11  1  0
 11 12  2  0
 12  7  1  0
 12  4  1  0
 13 14  2  0
 15 13  1  0
 15 16  1  0
 17 16  1  0
 18 17  1  0
 19 18  1  0
 19 15  1  0
 19 20  1  1
 21 20  2  0
 23 22  1  6
 23 24  1  0
 24 20  1  0
 25 23  1  0
 25 27  1  0
 26 25  2  0
M  END
$$$$
