WPA.pdb
     RDKit          3D

 27 29  0  0  1  0  0  0  0  0999 V2000
   18.8238  -12.0088  -17.5993 N   0  0  0  0  0  0  0  0  0  0  0  0
   20.1362  -11.4901  -17.4413 C   0  0  1  0  0  0  0  0  0  0  0  0
   20.6857  -10.8132  -18.6699 C   0  0  0  0  0  0  0  0  0  0  0  0
   20.7267  -11.6970  -19.8488 C   0  0  0  0  0  0  0  0  0  0  0  0
   20.4329  -13.0361  -19.9274 C   0  0  0  0  0  0  0  0  0  0  0  0
   20.6072  -13.4225  -21.1940 N   0  0  0  0  0  0  0  0  0  0  0  0
   21.0000  -12.3955  -21.9371 C   0  0  0  0  0  0  0  0  0  0  0  0
   21.3170  -12.2396  -23.2832 C   0  0  0  0  0  0  0  0  0  0  0  0
   21.7056  -11.0187  -23.7882 C   0  0  0  0  0  0  0  0  0  0  0  0
   21.7906   -9.9164  -22.9705 C   0  0  0  0  0  0  0  0  0  0  0  0
   21.4779  -10.0691  -21.6417 C   0  0  0  0  0  0  0  0  0  0  0  0
   21.0816  -11.3080  -21.1194 C   0  0  0  0  0  0  0  0  0  0  0  0
   20.2410  -10.6398  -16.2372 C   0  0  0  0  0  0  0  0  0  0  0  0
   19.1652  -10.1035  -15.7822 O   0  0  0  0  0  0  0  0  0  0  0  0
   21.4382  -10.3554  -15.5257 N   0  0  0  0  0  0  0  0  0  0  0  0
   22.7455  -10.8751  -15.8434 C   0  0  0  0  0  0  0  0  0  0  0  0
   23.6477  -10.4723  -14.6719 C   0  0  0  0  0  0  0  0  0  0  0  0
   22.6343  -10.1261  -13.5652 C   0  0  0  0  0  0  0  0  0  0  0  0
   21.5426   -9.5058  -14.3946 C   0  0  1  0  0  0  0  0  0  0  0  0
   21.9882   -8.1237  -14.7218 C   0  0  0  0  0  0  0  0  0  0  0  0
   22.8879   -7.9560  -15.5806 O   0  0  0  0  0  0  0  0  0  0  0  0
   20.3051   -4.9368  -14.8815 C   0  0  0  0  0  0  0  0  0  0  0  0
   21.5943   -5.6288  -14.5815 C   0  0  2  0  0  0  0  0  0  0  0  0
   21.4283   -6.9822  -14.0931 N   0  0  0  0  0  0  0  0  0  0  0  0
   22.3450   -4.8721  -13.5393 C   0  0  0  0  0  0  0  0  0  0  0  0
   22.3832   -5.2536  -12.3428 O   0  0  0  0  0  0  0  0  0  0  0  0
   23.0419   -3.6975  -13.8568 O   0  0  0  0  0  0  0  0  0  0  0  0
  2  1  1  6
  2 13  1  0
  3  2  1  0
  4  3  1  0
  4  5  2  0
  6  5  1  0
  7  6  1  0
  8  7  2  0
  9  8  1  0
 10  9  2  0
 10 11  1  0
 11 12  2  0
 12  7  1  0
 12  4  1  0
 13 14  2  0
 15 13  1  0
 15 16  1  0
 17 16  1  0
 18 17  1  0
 19 18  1  0
 19 15  1  0
 19 20  1  6
 21 20  2  0
 23 22  1  1
 23 24  1  0
 24 20  1  0
 25 23  1  0
 25 27  1  0
 26 25  2  0
M  END
$$$$
