WPA.pdb
     RDKit          3D

 27 29  0  0  1  0  0  0  0  0999 V2000
   15.1521  -14.6878    4.4284 N   0  0  0  0  0  0  0  0  0  0  0  0
   16.1738  -15.6407    4.1743 C   0  0  1  0  0  0  0  0  0  0  0  0
   17.4032  -15.4717    5.0285 C   0  0  0  0  0  0  0  0  0  0  0  0
   18.0521  -14.1595    4.8566 C   0  0  0  0  0  0  0  0  0  0  0  0
   17.7559  -13.1679    3.9542 C   0  0  0  0  0  0  0  0  0  0  0  0
   18.6023  -12.1557    4.1616 N   0  0  0  0  0  0  0  0  0  0  0  0
   19.4313  -12.4473    5.1559 C   0  0  0  0  0  0  0  0  0  0  0  0
   20.4816  -11.7720    5.7706 C   0  0  0  0  0  0  0  0  0  0  0  0
   21.1841  -12.3397    6.8101 C   0  0  0  0  0  0  0  0  0  0  0  0
   20.8639  -13.5955    7.2698 C   0  0  0  0  0  0  0  0  0  0  0  0
   19.8275  -14.2631    6.6640 C   0  0  0  0  0  0  0  0  0  0  0  0
   19.1072  -13.6926    5.6054 C   0  0  0  0  0  0  0  0  0  0  0  0
   15.6483  -17.0213    4.2131 C   0  0  0  0  0  0  0  0  0  0  0  0
   14.5943  -17.2459    4.9135 O   0  0  0  0  0  0  0  0  0  0  0  0
   16.2085  -18.1399    3.5384 N   0  0  0  0  0  0  0  0  0  0  0  0
   17.3321  -18.0974    2.6351 C   0  0  0  0  0  0  0  0  0  0  0  0
   17.4067  -19.4903    2.0004 C   0  0  0  0  0  0  0  0  0  0  0  0
   16.0112  -20.0726    2.2923 C   0  0  0  0  0  0  0  0  0  0  0  0
   15.7599  -19.4808    3.6529 C   0  0  1  0  0  0  0  0  0  0  0  0
   16.5426  -20.2942    4.6233 C   0  0  0  0  0  0  0  0  0  0  0  0
   17.7670  -20.0622    4.7718 O   0  0  0  0  0  0  0  0  0  0  0  0
   15.7105  -22.8331    7.3267 C   0  0  0  0  0  0  0  0  0  0  0  0
   16.6257  -22.0255    6.4658 C   0  0  2  0  0  0  0  0  0  0  0  0
   15.9495  -21.3290    5.3909 N   0  0  0  0  0  0  0  0  0  0  0  0
   17.6489  -22.9124    5.8425 C   0  0  0  0  0  0  0  0  0  0  0  0
   17.5388  -23.3210    4.6594 O   0  0  0  0  0  0  0  0  0  0  0  0
   18.7813  -23.3275    6.5578 O   0  0  0  0  0  0  0  0  0  0  0  0
  2  1  1  1
  2 13  1  0
  3  2  1  0
  4  3  1  0
  4  5  2  0
  6  5  1  0
  7  6  1  0
  8  7  2  0
  9  8  1  0
 10  9  2  0
 10 11  1  0
 11 12  2  0
 12  7  1  0
 12  4  1  0
 13 14  2  0
 15 13  1  0
 15 16  1  0
 17 16  1  0
 18 17  1  0
 19 18  1  0
 19 15  1  0
 19 20  1  1
 21 20  2  0
 23 22  1  6
 23 24  1  0
 24 20  1  0
 25 23  1  0
 25 27  1  0
 26 25  2  0
M  END
$$$$
