WPA.pdb
     RDKit          3D

 27 29  0  0  1  0  0  0  0  0999 V2000
   26.0277  -21.1320  -16.9373 N   0  0  0  0  0  0  0  0  0  0  0  0
   26.6084  -20.2887  -15.9535 C   0  0  1  0  0  0  0  0  0  0  0  0
   26.0101  -18.9074  -15.8918 C   0  0  0  0  0  0  0  0  0  0  0  0
   25.8853  -18.2706  -17.2152 C   0  0  0  0  0  0  0  0  0  0  0  0
   24.7543  -17.8060  -17.8401 C   0  0  0  0  0  0  0  0  0  0  0  0
   25.1140  -17.3071  -19.0257 N   0  0  0  0  0  0  0  0  0  0  0  0
   26.4245  -17.4279  -19.1958 C   0  0  0  0  0  0  0  0  0  0  0  0
   27.3039  -17.0851  -20.2185 C   0  0  0  0  0  0  0  0  0  0  0  0
   28.6533  -17.3400  -20.1151 C   0  0  0  0  0  0  0  0  0  0  0  0
   29.1690  -17.9433  -18.9921 C   0  0  0  0  0  0  0  0  0  0  0  0
   28.3021  -18.2821  -17.9819 C   0  0  0  0  0  0  0  0  0  0  0  0
   26.9273  -18.0262  -18.0790 C   0  0  0  0  0  0  0  0  0  0  0  0
   26.6435  -20.9452  -14.6300 C   0  0  0  0  0  0  0  0  0  0  0  0
   25.7756  -21.8618  -14.3884 O   0  0  0  0  0  0  0  0  0  0  0  0
   27.5609  -20.6526  -13.5844 N   0  0  0  0  0  0  0  0  0  0  0  0
   28.7069  -19.7837  -13.6936 C   0  0  0  0  0  0  0  0  0  0  0  0
   29.4950  -19.9715  -12.3928 C   0  0  0  0  0  0  0  0  0  0  0  0
   28.9299  -21.2931  -11.8402 C   0  0  0  0  0  0  0  0  0  0  0  0
   27.4914  -21.1593  -12.2613 C   0  0  1  0  0  0  0  0  0  0  0  0
   26.8488  -20.2268  -11.2951 C   0  0  0  0  0  0  0  0  0  0  0  0
   26.9331  -18.9895  -11.4875 O   0  0  0  0  0  0  0  0  0  0  0  0
   23.8021  -20.6751  -10.9316 C   0  0  0  0  0  0  0  0  0  0  0  0
   24.7729  -20.3224   -9.8527 C   0  0  2  0  0  0  0  0  0  0  0  0
   26.1402  -20.6904  -10.1572 N   0  0  0  0  0  0  0  0  0  0  0  0
   24.3996  -21.0180   -8.5881 C   0  0  0  0  0  0  0  0  0  0  0  0
   23.2907  -20.8262   -8.0294 O   0  0  0  0  0  0  0  0  0  0  0  0
   25.2780  -21.9192   -7.9695 O   0  0  0  0  0  0  0  0  0  0  0  0
  2  1  1  6
  2 13  1  0
  3  2  1  0
  4  3  1  0
  4  5  2  0
  6  5  1  0
  7  6  1  0
  8  7  2  0
  9  8  1  0
 10  9  2  0
 10 11  1  0
 11 12  2  0
 12  7  1  0
 12  4  1  0
 13 14  2  0
 15 13  1  0
 15 16  1  0
 17 16  1  0
 18 17  1  0
 19 18  1  0
 19 15  1  0
 19 20  1  1
 21 20  2  0
 23 22  1  6
 23 24  1  0
 24 20  1  0
 25 23  1  0
 25 27  1  0
 26 25  2  0
M  END
$$$$
