CFF.pdb
     RDKit          3D

 29 30  0  0  1  0  0  0  0  0999 V2000
   29.0528  -21.9224  -14.4655 N   0  0  0  0  0  0  0  0  0  0  0  0
   29.2316  -20.8780  -13.4774 C   0  0  1  0  0  0  0  0  0  0  0  0
   28.4468  -19.6739  -13.9449 C   0  0  0  0  0  0  0  0  0  0  0  0
   29.3853  -18.8324  -15.2490 S   0  0  0  0  0  0  0  0  0  0  0  0
   28.7564  -21.3878  -12.1769 C   0  0  0  0  0  0  0  0  0  0  0  0
   27.7739  -22.1695  -12.0592 O   0  0  0  0  0  0  0  0  0  0  0  0
   29.4000  -21.0119  -10.9684 N   0  0  0  0  0  0  0  0  0  0  0  0
   28.6861  -20.9781   -9.6987 C   0  0  1  0  0  0  0  0  0  0  0  0
   29.5292  -20.4384   -8.6000 C   0  0  0  0  0  0  0  0  0  0  0  0
   28.7896  -20.2303   -7.3385 C   0  0  0  0  0  0  0  0  0  0  0  0
   28.8872  -21.1931   -6.3262 C   0  0  0  0  0  0  0  0  0  0  0  0
   28.2444  -21.0598   -5.1168 C   0  0  0  0  0  0  0  0  0  0  0  0
   27.4717  -19.9431   -4.8761 C   0  0  0  0  0  0  0  0  0  0  0  0
   27.3743  -18.9898   -5.8768 C   0  0  0  0  0  0  0  0  0  0  0  0
   28.0127  -19.1196   -7.0813 C   0  0  0  0  0  0  0  0  0  0  0  0
   27.4013  -20.2711   -9.8200 C   0  0  0  0  0  0  0  0  0  0  0  0
   27.3466  -19.2336  -10.5235 O   0  0  0  0  0  0  0  0  0  0  0  0
   26.2370  -20.7507   -9.1531 N   0  0  0  0  0  0  0  0  0  0  0  0
   24.9244  -20.3376   -9.5925 C   0  0  1  0  0  0  0  0  0  0  0  0
   24.7254  -20.7798  -11.0066 C   0  0  0  0  0  0  0  0  0  0  0  0
   23.3988  -20.4560  -11.5299 C   0  0  0  0  0  0  0  0  0  0  0  0
   23.1173  -19.3312  -12.2419 C   0  0  0  0  0  0  0  0  0  0  0  0
   21.8382  -19.0821  -12.7149 C   0  0  0  0  0  0  0  0  0  0  0  0
   20.8007  -19.9592  -12.4853 C   0  0  0  0  0  0  0  0  0  0  0  0
   21.0952  -21.1040  -11.7584 C   0  0  0  0  0  0  0  0  0  0  0  0
   22.3587  -21.3517  -11.2903 C   0  0  0  0  0  0  0  0  0  0  0  0
   23.8690  -20.8178   -8.6947 C   0  0  0  0  0  0  0  0  0  0  0  0
   22.8182  -20.1919   -8.4263 O   0  0  0  0  0  0  0  0  0  0  0  0
   24.0325  -22.0712   -8.0816 O   0  0  0  0  0  0  0  0  0  0  0  0
  2  1  1  6
  3  2  1  0
  4  3  1  0
  5  2  1  0
  5  6  2  0
  7  5  1  0
  8  7  1  0
  8  9  1  1
 10 11  2  0
 10  9  1  0
 12 11  1  0
 13 12  2  0
 14 13  1  0
 14 15  2  0
 15 10  1  0
 16  8  1  0
 17 16  2  0
 18 16  1  0
 19 20  1  6
 19 18  1  0
 21 20  1  0
 22 21  2  0
 23 22  1  0
 24 25  1  0
 24 23  2  0
 25 26  2  0
 26 21  1  0
 27 29  1  0
 27 19  1  0
 28 27  2  0
M  END
$$$$
