CFF.pdb
     RDKit          3D

 29 30  0  0  1  0  0  0  0  0999 V2000
   27.0709  -22.9104  -16.7146 N   0  0  0  0  0  0  0  0  0  0  0  0
   26.9076  -21.5894  -16.1425 C   0  0  1  0  0  0  0  0  0  0  0  0
   25.8853  -20.8568  -16.9807 C   0  0  0  0  0  0  0  0  0  0  0  0
   26.6682  -20.3238  -18.5275 S   0  0  0  0  0  0  0  0  0  0  0  0
   26.4769  -21.7445  -14.7400 C   0  0  0  0  0  0  0  0  0  0  0  0
   25.6045  -22.5782  -14.3739 O   0  0  0  0  0  0  0  0  0  0  0  0
   27.0394  -20.9418  -13.7126 N   0  0  0  0  0  0  0  0  0  0  0  0
   26.5253  -20.9709  -12.3496 C   0  0  1  0  0  0  0  0  0  0  0  0
   27.5266  -20.4813  -11.3663 C   0  0  0  0  0  0  0  0  0  0  0  0
   26.9881  -20.3414   -9.9980 C   0  0  0  0  0  0  0  0  0  0  0  0
   26.1719  -19.2439   -9.6974 C   0  0  0  0  0  0  0  0  0  0  0  0
   25.6170  -19.0562   -8.4522 C   0  0  0  0  0  0  0  0  0  0  0  0
   25.8635  -19.9731   -7.4520 C   0  0  0  0  0  0  0  0  0  0  0  0
   26.6708  -21.0595   -7.7481 C   0  0  0  0  0  0  0  0  0  0  0  0
   27.2244  -21.2490   -8.9862 C   0  0  0  0  0  0  0  0  0  0  0  0
   25.2398  -20.2631  -12.2419 C   0  0  0  0  0  0  0  0  0  0  0  0
   25.1939  -19.0450  -12.5392 O   0  0  0  0  0  0  0  0  0  0  0  0
   24.0649  -20.9429  -11.8085 N   0  0  0  0  0  0  0  0  0  0  0  0
   22.8049  -20.2409  -11.7299 C   0  0  1  0  0  0  0  0  0  0  0  0
   22.5017  -19.6388  -13.0643 C   0  0  0  0  0  0  0  0  0  0  0  0
   21.8880  -20.5838  -13.9963 C   0  0  0  0  0  0  0  0  0  0  0  0
   22.5799  -21.2744  -14.9428 C   0  0  0  0  0  0  0  0  0  0  0  0
   21.9405  -22.1605  -15.7960 C   0  0  0  0  0  0  0  0  0  0  0  0
   20.5821  -22.3793  -15.7229 C   0  0  0  0  0  0  0  0  0  0  0  0
   19.8831  -21.6715  -14.7554 C   0  0  0  0  0  0  0  0  0  0  0  0
   20.5134  -20.7956  -13.9114 C   0  0  0  0  0  0  0  0  0  0  0  0
   21.7257  -21.1039  -11.2392 C   0  0  0  0  0  0  0  0  0  0  0  0
   20.5584  -20.7217  -10.9953 O   0  0  0  0  0  0  0  0  0  0  0  0
   22.0043  -22.4634  -11.0208 O   0  0  0  0  0  0  0  0  0  0  0  0
  2  1  1  6
  3  2  1  0
  4  3  1  0
  5  2  1  0
  5  6  2  0
  7  5  1  0
  8  7  1  0
  8  9  1  1
 10 11  2  0
 10  9  1  0
 12 11  1  0
 13 12  2  0
 14 13  1  0
 14 15  2  0
 15 10  1  0
 16  8  1  0
 17 16  2  0
 18 16  1  0
 19 20  1  6
 19 18  1  0
 21 20  1  0
 22 21  2  0
 23 22  1  0
 24 25  1  0
 24 23  2  0
 25 26  2  0
 26 21  1  0
 27 29  1  0
 27 19  1  0
 28 27  2  0
M  END
$$$$
