CFF.pdb
     RDKit          3D

 29 30  0  0  1  0  0  0  0  0999 V2000
   26.7410  -17.3824  -18.0799 N   0  0  0  0  0  0  0  0  0  0  0  0
   27.4102  -18.1823  -17.0742 C   0  0  1  0  0  0  0  0  0  0  0  0
   28.6000  -17.3896  -16.5838 C   0  0  0  0  0  0  0  0  0  0  0  0
   29.9935  -17.6652  -17.7116 S   0  0  0  0  0  0  0  0  0  0  0  0
   26.4444  -18.4701  -15.9966 C   0  0  0  0  0  0  0  0  0  0  0  0
   25.9510  -17.5773  -15.2552 O   0  0  0  0  0  0  0  0  0  0  0  0
   26.0157  -19.7990  -15.7389 N   0  0  0  0  0  0  0  0  0  0  0  0
   25.0520  -20.1030  -14.6893 C   0  0  1  0  0  0  0  0  0  0  0  0
   23.9995  -21.0435  -15.1552 C   0  0  0  0  0  0  0  0  0  0  0  0
   22.9810  -21.3426  -14.1281 C   0  0  0  0  0  0  0  0  0  0  0  0
   21.8884  -20.4789  -13.9819 C   0  0  0  0  0  0  0  0  0  0  0  0
   20.8896  -20.7018  -13.0620 C   0  0  0  0  0  0  0  0  0  0  0  0
   20.9511  -21.8119  -12.2460 C   0  0  0  0  0  0  0  0  0  0  0  0
   22.0315  -22.6673  -12.3896 C   0  0  0  0  0  0  0  0  0  0  0  0
   23.0270  -22.4482  -13.3041 C   0  0  0  0  0  0  0  0  0  0  0  0
   25.7181  -20.5687  -13.4626 C   0  0  0  0  0  0  0  0  0  0  0  0
   26.5410  -21.5124  -13.5429 O   0  0  0  0  0  0  0  0  0  0  0  0
   25.4382  -19.9630  -12.2036 N   0  0  0  0  0  0  0  0  0  0  0  0
   26.0145  -20.5006  -10.9931 C   0  0  1  0  0  0  0  0  0  0  0  0
   27.0045  -19.5204  -10.4509 C   0  0  0  0  0  0  0  0  0  0  0  0
   27.5238  -19.8941   -9.1360 C   0  0  0  0  0  0  0  0  0  0  0  0
   28.5615  -20.7534   -8.9457 C   0  0  0  0  0  0  0  0  0  0  0  0
   29.0110  -21.0657   -7.6720 C   0  0  0  0  0  0  0  0  0  0  0  0
   28.4287  -20.5217   -6.5480 C   0  0  0  0  0  0  0  0  0  0  0  0
   27.3710  -19.6463   -6.7498 C   0  0  0  0  0  0  0  0  0  0  0  0
   26.9256  -19.3366   -8.0077 C   0  0  0  0  0  0  0  0  0  0  0  0
   24.9876  -20.8696  -10.0134 C   0  0  0  0  0  0  0  0  0  0  0  0
   23.8659  -20.3224   -9.9118 O   0  0  0  0  0  0  0  0  0  0  0  0
   25.2661  -21.9124   -9.1141 O   0  0  0  0  0  0  0  0  0  0  0  0
  2  1  1  6
  3  2  1  0
  4  3  1  0
  5  2  1  0
  5  6  2  0
  7  5  1  0
  8  7  1  0
  8  9  1  6
 10 11  2  0
 10  9  1  0
 12 11  1  0
 13 12  2  0
 14 13  1  0
 14 15  2  0
 15 10  1  0
 16  8  1  0
 17 16  2  0
 18 16  1  0
 19 20  1  1
 19 18  1  0
 21 20  1  0
 22 21  2  0
 23 22  1  0
 24 25  1  0
 24 23  2  0
 25 26  2  0
 26 21  1  0
 27 29  1  0
 27 19  1  0
 28 27  2  0
M  END
$$$$
