CFF.pdb
     RDKit          3D

 29 30  0  0  1  0  0  0  0  0999 V2000
   21.8576  -17.1402  -16.4758 N   0  0  0  0  0  0  0  0  0  0  0  0
   22.6899  -16.6229  -15.4087 C   0  0  1  0  0  0  0  0  0  0  0  0
   21.9668  -16.8790  -14.1064 C   0  0  0  0  0  0  0  0  0  0  0  0
   21.8186  -18.6698  -13.8602 S   0  0  0  0  0  0  0  0  0  0  0  0
   23.9957  -17.3070  -15.4700 C   0  0  0  0  0  0  0  0  0  0  0  0
   24.1754  -18.3987  -16.0750 O   0  0  0  0  0  0  0  0  0  0  0  0
   25.1383  -16.7531  -14.8345 N   0  0  0  0  0  0  0  0  0  0  0  0
   26.4469  -17.3877  -14.9226 C   0  0  1  0  0  0  0  0  0  0  0  0
   27.5180  -16.4116  -15.2533 C   0  0  0  0  0  0  0  0  0  0  0  0
   27.4298  -15.8855  -16.6307 C   0  0  0  0  0  0  0  0  0  0  0  0
   26.8379  -14.6344  -16.8442 C   0  0  0  0  0  0  0  0  0  0  0  0
   26.7377  -14.0694  -18.0950 C   0  0  0  0  0  0  0  0  0  0  0  0
   27.2331  -14.7467  -19.1895 C   0  0  0  0  0  0  0  0  0  0  0  0
   27.8190  -15.9845  -18.9796 C   0  0  0  0  0  0  0  0  0  0  0  0
   27.9203  -16.5494  -17.7362 C   0  0  0  0  0  0  0  0  0  0  0  0
   26.7518  -18.1674  -13.7124 C   0  0  0  0  0  0  0  0  0  0  0  0
   27.1207  -17.5592  -12.6788 O   0  0  0  0  0  0  0  0  0  0  0  0
   26.6322  -19.5872  -13.7080 N   0  0  0  0  0  0  0  0  0  0  0  0
   26.5503  -20.3069  -12.4582 C   0  0  1  0  0  0  0  0  0  0  0  0
   25.5992  -19.5950  -11.5506 C   0  0  0  0  0  0  0  0  0  0  0  0
   25.4667  -20.2325  -10.2412 C   0  0  0  0  0  0  0  0  0  0  0  0
   26.4427  -20.2295   -9.2932 C   0  0  0  0  0  0  0  0  0  0  0  0
   26.2550  -20.8494   -8.0673 C   0  0  0  0  0  0  0  0  0  0  0  0
   25.0768  -21.4928   -7.7574 C   0  0  0  0  0  0  0  0  0  0  0  0
   24.0860  -21.4918   -8.7290 C   0  0  0  0  0  0  0  0  0  0  0  0
   24.2699  -20.8797   -9.9407 C   0  0  0  0  0  0  0  0  0  0  0  0
   26.1956  -21.7156  -12.6585 C   0  0  0  0  0  0  0  0  0  0  0  0
   26.6370  -22.6687  -11.9768 O   0  0  0  0  0  0  0  0  0  0  0  0
   25.2948  -22.0380  -13.6873 O   0  0  0  0  0  0  0  0  0  0  0  0
  2  1  1  6
  3  2  1  0
  4  3  1  0
  5  2  1  0
  5  6  2  0
  7  5  1  0
  8  7  1  0
  8  9  1  1
 10 11  2  0
 10  9  1  0
 12 11  1  0
 13 12  2  0
 14 13  1  0
 14 15  2  0
 15 10  1  0
 16  8  1  0
 17 16  2  0
 18 16  1  0
 19 20  1  1
 19 18  1  0
 21 20  1  0
 22 21  2  0
 23 22  1  0
 24 25  1  0
 24 23  2  0
 25 26  2  0
 26 21  1  0
 27 29  1  0
 27 19  1  0
 28 27  2  0
M  END
$$$$
