CFF.pdb
     RDKit          3D

 29 30  0  0  1  0  0  0  0  0999 V2000
   22.1679    5.8208  -10.2028 N   0  0  0  0  0  0  0  0  0  0  0  0
   23.3149    6.2216   -9.4136 C   0  0  1  0  0  0  0  0  0  0  0  0
   22.9159    7.4491   -8.6271 C   0  0  0  0  0  0  0  0  0  0  0  0
   24.3580    8.0495   -7.7054 S   0  0  0  0  0  0  0  0  0  0  0  0
   23.6909    5.0930   -8.5408 C   0  0  0  0  0  0  0  0  0  0  0  0
   22.8498    4.4064   -7.8994 O   0  0  0  0  0  0  0  0  0  0  0  0
   25.0511    4.7193   -8.3793 N   0  0  0  0  0  0  0  0  0  0  0  0
   25.4359    3.5387   -7.6171 C   0  0  1  0  0  0  0  0  0  0  0  0
   26.1666    2.5502   -8.4528 C   0  0  0  0  0  0  0  0  0  0  0  0
   25.4482    2.1793   -9.6889 C   0  0  0  0  0  0  0  0  0  0  0  0
   25.9157    2.6611  -10.9179 C   0  0  0  0  0  0  0  0  0  0  0  0
   25.3123    2.3428  -12.1130 C   0  0  0  0  0  0  0  0  0  0  0  0
   24.2053    1.5203  -12.1188 C   0  0  0  0  0  0  0  0  0  0  0  0
   23.7417    1.0429  -10.9035 C   0  0  0  0  0  0  0  0  0  0  0  0
   24.3400    1.3577   -9.7127 C   0  0  0  0  0  0  0  0  0  0  0  0
   26.1767    3.9003   -6.3982 C   0  0  0  0  0  0  0  0  0  0  0  0
   26.9409    4.8950   -6.4283 O   0  0  0  0  0  0  0  0  0  0  0  0
   26.0333    3.1388   -5.2025 N   0  0  0  0  0  0  0  0  0  0  0  0
   26.7063    3.5501   -3.9924 C   0  0  1  0  0  0  0  0  0  0  0  0
   25.7617    3.4125   -2.8418 C   0  0  0  0  0  0  0  0  0  0  0  0
   25.4121    2.0236   -2.5469 C   0  0  0  0  0  0  0  0  0  0  0  0
   25.9621    1.3011   -1.5335 C   0  0  0  0  0  0  0  0  0  0  0  0
   25.5857   -0.0130   -1.3019 C   0  0  0  0  0  0  0  0  0  0  0  0
   24.6423   -0.6418   -2.0849 C   0  0  0  0  0  0  0  0  0  0  0  0
   24.0859    0.1012   -3.1165 C   0  0  0  0  0  0  0  0  0  0  0  0
   24.4566    1.3998   -3.3466 C   0  0  0  0  0  0  0  0  0  0  0  0
   27.9606    2.8188   -3.7865 C   0  0  0  0  0  0  0  0  0  0  0  0
   28.3624    1.8719   -4.5006 O   0  0  0  0  0  0  0  0  0  0  0  0
   28.7849    3.1951   -2.7129 O   0  0  0  0  0  0  0  0  0  0  0  0
  2  1  1  1
  3  2  1  0
  4  3  1  0
  5  2  1  0
  5  6  2  0
  7  5  1  0
  8  7  1  0
  8  9  1  6
 10 11  2  0
 10  9  1  0
 12 11  1  0
 13 12  2  0
 14 13  1  0
 14 15  2  0
 15 10  1  0
 16  8  1  0
 17 16  2  0
 18 16  1  0
 19 20  1  1
 19 18  1  0
 21 20  1  0
 22 21  2  0
 23 22  1  0
 24 25  1  0
 24 23  2  0
 25 26  2  0
 26 21  1  0
 27 29  1  0
 27 19  1  0
 28 27  2  0
M  END
$$$$
