CFF.pdb
     RDKit          3D

 29 30  0  0  1  0  0  0  0  0999 V2000
   27.7651  -22.7689  -17.7319 N   0  0  0  0  0  0  0  0  0  0  0  0
   27.5850  -21.4612  -17.1346 C   0  0  1  0  0  0  0  0  0  0  0  0
   26.8583  -20.6001  -18.1420 C   0  0  0  0  0  0  0  0  0  0  0  0
   28.0769  -19.8301  -19.2427 S   0  0  0  0  0  0  0  0  0  0  0  0
   26.8214  -21.6274  -15.8832 C   0  0  0  0  0  0  0  0  0  0  0  0
   25.7726  -22.3227  -15.8016 O   0  0  0  0  0  0  0  0  0  0  0  0
   27.2434  -20.9959  -14.6835 N   0  0  0  0  0  0  0  0  0  0  0  0
   26.4447  -21.0524  -13.4662 C   0  0  1  0  0  0  0  0  0  0  0  0
   27.1830  -20.5209  -12.2907 C   0  0  0  0  0  0  0  0  0  0  0  0
   26.3776  -20.4942  -11.0528 C   0  0  0  0  0  0  0  0  0  0  0  0
   25.7451  -21.6690  -10.6274 C   0  0  0  0  0  0  0  0  0  0  0  0
   24.9954  -21.7276   -9.4750 C   0  0  0  0  0  0  0  0  0  0  0  0
   24.8513  -20.5970   -8.6985 C   0  0  0  0  0  0  0  0  0  0  0  0
   25.4766  -19.4340   -9.1182 C   0  0  0  0  0  0  0  0  0  0  0  0
   26.2234  -19.3725  -10.2644 C   0  0  0  0  0  0  0  0  0  0  0  0
   25.1365  -20.4037  -13.6479 C   0  0  0  0  0  0  0  0  0  0  0  0
   25.1008  -19.2250  -14.0763 O   0  0  0  0  0  0  0  0  0  0  0  0
   23.9287  -21.0962  -13.3447 N   0  0  0  0  0  0  0  0  0  0  0  0
   22.6501  -20.4649  -13.5755 C   0  0  1  0  0  0  0  0  0  0  0  0
   22.5537  -20.0786  -15.0165 C   0  0  0  0  0  0  0  0  0  0  0  0
   21.2717  -19.4668  -15.3640 C   0  0  0  0  0  0  0  0  0  0  0  0
   21.0337  -18.1277  -15.3233 C   0  0  0  0  0  0  0  0  0  0  0  0
   19.7959  -17.6075  -15.6688 C   0  0  0  0  0  0  0  0  0  0  0  0
   18.7573  -18.4207  -16.0666 C   0  0  0  0  0  0  0  0  0  0  0  0
   19.0073  -19.7851  -16.1055 C   0  0  0  0  0  0  0  0  0  0  0  0
   20.2298  -20.3008  -15.7645 C   0  0  0  0  0  0  0  0  0  0  0  0
   21.5341  -21.3105  -13.1396 C   0  0  0  0  0  0  0  0  0  0  0  0
   21.5085  -22.5598  -13.2209 O   0  0  0  0  0  0  0  0  0  0  0  0
   20.4014  -20.6895  -12.5873 O   0  0  0  0  0  0  0  0  0  0  0  0
  2  1  1  6
  3  2  1  0
  4  3  1  0
  5  2  1  0
  5  6  2  0
  7  5  1  0
  8  7  1  0
  8  9  1  1
 10 11  2  0
 10  9  1  0
 12 11  1  0
 13 12  2  0
 14 13  1  0
 14 15  2  0
 15 10  1  0
 16  8  1  0
 17 16  2  0
 18 16  1  0
 19 20  1  6
 19 18  1  0
 21 20  1  0
 22 21  2  0
 23 22  1  0
 24 25  1  0
 24 23  2  0
 25 26  2  0
 26 21  1  0
 27 29  1  0
 27 19  1  0
 28 27  2  0
M  END
$$$$
