CFF.pdb
     RDKit          3D

 29 30  0  0  1  0  0  0  0  0999 V2000
   28.5621  -22.0806  -14.4857 N   0  0  0  0  0  0  0  0  0  0  0  0
   29.1280  -21.1050  -13.5763 C   0  0  1  0  0  0  0  0  0  0  0  0
   28.7984  -19.7343  -14.1213 C   0  0  0  0  0  0  0  0  0  0  0  0
   26.9999  -19.5949  -14.3099 S   0  0  0  0  0  0  0  0  0  0  0  0
   28.5487  -21.3317  -12.2384 C   0  0  0  0  0  0  0  0  0  0  0  0
   27.5821  -22.1138  -12.0283 O   0  0  0  0  0  0  0  0  0  0  0  0
   29.0662  -20.6626  -11.0980 N   0  0  0  0  0  0  0  0  0  0  0  0
   28.4339  -20.7767   -9.7904 C   0  0  1  0  0  0  0  0  0  0  0  0
   29.2884  -20.2211   -8.7084 C   0  0  0  0  0  0  0  0  0  0  0  0
   28.6278  -20.2035   -7.3873 C   0  0  0  0  0  0  0  0  0  0  0  0
   27.7410  -19.1630   -7.0842 C   0  0  0  0  0  0  0  0  0  0  0  0
   27.0728  -19.0893   -5.8835 C   0  0  0  0  0  0  0  0  0  0  0  0
   27.2721  -20.0680   -4.9324 C   0  0  0  0  0  0  0  0  0  0  0  0
   28.1492  -21.0981   -5.2311 C   0  0  0  0  0  0  0  0  0  0  0  0
   28.8156  -21.1742   -6.4250 C   0  0  0  0  0  0  0  0  0  0  0  0
   27.0816  -20.1967   -9.7917 C   0  0  0  0  0  0  0  0  0  0  0  0
   26.8802  -19.1346  -10.4288 O   0  0  0  0  0  0  0  0  0  0  0  0
   26.0159  -20.8248   -9.0846 N   0  0  0  0  0  0  0  0  0  0  0  0
   24.6434  -20.5397   -9.4331 C   0  0  1  0  0  0  0  0  0  0  0  0
   24.4165  -20.9220  -10.8604 C   0  0  0  0  0  0  0  0  0  0  0  0
   23.0444  -20.6868  -11.3083 C   0  0  0  0  0  0  0  0  0  0  0  0
   22.0171  -21.5530  -11.0947 C   0  0  0  0  0  0  0  0  0  0  0  0
   20.7353  -21.2711  -11.5415 C   0  0  0  0  0  0  0  0  0  0  0  0
   20.4475  -20.1062  -12.2187 C   0  0  0  0  0  0  0  0  0  0  0  0
   21.5001  -19.2277  -12.4330 C   0  0  0  0  0  0  0  0  0  0  0  0
   22.7672  -19.5048  -11.9921 C   0  0  0  0  0  0  0  0  0  0  0  0
   23.6989  -21.1861   -8.5162 C   0  0  0  0  0  0  0  0  0  0  0  0
   23.9272  -22.2398   -7.8792 O   0  0  0  0  0  0  0  0  0  0  0  0
   22.4397  -20.5928   -8.3264 O   0  0  0  0  0  0  0  0  0  0  0  0
  2  1  1  6
  3  2  1  0
  4  3  1  0
  5  2  1  0
  5  6  2  0
  7  5  1  0
  8  7  1  0
  8  9  1  1
 10 11  2  0
 10  9  1  0
 12 11  1  0
 13 12  2  0
 14 13  1  0
 14 15  2  0
 15 10  1  0
 16  8  1  0
 17 16  2  0
 18 16  1  0
 19 20  1  6
 19 18  1  0
 21 20  1  0
 22 21  2  0
 23 22  1  0
 24 25  1  0
 24 23  2  0
 25 26  2  0
 26 21  1  0
 27 29  1  0
 27 19  1  0
 28 27  2  0
M  END
$$$$
