CFF.pdb
     RDKit          3D

 29 30  0  0  1  0  0  0  0  0999 V2000
   21.9169  -23.2616  -14.8054 N   0  0  0  0  0  0  0  0  0  0  0  0
   22.1275  -22.0994  -13.9664 C   0  0  1  0  0  0  0  0  0  0  0  0
   21.0342  -22.0909  -12.9228 C   0  0  0  0  0  0  0  0  0  0  0  0
   19.4651  -21.6539  -13.7206 S   0  0  0  0  0  0  0  0  0  0  0  0
   23.4730  -22.1996  -13.3694 C   0  0  0  0  0  0  0  0  0  0  0  0
   23.9605  -23.2819  -12.9438 O   0  0  0  0  0  0  0  0  0  0  0  0
   24.3011  -21.0530  -13.2440 N   0  0  0  0  0  0  0  0  0  0  0  0
   25.5931  -21.1109  -12.5730 C   0  0  1  0  0  0  0  0  0  0  0  0
   26.6368  -20.3494  -13.3079 C   0  0  0  0  0  0  0  0  0  0  0  0
   27.9897  -20.5024  -12.7353 C   0  0  0  0  0  0  0  0  0  0  0  0
   28.6712  -19.3641  -12.2870 C   0  0  0  0  0  0  0  0  0  0  0  0
   29.9251  -19.4290  -11.7237 C   0  0  0  0  0  0  0  0  0  0  0  0
   30.5480  -20.6519  -11.5882 C   0  0  0  0  0  0  0  0  0  0  0  0
   29.8748  -21.7789  -12.0313 C   0  0  0  0  0  0  0  0  0  0  0  0
   28.6270  -21.7177  -12.5922 C   0  0  0  0  0  0  0  0  0  0  0  0
   25.4884  -20.7029  -11.1631 C   0  0  0  0  0  0  0  0  0  0  0  0
   24.7114  -19.7650  -10.8615 O   0  0  0  0  0  0  0  0  0  0  0  0
   26.2526  -21.3570  -10.1540 N   0  0  0  0  0  0  0  0  0  0  0  0
   26.3051  -20.8164   -8.8154 C   0  0  1  0  0  0  0  0  0  0  0  0
   27.5947  -21.2240   -8.1785 C   0  0  0  0  0  0  0  0  0  0  0  0
   27.7600  -20.6967   -6.8246 C   0  0  0  0  0  0  0  0  0  0  0  0
   27.2202  -21.2706   -5.7152 C   0  0  0  0  0  0  0  0  0  0  0  0
   27.4163  -20.7240   -4.4562 C   0  0  0  0  0  0  0  0  0  0  0  0
   28.1631  -19.5805   -4.2747 C   0  0  0  0  0  0  0  0  0  0  0  0
   28.7103  -19.0007   -5.4105 C   0  0  0  0  0  0  0  0  0  0  0  0
   28.5176  -19.5396   -6.6552 C   0  0  0  0  0  0  0  0  0  0  0  0
   26.1002  -19.3645   -8.8018 C   0  0  0  0  0  0  0  0  0  0  0  0
   26.7333  -18.5457   -9.5066 O   0  0  0  0  0  0  0  0  0  0  0  0
   25.1251  -18.8354   -7.9399 O   0  0  0  0  0  0  0  0  0  0  0  0
  2  1  1  6
  3  2  1  0
  4  3  1  0
  5  2  1  0
  5  6  2  0
  7  5  1  0
  8  7  1  0
  8  9  1  6
 10 11  2  0
 10  9  1  0
 12 11  1  0
 13 12  2  0
 14 13  1  0
 14 15  2  0
 15 10  1  0
 16  8  1  0
 17 16  2  0
 18 16  1  0
 19 20  1  6
 19 18  1  0
 21 20  1  0
 22 21  2  0
 23 22  1  0
 24 25  1  0
 24 23  2  0
 25 26  2  0
 26 21  1  0
 27 29  1  0
 27 19  1  0
 28 27  2  0
M  END
$$$$
