CMS.pdb
     RDKit          3D

 21 20  0  0  1  0  0  0  0  0999 V2000
   17.3836  -12.6771  -13.8605 N   0  0  0  0  0  0  0  0  0  0  0  0
   17.9178  -11.5503  -13.1364 C   0  0  1  0  0  0  0  0  0  0  0  0
   19.1149  -11.0307  -13.8711 C   0  0  0  0  0  0  0  0  0  0  0  0
   20.5452  -12.1338  -13.7006 S   0  0  0  0  0  0  0  0  0  0  0  0
   16.8896  -10.4517  -13.0117 C   0  0  0  0  0  0  0  0  0  0  0  0
   16.2678  -10.2006  -14.0588 O   0  0  0  0  0  0  0  0  0  0  0  0
   11.5239  -11.1430   -9.3256 C   0  0  0  0  0  0  0  0  0  0  0  0
   12.8904  -10.0244   -8.9522 S   0  0  0  0  0  0  0  0  0  0  0  0
   13.8548   -9.7948  -10.4652 C   0  0  0  0  0  0  0  0  0  0  0  0
   15.0123   -8.8576  -10.2457 C   0  0  0  0  0  0  0  0  0  0  0  0
   15.8295   -8.6890  -11.5094 C   0  0  2  0  0  0  0  0  0  0  0  0
   16.6865   -9.7947  -11.7927 N   0  0  0  0  0  0  0  0  0  0  0  0
   16.4310   -7.3590  -11.6685 C   0  0  0  0  0  0  0  0  0  0  0  0
   17.3998   -6.9784  -10.9239 O   0  0  0  0  0  0  0  0  0  0  0  0
   16.3337   -5.2149  -15.1824 O   0  0  0  0  0  0  0  0  0  0  0  0
   17.2697   -4.9887  -14.1776 C   0  0  0  0  0  0  0  0  0  0  0  0
   16.6584   -5.1455  -12.8007 C   0  0  2  0  0  0  0  0  0  0  0  0
   16.0010   -6.4103  -12.6339 N   0  0  0  0  0  0  0  0  0  0  0  0
   15.7940   -3.9924  -12.4806 C   0  0  0  0  0  0  0  0  0  0  0  0
   16.2168   -2.6802  -12.4126 O   0  0  0  0  0  0  0  0  0  0  0  0
   14.5790   -4.2260  -12.2526 O   0  0  0  0  0  0  0  0  0  0  0  0
  2  3  1  0
  2  1  1  6
  4  3  1  0
  5  2  1  0
  5 12  1  0
  6  5  2  0
  7  8  1  0
  8  9  1  0
  9 10  1  0
 11 10  1  1
 11 12  1  0
 13 14  2  0
 13 11  1  0
 16 15  1  0
 17 18  1  0
 17 16  1  6
 18 13  1  0
 19 17  1  0
 20 19  1  0
 21 19  2  0
M  END
$$$$
