CMS.pdb
     RDKit          3D

 21 20  0  0  1  0  0  0  0  0999 V2000
   18.7503  -12.2519  -19.3654 N   0  0  0  0  0  0  0  0  0  0  0  0
   19.4381  -10.9931  -19.5128 C   0  0  1  0  0  0  0  0  0  0  0  0
   18.4324   -9.9306  -19.8330 C   0  0  0  0  0  0  0  0  0  0  0  0
   17.3499   -9.5755  -18.4210 S   0  0  0  0  0  0  0  0  0  0  0  0
   20.1698  -10.6255  -18.2443 C   0  0  0  0  0  0  0  0  0  0  0  0
   19.5193  -10.8018  -17.1994 O   0  0  0  0  0  0  0  0  0  0  0  0
   26.9040  -10.1376  -14.4209 C   0  0  0  0  0  0  0  0  0  0  0  0
   26.1228  -10.5616  -15.9919 S   0  0  0  0  0  0  0  0  0  0  0  0
   24.4823   -9.8003  -16.0243 C   0  0  0  0  0  0  0  0  0  0  0  0
   23.7158  -10.1917  -17.2595 C   0  0  0  0  0  0  0  0  0  0  0  0
   22.2940   -9.6729  -17.2108 C   0  0  2  0  0  0  0  0  0  0  0  0
   21.4776  -10.1287  -18.2892 N   0  0  0  0  0  0  0  0  0  0  0  0
   22.1812   -8.2456  -16.8848 C   0  0  0  0  0  0  0  0  0  0  0  0
   22.4017   -7.3464  -17.7684 O   0  0  0  0  0  0  0  0  0  0  0  0
   19.9107   -4.6927  -14.9421 O   0  0  0  0  0  0  0  0  0  0  0  0
   20.1187   -6.0450  -15.1972 C   0  0  0  0  0  0  0  0  0  0  0  0
   21.5913   -6.3623  -15.3556 C   0  0  2  0  0  0  0  0  0  0  0  0
   21.8281   -7.7567  -15.5990 N   0  0  0  0  0  0  0  0  0  0  0  0
   22.3640   -5.8299  -14.2160 C   0  0  0  0  0  0  0  0  0  0  0  0
   22.8571   -4.5439  -14.1250 O   0  0  0  0  0  0  0  0  0  0  0  0
   22.5892   -6.6101  -13.2550 O   0  0  0  0  0  0  0  0  0  0  0  0
  2  3  1  0
  2  1  1  1
  4  3  1  0
  5  2  1  0
  5 12  1  0
  6  5  2  0
  7  8  1  0
  8  9  1  0
  9 10  1  0
 11 10  1  6
 11 12  1  0
 13 14  2  0
 13 11  1  0
 16 15  1  0
 17 18  1  0
 17 16  1  1
 18 13  1  0
 19 17  1  0
 20 19  1  0
 21 19  2  0
M  END
$$$$
