CMS.pdb
     RDKit          3D

 21 20  0  0  1  0  0  0  0  0999 V2000
   14.5632  -12.4153  -13.0275 N   0  0  0  0  0  0  0  0  0  0  0  0
   15.7743  -11.7694  -12.5853 C   0  0  1  0  0  0  0  0  0  0  0  0
   16.8010  -11.8790  -13.6702 C   0  0  0  0  0  0  0  0  0  0  0  0
   17.4633  -13.5624  -13.8080 S   0  0  0  0  0  0  0  0  0  0  0  0
   15.5270  -10.3129  -12.2738 C   0  0  0  0  0  0  0  0  0  0  0  0
   14.7684   -9.7326  -13.0699 O   0  0  0  0  0  0  0  0  0  0  0  0
   14.5107   -4.8180   -6.9133 C   0  0  0  0  0  0  0  0  0  0  0  0
   14.5678   -6.5770   -7.3137 S   0  0  0  0  0  0  0  0  0  0  0  0
   15.4043   -6.7612   -8.9069 C   0  0  0  0  0  0  0  0  0  0  0  0
   15.5397   -8.2092   -9.2957 C   0  0  0  0  0  0  0  0  0  0  0  0
   16.0191   -8.3514  -10.7251 C   0  0  2  0  0  0  0  0  0  0  0  0
   16.1263   -9.7052  -11.1644 N   0  0  0  0  0  0  0  0  0  0  0  0
   17.1446   -7.4762  -11.0761 C   0  0  0  0  0  0  0  0  0  0  0  0
   18.3510   -7.8138  -10.8143 O   0  0  0  0  0  0  0  0  0  0  0  0
   19.5263   -6.0960  -14.3757 O   0  0  0  0  0  0  0  0  0  0  0  0
   18.5186   -6.6464  -13.5892 C   0  0  0  0  0  0  0  0  0  0  0  0
   18.0218   -5.6623  -12.5505 C   0  0  2  0  0  0  0  0  0  0  0  0
   16.9939   -6.2178  -11.7171 N   0  0  0  0  0  0  0  0  0  0  0  0
   17.6324   -4.3877  -13.1852 C   0  0  0  0  0  0  0  0  0  0  0  0
   18.4868   -3.3318  -13.4312 O   0  0  0  0  0  0  0  0  0  0  0  0
   16.4290   -4.2559  -13.5275 O   0  0  0  0  0  0  0  0  0  0  0  0
  2  3  1  0
  2  1  1  6
  4  3  1  0
  5  2  1  0
  5 12  1  0
  6  5  2  0
  7  8  1  0
  8  9  1  0
  9 10  1  0
 11 10  1  1
 11 12  1  0
 13 14  2  0
 13 11  1  0
 16 15  1  0
 17 18  1  0
 17 16  1  6
 18 13  1  0
 19 17  1  0
 20 19  1  0
 21 19  2  0
M  END
$$$$
