CMS.pdb
     RDKit          3D

 21 20  0  0  1  0  0  0  0  0999 V2000
   17.9164  -14.6312  -15.7099 N   0  0  0  0  0  0  0  0  0  0  0  0
   18.3175  -13.5654  -16.5945 C   0  0  1  0  0  0  0  0  0  0  0  0
   17.0929  -12.8361  -17.0544 C   0  0  0  0  0  0  0  0  0  0  0  0
   16.1845  -13.7683  -18.3183 S   0  0  0  0  0  0  0  0  0  0  0  0
   19.2425  -12.6002  -15.8928 C   0  0  0  0  0  0  0  0  0  0  0  0
   18.8041  -12.1459  -14.8215 O   0  0  0  0  0  0  0  0  0  0  0  0
   26.6536  -10.1825  -14.9980 C   0  0  0  0  0  0  0  0  0  0  0  0
   25.5731  -11.3061  -15.9079 S   0  0  0  0  0  0  0  0  0  0  0  0
   23.8635  -10.7821  -15.6346 C   0  0  0  0  0  0  0  0  0  0  0  0
   22.8857  -11.7311  -16.2746 C   0  0  0  0  0  0  0  0  0  0  0  0
   21.4566  -11.3427  -15.9585 C   0  0  2  0  0  0  0  0  0  0  0  0
   20.4870  -12.2717  -16.4425 N   0  0  0  0  0  0  0  0  0  0  0  0
   21.1502   -9.9248  -16.1857 C   0  0  0  0  0  0  0  0  0  0  0  0
   20.9644   -9.4700  -17.3675 O   0  0  0  0  0  0  0  0  0  0  0  0
   18.4999   -7.8271  -14.3906 O   0  0  0  0  0  0  0  0  0  0  0  0
   19.6697   -7.0731  -14.3962 C   0  0  0  0  0  0  0  0  0  0  0  0
   20.6699   -7.6034  -15.4025 C   0  0  2  0  0  0  0  0  0  0  0  0
   21.0372   -8.9664  -15.1438 N   0  0  0  0  0  0  0  0  0  0  0  0
   21.8302   -6.6971  -15.5101 C   0  0  0  0  0  0  0  0  0  0  0  0
   21.7592   -5.3510  -15.8069 O   0  0  0  0  0  0  0  0  0  0  0  0
   22.9705   -7.1920  -15.3158 O   0  0  0  0  0  0  0  0  0  0  0  0
  2  3  1  0
  2  1  1  1
  4  3  1  0
  5  2  1  0
  5 12  1  0
  6  5  2  0
  7  8  1  0
  8  9  1  0
  9 10  1  0
 11 10  1  6
 11 12  1  0
 13 14  2  0
 13 11  1  0
 16 15  1  0
 17 18  1  0
 17 16  1  1
 18 13  1  0
 19 17  1  0
 20 19  1  0
 21 19  2  0
M  END
$$$$
