CMS.pdb
     RDKit          3D

 21 20  0  0  1  0  0  0  0  0999 V2000
   24.7376   -8.8987  -18.8531 N   0  0  0  0  0  0  0  0  0  0  0  0
   23.4580   -9.2660  -19.4073 C   0  0  1  0  0  0  0  0  0  0  0  0
   23.4092  -10.7553  -19.5578 C   0  0  0  0  0  0  0  0  0  0  0  0
   24.6467  -11.3572  -20.7402 S   0  0  0  0  0  0  0  0  0  0  0  0
   22.3309   -8.8152  -18.5095 C   0  0  0  0  0  0  0  0  0  0  0  0
   21.1935   -9.1148  -18.9128 O   0  0  0  0  0  0  0  0  0  0  0  0
   22.6027  -11.9129  -13.1204 C   0  0  0  0  0  0  0  0  0  0  0  0
   22.5202  -10.1099  -13.1394 S   0  0  0  0  0  0  0  0  0  0  0  0
   22.1669   -9.5839  -14.8337 C   0  0  0  0  0  0  0  0  0  0  0  0
   22.0189   -8.0888  -14.9285 C   0  0  0  0  0  0  0  0  0  0  0  0
   21.6690   -7.6600  -16.3381 C   0  0  2  0  0  0  0  0  0  0  0  0
   22.5932   -8.1171  -17.3251 N   0  0  0  0  0  0  0  0  0  0  0  0
   21.2499   -6.2578  -16.4579 C   0  0  0  0  0  0  0  0  0  0  0  0
   22.0904   -5.3027  -16.3196 O   0  0  0  0  0  0  0  0  0  0  0  0
   18.1893   -2.8755  -18.0089 O   0  0  0  0  0  0  0  0  0  0  0  0
   18.5850   -4.2093  -17.9686 C   0  0  0  0  0  0  0  0  0  0  0  0
   19.5447   -4.4719  -16.8266 C   0  0  2  0  0  0  0  0  0  0  0  0
   19.9153   -5.8549  -16.7296 N   0  0  0  0  0  0  0  0  0  0  0  0
   19.0146   -3.9204  -15.5640 C   0  0  0  0  0  0  0  0  0  0  0  0
   19.1530   -2.6102  -15.1520 O   0  0  0  0  0  0  0  0  0  0  0  0
   18.3890   -4.7066  -14.8070 O   0  0  0  0  0  0  0  0  0  0  0  0
  2  3  1  0
  2  1  1  1
  4  3  1  0
  5  2  1  0
  5 12  1  0
  6  5  2  0
  7  8  1  0
  8  9  1  0
  9 10  1  0
 11 10  1  1
 11 12  1  0
 13 14  2  0
 13 11  1  0
 16 15  1  0
 17 18  1  0
 17 16  1  6
 18 13  1  0
 19 17  1  0
 20 19  1  0
 21 19  2  0
M  END
$$$$
