CMS.pdb
     RDKit          3D

 21 20  0  0  1  0  0  0  0  0999 V2000
   28.7320  -20.7366  -16.1191 N   0  0  0  0  0  0  0  0  0  0  0  0
   28.2332  -19.8681  -15.0817 C   0  0  1  0  0  0  0  0  0  0  0  0
   27.7718  -18.5880  -15.7074 C   0  0  0  0  0  0  0  0  0  0  0  0
   27.2124  -17.3902  -14.4648 S   0  0  0  0  0  0  0  0  0  0  0  0
   27.0817  -20.5108  -14.3464 C   0  0  0  0  0  0  0  0  0  0  0  0
   26.3229  -21.1893  -15.0605 O   0  0  0  0  0  0  0  0  0  0  0  0
   26.8699  -20.0712   -7.8428 C   0  0  0  0  0  0  0  0  0  0  0  0
   25.1890  -20.6893   -8.0676 S   0  0  0  0  0  0  0  0  0  0  0  0
   24.9630  -21.0707   -9.8213 C   0  0  0  0  0  0  0  0  0  0  0  0
   26.0888  -20.5208  -10.6558 C   0  0  0  0  0  0  0  0  0  0  0  0
   25.8546  -20.7755  -12.1301 C   0  0  2  0  0  0  0  0  0  0  0  0
   26.9205  -20.3293  -12.9679 N   0  0  0  0  0  0  0  0  0  0  0  0
   24.5000  -20.4488  -12.5932 C   0  0  0  0  0  0  0  0  0  0  0  0
   24.1672  -19.2433  -12.8648 O   0  0  0  0  0  0  0  0  0  0  0  0
   20.5107  -21.6554  -14.9299 O   0  0  0  0  0  0  0  0  0  0  0  0
   21.7833  -21.9677  -14.4609 C   0  0  0  0  0  0  0  0  0  0  0  0
   22.1908  -21.0677  -13.3129 C   0  0  2  0  0  0  0  0  0  0  0  0
   23.4747  -21.4149  -12.7737 N   0  0  0  0  0  0  0  0  0  0  0  0
   21.1257  -21.0114  -12.2923 C   0  0  0  0  0  0  0  0  0  0  0  0
   19.8311  -20.5907  -12.5208 O   0  0  0  0  0  0  0  0  0  0  0  0
   21.4232  -21.3752  -11.1252 O   0  0  0  0  0  0  0  0  0  0  0  0
  2  3  1  0
  2  1  1  6
  4  3  1  0
  5  2  1  0
  5 12  1  0
  6  5  2  0
  7  8  1  0
  8  9  1  0
  9 10  1  0
 11 10  1  1
 11 12  1  0
 13 14  2  0
 13 11  1  0
 16 15  1  0
 17 18  1  0
 17 16  1  6
 18 13  1  0
 19 17  1  0
 20 19  1  0
 21 19  2  0
M  END
$$$$
