CMS.pdb
     RDKit          3D

 21 20  0  0  1  0  0  0  0  0999 V2000
   18.2795  -12.8209  -17.0735 N   0  0  0  0  0  0  0  0  0  0  0  0
   18.0653  -11.5058  -16.5221 C   0  0  1  0  0  0  0  0  0  0  0  0
   17.6422  -11.6473  -15.0925 C   0  0  0  0  0  0  0  0  0  0  0  0
   17.4406  -10.0360  -14.2835 S   0  0  0  0  0  0  0  0  0  0  0  0
   19.3263  -10.6785  -16.5927 C   0  0  0  0  0  0  0  0  0  0  0  0
   20.3771  -11.3151  -16.4011 O   0  0  0  0  0  0  0  0  0  0  0  0
   23.9932   -6.2288  -20.3994 C   0  0  0  0  0  0  0  0  0  0  0  0
   22.3288   -6.9236  -20.3283 S   0  0  0  0  0  0  0  0  0  0  0  0
   21.9713   -7.3444  -18.6058 C   0  0  0  0  0  0  0  0  0  0  0  0
   20.6637   -8.0789  -18.4764 C   0  0  0  0  0  0  0  0  0  0  0  0
   20.3473   -8.3858  -17.0276 C   0  0  2  0  0  0  0  0  0  0  0  0
   19.2689   -9.3050  -16.8561 N   0  0  0  0  0  0  0  0  0  0  0  0
   20.3278   -7.2089  -16.1498 C   0  0  0  0  0  0  0  0  0  0  0  0
   19.3020   -6.4459  -16.0901 O   0  0  0  0  0  0  0  0  0  0  0  0
   22.3353   -4.5774  -12.5663 O   0  0  0  0  0  0  0  0  0  0  0  0
   22.3407   -5.7464  -13.3216 C   0  0  0  0  0  0  0  0  0  0  0  0
   21.3502   -5.6758  -14.4653 C   0  0  2  0  0  0  0  0  0  0  0  0
   21.4138   -6.8292  -15.3170 N   0  0  0  0  0  0  0  0  0  0  0  0
   21.4907   -4.4018  -15.1976 C   0  0  0  0  0  0  0  0  0  0  0  0
   20.6857   -3.2943  -15.0221 O   0  0  0  0  0  0  0  0  0  0  0  0
   22.4158   -4.3215  -16.0464 O   0  0  0  0  0  0  0  0  0  0  0  0
  2  3  1  0
  2  1  1  1
  4  3  1  0
  5  2  1  0
  5 12  1  0
  6  5  2  0
  7  8  1  0
  8  9  1  0
  9 10  1  0
 11 10  1  6
 11 12  1  0
 13 14  2  0
 13 11  1  0
 16 15  1  0
 17 18  1  0
 17 16  1  1
 18 13  1  0
 19 17  1  0
 20 19  1  0
 21 19  2  0
M  END
$$$$
