CMS.pdb
     RDKit          3D

 21 20  0  0  1  0  0  0  0  0999 V2000
   17.7842   -8.8180  -11.1535 N   0  0  0  0  0  0  0  0  0  0  0  0
   18.0350   -8.9106  -12.5705 C   0  0  1  0  0  0  0  0  0  0  0  0
   16.7963   -8.5000  -13.3055 C   0  0  0  0  0  0  0  0  0  0  0  0
   15.4306   -9.6628  -13.0330 S   0  0  0  0  0  0  0  0  0  0  0  0
   19.1798   -8.0138  -12.9762 C   0  0  0  0  0  0  0  0  0  0  0  0
   19.2859   -6.9713  -12.3068 O   0  0  0  0  0  0  0  0  0  0  0  0
   24.1594  -10.8423  -13.7235 C   0  0  0  0  0  0  0  0  0  0  0  0
   24.2982   -9.8944  -15.2533 S   0  0  0  0  0  0  0  0  0  0  0  0
   23.4239   -8.3279  -15.0220 C   0  0  0  0  0  0  0  0  0  0  0  0
   22.0016   -8.4119  -15.5081 C   0  0  0  0  0  0  0  0  0  0  0  0
   21.0724   -7.6003  -14.6300 C   0  0  2  0  0  0  0  0  0  0  0  0
   20.0300   -8.3688  -14.0299 N   0  0  0  0  0  0  0  0  0  0  0  0
   20.6644   -6.3133  -15.2073 C   0  0  0  0  0  0  0  0  0  0  0  0
   19.7461   -6.2493  -16.0964 O   0  0  0  0  0  0  0  0  0  0  0  0
   20.6137   -1.4504  -14.9402 O   0  0  0  0  0  0  0  0  0  0  0  0
   21.2136   -2.6354  -14.5243 C   0  0  0  0  0  0  0  0  0  0  0  0
   20.7256   -3.8205  -15.3315 C   0  0  2  0  0  0  0  0  0  0  0  0
   21.2375   -5.0673  -14.8384 N   0  0  0  0  0  0  0  0  0  0  0  0
   20.9839   -3.6123  -16.7700 C   0  0  0  0  0  0  0  0  0  0  0  0
   20.0848   -3.0695  -17.6657 O   0  0  0  0  0  0  0  0  0  0  0  0
   22.1106   -3.9567  -17.2111 O   0  0  0  0  0  0  0  0  0  0  0  0
  2  3  1  0
  2  1  1  1
  4  3  1  0
  5  2  1  0
  5 12  1  0
  6  5  2  0
  7  8  1  0
  8  9  1  0
  9 10  1  0
 11 10  1  6
 11 12  1  0
 13 14  2  0
 13 11  1  0
 16 15  1  0
 17 18  1  0
 17 16  1  1
 18 13  1  0
 19 17  1  0
 20 19  1  0
 21 19  2  0
M  END
$$$$
