CMS.pdb
     RDKit          3D

 21 20  0  0  1  0  0  0  0  0999 V2000
   19.9340  -13.1603  -16.0595 N   0  0  0  0  0  0  0  0  0  0  0  0
   20.4585  -12.0586  -16.8280 C   0  0  1  0  0  0  0  0  0  0  0  0
   19.3202  -11.3618  -17.5075 C   0  0  0  0  0  0  0  0  0  0  0  0
   18.2818  -12.5172  -18.4448 S   0  0  0  0  0  0  0  0  0  0  0  0
   21.1880  -11.0794  -15.9399 C   0  0  0  0  0  0  0  0  0  0  0  0
   20.6205  -10.8333  -14.8614 O   0  0  0  0  0  0  0  0  0  0  0  0
   27.5463  -12.4898  -14.8935 C   0  0  0  0  0  0  0  0  0  0  0  0
   26.9540  -11.0028  -15.7278 S   0  0  0  0  0  0  0  0  0  0  0  0
   25.2137  -10.7725  -15.2919 C   0  0  0  0  0  0  0  0  0  0  0  0
   24.6370   -9.5470  -15.9492 C   0  0  0  0  0  0  0  0  0  0  0  0
   23.1414   -9.4584  -15.7292 C   0  0  2  0  0  0  0  0  0  0  0  0
   22.4057  -10.5177  -16.3408 N   0  0  0  0  0  0  0  0  0  0  0  0
   22.5828   -8.1115  -15.9022 C   0  0  0  0  0  0  0  0  0  0  0  0
   22.4241   -7.6064  -17.0674 O   0  0  0  0  0  0  0  0  0  0  0  0
   19.5640   -4.7052  -14.8715 O   0  0  0  0  0  0  0  0  0  0  0  0
   20.1444   -5.9377  -14.5866 C   0  0  0  0  0  0  0  0  0  0  0  0
   21.5896   -5.9907  -15.0366 C   0  0  2  0  0  0  0  0  0  0  0  0
   22.1831   -7.2798  -14.8225 N   0  0  0  0  0  0  0  0  0  0  0  0
   22.3627   -4.8859  -14.4357 C   0  0  0  0  0  0  0  0  0  0  0  0
   22.4554   -3.6101  -14.9546 O   0  0  0  0  0  0  0  0  0  0  0  0
   22.9839   -5.1280  -13.3689 O   0  0  0  0  0  0  0  0  0  0  0  0
  2  3  1  0
  2  1  1  1
  4  3  1  0
  5  2  1  0
  5 12  1  0
  6  5  2  0
  7  8  1  0
  8  9  1  0
  9 10  1  0
 11 10  1  6
 11 12  1  0
 13 14  2  0
 13 11  1  0
 16 15  1  0
 17 18  1  0
 17 16  1  1
 18 13  1  0
 19 17  1  0
 20 19  1  0
 21 19  2  0
M  END
$$$$
