CMS.pdb
     RDKit          3D

 21 20  0  0  1  0  0  0  0  0999 V2000
   17.0016  -11.9327  -15.8916 N   0  0  0  0  0  0  0  0  0  0  0  0
   17.5057  -10.7116  -16.4698 C   0  0  1  0  0  0  0  0  0  0  0  0
   16.4244   -9.6763  -16.4243 C   0  0  0  0  0  0  0  0  0  0  0  0
   16.9713   -8.0950  -17.1255 S   0  0  0  0  0  0  0  0  0  0  0  0
   18.7113  -10.2118  -15.7106 C   0  0  0  0  0  0  0  0  0  0  0  0
   18.5820  -10.2082  -14.4740 O   0  0  0  0  0  0  0  0  0  0  0  0
   26.2925   -9.9171  -14.6524 C   0  0  0  0  0  0  0  0  0  0  0  0
   24.9452  -10.6004  -15.6403 S   0  0  0  0  0  0  0  0  0  0  0  0
   23.5183   -9.5008  -15.4770 C   0  0  0  0  0  0  0  0  0  0  0  0
   22.3010  -10.0710  -16.1547 C   0  0  0  0  0  0  0  0  0  0  0  0
   21.0661   -9.2505  -15.8466 C   0  0  2  0  0  0  0  0  0  0  0  0
   19.8630   -9.7952  -16.3881 N   0  0  0  0  0  0  0  0  0  0  0  0
   21.2434   -7.8027  -16.0161 C   0  0  0  0  0  0  0  0  0  0  0  0
   21.2923   -7.2748  -17.1809 O   0  0  0  0  0  0  0  0  0  0  0  0
   20.4464   -3.3380  -14.8995 O   0  0  0  0  0  0  0  0  0  0  0  0
   20.3186   -4.6984  -14.6347 C   0  0  0  0  0  0  0  0  0  0  0  0
   21.5129   -5.4798  -15.1418 C   0  0  2  0  0  0  0  0  0  0  0  0
   21.3717   -6.8927  -14.9333 N   0  0  0  0  0  0  0  0  0  0  0  0
   22.7668   -4.9312  -14.5885 C   0  0  0  0  0  0  0  0  0  0  0  0
   23.5262   -3.9408  -15.1782 O   0  0  0  0  0  0  0  0  0  0  0  0
   23.1724   -5.4041  -13.4956 O   0  0  0  0  0  0  0  0  0  0  0  0
  2  3  1  0
  2  1  1  1
  4  3  1  0
  5  2  1  0
  5 12  1  0
  6  5  2  0
  7  8  1  0
  8  9  1  0
  9 10  1  0
 11 10  1  6
 11 12  1  0
 13 14  2  0
 13 11  1  0
 16 15  1  0
 17 18  1  0
 17 16  1  1
 18 13  1  0
 19 17  1  0
 20 19  1  0
 21 19  2  0
M  END
$$$$
