VKP.pdb
     RDKit          3D

 24 24  0  0  1  0  0  0  0  0999 V2000
    6.7990  -14.1187   19.3845 C   0  0  0  0  0  0  0  0  0  0  0  0
    7.9296  -13.1619   19.7012 C   0  0  2  0  0  0  0  0  0  0  0  0
    8.6780  -12.9273   18.4015 C   0  0  0  0  0  0  0  0  0  0  0  0
    8.8136  -13.8247   20.7234 C   0  0  2  0  0  0  0  0  0  0  0  0
    9.2707  -15.0797   20.1592 N   0  0  0  0  0  0  0  0  0  0  0  0
    8.0874  -14.0520   22.0100 C   0  0  0  0  0  0  0  0  0  0  0  0
    7.4777  -13.1141   22.5941 O   0  0  0  0  0  0  0  0  0  0  0  0
    8.0426  -15.3107   22.6361 N   0  0  0  0  0  0  0  0  0  0  0  0
    7.2859  -15.4949   23.9327 C   0  0  1  0  0  0  0  0  0  0  0  0
    7.0580  -16.9691   23.9231 C   0  0  0  0  0  0  0  0  0  0  0  0
    6.1013  -17.6270   23.0337 C   0  0  0  0  0  0  0  0  0  0  0  0
    6.5785  -18.4634   21.9176 C   0  0  0  0  0  0  0  0  0  0  0  0
    5.3540  -18.9523   21.1109 C   0  0  0  0  0  0  0  0  0  0  0  0
    5.8201  -19.5527   19.8905 N   0  0  0  0  0  0  0  0  0  0  0  0
    8.1080  -14.9756   25.0185 C   0  0  0  0  0  0  0  0  0  0  0  0
    9.1729  -15.5960   25.2619 O   0  0  0  0  0  0  0  0  0  0  0  0
    7.7845  -13.8361   25.7808 N   0  0  0  0  0  0  0  0  0  0  0  0
    6.8278  -12.8601   25.3112 C   0  0  0  0  0  0  0  0  0  0  0  0
    6.1919  -12.3476   26.5647 C   0  0  0  0  0  0  0  0  0  0  0  0
    6.9927  -12.8621   27.7135 C   0  0  0  0  0  0  0  0  0  0  0  0
    8.2815  -13.4048   27.0236 C   0  0  1  0  0  0  0  0  0  0  0  0
    8.8774  -14.3694   27.9387 C   0  0  0  0  0  0  0  0  0  0  0  0
    9.7288  -14.0937   28.7792 O   0  0  0  0  0  0  0  0  0  0  0  0
    8.4399  -15.6947   27.8419 O   0  0  0  0  0  0  0  0  0  0  0  0
  2  1  1  6
  2  3  1  0
  4  5  1  6
  4  2  1  0
  6  4  1  0
  7  6  2  0
  8  6  1  0
  9 10  1  1
  9  8  1  0
 10 11  1  0
 11 12  1  0
 13 14  1  0
 13 12  1  0
 15  9  1  0
 16 15  2  0
 17 15  1  0
 18 17  1  0
 19 20  1  0
 19 18  1  0
 20 21  1  0
 21 17  1  0
 22 24  1  0
 21 22  1  1
 23 22  2  0
M  END
$$$$
