VKP.pdb
     RDKit          3D

 24 24  0  0  1  0  0  0  0  0999 V2000
    6.6631  -14.0843   19.6462 C   0  0  0  0  0  0  0  0  0  0  0  0
    7.9100  -13.2697   19.9219 C   0  0  2  0  0  0  0  0  0  0  0  0
    8.6107  -13.0821   18.5885 C   0  0  0  0  0  0  0  0  0  0  0  0
    8.7656  -14.0572   20.8776 C   0  0  2  0  0  0  0  0  0  0  0  0
    9.0227  -15.3494   20.2723 N   0  0  0  0  0  0  0  0  0  0  0  0
    8.0997  -14.2142   22.2065 C   0  0  0  0  0  0  0  0  0  0  0  0
    7.7165  -13.2123   22.8711 O   0  0  0  0  0  0  0  0  0  0  0  0
    7.8646  -15.4742   22.7858 N   0  0  0  0  0  0  0  0  0  0  0  0
    7.2474  -15.5815   24.1624 C   0  0  1  0  0  0  0  0  0  0  0  0
    7.0326  -17.0540   24.2649 C   0  0  0  0  0  0  0  0  0  0  0  0
    6.7243  -17.7340   25.5226 C   0  0  0  0  0  0  0  0  0  0  0  0
    7.3013  -19.0595   25.8111 C   0  0  0  0  0  0  0  0  0  0  0  0
    6.8888  -19.4743   27.2419 C   0  0  0  0  0  0  0  0  0  0  0  0
    7.4621  -20.7614   27.5283 N   0  0  0  0  0  0  0  0  0  0  0  0
    8.1726  -14.9952   25.1241 C   0  0  0  0  0  0  0  0  0  0  0  0
    9.2347  -15.6304   25.3395 O   0  0  0  0  0  0  0  0  0  0  0  0
    7.9484  -13.7786   25.7976 N   0  0  0  0  0  0  0  0  0  0  0  0
    7.1269  -12.7377   25.2231 C   0  0  0  0  0  0  0  0  0  0  0  0
    6.5024  -12.0755   26.4104 C   0  0  0  0  0  0  0  0  0  0  0  0
    7.1935  -12.5960   27.6259 C   0  0  0  0  0  0  0  0  0  0  0  0
    8.4401  -13.3215   27.0333 C   0  0  1  0  0  0  0  0  0  0  0  0
    8.8867  -14.2816   28.0341 C   0  0  0  0  0  0  0  0  0  0  0  0
    8.6534  -15.4862   27.9924 O   0  0  0  0  0  0  0  0  0  0  0  0
    9.6305  -13.7829   29.1090 O   0  0  0  0  0  0  0  0  0  0  0  0
  2  1  1  6
  2  3  1  0
  4  5  1  6
  4  2  1  0
  6  4  1  0
  7  6  2  0
  8  6  1  0
  9 10  1  1
  9  8  1  0
 10 11  1  0
 11 12  1  0
 13 14  1  0
 13 12  1  0
 15  9  1  0
 16 15  2  0
 17 15  1  0
 18 17  1  0
 19 20  1  0
 19 18  1  0
 20 21  1  0
 21 17  1  0
 22 24  1  0
 21 22  1  1
 23 22  2  0
M  END
$$$$
