VKP.pdb
     RDKit          3D

 24 24  0  0  1  0  0  0  0  0999 V2000
   12.4916  -16.6554   20.2794 C   0  0  0  0  0  0  0  0  0  0  0  0
   11.5786  -16.0251   21.3107 C   0  0  2  0  0  0  0  0  0  0  0  0
   12.3730  -15.9410   22.6015 C   0  0  0  0  0  0  0  0  0  0  0  0
   10.3818  -16.9241   21.4687 C   0  0  2  0  0  0  0  0  0  0  0  0
    9.6902  -16.9605   20.1948 N   0  0  0  0  0  0  0  0  0  0  0  0
    9.4743  -16.4416   22.5541 C   0  0  0  0  0  0  0  0  0  0  0  0
    8.8335  -15.3604   22.4416 O   0  0  0  0  0  0  0  0  0  0  0  0
    9.2851  -17.1577   23.7498 N   0  0  0  0  0  0  0  0  0  0  0  0
    8.3815  -16.6137   24.8338 C   0  0  1  0  0  0  0  0  0  0  0  0
    7.4885  -17.7839   25.0749 C   0  0  0  0  0  0  0  0  0  0  0  0
    6.5463  -18.2926   24.0786 C   0  0  0  0  0  0  0  0  0  0  0  0
    5.7026  -19.4624   24.3834 C   0  0  0  0  0  0  0  0  0  0  0  0
    4.8210  -19.7672   23.1509 C   0  0  0  0  0  0  0  0  0  0  0  0
    3.9964  -20.9068   23.4487 N   0  0  0  0  0  0  0  0  0  0  0  0
    9.2143  -16.1950   25.9544 C   0  0  0  0  0  0  0  0  0  0  0  0
   10.0343  -17.0408   26.3905 O   0  0  0  0  0  0  0  0  0  0  0  0
    9.1570  -14.9198   26.5499 N   0  0  0  0  0  0  0  0  0  0  0  0
    8.5606  -13.7940   25.8679 C   0  0  0  0  0  0  0  0  0  0  0  0
    7.9839  -12.9676   26.9737 C   0  0  0  0  0  0  0  0  0  0  0  0
    8.4999  -13.5211   28.2595 C   0  0  0  0  0  0  0  0  0  0  0  0
    9.6407  -14.4767   27.7939 C   0  0  1  0  0  0  0  0  0  0  0  0
    9.8553  -15.4355   28.8698 C   0  0  0  0  0  0  0  0  0  0  0  0
    9.3881  -16.5706   28.8908 O   0  0  0  0  0  0  0  0  0  0  0  0
   10.6496  -15.0208   29.9444 O   0  0  0  0  0  0  0  0  0  0  0  0
  2  1  1  6
  2  3  1  0
  4  5  1  6
  4  2  1  0
  6  4  1  0
  7  6  2  0
  8  6  1  0
  9 10  1  1
  9  8  1  0
 10 11  1  0
 11 12  1  0
 13 14  1  0
 13 12  1  0
 15  9  1  0
 16 15  2  0
 17 15  1  0
 18 17  1  0
 19 20  1  0
 19 18  1  0
 20 21  1  0
 21 17  1  0
 22 24  1  0
 21 22  1  1
 23 22  2  0
M  END
$$$$
