VKP.pdb
     RDKit          3D

 24 24  0  0  1  0  0  0  0  0999 V2000
    9.2571  -12.8098   20.7751 C   0  0  0  0  0  0  0  0  0  0  0  0
    8.2416  -13.3711   19.8015 C   0  0  2  0  0  0  0  0  0  0  0  0
    6.9568  -12.5916   20.0154 C   0  0  0  0  0  0  0  0  0  0  0  0
    8.0528  -14.8277   20.1305 C   0  0  2  0  0  0  0  0  0  0  0  0
    7.1471  -15.3854   19.1451 N   0  0  0  0  0  0  0  0  0  0  0  0
    7.5149  -15.0113   21.5130 C   0  0  0  0  0  0  0  0  0  0  0  0
    6.2817  -14.9023   21.7573 O   0  0  0  0  0  0  0  0  0  0  0  0
    8.3439  -15.3129   22.6085 N   0  0  0  0  0  0  0  0  0  0  0  0
    7.7422  -15.7095   23.9383 C   0  0  1  0  0  0  0  0  0  0  0  0
    7.8070  -17.1970   23.8486 C   0  0  0  0  0  0  0  0  0  0  0  0
    6.9725  -18.0864   24.6560 C   0  0  0  0  0  0  0  0  0  0  0  0
    7.1878  -19.5442   24.6182 C   0  0  0  0  0  0  0  0  0  0  0  0
    6.1969  -20.2131   25.5979 C   0  0  0  0  0  0  0  0  0  0  0  0
    6.2926  -21.6393   25.4428 N   0  0  0  0  0  0  0  0  0  0  0  0
    8.5295  -15.0914   24.9978 C   0  0  0  0  0  0  0  0  0  0  0  0
    9.6676  -15.5797   25.2084 O   0  0  0  0  0  0  0  0  0  0  0  0
    8.0962  -13.9953   25.7692 N   0  0  0  0  0  0  0  0  0  0  0  0
    7.0927  -13.0776   25.2802 C   0  0  0  0  0  0  0  0  0  0  0  0
    6.3725  -12.6399   26.5164 C   0  0  0  0  0  0  0  0  0  0  0  0
    7.1609  -13.1241   27.6867 C   0  0  0  0  0  0  0  0  0  0  0  0
    8.5114  -13.5596   27.0401 C   0  0  1  0  0  0  0  0  0  0  0  0
    9.1366  -14.5014   27.9593 C   0  0  0  0  0  0  0  0  0  0  0  0
    8.9148  -15.7089   27.9724 O   0  0  0  0  0  0  0  0  0  0  0  0
   10.0491  -13.9805   28.8831 O   0  0  0  0  0  0  0  0  0  0  0  0
  2  1  1  1
  2  3  1  0
  4  5  1  6
  4  2  1  0
  6  4  1  0
  7  6  2  0
  8  6  1  0
  9 10  1  1
  9  8  1  0
 10 11  1  0
 11 12  1  0
 13 14  1  0
 13 12  1  0
 15  9  1  0
 16 15  2  0
 17 15  1  0
 18 17  1  0
 19 20  1  0
 19 18  1  0
 20 21  1  0
 21 17  1  0
 22 24  1  0
 21 22  1  1
 23 22  2  0
M  END
$$$$
