VKP.pdb
     RDKit          3D

 24 24  0  0  1  0  0  0  0  0999 V2000
    8.4452  -13.3347   18.4446 C   0  0  0  0  0  0  0  0  0  0  0  0
    7.6371  -13.5914   19.6998 C   0  0  2  0  0  0  0  0  0  0  0  0
    8.0266  -12.5141   20.6958 C   0  0  0  0  0  0  0  0  0  0  0  0
    8.0080  -14.9588   20.2079 C   0  0  2  0  0  0  0  0  0  0  0  0
    7.5112  -15.9303   19.2531 N   0  0  0  0  0  0  0  0  0  0  0  0
    7.4407  -15.2098   21.5678 C   0  0  0  0  0  0  0  0  0  0  0  0
    6.2437  -15.5781   21.7219 O   0  0  0  0  0  0  0  0  0  0  0  0
    8.2008  -15.0515   22.7407 N   0  0  0  0  0  0  0  0  0  0  0  0
    7.6121  -15.4038   24.0886 C   0  0  1  0  0  0  0  0  0  0  0  0
    7.6232  -16.8940   24.0242 C   0  0  0  0  0  0  0  0  0  0  0  0
    7.2335  -17.7482   25.1457 C   0  0  0  0  0  0  0  0  0  0  0  0
    7.3838  -19.2116   25.0519 C   0  0  0  0  0  0  0  0  0  0  0  0
    6.8310  -19.8467   26.3482 C   0  0  0  0  0  0  0  0  0  0  0  0
    6.9401  -21.2763   26.2399 N   0  0  0  0  0  0  0  0  0  0  0  0
    8.4413  -14.7956   25.1216 C   0  0  0  0  0  0  0  0  0  0  0  0
    9.5432  -15.3515   25.3557 O   0  0  0  0  0  0  0  0  0  0  0  0
    8.0854  -13.6396   25.8434 N   0  0  0  0  0  0  0  0  0  0  0  0
    7.1177  -12.6971   25.3302 C   0  0  0  0  0  0  0  0  0  0  0  0
    6.4539  -12.1582   26.5580 C   0  0  0  0  0  0  0  0  0  0  0  0
    7.2473  -12.6217   27.7335 C   0  0  0  0  0  0  0  0  0  0  0  0
    8.5560  -13.1607   27.0791 C   0  0  1  0  0  0  0  0  0  0  0  0
    9.1562  -14.0849   28.0321 C   0  0  0  0  0  0  0  0  0  0  0  0
    9.0148  -15.3041   27.9993 O   0  0  0  0  0  0  0  0  0  0  0  0
    9.9443  -13.5317   29.0471 O   0  0  0  0  0  0  0  0  0  0  0  0
  2  1  1  6
  2  3  1  0
  4  5  1  6
  4  2  1  0
  6  4  1  0
  7  6  2  0
  8  6  1  0
  9 10  1  1
  9  8  1  0
 10 11  1  0
 11 12  1  0
 13 14  1  0
 13 12  1  0
 15  9  1  0
 16 15  2  0
 17 15  1  0
 18 17  1  0
 19 20  1  0
 19 18  1  0
 20 21  1  0
 21 17  1  0
 22 24  1  0
 21 22  1  1
 23 22  2  0
M  END
$$$$
