VKP.pdb
     RDKit          3D

 24 24  0  0  1  0  0  0  0  0999 V2000
    8.2357  -13.2338   18.7797 C   0  0  0  0  0  0  0  0  0  0  0  0
    7.6013  -13.5063   20.1278 C   0  0  2  0  0  0  0  0  0  0  0  0
    8.2342  -12.5377   21.1103 C   0  0  0  0  0  0  0  0  0  0  0  0
    7.9116  -14.9323   20.4966 C   0  0  2  0  0  0  0  0  0  0  0  0
    7.2444  -15.7884   19.5353 N   0  0  0  0  0  0  0  0  0  0  0  0
    7.4673  -15.2467   21.8887 C   0  0  0  0  0  0  0  0  0  0  0  0
    6.2521  -15.4529   22.1591 O   0  0  0  0  0  0  0  0  0  0  0  0
    8.3689  -15.3297   22.9651 N   0  0  0  0  0  0  0  0  0  0  0  0
    7.8872  -15.7437   24.3378 C   0  0  1  0  0  0  0  0  0  0  0  0
    7.6194  -17.1949   24.1206 C   0  0  0  0  0  0  0  0  0  0  0  0
    7.2048  -18.1028   25.1897 C   0  0  0  0  0  0  0  0  0  0  0  0
    7.0322  -19.5413   24.9173 C   0  0  0  0  0  0  0  0  0  0  0  0
    6.5361  -20.2302   26.2090 C   0  0  0  0  0  0  0  0  0  0  0  0
    6.1960  -21.5925   25.8993 N   0  0  0  0  0  0  0  0  0  0  0  0
    8.9279  -15.4165   25.3044 C   0  0  0  0  0  0  0  0  0  0  0  0
    9.9245  -16.1806   25.3356 O   0  0  0  0  0  0  0  0  0  0  0  0
    8.8807  -14.3094   26.1740 N   0  0  0  0  0  0  0  0  0  0  0  0
    8.0608  -13.1555   25.8833 C   0  0  0  0  0  0  0  0  0  0  0  0
    7.6505  -12.6564   27.2328 C   0  0  0  0  0  0  0  0  0  0  0  0
    8.4643  -13.3898   28.2456 C   0  0  0  0  0  0  0  0  0  0  0  0
    9.5663  -14.0719   27.3787 C   0  0  1  0  0  0  0  0  0  0  0  0
   10.0792  -15.1947   28.1527 C   0  0  0  0  0  0  0  0  0  0  0  0
    9.6674  -16.3475   28.0590 O   0  0  0  0  0  0  0  0  0  0  0  0
   11.1104  -14.9261   29.0593 O   0  0  0  0  0  0  0  0  0  0  0  0
  2  1  1  6
  2  3  1  0
  4  5  1  6
  4  2  1  0
  6  4  1  0
  7  6  2  0
  8  6  1  0
  9 10  1  6
  9  8  1  0
 10 11  1  0
 11 12  1  0
 13 14  1  0
 13 12  1  0
 15  9  1  0
 16 15  2  0
 17 15  1  0
 18 17  1  0
 19 20  1  0
 19 18  1  0
 20 21  1  0
 21 17  1  0
 22 24  1  0
 21 22  1  1
 23 22  2  0
M  END
$$$$
