VKP.pdb
     RDKit          3D

 24 24  0  0  1  0  0  0  0  0999 V2000
    8.6427  -13.0303   18.3408 C   0  0  0  0  0  0  0  0  0  0  0  0
    7.7999  -13.3476   19.5587 C   0  0  2  0  0  0  0  0  0  0  0  0
    8.2478  -12.3998   20.6566 C   0  0  0  0  0  0  0  0  0  0  0  0
    8.0677  -14.7797   19.9366 C   0  0  2  0  0  0  0  0  0  0  0  0
    7.5187  -15.6189   18.8894 N   0  0  0  0  0  0  0  0  0  0  0  0
    7.4646  -15.1181   21.2618 C   0  0  0  0  0  0  0  0  0  0  0  0
    6.2248  -15.3165   21.3872 O   0  0  0  0  0  0  0  0  0  0  0  0
    8.2365  -15.2333   22.4319 N   0  0  0  0  0  0  0  0  0  0  0  0
    7.5807  -15.5716   23.7521 C   0  0  1  0  0  0  0  0  0  0  0  0
    7.4954  -17.0577   23.6559 C   0  0  0  0  0  0  0  0  0  0  0  0
    6.9671  -17.9018   24.7272 C   0  0  0  0  0  0  0  0  0  0  0  0
    6.9808  -19.3696   24.5914 C   0  0  0  0  0  0  0  0  0  0  0  0
    6.3708  -19.9874   25.8702 C   0  0  0  0  0  0  0  0  0  0  0  0
    6.3734  -21.4187   25.7331 N   0  0  0  0  0  0  0  0  0  0  0  0
    8.4132  -15.0406   24.8244 C   0  0  0  0  0  0  0  0  0  0  0  0
    9.5034  -15.6292   25.0319 O   0  0  0  0  0  0  0  0  0  0  0  0
    8.0727  -13.9229   25.6111 N   0  0  0  0  0  0  0  0  0  0  0  0
    7.1183  -12.9394   25.1526 C   0  0  0  0  0  0  0  0  0  0  0  0
    6.4611  -12.4625   26.4092 C   0  0  0  0  0  0  0  0  0  0  0  0
    7.2473  -13.0031   27.5562 C   0  0  0  0  0  0  0  0  0  0  0  0
    8.5489  -13.5217   26.8720 C   0  0  1  0  0  0  0  0  0  0  0  0
    9.1359  -14.5070   27.7706 C   0  0  0  0  0  0  0  0  0  0  0  0
    8.9329  -15.7160   27.7023 O   0  0  0  0  0  0  0  0  0  0  0  0
    9.9860  -14.0288   28.7736 O   0  0  0  0  0  0  0  0  0  0  0  0
  2  1  1  6
  2  3  1  0
  4  5  1  6
  4  2  1  0
  6  4  1  0
  7  6  2  0
  8  6  1  0
  9 10  1  1
  9  8  1  0
 10 11  1  0
 11 12  1  0
 13 14  1  0
 13 12  1  0
 15  9  1  0
 16 15  2  0
 17 15  1  0
 18 17  1  0
 19 20  1  0
 19 18  1  0
 20 21  1  0
 21 17  1  0
 22 24  1  0
 21 22  1  1
 23 22  2  0
M  END
$$$$
