VKP.pdb
     RDKit          3D

 24 24  0  0  1  0  0  0  0  0999 V2000
    7.3369  -12.7199   20.3780 C   0  0  0  0  0  0  0  0  0  0  0  0
    8.5280  -13.6408   20.2127 C   0  0  2  0  0  0  0  0  0  0  0  0
    9.0291  -13.4532   18.7921 C   0  0  0  0  0  0  0  0  0  0  0  0
    8.0480  -15.0498   20.4363 C   0  0  2  0  0  0  0  0  0  0  0  0
    7.0598  -15.3429   19.4166 N   0  0  0  0  0  0  0  0  0  0  0  0
    7.4693  -15.2203   21.8039 C   0  0  0  0  0  0  0  0  0  0  0  0
    6.2293  -15.1099   22.0104 O   0  0  0  0  0  0  0  0  0  0  0  0
    8.2654  -15.5104   22.9266 N   0  0  0  0  0  0  0  0  0  0  0  0
    7.6382  -15.6461   24.2962 C   0  0  1  0  0  0  0  0  0  0  0  0
    7.6551  -17.1272   24.4723 C   0  0  0  0  0  0  0  0  0  0  0  0
    7.2645  -17.7916   25.7154 C   0  0  0  0  0  0  0  0  0  0  0  0
    7.3962  -19.2537   25.8492 C   0  0  0  0  0  0  0  0  0  0  0  0
    7.0139  -19.6517   27.2930 C   0  0  0  0  0  0  0  0  0  0  0  0
    6.9827  -21.0866   27.3791 N   0  0  0  0  0  0  0  0  0  0  0  0
    8.4352  -14.8741   25.2414 C   0  0  0  0  0  0  0  0  0  0  0  0
    9.5848  -15.3124   25.4949 O   0  0  0  0  0  0  0  0  0  0  0  0
    7.9986  -13.6861   25.8596 N   0  0  0  0  0  0  0  0  0  0  0  0
    6.9746  -12.8578   25.2651 C   0  0  0  0  0  0  0  0  0  0  0  0
    6.2679  -12.2599   26.4405 C   0  0  0  0  0  0  0  0  0  0  0  0
    7.0816  -12.5663   27.6529 C   0  0  0  0  0  0  0  0  0  0  0  0
    8.4277  -13.0719   27.0497 C   0  0  1  0  0  0  0  0  0  0  0  0
    9.0807  -13.8683   28.0803 C   0  0  0  0  0  0  0  0  0  0  0  0
    8.9980  -15.0900   28.1692 O   0  0  0  0  0  0  0  0  0  0  0  0
    9.8507  -13.1812   29.0249 O   0  0  0  0  0  0  0  0  0  0  0  0
  2  1  1  6
  2  3  1  0
  4  5  1  6
  4  2  1  0
  6  4  1  0
  7  6  2  0
  8  6  1  0
  9 10  1  1
  9  8  1  0
 10 11  1  0
 11 12  1  0
 13 14  1  0
 13 12  1  0
 15  9  1  0
 16 15  2  0
 17 15  1  0
 18 17  1  0
 19 20  1  0
 19 18  1  0
 20 21  1  0
 21 17  1  0
 22 24  1  0
 21 22  1  1
 23 22  2  0
M  END
$$$$
