VKP.pdb
     RDKit          3D

 24 24  0  0  1  0  0  0  0  0999 V2000
    6.6308  -13.9138   19.5860 C   0  0  0  0  0  0  0  0  0  0  0  0
    7.9124  -13.1197   19.7305 C   0  0  2  0  0  0  0  0  0  0  0  0
    8.4870  -12.9633   18.3342 C   0  0  0  0  0  0  0  0  0  0  0  0
    8.8406  -13.9107   20.6129 C   0  0  2  0  0  0  0  0  0  0  0  0
    9.1093  -15.1707   19.9478 N   0  0  0  0  0  0  0  0  0  0  0  0
    8.2478  -14.1382   21.9661 C   0  0  0  0  0  0  0  0  0  0  0  0
    7.9296  -13.1729   22.7140 O   0  0  0  0  0  0  0  0  0  0  0  0
    8.0135  -15.4274   22.4774 N   0  0  0  0  0  0  0  0  0  0  0  0
    7.3277  -15.6088   23.8132 C   0  0  1  0  0  0  0  0  0  0  0  0
    7.1665  -17.0913   23.8522 C   0  0  0  0  0  0  0  0  0  0  0  0
    6.6968  -17.8162   25.0324 C   0  0  0  0  0  0  0  0  0  0  0  0
    7.2336  -19.1529   25.3455 C   0  0  0  0  0  0  0  0  0  0  0  0
    6.6195  -19.6289   26.6817 C   0  0  0  0  0  0  0  0  0  0  0  0
    7.0215  -20.9902   26.9109 N   0  0  0  0  0  0  0  0  0  0  0  0
    8.1756  -15.0240   24.8445 C   0  0  0  0  0  0  0  0  0  0  0  0
    9.2789  -15.5883   25.0501 O   0  0  0  0  0  0  0  0  0  0  0  0
    7.8357  -13.8810   25.5943 N   0  0  0  0  0  0  0  0  0  0  0  0
    6.9130  -12.8916   25.0863 C   0  0  0  0  0  0  0  0  0  0  0  0
    6.2317  -12.3717   26.3127 C   0  0  0  0  0  0  0  0  0  0  0  0
    6.9765  -12.8982   27.4934 C   0  0  0  0  0  0  0  0  0  0  0  0
    8.2857  -13.4576   26.8576 C   0  0  1  0  0  0  0  0  0  0  0  0
    8.8294  -14.4311   27.7955 C   0  0  0  0  0  0  0  0  0  0  0  0
    8.6405  -15.6422   27.7255 O   0  0  0  0  0  0  0  0  0  0  0  0
    9.6180  -13.9381   28.8406 O   0  0  0  0  0  0  0  0  0  0  0  0
  2  1  1  6
  2  3  1  0
  4  5  1  6
  4  2  1  0
  6  4  1  0
  7  6  2  0
  8  6  1  0
  9 10  1  1
  9  8  1  0
 10 11  1  0
 11 12  1  0
 13 14  1  0
 13 12  1  0
 15  9  1  0
 16 15  2  0
 17 15  1  0
 18 17  1  0
 19 20  1  0
 19 18  1  0
 20 21  1  0
 21 17  1  0
 22 24  1  0
 21 22  1  1
 23 22  2  0
M  END
$$$$
