VKP.pdb
     RDKit          3D

 24 24  0  0  1  0  0  0  0  0999 V2000
   11.6908  -18.1887   24.8587 C   0  0  0  0  0  0  0  0  0  0  0  0
   11.1528  -18.4725   23.4716 C   0  0  2  0  0  0  0  0  0  0  0  0
   11.8995  -19.6893   22.9558 C   0  0  0  0  0  0  0  0  0  0  0  0
   11.4322  -17.2638   22.6192 C   0  0  2  0  0  0  0  0  0  0  0  0
   12.8584  -17.0091   22.6747 N   0  0  0  0  0  0  0  0  0  0  0  0
   10.6596  -16.0731   23.0879 C   0  0  0  0  0  0  0  0  0  0  0  0
   11.1232  -15.2937   23.9654 O   0  0  0  0  0  0  0  0  0  0  0  0
    9.3854  -15.7570   22.5830 N   0  0  0  0  0  0  0  0  0  0  0  0
    8.6398  -14.5429   23.0903 C   0  0  1  0  0  0  0  0  0  0  0  0
    7.7667  -14.2348   21.9208 C   0  0  0  0  0  0  0  0  0  0  0  0
    8.2830  -13.7595   20.6375 C   0  0  0  0  0  0  0  0  0  0  0  0
    7.4318  -13.7974   19.4345 C   0  0  0  0  0  0  0  0  0  0  0  0
    8.2886  -13.3930   18.2132 C   0  0  0  0  0  0  0  0  0  0  0  0
    7.4759  -13.4921   17.0312 N   0  0  0  0  0  0  0  0  0  0  0  0
    7.9589  -14.9090   24.3260 C   0  0  0  0  0  0  0  0  0  0  0  0
    7.5703  -16.0998   24.4205 O   0  0  0  0  0  0  0  0  0  0  0  0
    7.7312  -14.0225   25.3967 N   0  0  0  0  0  0  0  0  0  0  0  0
    8.3924  -12.7396   25.4685 C   0  0  0  0  0  0  0  0  0  0  0  0
    7.3983  -11.8606   26.1594 C   0  0  0  0  0  0  0  0  0  0  0  0
    6.3151  -12.7410   26.6863 C   0  0  0  0  0  0  0  0  0  0  0  0
    6.9252  -14.1685   26.5398 C   0  0  1  0  0  0  0  0  0  0  0  0
    5.8099  -15.1059   26.5238 C   0  0  0  0  0  0  0  0  0  0  0  0
    5.2815  -15.5378   25.5032 O   0  0  0  0  0  0  0  0  0  0  0  0
    5.3188  -15.5340   27.7619 O   0  0  0  0  0  0  0  0  0  0  0  0
  2  1  1  1
  2  3  1  0
  4  5  1  1
  4  2  1  0
  6  4  1  0
  7  6  2  0
  8  6  1  0
  9 10  1  6
  9  8  1  0
 10 11  1  0
 11 12  1  0
 13 14  1  0
 13 12  1  0
 15  9  1  0
 16 15  2  0
 17 15  1  0
 18 17  1  0
 19 20  1  0
 19 18  1  0
 20 21  1  0
 21 17  1  0
 22 24  1  0
 21 22  1  6
 23 22  2  0
M  END
$$$$
