VKP.pdb
     RDKit          3D

 24 24  0  0  1  0  0  0  0  0999 V2000
    6.7420  -14.3380   19.5311 C   0  0  0  0  0  0  0  0  0  0  0  0
    7.7414  -13.2423   19.8392 C   0  0  2  0  0  0  0  0  0  0  0  0
    8.3723  -12.8447   18.5170 C   0  0  0  0  0  0  0  0  0  0  0  0
    8.7683  -13.8145   20.7792 C   0  0  2  0  0  0  0  0  0  0  0  0
    9.3218  -14.9999   20.1543 N   0  0  0  0  0  0  0  0  0  0  0  0
    8.1700  -14.1431   22.1091 C   0  0  0  0  0  0  0  0  0  0  0  0
    7.6035  -13.2601   22.8102 O   0  0  0  0  0  0  0  0  0  0  0  0
    8.2042  -15.4415   22.6488 N   0  0  0  0  0  0  0  0  0  0  0  0
    7.6083  -15.7210   24.0106 C   0  0  1  0  0  0  0  0  0  0  0  0
    7.7956  -17.1978   24.1064 C   0  0  0  0  0  0  0  0  0  0  0  0
    7.6564  -17.9445   25.3563 C   0  0  0  0  0  0  0  0  0  0  0  0
    6.7482  -19.1032   25.4319 C   0  0  0  0  0  0  0  0  0  0  0  0
    6.8106  -19.6842   26.8630 C   0  0  0  0  0  0  0  0  0  0  0  0
    5.8545  -20.7532   26.9649 N   0  0  0  0  0  0  0  0  0  0  0  0
    8.3199  -14.9145   24.9942 C   0  0  0  0  0  0  0  0  0  0  0  0
    9.5301  -15.1955   25.1802 O   0  0  0  0  0  0  0  0  0  0  0  0
    7.7390  -13.8556   25.7191 N   0  0  0  0  0  0  0  0  0  0  0  0
    6.5381  -13.1957   25.2599 C   0  0  0  0  0  0  0  0  0  0  0  0
    5.8439  -12.7925   26.5224 C   0  0  0  0  0  0  0  0  0  0  0  0
    6.8016  -13.0075   27.6460 C   0  0  0  0  0  0  0  0  0  0  0  0
    8.1571  -13.2338   26.9091 C   0  0  1  0  0  0  0  0  0  0  0  0
    9.0267  -13.9502   27.8329 C   0  0  0  0  0  0  0  0  0  0  0  0
    9.8501  -13.4130   28.5683 O   0  0  0  0  0  0  0  0  0  0  0  0
    8.9036  -15.3432   27.8742 O   0  0  0  0  0  0  0  0  0  0  0  0
  2  1  1  6
  2  3  1  0
  4  5  1  6
  4  2  1  0
  6  4  1  0
  7  6  2  0
  8  6  1  0
  9 10  1  1
  9  8  1  0
 10 11  1  0
 11 12  1  0
 13 14  1  0
 13 12  1  0
 15  9  1  0
 16 15  2  0
 17 15  1  0
 18 17  1  0
 19 20  1  0
 19 18  1  0
 20 21  1  0
 21 17  1  0
 22 24  1  0
 21 22  1  1
 23 22  2  0
M  END
$$$$
