TFP.pdb
     RDKit          3D

 26 27  0  0  1  0  0  0  0  0999 V2000
   23.5162  -23.0978  -13.7348 C   0  0  0  0  0  0  0  0  0  0  0  0
   22.7342  -21.9766  -14.4246 C   0  0  1  0  0  0  0  0  0  0  0  0
   21.6275  -22.4893  -15.0641 O   0  0  0  0  0  0  0  0  0  0  0  0
   22.4022  -20.9658  -13.3554 C   0  0  2  0  0  0  0  0  0  0  0  0
   21.6794  -19.8383  -13.9454 N   0  0  0  0  0  0  0  0  0  0  0  0
   23.5488  -20.4332  -12.6277 C   0  0  0  0  0  0  0  0  0  0  0  0
   24.3293  -19.5606  -13.1474 O   0  0  0  0  0  0  0  0  0  0  0  0
   23.9269  -20.8040  -11.2957 N   0  0  0  0  0  0  0  0  0  0  0  0
   25.1949  -20.4279  -10.7100 C   0  0  1  0  0  0  0  0  0  0  0  0
   24.9528  -20.4692   -9.2098 C   0  0  0  0  0  0  0  0  0  0  0  0
   26.0922  -20.1054   -8.3831 C   0  0  0  0  0  0  0  0  0  0  0  0
   26.3392  -18.7883   -8.0529 C   0  0  0  0  0  0  0  0  0  0  0  0
   27.4233  -18.5208   -7.2523 C   0  0  0  0  0  0  0  0  0  0  0  0
   28.2667  -19.5146   -6.7709 C   0  0  0  0  0  0  0  0  0  0  0  0
   28.0134  -20.8233   -7.1047 C   0  0  0  0  0  0  0  0  0  0  0  0
   26.9312  -21.0966   -7.9046 C   0  0  0  0  0  0  0  0  0  0  0  0
   26.3708  -21.1540  -11.1481 C   0  0  0  0  0  0  0  0  0  0  0  0
   26.2427  -22.4555  -11.1487 O   0  0  0  0  0  0  0  0  0  0  0  0
   27.6288  -20.7280  -11.5734 N   0  0  0  0  0  0  0  0  0  0  0  0
   28.1637  -19.3913  -11.6073 C   0  0  0  0  0  0  0  0  0  0  0  0
   28.5912  -19.3254  -13.0877 C   0  0  0  0  0  0  0  0  0  0  0  0
   29.2217  -20.7008  -13.2545 C   0  0  0  0  0  0  0  0  0  0  0  0
   28.7288  -21.5420  -12.1085 C   0  0  1  0  0  0  0  0  0  0  0  0
   29.7926  -21.7494  -11.0987 C   0  0  0  0  0  0  0  0  0  0  0  0
   30.8397  -22.6649  -11.2640 O   0  0  0  0  0  0  0  0  0  0  0  0
   29.8148  -21.1041  -10.0199 O   0  0  0  0  0  0  0  0  0  0  0  0
  2  1  1  1
  3  2  1  0
  4  6  1  0
  4  2  1  0
  4  5  1  6
  6  8  1  0
  7  6  2  0
  8  9  1  0
  9 10  1  1
 11 16  1  0
 11 10  1  0
 12 11  2  0
 13 14  2  0
 13 12  1  0
 14 15  1  0
 15 16  2  0
 17 18  2  0
 17  9  1  0
 19 17  1  0
 20 21  1  0
 20 19  1  0
 21 22  1  0
 22 23  1  0
 23 19  1  0
 23 24  1  1
 25 24  1  0
 26 24  2  0
M  END
$$$$
