TFP.pdb
     RDKit          3D

 26 27  0  0  1  0  0  0  0  0999 V2000
   18.1080  -11.7931  -18.9612 C   0  0  0  0  0  0  0  0  0  0  0  0
   18.0241  -13.0009  -18.0237 C   0  0  1  0  0  0  0  0  0  0  0  0
   17.9268  -14.1656  -18.7524 O   0  0  0  0  0  0  0  0  0  0  0  0
   19.2431  -12.9405  -17.1376 C   0  0  2  0  0  0  0  0  0  0  0  0
   19.2971  -14.1294  -16.2858 N   0  0  0  0  0  0  0  0  0  0  0  0
   19.3263  -11.7664  -16.2760 C   0  0  0  0  0  0  0  0  0  0  0  0
   18.4136  -11.4945  -15.4193 O   0  0  0  0  0  0  0  0  0  0  0  0
   20.3960  -10.8123  -16.2803 N   0  0  0  0  0  0  0  0  0  0  0  0
   20.3393   -9.5713  -15.5394 C   0  0  1  0  0  0  0  0  0  0  0  0
   21.7597   -9.3548  -15.0429 C   0  0  0  0  0  0  0  0  0  0  0  0
   22.0139   -8.0657  -14.4201 C   0  0  0  0  0  0  0  0  0  0  0  0
   22.4745   -6.9966  -15.1614 C   0  0  0  0  0  0  0  0  0  0  0  0
   22.6742   -5.8036  -14.5097 C   0  0  0  0  0  0  0  0  0  0  0  0
   22.4323   -5.6383  -13.1514 C   0  0  0  0  0  0  0  0  0  0  0  0
   21.9738   -6.7082  -12.4210 C   0  0  0  0  0  0  0  0  0  0  0  0
   21.7724   -7.9031  -13.0671 C   0  0  0  0  0  0  0  0  0  0  0  0
   19.7560   -8.4244  -16.2073 C   0  0  0  0  0  0  0  0  0  0  0  0
   20.1088   -8.2806  -17.4582 O   0  0  0  0  0  0  0  0  0  0  0  0
   18.8808   -7.4313  -15.7682 N   0  0  0  0  0  0  0  0  0  0  0  0
   18.3076   -7.2495  -14.4596 C   0  0  0  0  0  0  0  0  0  0  0  0
   16.8143   -7.1929  -14.8412 C   0  0  0  0  0  0  0  0  0  0  0  0
   16.8789   -6.3087  -16.0785 C   0  0  0  0  0  0  0  0  0  0  0  0
   18.3109   -6.3187  -16.5404 C   0  0  1  0  0  0  0  0  0  0  0  0
   18.9849   -5.0376  -16.2262 C   0  0  0  0  0  0  0  0  0  0  0  0
   18.6967   -3.8366  -16.8867 O   0  0  0  0  0  0  0  0  0  0  0  0
   19.8672   -4.9562  -15.3342 O   0  0  0  0  0  0  0  0  0  0  0  0
  2  1  1  6
  3  2  1  0
  4  6  1  0
  4  2  1  0
  4  5  1  1
  6  8  1  0
  7  6  2  0
  8  9  1  0
  9 10  1  6
 11 16  1  0
 11 10  1  0
 12 11  2  0
 13 14  2  0
 13 12  1  0
 14 15  1  0
 15 16  2  0
 17 18  2  0
 17  9  1  0
 19 17  1  0
 20 21  1  0
 20 19  1  0
 21 22  1  0
 22 23  1  0
 23 19  1  0
 23 24  1  1
 25 24  1  0
 26 24  2  0
M  END
$$$$
