TFP.pdb
     RDKit          3D

 26 27  0  0  1  0  0  0  0  0999 V2000
   26.5965  -20.0895  -18.7908 C   0  0  0  0  0  0  0  0  0  0  0  0
   27.7750  -21.0164  -19.1018 C   0  0  1  0  0  0  0  0  0  0  0  0
   28.4203  -20.6017  -20.2457 O   0  0  0  0  0  0  0  0  0  0  0  0
   28.6542  -21.0168  -17.8763 C   0  0  2  0  0  0  0  0  0  0  0  0
   29.7882  -21.9193  -18.0792 N   0  0  0  0  0  0  0  0  0  0  0  0
   27.9897  -21.4019  -16.6361 C   0  0  0  0  0  0  0  0  0  0  0  0
   27.6150  -22.6076  -16.4199 O   0  0  0  0  0  0  0  0  0  0  0  0
   27.6879  -20.5158  -15.5506 N   0  0  0  0  0  0  0  0  0  0  0  0
   26.9011  -20.9210  -14.4066 C   0  0  1  0  0  0  0  0  0  0  0  0
   27.4809  -20.1334  -13.2428 C   0  0  0  0  0  0  0  0  0  0  0  0
   26.7766  -20.2772  -11.9789 C   0  0  0  0  0  0  0  0  0  0  0  0
   25.6244  -19.5622  -11.7218 C   0  0  0  0  0  0  0  0  0  0  0  0
   25.0017  -19.7631  -10.5136 C   0  0  0  0  0  0  0  0  0  0  0  0
   25.4839  -20.6473   -9.5564 C   0  0  0  0  0  0  0  0  0  0  0  0
   26.6317  -21.3551   -9.8206 C   0  0  0  0  0  0  0  0  0  0  0  0
   27.2584  -21.1583  -11.0266 C   0  0  0  0  0  0  0  0  0  0  0  0
   25.4590  -20.8372  -14.5284 C   0  0  0  0  0  0  0  0  0  0  0  0
   25.0175  -19.7274  -15.0610 O   0  0  0  0  0  0  0  0  0  0  0  0
   24.4379  -21.7218  -14.1822 N   0  0  0  0  0  0  0  0  0  0  0  0
   24.5315  -22.9760  -13.4805 C   0  0  0  0  0  0  0  0  0  0  0  0
   23.8082  -23.8884  -14.4920 C   0  0  0  0  0  0  0  0  0  0  0  0
   22.6346  -22.9986  -14.8763 C   0  0  0  0  0  0  0  0  0  0  0  0
   23.0000  -21.6000  -14.4589 C   0  0  1  0  0  0  0  0  0  0  0  0
   22.2473  -21.1863  -13.2519 C   0  0  0  0  0  0  0  0  0  0  0  0
   22.7905  -21.2162  -11.9612 O   0  0  0  0  0  0  0  0  0  0  0  0
   21.0601  -20.7786  -13.3208 O   0  0  0  0  0  0  0  0  0  0  0  0
  2  1  1  1
  3  2  1  0
  4  6  1  0
  4  2  1  0
  4  5  1  6
  6  8  1  0
  7  6  2  0
  8  9  1  0
  9 10  1  1
 11 16  1  0
 11 10  1  0
 12 11  2  0
 13 14  2  0
 13 12  1  0
 14 15  1  0
 15 16  2  0
 17 18  2  0
 17  9  1  0
 19 17  1  0
 20 21  1  0
 20 19  1  0
 21 22  1  0
 22 23  1  0
 23 19  1  0
 23 24  1  1
 25 24  1  0
 26 24  2  0
M  END
$$$$
