TFP.pdb
     RDKit          3D

 26 27  0  0  1  0  0  0  0  0999 V2000
   24.0959  -19.8260  -13.7810 C   0  0  0  0  0  0  0  0  0  0  0  0
   24.2499  -20.3070  -12.3354 C   0  0  1  0  0  0  0  0  0  0  0  0
   23.3926  -21.3558  -12.0868 O   0  0  0  0  0  0  0  0  0  0  0  0
   25.7055  -20.6581  -12.1539 C   0  0  2  0  0  0  0  0  0  0  0  0
   26.0450  -21.8132  -12.9860 N   0  0  0  0  0  0  0  0  0  0  0  0
   26.1051  -20.9585  -10.7836 C   0  0  0  0  0  0  0  0  0  0  0  0
   26.1828  -22.1627  -10.3540 O   0  0  0  0  0  0  0  0  0  0  0  0
   26.4474  -19.9836   -9.7901 N   0  0  0  0  0  0  0  0  0  0  0  0
   26.6435  -20.3224   -8.3976 C   0  0  1  0  0  0  0  0  0  0  0  0
   27.6307  -19.2862   -7.8851 C   0  0  0  0  0  0  0  0  0  0  0  0
   28.0654  -19.4647   -6.5092 C   0  0  0  0  0  0  0  0  0  0  0  0
   28.9902  -20.4335   -6.1759 C   0  0  0  0  0  0  0  0  0  0  0  0
   29.3685  -20.5321   -4.8587 C   0  0  0  0  0  0  0  0  0  0  0  0
   28.8605  -19.7035   -3.8658 C   0  0  0  0  0  0  0  0  0  0  0  0
   27.9402  -18.7416   -4.2065 C   0  0  0  0  0  0  0  0  0  0  0  0
   27.5583  -18.6385   -5.5216 C   0  0  0  0  0  0  0  0  0  0  0  0
   25.4578  -20.4781   -7.5781 C   0  0  0  0  0  0  0  0  0  0  0  0
   24.4686  -19.6811   -7.8883 O   0  0  0  0  0  0  0  0  0  0  0  0
   25.1643  -21.3235   -6.5084 N   0  0  0  0  0  0  0  0  0  0  0  0
   26.0405  -22.2247   -5.8053 C   0  0  0  0  0  0  0  0  0  0  0  0
   25.2275  -23.5282   -5.9409 C   0  0  0  0  0  0  0  0  0  0  0  0
   23.8250  -23.0098   -5.6559 C   0  0  0  0  0  0  0  0  0  0  0  0
   23.8740  -21.5164   -5.8326 C   0  0  1  0  0  0  0  0  0  0  0  0
   23.8355  -20.8199   -4.5257 C   0  0  0  0  0  0  0  0  0  0  0  0
   22.6622  -20.6534   -3.7791 O   0  0  0  0  0  0  0  0  0  0  0  0
   24.8711  -20.3321   -4.0059 O   0  0  0  0  0  0  0  0  0  0  0  0
  2  1  1  6
  3  2  1  0
  4  6  1  0
  4  2  1  0
  4  5  1  6
  6  8  1  0
  7  6  2  0
  8  9  1  0
  9 10  1  1
 11 16  1  0
 11 10  1  0
 12 11  2  0
 13 14  2  0
 13 12  1  0
 14 15  1  0
 15 16  2  0
 17 18  2  0
 17  9  1  0
 19 17  1  0
 20 21  1  0
 20 19  1  0
 21 22  1  0
 22 23  1  0
 23 19  1  0
 23 24  1  1
 25 24  1  0
 26 24  2  0
M  END
$$$$
