TFP.pdb
     RDKit          3D

 26 27  0  0  1  0  0  0  0  0999 V2000
   20.1015  -10.3125  -20.9543 C   0  0  0  0  0  0  0  0  0  0  0  0
   19.5432  -11.6153  -20.3748 C   0  0  1  0  0  0  0  0  0  0  0  0
   19.6422  -12.6309  -21.2997 O   0  0  0  0  0  0  0  0  0  0  0  0
   20.3067  -11.8790  -19.1010 C   0  0  2  0  0  0  0  0  0  0  0  0
   19.9213  -13.1795  -18.5515 N   0  0  0  0  0  0  0  0  0  0  0  0
   20.1310  -10.8788  -18.0539 C   0  0  0  0  0  0  0  0  0  0  0  0
   19.0103  -10.7230  -17.4535 O   0  0  0  0  0  0  0  0  0  0  0  0
   21.1491   -9.9849  -17.5858 N   0  0  0  0  0  0  0  0  0  0  0  0
   20.8838   -8.9274  -16.6352 C   0  0  1  0  0  0  0  0  0  0  0  0
   22.0162   -9.0250  -15.6257 C   0  0  0  0  0  0  0  0  0  0  0  0
   22.0171   -8.0067  -14.5879 C   0  0  0  0  0  0  0  0  0  0  0  0
   22.4998   -6.7380  -14.8372 C   0  0  0  0  0  0  0  0  0  0  0  0
   22.4516   -5.8216  -13.8146 C   0  0  0  0  0  0  0  0  0  0  0  0
   21.9418   -6.1227  -12.5576 C   0  0  0  0  0  0  0  0  0  0  0  0
   21.4633   -7.3884  -12.3181 C   0  0  0  0  0  0  0  0  0  0  0  0
   21.5089   -8.3085  -13.3365 C   0  0  0  0  0  0  0  0  0  0  0  0
   20.6663   -7.5959  -17.1658 C   0  0  0  0  0  0  0  0  0  0  0  0
   21.4740   -7.2535  -18.1355 O   0  0  0  0  0  0  0  0  0  0  0  0
   19.7512   -6.5960  -16.8374 N   0  0  0  0  0  0  0  0  0  0  0  0
   18.7195   -6.6132  -15.8326 C   0  0  0  0  0  0  0  0  0  0  0  0
   17.5053   -6.2413  -16.7078 C   0  0  0  0  0  0  0  0  0  0  0  0
   18.1077   -5.1323  -17.5588 C   0  0  0  0  0  0  0  0  0  0  0  0
   19.6020   -5.2675  -17.4470 C   0  0  1  0  0  0  0  0  0  0  0  0
   20.1737   -4.2067  -16.5854 C   0  0  0  0  0  0  0  0  0  0  0  0
   20.7613   -3.0404  -17.0917 O   0  0  0  0  0  0  0  0  0  0  0  0
   20.1626   -4.2963  -15.3314 O   0  0  0  0  0  0  0  0  0  0  0  0
  2  1  1  6
  3  2  1  0
  4  6  1  0
  4  2  1  0
  4  5  1  1
  6  8  1  0
  7  6  2  0
  8  9  1  0
  9 10  1  1
 11 16  1  0
 11 10  1  0
 12 11  2  0
 13 14  2  0
 13 12  1  0
 14 15  1  0
 15 16  2  0
 17 18  2  0
 17  9  1  0
 19 17  1  0
 20 21  1  0
 20 19  1  0
 21 22  1  0
 22 23  1  0
 23 19  1  0
 23 24  1  1
 25 24  1  0
 26 24  2  0
M  END
$$$$
