QNS.pdb
     RDKit          3D

 24 23  0  0  1  0  0  0  0  0999 V2000
   16.1561  -11.8166  -15.6277 N   0  0  0  0  0  0  0  0  0  0  0  0
   16.0933  -12.0509  -17.0448 C   0  0  0  0  0  0  0  0  0  0  0  0
   15.2036  -12.8347  -17.4577 O   0  0  0  0  0  0  0  0  0  0  0  0
   17.0566  -11.3704  -17.9102 C   0  0  0  0  0  0  0  0  0  0  0  0
   17.9739  -10.4061  -17.2122 C   0  0  0  0  0  0  0  0  0  0  0  0
   19.3820  -10.8813  -17.1454 C   0  0  2  0  0  0  0  0  0  0  0  0
   19.4076  -12.1443  -16.4238 N   0  0  0  0  0  0  0  0  0  0  0  0
   20.2908   -9.9059  -16.4794 C   0  0  0  0  0  0  0  0  0  0  0  0
   20.1154   -9.6442  -15.2645 O   0  0  0  0  0  0  0  0  0  0  0  0
   24.1269   -6.5934  -15.4831 N   0  0  0  0  0  0  0  0  0  0  0  0
   24.5892   -7.4433  -16.5114 C   0  0  0  0  0  0  0  0  0  0  0  0
   25.8054   -7.3669  -16.8122 O   0  0  0  0  0  0  0  0  0  0  0  0
   23.6246   -8.3472  -17.1499 C   0  0  0  0  0  0  0  0  0  0  0  0
   22.2659   -8.3477  -16.5066 C   0  0  2  0  0  0  0  0  0  0  0  0
   21.3428   -9.2577  -17.1440 N   0  0  0  0  0  0  0  0  0  0  0  0
   21.7004   -6.9681  -16.4158 C   0  0  0  0  0  0  0  0  0  0  0  0
   21.4322   -6.2905  -17.4400 O   0  0  0  0  0  0  0  0  0  0  0  0
   19.0128   -3.6798  -14.3413 O   0  0  0  0  0  0  0  0  0  0  0  0
   19.5567   -4.9608  -14.3789 C   0  0  0  0  0  0  0  0  0  0  0  0
   20.8722   -5.0176  -15.1014 C   0  0  2  0  0  0  0  0  0  0  0  0
   21.4336   -6.3438  -15.1558 N   0  0  0  0  0  0  0  0  0  0  0  0
   21.7977   -4.0742  -14.4186 C   0  0  0  0  0  0  0  0  0  0  0  0
   22.7817   -4.4740  -13.7374 O   0  0  0  0  0  0  0  0  0  0  0  0
   21.5880   -2.7186  -14.5231 O   0  0  0  0  0  0  0  0  0  0  0  0
  1  2  1  0
  2  3  2  0
  4  2  1  0
  4  5  1  0
  6  8  1  0
  6  5  1  0
  6  7  1  1
  8 15  1  0
  9  8  2  0
 11 10  1  0
 12 11  2  0
 14 13  1  6
 13 11  1  0
 15 14  1  0
 16 21  1  0
 16 14  1  0
 17 16  2  0
 19 18  1  0
 20 19  1  1
 20 21  1  0
 22 24  1  0
 22 20  1  0
 23 22  2  0
M  END
$$$$
