QNS.pdb
     RDKit          3D

 24 23  0  0  1  0  0  0  0  0999 V2000
   26.2432  -11.8414  -16.2875 N   0  0  0  0  0  0  0  0  0  0  0  0
   25.4861  -13.0636  -16.2931 C   0  0  0  0  0  0  0  0  0  0  0  0
   26.1124  -14.1272  -16.0634 O   0  0  0  0  0  0  0  0  0  0  0  0
   24.0496  -12.9960  -16.5614 C   0  0  0  0  0  0  0  0  0  0  0  0
   23.4822  -11.6081  -16.6619 C   0  0  0  0  0  0  0  0  0  0  0  0
   22.0317  -11.5908  -16.9912 C   0  0  2  0  0  0  0  0  0  0  0  0
   21.8422  -12.2587  -18.2697 N   0  0  0  0  0  0  0  0  0  0  0  0
   21.4700  -10.2121  -17.0587 C   0  0  0  0  0  0  0  0  0  0  0  0
   21.5376   -9.5812  -18.1415 O   0  0  0  0  0  0  0  0  0  0  0  0
   17.0318   -9.8171  -15.6821 N   0  0  0  0  0  0  0  0  0  0  0  0
   17.9191   -8.9268  -16.3252 C   0  0  0  0  0  0  0  0  0  0  0  0
   17.8194   -8.8221  -17.5721 O   0  0  0  0  0  0  0  0  0  0  0  0
   18.8859   -8.1939  -15.4987 C   0  0  0  0  0  0  0  0  0  0  0  0
   20.2973   -8.2467  -16.0137 C   0  0  2  0  0  0  0  0  0  0  0  0
   20.8635   -9.5747  -15.9657 N   0  0  0  0  0  0  0  0  0  0  0  0
   21.1722   -7.2529  -15.3223 C   0  0  0  0  0  0  0  0  0  0  0  0
   21.6589   -7.4732  -14.1844 O   0  0  0  0  0  0  0  0  0  0  0  0
   23.7019   -3.0742  -15.4215 O   0  0  0  0  0  0  0  0  0  0  0  0
   22.8474   -3.9450  -16.0922 C   0  0  0  0  0  0  0  0  0  0  0  0
   22.3206   -5.0422  -15.2121 C   0  0  2  0  0  0  0  0  0  0  0  0
   21.5031   -5.9950  -15.9198 N   0  0  0  0  0  0  0  0  0  0  0  0
   21.5575   -4.4011  -14.1077 C   0  0  0  0  0  0  0  0  0  0  0  0
   20.3422   -4.0836  -14.2275 O   0  0  0  0  0  0  0  0  0  0  0  0
   22.1824   -4.1391  -12.9104 O   0  0  0  0  0  0  0  0  0  0  0  0
  1  2  1  0
  2  3  2  0
  4  2  1  0
  4  5  1  0
  6  8  1  0
  6  5  1  0
  6  7  1  6
  8 15  1  0
  9  8  2  0
 11 10  1  0
 12 11  2  0
 14 13  1  1
 13 11  1  0
 15 14  1  0
 16 21  1  0
 16 14  1  0
 17 16  2  0
 19 18  1  0
 20 19  1  6
 20 21  1  0
 22 24  1  0
 22 20  1  0
 23 22  2  0
M  END
$$$$
