EGF.pdb
     RDKit          3D

 25 25  0  0  1  0  0  0  0  0999 V2000
    4.2107  -19.5435   23.2140 N   0  0  0  0  0  0  0  0  0  0  0  0
    5.2936  -20.3108   23.7359 C   0  0  1  0  0  0  0  0  0  0  0  0
    5.4924  -21.5948   22.9767 C   0  0  0  0  0  0  0  0  0  0  0  0
    5.2150  -21.4453   21.5136 C   0  0  0  0  0  0  0  0  0  0  0  0
    5.5573  -22.6859   20.8170 C   0  0  0  0  0  0  0  0  0  0  0  0
    6.6542  -22.7876   20.2162 O   0  0  0  0  0  0  0  0  0  0  0  0
    6.5569  -19.5263   23.8392 C   0  0  0  0  0  0  0  0  0  0  0  0
    7.5720  -20.0625   24.3363 O   0  0  0  0  0  0  0  0  0  0  0  0
    4.6992  -23.7967   20.7856 O   0  0  0  0  0  0  0  0  0  0  0  0
    6.6619  -18.1840   23.3944 N   0  0  0  0  0  0  0  0  0  0  0  0
    7.4589  -17.7523   22.2927 C   0  0  0  0  0  0  0  0  0  0  0  0
    8.3046  -16.5695   22.6155 C   0  0  0  0  0  0  0  0  0  0  0  0
    9.0735  -16.1385   21.7240 O   0  0  0  0  0  0  0  0  0  0  0  0
    8.2685  -15.9255   23.8794 N   0  0  0  0  0  0  0  0  0  0  0  0
    9.3569  -15.0767   24.3670 C   0  0  1  0  0  0  0  0  0  0  0  0
    9.0064  -13.6375   24.3116 C   0  0  0  0  0  0  0  0  0  0  0  0
    7.9733  -13.3065   25.3033 C   0  0  0  0  0  0  0  0  0  0  0  0
    6.6238  -13.4405   24.9567 C   0  0  0  0  0  0  0  0  0  0  0  0
    5.6104  -13.1723   25.8523 C   0  0  0  0  0  0  0  0  0  0  0  0
    5.9123  -12.7527   27.1504 C   0  0  0  0  0  0  0  0  0  0  0  0
    7.2257  -12.6183   27.5001 C   0  0  0  0  0  0  0  0  0  0  0  0
    8.2065  -12.8893   26.5978 C   0  0  0  0  0  0  0  0  0  0  0  0
    9.8078  -15.4759   25.6948 C   0  0  0  0  0  0  0  0  0  0  0  0
    9.0942  -16.1704   26.4509 O   0  0  0  0  0  0  0  0  0  0  0  0
   11.0571  -15.1177   26.2191 O   0  0  0  0  0  0  0  0  0  0  0  0
  2  1  1  6
  2  3  1  0
  2  7  1  0
  3  4  1  0
  4  5  1  0
  5  6  2  0
  5  9  1  0
  7 10  1  0
  7  8  2  0
 10 11  1  0
 11 12  1  0
 12 14  1  0
 13 12  2  0
 14 15  1  0
 15 23  1  0
 16 17  1  0
 15 16  1  1
 17 22  2  0
 18 19  2  0
 18 17  1  0
 19 20  1  0
 20 21  2  0
 22 21  1  0
 23 24  2  0
 23 25  1  0
M  END
$$$$
