EGF.pdb
     RDKit          3D

 25 25  0  0  1  0  0  0  0  0999 V2000
    4.6526  -18.0758   23.6179 N   0  0  0  0  0  0  0  0  0  0  0  0
    5.4722  -19.1070   23.0714 C   0  0  1  0  0  0  0  0  0  0  0  0
    4.6641  -20.1328   22.3236 C   0  0  0  0  0  0  0  0  0  0  0  0
    3.3504  -19.5946   21.8499 C   0  0  0  0  0  0  0  0  0  0  0  0
    2.6386  -20.6252   21.0932 C   0  0  0  0  0  0  0  0  0  0  0  0
    2.8925  -20.8003   19.8769 O   0  0  0  0  0  0  0  0  0  0  0  0
    6.5926  -18.5739   22.2454 C   0  0  0  0  0  0  0  0  0  0  0  0
    7.5846  -19.3009   22.0164 O   0  0  0  0  0  0  0  0  0  0  0  0
    1.6610  -21.4492   21.6731 O   0  0  0  0  0  0  0  0  0  0  0  0
    6.5854  -17.2648   21.7007 N   0  0  0  0  0  0  0  0  0  0  0  0
    6.6037  -16.0636   22.4702 C   0  0  0  0  0  0  0  0  0  0  0  0
    7.9305  -15.7902   23.0894 C   0  0  0  0  0  0  0  0  0  0  0  0
    8.9310  -15.7469   22.3352 O   0  0  0  0  0  0  0  0  0  0  0  0
    8.0954  -15.5806   24.4831 N   0  0  0  0  0  0  0  0  0  0  0  0
    9.4013  -15.3373   25.0981 C   0  0  1  0  0  0  0  0  0  0  0  0
    9.5978  -13.9079   25.4376 C   0  0  0  0  0  0  0  0  0  0  0  0
    8.3335  -13.2852   25.8553 C   0  0  0  0  0  0  0  0  0  0  0  0
    7.2490  -13.2777   24.9704 C   0  0  0  0  0  0  0  0  0  0  0  0
    6.0298  -12.7339   25.3152 C   0  0  0  0  0  0  0  0  0  0  0  0
    5.8449  -12.1674   26.5790 C   0  0  0  0  0  0  0  0  0  0  0  0
    6.8961  -12.1691   27.4510 C   0  0  0  0  0  0  0  0  0  0  0  0
    8.0885  -12.7119   27.0863 C   0  0  0  0  0  0  0  0  0  0  0  0
    9.6349  -16.2059   26.2457 C   0  0  0  0  0  0  0  0  0  0  0  0
   10.7072  -16.1735   26.8879 O   0  0  0  0  0  0  0  0  0  0  0  0
    8.6902  -17.1305   26.7111 O   0  0  0  0  0  0  0  0  0  0  0  0
  2  1  1  6
  2  3  1  0
  2  7  1  0
  3  4  1  0
  4  5  1  0
  5  6  2  0
  5  9  1  0
  7 10  1  0
  7  8  2  0
 10 11  1  0
 11 12  1  0
 12 14  1  0
 13 12  2  0
 14 15  1  0
 15 23  1  0
 16 17  1  0
 15 16  1  1
 17 22  2  0
 18 19  2  0
 18 17  1  0
 19 20  1  0
 20 21  2  0
 22 21  1  0
 23 24  2  0
 23 25  1  0
M  END
$$$$
