EGF.pdb
     RDKit          3D

 25 25  0  0  1  0  0  0  0  0999 V2000
    8.1551  -17.7831   21.6438 N   0  0  0  0  0  0  0  0  0  0  0  0
    9.4500  -18.3745   21.7301 C   0  0  1  0  0  0  0  0  0  0  0  0
    9.9202  -18.8987   20.4003 C   0  0  0  0  0  0  0  0  0  0  0  0
    9.6341  -17.9525   19.2766 C   0  0  0  0  0  0  0  0  0  0  0  0
   10.2182  -18.4667   18.0372 C   0  0  0  0  0  0  0  0  0  0  0  0
    9.6003  -18.3428   16.9522 O   0  0  0  0  0  0  0  0  0  0  0  0
   10.4550  -17.4691   22.3562 C   0  0  0  0  0  0  0  0  0  0  0  0
   11.6381  -17.8574   22.4770 O   0  0  0  0  0  0  0  0  0  0  0  0
   11.4665  -19.1080   17.9990 O   0  0  0  0  0  0  0  0  0  0  0  0
   10.1276  -16.1722   22.8268 N   0  0  0  0  0  0  0  0  0  0  0  0
   11.0695  -15.2310   23.3388 C   0  0  0  0  0  0  0  0  0  0  0  0
   11.1584  -15.2478   24.8255 C   0  0  0  0  0  0  0  0  0  0  0  0
   12.2647  -14.9766   25.3492 O   0  0  0  0  0  0  0  0  0  0  0  0
   10.0488  -15.5559   25.6546 N   0  0  0  0  0  0  0  0  0  0  0  0
   10.1385  -15.5955   27.1151 C   0  0  1  0  0  0  0  0  0  0  0  0
    9.6502  -14.3412   27.7358 C   0  0  0  0  0  0  0  0  0  0  0  0
    8.4490  -13.8445   27.0495 C   0  0  0  0  0  0  0  0  0  0  0  0
    8.4781  -12.5816   26.4467 C   0  0  0  0  0  0  0  0  0  0  0  0
    7.3928  -12.0735   25.7647 C   0  0  0  0  0  0  0  0  0  0  0  0
    6.2172  -12.8209   25.6575 C   0  0  0  0  0  0  0  0  0  0  0  0
    6.1771  -14.0548   26.2418 C   0  0  0  0  0  0  0  0  0  0  0  0
    7.2615  -14.5330   26.9088 C   0  0  0  0  0  0  0  0  0  0  0  0
    9.4781  -16.7704   27.6712 C   0  0  0  0  0  0  0  0  0  0  0  0
    8.7842  -17.5322   26.9629 O   0  0  0  0  0  0  0  0  0  0  0  0
    9.5681  -17.1320   29.0221 O   0  0  0  0  0  0  0  0  0  0  0  0
  2  1  1  6
  2  3  1  0
  2  7  1  0
  3  4  1  0
  4  5  1  0
  5  6  2  0
  5  9  1  0
  7 10  1  0
  7  8  2  0
 10 11  1  0
 11 12  1  0
 12 14  1  0
 13 12  2  0
 14 15  1  0
 15 23  1  0
 16 17  1  0
 15 16  1  1
 17 22  2  0
 18 19  2  0
 18 17  1  0
 19 20  1  0
 20 21  2  0
 22 21  1  0
 23 24  2  0
 23 25  1  0
M  END
$$$$
