EGF.pdb
     RDKit          3D

 25 25  0  0  1  0  0  0  0  0999 V2000
    7.4009  -17.7586   21.0016 N   0  0  0  0  0  0  0  0  0  0  0  0
    8.4072  -17.3554   20.0750 C   0  0  1  0  0  0  0  0  0  0  0  0
    7.8327  -16.5789   18.9211 C   0  0  0  0  0  0  0  0  0  0  0  0
    7.7902  -17.3776   17.6561 C   0  0  0  0  0  0  0  0  0  0  0  0
    8.3433  -16.5883   16.5550 C   0  0  0  0  0  0  0  0  0  0  0  0
    9.5387  -16.2084   16.5921 O   0  0  0  0  0  0  0  0  0  0  0  0
    9.5319  -16.6272   20.7283 C   0  0  0  0  0  0  0  0  0  0  0  0
   10.5055  -16.2559   20.0360 O   0  0  0  0  0  0  0  0  0  0  0  0
    7.5856  -16.2249   15.4303 O   0  0  0  0  0  0  0  0  0  0  0  0
    9.5489  -16.3326   22.1152 N   0  0  0  0  0  0  0  0  0  0  0  0
   10.6009  -15.6419   22.7871 C   0  0  0  0  0  0  0  0  0  0  0  0
   10.4062  -15.5801   24.2625 C   0  0  0  0  0  0  0  0  0  0  0  0
   11.3160  -15.0621   24.9521 O   0  0  0  0  0  0  0  0  0  0  0  0
    9.2425  -16.0806   24.9020 N   0  0  0  0  0  0  0  0  0  0  0  0
    9.1051  -16.1458   26.3578 C   0  0  1  0  0  0  0  0  0  0  0  0
    7.7399  -15.7794   26.8040 C   0  0  0  0  0  0  0  0  0  0  0  0
    7.3923  -14.4165   26.3771 C   0  0  0  0  0  0  0  0  0  0  0  0
    7.8611  -13.3263   27.1193 C   0  0  0  0  0  0  0  0  0  0  0  0
    7.5919  -12.0246   26.7531 C   0  0  0  0  0  0  0  0  0  0  0  0
    6.8311  -11.7584   25.6118 C   0  0  0  0  0  0  0  0  0  0  0  0
    6.3683  -12.8143   24.8795 C   0  0  0  0  0  0  0  0  0  0  0  0
    6.6480  -14.0890   25.2623 C   0  0  0  0  0  0  0  0  0  0  0  0
    9.5220  -17.4384   26.8883 C   0  0  0  0  0  0  0  0  0  0  0  0
    9.5482  -17.6679   28.1172 O   0  0  0  0  0  0  0  0  0  0  0  0
    9.9196  -18.5079   26.0748 O   0  0  0  0  0  0  0  0  0  0  0  0
  2  1  1  1
  2  3  1  0
  2  7  1  0
  3  4  1  0
  4  5  1  0
  5  6  2  0
  5  9  1  0
  7 10  1  0
  7  8  2  0
 10 11  1  0
 11 12  1  0
 12 14  1  0
 13 12  2  0
 14 15  1  0
 15 23  1  0
 16 17  1  0
 15 16  1  6
 17 22  2  0
 18 19  2  0
 18 17  1  0
 19 20  1  0
 20 21  2  0
 22 21  1  0
 23 24  2  0
 23 25  1  0
M  END
$$$$
