EGF.pdb
     RDKit          3D

 25 25  0  0  1  0  0  0  0  0999 V2000
   11.4630  -19.6750   20.2200 N   0  0  0  0  0  0  0  0  0  0  0  0
   10.6895  -18.7863   19.4163 C   0  0  1  0  0  0  0  0  0  0  0  0
    9.8880  -19.5203   18.3755 C   0  0  0  0  0  0  0  0  0  0  0  0
    8.8686  -20.4364   18.9766 C   0  0  0  0  0  0  0  0  0  0  0  0
    8.0812  -21.0638   17.9145 C   0  0  0  0  0  0  0  0  0  0  0  0
    8.3290  -22.2418   17.5604 O   0  0  0  0  0  0  0  0  0  0  0  0
    9.8382  -17.8706   20.2279 C   0  0  0  0  0  0  0  0  0  0  0  0
    9.2412  -16.9277   19.6628 O   0  0  0  0  0  0  0  0  0  0  0  0
    7.0360  -20.3981   17.2546 O   0  0  0  0  0  0  0  0  0  0  0  0
    9.6720  -18.0213   21.6280 N   0  0  0  0  0  0  0  0  0  0  0  0
    8.9192  -17.1378   22.4574 C   0  0  0  0  0  0  0  0  0  0  0  0
    9.6983  -16.6262   23.6192 C   0  0  0  0  0  0  0  0  0  0  0  0
   10.9371  -16.8192   23.6244 O   0  0  0  0  0  0  0  0  0  0  0  0
    9.0930  -15.9384   24.7028 N   0  0  0  0  0  0  0  0  0  0  0  0
    9.8624  -15.3861   25.8189 C   0  0  1  0  0  0  0  0  0  0  0  0
    9.8074  -13.9053   25.8526 C   0  0  0  0  0  0  0  0  0  0  0  0
    8.4180  -13.4291   25.9087 C   0  0  0  0  0  0  0  0  0  0  0  0
    7.6374  -13.4571   24.7471 C   0  0  0  0  0  0  0  0  0  0  0  0
    6.3200  -13.0502   24.7434 C   0  0  0  0  0  0  0  0  0  0  0  0
    5.7225  -12.5921   25.9203 C   0  0  0  0  0  0  0  0  0  0  0  0
    6.4743  -12.5603   27.0601 C   0  0  0  0  0  0  0  0  0  0  0  0
    7.7718  -12.9673   27.0370 C   0  0  0  0  0  0  0  0  0  0  0  0
    9.4724  -15.9740   27.0950 C   0  0  0  0  0  0  0  0  0  0  0  0
   10.0813  -15.7098   28.1546 O   0  0  0  0  0  0  0  0  0  0  0  0
    8.4011  -16.8671   27.2311 O   0  0  0  0  0  0  0  0  0  0  0  0
  2  1  1  1
  2  3  1  0
  2  7  1  0
  3  4  1  0
  4  5  1  0
  5  6  2  0
  5  9  1  0
  7 10  1  0
  7  8  2  0
 10 11  1  0
 11 12  1  0
 12 14  1  0
 13 12  2  0
 14 15  1  0
 15 23  1  0
 16 17  1  0
 15 16  1  1
 17 22  2  0
 18 19  2  0
 18 17  1  0
 19 20  1  0
 20 21  2  0
 22 21  1  0
 23 24  2  0
 23 25  1  0
M  END
$$$$
