EGF.pdb
     RDKit          3D

 25 25  0  0  1  0  0  0  0  0999 V2000
    7.6077  -18.3141   20.4728 N   0  0  0  0  0  0  0  0  0  0  0  0
    9.0238  -18.4801   20.4431 C   0  0  1  0  0  0  0  0  0  0  0  0
    9.5372  -18.6937   19.0448 C   0  0  0  0  0  0  0  0  0  0  0  0
    9.1469  -17.5879   18.1148 C   0  0  0  0  0  0  0  0  0  0  0  0
    9.6542  -17.8703   16.7715 C   0  0  0  0  0  0  0  0  0  0  0  0
    9.0112  -18.6250   16.0025 O   0  0  0  0  0  0  0  0  0  0  0  0
    9.7468  -17.3766   21.1368 C   0  0  0  0  0  0  0  0  0  0  0  0
   10.9858  -17.4570   21.2896 O   0  0  0  0  0  0  0  0  0  0  0  0
   10.8541  -17.3261   16.2867 O   0  0  0  0  0  0  0  0  0  0  0  0
    9.0865  -16.2259   21.6375 N   0  0  0  0  0  0  0  0  0  0  0  0
    9.7358  -15.1326   22.2844 C   0  0  0  0  0  0  0  0  0  0  0  0
    9.8839  -15.3312   23.7531 C   0  0  0  0  0  0  0  0  0  0  0  0
   10.9746  -15.0090   24.2806 O   0  0  0  0  0  0  0  0  0  0  0  0
    8.8466  -15.8648   24.5611 N   0  0  0  0  0  0  0  0  0  0  0  0
    8.9618  -15.9930   26.0148 C   0  0  1  0  0  0  0  0  0  0  0  0
    7.6832  -15.6931   26.7019 C   0  0  0  0  0  0  0  0  0  0  0  0
    7.2582  -14.3093   26.4474 C   0  0  0  0  0  0  0  0  0  0  0  0
    6.3398  -14.0528   25.4226 C   0  0  0  0  0  0  0  0  0  0  0  0
    5.8823  -12.7801   25.1546 C   0  0  0  0  0  0  0  0  0  0  0  0
    6.3328  -11.6968   25.9133 C   0  0  0  0  0  0  0  0  0  0  0  0
    7.2291  -11.9349   26.9160 C   0  0  0  0  0  0  0  0  0  0  0  0
    7.6647  -13.1999   27.1601 C   0  0  0  0  0  0  0  0  0  0  0  0
    9.4992  -17.2902   26.4077 C   0  0  0  0  0  0  0  0  0  0  0  0
    9.6394  -18.2210   25.5847 O   0  0  0  0  0  0  0  0  0  0  0  0
    9.8944  -17.5903   27.7183 O   0  0  0  0  0  0  0  0  0  0  0  0
  2  1  1  6
  2  3  1  0
  2  7  1  0
  3  4  1  0
  4  5  1  0
  5  6  2  0
  5  9  1  0
  7 10  1  0
  7  8  2  0
 10 11  1  0
 11 12  1  0
 12 14  1  0
 13 12  2  0
 14 15  1  0
 15 23  1  0
 16 17  1  0
 15 16  1  1
 17 22  2  0
 18 19  2  0
 18 17  1  0
 19 20  1  0
 20 21  2  0
 22 21  1  0
 23 24  2  0
 23 25  1  0
M  END
$$$$
