EGF.pdb
     RDKit          3D

 25 25  0  0  1  0  0  0  0  0999 V2000
    9.5828  -14.8637   19.6018 N   0  0  0  0  0  0  0  0  0  0  0  0
    8.4360  -14.6265   20.4156 C   0  0  1  0  0  0  0  0  0  0  0  0
    7.1536  -14.8867   19.6725 C   0  0  0  0  0  0  0  0  0  0  0  0
    7.3818  -15.2058   18.2282 C   0  0  0  0  0  0  0  0  0  0  0  0
    7.0758  -16.6151   17.9795 C   0  0  0  0  0  0  0  0  0  0  0  0
    7.7305  -17.2593   17.1246 O   0  0  0  0  0  0  0  0  0  0  0  0
    8.4866  -15.3647   21.7096 C   0  0  0  0  0  0  0  0  0  0  0  0
    7.6646  -15.0814   22.6091 O   0  0  0  0  0  0  0  0  0  0  0  0
    6.0611  -17.3009   18.6660 O   0  0  0  0  0  0  0  0  0  0  0  0
    9.4353  -16.3857   21.9709 N   0  0  0  0  0  0  0  0  0  0  0  0
    9.5156  -17.1298   23.1854 C   0  0  0  0  0  0  0  0  0  0  0  0
   10.2732  -16.4196   24.2531 C   0  0  0  0  0  0  0  0  0  0  0  0
   11.4552  -16.0820   24.0069 O   0  0  0  0  0  0  0  0  0  0  0  0
    9.7090  -16.1179   25.5197 N   0  0  0  0  0  0  0  0  0  0  0  0
   10.4618  -15.4510   26.5833 C   0  0  1  0  0  0  0  0  0  0  0  0
   10.4091  -13.9748   26.4595 C   0  0  0  0  0  0  0  0  0  0  0  0
    9.0263  -13.4855   26.5539 C   0  0  0  0  0  0  0  0  0  0  0  0
    8.1418  -13.7248   25.4957 C   0  0  0  0  0  0  0  0  0  0  0  0
    6.8259  -13.3153   25.5379 C   0  0  0  0  0  0  0  0  0  0  0  0
    6.3356  -12.6396   26.6583 C   0  0  0  0  0  0  0  0  0  0  0  0
    7.1895  -12.4005   27.6971 C   0  0  0  0  0  0  0  0  0  0  0  0
    8.4830  -12.8149   27.6305 C   0  0  0  0  0  0  0  0  0  0  0  0
   10.0506  -15.9006   27.9079 C   0  0  0  0  0  0  0  0  0  0  0  0
    9.1067  -16.7052   28.0660 O   0  0  0  0  0  0  0  0  0  0  0  0
   10.6717  -15.4727   29.0889 O   0  0  0  0  0  0  0  0  0  0  0  0
  2  1  1  6
  2  3  1  0
  2  7  1  0
  3  4  1  0
  4  5  1  0
  5  6  2  0
  5  9  1  0
  7 10  1  0
  7  8  2  0
 10 11  1  0
 11 12  1  0
 12 14  1  0
 13 12  2  0
 14 15  1  0
 15 23  1  0
 16 17  1  0
 15 16  1  1
 17 22  2  0
 18 19  2  0
 18 17  1  0
 19 20  1  0
 20 21  2  0
 22 21  1  0
 23 24  2  0
 23 25  1  0
M  END
$$$$
