ESP.pdb
     RDKit          3D

 23 23  0  0  1  0  0  0  0  0999 V2000
   19.3845  -12.0454  -15.3384 N   0  0  0  0  0  0  0  0  0  0  0  0
   18.7196  -11.1804  -16.2814 C   0  0  1  0  0  0  0  0  0  0  0  0
   17.3800  -11.7541  -16.6824 C   0  0  0  0  0  0  0  0  0  0  0  0
   17.4454  -13.2455  -16.4279 C   0  0  0  0  0  0  0  0  0  0  0  0
   16.1893  -13.9257  -16.8231 C   0  0  0  0  0  0  0  0  0  0  0  0
   16.0863  -14.2696  -18.0316 O   0  0  0  0  0  0  0  0  0  0  0  0
   18.6256   -9.7980  -15.7679 C   0  0  0  0  0  0  0  0  0  0  0  0
   18.2271   -8.8281  -16.4534 O   0  0  0  0  0  0  0  0  0  0  0  0
   15.1487  -14.1983  -15.9644 O   0  0  0  0  0  0  0  0  0  0  0  0
   18.0147   -8.7985  -11.6980 O   0  0  0  0  0  0  0  0  0  0  0  0
   19.1545   -8.3455  -12.3311 C   0  0  0  0  0  0  0  0  0  0  0  0
   18.9673   -8.2128  -13.8375 C   0  0  2  0  0  0  0  0  0  0  0  0
   19.0001   -9.5410  -14.4397 N   0  0  0  0  0  0  0  0  0  0  0  0
   20.1399   -7.4647  -14.3502 C   0  0  0  0  0  0  0  0  0  0  0  0
   21.1449   -8.1517  -14.7277 O   0  0  0  0  0  0  0  0  0  0  0  0
   20.2455   -6.0670  -14.4602 N   0  0  0  0  0  0  0  0  0  0  0  0
   19.2125   -5.1350  -13.9829 C   0  0  0  0  0  0  0  0  0  0  0  0
   19.2436   -4.0239  -15.0244 C   0  0  0  0  0  0  0  0  0  0  0  0
   20.5022   -4.2193  -15.8253 C   0  0  0  0  0  0  0  0  0  0  0  0
   21.2740   -5.1929  -14.9712 C   0  0  1  0  0  0  0  0  0  0  0  0
   21.9548   -4.4156  -13.8983 C   0  0  0  0  0  0  0  0  0  0  0  0
   23.1099   -3.7385  -14.2024 O   0  0  0  0  0  0  0  0  0  0  0  0
   21.5016   -4.3658  -12.7358 O   0  0  0  0  0  0  0  0  0  0  0  0
  2  1  1  1
  2  7  1  0
  3  2  1  0
  4  5  1  0
  4  3  1  0
  5  6  2  0
  7 13  1  0
  7  8  2  0
  9  5  1  0
 10 11  1  0
 12 11  1  1
 13 12  1  0
 14 16  1  0
 14 12  1  0
 15 14  2  0
 16 17  1  0
 17 18  1  0
 19 18  1  0
 20 21  1  1
 20 16  1  0
 20 19  1  0
 21 22  1  0
 23 21  2  0
M  END
$$$$
