ESP.pdb
     RDKit          3D

 23 23  0  0  1  0  0  0  0  0999 V2000
   18.9019  -12.2708  -16.1907 N   0  0  0  0  0  0  0  0  0  0  0  0
   18.2963  -10.9767  -15.9956 C   0  0  1  0  0  0  0  0  0  0  0  0
   17.5115  -10.9415  -14.7044 C   0  0  0  0  0  0  0  0  0  0  0  0
   16.3169  -11.8536  -14.8899 C   0  0  0  0  0  0  0  0  0  0  0  0
   15.1454  -11.1217  -15.4271 C   0  0  0  0  0  0  0  0  0  0  0  0
   14.6847  -11.5202  -16.5309 O   0  0  0  0  0  0  0  0  0  0  0  0
   19.2987   -9.8951  -16.0919 C   0  0  0  0  0  0  0  0  0  0  0  0
   20.4347   -9.9523  -15.5669 O   0  0  0  0  0  0  0  0  0  0  0  0
   14.5428  -10.0529  -14.8034 O   0  0  0  0  0  0  0  0  0  0  0  0
   18.1511   -6.3396  -18.0665 O   0  0  0  0  0  0  0  0  0  0  0  0
   19.4527   -6.7849  -18.1790 C   0  0  0  0  0  0  0  0  0  0  0  0
   19.8901   -7.6086  -16.9740 C   0  0  2  0  0  0  0  0  0  0  0  0
   18.9748   -8.7323  -16.8084 N   0  0  0  0  0  0  0  0  0  0  0  0
   19.7422   -6.7374  -15.7838 C   0  0  0  0  0  0  0  0  0  0  0  0
   18.6557   -6.8370  -15.1249 O   0  0  0  0  0  0  0  0  0  0  0  0
   20.6905   -5.8121  -15.3132 N   0  0  0  0  0  0  0  0  0  0  0  0
   21.9570   -5.5255  -16.0043 C   0  0  0  0  0  0  0  0  0  0  0  0
   22.9332   -5.3042  -14.8561 C   0  0  0  0  0  0  0  0  0  0  0  0
   22.1042   -5.1441  -13.6107 C   0  0  0  0  0  0  0  0  0  0  0  0
   20.7230   -4.9260  -14.1745 C   0  0  1  0  0  0  0  0  0  0  0  0
   20.6102   -3.4911  -14.5579 C   0  0  0  0  0  0  0  0  0  0  0  0
   20.7076   -3.1503  -15.8844 O   0  0  0  0  0  0  0  0  0  0  0  0
   20.4298   -2.5964  -13.7057 O   0  0  0  0  0  0  0  0  0  0  0  0
  2  1  1  1
  2  7  1  0
  3  2  1  0
  4  5  1  0
  4  3  1  0
  5  6  2  0
  7 13  1  0
  7  8  2  0
  9  5  1  0
 10 11  1  0
 12 11  1  6
 13 12  1  0
 14 16  1  0
 14 12  1  0
 15 14  2  0
 16 17  1  0
 17 18  1  0
 19 18  1  0
 20 21  1  6
 20 16  1  0
 20 19  1  0
 21 22  1  0
 23 21  2  0
M  END
$$$$
