ESP.pdb
     RDKit          3D

 23 23  0  0  1  0  0  0  0  0999 V2000
   31.3693  -25.9280  -15.6653 N   0  0  0  0  0  0  0  0  0  0  0  0
   31.5498  -24.7936  -16.5371 C   0  0  1  0  0  0  0  0  0  0  0  0
   32.7114  -25.0198  -17.4774 C   0  0  0  0  0  0  0  0  0  0  0  0
   33.9199  -25.3281  -16.6184 C   0  0  0  0  0  0  0  0  0  0  0  0
   34.3177  -26.7521  -16.7208 C   0  0  0  0  0  0  0  0  0  0  0  0
   34.2618  -27.4343  -15.6622 O   0  0  0  0  0  0  0  0  0  0  0  0
   30.2957  -24.4520  -17.2401 C   0  0  0  0  0  0  0  0  0  0  0  0
   30.1683  -23.4555  -17.9885 O   0  0  0  0  0  0  0  0  0  0  0  0
   34.7366  -27.3614  -17.8817 O   0  0  0  0  0  0  0  0  0  0  0  0
   26.7527  -26.3772  -16.0790 O   0  0  0  0  0  0  0  0  0  0  0  0
   26.9658  -26.2208  -17.4338 C   0  0  0  0  0  0  0  0  0  0  0  0
   27.9008  -25.0582  -17.7434 C   0  0  2  0  0  0  0  0  0  0  0  0
   29.1755  -25.2807  -17.0700 N   0  0  0  0  0  0  0  0  0  0  0  0
   27.2897  -23.8469  -17.1462 C   0  0  0  0  0  0  0  0  0  0  0  0
   27.6582  -23.5339  -15.9669 O   0  0  0  0  0  0  0  0  0  0  0  0
   26.3420  -23.0099  -17.7612 N   0  0  0  0  0  0  0  0  0  0  0  0
   25.7608  -23.2777  -19.0856 C   0  0  0  0  0  0  0  0  0  0  0  0
   25.6173  -21.8853  -19.6864 C   0  0  0  0  0  0  0  0  0  0  0  0
   25.8031  -20.9079  -18.5577 C   0  0  0  0  0  0  0  0  0  0  0  0
   25.6813  -21.7959  -17.3454 C   0  0  1  0  0  0  0  0  0  0  0  0
   24.2307  -21.9943  -17.0715 C   0  0  0  0  0  0  0  0  0  0  0  0
   23.5380  -21.0033  -16.4209 O   0  0  0  0  0  0  0  0  0  0  0  0
   23.6337  -23.0349  -17.4182 O   0  0  0  0  0  0  0  0  0  0  0  0
  2  1  1  6
  2  7  1  0
  3  2  1  0
  4  5  1  0
  4  3  1  0
  5  6  2  0
  7 13  1  0
  7  8  2  0
  9  5  1  0
 10 11  1  0
 12 11  1  1
 13 12  1  0
 14 16  1  0
 14 12  1  0
 15 14  2  0
 16 17  1  0
 17 18  1  0
 19 18  1  0
 20 21  1  6
 20 16  1  0
 20 19  1  0
 21 22  1  0
 23 21  2  0
M  END
$$$$
