ESP.pdb
     RDKit          3D

 23 23  0  0  1  0  0  0  0  0999 V2000
   16.4649  -10.7989  -17.6163 N   0  0  0  0  0  0  0  0  0  0  0  0
   16.4605  -10.5735  -16.1920 C   0  0  1  0  0  0  0  0  0  0  0  0
   15.9204  -11.7806  -15.4601 C   0  0  0  0  0  0  0  0  0  0  0  0
   16.2659  -12.9943  -16.2973 C   0  0  0  0  0  0  0  0  0  0  0  0
   15.9363  -14.2574  -15.5954 C   0  0  0  0  0  0  0  0  0  0  0  0
   14.7904  -14.7399  -15.8038 O   0  0  0  0  0  0  0  0  0  0  0  0
   17.7935  -10.1548  -15.7107 C   0  0  0  0  0  0  0  0  0  0  0  0
   18.0571   -9.9261  -14.5076 O   0  0  0  0  0  0  0  0  0  0  0  0
   16.7916  -14.9213  -14.7457 O   0  0  0  0  0  0  0  0  0  0  0  0
   22.3617   -9.2334  -17.2550 O   0  0  0  0  0  0  0  0  0  0  0  0
   21.0463   -9.5467  -17.5325 C   0  0  0  0  0  0  0  0  0  0  0  0
   20.1796   -9.5727  -16.2795 C   0  0  2  0  0  0  0  0  0  0  0  0
   18.8328  -10.0003  -16.6415 N   0  0  0  0  0  0  0  0  0  0  0  0
   20.0856   -8.1748  -15.7953 C   0  0  0  0  0  0  0  0  0  0  0  0
   19.1931   -7.4366  -16.3274 O   0  0  0  0  0  0  0  0  0  0  0  0
   20.8888   -7.5880  -14.8017 N   0  0  0  0  0  0  0  0  0  0  0  0
   22.0148   -8.2793  -14.1552 C   0  0  0  0  0  0  0  0  0  0  0  0
   21.9501   -7.7744  -12.7196 C   0  0  0  0  0  0  0  0  0  0  0  0
   21.0218   -6.5903  -12.7208 C   0  0  0  0  0  0  0  0  0  0  0  0
   20.9048   -6.2801  -14.1915 C   0  0  1  0  0  0  0  0  0  0  0  0
   22.0965   -5.4765  -14.5826 C   0  0  0  0  0  0  0  0  0  0  0  0
   22.1637   -4.1606  -14.1964 O   0  0  0  0  0  0  0  0  0  0  0  0
   23.0302   -5.9694  -15.2492 O   0  0  0  0  0  0  0  0  0  0  0  0
  2  1  1  6
  2  7  1  0
  3  2  1  0
  4  5  1  0
  4  3  1  0
  5  6  2  0
  7 13  1  0
  7  8  2  0
  9  5  1  0
 10 11  1  0
 12 11  1  6
 13 12  1  0
 14 16  1  0
 14 12  1  0
 15 14  2  0
 16 17  1  0
 17 18  1  0
 19 18  1  0
 20 21  1  6
 20 16  1  0
 20 19  1  0
 21 22  1  0
 23 21  2  0
M  END
$$$$
