ESP.pdb
     RDKit          3D

 23 23  0  0  1  0  0  0  0  0999 V2000
   24.1099  -18.3062  -19.7117 N   0  0  0  0  0  0  0  0  0  0  0  0
   24.4092  -19.5278  -19.0062 C   0  0  1  0  0  0  0  0  0  0  0  0
   25.6437  -20.1873  -19.5766 C   0  0  0  0  0  0  0  0  0  0  0  0
   26.7874  -19.2110  -19.3974 C   0  0  0  0  0  0  0  0  0  0  0  0
   28.0446  -19.7226  -19.9928 C   0  0  0  0  0  0  0  0  0  0  0  0
   28.6813  -18.9319  -20.7402 O   0  0  0  0  0  0  0  0  0  0  0  0
   24.4979  -19.2981  -17.5491 C   0  0  0  0  0  0  0  0  0  0  0  0
   25.2953  -18.4891  -17.0209 O   0  0  0  0  0  0  0  0  0  0  0  0
   28.5476  -20.9862  -19.7816 O   0  0  0  0  0  0  0  0  0  0  0  0
   21.3793  -18.9891  -14.6070 O   0  0  0  0  0  0  0  0  0  0  0  0
   22.1547  -20.1174  -14.7828 C   0  0  0  0  0  0  0  0  0  0  0  0
   23.5635  -19.7846  -15.2586 C   0  0  2  0  0  0  0  0  0  0  0  0
   23.6479  -20.0192  -16.6959 N   0  0  0  0  0  0  0  0  0  0  0  0
   24.4769  -20.7474  -14.5981 C   0  0  0  0  0  0  0  0  0  0  0  0
   24.5331  -21.9223  -15.0890 O   0  0  0  0  0  0  0  0  0  0  0  0
   25.2887  -20.4839  -13.4807 N   0  0  0  0  0  0  0  0  0  0  0  0
   25.3015  -19.1946  -12.7728 C   0  0  0  0  0  0  0  0  0  0  0  0
   26.7638  -19.0334  -12.3779 C   0  0  0  0  0  0  0  0  0  0  0  0
   27.4154  -20.3742  -12.5818 C   0  0  0  0  0  0  0  0  0  0  0  0
   26.2245  -21.2866  -12.7304 C   0  0  1  0  0  0  0  0  0  0  0  0
   25.7328  -21.6183  -11.3641 C   0  0  0  0  0  0  0  0  0  0  0  0
   24.5476  -21.0729  -10.9361 O   0  0  0  0  0  0  0  0  0  0  0  0
   26.3699  -22.3767  -10.6036 O   0  0  0  0  0  0  0  0  0  0  0  0
  2  1  1  6
  2  7  1  0
  3  2  1  0
  4  5  1  0
  4  3  1  0
  5  6  2  0
  7 13  1  0
  7  8  2  0
  9  5  1  0
 10 11  1  0
 12 11  1  1
 13 12  1  0
 14 16  1  0
 14 12  1  0
 15 14  2  0
 16 17  1  0
 17 18  1  0
 19 18  1  0
 20 21  1  1
 20 16  1  0
 20 19  1  0
 21 22  1  0
 23 21  2  0
M  END
$$$$
