ESP.pdb
     RDKit          3D

 23 23  0  0  1  0  0  0  0  0999 V2000
   20.3688  -20.7431  -13.6249 N   0  0  0  0  0  0  0  0  0  0  0  0
   21.3440  -20.7992  -14.6857 C   0  0  1  0  0  0  0  0  0  0  0  0
   20.6903  -20.5619  -16.0276 C   0  0  0  0  0  0  0  0  0  0  0  0
   20.0332  -19.1991  -15.9628 C   0  0  0  0  0  0  0  0  0  0  0  0
   19.2788  -18.8937  -17.2015 C   0  0  0  0  0  0  0  0  0  0  0  0
   18.7168  -17.7668  -17.2602 O   0  0  0  0  0  0  0  0  0  0  0  0
   22.4747  -19.8843  -14.4242 C   0  0  0  0  0  0  0  0  0  0  0  0
   22.3362  -18.7079  -14.0164 O   0  0  0  0  0  0  0  0  0  0  0  0
   19.1582  -19.7521  -18.2706 O   0  0  0  0  0  0  0  0  0  0  0  0
   26.1234  -21.6359  -14.4897 O   0  0  0  0  0  0  0  0  0  0  0  0
   26.0990  -20.3840  -13.9088 C   0  0  0  0  0  0  0  0  0  0  0  0
   24.9687  -19.5162  -14.4485 C   0  0  2  0  0  0  0  0  0  0  0  0
   23.7832  -20.3444  -14.6401 N   0  0  0  0  0  0  0  0  0  0  0  0
   25.3966  -19.0388  -15.7850 C   0  0  0  0  0  0  0  0  0  0  0  0
   24.7635  -19.4950  -16.7927 O   0  0  0  0  0  0  0  0  0  0  0  0
   26.4355  -18.1275  -16.0440 N   0  0  0  0  0  0  0  0  0  0  0  0
   27.3162  -17.5825  -14.9996 C   0  0  0  0  0  0  0  0  0  0  0  0
   27.5532  -16.1506  -15.4619 C   0  0  0  0  0  0  0  0  0  0  0  0
   27.0809  -16.0748  -16.8884 C   0  0  0  0  0  0  0  0  0  0  0  0
   26.9446  -17.5307  -17.2555 C   0  0  1  0  0  0  0  0  0  0  0  0
   28.2972  -18.0354  -17.6220 C   0  0  0  0  0  0  0  0  0  0  0  0
   28.8495  -17.6427  -18.8162 O   0  0  0  0  0  0  0  0  0  0  0  0
   28.9366  -18.8027  -16.8725 O   0  0  0  0  0  0  0  0  0  0  0  0
  2  1  1  1
  2  7  1  0
  3  2  1  0
  4  5  1  0
  4  3  1  0
  5  6  2  0
  7 13  1  0
  7  8  2  0
  9  5  1  0
 10 11  1  0
 12 11  1  6
 13 12  1  0
 14 16  1  0
 14 12  1  0
 15 14  2  0
 16 17  1  0
 17 18  1  0
 19 18  1  0
 20 21  1  1
 20 16  1  0
 20 19  1  0
 21 22  1  0
 23 21  2  0
M  END
$$$$
