ESP.pdb
     RDKit          3D

 23 23  0  0  1  0  0  0  0  0999 V2000
   19.1326  -11.2139  -17.9761 N   0  0  0  0  0  0  0  0  0  0  0  0
   20.1539  -10.2354  -17.6950 C   0  0  1  0  0  0  0  0  0  0  0  0
   20.9316   -9.8979  -18.9462 C   0  0  0  0  0  0  0  0  0  0  0  0
   21.5760  -11.1823  -19.4243 C   0  0  0  0  0  0  0  0  0  0  0  0
   22.2827  -10.9953  -20.7136 C   0  0  0  0  0  0  0  0  0  0  0  0
   22.7766  -12.0265  -21.2446 O   0  0  0  0  0  0  0  0  0  0  0  0
   19.5873   -9.0445  -17.0282 C   0  0  0  0  0  0  0  0  0  0  0  0
   18.5383   -8.4718  -17.4035 O   0  0  0  0  0  0  0  0  0  0  0  0
   22.4286   -9.7850  -21.3525 O   0  0  0  0  0  0  0  0  0  0  0  0
   19.7831   -8.2579  -12.9403 O   0  0  0  0  0  0  0  0  0  0  0  0
   20.3954   -7.3517  -13.7825 C   0  0  0  0  0  0  0  0  0  0  0  0
   19.7776   -7.3454  -15.1754 C   0  0  2  0  0  0  0  0  0  0  0  0
   20.2500   -8.5135  -15.9105 N   0  0  0  0  0  0  0  0  0  0  0  0
   20.2994   -6.1441  -15.8695 C   0  0  0  0  0  0  0  0  0  0  0  0
   21.3749   -6.2838  -16.5391 O   0  0  0  0  0  0  0  0  0  0  0  0
   19.7167   -4.8645  -15.8591 N   0  0  0  0  0  0  0  0  0  0  0  0
   18.5707   -4.5016  -15.0115 C   0  0  0  0  0  0  0  0  0  0  0  0
   17.7754   -3.5507  -15.8967 C   0  0  0  0  0  0  0  0  0  0  0  0
   18.6766   -3.1717  -17.0405 C   0  0  0  0  0  0  0  0  0  0  0  0
   20.0246   -3.6351  -16.5495 C   0  0  1  0  0  0  0  0  0  0  0  0
   20.5634   -2.5841  -15.6419 C   0  0  0  0  0  0  0  0  0  0  0  0
   21.0922   -1.4422  -16.1911 O   0  0  0  0  0  0  0  0  0  0  0  0
   20.5450   -2.7169  -14.4004 O   0  0  0  0  0  0  0  0  0  0  0  0
  2  1  1  6
  2  7  1  0
  3  2  1  0
  4  5  1  0
  4  3  1  0
  5  6  2  0
  7 13  1  0
  7  8  2  0
  9  5  1  0
 10 11  1  0
 12 11  1  1
 13 12  1  0
 14 16  1  0
 14 12  1  0
 15 14  2  0
 16 17  1  0
 17 18  1  0
 19 18  1  0
 20 21  1  1
 20 16  1  0
 20 19  1  0
 21 22  1  0
 23 21  2  0
M  END
$$$$
