ESP.pdb
     RDKit          3D

 23 23  0  0  1  0  0  0  0  0999 V2000
   20.7222  -35.3404   -2.6170 N   0  0  0  0  0  0  0  0  0  0  0  0
   20.7094  -33.9100   -2.7995 C   0  0  1  0  0  0  0  0  0  0  0  0
   20.8318  -33.1992   -1.4713 C   0  0  0  0  0  0  0  0  0  0  0  0
   19.5185  -33.3964   -0.7434 C   0  0  0  0  0  0  0  0  0  0  0  0
   19.5220  -32.7374    0.5841 C   0  0  0  0  0  0  0  0  0  0  0  0
   19.2592  -31.5047    0.6063 O   0  0  0  0  0  0  0  0  0  0  0  0
   21.7313  -33.4847   -3.7786 C   0  0  0  0  0  0  0  0  0  0  0  0
   21.9654  -32.2872   -4.0621 O   0  0  0  0  0  0  0  0  0  0  0  0
   19.7906  -33.3803    1.7712 O   0  0  0  0  0  0  0  0  0  0  0  0
   23.7987  -36.5518   -5.5699 O   0  0  0  0  0  0  0  0  0  0  0  0
   24.4721  -35.3476   -5.5286 C   0  0  0  0  0  0  0  0  0  0  0  0
   23.5265  -34.1581   -5.4156 C   0  0  2  0  0  0  0  0  0  0  0  0
   22.4903  -34.4656   -4.4360 N   0  0  0  0  0  0  0  0  0  0  0  0
   22.8621  -34.0129   -6.7328 C   0  0  0  0  0  0  0  0  0  0  0  0
   21.6329  -34.3429   -6.8006 O   0  0  0  0  0  0  0  0  0  0  0  0
   23.4622  -33.5431   -7.9143 N   0  0  0  0  0  0  0  0  0  0  0  0
   24.9066  -33.3007   -8.0501 C   0  0  0  0  0  0  0  0  0  0  0  0
   24.9663  -32.0688   -8.9441 C   0  0  0  0  0  0  0  0  0  0  0  0
   23.5911  -31.8939   -9.5289 C   0  0  0  0  0  0  0  0  0  0  0  0
   22.9447  -33.2211   -9.2226 C   0  0  1  0  0  0  0  0  0  0  0  0
   23.3782  -34.1896  -10.2679 C   0  0  0  0  0  0  0  0  0  0  0  0
   22.8358  -34.0936  -11.5256 O   0  0  0  0  0  0  0  0  0  0  0  0
   24.2189  -35.0813  -10.0281 O   0  0  0  0  0  0  0  0  0  0  0  0
  2  1  1  1
  2  7  1  0
  3  2  1  0
  4  5  1  0
  4  3  1  0
  5  6  2  0
  7 13  1  0
  7  8  2  0
  9  5  1  0
 10 11  1  0
 12 11  1  6
 13 12  1  0
 14 16  1  0
 14 12  1  0
 15 14  2  0
 16 17  1  0
 17 18  1  0
 19 18  1  0
 20 21  1  6
 20 16  1  0
 20 19  1  0
 21 22  1  0
 23 21  2  0
M  END
$$$$
