VPH.pdb
     RDKit          3D

 25 26  0  0  1  0  0  0  0  0999 V2000
   26.3712  -18.3655  -16.2444 C   0  0  0  0  0  0  0  0  0  0  0  0
   27.8580  -18.2958  -16.0787 C   0  0  2  0  0  0  0  0  0  0  0  0
   28.4173  -17.3618  -17.1295 C   0  0  0  0  0  0  0  0  0  0  0  0
   28.5246  -19.6497  -16.2208 C   0  0  2  0  0  0  0  0  0  0  0  0
   28.0879  -20.2299  -17.5235 N   0  0  0  0  0  0  0  0  0  0  0  0
   27.9800  -20.5295  -15.1552 C   0  0  0  0  0  0  0  0  0  0  0  0
   27.2090  -21.4688  -15.6070 O   0  0  0  0  0  0  0  0  0  0  0  0
   28.2330  -20.4207  -13.7788 N   0  0  0  0  0  0  0  0  0  0  0  0
   29.0977  -19.5177  -13.1188 C   0  0  0  0  0  0  0  0  0  0  0  0
   29.6142  -20.3370  -11.9393 C   0  0  0  0  0  0  0  0  0  0  0  0
   28.9496  -21.6677  -12.0570 C   0  0  0  0  0  0  0  0  0  0  0  0
   27.6531  -21.2468  -12.7709 C   0  0  1  0  0  0  0  0  0  0  0  0
   26.7662  -20.4777  -11.9036 C   0  0  0  0  0  0  0  0  0  0  0  0
   26.9284  -19.2813  -11.6470 O   0  0  0  0  0  0  0  0  0  0  0  0
   25.6368  -21.1250  -11.3042 N   0  0  0  0  0  0  0  0  0  0  0  0
   24.6012  -20.3898  -10.5907 C   0  0  1  0  0  0  0  0  0  0  0  0
   23.2934  -21.0040  -11.1100 C   0  0  0  0  0  0  0  0  0  0  0  0
   23.0723  -20.6383  -12.5072 C   0  0  0  0  0  0  0  0  0  0  0  0
   23.1597  -19.3719  -13.0293 C   0  0  0  0  0  0  0  0  0  0  0  0
   22.8727  -19.4944  -14.3455 N   0  0  0  0  0  0  0  0  0  0  0  0
   22.6216  -20.7821  -14.6102 C   0  0  0  0  0  0  0  0  0  0  0  0
   22.7413  -21.4939  -13.4885 N   0  0  0  0  0  0  0  0  0  0  0  0
   24.7786  -20.6493   -9.1573 C   0  0  0  0  0  0  0  0  0  0  0  0
   25.5777  -21.5268   -8.7783 O   0  0  0  0  0  0  0  0  0  0  0  0
   24.0713  -19.9335   -8.2252 O   0  0  0  0  0  0  0  0  0  0  0  0
  2  1  1  6
  2  3  1  0
  4  2  1  0
  4  5  1  6
  6  4  1  0
  6  7  2  0
  8  6  1  0
  9  8  1  0
 10  9  1  0
 10 11  1  0
 11 12  1  0
 12  8  1  0
 12 13  1  1
 14 13  2  0
 15 13  1  0
 16 17  1  6
 16 15  1  0
 18 17  1  0
 19 18  2  0
 20 21  1  0
 20 19  1  0
 21 22  2  0
 22 18  1  0
 23 25  1  0
 23 16  1  0
 24 23  2  0
M  END
$$$$
