VPH.pdb
     RDKit          3D

 25 26  0  0  1  0  0  0  0  0999 V2000
   17.1602  -11.8494  -17.8675 C   0  0  0  0  0  0  0  0  0  0  0  0
   17.8951  -11.0383  -16.8454 C   0  0  2  0  0  0  0  0  0  0  0  0
   18.4474   -9.8005  -17.5179 C   0  0  0  0  0  0  0  0  0  0  0  0
   19.0386  -11.8017  -16.2074 C   0  0  2  0  0  0  0  0  0  0  0  0
   18.4536  -12.9778  -15.5011 N   0  0  0  0  0  0  0  0  0  0  0  0
   19.6327  -10.9268  -15.1646 C   0  0  0  0  0  0  0  0  0  0  0  0
   18.9575  -10.9130  -14.0580 O   0  0  0  0  0  0  0  0  0  0  0  0
   20.8056  -10.1656  -15.2889 N   0  0  0  0  0  0  0  0  0  0  0  0
   21.6915  -10.1004  -16.3887 C   0  0  0  0  0  0  0  0  0  0  0  0
   23.0500   -9.8976  -15.7236 C   0  0  0  0  0  0  0  0  0  0  0  0
   22.7740   -9.8567  -14.2579 C   0  0  0  0  0  0  0  0  0  0  0  0
   21.3367   -9.3077  -14.2807 C   0  0  1  0  0  0  0  0  0  0  0  0
   21.2832   -7.9093  -14.6955 C   0  0  0  0  0  0  0  0  0  0  0  0
   20.9719   -7.5442  -15.8328 O   0  0  0  0  0  0  0  0  0  0  0  0
   21.6056   -6.8838  -13.7478 N   0  0  0  0  0  0  0  0  0  0  0  0
   21.1841   -5.4998  -13.9187 C   0  0  1  0  0  0  0  0  0  0  0  0
   19.6645   -5.5516  -13.7048 C   0  0  0  0  0  0  0  0  0  0  0  0
   19.3476   -5.6258  -12.2805 C   0  0  0  0  0  0  0  0  0  0  0  0
   19.3490   -6.7656  -11.5159 C   0  0  0  0  0  0  0  0  0  0  0  0
   18.9924   -6.3755  -10.2708 N   0  0  0  0  0  0  0  0  0  0  0  0
   18.7833   -5.0536  -10.2803 C   0  0  0  0  0  0  0  0  0  0  0  0
   18.9985   -4.5825  -11.5095 N   0  0  0  0  0  0  0  0  0  0  0  0
   21.8412   -4.7026  -12.8767 C   0  0  0  0  0  0  0  0  0  0  0  0
   22.4212   -5.2709  -11.9318 O   0  0  0  0  0  0  0  0  0  0  0  0
   21.8245   -3.3321  -12.9312 O   0  0  0  0  0  0  0  0  0  0  0  0
  2  1  1  6
  2  3  1  0
  4  2  1  0
  4  5  1  1
  6  4  1  0
  6  7  2  0
  8  6  1  0
  9  8  1  0
 10  9  1  0
 10 11  1  0
 11 12  1  0
 12  8  1  0
 12 13  1  6
 14 13  2  0
 15 13  1  0
 16 17  1  1
 16 15  1  0
 18 17  1  0
 19 18  2  0
 20 21  1  0
 20 19  1  0
 21 22  2  0
 22 18  1  0
 23 25  1  0
 23 16  1  0
 24 23  2  0
M  END
$$$$
