VPH.pdb
     RDKit          3D

 25 26  0  0  1  0  0  0  0  0999 V2000
   25.3758  -23.4655  -13.1349 C   0  0  0  0  0  0  0  0  0  0  0  0
   25.1034  -22.0491  -13.5378 C   0  0  2  0  0  0  0  0  0  0  0  0
   25.3523  -21.9138  -15.0241 C   0  0  0  0  0  0  0  0  0  0  0  0
   25.9788  -21.0547  -12.8012 C   0  0  2  0  0  0  0  0  0  0  0  0
   25.6598  -21.1666  -11.3486 N   0  0  0  0  0  0  0  0  0  0  0  0
   25.5648  -19.6936  -13.2279 C   0  0  0  0  0  0  0  0  0  0  0  0
   24.6258  -19.1865  -12.4918 O   0  0  0  0  0  0  0  0  0  0  0  0
   26.0933  -18.9644  -14.3046 N   0  0  0  0  0  0  0  0  0  0  0  0
   27.1107  -19.3526  -15.2062 C   0  0  0  0  0  0  0  0  0  0  0  0
   27.8178  -18.0355  -15.5136 C   0  0  0  0  0  0  0  0  0  0  0  0
   27.0867  -16.9982  -14.7289 C   0  0  0  0  0  0  0  0  0  0  0  0
   25.6926  -17.6475  -14.6781 C   0  0  1  0  0  0  0  0  0  0  0  0
   25.0316  -17.6457  -15.9794 C   0  0  0  0  0  0  0  0  0  0  0  0
   25.5309  -18.1254  -17.0013 O   0  0  0  0  0  0  0  0  0  0  0  0
   23.7294  -17.0603  -16.1038 N   0  0  0  0  0  0  0  0  0  0  0  0
   22.5521  -17.8398  -16.4624 C   0  0  1  0  0  0  0  0  0  0  0  0
   22.3847  -18.8114  -15.2855 C   0  0  0  0  0  0  0  0  0  0  0  0
   21.1653  -19.6013  -15.4397 C   0  0  0  0  0  0  0  0  0  0  0  0
   20.2569  -19.4846  -16.4619 C   0  0  0  0  0  0  0  0  0  0  0  0
   19.2904  -20.3949  -16.2029 N   0  0  0  0  0  0  0  0  0  0  0  0
   19.6003  -21.0368  -15.0702 C   0  0  0  0  0  0  0  0  0  0  0  0
   20.7498  -20.5576  -14.5926 N   0  0  0  0  0  0  0  0  0  0  0  0
   21.4169  -16.9145  -16.5542 C   0  0  0  0  0  0  0  0  0  0  0  0
   21.4804  -15.7961  -16.0088 O   0  0  0  0  0  0  0  0  0  0  0  0
   20.2809  -17.2683  -17.2367 O   0  0  0  0  0  0  0  0  0  0  0  0
  2  1  1  1
  2  3  1  0
  4  2  1  0
  4  5  1  1
  6  4  1  0
  6  7  2  0
  8  6  1  0
  9  8  1  0
 10  9  1  0
 10 11  1  0
 11 12  1  0
 12  8  1  0
 12 13  1  6
 14 13  2  0
 15 13  1  0
 16 17  1  1
 16 15  1  0
 18 17  1  0
 19 18  2  0
 20 21  1  0
 20 19  1  0
 21 22  2  0
 22 18  1  0
 23 25  1  0
 23 16  1  0
 24 23  2  0
M  END
$$$$
