VPH.pdb
     RDKit          3D

 25 26  0  0  1  0  0  0  0  0999 V2000
   27.4660  -16.6898  -16.6339 C   0  0  0  0  0  0  0  0  0  0  0  0
   26.6647  -17.6979  -15.8694 C   0  0  2  0  0  0  0  0  0  0  0  0
   26.3177  -17.1135  -14.5176 C   0  0  0  0  0  0  0  0  0  0  0  0
   27.4107  -19.0012  -15.6637 C   0  0  2  0  0  0  0  0  0  0  0  0
   27.7747  -19.5269  -17.0112 N   0  0  0  0  0  0  0  0  0  0  0  0
   26.4576  -19.9719  -15.0676 C   0  0  0  0  0  0  0  0  0  0  0  0
   25.7411  -20.5974  -15.9485 O   0  0  0  0  0  0  0  0  0  0  0  0
   26.2954  -20.2429  -13.6998 N   0  0  0  0  0  0  0  0  0  0  0  0
   26.9853  -19.6679  -12.6081 C   0  0  0  0  0  0  0  0  0  0  0  0
   27.0670  -20.8187  -11.6090 C   0  0  0  0  0  0  0  0  0  0  0  0
   26.3755  -21.9662  -12.2657 C   0  0  0  0  0  0  0  0  0  0  0  0
   25.3843  -21.1958  -13.1555 C   0  0  1  0  0  0  0  0  0  0  0  0
   24.3356  -20.5405  -12.3800 C   0  0  0  0  0  0  0  0  0  0  0  0
   24.5252  -19.5421  -11.6793 O   0  0  0  0  0  0  0  0  0  0  0  0
   23.0030  -21.0663  -12.4175 N   0  0  0  0  0  0  0  0  0  0  0  0
   21.8795  -20.3130  -12.9582 C   0  0  1  0  0  0  0  0  0  0  0  0
   22.2977  -20.0222  -14.4066 C   0  0  0  0  0  0  0  0  0  0  0  0
   21.2491  -19.2838  -15.1066 C   0  0  0  0  0  0  0  0  0  0  0  0
   20.0393  -18.9106  -14.5767 C   0  0  0  0  0  0  0  0  0  0  0  0
   19.3863  -18.2617  -15.5678 N   0  0  0  0  0  0  0  0  0  0  0  0
   20.1682  -18.2425  -16.6538 C   0  0  0  0  0  0  0  0  0  0  0  0
   21.3149  -18.8674  -16.3822 N   0  0  0  0  0  0  0  0  0  0  0  0
   20.6973  -21.1809  -12.9098 C   0  0  0  0  0  0  0  0  0  0  0  0
   20.7239  -22.2994  -13.4581 O   0  0  0  0  0  0  0  0  0  0  0  0
   19.5575  -20.7732  -12.2647 O   0  0  0  0  0  0  0  0  0  0  0  0
  2  1  1  1
  2  3  1  0
  4  2  1  0
  4  5  1  6
  6  4  1  0
  6  7  2  0
  8  6  1  0
  9  8  1  0
 10  9  1  0
 10 11  1  0
 11 12  1  0
 12  8  1  0
 12 13  1  1
 14 13  2  0
 15 13  1  0
 16 17  1  6
 16 15  1  0
 18 17  1  0
 19 18  2  0
 20 21  1  0
 20 19  1  0
 21 22  2  0
 22 18  1  0
 23 25  1  0
 23 16  1  0
 24 23  2  0
M  END
$$$$
