VPH.pdb
     RDKit          3D

 25 26  0  0  1  0  0  0  0  0999 V2000
   25.2026  -21.8038    9.4730 C   0  0  0  0  0  0  0  0  0  0  0  0
   24.8095  -23.2488    9.4868 C   0  0  2  0  0  0  0  0  0  0  0  0
   23.3523  -23.3562    9.0939 C   0  0  0  0  0  0  0  0  0  0  0  0
   24.9998  -23.8919   10.8461 C   0  0  2  0  0  0  0  0  0  0  0  0
   24.1852  -23.1174   11.8265 N   0  0  0  0  0  0  0  0  0  0  0  0
   26.4226  -23.7091   11.2313 C   0  0  0  0  0  0  0  0  0  0  0  0
   26.5914  -22.8465   12.1843 O   0  0  0  0  0  0  0  0  0  0  0  0
   27.5262  -24.3706   10.6701 N   0  0  0  0  0  0  0  0  0  0  0  0
   27.5313  -25.3479    9.6486 C   0  0  0  0  0  0  0  0  0  0  0  0
   28.7000  -26.2478   10.0404 C   0  0  0  0  0  0  0  0  0  0  0  0
   29.2613  -25.6515   11.2877 C   0  0  0  0  0  0  0  0  0  0  0  0
   28.8840  -24.1769   11.0617 C   0  0  1  0  0  0  0  0  0  0  0  0
   29.6605  -23.5632    9.9890 C   0  0  0  0  0  0  0  0  0  0  0  0
   29.1766  -23.2089    8.9102 O   0  0  0  0  0  0  0  0  0  0  0  0
   31.0654  -23.3494   10.1742 N   0  0  0  0  0  0  0  0  0  0  0  0
   31.7232  -22.1042    9.8012 C   0  0  1  0  0  0  0  0  0  0  0  0
   31.0818  -21.0606   10.7269 C   0  0  0  0  0  0  0  0  0  0  0  0
   30.3284  -20.0782    9.9509 C   0  0  0  0  0  0  0  0  0  0  0  0
   30.1455  -20.0986    8.5908 C   0  0  0  0  0  0  0  0  0  0  0  0
   29.4009  -19.0068    8.3019 N   0  0  0  0  0  0  0  0  0  0  0  0
   29.1432  -18.3517    9.4401 C   0  0  0  0  0  0  0  0  0  0  0  0
   29.7080  -19.0006   10.4595 N   0  0  0  0  0  0  0  0  0  0  0  0
   33.1554  -22.2559   10.0822 C   0  0  0  0  0  0  0  0  0  0  0  0
   33.9948  -21.6831    9.3613 O   0  0  0  0  0  0  0  0  0  0  0  0
   33.5831  -23.0249   11.1344 O   0  0  0  0  0  0  0  0  0  0  0  0
  2  1  1  1
  2  3  1  0
  4  2  1  0
  4  5  1  1
  6  4  1  0
  6  7  2  0
  8  6  1  0
  9  8  1  0
 10  9  1  0
 10 11  1  0
 11 12  1  0
 12  8  1  0
 12 13  1  6
 14 13  2  0
 15 13  1  0
 16 17  1  1
 16 15  1  0
 18 17  1  0
 19 18  2  0
 20 21  1  0
 20 19  1  0
 21 22  2  0
 22 18  1  0
 23 25  1  0
 23 16  1  0
 24 23  2  0
M  END
$$$$
