VPH.pdb
     RDKit          3D

 25 26  0  0  1  0  0  0  0  0999 V2000
   25.3081  -17.2791  -15.7236 C   0  0  0  0  0  0  0  0  0  0  0  0
   26.5901  -17.4590  -14.9706 C   0  0  2  0  0  0  0  0  0  0  0  0
   27.5295  -16.3322  -15.3411 C   0  0  0  0  0  0  0  0  0  0  0  0
   27.2652  -18.7812  -15.2762 C   0  0  2  0  0  0  0  0  0  0  0  0
   27.4381  -18.8649  -16.7552 N   0  0  0  0  0  0  0  0  0  0  0  0
   26.3227  -19.8630  -14.8924 C   0  0  0  0  0  0  0  0  0  0  0  0
   25.8616  -20.5277  -15.9055 O   0  0  0  0  0  0  0  0  0  0  0  0
   25.9270  -20.1951  -13.5872 N   0  0  0  0  0  0  0  0  0  0  0  0
   26.3572  -19.6171  -12.3709 C   0  0  0  0  0  0  0  0  0  0  0  0
   26.3326  -20.7966  -11.4027 C   0  0  0  0  0  0  0  0  0  0  0  0
   25.8605  -21.9618  -12.2062 C   0  0  0  0  0  0  0  0  0  0  0  0
   25.0008  -21.2256  -13.2487 C   0  0  1  0  0  0  0  0  0  0  0  0
   23.7813  -20.6702  -12.6702 C   0  0  0  0  0  0  0  0  0  0  0  0
   23.7719  -19.7552  -11.8417 O   0  0  0  0  0  0  0  0  0  0  0  0
   22.5110  -21.1997  -13.0701 N   0  0  0  0  0  0  0  0  0  0  0  0
   21.3360  -20.3587  -13.2554 C   0  0  1  0  0  0  0  0  0  0  0  0
   21.7903  -19.3189  -14.2897 C   0  0  0  0  0  0  0  0  0  0  0  0
   20.6792  -18.4478  -14.6659 C   0  0  0  0  0  0  0  0  0  0  0  0
   20.1289  -17.4644  -13.8823 C   0  0  0  0  0  0  0  0  0  0  0  0
   19.1317  -16.9213  -14.6173 N   0  0  0  0  0  0  0  0  0  0  0  0
   19.0796  -17.5498  -15.7977 C   0  0  0  0  0  0  0  0  0  0  0  0
   20.0254  -18.4894  -15.8387 N   0  0  0  0  0  0  0  0  0  0  0  0
   20.2624  -21.2053  -13.7881 C   0  0  0  0  0  0  0  0  0  0  0  0
   20.5197  -22.0672  -14.6503 O   0  0  0  0  0  0  0  0  0  0  0  0
   18.9723  -21.0583  -13.3458 O   0  0  0  0  0  0  0  0  0  0  0  0
  2  1  1  6
  2  3  1  0
  4  2  1  0
  4  5  1  6
  6  4  1  0
  6  7  2  0
  8  6  1  0
  9  8  1  0
 10  9  1  0
 10 11  1  0
 11 12  1  0
 12  8  1  0
 12 13  1  1
 14 13  2  0
 15 13  1  0
 16 17  1  6
 16 15  1  0
 18 17  1  0
 19 18  2  0
 20 21  1  0
 20 19  1  0
 21 22  2  0
 22 18  1  0
 23 25  1  0
 23 16  1  0
 24 23  2  0
M  END
$$$$
