VPH.pdb
     RDKit          3D

 25 26  0  0  1  0  0  0  0  0999 V2000
   28.6882  -17.9516  -16.0181 C   0  0  0  0  0  0  0  0  0  0  0  0
   27.4582  -18.6012  -15.4631 C   0  0  2  0  0  0  0  0  0  0  0  0
   26.8726  -17.6970  -14.4007 C   0  0  0  0  0  0  0  0  0  0  0  0
   27.7415  -19.9584  -14.8506 C   0  0  2  0  0  0  0  0  0  0  0  0
   28.3942  -20.7956  -15.8982 N   0  0  0  0  0  0  0  0  0  0  0  0
   26.4334  -20.5932  -14.5474 C   0  0  0  0  0  0  0  0  0  0  0  0
   25.9656  -21.3021  -15.5269 O   0  0  0  0  0  0  0  0  0  0  0  0
   25.7178  -20.4867  -13.3444 N   0  0  0  0  0  0  0  0  0  0  0  0
   26.0115  -19.6780  -12.2227 C   0  0  0  0  0  0  0  0  0  0  0  0
   25.5281  -20.5278  -11.0508 C   0  0  0  0  0  0  0  0  0  0  0  0
   24.9794  -21.7736  -11.6617 C   0  0  0  0  0  0  0  0  0  0  0  0
   24.5355  -21.2185  -13.0265 C   0  0  1  0  0  0  0  0  0  0  0  0
   23.3803  -20.3332  -12.9165 C   0  0  0  0  0  0  0  0  0  0  0  0
   23.3887  -19.2722  -12.2858 O   0  0  0  0  0  0  0  0  0  0  0  0
   22.1559  -20.6936  -13.5684 N   0  0  0  0  0  0  0  0  0  0  0  0
   21.0484  -19.7603  -13.7245 C   0  0  1  0  0  0  0  0  0  0  0  0
   20.7634  -19.7804  -15.2331 C   0  0  0  0  0  0  0  0  0  0  0  0
   21.6719  -18.8810  -15.9404 C   0  0  0  0  0  0  0  0  0  0  0  0
   22.4174  -17.8802  -15.3690 C   0  0  0  0  0  0  0  0  0  0  0  0
   23.0996  -17.3022  -16.3840 N   0  0  0  0  0  0  0  0  0  0  0  0
   22.7806  -17.9269  -17.5238 C   0  0  0  0  0  0  0  0  0  0  0  0
   21.9044  -18.8983  -17.2635 N   0  0  0  0  0  0  0  0  0  0  0  0
   19.9114  -20.2873  -12.9612 C   0  0  0  0  0  0  0  0  0  0  0  0
   19.8192  -21.5114  -12.7479 O   0  0  0  0  0  0  0  0  0  0  0  0
   18.9439  -19.4438  -12.4772 O   0  0  0  0  0  0  0  0  0  0  0  0
  2  1  1  1
  2  3  1  0
  4  2  1  0
  4  5  1  6
  6  4  1  0
  6  7  2  0
  8  6  1  0
  9  8  1  0
 10  9  1  0
 10 11  1  0
 11 12  1  0
 12  8  1  0
 12 13  1  1
 14 13  2  0
 15 13  1  0
 16 17  1  6
 16 15  1  0
 18 17  1  0
 19 18  2  0
 20 21  1  0
 20 19  1  0
 21 22  2  0
 22 18  1  0
 23 25  1  0
 23 16  1  0
 24 23  2  0
M  END
$$$$
