VPH.pdb
     RDKit          3D

 25 26  0  0  1  0  0  0  0  0999 V2000
   28.0950  -17.2678  -16.4407 C   0  0  0  0  0  0  0  0  0  0  0  0
   27.0981  -18.1324  -15.7325 C   0  0  2  0  0  0  0  0  0  0  0  0
   26.7019  -17.4526  -14.4401 C   0  0  0  0  0  0  0  0  0  0  0  0
   27.6430  -19.5106  -15.4149 C   0  0  2  0  0  0  0  0  0  0  0  0
   28.0759  -20.1289  -16.7012 N   0  0  0  0  0  0  0  0  0  0  0  0
   26.5147  -20.3299  -14.9033 C   0  0  0  0  0  0  0  0  0  0  0  0
   25.8580  -20.9427  -15.8382 O   0  0  0  0  0  0  0  0  0  0  0  0
   26.1393  -20.4787  -13.5589 N   0  0  0  0  0  0  0  0  0  0  0  0
   26.6885  -19.8402  -12.4234 C   0  0  0  0  0  0  0  0  0  0  0  0
   26.5647  -20.9052  -11.3373 C   0  0  0  0  0  0  0  0  0  0  0  0
   25.9213  -22.0771  -11.9999 C   0  0  0  0  0  0  0  0  0  0  0  0
   25.1117  -21.3475  -13.0862 C   0  0  1  0  0  0  0  0  0  0  0  0
   23.9941  -20.5904  -12.5310 C   0  0  0  0  0  0  0  0  0  0  0  0
   24.1292  -19.6446  -11.7495 O   0  0  0  0  0  0  0  0  0  0  0  0
   22.6551  -20.9453  -12.8985 N   0  0  0  0  0  0  0  0  0  0  0  0
   21.6962  -19.9693  -13.3986 C   0  0  1  0  0  0  0  0  0  0  0  0
   22.3921  -19.3706  -14.6292 C   0  0  0  0  0  0  0  0  0  0  0  0
   21.4944  -18.4597  -15.3358 C   0  0  0  0  0  0  0  0  0  0  0  0
   21.0514  -17.2470  -14.8700 C   0  0  0  0  0  0  0  0  0  0  0  0
   20.2428  -16.7535  -15.8356 N   0  0  0  0  0  0  0  0  0  0  0  0
   20.1976  -17.6311  -16.8451 C   0  0  0  0  0  0  0  0  0  0  0  0
   20.9625  -18.6829  -16.5490 N   0  0  0  0  0  0  0  0  0  0  0  0
   20.4784  -20.6954  -13.7767 C   0  0  0  0  0  0  0  0  0  0  0  0
   20.5637  -21.7715  -14.3988 O   0  0  0  0  0  0  0  0  0  0  0  0
   19.2409  -20.2008  -13.4516 O   0  0  0  0  0  0  0  0  0  0  0  0
  2  1  1  1
  2  3  1  0
  4  2  1  0
  4  5  1  6
  6  4  1  0
  6  7  2  0
  8  6  1  0
  9  8  1  0
 10  9  1  0
 10 11  1  0
 11 12  1  0
 12  8  1  0
 12 13  1  1
 14 13  2  0
 15 13  1  0
 16 17  1  6
 16 15  1  0
 18 17  1  0
 19 18  2  0
 20 21  1  0
 20 19  1  0
 21 22  2  0
 22 18  1  0
 23 25  1  0
 23 16  1  0
 24 23  2  0
M  END
$$$$
