VPH.pdb
     RDKit          3D

 25 26  0  0  1  0  0  0  0  0999 V2000
   27.4938  -18.4474  -14.2545 C   0  0  0  0  0  0  0  0  0  0  0  0
   27.9236  -19.4883  -15.2417 C   0  0  2  0  0  0  0  0  0  0  0  0
   26.9868  -19.4432  -16.4290 C   0  0  0  0  0  0  0  0  0  0  0  0
   27.9087  -20.8870  -14.6578 C   0  0  2  0  0  0  0  0  0  0  0  0
   28.3283  -21.8276  -15.7365 N   0  0  0  0  0  0  0  0  0  0  0  0
   26.4992  -21.2170  -14.3252 C   0  0  0  0  0  0  0  0  0  0  0  0
   25.8916  -21.8805  -15.2586 O   0  0  0  0  0  0  0  0  0  0  0  0
   25.8259  -20.8830  -13.1396 N   0  0  0  0  0  0  0  0  0  0  0  0
   26.2990  -20.1090  -12.0554 C   0  0  0  0  0  0  0  0  0  0  0  0
   25.6260  -20.7593  -10.8499 C   0  0  0  0  0  0  0  0  0  0  0  0
   24.8007  -21.8710  -11.4059 C   0  0  0  0  0  0  0  0  0  0  0  0
   24.5036  -21.2986  -12.8030 C   0  0  1  0  0  0  0  0  0  0  0  0
   23.5892  -20.1620  -12.7543 C   0  0  0  0  0  0  0  0  0  0  0  0
   23.9582  -18.9847  -12.7917 O   0  0  0  0  0  0  0  0  0  0  0  0
   22.1793  -20.3998  -12.6575 N   0  0  0  0  0  0  0  0  0  0  0  0
   21.2261  -19.8530  -13.6139 C   0  0  1  0  0  0  0  0  0  0  0  0
   21.5404  -20.6062  -14.9144 C   0  0  0  0  0  0  0  0  0  0  0  0
   22.3175  -19.7648  -15.8214 C   0  0  0  0  0  0  0  0  0  0  0  0
   22.6846  -18.4623  -15.5921 C   0  0  0  0  0  0  0  0  0  0  0  0
   23.3788  -18.0760  -16.6869 N   0  0  0  0  0  0  0  0  0  0  0  0
   23.4302  -19.1021  -17.5445 C   0  0  0  0  0  0  0  0  0  0  0  0
   22.7817  -20.1447  -17.0235 N   0  0  0  0  0  0  0  0  0  0  0  0
   19.8778  -20.1690  -13.1285 C   0  0  0  0  0  0  0  0  0  0  0  0
   19.0019  -19.2832  -13.1047 O   0  0  0  0  0  0  0  0  0  0  0  0
   19.5689  -21.4344  -12.6987 O   0  0  0  0  0  0  0  0  0  0  0  0
  2  1  1  1
  2  3  1  0
  4  2  1  0
  4  5  1  6
  6  4  1  0
  6  7  2  0
  8  6  1  0
  9  8  1  0
 10  9  1  0
 10 11  1  0
 11 12  1  0
 12  8  1  0
 12 13  1  1
 14 13  2  0
 15 13  1  0
 16 17  1  6
 16 15  1  0
 18 17  1  0
 19 18  2  0
 20 21  1  0
 20 19  1  0
 21 22  2  0
 22 18  1  0
 23 25  1  0
 23 16  1  0
 24 23  2  0
M  END
$$$$
