VPH.pdb
     RDKit          3D

 25 26  0  0  1  0  0  0  0  0999 V2000
   24.2104  -22.2989  -13.9736 C   0  0  0  0  0  0  0  0  0  0  0  0
   25.6744  -21.9878  -14.0249 C   0  0  2  0  0  0  0  0  0  0  0  0
   26.4480  -23.2738  -13.8324 C   0  0  0  0  0  0  0  0  0  0  0  0
   26.0976  -20.9964  -12.9593 C   0  0  2  0  0  0  0  0  0  0  0  0
   25.5403  -21.4702  -11.6595 N   0  0  0  0  0  0  0  0  0  0  0  0
   25.4346  -19.7028  -13.2643 C   0  0  0  0  0  0  0  0  0  0  0  0
   24.5270  -19.3727  -12.3994 O   0  0  0  0  0  0  0  0  0  0  0  0
   25.7118  -18.8649  -14.3559 N   0  0  0  0  0  0  0  0  0  0  0  0
   26.6887  -19.0377  -15.3631 C   0  0  0  0  0  0  0  0  0  0  0  0
   27.1094  -17.6059  -15.6826 C   0  0  0  0  0  0  0  0  0  0  0  0
   26.2825  -16.7397  -14.7926 C   0  0  0  0  0  0  0  0  0  0  0  0
   25.0423  -17.6374  -14.6377 C   0  0  1  0  0  0  0  0  0  0  0  0
   24.2666  -17.7300  -15.8706 C   0  0  0  0  0  0  0  0  0  0  0  0
   24.5893  -18.4352  -16.8309 O   0  0  0  0  0  0  0  0  0  0  0  0
   23.0587  -16.9693  -15.9981 N   0  0  0  0  0  0  0  0  0  0  0  0
   21.9106  -17.4455  -16.7579 C   0  0  1  0  0  0  0  0  0  0  0  0
   20.7235  -17.2083  -15.8135 C   0  0  0  0  0  0  0  0  0  0  0  0
   19.4620  -17.5050  -16.4882 C   0  0  0  0  0  0  0  0  0  0  0  0
   19.3261  -17.9303  -17.7860 C   0  0  0  0  0  0  0  0  0  0  0  0
   17.9965  -18.0718  -17.9911 N   0  0  0  0  0  0  0  0  0  0  0  0
   17.3531  -17.7454  -16.8639 C   0  0  0  0  0  0  0  0  0  0  0  0
   18.2431  -17.3956  -15.9340 N   0  0  0  0  0  0  0  0  0  0  0  0
   21.8029  -16.6195  -17.9659 C   0  0  0  0  0  0  0  0  0  0  0  0
   22.2683  -15.4637  -17.9726 O   0  0  0  0  0  0  0  0  0  0  0  0
   21.1927  -17.1072  -19.0934 O   0  0  0  0  0  0  0  0  0  0  0  0
  2  1  1  1
  2  3  1  0
  4  2  1  0
  4  5  1  1
  6  4  1  0
  6  7  2  0
  8  6  1  0
  9  8  1  0
 10  9  1  0
 10 11  1  0
 11 12  1  0
 12  8  1  0
 12 13  1  6
 14 13  2  0
 15 13  1  0
 16 17  1  1
 16 15  1  0
 18 17  1  0
 19 18  2  0
 20 21  1  0
 20 19  1  0
 21 22  2  0
 22 18  1  0
 23 25  1  0
 23 16  1  0
 24 23  2  0
M  END
$$$$
