ACP.pdb
     RDKit          3D

 19 19  0  0  1  0  0  0  0  0999 V2000
    9.6986  -16.2734   20.0211 C   0  0  0  0  0  0  0  0  0  0  0  0
   10.1931  -16.8984   21.2836 C   0  0  2  0  0  0  0  0  0  0  0  0
    9.6109  -18.2425   21.3530 N   0  0  0  0  0  0  0  0  0  0  0  0
    9.8375  -16.1698   22.5035 C   0  0  0  0  0  0  0  0  0  0  0  0
   10.2255  -14.9898   22.7492 O   0  0  0  0  0  0  0  0  0  0  0  0
    9.0091  -16.7475   23.5227 N   0  0  0  0  0  0  0  0  0  0  0  0
    8.6800  -16.0635   24.7087 C   0  0  1  0  0  0  0  0  0  0  0  0
    7.2567  -16.4009   25.1888 C   0  0  0  0  0  0  0  0  0  0  0  0
    7.2646  -17.9930   26.0463 S   0  0  0  0  0  0  0  0  0  0  0  0
    9.6175  -16.0919   25.8120 C   0  0  0  0  0  0  0  0  0  0  0  0
   10.4501  -17.0769   25.9044 O   0  0  0  0  0  0  0  0  0  0  0  0
    9.7206  -15.1340   26.8196 N   0  0  0  0  0  0  0  0  0  0  0  0
    8.8993  -13.9713   27.0066 C   0  0  0  0  0  0  0  0  0  0  0  0
    9.0569  -13.6892   28.5109 C   0  0  0  0  0  0  0  0  0  0  0  0
   10.5412  -13.9083   28.6725 C   0  0  0  0  0  0  0  0  0  0  0  0
   10.7292  -15.1857   27.8983 C   0  0  1  0  0  0  0  0  0  0  0  0
   10.5228  -16.3513   28.7611 C   0  0  0  0  0  0  0  0  0  0  0  0
    9.4538  -17.0042   28.6730 O   0  0  0  0  0  0  0  0  0  0  0  0
   11.4789  -16.7528   29.6740 O   0  0  0  0  0  0  0  0  0  0  0  0
  2  1  1  6
  2  3  1  0
  4  2  1  0
  5  4  2  0
  6  4  1  0
  7  8  1  1
  7  6  1  0
  9  8  1  0
 10 12  1  0
 10  7  1  0
 11 10  2  0
 12 16  1  0
 13 14  1  0
 13 12  1  0
 14 15  1  0
 15 16  1  0
 16 17  1  1
 17 18  2  0
 17 19  1  0
M  END
$$$$
