ACP.pdb
     RDKit          3D

 19 19  0  0  1  0  0  0  0  0999 V2000
    7.6766  -19.6825   23.7544 C   0  0  0  0  0  0  0  0  0  0  0  0
    6.4810  -18.9084   24.2018 C   0  0  2  0  0  0  0  0  0  0  0  0
    5.2989  -19.6233   23.7098 N   0  0  0  0  0  0  0  0  0  0  0  0
    6.4314  -17.5285   23.7131 C   0  0  0  0  0  0  0  0  0  0  0  0
    5.8352  -17.1861   22.6498 O   0  0  0  0  0  0  0  0  0  0  0  0
    7.0621  -16.4477   24.4153 N   0  0  0  0  0  0  0  0  0  0  0  0
    7.3261  -15.2038   23.8106 C   0  0  1  0  0  0  0  0  0  0  0  0
    7.7307  -14.1379   24.8451 C   0  0  0  0  0  0  0  0  0  0  0  0
    6.3680  -13.8638   26.0019 S   0  0  0  0  0  0  0  0  0  0  0  0
    8.2005  -15.1619   22.6571 C   0  0  0  0  0  0  0  0  0  0  0  0
    9.1680  -16.0155   22.5701 O   0  0  0  0  0  0  0  0  0  0  0  0
    8.1041  -14.2670   21.5925 N   0  0  0  0  0  0  0  0  0  0  0  0
    7.1643  -13.1927   21.4370 C   0  0  0  0  0  0  0  0  0  0  0  0
    7.8999  -12.2415   20.4771 C   0  0  0  0  0  0  0  0  0  0  0  0
    8.4630  -13.2354   19.4910 C   0  0  0  0  0  0  0  0  0  0  0  0
    9.0048  -14.2877   20.4213 C   0  0  1  0  0  0  0  0  0  0  0  0
   10.3836  -13.9792   20.8078 C   0  0  0  0  0  0  0  0  0  0  0  0
   10.6158  -13.5134   21.9506 O   0  0  0  0  0  0  0  0  0  0  0  0
   11.4405  -14.1886   19.9431 O   0  0  0  0  0  0  0  0  0  0  0  0
  2  1  1  6
  2  3  1  0
  4  2  1  0
  5  4  2  0
  6  4  1  0
  7  8  1  1
  7  6  1  0
  9  8  1  0
 10 12  1  0
 10  7  1  0
 11 10  2  0
 12 16  1  0
 13 14  1  0
 13 12  1  0
 14 15  1  0
 15 16  1  0
 16 17  1  1
 17 18  2  0
 17 19  1  0
M  END
$$$$
