ACP.pdb
     RDKit          3D

 19 19  0  0  1  0  0  0  0  0999 V2000
    8.4463  -17.1618   21.4363 C   0  0  0  0  0  0  0  0  0  0  0  0
    8.4366  -15.6706   21.3651 C   0  0  2  0  0  0  0  0  0  0  0  0
    9.4474  -15.2822   20.3764 N   0  0  0  0  0  0  0  0  0  0  0  0
    8.7370  -14.9987   22.6315 C   0  0  0  0  0  0  0  0  0  0  0  0
    9.9139  -14.7530   23.0287 O   0  0  0  0  0  0  0  0  0  0  0  0
    7.7042  -14.5613   23.5264 N   0  0  0  0  0  0  0  0  0  0  0  0
    7.9800  -14.0548   24.8111 C   0  0  1  0  0  0  0  0  0  0  0  0
    6.7731  -13.3042   25.4025 C   0  0  0  0  0  0  0  0  0  0  0  0
    6.2772  -14.0791   26.9593 S   0  0  0  0  0  0  0  0  0  0  0  0
    8.5722  -14.9370   25.7949 C   0  0  0  0  0  0  0  0  0  0  0  0
    8.3223  -16.2042   25.7346 O   0  0  0  0  0  0  0  0  0  0  0  0
    9.4143  -14.5493   26.8362 N   0  0  0  0  0  0  0  0  0  0  0  0
    9.5459  -13.2406   27.4117 C   0  0  0  0  0  0  0  0  0  0  0  0
   10.0874  -13.5473   28.8189 C   0  0  0  0  0  0  0  0  0  0  0  0
   11.1088  -14.6083   28.4897 C   0  0  0  0  0  0  0  0  0  0  0  0
   10.3269  -15.4749   27.5390 C   0  0  1  0  0  0  0  0  0  0  0  0
    9.5804  -16.5032   28.2678 C   0  0  0  0  0  0  0  0  0  0  0  0
   10.2046  -17.4230   28.8519 O   0  0  0  0  0  0  0  0  0  0  0  0
    8.2003  -16.4870   28.3293 O   0  0  0  0  0  0  0  0  0  0  0  0
  2  1  1  1
  2  3  1  0
  4  2  1  0
  5  4  2  0
  6  4  1  0
  7  8  1  1
  7  6  1  0
  9  8  1  0
 10 12  1  0
 10  7  1  0
 11 10  2  0
 12 16  1  0
 13 14  1  0
 13 12  1  0
 14 15  1  0
 15 16  1  0
 16 17  1  1
 17 18  2  0
 17 19  1  0
M  END
$$$$
