ACP.pdb
     RDKit          3D

 19 19  0  0  1  0  0  0  0  0999 V2000
    7.7802  -19.6982   23.9037 C   0  0  0  0  0  0  0  0  0  0  0  0
    6.5359  -18.9857   24.3195 C   0  0  2  0  0  0  0  0  0  0  0  0
    5.4048  -19.7542   23.7902 N   0  0  0  0  0  0  0  0  0  0  0  0
    6.4334  -17.6069   23.8357 C   0  0  0  0  0  0  0  0  0  0  0  0
    5.9019  -17.2934   22.7301 O   0  0  0  0  0  0  0  0  0  0  0  0
    6.9329  -16.4943   24.5918 N   0  0  0  0  0  0  0  0  0  0  0  0
    7.1698  -15.2320   24.0145 C   0  0  1  0  0  0  0  0  0  0  0  0
    7.4418  -14.1559   25.0812 C   0  0  0  0  0  0  0  0  0  0  0  0
    5.8911  -13.6919   25.8875 S   0  0  0  0  0  0  0  0  0  0  0  0
    8.1192  -15.1314   22.9256 C   0  0  0  0  0  0  0  0  0  0  0  0
    9.1441  -15.9198   22.9102 O   0  0  0  0  0  0  0  0  0  0  0  0
    8.0402  -14.2432   21.8541 N   0  0  0  0  0  0  0  0  0  0  0  0
    7.0910  -13.1822   21.6673 C   0  0  0  0  0  0  0  0  0  0  0  0
    7.8400  -12.2262   20.7227 C   0  0  0  0  0  0  0  0  0  0  0  0
    8.4427  -13.2175   19.7577 C   0  0  0  0  0  0  0  0  0  0  0  0
    8.9727  -14.2579   20.7079 C   0  0  1  0  0  0  0  0  0  0  0  0
   10.3363  -13.9293   21.1302 C   0  0  0  0  0  0  0  0  0  0  0  0
   10.5340  -13.4784   22.2854 O   0  0  0  0  0  0  0  0  0  0  0  0
   11.4159  -14.1036   20.2860 O   0  0  0  0  0  0  0  0  0  0  0  0
  2  1  1  6
  2  3  1  0
  4  2  1  0
  5  4  2  0
  6  4  1  0
  7  8  1  1
  7  6  1  0
  9  8  1  0
 10 12  1  0
 10  7  1  0
 11 10  2  0
 12 16  1  0
 13 14  1  0
 13 12  1  0
 14 15  1  0
 15 16  1  0
 16 17  1  1
 17 18  2  0
 17 19  1  0
M  END
$$$$
