ACP.pdb
     RDKit          3D

 19 19  0  0  1  0  0  0  0  0999 V2000
    7.3856  -19.9294   23.7066 C   0  0  0  0  0  0  0  0  0  0  0  0
    6.2081  -19.1120   24.1240 C   0  0  2  0  0  0  0  0  0  0  0  0
    5.0217  -19.7334   23.5269 N   0  0  0  0  0  0  0  0  0  0  0  0
    6.2626  -17.7089   23.7070 C   0  0  0  0  0  0  0  0  0  0  0  0
    5.7311  -17.2766   22.6422 O   0  0  0  0  0  0  0  0  0  0  0  0
    6.9299  -16.7067   24.4876 N   0  0  0  0  0  0  0  0  0  0  0  0
    7.2510  -15.4359   23.9732 C   0  0  1  0  0  0  0  0  0  0  0  0
    7.6349  -14.4464   25.0883 C   0  0  0  0  0  0  0  0  0  0  0  0
    6.1673  -14.0178   26.0540 S   0  0  0  0  0  0  0  0  0  0  0  0
    8.1769  -15.3477   22.8632 C   0  0  0  0  0  0  0  0  0  0  0  0
    9.1590  -16.1861   22.7955 O   0  0  0  0  0  0  0  0  0  0  0  0
    8.1171  -14.4216   21.8229 N   0  0  0  0  0  0  0  0  0  0  0  0
    7.1804  -13.3450   21.6647 C   0  0  0  0  0  0  0  0  0  0  0  0
    7.9481  -12.3642   20.7614 C   0  0  0  0  0  0  0  0  0  0  0  0
    8.5503  -13.3271   19.7677 C   0  0  0  0  0  0  0  0  0  0  0  0
    9.0605  -14.4057   20.6857 C   0  0  1  0  0  0  0  0  0  0  0  0
   10.4232  -14.1062   21.1320 C   0  0  0  0  0  0  0  0  0  0  0  0
   11.3734  -14.1881   20.3151 O   0  0  0  0  0  0  0  0  0  0  0  0
   10.6913  -13.7340   22.4352 O   0  0  0  0  0  0  0  0  0  0  0  0
  2  1  1  6
  2  3  1  0
  4  2  1  0
  5  4  2  0
  6  4  1  0
  7  8  1  1
  7  6  1  0
  9  8  1  0
 10 12  1  0
 10  7  1  0
 11 10  2  0
 12 16  1  0
 13 14  1  0
 13 12  1  0
 14 15  1  0
 15 16  1  0
 16 17  1  1
 17 18  2  0
 17 19  1  0
M  END
$$$$
