ACP.pdb
     RDKit          3D

 19 19  0  0  1  0  0  0  0  0999 V2000
    9.8254  -12.9982   19.7903 C   0  0  0  0  0  0  0  0  0  0  0  0
    8.7438  -14.0230   19.6974 C   0  0  2  0  0  0  0  0  0  0  0  0
    7.9210  -13.6735   18.5351 N   0  0  0  0  0  0  0  0  0  0  0  0
    7.8789  -14.1039   20.8768 C   0  0  0  0  0  0  0  0  0  0  0  0
    6.8018  -13.4494   20.9980 O   0  0  0  0  0  0  0  0  0  0  0  0
    8.1926  -14.9449   21.9963 N   0  0  0  0  0  0  0  0  0  0  0  0
    7.4264  -14.9498   23.1777 C   0  0  1  0  0  0  0  0  0  0  0  0
    6.6425  -16.2639   23.3470 C   0  0  0  0  0  0  0  0  0  0  0  0
    7.1850  -17.1070   24.8520 S   0  0  0  0  0  0  0  0  0  0  0  0
    8.0607  -14.5630   24.4206 C   0  0  0  0  0  0  0  0  0  0  0  0
    9.2015  -15.0852   24.7334 O   0  0  0  0  0  0  0  0  0  0  0  0
    7.5527  -13.6535   25.3471 N   0  0  0  0  0  0  0  0  0  0  0  0
    6.3305  -12.9055   25.2569 C   0  0  0  0  0  0  0  0  0  0  0  0
    6.0140  -12.6033   26.7320 C   0  0  0  0  0  0  0  0  0  0  0  0
    7.3877  -12.2284   27.2315 C   0  0  0  0  0  0  0  0  0  0  0  0
    8.2238  -13.3214   26.6210 C   0  0  1  0  0  0  0  0  0  0  0  0
    8.2838  -14.4860   27.5074 C   0  0  0  0  0  0  0  0  0  0  0  0
    7.5110  -15.4555   27.3078 O   0  0  0  0  0  0  0  0  0  0  0  0
    9.1733  -14.5456   28.5629 O   0  0  0  0  0  0  0  0  0  0  0  0
  2  1  1  1
  2  3  1  0
  4  2  1  0
  5  4  2  0
  6  4  1  0
  7  8  1  1
  7  6  1  0
  9  8  1  0
 10 12  1  0
 10  7  1  0
 11 10  2  0
 12 16  1  0
 13 14  1  0
 13 12  1  0
 14 15  1  0
 15 16  1  0
 16 17  1  1
 17 18  2  0
 17 19  1  0
M  END
$$$$
