ACP.pdb
     RDKit          3D

 19 19  0  0  1  0  0  0  0  0999 V2000
    9.2068  -17.0914   21.3433 C   0  0  0  0  0  0  0  0  0  0  0  0
    8.7337  -15.6754   21.3449 C   0  0  2  0  0  0  0  0  0  0  0  0
    9.5574  -14.9473   20.3745 N   0  0  0  0  0  0  0  0  0  0  0  0
    8.8321  -15.0022   22.6421 C   0  0  0  0  0  0  0  0  0  0  0  0
    9.8873  -14.4389   23.0573 O   0  0  0  0  0  0  0  0  0  0  0  0
    7.7227  -14.9288   23.5492 N   0  0  0  0  0  0  0  0  0  0  0  0
    7.8498  -14.4366   24.8623 C   0  0  1  0  0  0  0  0  0  0  0  0
    6.4846  -14.0689   25.4713 C   0  0  0  0  0  0  0  0  0  0  0  0
    6.7117  -13.4846   27.1675 S   0  0  0  0  0  0  0  0  0  0  0  0
    8.6545  -15.1796   25.8095 C   0  0  0  0  0  0  0  0  0  0  0  0
    8.6596  -16.4715   25.7531 O   0  0  0  0  0  0  0  0  0  0  0  0
    9.4533  -14.6283   26.8103 N   0  0  0  0  0  0  0  0  0  0  0  0
    9.5223  -13.2521   27.2137 C   0  0  0  0  0  0  0  0  0  0  0  0
   10.0357  -13.3534   28.6607 C   0  0  0  0  0  0  0  0  0  0  0  0
   11.1029  -14.4074   28.4953 C   0  0  0  0  0  0  0  0  0  0  0  0
   10.3788  -15.4192   27.6479 C   0  0  1  0  0  0  0  0  0  0  0  0
    9.6498  -16.3732   28.4871 C   0  0  0  0  0  0  0  0  0  0  0  0
    8.3941  -16.3583   28.4924 O   0  0  0  0  0  0  0  0  0  0  0  0
   10.3115  -17.2935   29.2769 O   0  0  0  0  0  0  0  0  0  0  0  0
  2  1  1  1
  2  3  1  0
  4  2  1  0
  5  4  2  0
  6  4  1  0
  7  8  1  1
  7  6  1  0
  9  8  1  0
 10 12  1  0
 10  7  1  0
 11 10  2  0
 12 16  1  0
 13 14  1  0
 13 12  1  0
 14 15  1  0
 15 16  1  0
 16 17  1  1
 17 18  2  0
 17 19  1  0
M  END
$$$$
