ACP.pdb
     RDKit          3D

 19 19  0  0  1  0  0  0  0  0999 V2000
   11.5112  -16.4902   21.3669 C   0  0  0  0  0  0  0  0  0  0  0  0
   10.0865  -16.5089   20.9212 C   0  0  2  0  0  0  0  0  0  0  0  0
   10.0242  -15.7734   19.6541 N   0  0  0  0  0  0  0  0  0  0  0  0
    9.1457  -15.8992   21.8640 C   0  0  0  0  0  0  0  0  0  0  0  0
    8.8478  -14.6686   21.8545 O   0  0  0  0  0  0  0  0  0  0  0  0
    8.4815  -16.6637   22.8804 N   0  0  0  0  0  0  0  0  0  0  0  0
    7.6597  -16.0708   23.8581 C   0  0  1  0  0  0  0  0  0  0  0  0
    6.6342  -17.0684   24.4266 C   0  0  0  0  0  0  0  0  0  0  0  0
    6.3007  -16.6773   26.1604 S   0  0  0  0  0  0  0  0  0  0  0  0
    8.2810  -15.3072   24.9201 C   0  0  0  0  0  0  0  0  0  0  0  0
    9.3938  -15.7266   25.4279 O   0  0  0  0  0  0  0  0  0  0  0  0
    7.7881  -14.1251   25.4707 N   0  0  0  0  0  0  0  0  0  0  0  0
    6.5881  -13.4260   25.1067 C   0  0  0  0  0  0  0  0  0  0  0  0
    6.2637  -12.6315   26.3838 C   0  0  0  0  0  0  0  0  0  0  0  0
    7.6417  -12.1390   26.7525 C   0  0  0  0  0  0  0  0  0  0  0  0
    8.4540  -13.3930   26.5680 C   0  0  1  0  0  0  0  0  0  0  0  0
    8.4721  -14.1861   27.7995 C   0  0  0  0  0  0  0  0  0  0  0  0
    7.8144  -15.2542   27.8567 O   0  0  0  0  0  0  0  0  0  0  0  0
    9.1980  -13.7871   28.9052 O   0  0  0  0  0  0  0  0  0  0  0  0
  2  1  1  1
  2  3  1  0
  4  2  1  0
  5  4  2  0
  6  4  1  0
  7  8  1  1
  7  6  1  0
  9  8  1  0
 10 12  1  0
 10  7  1  0
 11 10  2  0
 12 16  1  0
 13 14  1  0
 13 12  1  0
 14 15  1  0
 15 16  1  0
 16 17  1  1
 17 18  2  0
 17 19  1  0
M  END
$$$$
