WLS.pdb
     RDKit          3D

 29 30  0  0  1  0  0  0  0  0999 V2000
    7.7331  -17.9711   26.0599 N   0  0  0  0  0  0  0  0  0  0  0  0
    7.7809  -16.7091   25.3474 C   0  0  1  0  0  0  0  0  0  0  0  0
    9.1295  -16.0838   25.6369 C   0  0  0  0  0  0  0  0  0  0  0  0
    9.0900  -15.1701   26.8069 C   0  0  0  0  0  0  0  0  0  0  0  0
    9.7014  -15.3206   28.0395 C   0  0  0  0  0  0  0  0  0  0  0  0
    9.3779  -14.2412   28.7707 N   0  0  0  0  0  0  0  0  0  0  0  0
    8.5999  -13.4074   28.0911 C   0  0  0  0  0  0  0  0  0  0  0  0
    8.0163  -12.1898   28.3997 C   0  0  0  0  0  0  0  0  0  0  0  0
    7.2555  -11.5896   27.4369 C   0  0  0  0  0  0  0  0  0  0  0  0
    7.0515  -12.1412   26.1929 C   0  0  0  0  0  0  0  0  0  0  0  0
    7.6248  -13.3430   25.8816 C   0  0  0  0  0  0  0  0  0  0  0  0
    8.3958  -13.9698   26.8318 C   0  0  0  0  0  0  0  0  0  0  0  0
    7.7805  -16.9962   23.8685 C   0  0  0  0  0  0  0  0  0  0  0  0
    7.6674  -18.1705   23.4345 O   0  0  0  0  0  0  0  0  0  0  0  0
    6.9629  -13.5491   22.5599 C   0  0  0  0  0  0  0  0  0  0  0  0
    7.9888  -13.7083   21.4426 C   0  0  2  0  0  0  0  0  0  0  0  0
    7.9709  -12.5285   20.5187 C   0  0  0  0  0  0  0  0  0  0  0  0
    7.7646  -14.9857   20.6835 C   0  0  0  0  0  0  0  0  0  0  0  0
    7.8876  -16.2367   21.4899 C   0  0  2  0  0  0  0  0  0  0  0  0
    7.9077  -15.9525   22.9172 N   0  0  0  0  0  0  0  0  0  0  0  0
    8.9990  -17.0912   21.0820 C   0  0  0  0  0  0  0  0  0  0  0  0
    9.0355  -17.6178   19.9504 O   0  0  0  0  0  0  0  0  0  0  0  0
   13.1089  -16.5776   21.0034 O   0  0  0  0  0  0  0  0  0  0  0  0
   12.0254  -17.2156   20.4006 C   0  0  0  0  0  0  0  0  0  0  0  0
   11.3270  -18.0136   21.4812 C   0  0  2  0  0  0  0  0  0  0  0  0
   10.1159  -17.3883   21.9314 N   0  0  0  0  0  0  0  0  0  0  0  0
   12.2743  -18.1900   22.5891 C   0  0  0  0  0  0  0  0  0  0  0  0
   11.9881  -17.7245   23.7173 O   0  0  0  0  0  0  0  0  0  0  0  0
   13.4783  -18.8533   22.4379 O   0  0  0  0  0  0  0  0  0  0  0  0
  2  1  1  1
  2 13  1  0
  3  2  1  0
  4  3  1  0
  4 12  1  0
  5  6  1  0
  5  4  2  0
  6  7  1  0
  7 12  2  0
  7  8  1  0
  8  9  2  0
  9 10  1  0
 11 10  2  0
 12 11  1  0
 13 14  2  0
 16 18  1  0
 16 15  1  1
 17 16  1  0
 19 18  1  6
 19 21  1  0
 20 19  1  0
 20 13  1  0
 21 22  2  0
 23 24  1  0
 25 24  1  6
 25 27  1  0
 26 25  1  0
 26 21  1  0
 27 28  2  0
 27 29  1  0
M  END
$$$$
