WLS.pdb
     RDKit          3D

 29 30  0  0  1  0  0  0  0  0999 V2000
    9.0797  -16.5437   25.1027 N   0  0  0  0  0  0  0  0  0  0  0  0
    7.8565  -17.0263   24.4916 C   0  0  1  0  0  0  0  0  0  0  0  0
    6.7183  -16.2071   25.0635 C   0  0  0  0  0  0  0  0  0  0  0  0
    7.1667  -15.2930   26.1447 C   0  0  0  0  0  0  0  0  0  0  0  0
    7.8908  -15.5958   27.2848 C   0  0  0  0  0  0  0  0  0  0  0  0
    8.0555  -14.4463   27.9599 N   0  0  0  0  0  0  0  0  0  0  0  0
    7.4861  -13.4254   27.3305 C   0  0  0  0  0  0  0  0  0  0  0  0
    7.3833  -12.0738   27.6147 C   0  0  0  0  0  0  0  0  0  0  0  0
    6.7086  -11.2885   26.7236 C   0  0  0  0  0  0  0  0  0  0  0  0
    6.1372  -11.7829   25.5737 C   0  0  0  0  0  0  0  0  0  0  0  0
    6.2350  -13.1164   25.2870 C   0  0  0  0  0  0  0  0  0  0  0  0
    6.9086  -13.9306   26.1665 C   0  0  0  0  0  0  0  0  0  0  0  0
    7.8932  -16.6925   23.0231 C   0  0  0  0  0  0  0  0  0  0  0  0
    7.0328  -17.1524   22.2304 O   0  0  0  0  0  0  0  0  0  0  0  0
    6.4929  -14.3086   20.3386 C   0  0  0  0  0  0  0  0  0  0  0  0
    7.6891  -13.6013   20.9672 C   0  0  2  0  0  0  0  0  0  0  0  0
    7.7338  -12.1567   20.5710 C   0  0  0  0  0  0  0  0  0  0  0  0
    8.9737  -14.2942   20.6095 C   0  0  0  0  0  0  0  0  0  0  0  0
    9.0732  -15.7187   21.0469 C   0  0  2  0  0  0  0  0  0  0  0  0
    8.8985  -15.8491   22.4859 N   0  0  0  0  0  0  0  0  0  0  0  0
   10.2775  -16.3952   20.5740 C   0  0  0  0  0  0  0  0  0  0  0  0
   10.5949  -16.3935   19.3663 O   0  0  0  0  0  0  0  0  0  0  0  0
   12.4806  -18.5379   23.2000 O   0  0  0  0  0  0  0  0  0  0  0  0
   13.2950  -18.1124   22.1511 C   0  0  0  0  0  0  0  0  0  0  0  0
   12.3792  -17.7478   21.0019 C   0  0  2  0  0  0  0  0  0  0  0  0
   11.1751  -17.1017   21.4414 N   0  0  0  0  0  0  0  0  0  0  0  0
   12.0784  -18.9800   20.2623 C   0  0  0  0  0  0  0  0  0  0  0  0
   13.0111  -19.5926   19.6912 O   0  0  0  0  0  0  0  0  0  0  0  0
   10.7988  -19.4962   20.1690 O   0  0  0  0  0  0  0  0  0  0  0  0
  2  1  1  1
  2 13  1  0
  3  2  1  0
  4  3  1  0
  4 12  1  0
  5  6  1  0
  5  4  2  0
  6  7  1  0
  7 12  2  0
  7  8  1  0
  8  9  2  0
  9 10  1  0
 11 10  2  0
 12 11  1  0
 13 14  2  0
 16 18  1  0
 16 15  1  6
 17 16  1  0
 19 18  1  1
 19 21  1  0
 20 19  1  0
 20 13  1  0
 21 22  2  0
 23 24  1  0
 25 24  1  1
 25 27  1  0
 26 25  1  0
 26 21  1  0
 27 28  2  0
 27 29  1  0
M  END
$$$$
