WLS.pdb
     RDKit          3D

 29 30  0  0  1  0  0  0  0  0999 V2000
   10.8525  -18.2638   15.3542 N   0  0  0  0  0  0  0  0  0  0  0  0
   10.2132  -18.5239   16.6295 C   0  0  1  0  0  0  0  0  0  0  0  0
   11.0135  -19.6107   17.3166 C   0  0  0  0  0  0  0  0  0  0  0  0
   10.7823  -20.9490   16.7159 C   0  0  0  0  0  0  0  0  0  0  0  0
    9.6810  -21.7764   16.8514 C   0  0  0  0  0  0  0  0  0  0  0  0
    9.9288  -22.8790   16.1253 N   0  0  0  0  0  0  0  0  0  0  0  0
   11.1149  -22.8159   15.5324 C   0  0  0  0  0  0  0  0  0  0  0  0
   11.8067  -23.6800   14.7000 C   0  0  0  0  0  0  0  0  0  0  0  0
   13.0389  -23.2863   14.2610 C   0  0  0  0  0  0  0  0  0  0  0  0
   13.6080  -22.0830   14.6097 C   0  0  0  0  0  0  0  0  0  0  0  0
   12.9304  -21.2251   15.4312 C   0  0  0  0  0  0  0  0  0  0  0  0
   11.6879  -21.5956   15.8882 C   0  0  0  0  0  0  0  0  0  0  0  0
   10.3667  -17.3024   17.4977 C   0  0  0  0  0  0  0  0  0  0  0  0
   11.4382  -16.6454   17.5115 O   0  0  0  0  0  0  0  0  0  0  0  0
    6.9509  -13.6609   21.2551 C   0  0  0  0  0  0  0  0  0  0  0  0
    8.2944  -13.9853   20.6102 C   0  0  2  0  0  0  0  0  0  0  0  0
    8.8014  -12.8286   19.8035 C   0  0  0  0  0  0  0  0  0  0  0  0
    8.2017  -15.2258   19.7671 C   0  0  0  0  0  0  0  0  0  0  0  0
    9.5036  -15.7459   19.2524 C   0  0  2  0  0  0  0  0  0  0  0  0
    9.3087  -16.8532   18.3280 N   0  0  0  0  0  0  0  0  0  0  0  0
   10.4641  -16.0678   20.3038 C   0  0  0  0  0  0  0  0  0  0  0  0
   10.3326  -17.0832   21.0186 O   0  0  0  0  0  0  0  0  0  0  0  0
   14.3719  -15.0091   20.1953 O   0  0  0  0  0  0  0  0  0  0  0  0
   13.8505  -14.7509   21.4626 C   0  0  0  0  0  0  0  0  0  0  0  0
   12.5894  -15.5778   21.5972 C   0  0  2  0  0  0  0  0  0  0  0  0
   11.6130  -15.2599   20.5941 N   0  0  0  0  0  0  0  0  0  0  0  0
   12.0527  -15.3575   22.9460 C   0  0  0  0  0  0  0  0  0  0  0  0
   10.9166  -14.8434   23.0747 O   0  0  0  0  0  0  0  0  0  0  0  0
   12.7542  -15.6962   24.0886 O   0  0  0  0  0  0  0  0  0  0  0  0
  2  1  1  6
  2 13  1  0
  3  2  1  0
  4  3  1  0
  4 12  1  0
  5  6  1  0
  5  4  2  0
  6  7  1  0
  7 12  2  0
  7  8  1  0
  8  9  2  0
  9 10  1  0
 11 10  2  0
 12 11  1  0
 13 14  2  0
 16 18  1  0
 16 15  1  6
 17 16  1  0
 19 18  1  1
 19 21  1  0
 20 19  1  0
 20 13  1  0
 21 22  2  0
 23 24  1  0
 25 24  1  6
 25 27  1  0
 26 25  1  0
 26 21  1  0
 27 28  2  0
 27 29  1  0
M  END
$$$$
