WLS.pdb
     RDKit          3D

 29 30  0  0  1  0  0  0  0  0999 V2000
    6.6616  -18.0117   24.0584 N   0  0  0  0  0  0  0  0  0  0  0  0
    7.0156  -16.6431   23.7353 C   0  0  1  0  0  0  0  0  0  0  0  0
    7.7998  -16.0957   24.9097 C   0  0  0  0  0  0  0  0  0  0  0  0
    6.9831  -15.1992   25.7667 C   0  0  0  0  0  0  0  0  0  0  0  0
    5.8024  -15.4819   26.4314 C   0  0  0  0  0  0  0  0  0  0  0  0
    5.4383  -14.3607   27.0755 N   0  0  0  0  0  0  0  0  0  0  0  0
    6.3054  -13.3767   26.8694 C   0  0  0  0  0  0  0  0  0  0  0  0
    6.3710  -12.0634   27.3042 C   0  0  0  0  0  0  0  0  0  0  0  0
    7.4321  -11.3105   26.8883 C   0  0  0  0  0  0  0  0  0  0  0  0
    8.4212  -11.8010   26.0671 C   0  0  0  0  0  0  0  0  0  0  0  0
    8.3626  -13.0967   25.6341 C   0  0  0  0  0  0  0  0  0  0  0  0
    7.3055  -13.8778   26.0372 C   0  0  0  0  0  0  0  0  0  0  0  0
    7.9823  -16.6607   22.5801 C   0  0  0  0  0  0  0  0  0  0  0  0
    8.4833  -17.7375   22.1683 O   0  0  0  0  0  0  0  0  0  0  0  0
    6.5967  -13.7821   19.7209 C   0  0  0  0  0  0  0  0  0  0  0  0
    7.9267  -13.3535   20.3321 C   0  0  2  0  0  0  0  0  0  0  0  0
    8.2475  -11.9307   19.9880 C   0  0  0  0  0  0  0  0  0  0  0  0
    9.0370  -14.2711   19.9037 C   0  0  0  0  0  0  0  0  0  0  0  0
    9.2053  -15.5002   20.7352 C   0  0  2  0  0  0  0  0  0  0  0  0
    8.3595  -15.4643   21.9191 N   0  0  0  0  0  0  0  0  0  0  0  0
   10.5961  -15.8033   21.0600 C   0  0  0  0  0  0  0  0  0  0  0  0
   11.4831  -15.8162   20.1812 O   0  0  0  0  0  0  0  0  0  0  0  0
   11.5640  -16.8870   24.8701 O   0  0  0  0  0  0  0  0  0  0  0  0
   12.6815  -16.4000   24.1930 C   0  0  0  0  0  0  0  0  0  0  0  0
   12.3837  -16.5122   22.7129 C   0  0  2  0  0  0  0  0  0  0  0  0
   11.0462  -16.1044   22.3881 N   0  0  0  0  0  0  0  0  0  0  0  0
   12.6235  -17.9045   22.3133 C   0  0  0  0  0  0  0  0  0  0  0  0
   11.6663  -18.5898   21.8824 O   0  0  0  0  0  0  0  0  0  0  0  0
   13.8713  -18.4954   22.3935 O   0  0  0  0  0  0  0  0  0  0  0  0
  2  1  1  1
  2 13  1  0
  3  2  1  0
  4  3  1  0
  4 12  1  0
  5  6  1  0
  5  4  2  0
  6  7  1  0
  7 12  2  0
  7  8  1  0
  8  9  2  0
  9 10  1  0
 11 10  2  0
 12 11  1  0
 13 14  2  0
 16 18  1  0
 16 15  1  6
 17 16  1  0
 19 18  1  1
 19 21  1  0
 20 19  1  0
 20 13  1  0
 21 22  2  0
 23 24  1  0
 25 24  1  1
 25 27  1  0
 26 25  1  0
 26 21  1  0
 27 28  2  0
 27 29  1  0
M  END
$$$$
