WLS.pdb
     RDKit          3D

 29 30  0  0  1  0  0  0  0  0999 V2000
    9.1624  -16.4125   24.5185 N   0  0  0  0  0  0  0  0  0  0  0  0
    7.8094  -16.8168   24.1891 C   0  0  1  0  0  0  0  0  0  0  0  0
    6.8727  -15.8590   24.8954 C   0  0  0  0  0  0  0  0  0  0  0  0
    7.5769  -15.0076   25.8877 C   0  0  0  0  0  0  0  0  0  0  0  0
    8.7162  -15.2974   26.6183 C   0  0  0  0  0  0  0  0  0  0  0  0
    8.9742  -14.2232   27.3825 N   0  0  0  0  0  0  0  0  0  0  0  0
    8.0777  -13.2628   27.1921 C   0  0  0  0  0  0  0  0  0  0  0  0
    7.9145  -11.9970   27.7300 C   0  0  0  0  0  0  0  0  0  0  0  0
    6.8523  -11.2561   27.2958 C   0  0  0  0  0  0  0  0  0  0  0  0
    5.9540  -11.7136   26.3593 C   0  0  0  0  0  0  0  0  0  0  0  0
    6.1092  -12.9624   25.8241 C   0  0  0  0  0  0  0  0  0  0  0  0
    7.1697  -13.7304   26.2429 C   0  0  0  0  0  0  0  0  0  0  0  0
    7.5870  -16.5841   22.7175 C   0  0  0  0  0  0  0  0  0  0  0  0
    6.5250  -16.9521   22.1545 O   0  0  0  0  0  0  0  0  0  0  0  0
    6.2808  -13.7540   20.8512 C   0  0  0  0  0  0  0  0  0  0  0  0
    7.7828  -13.4942   20.7986 C   0  0  2  0  0  0  0  0  0  0  0  0
    8.0759  -12.1063   20.3152 C   0  0  0  0  0  0  0  0  0  0  0  0
    8.4767  -14.5164   19.9431 C   0  0  0  0  0  0  0  0  0  0  0  0
    8.4463  -15.9141   20.4683 C   0  0  2  0  0  0  0  0  0  0  0  0
    8.5672  -15.9428   21.9184 N   0  0  0  0  0  0  0  0  0  0  0  0
    9.4011  -16.8066   19.8176 C   0  0  0  0  0  0  0  0  0  0  0  0
    9.3681  -17.0108   18.5861 O   0  0  0  0  0  0  0  0  0  0  0  0
   12.9426  -17.4528   21.3131 O   0  0  0  0  0  0  0  0  0  0  0  0
   12.7877  -17.9915   20.0363 C   0  0  0  0  0  0  0  0  0  0  0  0
   11.3444  -18.4326   19.9162 C   0  0  2  0  0  0  0  0  0  0  0  0
   10.4331  -17.5063   20.5263 N   0  0  0  0  0  0  0  0  0  0  0  0
   11.2320  -19.7638   20.5254 C   0  0  0  0  0  0  0  0  0  0  0  0
   12.2345  -20.5163   20.5378 O   0  0  0  0  0  0  0  0  0  0  0  0
   10.0570  -20.2249   21.0902 O   0  0  0  0  0  0  0  0  0  0  0  0
  2  1  1  1
  2 13  1  0
  3  2  1  0
  4  3  1  0
  4 12  1  0
  5  6  1  0
  5  4  2  0
  6  7  1  0
  7 12  2  0
  7  8  1  0
  8  9  2  0
  9 10  1  0
 11 10  2  0
 12 11  1  0
 13 14  2  0
 16 18  1  0
 16 15  1  6
 17 16  1  0
 19 18  1  6
 19 21  1  0
 20 19  1  0
 20 13  1  0
 21 22  2  0
 23 24  1  0
 25 24  1  1
 25 27  1  0
 26 25  1  0
 26 21  1  0
 27 28  2  0
 27 29  1  0
M  END
$$$$
