WLS.pdb
     RDKit          3D

 29 30  0  0  1  0  0  0  0  0999 V2000
    6.0143  -17.4222   24.9967 N   0  0  0  0  0  0  0  0  0  0  0  0
    6.8825  -16.2955   24.7152 C   0  0  1  0  0  0  0  0  0  0  0  0
    8.0203  -16.3482   25.7134 C   0  0  0  0  0  0  0  0  0  0  0  0
    7.8885  -15.3197   26.7764 C   0  0  0  0  0  0  0  0  0  0  0  0
    7.9947  -15.4781   28.1474 C   0  0  0  0  0  0  0  0  0  0  0  0
    7.7999  -14.2679   28.6968 N   0  0  0  0  0  0  0  0  0  0  0  0
    7.5757  -13.3427   27.7715 C   0  0  0  0  0  0  0  0  0  0  0  0
    7.3257  -11.9818   27.8316 C   0  0  0  0  0  0  0  0  0  0  0  0
    7.1365  -11.3196   26.6518 C   0  0  0  0  0  0  0  0  0  0  0  0
    7.1844  -11.9448   25.4271 C   0  0  0  0  0  0  0  0  0  0  0  0
    7.4308  -13.2882   25.3605 C   0  0  0  0  0  0  0  0  0  0  0  0
    7.6252  -13.9801   26.5325 C   0  0  0  0  0  0  0  0  0  0  0  0
    7.5204  -16.5100   23.3674 C   0  0  0  0  0  0  0  0  0  0  0  0
    7.5762  -17.6541   22.8496 O   0  0  0  0  0  0  0  0  0  0  0  0
    6.5357  -14.4116   19.5948 C   0  0  0  0  0  0  0  0  0  0  0  0
    7.5502  -13.6299   20.4229 C   0  0  2  0  0  0  0  0  0  0  0  0
    7.7991  -12.2738   19.8357 C   0  0  0  0  0  0  0  0  0  0  0  0
    8.8354  -14.3959   20.5638 C   0  0  0  0  0  0  0  0  0  0  0  0
    8.7435  -15.6542   21.3630 C   0  0  2  0  0  0  0  0  0  0  0  0
    8.0790  -15.4298   22.6383 N   0  0  0  0  0  0  0  0  0  0  0  0
   10.0204  -16.3443   21.5204 C   0  0  0  0  0  0  0  0  0  0  0  0
   10.8700  -15.9622   22.3519 O   0  0  0  0  0  0  0  0  0  0  0  0
   10.7484  -19.5559   19.2166 O   0  0  0  0  0  0  0  0  0  0  0  0
   11.5900  -19.5943   20.3278 C   0  0  0  0  0  0  0  0  0  0  0  0
   11.6414  -18.1897   20.8905 C   0  0  2  0  0  0  0  0  0  0  0  0
   10.3940  -17.4937   20.7481 N   0  0  0  0  0  0  0  0  0  0  0  0
   12.7268  -17.4744   20.2076 C   0  0  0  0  0  0  0  0  0  0  0  0
   12.4540  -16.4604   19.5230 O   0  0  0  0  0  0  0  0  0  0  0  0
   14.0474  -17.8766   20.2892 O   0  0  0  0  0  0  0  0  0  0  0  0
  2  1  1  1
  2 13  1  0
  3  2  1  0
  4  3  1  0
  4 12  1  0
  5  6  1  0
  5  4  2  0
  6  7  1  0
  7 12  2  0
  7  8  1  0
  8  9  2  0
  9 10  1  0
 11 10  2  0
 12 11  1  0
 13 14  2  0
 16 18  1  0
 16 15  1  6
 17 16  1  0
 19 18  1  1
 19 21  1  0
 20 19  1  0
 20 13  1  0
 21 22  2  0
 23 24  1  0
 25 24  1  6
 25 27  1  0
 26 25  1  0
 26 21  1  0
 27 28  2  0
 27 29  1  0
M  END
$$$$
