WLS.pdb
     RDKit          3D

 29 30  0  0  1  0  0  0  0  0999 V2000
    6.4390  -18.0193   24.1239 N   0  0  0  0  0  0  0  0  0  0  0  0
    6.8614  -16.6493   23.9064 C   0  0  1  0  0  0  0  0  0  0  0  0
    7.5361  -16.1828   25.1794 C   0  0  0  0  0  0  0  0  0  0  0  0
    6.7958  -15.0777   25.8399 C   0  0  0  0  0  0  0  0  0  0  0  0
    5.4959  -15.0741   26.3154 C   0  0  0  0  0  0  0  0  0  0  0  0
    5.2708  -13.8532   26.8283 N   0  0  0  0  0  0  0  0  0  0  0  0
    6.3383  -13.0722   26.7144 C   0  0  0  0  0  0  0  0  0  0  0  0
    6.5992  -11.7625   27.0815 C   0  0  0  0  0  0  0  0  0  0  0  0
    7.8400  -11.2622   26.8055 C   0  0  0  0  0  0  0  0  0  0  0  0
    8.8231  -11.9995   26.1866 C   0  0  0  0  0  0  0  0  0  0  0  0
    8.5723  -13.2931   25.8215 C   0  0  0  0  0  0  0  0  0  0  0  0
    7.3317  -13.8228   26.0871 C   0  0  0  0  0  0  0  0  0  0  0  0
    7.9404  -16.6443   22.8550 C   0  0  0  0  0  0  0  0  0  0  0  0
    8.4913  -17.7115   22.4841 O   0  0  0  0  0  0  0  0  0  0  0  0
    6.9442  -14.4837   19.3588 C   0  0  0  0  0  0  0  0  0  0  0  0
    7.8656  -13.6420   20.2356 C   0  0  2  0  0  0  0  0  0  0  0  0
    7.9296  -12.2255   19.7508 C   0  0  0  0  0  0  0  0  0  0  0  0
    9.2400  -14.2455   20.3076 C   0  0  0  0  0  0  0  0  0  0  0  0
    9.3636  -15.4476   21.1851 C   0  0  2  0  0  0  0  0  0  0  0  0
    8.3706  -15.4366   22.2492 N   0  0  0  0  0  0  0  0  0  0  0  0
   10.7145  -15.6667   21.6937 C   0  0  0  0  0  0  0  0  0  0  0  0
   11.7218  -15.3764   21.0153 O   0  0  0  0  0  0  0  0  0  0  0  0
   11.2847  -16.9474   25.5509 O   0  0  0  0  0  0  0  0  0  0  0  0
   12.3694  -16.2544   25.0147 C   0  0  0  0  0  0  0  0  0  0  0  0
   12.3070  -16.4321   23.5125 C   0  0  2  0  0  0  0  0  0  0  0  0
   10.9876  -16.2218   22.9877 N   0  0  0  0  0  0  0  0  0  0  0  0
   12.7903  -17.7834   23.2021 C   0  0  0  0  0  0  0  0  0  0  0  0
   13.9411  -18.1195   23.5683 O   0  0  0  0  0  0  0  0  0  0  0  0
   12.0224  -18.7073   22.5172 O   0  0  0  0  0  0  0  0  0  0  0  0
  2  1  1  1
  2 13  1  0
  3  2  1  0
  4  3  1  0
  4 12  1  0
  5  6  1  0
  5  4  2  0
  6  7  1  0
  7 12  2  0
  7  8  1  0
  8  9  2  0
  9 10  1  0
 11 10  2  0
 12 11  1  0
 13 14  2  0
 16 18  1  0
 16 15  1  6
 17 16  1  0
 19 18  1  1
 19 21  1  0
 20 19  1  0
 20 13  1  0
 21 22  2  0
 23 24  1  0
 25 24  1  1
 25 27  1  0
 26 25  1  0
 26 21  1  0
 27 28  2  0
 27 29  1  0
M  END
$$$$
