WLS.pdb
     RDKit          3D

 29 30  0  0  1  0  0  0  0  0999 V2000
    7.3032  -17.8652   23.6834 N   0  0  0  0  0  0  0  0  0  0  0  0
    8.1438  -16.8561   23.0688 C   0  0  1  0  0  0  0  0  0  0  0  0
    7.2837  -15.6278   22.8559 C   0  0  0  0  0  0  0  0  0  0  0  0
    6.6861  -15.1294   24.1207 C   0  0  0  0  0  0  0  0  0  0  0  0
    5.8813  -15.8073   25.0199 C   0  0  0  0  0  0  0  0  0  0  0  0
    5.5876  -14.9460   26.0080 N   0  0  0  0  0  0  0  0  0  0  0  0
    6.1494  -13.7605   25.8043 C   0  0  0  0  0  0  0  0  0  0  0  0
    6.1453  -12.5735   26.5179 C   0  0  0  0  0  0  0  0  0  0  0  0
    6.8499  -11.5224   26.0033 C   0  0  0  0  0  0  0  0  0  0  0  0
    7.5515  -11.5988   24.8221 C   0  0  0  0  0  0  0  0  0  0  0  0
    7.5598  -12.7677   24.1126 C   0  0  0  0  0  0  0  0  0  0  0  0
    6.8590  -13.8422   24.6069 C   0  0  0  0  0  0  0  0  0  0  0  0
    9.1963  -16.4417   24.0638 C   0  0  0  0  0  0  0  0  0  0  0  0
   10.0725  -15.5908   23.7664 O   0  0  0  0  0  0  0  0  0  0  0  0
   10.0332  -14.8318   29.6952 C   0  0  0  0  0  0  0  0  0  0  0  0
   10.6717  -15.2533   28.3757 C   0  0  2  0  0  0  0  0  0  0  0  0
   11.0726  -14.0602   27.5624 C   0  0  0  0  0  0  0  0  0  0  0  0
    9.7523  -16.1491   27.5943 C   0  0  0  0  0  0  0  0  0  0  0  0
   10.2988  -16.6483   26.2972 C   0  0  2  0  0  0  0  0  0  0  0  0
    9.2343  -16.9970   25.3678 N   0  0  0  0  0  0  0  0  0  0  0  0
   11.2748  -17.7238   26.4464 C   0  0  0  0  0  0  0  0  0  0  0  0
   11.1118  -18.6419   27.2770 O   0  0  0  0  0  0  0  0  0  0  0  0
   13.7402  -18.6769   23.4813 O   0  0  0  0  0  0  0  0  0  0  0  0
   14.4544  -18.8594   24.6650 C   0  0  0  0  0  0  0  0  0  0  0  0
   13.4447  -18.8618   25.7930 C   0  0  2  0  0  0  0  0  0  0  0  0
   12.4753  -17.8106   25.6663 N   0  0  0  0  0  0  0  0  0  0  0  0
   14.1854  -18.7484   27.0557 C   0  0  0  0  0  0  0  0  0  0  0  0
   13.9272  -17.7986   27.8320 O   0  0  0  0  0  0  0  0  0  0  0  0
   15.1635  -19.6530   27.4264 O   0  0  0  0  0  0  0  0  0  0  0  0
  2  1  1  1
  2 13  1  0
  3  2  1  0
  4  3  1  0
  4 12  1  0
  5  6  1  0
  5  4  2  0
  6  7  1  0
  7 12  2  0
  7  8  1  0
  8  9  2  0
  9 10  1  0
 11 10  2  0
 12 11  1  0
 13 14  2  0
 16 18  1  0
 16 15  1  1
 17 16  1  0
 19 18  1  1
 19 21  1  0
 20 19  1  0
 20 13  1  0
 21 22  2  0
 23 24  1  0
 25 24  1  6
 25 27  1  0
 26 25  1  0
 26 21  1  0
 27 28  2  0
 27 29  1  0
M  END
$$$$
