WLS.pdb
     RDKit          3D

 29 30  0  0  1  0  0  0  0  0999 V2000
    9.7082  -16.0347   25.4020 N   0  0  0  0  0  0  0  0  0  0  0  0
    8.7305  -17.0325   25.0134 C   0  0  1  0  0  0  0  0  0  0  0  0
    7.4732  -16.7606   25.8128 C   0  0  0  0  0  0  0  0  0  0  0  0
    7.4032  -15.3586   26.2977 C   0  0  0  0  0  0  0  0  0  0  0  0
    6.4368  -14.4030   26.0358 C   0  0  0  0  0  0  0  0  0  0  0  0
    6.8012  -13.2888   26.6915 N   0  0  0  0  0  0  0  0  0  0  0  0
    7.9365  -13.4640   27.3570 C   0  0  0  0  0  0  0  0  0  0  0  0
    8.7013  -12.6369   28.1627 C   0  0  0  0  0  0  0  0  0  0  0  0
    9.8432  -13.1574   28.7023 C   0  0  0  0  0  0  0  0  0  0  0  0
   10.2541  -14.4513   28.4783 C   0  0  0  0  0  0  0  0  0  0  0  0
    9.5037  -15.2733   27.6839 C   0  0  0  0  0  0  0  0  0  0  0  0
    8.3492  -14.7758   27.1275 C   0  0  0  0  0  0  0  0  0  0  0  0
    8.3512  -16.7937   23.5751 C   0  0  0  0  0  0  0  0  0  0  0  0
    7.5261  -17.5387   22.9883 O   0  0  0  0  0  0  0  0  0  0  0  0
    7.8844  -12.4150   19.9351 C   0  0  0  0  0  0  0  0  0  0  0  0
    7.7486  -13.8696   20.3731 C   0  0  2  0  0  0  0  0  0  0  0  0
    6.7568  -14.0093   21.4879 C   0  0  0  0  0  0  0  0  0  0  0  0
    9.0816  -14.4399   20.7684 C   0  0  0  0  0  0  0  0  0  0  0  0
    9.0359  -15.7983   21.3873 C   0  0  2  0  0  0  0  0  0  0  0  0
    8.9118  -15.7217   22.8354 N   0  0  0  0  0  0  0  0  0  0  0  0
   10.1320  -16.6693   20.9731 C   0  0  0  0  0  0  0  0  0  0  0  0
   11.2198  -16.6850   21.5861 O   0  0  0  0  0  0  0  0  0  0  0  0
    9.6823  -20.1568   19.2089 O   0  0  0  0  0  0  0  0  0  0  0  0
   10.6948  -19.5059   18.5050 C   0  0  0  0  0  0  0  0  0  0  0  0
   11.1477  -18.3415   19.3600 C   0  0  2  0  0  0  0  0  0  0  0  0
   10.0490  -17.5592   19.8514 N   0  0  0  0  0  0  0  0  0  0  0  0
   12.0602  -17.5225   18.5521 C   0  0  0  0  0  0  0  0  0  0  0  0
   11.7933  -16.3115   18.3685 O   0  0  0  0  0  0  0  0  0  0  0  0
   13.2103  -18.0360   17.9812 O   0  0  0  0  0  0  0  0  0  0  0  0
  2  1  1  1
  2 13  1  0
  3  2  1  0
  4  3  1  0
  4 12  1  0
  5  6  1  0
  5  4  2  0
  6  7  1  0
  7 12  2  0
  7  8  1  0
  8  9  2  0
  9 10  1  0
 11 10  2  0
 12 11  1  0
 13 14  2  0
 16 18  1  0
 16 15  1  1
 17 16  1  0
 19 18  1  1
 19 21  1  0
 20 19  1  0
 20 13  1  0
 21 22  2  0
 23 24  1  0
 25 24  1  6
 25 27  1  0
 26 25  1  0
 26 21  1  0
 27 28  2  0
 27 29  1  0
M  END
$$$$
