QMM.pdb
     RDKit          3D

 26 25  0  0  1  0  0  0  0  0999 V2000
    9.6339  -17.4788   16.5017 N   0  0  0  0  0  0  0  0  0  0  0  0
    8.3623  -17.0713   17.0132 C   0  0  0  0  0  0  0  0  0  0  0  0
    7.3941  -17.1799   16.2283 O   0  0  0  0  0  0  0  0  0  0  0  0
    8.1876  -16.5497   18.3728 C   0  0  0  0  0  0  0  0  0  0  0  0
    9.4759  -16.4359   19.1218 C   0  0  0  0  0  0  0  0  0  0  0  0
    9.4685  -17.2335   20.3765 C   0  0  2  0  0  0  0  0  0  0  0  0
    8.4782  -18.2552   20.4556 N   0  0  0  0  0  0  0  0  0  0  0  0
    9.4033  -16.3812   21.5841 C   0  0  0  0  0  0  0  0  0  0  0  0
   10.2915  -15.4752   21.7024 O   0  0  0  0  0  0  0  0  0  0  0  0
    7.0997  -12.2185   23.9397 C   0  0  0  0  0  0  0  0  0  0  0  0
    7.9172  -12.9410   25.3975 S   0  0  0  0  0  0  0  0  0  0  0  0
    7.1955  -14.6051   25.6584 C   0  0  0  0  0  0  0  0  0  0  0  0
    7.1502  -15.2664   24.3015 C   0  0  0  0  0  0  0  0  0  0  0  0
    8.5281  -15.6931   23.8276 C   0  0  2  0  0  0  0  0  0  0  0  0
    8.4626  -16.4682   22.6154 N   0  0  0  0  0  0  0  0  0  0  0  0
    9.1814  -16.3993   24.9395 C   0  0  0  0  0  0  0  0  0  0  0  0
    8.5607  -17.2647   25.5901 O   0  0  0  0  0  0  0  0  0  0  0  0
   10.7309  -13.0833   29.7747 C   0  0  0  0  0  0  0  0  0  0  0  0
    9.8933  -14.6846   29.5852 S   0  0  0  0  0  0  0  0  0  0  0  0
    9.8586  -15.1413   27.8196 C   0  0  0  0  0  0  0  0  0  0  0  0
   10.4097  -16.5368   27.7120 C   0  0  0  0  0  0  0  0  0  0  0  0
   11.1589  -16.8049   26.4520 C   0  0  2  0  0  0  0  0  0  0  0  0
   10.5161  -16.1308   25.3094 N   0  0  0  0  0  0  0  0  0  0  0  0
   11.3116  -18.2205   26.0901 C   0  0  0  0  0  0  0  0  0  0  0  0
   12.1279  -19.0442   26.8387 O   0  0  0  0  0  0  0  0  0  0  0  0
   10.7144  -18.6966   25.1127 O   0  0  0  0  0  0  0  0  0  0  0  0
  1  2  1  0
  2  3  2  0
  4  2  1  0
  4  5  1  0
  6  5  1  0
  6  7  1  6
  8  6  1  0
  8  9  2  0
 11 10  1  0
 12 11  1  0
 12 13  1  0
 14 13  1  1
 14 15  1  0
 15  8  1  0
 16 14  1  0
 17 16  2  0
 19 18  1  0
 19 20  1  0
 20 21  1  0
 22 23  1  0
 22 21  1  1
 23 16  1  0
 24 22  1  0
 25 24  1  0
 26 24  2  0
M  END
$$$$
