QMM.pdb
     RDKit          3D

 26 25  0  0  1  0  0  0  0  0999 V2000
   10.5400  -18.5575   17.8268 N   0  0  0  0  0  0  0  0  0  0  0  0
    9.1519  -18.8920   17.7504 C   0  0  0  0  0  0  0  0  0  0  0  0
    8.8578  -19.8475   16.9982 O   0  0  0  0  0  0  0  0  0  0  0  0
    8.1212  -18.1647   18.4986 C   0  0  0  0  0  0  0  0  0  0  0  0
    8.6828  -17.0710   19.3485 C   0  0  0  0  0  0  0  0  0  0  0  0
    8.5064  -17.3407   20.7999 C   0  0  2  0  0  0  0  0  0  0  0  0
    7.1906  -17.7067   21.2069 N   0  0  0  0  0  0  0  0  0  0  0  0
    8.9974  -16.2278   21.6422 C   0  0  0  0  0  0  0  0  0  0  0  0
   10.1498  -15.7583   21.3676 O   0  0  0  0  0  0  0  0  0  0  0  0
    5.4576  -12.9845   25.6295 C   0  0  0  0  0  0  0  0  0  0  0  0
    6.9317  -12.0046   26.0564 S   0  0  0  0  0  0  0  0  0  0  0  0
    8.3430  -12.7079   25.1228 C   0  0  0  0  0  0  0  0  0  0  0  0
    7.7848  -13.8458   24.3017 C   0  0  0  0  0  0  0  0  0  0  0  0
    8.8627  -14.5554   23.5016 C   0  0  2  0  0  0  0  0  0  0  0  0
    8.3241  -15.6352   22.7152 N   0  0  0  0  0  0  0  0  0  0  0  0
    9.9073  -14.9820   24.4442 C   0  0  0  0  0  0  0  0  0  0  0  0
   10.8116  -14.1923   24.7851 O   0  0  0  0  0  0  0  0  0  0  0  0
   10.2130  -13.3980   28.5769 C   0  0  0  0  0  0  0  0  0  0  0  0
    9.8496  -15.0958   29.1126 S   0  0  0  0  0  0  0  0  0  0  0  0
    9.2292  -16.0562   27.6913 C   0  0  0  0  0  0  0  0  0  0  0  0
   10.3229  -17.0070   27.2877 C   0  0  0  0  0  0  0  0  0  0  0  0
   10.9493  -16.6981   25.9713 C   0  0  2  0  0  0  0  0  0  0  0  0
    9.9284  -16.2815   24.9928 N   0  0  0  0  0  0  0  0  0  0  0  0
   11.7168  -17.7906   25.3586 C   0  0  0  0  0  0  0  0  0  0  0  0
   12.8323  -18.2969   25.9944 O   0  0  0  0  0  0  0  0  0  0  0  0
   11.3785  -18.2733   24.2672 O   0  0  0  0  0  0  0  0  0  0  0  0
  1  2  1  0
  2  3  2  0
  4  2  1  0
  4  5  1  0
  6  5  1  0
  6  7  1  6
  8  6  1  0
  8  9  2  0
 11 10  1  0
 12 11  1  0
 12 13  1  0
 14 13  1  1
 14 15  1  0
 15  8  1  0
 16 14  1  0
 17 16  2  0
 19 18  1  0
 19 20  1  0
 20 21  1  0
 22 23  1  0
 22 21  1  1
 23 16  1  0
 24 22  1  0
 25 24  1  0
 26 24  2  0
M  END
$$$$
