QMM.pdb
     RDKit          3D

 26 25  0  0  1  0  0  0  0  0999 V2000
   10.5696  -21.3942   18.4423 N   0  0  0  0  0  0  0  0  0  0  0  0
   10.3309  -20.0165   18.1430 C   0  0  0  0  0  0  0  0  0  0  0  0
   11.2313  -19.4295   17.5027 O   0  0  0  0  0  0  0  0  0  0  0  0
    9.1109  -19.3171   18.5596 C   0  0  0  0  0  0  0  0  0  0  0  0
    9.3916  -18.0499   19.3007 C   0  0  0  0  0  0  0  0  0  0  0  0
    9.0913  -18.1697   20.7519 C   0  0  2  0  0  0  0  0  0  0  0  0
    7.8089  -18.6988   21.0779 N   0  0  0  0  0  0  0  0  0  0  0  0
    9.3051  -16.8979   21.4770 C   0  0  0  0  0  0  0  0  0  0  0  0
   10.4159  -16.3028   21.2879 O   0  0  0  0  0  0  0  0  0  0  0  0
    5.3512  -12.8496   26.0304 C   0  0  0  0  0  0  0  0  0  0  0  0
    7.1361  -13.2089   26.0418 S   0  0  0  0  0  0  0  0  0  0  0  0
    7.7236  -13.1079   24.3090 C   0  0  0  0  0  0  0  0  0  0  0  0
    7.4527  -14.4580   23.6887 C   0  0  0  0  0  0  0  0  0  0  0  0
    8.7008  -15.0644   23.0726 C   0  0  2  0  0  0  0  0  0  0  0  0
    8.4093  -16.2783   22.3542 N   0  0  0  0  0  0  0  0  0  0  0  0
    9.6858  -15.2435   24.1493 C   0  0  0  0  0  0  0  0  0  0  0  0
   10.3443  -14.2711   24.5715 O   0  0  0  0  0  0  0  0  0  0  0  0
   10.9820  -12.9865   28.1233 C   0  0  0  0  0  0  0  0  0  0  0  0
   10.8080  -14.3913   29.2623 S   0  0  0  0  0  0  0  0  0  0  0  0
   11.0298  -15.9479   28.3375 C   0  0  0  0  0  0  0  0  0  0  0  0
   10.2519  -15.8171   27.0567 C   0  0  0  0  0  0  0  0  0  0  0  0
   10.7666  -16.6562   25.9379 C   0  0  2  0  0  0  0  0  0  0  0  0
    9.9218  -16.5029   24.7395 N   0  0  0  0  0  0  0  0  0  0  0  0
   10.8687  -18.0952   26.2151 C   0  0  0  0  0  0  0  0  0  0  0  0
   11.8974  -18.5802   26.9973 O   0  0  0  0  0  0  0  0  0  0  0  0
   10.0387  -18.8937   25.7544 O   0  0  0  0  0  0  0  0  0  0  0  0
  1  2  1  0
  2  3  2  0
  4  2  1  0
  4  5  1  0
  6  5  1  0
  6  7  1  6
  8  6  1  0
  8  9  2  0
 11 10  1  0
 12 11  1  0
 12 13  1  0
 14 13  1  1
 14 15  1  0
 15  8  1  0
 16 14  1  0
 17 16  2  0
 19 18  1  0
 19 20  1  0
 20 21  1  0
 22 23  1  0
 22 21  1  1
 23 16  1  0
 24 22  1  0
 25 24  1  0
 26 24  2  0
M  END
$$$$
