QMM.pdb
     RDKit          3D

 26 25  0  0  1  0  0  0  0  0999 V2000
    4.4037  -20.4688   23.5535 N   0  0  0  0  0  0  0  0  0  0  0  0
    5.3060  -21.2005   22.7198 C   0  0  0  0  0  0  0  0  0  0  0  0
    4.7858  -22.0392   21.9509 O   0  0  0  0  0  0  0  0  0  0  0  0
    6.7579  -20.9959   22.7558 C   0  0  0  0  0  0  0  0  0  0  0  0
    7.1393  -19.6057   23.1504 C   0  0  0  0  0  0  0  0  0  0  0  0
    7.3892  -18.7357   21.9710 C   0  0  2  0  0  0  0  0  0  0  0  0
    8.0097  -19.3679   20.8547 N   0  0  0  0  0  0  0  0  0  0  0  0
    8.1341  -17.5076   22.3261 C   0  0  0  0  0  0  0  0  0  0  0  0
    9.3603  -17.4542   21.9834 O   0  0  0  0  0  0  0  0  0  0  0  0
    6.3273  -12.5195   27.4000 C   0  0  0  0  0  0  0  0  0  0  0  0
    6.0655  -13.1058   25.6962 S   0  0  0  0  0  0  0  0  0  0  0  0
    7.7055  -13.5638   25.0191 C   0  0  0  0  0  0  0  0  0  0  0  0
    7.4670  -14.0210   23.5997 C   0  0  0  0  0  0  0  0  0  0  0  0
    8.3717  -15.1772   23.2123 C   0  0  2  0  0  0  0  0  0  0  0  0
    7.6288  -16.3934   23.0038 N   0  0  0  0  0  0  0  0  0  0  0  0
    9.4096  -15.2952   24.2470 C   0  0  0  0  0  0  0  0  0  0  0  0
   10.2097  -14.3590   24.4490 O   0  0  0  0  0  0  0  0  0  0  0  0
   10.2528  -12.5056   27.8336 C   0  0  0  0  0  0  0  0  0  0  0  0
   11.1254  -13.8110   28.7479 S   0  0  0  0  0  0  0  0  0  0  0  0
   11.7236  -15.0722   27.5736 C   0  0  0  0  0  0  0  0  0  0  0  0
   10.5426  -15.9260   27.2006 C   0  0  0  0  0  0  0  0  0  0  0  0
   10.7038  -16.6701   25.9196 C   0  0  2  0  0  0  0  0  0  0  0  0
    9.5399  -16.4541   25.0409 N   0  0  0  0  0  0  0  0  0  0  0  0
   10.8888  -18.1221   26.0447 C   0  0  0  0  0  0  0  0  0  0  0  0
   12.1050  -18.6345   26.4490 O   0  0  0  0  0  0  0  0  0  0  0  0
    9.9624  -18.9070   25.7910 O   0  0  0  0  0  0  0  0  0  0  0  0
  1  2  1  0
  2  3  2  0
  4  2  1  0
  4  5  1  0
  6  5  1  0
  6  7  1  6
  8  6  1  0
  8  9  2  0
 11 10  1  0
 12 11  1  0
 12 13  1  0
 14 13  1  1
 14 15  1  0
 15  8  1  0
 16 14  1  0
 17 16  2  0
 19 18  1  0
 19 20  1  0
 20 21  1  0
 22 23  1  0
 22 21  1  1
 23 16  1  0
 24 22  1  0
 25 24  1  0
 26 24  2  0
M  END
$$$$
