QMM.pdb
     RDKit          3D

 26 25  0  0  1  0  0  0  0  0999 V2000
   15.9273  -18.1394   17.8311 N   0  0  0  0  0  0  0  0  0  0  0  0
   14.7517  -18.5813   17.1474 C   0  0  0  0  0  0  0  0  0  0  0  0
   14.9401  -19.2388   16.0998 O   0  0  0  0  0  0  0  0  0  0  0  0
   13.3986  -18.2849   17.6294 C   0  0  0  0  0  0  0  0  0  0  0  0
   13.3928  -17.4446   18.8654 C   0  0  0  0  0  0  0  0  0  0  0  0
   12.6594  -18.0949   19.9833 C   0  0  2  0  0  0  0  0  0  0  0  0
   11.6995  -19.0782   19.6058 N   0  0  0  0  0  0  0  0  0  0  0  0
   12.0333  -17.1102   20.8929 C   0  0  0  0  0  0  0  0  0  0  0  0
   12.7929  -16.2158   21.3898 O   0  0  0  0  0  0  0  0  0  0  0  0
    7.0367  -12.7855   20.5768 C   0  0  0  0  0  0  0  0  0  0  0  0
    6.6236  -13.9928   21.8756 S   0  0  0  0  0  0  0  0  0  0  0  0
    8.2005  -14.5444   22.6287 C   0  0  0  0  0  0  0  0  0  0  0  0
    8.8045  -15.5414   21.6686 C   0  0  0  0  0  0  0  0  0  0  0  0
   10.1391  -16.0723   22.1607 C   0  0  2  0  0  0  0  0  0  0  0  0
   10.6865  -17.0599   21.2666 N   0  0  0  0  0  0  0  0  0  0  0  0
    9.9421  -16.5681   23.5308 C   0  0  0  0  0  0  0  0  0  0  0  0
    9.6763  -17.7702   23.7356 O   0  0  0  0  0  0  0  0  0  0  0  0
    9.6545  -12.6838   28.5948 C   0  0  0  0  0  0  0  0  0  0  0  0
   10.4179  -14.0789   29.4736 S   0  0  0  0  0  0  0  0  0  0  0  0
   10.2896  -15.5809   28.4466 C   0  0  0  0  0  0  0  0  0  0  0  0
   10.1893  -15.1312   27.0146 C   0  0  0  0  0  0  0  0  0  0  0  0
   10.0903  -16.2436   26.0279 C   0  0  2  0  0  0  0  0  0  0  0  0
   10.0444  -15.7175   24.6515 N   0  0  0  0  0  0  0  0  0  0  0  0
    8.9357  -17.1376   26.1889 C   0  0  0  0  0  0  0  0  0  0  0  0
    9.0670  -18.3228   26.8840 O   0  0  0  0  0  0  0  0  0  0  0  0
    7.8310  -16.8453   25.7063 O   0  0  0  0  0  0  0  0  0  0  0  0
  1  2  1  0
  2  3  2  0
  4  2  1  0
  4  5  1  0
  6  5  1  0
  6  7  1  6
  8  6  1  0
  8  9  2  0
 11 10  1  0
 12 11  1  0
 12 13  1  0
 14 13  1  6
 14 15  1  0
 15  8  1  0
 16 14  1  0
 17 16  2  0
 19 18  1  0
 19 20  1  0
 20 21  1  0
 22 23  1  0
 22 21  1  1
 23 16  1  0
 24 22  1  0
 25 24  1  0
 26 24  2  0
M  END
$$$$
