LRE.pdb
     RDKit          3D

 29 28  0  0  1  0  0  0  0  0999 V2000
    6.9245  -11.8460   25.4141 C   0  0  0  0  0  0  0  0  0  0  0  0
    6.7443  -12.7337   26.6494 C   0  0  2  0  0  0  0  0  0  0  0  0
    7.4466  -12.1222   27.8398 C   0  0  0  0  0  0  0  0  0  0  0  0
    7.4120  -14.0811   26.3798 C   0  0  0  0  0  0  0  0  0  0  0  0
    6.6314  -14.7449   25.2957 C   0  0  2  0  0  0  0  0  0  0  0  0
    5.3553  -15.1717   25.7731 N   0  0  0  0  0  0  0  0  0  0  0  0
    7.4592  -15.8339   24.7212 C   0  0  0  0  0  0  0  0  0  0  0  0
    7.3486  -16.9761   25.2138 O   0  0  0  0  0  0  0  0  0  0  0  0
    6.4559  -14.1917   18.6217 N   0  0  0  0  0  0  0  0  0  0  0  0
    7.5924  -13.3502   18.9443 C   0  0  0  0  0  0  0  0  0  0  0  0
    7.3937  -12.1153   19.0721 N   0  0  0  0  0  0  0  0  0  0  0  0
    8.8517  -13.9240   19.1043 N   0  0  0  0  0  0  0  0  0  0  0  0
    9.1587  -15.1568   19.7545 C   0  0  0  0  0  0  0  0  0  0  0  0
    8.9362  -15.1978   21.2343 C   0  0  0  0  0  0  0  0  0  0  0  0
    9.3836  -16.5580   21.7435 C   0  0  0  0  0  0  0  0  0  0  0  0
    9.1634  -16.7722   23.2155 C   0  0  2  0  0  0  0  0  0  0  0  0
    8.3549  -15.6344   23.6541 N   0  0  0  0  0  0  0  0  0  0  0  0
   10.5182  -16.6693   23.8404 C   0  0  0  0  0  0  0  0  0  0  0  0
   11.2927  -15.7525   23.5237 O   0  0  0  0  0  0  0  0  0  0  0  0
    8.0604  -11.4092   19.3093 N   0  0  0  0  0  0  0  0  0  0  0  0
   10.9039  -17.6260   24.7935 C   0  0  1  0  0  0  0  0  0  0  0  0
   12.2672  -17.5964   25.3812 C   0  0  0  0  0  0  0  0  0  0  0  0
   12.1433  -18.3003   26.6883 C   0  0  0  0  0  0  0  0  0  0  0  0
   10.7981  -18.0893   27.2954 C   0  0  0  0  0  0  0  0  0  0  0  0
   10.6897  -18.7927   28.5874 O   0  0  0  0  0  0  0  0  0  0  0  0
   10.9200  -20.0556   28.6024 C   0  0  0  0  0  0  0  0  0  0  0  0
   13.1637  -18.2403   24.4076 O   0  0  0  0  0  0  0  0  0  0  0  0
   12.7270  -18.7954   23.3669 O   0  0  0  0  0  0  0  0  0  0  0  0
   10.3569  -18.1954   29.7826 O   0  0  0  0  0  0  0  0  0  0  0  0
  2  1  1  6
  2  3  1  0
  2  4  1  0
  5  6  1  1
  5  4  1  0
  7  5  1  0
  8  7  2  0
 10  9  1  0
 10 12  1  0
 11 10  2  0
 13 12  1  0
 13 14  1  0
 14 15  1  0
 16 15  1  6
 16 17  1  0
 17  7  1  0
 18 16  1  0
 18 19  2  0
 20 18  1  0
 21 20  1  0
 21 22  1  1
 23 24  1  0
 23 22  1  0
 24 25  2  0
 26 21  1  0
 27 26  2  0
 28 24  1  0
 29 26  1  0
M  END
$$$$
