LRE.pdb
     RDKit          3D

 29 28  0  0  1  0  0  0  0  0999 V2000
    5.5448  -12.3029   25.7128 C   0  0  0  0  0  0  0  0  0  0  0  0
    6.3651  -12.9216   26.8489 C   0  0  2  0  0  0  0  0  0  0  0  0
    7.2211  -11.8663   27.5106 C   0  0  0  0  0  0  0  0  0  0  0  0
    7.3151  -13.9585   26.2520 C   0  0  0  0  0  0  0  0  0  0  0  0
    6.4688  -15.0318   25.6546 C   0  0  2  0  0  0  0  0  0  0  0  0
    5.7112  -15.7042   26.6608 N   0  0  0  0  0  0  0  0  0  0  0  0
    7.3411  -15.9256   24.8537 C   0  0  0  0  0  0  0  0  0  0  0  0
    7.9645  -16.8267   25.4528 O   0  0  0  0  0  0  0  0  0  0  0  0
    8.6113  -11.4371   19.4192 N   0  0  0  0  0  0  0  0  0  0  0  0
    9.2173  -12.7453   19.2606 C   0  0  0  0  0  0  0  0  0  0  0  0
   10.4171  -12.8851   19.6096 N   0  0  0  0  0  0  0  0  0  0  0  0
    8.4650  -13.7947   18.7377 N   0  0  0  0  0  0  0  0  0  0  0  0
    8.1646  -15.0373   19.3722 C   0  0  0  0  0  0  0  0  0  0  0  0
    8.4431  -15.1145   20.8410 C   0  0  0  0  0  0  0  0  0  0  0  0
    8.1317  -16.5265   21.3090 C   0  0  0  0  0  0  0  0  0  0  0  0
    8.3628  -16.7585   22.7766 C   0  0  2  0  0  0  0  0  0  0  0  0
    7.4931  -15.8008   23.4601 N   0  0  0  0  0  0  0  0  0  0  0  0
    9.7874  -16.3748   23.0214 C   0  0  0  0  0  0  0  0  0  0  0  0
   10.1011  -15.1868   23.1970 O   0  0  0  0  0  0  0  0  0  0  0  0
   10.9975  -13.6912   19.4971 N   0  0  0  0  0  0  0  0  0  0  0  0
   10.7686  -17.3792   23.0507 C   0  0  1  0  0  0  0  0  0  0  0  0
   12.0749  -17.1367   23.7138 C   0  0  0  0  0  0  0  0  0  0  0  0
   12.1006  -18.0684   24.8760 C   0  0  0  0  0  0  0  0  0  0  0  0
   13.4400  -18.0863   25.5305 C   0  0  0  0  0  0  0  0  0  0  0  0
   13.4568  -19.0293   26.6646 O   0  0  0  0  0  0  0  0  0  0  0  0
   12.3627  -19.6345   26.9560 C   0  0  0  0  0  0  0  0  0  0  0  0
   13.1160  -17.3731   22.7007 O   0  0  0  0  0  0  0  0  0  0  0  0
   14.3206  -17.0729   22.9019 O   0  0  0  0  0  0  0  0  0  0  0  0
   14.5606  -19.3089   27.4388 O   0  0  0  0  0  0  0  0  0  0  0  0
  2  1  1  6
  2  3  1  0
  2  4  1  0
  5  6  1  1
  5  4  1  0
  7  5  1  0
  8  7  2  0
 10  9  1  0
 10 12  1  0
 11 10  2  0
 13 12  1  0
 13 14  1  0
 14 15  1  0
 16 15  1  6
 16 17  1  0
 17  7  1  0
 18 16  1  0
 18 19  2  0
 20 18  1  0
 21 20  1  0
 21 22  1  6
 23 24  1  0
 23 22  1  0
 24 25  2  0
 26 21  1  0
 27 26  2  0
 28 24  1  0
 29 26  1  0
M  END
$$$$
