FSI.pdb
     RDKit          3D

 26 26  0  0  1  0  0  0  0  0999 V2000
    7.8074  -17.7742   19.1680 N   0  0  0  0  0  0  0  0  0  0  0  0
    8.0208  -16.5873   19.9687 C   0  0  1  0  0  0  0  0  0  0  0  0
    6.8124  -15.6969   19.7932 C   0  0  0  0  0  0  0  0  0  0  0  0
    7.0224  -14.4751   20.6317 C   0  0  0  0  0  0  0  0  0  0  0  0
    7.6231  -13.3339   20.1718 C   0  0  0  0  0  0  0  0  0  0  0  0
    7.8079  -12.2132   20.9670 C   0  0  0  0  0  0  0  0  0  0  0  0
    7.3736  -12.2443   22.2666 C   0  0  0  0  0  0  0  0  0  0  0  0
    6.7651  -13.3684   22.7716 C   0  0  0  0  0  0  0  0  0  0  0  0
    6.5941  -14.4648   21.9629 C   0  0  0  0  0  0  0  0  0  0  0  0
    8.2257  -16.9974   21.3697 C   0  0  0  0  0  0  0  0  0  0  0  0
    7.3377  -17.6688   21.9444 O   0  0  0  0  0  0  0  0  0  0  0  0
   11.9171  -17.3097   22.8539 O   0  0  0  0  0  0  0  0  0  0  0  0
   10.8604  -18.0430   23.4324 C   0  0  0  0  0  0  0  0  0  0  0  0
    9.6633  -17.1129   23.4608 C   0  0  2  0  0  0  0  0  0  0  0  0
    9.3875  -16.6758   22.1269 N   0  0  0  0  0  0  0  0  0  0  0  0
    9.9826  -16.0279   24.4017 C   0  0  0  0  0  0  0  0  0  0  0  0
   10.8220  -15.1707   24.0362 O   0  0  0  0  0  0  0  0  0  0  0  0
    7.4553  -11.9438   26.2921 C   0  0  0  0  0  0  0  0  0  0  0  0
    8.4762  -12.9695   25.9172 C   0  0  0  0  0  0  0  0  0  0  0  0
    8.9997  -13.8068   27.0232 C   0  0  2  0  0  0  0  0  0  0  0  0
    9.5939  -12.8882   28.0714 C   0  0  0  0  0  0  0  0  0  0  0  0
    9.8832  -14.9418   26.6709 C   0  0  2  0  0  0  0  0  0  0  0  0
    9.4149  -15.8707   25.7001 N   0  0  0  0  0  0  0  0  0  0  0  0
   10.3525  -15.5784   27.9211 C   0  0  0  0  0  0  0  0  0  0  0  0
   11.2086  -14.9736   28.6093 O   0  0  0  0  0  0  0  0  0  0  0  0
    9.8977  -16.7990   28.3662 O   0  0  0  0  0  0  0  0  0  0  0  0
  2  1  1  6
  2 10  1  0
  3  2  1  0
  3  4  1  0
  4  5  2  0
  4  9  1  0
  5  6  1  0
  6  7  2  0
  8  7  1  0
  9  8  2  0
 10 11  2  0
 12 13  1  0
 14 13  1  6
 14 16  1  0
 15 14  1  0
 15 10  1  0
 16 23  1  0
 16 17  2  0
 18 19  1  0
 19 20  1  0
 20 22  1  0
 20 21  1  1
 22 24  1  0
 22 23  1  6
 24 25  2  0
 24 26  1  0
M  END
$$$$
