FSI.pdb
     RDKit          3D

 26 26  0  0  1  0  0  0  0  0999 V2000
    5.6823  -16.4607   24.9832 N   0  0  0  0  0  0  0  0  0  0  0  0
    6.9755  -15.8471   24.7675 C   0  0  1  0  0  0  0  0  0  0  0  0
    7.3664  -15.1477   26.0489 C   0  0  0  0  0  0  0  0  0  0  0  0
    6.9014  -13.7284   25.9522 C   0  0  0  0  0  0  0  0  0  0  0  0
    5.8142  -13.2391   26.6255 C   0  0  0  0  0  0  0  0  0  0  0  0
    5.4007  -11.9200   26.5204 C   0  0  0  0  0  0  0  0  0  0  0  0
    6.1054  -11.0674   25.7110 C   0  0  0  0  0  0  0  0  0  0  0  0
    7.2035  -11.5143   25.0158 C   0  0  0  0  0  0  0  0  0  0  0  0
    7.5921  -12.8257   25.1376 C   0  0  0  0  0  0  0  0  0  0  0  0
    7.9338  -16.8974   24.3783 C   0  0  0  0  0  0  0  0  0  0  0  0
    7.9196  -17.9918   24.9880 O   0  0  0  0  0  0  0  0  0  0  0  0
   12.2049  -17.3747   22.1026 O   0  0  0  0  0  0  0  0  0  0  0  0
   10.9613  -16.7099   22.1283 C   0  0  0  0  0  0  0  0  0  0  0  0
   10.2550  -17.1784   23.3855 C   0  0  2  0  0  0  0  0  0  0  0  0
    8.8916  -16.7483   23.3358 N   0  0  0  0  0  0  0  0  0  0  0  0
   11.0165  -16.6525   24.5292 C   0  0  0  0  0  0  0  0  0  0  0  0
   11.3947  -15.4579   24.4750 O   0  0  0  0  0  0  0  0  0  0  0  0
    9.4620  -14.8492   29.0171 C   0  0  0  0  0  0  0  0  0  0  0  0
   10.0382  -15.9778   28.2239 C   0  0  0  0  0  0  0  0  0  0  0  0
   11.3117  -15.6985   27.5178 C   0  0  2  0  0  0  0  0  0  0  0  0
   11.0976  -14.5033   26.6115 C   0  0  0  0  0  0  0  0  0  0  0  0
   11.9898  -16.8296   26.8444 C   0  0  2  0  0  0  0  0  0  0  0  0
   11.3620  -17.3922   25.6981 N   0  0  0  0  0  0  0  0  0  0  0  0
   12.3615  -17.8317   27.8674 C   0  0  0  0  0  0  0  0  0  0  0  0
   13.1587  -17.4878   28.7720 O   0  0  0  0  0  0  0  0  0  0  0  0
   11.8773  -19.1202   27.8760 O   0  0  0  0  0  0  0  0  0  0  0  0
  2  1  1  1
  2 10  1  0
  3  2  1  0
  3  4  1  0
  4  5  2  0
  4  9  1  0
  5  6  1  0
  6  7  2  0
  8  7  1  0
  9  8  2  0
 10 11  2  0
 12 13  1  0
 14 13  1  6
 14 16  1  0
 15 14  1  0
 15 10  1  0
 16 23  1  0
 16 17  2  0
 18 19  1  0
 19 20  1  0
 20 22  1  0
 20 21  1  6
 22 24  1  0
 22 23  1  6
 24 25  2  0
 24 26  1  0
M  END
$$$$
