FSI.pdb
     RDKit          3D

 26 26  0  0  1  0  0  0  0  0999 V2000
    6.7871  -17.8899   18.9162 N   0  0  0  0  0  0  0  0  0  0  0  0
    7.3831  -16.7002   19.4862 C   0  0  1  0  0  0  0  0  0  0  0  0
    6.3632  -15.5892   19.3886 C   0  0  0  0  0  0  0  0  0  0  0  0
    6.9731  -14.3587   19.9837 C   0  0  0  0  0  0  0  0  0  0  0  0
    7.7154  -13.4581   19.2679 C   0  0  0  0  0  0  0  0  0  0  0  0
    8.2719  -12.3245   19.8403 C   0  0  0  0  0  0  0  0  0  0  0  0
    8.0737  -12.0919   21.1764 C   0  0  0  0  0  0  0  0  0  0  0  0
    7.3354  -12.9686   21.9347 C   0  0  0  0  0  0  0  0  0  0  0  0
    6.7950  -14.0838   21.3432 C   0  0  0  0  0  0  0  0  0  0  0  0
    7.7741  -16.9919   20.8772 C   0  0  0  0  0  0  0  0  0  0  0  0
    6.9454  -17.5388   21.6414 O   0  0  0  0  0  0  0  0  0  0  0  0
   11.2798  -18.1045   23.8650 O   0  0  0  0  0  0  0  0  0  0  0  0
   10.9334  -17.6037   22.5928 C   0  0  0  0  0  0  0  0  0  0  0  0
    9.5224  -17.0634   22.7187 C   0  0  2  0  0  0  0  0  0  0  0  0
    9.0547  -16.6886   21.4198 N   0  0  0  0  0  0  0  0  0  0  0  0
    9.5685  -15.9591   23.6896 C   0  0  0  0  0  0  0  0  0  0  0  0
   10.1483  -14.9031   23.3408 O   0  0  0  0  0  0  0  0  0  0  0  0
    6.8311  -12.0205   27.1364 C   0  0  0  0  0  0  0  0  0  0  0  0
    8.0058  -12.9438   27.0861 C   0  0  0  0  0  0  0  0  0  0  0  0
    7.8890  -14.1024   26.1683 C   0  0  2  0  0  0  0  0  0  0  0  0
    6.6832  -14.9183   26.5878 C   0  0  0  0  0  0  0  0  0  0  0  0
    9.0992  -14.9235   25.9360 C   0  0  2  0  0  0  0  0  0  0  0  0
    9.0071  -15.9911   24.9999 N   0  0  0  0  0  0  0  0  0  0  0  0
    9.6495  -15.3318   27.2472 C   0  0  0  0  0  0  0  0  0  0  0  0
    9.9925  -14.4336   28.0519 O   0  0  0  0  0  0  0  0  0  0  0  0
    9.8038  -16.6457   27.6275 O   0  0  0  0  0  0  0  0  0  0  0  0
  2  1  1  1
  2 10  1  0
  3  2  1  0
  3  4  1  0
  4  5  2  0
  4  9  1  0
  5  6  1  0
  6  7  2  0
  8  7  1  0
  9  8  2  0
 10 11  2  0
 12 13  1  0
 14 13  1  6
 14 16  1  0
 15 14  1  0
 15 10  1  0
 16 23  1  0
 16 17  2  0
 18 19  1  0
 19 20  1  0
 20 22  1  0
 20 21  1  1
 22 24  1  0
 22 23  1  6
 24 25  2  0
 24 26  1  0
M  END
$$$$
