FSI.pdb
     RDKit          3D

 26 26  0  0  1  0  0  0  0  0999 V2000
    9.1912  -16.0641   20.7862 N   0  0  0  0  0  0  0  0  0  0  0  0
    8.5776  -15.2718   21.8308 C   0  0  1  0  0  0  0  0  0  0  0  0
    7.1791  -14.9238   21.3756 C   0  0  0  0  0  0  0  0  0  0  0  0
    7.2985  -14.0714   20.1513 C   0  0  0  0  0  0  0  0  0  0  0  0
    6.9401  -14.4901   18.8979 C   0  0  0  0  0  0  0  0  0  0  0  0
    7.0600  -13.6831   17.7768 C   0  0  0  0  0  0  0  0  0  0  0  0
    7.5569  -12.4143   17.9241 C   0  0  0  0  0  0  0  0  0  0  0  0
    7.9296  -11.9511   19.1632 C   0  0  0  0  0  0  0  0  0  0  0  0
    7.8006  -12.7705   20.2574 C   0  0  0  0  0  0  0  0  0  0  0  0
    8.5904  -16.0531   23.0807 C   0  0  0  0  0  0  0  0  0  0  0  0
    7.8598  -15.6924   24.0325 O   0  0  0  0  0  0  0  0  0  0  0  0
   10.4908  -19.8077   25.5207 O   0  0  0  0  0  0  0  0  0  0  0  0
   10.3914  -19.1494   24.2773 C   0  0  0  0  0  0  0  0  0  0  0  0
    9.5819  -17.8917   24.5260 C   0  0  2  0  0  0  0  0  0  0  0  0
    9.3921  -17.2121   23.2816 N   0  0  0  0  0  0  0  0  0  0  0  0
   10.3028  -17.1089   25.5418 C   0  0  0  0  0  0  0  0  0  0  0  0
   11.4443  -16.6830   25.2444 O   0  0  0  0  0  0  0  0  0  0  0  0
    8.8487  -12.5429   27.5398 C   0  0  0  0  0  0  0  0  0  0  0  0
    9.5222  -13.8059   27.1084 C   0  0  0  0  0  0  0  0  0  0  0  0
    9.9691  -14.7129   28.1929 C   0  0  2  0  0  0  0  0  0  0  0  0
   10.8758  -13.9301   29.1206 C   0  0  0  0  0  0  0  0  0  0  0  0
   10.5241  -16.0301   27.8059 C   0  0  2  0  0  0  0  0  0  0  0  0
    9.8089  -16.7941   26.8418 N   0  0  0  0  0  0  0  0  0  0  0  0
   10.8479  -16.7841   29.0368 C   0  0  0  0  0  0  0  0  0  0  0  0
   10.0769  -17.7096   29.3853 O   0  0  0  0  0  0  0  0  0  0  0  0
   11.9507  -16.5215   29.8176 O   0  0  0  0  0  0  0  0  0  0  0  0
  2  1  1  6
  2 10  1  0
  3  2  1  0
  3  4  1  0
  4  5  2  0
  4  9  1  0
  5  6  1  0
  6  7  2  0
  8  7  1  0
  9  8  2  0
 10 11  2  0
 12 13  1  0
 14 13  1  6
 14 16  1  0
 15 14  1  0
 15 10  1  0
 16 23  1  0
 16 17  2  0
 18 19  1  0
 19 20  1  0
 20 22  1  0
 20 21  1  6
 22 24  1  0
 22 23  1  1
 24 25  2  0
 24 26  1  0
M  END
$$$$
