FSI.pdb
     RDKit          3D

 26 26  0  0  1  0  0  0  0  0999 V2000
    8.0780  -17.1664   18.5367 N   0  0  0  0  0  0  0  0  0  0  0  0
    9.1384  -17.0208   19.5113 C   0  0  1  0  0  0  0  0  0  0  0  0
    9.8922  -15.7542   19.1774 C   0  0  0  0  0  0  0  0  0  0  0  0
    8.9773  -14.5987   19.4377 C   0  0  0  0  0  0  0  0  0  0  0  0
    8.0781  -14.1222   18.5216 C   0  0  0  0  0  0  0  0  0  0  0  0
    7.2402  -13.0492   18.7842 C   0  0  0  0  0  0  0  0  0  0  0  0
    7.3112  -12.4375   20.0086 C   0  0  0  0  0  0  0  0  0  0  0  0
    8.1987  -12.8816   20.9593 C   0  0  0  0  0  0  0  0  0  0  0  0
    9.0174  -13.9464   20.6740 C   0  0  0  0  0  0  0  0  0  0  0  0
    8.5372  -16.9863   20.8567 C   0  0  0  0  0  0  0  0  0  0  0  0
    7.3090  -16.7664   20.9701 O   0  0  0  0  0  0  0  0  0  0  0  0
   10.6776  -18.3641   24.0113 O   0  0  0  0  0  0  0  0  0  0  0  0
    9.2728  -18.4610   24.0902 C   0  0  0  0  0  0  0  0  0  0  0  0
    8.7221  -17.2414   23.3773 C   0  0  2  0  0  0  0  0  0  0  0  0
    9.2730  -17.1907   22.0581 N   0  0  0  0  0  0  0  0  0  0  0  0
    9.0396  -16.0733   24.2134 C   0  0  0  0  0  0  0  0  0  0  0  0
   10.1012  -15.4532   23.9655 O   0  0  0  0  0  0  0  0  0  0  0  0
    5.4247  -12.5252   27.2305 C   0  0  0  0  0  0  0  0  0  0  0  0
    6.3018  -13.6918   26.9068 C   0  0  0  0  0  0  0  0  0  0  0  0
    7.5811  -13.3798   26.2254 C   0  0  2  0  0  0  0  0  0  0  0  0
    7.2624  -12.7009   24.9089 C   0  0  0  0  0  0  0  0  0  0  0  0
    8.5776  -14.4676   26.0968 C   0  0  2  0  0  0  0  0  0  0  0  0
    8.2372  -15.5869   25.2870 N   0  0  0  0  0  0  0  0  0  0  0  0
    9.0479  -14.8371   27.4499 C   0  0  0  0  0  0  0  0  0  0  0  0
    9.5827  -13.9488   28.1549 O   0  0  0  0  0  0  0  0  0  0  0  0
    8.9284  -16.1047   27.9730 O   0  0  0  0  0  0  0  0  0  0  0  0
  2  1  1  6
  2 10  1  0
  3  2  1  0
  3  4  1  0
  4  5  2  0
  4  9  1  0
  5  6  1  0
  6  7  2  0
  8  7  1  0
  9  8  2  0
 10 11  2  0
 12 13  1  0
 14 13  1  1
 14 16  1  0
 15 14  1  0
 15 10  1  0
 16 23  1  0
 16 17  2  0
 18 19  1  0
 19 20  1  0
 20 22  1  0
 20 21  1  6
 22 24  1  0
 22 23  1  1
 24 25  2  0
 24 26  1  0
M  END
$$$$
