FSI.pdb
     RDKit          3D

 26 26  0  0  1  0  0  0  0  0999 V2000
    7.5780  -17.6801   18.0808 N   0  0  0  0  0  0  0  0  0  0  0  0
    7.9750  -16.5101   18.8351 C   0  0  1  0  0  0  0  0  0  0  0  0
    6.9219  -15.4486   18.6155 C   0  0  0  0  0  0  0  0  0  0  0  0
    7.2818  -14.2690   19.4635 C   0  0  0  0  0  0  0  0  0  0  0  0
    6.8178  -14.0815   20.7379 C   0  0  0  0  0  0  0  0  0  0  0  0
    7.1641  -12.9800   21.5056 C   0  0  0  0  0  0  0  0  0  0  0  0
    8.0042  -12.0381   20.9714 C   0  0  0  0  0  0  0  0  0  0  0  0
    8.4946  -12.1844   19.6959 C   0  0  0  0  0  0  0  0  0  0  0  0
    8.1363  -13.2848   18.9567 C   0  0  0  0  0  0  0  0  0  0  0  0
    8.1115  -16.8903   20.2528 C   0  0  0  0  0  0  0  0  0  0  0  0
    7.1544  -17.4606   20.8258 O   0  0  0  0  0  0  0  0  0  0  0  0
   10.9076  -18.2023   23.8359 O   0  0  0  0  0  0  0  0  0  0  0  0
   10.8254  -17.7236   22.5118 C   0  0  0  0  0  0  0  0  0  0  0  0
    9.4767  -17.0417   22.3896 C   0  0  2  0  0  0  0  0  0  0  0  0
    9.2806  -16.6486   21.0282 N   0  0  0  0  0  0  0  0  0  0  0  0
    9.4682  -15.9278   23.3506 C   0  0  0  0  0  0  0  0  0  0  0  0
   10.1911  -14.9352   23.0954 O   0  0  0  0  0  0  0  0  0  0  0  0
    6.5720  -11.9350   26.7688 C   0  0  0  0  0  0  0  0  0  0  0  0
    7.7431  -12.8609   26.6907 C   0  0  0  0  0  0  0  0  0  0  0  0
    7.6040  -14.0163   25.7720 C   0  0  2  0  0  0  0  0  0  0  0  0
    6.3926  -14.8187   26.2012 C   0  0  0  0  0  0  0  0  0  0  0  0
    8.8022  -14.8512   25.5270 C   0  0  2  0  0  0  0  0  0  0  0  0
    8.7034  -15.8840   24.5532 N   0  0  0  0  0  0  0  0  0  0  0  0
    9.3272  -15.3147   26.8301 C   0  0  0  0  0  0  0  0  0  0  0  0
    9.2130  -16.5299   27.1170 O   0  0  0  0  0  0  0  0  0  0  0  0
    9.9335  -14.4806   27.7420 O   0  0  0  0  0  0  0  0  0  0  0  0
  2  1  1  6
  2 10  1  0
  3  2  1  0
  3  4  1  0
  4  5  2  0
  4  9  1  0
  5  6  1  0
  6  7  2  0
  8  7  1  0
  9  8  2  0
 10 11  2  0
 12 13  1  0
 14 13  1  6
 14 16  1  0
 15 14  1  0
 15 10  1  0
 16 23  1  0
 16 17  2  0
 18 19  1  0
 19 20  1  0
 20 22  1  0
 20 21  1  1
 22 24  1  0
 22 23  1  6
 24 25  2  0
 24 26  1  0
M  END
$$$$
