FSI.pdb
     RDKit          3D

 26 26  0  0  1  0  0  0  0  0999 V2000
   10.8866  -17.1870   20.7264 N   0  0  0  0  0  0  0  0  0  0  0  0
    9.9844  -16.0862   20.9906 C   0  0  1  0  0  0  0  0  0  0  0  0
    8.8059  -16.2296   20.0555 C   0  0  0  0  0  0  0  0  0  0  0  0
    8.1423  -14.8921   19.9521 C   0  0  0  0  0  0  0  0  0  0  0  0
    6.9193  -14.6082   20.4985 C   0  0  0  0  0  0  0  0  0  0  0  0
    6.3227  -13.3614   20.3898 C   0  0  0  0  0  0  0  0  0  0  0  0
    6.9796  -12.3699   19.7087 C   0  0  0  0  0  0  0  0  0  0  0  0
    8.2093  -12.6091   19.1435 C   0  0  0  0  0  0  0  0  0  0  0  0
    8.7783  -13.8528   19.2659 C   0  0  0  0  0  0  0  0  0  0  0  0
    9.5919  -16.1322   22.4107 C   0  0  0  0  0  0  0  0  0  0  0  0
   10.4115  -15.7599   23.2820 O   0  0  0  0  0  0  0  0  0  0  0  0
    7.3319  -18.7965   24.4652 O   0  0  0  0  0  0  0  0  0  0  0  0
    6.7225  -17.5274   24.3809 C   0  0  0  0  0  0  0  0  0  0  0  0
    7.8486  -16.5256   24.2159 C   0  0  2  0  0  0  0  0  0  0  0  0
    8.3194  -16.5793   22.8662 N   0  0  0  0  0  0  0  0  0  0  0  0
    8.8662  -16.8504   25.2275 C   0  0  0  0  0  0  0  0  0  0  0  0
    9.9066  -17.4328   24.8384 O   0  0  0  0  0  0  0  0  0  0  0  0
    9.6213  -12.8684   28.8220 C   0  0  0  0  0  0  0  0  0  0  0  0
    9.6413  -14.0041   27.8501 C   0  0  0  0  0  0  0  0  0  0  0  0
    9.9907  -15.3341   28.4045 C   0  0  2  0  0  0  0  0  0  0  0  0
   11.3433  -15.2250   29.0784 C   0  0  0  0  0  0  0  0  0  0  0  0
    9.8763  -16.5071   27.5081 C   0  0  2  0  0  0  0  0  0  0  0  0
    8.7663  -16.5572   26.6193 N   0  0  0  0  0  0  0  0  0  0  0  0
   10.0434  -17.7350   28.3162 C   0  0  0  0  0  0  0  0  0  0  0  0
   11.1603  -17.9502   28.8438 O   0  0  0  0  0  0  0  0  0  0  0  0
    9.0364  -18.6515   28.5178 O   0  0  0  0  0  0  0  0  0  0  0  0
  2  1  1  1
  2 10  1  0
  3  2  1  0
  3  4  1  0
  4  5  2  0
  4  9  1  0
  5  6  1  0
  6  7  2  0
  8  7  1  0
  9  8  2  0
 10 11  2  0
 12 13  1  0
 14 13  1  6
 14 16  1  0
 15 14  1  0
 15 10  1  0
 16 23  1  0
 16 17  2  0
 18 19  1  0
 19 20  1  0
 20 22  1  0
 20 21  1  6
 22 24  1  0
 22 23  1  1
 24 25  2  0
 24 26  1  0
M  END
$$$$
