HPG.pdb
     RDKit          3D

 22 23  0  0  1  0  0  0  0  0999 V2000
   14.4388  -20.1324    3.1271 N   0  0  0  0  0  0  0  0  0  0  0  0
   15.7329  -20.4769    3.6275 C   0  0  1  0  0  0  0  0  0  0  0  0
   16.7542  -20.4940    2.4924 C   0  0  0  0  0  0  0  0  0  0  0  0
   16.3460  -21.5131    1.4902 C   0  0  0  0  0  0  0  0  0  0  0  0
   16.4491  -22.8711    1.6369 C   0  0  0  0  0  0  0  0  0  0  0  0
   15.9771  -23.4329    0.5188 N   0  0  0  0  0  0  0  0  0  0  0  0
   15.5921  -22.4547   -0.2986 C   0  0  0  0  0  0  0  0  0  0  0  0
   15.8136  -21.2803    0.2862 N   0  0  0  0  0  0  0  0  0  0  0  0
   16.2139  -19.6688    4.7659 C   0  0  0  0  0  0  0  0  0  0  0  0
   15.9119  -18.4110    4.7418 O   0  0  0  0  0  0  0  0  0  0  0  0
   16.9660  -20.1347    5.8690 N   0  0  0  0  0  0  0  0  0  0  0  0
   17.5232  -21.4083    6.1827 C   0  0  0  0  0  0  0  0  0  0  0  0
   17.0867  -21.5833    7.6301 C   0  0  0  0  0  0  0  0  0  0  0  0
   17.2434  -20.1858    8.1753 C   0  0  0  0  0  0  0  0  0  0  0  0
   17.3350  -19.2636    6.9915 C   0  0  1  0  0  0  0  0  0  0  0  0
   18.6913  -18.7273    6.8912 C   0  0  0  0  0  0  0  0  0  0  0  0
   19.5311  -19.4499    6.2547 O   0  0  0  0  0  0  0  0  0  0  0  0
   19.1668  -17.5193    7.4126 N   0  0  0  0  0  0  0  0  0  0  0  0
   20.5119  -17.0540    7.1453 C   0  0  0  0  0  0  0  0  0  0  0  0
   21.4775  -17.5934    8.1206 C   0  0  0  0  0  0  0  0  0  0  0  0
   22.8305  -17.2706    8.0682 O   0  0  0  0  0  0  0  0  0  0  0  0
   21.0352  -18.3698    9.0203 O   0  0  0  0  0  0  0  0  0  0  0  0
  2  1  1  6
  3  2  1  0
  3  4  1  0
  4  5  2  0
  6  5  1  0
  7  6  1  0
  8  7  2  0
  8  4  1  0
  9 10  2  0
  9  2  1  0
 11  9  1  0
 12 11  1  0
 13 12  1  0
 14 13  1  0
 14 15  1  0
 15 16  1  6
 15 11  1  0
 16 18  1  0
 17 16  2  0
 18 19  1  0
 20 21  1  0
 20 19  1  0
 22 20  2  0
M  END
$$$$
