HPG.pdb
     RDKit          3D

 22 23  0  0  1  0  0  0  0  0999 V2000
   18.5879  -11.1244  -17.5640 N   0  0  0  0  0  0  0  0  0  0  0  0
   18.2629  -10.1388  -16.5807 C   0  0  1  0  0  0  0  0  0  0  0  0
   18.2190  -10.7695  -15.1907 C   0  0  0  0  0  0  0  0  0  0  0  0
   17.2206  -11.8708  -15.1909 C   0  0  0  0  0  0  0  0  0  0  0  0
   15.8596  -11.7221  -15.1472 C   0  0  0  0  0  0  0  0  0  0  0  0
   15.3210  -12.9461  -15.1641 N   0  0  0  0  0  0  0  0  0  0  0  0
   16.3161  -13.8294  -15.2167 C   0  0  0  0  0  0  0  0  0  0  0  0
   17.4783  -13.1820  -15.2334 N   0  0  0  0  0  0  0  0  0  0  0  0
   19.1040   -8.9253  -16.5897 C   0  0  0  0  0  0  0  0  0  0  0  0
   20.3573   -9.1008  -16.8583 O   0  0  0  0  0  0  0  0  0  0  0  0
   18.6738   -7.6026  -16.3349 N   0  0  0  0  0  0  0  0  0  0  0  0
   17.4212   -7.0624  -15.9225 C   0  0  0  0  0  0  0  0  0  0  0  0
   17.2501   -5.9092  -16.9006 C   0  0  0  0  0  0  0  0  0  0  0  0
   18.6580   -5.3790  -17.0085 C   0  0  0  0  0  0  0  0  0  0  0  0
   19.5686   -6.4466  -16.4690 C   0  0  1  0  0  0  0  0  0  0  0  0
   20.1440   -6.0052  -15.1996 C   0  0  0  0  0  0  0  0  0  0  0  0
   19.3523   -6.0099  -14.1968 O   0  0  0  0  0  0  0  0  0  0  0  0
   21.4562   -5.5807  -14.9648 N   0  0  0  0  0  0  0  0  0  0  0  0
   21.9633   -5.3881  -13.6221 C   0  0  0  0  0  0  0  0  0  0  0  0
   22.1977   -6.6742  -12.9399 C   0  0  0  0  0  0  0  0  0  0  0  0
   21.9575   -7.8924  -13.5692 O   0  0  0  0  0  0  0  0  0  0  0  0
   22.6300   -6.6392  -11.7484 O   0  0  0  0  0  0  0  0  0  0  0  0
  2  1  1  6
  3  2  1  0
  3  4  1  0
  4  5  2  0
  6  5  1  0
  7  6  1  0
  8  7  2  0
  8  4  1  0
  9 10  2  0
  9  2  1  0
 11  9  1  0
 12 11  1  0
 13 12  1  0
 14 13  1  0
 14 15  1  0
 15 16  1  1
 15 11  1  0
 16 18  1  0
 17 16  2  0
 18 19  1  0
 20 21  1  0
 20 19  1  0
 22 20  2  0
M  END
$$$$
