HPG.pdb
     RDKit          3D

 22 23  0  0  1  0  0  0  0  0999 V2000
   23.0609  -12.2800  -15.8257 N   0  0  0  0  0  0  0  0  0  0  0  0
   22.1848  -11.2620  -16.3156 C   0  0  1  0  0  0  0  0  0  0  0  0
   20.7279  -11.6719  -16.1125 C   0  0  0  0  0  0  0  0  0  0  0  0
   20.4735  -12.9351  -16.8535 C   0  0  0  0  0  0  0  0  0  0  0  0
   20.0147  -14.1065  -16.3115 C   0  0  0  0  0  0  0  0  0  0  0  0
   19.9201  -14.9983  -17.3036 N   0  0  0  0  0  0  0  0  0  0  0  0
   20.3081  -14.4003  -18.4285 C   0  0  0  0  0  0  0  0  0  0  0  0
   20.6473  -13.1416  -18.1629 N   0  0  0  0  0  0  0  0  0  0  0  0
   22.4334   -9.9015  -15.7982 C   0  0  0  0  0  0  0  0  0  0  0  0
   22.7412   -9.8143  -14.5447 O   0  0  0  0  0  0  0  0  0  0  0  0
   22.3674   -8.6968  -16.5357 N   0  0  0  0  0  0  0  0  0  0  0  0
   22.0244   -8.4173  -17.8904 C   0  0  0  0  0  0  0  0  0  0  0  0
   23.1566   -7.4890  -18.3057 C   0  0  0  0  0  0  0  0  0  0  0  0
   23.3538   -6.6599  -17.0614 C   0  0  0  0  0  0  0  0  0  0  0  0
   22.6755   -7.3922  -15.9373 C   0  0  1  0  0  0  0  0  0  0  0  0
   21.4888   -6.6507  -15.5142 C   0  0  0  0  0  0  0  0  0  0  0  0
   20.4230   -6.8756  -16.1822 O   0  0  0  0  0  0  0  0  0  0  0  0
   21.3933   -5.7284  -14.4666 N   0  0  0  0  0  0  0  0  0  0  0  0
   20.1259   -5.1403  -14.0858 C   0  0  0  0  0  0  0  0  0  0  0  0
   19.8480   -3.9080  -14.8467 C   0  0  0  0  0  0  0  0  0  0  0  0
   20.7951   -2.8958  -14.9743 O   0  0  0  0  0  0  0  0  0  0  0  0
   18.7074   -3.7945  -15.3887 O   0  0  0  0  0  0  0  0  0  0  0  0
  2  1  1  1
  3  2  1  0
  3  4  1  0
  4  5  2  0
  6  5  1  0
  7  6  1  0
  8  7  2  0
  8  4  1  0
  9 10  2  0
  9  2  1  0
 11  9  1  0
 12 11  1  0
 13 12  1  0
 14 13  1  0
 14 15  1  0
 15 16  1  6
 15 11  1  0
 16 18  1  0
 17 16  2  0
 18 19  1  0
 20 21  1  0
 20 19  1  0
 22 20  2  0
M  END
$$$$
