HPG.pdb
     RDKit          3D

 22 23  0  0  1  0  0  0  0  0999 V2000
   19.6066  -12.5390  -16.7565 N   0  0  0  0  0  0  0  0  0  0  0  0
   19.2187  -11.2463  -16.2850 C   0  0  1  0  0  0  0  0  0  0  0  0
   18.5356  -11.3601  -14.9241 C   0  0  0  0  0  0  0  0  0  0  0  0
   17.2681  -12.1206  -15.0816 C   0  0  0  0  0  0  0  0  0  0  0  0
   16.1428  -11.6825  -15.7282 C   0  0  0  0  0  0  0  0  0  0  0  0
   15.2290  -12.6556  -15.6483 N   0  0  0  0  0  0  0  0  0  0  0  0
   15.7688  -13.6682  -14.9727 C   0  0  0  0  0  0  0  0  0  0  0  0
   17.0125  -13.3502  -14.6232 N   0  0  0  0  0  0  0  0  0  0  0  0
   20.2869  -10.2272  -16.2622 C   0  0  0  0  0  0  0  0  0  0  0  0
   21.4336  -10.6115  -15.8027 O   0  0  0  0  0  0  0  0  0  0  0  0
   20.1765   -8.8841  -16.6907 N   0  0  0  0  0  0  0  0  0  0  0  0
   19.0947   -8.1370  -17.2407 C   0  0  0  0  0  0  0  0  0  0  0  0
   19.7666   -7.4540  -18.4230 C   0  0  0  0  0  0  0  0  0  0  0  0
   21.1222   -7.1114  -17.8576 C   0  0  0  0  0  0  0  0  0  0  0  0
   21.2998   -7.9419  -16.6171 C   0  0  1  0  0  0  0  0  0  0  0  0
   21.2591   -7.0780  -15.4384 C   0  0  0  0  0  0  0  0  0  0  0  0
   20.0957   -6.7231  -15.0470 O   0  0  0  0  0  0  0  0  0  0  0  0
   22.3460   -6.6005  -14.6983 N   0  0  0  0  0  0  0  0  0  0  0  0
   22.1624   -5.9092  -13.4391 C   0  0  0  0  0  0  0  0  0  0  0  0
   21.7436   -4.5101  -13.6433 C   0  0  0  0  0  0  0  0  0  0  0  0
   22.4449   -3.6500  -14.4837 O   0  0  0  0  0  0  0  0  0  0  0  0
   20.7134   -4.1068  -13.0239 O   0  0  0  0  0  0  0  0  0  0  0  0
  2  1  1  1
  3  2  1  0
  3  4  1  0
  4  5  2  0
  6  5  1  0
  7  6  1  0
  8  7  2  0
  8  4  1  0
  9 10  2  0
  9  2  1  0
 11  9  1  0
 12 11  1  0
 13 12  1  0
 14 13  1  0
 14 15  1  0
 15 16  1  1
 15 11  1  0
 16 18  1  0
 17 16  2  0
 18 19  1  0
 20 21  1  0
 20 19  1  0
 22 20  2  0
M  END
$$$$
