HPG.pdb
     RDKit          3D

 22 23  0  0  1  0  0  0  0  0999 V2000
   18.8141  -12.5992  -16.8900 N   0  0  0  0  0  0  0  0  0  0  0  0
   19.9168  -11.7013  -17.0381 C   0  0  1  0  0  0  0  0  0  0  0  0
   19.8976  -11.0605  -18.4240 C   0  0  0  0  0  0  0  0  0  0  0  0
   20.1499  -12.1105  -19.4456 C   0  0  0  0  0  0  0  0  0  0  0  0
   21.1251  -13.0706  -19.3876 C   0  0  0  0  0  0  0  0  0  0  0  0
   21.0203  -13.8169  -20.4924 N   0  0  0  0  0  0  0  0  0  0  0  0
   20.0110  -13.3360  -21.2157 C   0  0  0  0  0  0  0  0  0  0  0  0
   19.4744  -12.2950  -20.5844 N   0  0  0  0  0  0  0  0  0  0  0  0
   20.0565  -10.6808  -15.9802 C   0  0  0  0  0  0  0  0  0  0  0  0
   18.9551  -10.2028  -15.4983 O   0  0  0  0  0  0  0  0  0  0  0  0
   21.2681  -10.1811  -15.4492 N   0  0  0  0  0  0  0  0  0  0  0  0
   22.6315  -10.3828  -15.8119 C   0  0  0  0  0  0  0  0  0  0  0  0
   23.2681  -10.6634  -14.4584 C   0  0  0  0  0  0  0  0  0  0  0  0
   22.5334   -9.6990  -13.5611 C   0  0  0  0  0  0  0  0  0  0  0  0
   21.3037   -9.2605  -14.3063 C   0  0  1  0  0  0  0  0  0  0  0  0
   21.4387   -7.8571  -14.6929 C   0  0  0  0  0  0  0  0  0  0  0  0
   22.0830   -7.6359  -15.7739 O   0  0  0  0  0  0  0  0  0  0  0  0
   20.9443   -6.7384  -14.0136 N   0  0  0  0  0  0  0  0  0  0  0  0
   20.9371   -5.4235  -14.6202 C   0  0  0  0  0  0  0  0  0  0  0  0
   22.1049   -4.6258  -14.2025 C   0  0  0  0  0  0  0  0  0  0  0  0
   22.3453   -3.3541  -14.7149 O   0  0  0  0  0  0  0  0  0  0  0  0
   22.8945   -5.1372  -13.3524 O   0  0  0  0  0  0  0  0  0  0  0  0
  2  1  1  1
  3  2  1  0
  3  4  1  0
  4  5  2  0
  6  5  1  0
  7  6  1  0
  8  7  2  0
  8  4  1  0
  9 10  2  0
  9  2  1  0
 11  9  1  0
 12 11  1  0
 13 12  1  0
 14 13  1  0
 14 15  1  0
 15 16  1  6
 15 11  1  0
 16 18  1  0
 17 16  2  0
 18 19  1  0
 20 21  1  0
 20 19  1  0
 22 20  2  0
M  END
$$$$
