HPG.pdb
     RDKit          3D

 22 23  0  0  1  0  0  0  0  0999 V2000
   16.5063  -25.3472    3.3973 N   0  0  0  0  0  0  0  0  0  0  0  0
   17.0493  -24.0621    3.7097 C   0  0  1  0  0  0  0  0  0  0  0  0
   16.0091  -22.9717    3.4636 C   0  0  0  0  0  0  0  0  0  0  0  0
   15.7818  -22.8419    2.0003 C   0  0  0  0  0  0  0  0  0  0  0  0
   15.2326  -23.7954    1.1844 C   0  0  0  0  0  0  0  0  0  0  0  0
   15.2014  -23.2941   -0.0550 N   0  0  0  0  0  0  0  0  0  0  0  0
   15.7153  -22.0663   -0.0119 C   0  0  0  0  0  0  0  0  0  0  0  0
   16.0719  -21.7826    1.2381 N   0  0  0  0  0  0  0  0  0  0  0  0
   17.6516  -23.9319    5.0515 C   0  0  0  0  0  0  0  0  0  0  0  0
   17.2273  -24.7592    5.9511 O   0  0  0  0  0  0  0  0  0  0  0  0
   18.6383  -22.9976    5.4427 N   0  0  0  0  0  0  0  0  0  0  0  0
   19.3093  -21.9568    4.7374 C   0  0  0  0  0  0  0  0  0  0  0  0
   20.7578  -22.2069    5.1314 C   0  0  0  0  0  0  0  0  0  0  0  0
   20.6243  -22.6001    6.5813 C   0  0  0  0  0  0  0  0  0  0  0  0
   19.1804  -22.9531    6.8063 C   0  0  1  0  0  0  0  0  0  0  0  0
   18.5527  -21.9372    7.6496 C   0  0  0  0  0  0  0  0  0  0  0  0
   18.1270  -20.8954    7.0447 O   0  0  0  0  0  0  0  0  0  0  0  0
   18.3693  -21.9803    9.0359 N   0  0  0  0  0  0  0  0  0  0  0  0
   17.6799  -20.9218    9.7439 C   0  0  0  0  0  0  0  0  0  0  0  0
   18.6088  -19.8593   10.1718 C   0  0  0  0  0  0  0  0  0  0  0  0
   18.1761  -18.7598   10.9076 O   0  0  0  0  0  0  0  0  0  0  0  0
   19.8287  -19.9768    9.8465 O   0  0  0  0  0  0  0  0  0  0  0  0
  2  1  1  1
  3  2  1  0
  3  4  1  0
  4  5  2  0
  6  5  1  0
  7  6  1  0
  8  7  2  0
  8  4  1  0
  9 10  2  0
  9  2  1  0
 11  9  1  0
 12 11  1  0
 13 12  1  0
 14 13  1  0
 14 15  1  0
 15 16  1  1
 15 11  1  0
 16 18  1  0
 17 16  2  0
 18 19  1  0
 20 21  1  0
 20 19  1  0
 22 20  2  0
M  END
$$$$
