KIV.pdb
     RDKit          3D

 25 24  0  0  1  0  0  0  0  0999 V2000
   28.1629  -23.2570  -15.7110 N   0  0  0  0  0  0  0  0  0  0  0  0
   27.6507  -21.9548  -15.6640 C   0  0  1  0  0  0  0  0  0  0  0  0
   27.3181  -21.2142  -16.8832 C   0  0  0  0  0  0  0  0  0  0  0  0
   28.2365  -20.8336  -17.9309 C   0  0  0  0  0  0  0  0  0  0  0  0
   29.6254  -21.2619  -18.0736 C   0  0  0  0  0  0  0  0  0  0  0  0
   30.0285  -22.1489  -19.1720 C   0  0  0  0  0  0  0  0  0  0  0  0
   31.5185  -22.0752  -19.2464 N   0  0  0  0  0  0  0  0  0  0  0  0
   26.4054  -22.0300  -14.7834 C   0  0  0  0  0  0  0  0  0  0  0  0
   25.6885  -23.0438  -14.9810 O   0  0  0  0  0  0  0  0  0  0  0  0
   26.8114  -20.9092   -9.7472 C   0  0  0  0  0  0  0  0  0  0  0  0
   26.4631  -21.5002  -11.1167 C   0  0  0  0  0  0  0  0  0  0  0  0
   25.2821  -20.7347  -11.6458 C   0  0  2  0  0  0  0  0  0  0  0  0
   24.1069  -20.7682  -10.6912 C   0  0  0  0  0  0  0  0  0  0  0  0
   24.9178  -21.2058  -13.0100 C   0  0  2  0  0  0  0  0  0  0  0  0
   26.1082  -21.0308  -13.8349 N   0  0  0  0  0  0  0  0  0  0  0  0
   23.7453  -20.5747  -13.6216 C   0  0  0  0  0  0  0  0  0  0  0  0
   23.6486  -19.3620  -13.9067 O   0  0  0  0  0  0  0  0  0  0  0  0
   20.7555  -22.8657  -15.5290 C   0  0  0  0  0  0  0  0  0  0  0  0
   20.9937  -21.3946  -15.7794 C   0  0  2  0  0  0  0  0  0  0  0  0
   22.0656  -21.2170  -16.8318 C   0  0  0  0  0  0  0  0  0  0  0  0
   21.3877  -20.7576  -14.4637 C   0  0  2  0  0  0  0  0  0  0  0  0
   22.5830  -21.3732  -13.9400 N   0  0  0  0  0  0  0  0  0  0  0  0
   20.2985  -20.9126  -13.4927 C   0  0  0  0  0  0  0  0  0  0  0  0
   19.1386  -20.1629  -13.6042 O   0  0  0  0  0  0  0  0  0  0  0  0
   20.3984  -21.7381  -12.5299 O   0  0  0  0  0  0  0  0  0  0  0  0
  2  1  1  6
  3  2  1  0
  4  3  1  0
  5  4  1  0
  6  7  1  0
  6  5  1  0
  8  2  1  0
  8  9  2  0
 11 10  1  0
 12 14  1  0
 12 11  1  0
 12 13  1  1
 14 15  1  6
 15  8  1  0
 16 14  1  0
 17 16  2  0
 19 18  1  1
 19 20  1  0
 19 21  1  0
 21 23  1  0
 21 22  1  1
 22 16  1  0
 23 24  1  0
 25 23  2  0
M  END
$$$$
