KIV.pdb
     RDKit          3D

 25 24  0  0  1  0  0  0  0  0999 V2000
   21.5086  -19.1121  -17.6365 N   0  0  0  0  0  0  0  0  0  0  0  0
   22.0287  -18.1594  -16.7520 C   0  0  1  0  0  0  0  0  0  0  0  0
   21.2493  -17.6548  -15.6191 C   0  0  0  0  0  0  0  0  0  0  0  0
   19.8741  -17.2150  -15.6544 C   0  0  0  0  0  0  0  0  0  0  0  0
   19.3936  -15.8734  -15.9738 C   0  0  0  0  0  0  0  0  0  0  0  0
   17.9553  -15.5933  -16.0666 C   0  0  0  0  0  0  0  0  0  0  0  0
   17.8316  -14.1694  -16.5006 N   0  0  0  0  0  0  0  0  0  0  0  0
   23.3322  -18.7529  -16.2223 C   0  0  0  0  0  0  0  0  0  0  0  0
   23.2728  -19.9785  -15.9487 O   0  0  0  0  0  0  0  0  0  0  0  0
   26.7405  -16.7255  -18.4049 C   0  0  0  0  0  0  0  0  0  0  0  0
   26.8316  -18.1097  -17.7554 C   0  0  0  0  0  0  0  0  0  0  0  0
   26.8407  -17.9040  -16.2660 C   0  0  2  0  0  0  0  0  0  0  0  0
   28.1789  -18.2549  -15.6500 C   0  0  0  0  0  0  0  0  0  0  0  0
   25.7131  -18.6358  -15.6266 C   0  0  2  0  0  0  0  0  0  0  0  0
   24.4918  -17.9678  -16.0629 N   0  0  0  0  0  0  0  0  0  0  0  0
   25.7645  -18.7578  -14.1674 C   0  0  0  0  0  0  0  0  0  0  0  0
   25.7443  -17.8000  -13.3650 O   0  0  0  0  0  0  0  0  0  0  0  0
   25.1392  -22.5081  -12.1807 C   0  0  0  0  0  0  0  0  0  0  0  0
   24.8907  -21.1373  -11.5951 C   0  0  2  0  0  0  0  0  0  0  0  0
   23.5013  -20.6639  -11.9608 C   0  0  0  0  0  0  0  0  0  0  0  0
   25.9591  -20.2051  -12.1257 C   0  0  2  0  0  0  0  0  0  0  0  0
   25.8452  -20.0659  -13.5574 N   0  0  0  0  0  0  0  0  0  0  0  0
   27.2871  -20.7348  -11.7953 C   0  0  0  0  0  0  0  0  0  0  0  0
   27.7380  -20.7483  -10.4853 O   0  0  0  0  0  0  0  0  0  0  0  0
   28.0496  -21.1918  -12.7053 O   0  0  0  0  0  0  0  0  0  0  0  0
  2  1  1  1
  3  2  1  0
  4  3  1  0
  5  4  1  0
  6  7  1  0
  6  5  1  0
  8  2  1  0
  8  9  2  0
 11 10  1  0
 12 14  1  0
 12 11  1  0
 12 13  1  1
 14 15  1  1
 15  8  1  0
 16 14  1  0
 17 16  2  0
 19 18  1  6
 19 20  1  0
 19 21  1  0
 21 23  1  0
 21 22  1  6
 22 16  1  0
 23 24  1  0
 25 23  2  0
M  END
$$$$
