KIV.pdb
     RDKit          3D

 25 24  0  0  1  0  0  0  0  0999 V2000
   29.5677  -21.7332  -13.7915 N   0  0  0  0  0  0  0  0  0  0  0  0
   28.6619  -20.6794  -13.6203 C   0  0  1  0  0  0  0  0  0  0  0  0
   27.9085  -20.1216  -14.7460 C   0  0  0  0  0  0  0  0  0  0  0  0
   28.4542  -19.6934  -16.0127 C   0  0  0  0  0  0  0  0  0  0  0  0
   28.9888  -18.3724  -16.3322 C   0  0  0  0  0  0  0  0  0  0  0  0
   29.5285  -18.0836  -17.6668 C   0  0  0  0  0  0  0  0  0  0  0  0
   30.0175  -16.6728  -17.6259 N   0  0  0  0  0  0  0  0  0  0  0  0
   27.6728  -21.1508  -12.5566 C   0  0  0  0  0  0  0  0  0  0  0  0
   27.2139  -22.3056  -12.7478 O   0  0  0  0  0  0  0  0  0  0  0  0
   27.9014  -19.8988   -7.4784 C   0  0  0  0  0  0  0  0  0  0  0  0
   27.6541  -20.6482   -8.7912 C   0  0  0  0  0  0  0  0  0  0  0  0
   26.3281  -20.1842   -9.3270 C   0  0  2  0  0  0  0  0  0  0  0  0
   25.1827  -20.5442   -8.4039 C   0  0  0  0  0  0  0  0  0  0  0  0
   26.1168  -20.6831  -10.7134 C   0  0  2  0  0  0  0  0  0  0  0  0
   27.3212  -20.3374  -11.4607 N   0  0  0  0  0  0  0  0  0  0  0  0
   24.9094  -20.2096  -11.3953 C   0  0  0  0  0  0  0  0  0  0  0  0
   24.6608  -19.0163  -11.6707 O   0  0  0  0  0  0  0  0  0  0  0  0
   22.3905  -22.9948  -13.3817 C   0  0  0  0  0  0  0  0  0  0  0  0
   22.5744  -21.5554  -13.8037 C   0  0  2  0  0  0  0  0  0  0  0  0
   23.7716  -21.4352  -14.7204 C   0  0  0  0  0  0  0  0  0  0  0  0
   22.7407  -20.7219  -12.5508 C   0  0  2  0  0  0  0  0  0  0  0  0
   23.8955  -21.1561  -11.8024 N   0  0  0  0  0  0  0  0  0  0  0  0
   21.5445  -20.8471  -11.7103 C   0  0  0  0  0  0  0  0  0  0  0  0
   20.3454  -20.2691  -12.0949 O   0  0  0  0  0  0  0  0  0  0  0  0
   21.5854  -21.4887  -10.6126 O   0  0  0  0  0  0  0  0  0  0  0  0
  2  1  1  6
  3  2  1  0
  4  3  1  0
  5  4  1  0
  6  7  1  0
  6  5  1  0
  8  2  1  0
  8  9  2  0
 11 10  1  0
 12 14  1  0
 12 11  1  0
 12 13  1  1
 14 15  1  6
 15  8  1  0
 16 14  1  0
 17 16  2  0
 19 18  1  1
 19 20  1  0
 19 21  1  0
 21 23  1  0
 21 22  1  1
 22 16  1  0
 23 24  1  0
 25 23  2  0
M  END
$$$$
