KIV.pdb
     RDKit          3D

 25 24  0  0  1  0  0  0  0  0999 V2000
   28.5347  -21.9296  -16.2788 N   0  0  0  0  0  0  0  0  0  0  0  0
   27.6926  -20.8263  -16.0945 C   0  0  1  0  0  0  0  0  0  0  0  0
   26.9949  -20.1947  -17.2170 C   0  0  0  0  0  0  0  0  0  0  0  0
   27.5947  -19.3828  -18.2499 C   0  0  0  0  0  0  0  0  0  0  0  0
   28.4721  -18.2314  -18.0572 C   0  0  0  0  0  0  0  0  0  0  0  0
   28.9865  -17.4785  -19.2081 C   0  0  0  0  0  0  0  0  0  0  0  0
   29.9256  -16.4566  -18.6559 N   0  0  0  0  0  0  0  0  0  0  0  0
   26.6579  -21.2620  -15.0594 C   0  0  0  0  0  0  0  0  0  0  0  0
   26.1131  -22.3689  -15.3020 O   0  0  0  0  0  0  0  0  0  0  0  0
   25.8009  -20.9979   -9.1958 C   0  0  0  0  0  0  0  0  0  0  0  0
   25.1387  -21.3327  -10.5358 C   0  0  0  0  0  0  0  0  0  0  0  0
   26.0227  -20.7821  -11.6203 C   0  0  2  0  0  0  0  0  0  0  0  0
   26.3847  -19.3314  -11.3793 C   0  0  0  0  0  0  0  0  0  0  0  0
   25.4098  -20.9983  -12.9594 C   0  0  2  0  0  0  0  0  0  0  0  0
   26.3578  -20.4689  -13.9338 N   0  0  0  0  0  0  0  0  0  0  0  0
   24.0703  -20.4381  -13.1569 C   0  0  0  0  0  0  0  0  0  0  0  0
   23.8004  -19.2188  -13.1991 O   0  0  0  0  0  0  0  0  0  0  0  0
   20.9290  -22.9745  -14.4649 C   0  0  0  0  0  0  0  0  0  0  0  0
   21.0157  -21.5030  -14.7976 C   0  0  2  0  0  0  0  0  0  0  0  0
   21.8378  -21.3050  -16.0518 C   0  0  0  0  0  0  0  0  0  0  0  0
   21.6267  -20.7933  -13.6081 C   0  0  2  0  0  0  0  0  0  0  0  0
   22.9382  -21.3220  -13.3208 N   0  0  0  0  0  0  0  0  0  0  0  0
   20.7666  -20.9676  -12.4320 C   0  0  0  0  0  0  0  0  0  0  0  0
   19.6028  -20.2292  -12.2905 O   0  0  0  0  0  0  0  0  0  0  0  0
   21.0730  -21.7999  -11.5200 O   0  0  0  0  0  0  0  0  0  0  0  0
  2  1  1  6
  3  2  1  0
  4  3  1  0
  5  4  1  0
  6  7  1  0
  6  5  1  0
  8  2  1  0
  8  9  2  0
 11 10  1  0
 12 14  1  0
 12 11  1  0
 12 13  1  1
 14 15  1  6
 15  8  1  0
 16 14  1  0
 17 16  2  0
 19 18  1  1
 19 20  1  0
 19 21  1  0
 21 23  1  0
 21 22  1  1
 22 16  1  0
 23 24  1  0
 25 23  2  0
M  END
$$$$
