KIV.pdb
     RDKit          3D

 25 24  0  0  1  0  0  0  0  0999 V2000
   27.4141  -17.9410  -16.8799 N   0  0  0  0  0  0  0  0  0  0  0  0
   27.1725  -17.4921  -15.5759 C   0  0  1  0  0  0  0  0  0  0  0  0
   26.2595  -16.3800  -15.3017 C   0  0  0  0  0  0  0  0  0  0  0  0
   26.4327  -15.0079  -15.7179 C   0  0  0  0  0  0  0  0  0  0  0  0
   27.5057  -14.4772  -16.5544 C   0  0  0  0  0  0  0  0  0  0  0  0
   27.5360  -13.0568  -16.9252 C   0  0  0  0  0  0  0  0  0  0  0  0
   28.8382  -12.8321  -17.6215 N   0  0  0  0  0  0  0  0  0  0  0  0
   26.6984  -18.7167  -14.7965 C   0  0  0  0  0  0  0  0  0  0  0  0
   25.9395  -19.4832  -15.4425 O   0  0  0  0  0  0  0  0  0  0  0  0
   29.8978  -20.9753  -11.2446 C   0  0  0  0  0  0  0  0  0  0  0  0
   28.8983  -20.7386  -12.3810 C   0  0  0  0  0  0  0  0  0  0  0  0
   27.5544  -20.4992  -11.7506 C   0  0  2  0  0  0  0  0  0  0  0  0
   27.0989  -21.6769  -10.9145 C   0  0  0  0  0  0  0  0  0  0  0  0
   26.5512  -20.1134  -12.7804 C   0  0  2  0  0  0  0  0  0  0  0  0
   27.0944  -18.9442  -13.4632 N   0  0  0  0  0  0  0  0  0  0  0  0
   25.1897  -19.8671  -12.2980 C   0  0  0  0  0  0  0  0  0  0  0  0
   24.8555  -18.9373  -11.5330 O   0  0  0  0  0  0  0  0  0  0  0  0
   21.9511  -22.1077  -13.9629 C   0  0  0  0  0  0  0  0  0  0  0  0
   21.8382  -20.6543  -13.5649 C   0  0  2  0  0  0  0  0  0  0  0  0
   22.2146  -19.7688  -14.7321 C   0  0  0  0  0  0  0  0  0  0  0  0
   22.7440  -20.4275  -12.3732 C   0  0  2  0  0  0  0  0  0  0  0  0
   24.1123  -20.7385  -12.7098 N   0  0  0  0  0  0  0  0  0  0  0  0
   22.3154  -21.2774  -11.2565 C   0  0  0  0  0  0  0  0  0  0  0  0
   21.1301  -21.0212  -10.5863 O   0  0  0  0  0  0  0  0  0  0  0  0
   23.0237  -22.2657  -10.8824 O   0  0  0  0  0  0  0  0  0  0  0  0
  2  1  1  6
  3  2  1  0
  4  3  1  0
  5  4  1  0
  6  7  1  0
  6  5  1  0
  8  2  1  0
  8  9  2  0
 11 10  1  0
 12 14  1  0
 12 11  1  0
 12 13  1  6
 14 15  1  1
 15  8  1  0
 16 14  1  0
 17 16  2  0
 19 18  1  6
 19 20  1  0
 19 21  1  0
 21 23  1  0
 21 22  1  6
 22 16  1  0
 23 24  1  0
 25 23  2  0
M  END
$$$$
