KIV.pdb
     RDKit          3D

 25 24  0  0  1  0  0  0  0  0999 V2000
   27.9188  -22.6681  -15.7920 N   0  0  0  0  0  0  0  0  0  0  0  0
   27.4373  -21.3905  -15.4817 C   0  0  1  0  0  0  0  0  0  0  0  0
   26.9484  -20.4794  -16.5194 C   0  0  0  0  0  0  0  0  0  0  0  0
   27.6560  -20.0854  -17.7151 C   0  0  0  0  0  0  0  0  0  0  0  0
   29.0962  -20.1640  -17.9442 C   0  0  0  0  0  0  0  0  0  0  0  0
   29.6753  -19.7552  -19.2300 C   0  0  0  0  0  0  0  0  0  0  0  0
   31.1432  -20.0134  -19.1308 N   0  0  0  0  0  0  0  0  0  0  0  0
   26.3263  -21.6033  -14.4559 C   0  0  0  0  0  0  0  0  0  0  0  0
   25.6268  -22.6296  -14.6515 O   0  0  0  0  0  0  0  0  0  0  0  0
   27.1223  -20.6834   -9.3556 C   0  0  0  0  0  0  0  0  0  0  0  0
   26.6704  -21.2807  -10.6917 C   0  0  0  0  0  0  0  0  0  0  0  0
   25.4542  -20.5152  -11.1341 C   0  0  2  0  0  0  0  0  0  0  0  0
   24.3399  -20.5740  -10.1102 C   0  0  0  0  0  0  0  0  0  0  0  0
   25.0101  -20.9656  -12.4815 C   0  0  2  0  0  0  0  0  0  0  0  0
   26.1240  -20.7069  -13.3874 N   0  0  0  0  0  0  0  0  0  0  0  0
   23.7649  -20.3783  -12.9831 C   0  0  0  0  0  0  0  0  0  0  0  0
   23.5678  -19.1577  -13.1640 O   0  0  0  0  0  0  0  0  0  0  0  0
   19.8924  -20.7923  -15.7903 C   0  0  0  0  0  0  0  0  0  0  0  0
   21.2192  -21.3010  -15.2760 C   0  0  2  0  0  0  0  0  0  0  0  0
   21.2052  -22.8125  -15.2185 C   0  0  0  0  0  0  0  0  0  0  0  0
   21.4534  -20.6895  -13.9110 C   0  0  2  0  0  0  0  0  0  0  0  0
   22.6464  -21.2341  -13.3091 N   0  0  0  0  0  0  0  0  0  0  0  0
   20.3039  -20.9646  -13.0413 C   0  0  0  0  0  0  0  0  0  0  0  0
   19.1495  -20.2039  -13.1321 O   0  0  0  0  0  0  0  0  0  0  0  0
   20.3455  -21.9067  -12.1875 O   0  0  0  0  0  0  0  0  0  0  0  0
  2  1  1  6
  3  2  1  0
  4  3  1  0
  5  4  1  0
  6  7  1  0
  6  5  1  0
  8  2  1  0
  8  9  2  0
 11 10  1  0
 12 14  1  0
 12 11  1  0
 12 13  1  1
 14 15  1  6
 15  8  1  0
 16 14  1  0
 17 16  2  0
 19 18  1  1
 19 20  1  0
 19 21  1  0
 21 23  1  0
 21 22  1  1
 22 16  1  0
 23 24  1  0
 25 23  2  0
M  END
$$$$
