KIV.pdb
     RDKit          3D

 25 24  0  0  1  0  0  0  0  0999 V2000
   28.2799  -21.5334  -15.8642 N   0  0  0  0  0  0  0  0  0  0  0  0
   27.6922  -20.4122  -15.2658 C   0  0  1  0  0  0  0  0  0  0  0  0
   27.1785  -19.2953  -16.0624 C   0  0  0  0  0  0  0  0  0  0  0  0
   27.8376  -18.6706  -17.1853 C   0  0  0  0  0  0  0  0  0  0  0  0
   29.1848  -18.1071  -17.2051 C   0  0  0  0  0  0  0  0  0  0  0  0
   29.7098  -17.4589  -18.4134 C   0  0  0  0  0  0  0  0  0  0  0  0
   31.0354  -16.8816  -18.0382 N   0  0  0  0  0  0  0  0  0  0  0  0
   26.5601  -20.9521  -14.3947 C   0  0  0  0  0  0  0  0  0  0  0  0
   26.0639  -22.0346  -14.7980 O   0  0  0  0  0  0  0  0  0  0  0  0
   26.8123  -20.7501   -9.1626 C   0  0  0  0  0  0  0  0  0  0  0  0
   26.5849  -21.1544  -10.6224 C   0  0  0  0  0  0  0  0  0  0  0  0
   25.2791  -20.5475  -11.0553 C   0  0  2  0  0  0  0  0  0  0  0  0
   24.1319  -20.9633  -10.1583 C   0  0  0  0  0  0  0  0  0  0  0  0
   25.0120  -20.8413  -12.4899 C   0  0  2  0  0  0  0  0  0  0  0  0
   26.1270  -20.2720  -13.2388 N   0  0  0  0  0  0  0  0  0  0  0  0
   23.7239  -20.3824  -13.0162 C   0  0  0  0  0  0  0  0  0  0  0  0
   23.3456  -19.1920  -13.0533 O   0  0  0  0  0  0  0  0  0  0  0  0
   19.9979  -21.2206  -16.0342 C   0  0  0  0  0  0  0  0  0  0  0  0
   21.3087  -21.6923  -15.4484 C   0  0  2  0  0  0  0  0  0  0  0  0
   21.2480  -23.1795  -15.1785 C   0  0  0  0  0  0  0  0  0  0  0  0
   21.5626  -20.9019  -14.1824 C   0  0  2  0  0  0  0  0  0  0  0  0
   22.7807  -21.3414  -13.5458 N   0  0  0  0  0  0  0  0  0  0  0  0
   20.4402  -21.0797  -13.2541 C   0  0  0  0  0  0  0  0  0  0  0  0
   19.2829  -20.3301  -13.3907 O   0  0  0  0  0  0  0  0  0  0  0  0
   20.5082  -21.9254  -12.3062 O   0  0  0  0  0  0  0  0  0  0  0  0
  2  1  1  6
  3  2  1  0
  4  3  1  0
  5  4  1  0
  6  7  1  0
  6  5  1  0
  8  2  1  0
  8  9  2  0
 11 10  1  0
 12 14  1  0
 12 11  1  0
 12 13  1  1
 14 15  1  6
 15  8  1  0
 16 14  1  0
 17 16  2  0
 19 18  1  1
 19 20  1  0
 19 21  1  0
 21 23  1  0
 21 22  1  1
 22 16  1  0
 23 24  1  0
 25 23  2  0
M  END
$$$$
