KIV.pdb
     RDKit          3D

 25 24  0  0  1  0  0  0  0  0999 V2000
   19.5452  -20.4800  -11.6368 N   0  0  0  0  0  0  0  0  0  0  0  0
   20.3742  -21.4795  -12.1603 C   0  0  1  0  0  0  0  0  0  0  0  0
   19.9520  -22.3193  -13.2838 C   0  0  0  0  0  0  0  0  0  0  0  0
   19.0900  -23.4759  -13.2112 C   0  0  0  0  0  0  0  0  0  0  0  0
   18.9210  -24.3695  -12.0686 C   0  0  0  0  0  0  0  0  0  0  0  0
   18.0319  -25.5350  -12.1520 C   0  0  0  0  0  0  0  0  0  0  0  0
   18.0799  -26.1967  -10.8138 N   0  0  0  0  0  0  0  0  0  0  0  0
   21.6795  -20.7816  -12.5360 C   0  0  0  0  0  0  0  0  0  0  0  0
   21.5453  -19.5835  -12.8927 O   0  0  0  0  0  0  0  0  0  0  0  0
   25.8798  -20.7091   -9.5575 C   0  0  0  0  0  0  0  0  0  0  0  0
   24.7415  -20.4228  -10.5417 C   0  0  0  0  0  0  0  0  0  0  0  0
   25.1512  -20.9864  -11.8741 C   0  0  2  0  0  0  0  0  0  0  0  0
   26.5205  -20.5008  -12.3018 C   0  0  0  0  0  0  0  0  0  0  0  0
   24.1084  -20.7187  -12.9020 C   0  0  2  0  0  0  0  0  0  0  0  0
   22.9191  -21.4498  -12.4785 N   0  0  0  0  0  0  0  0  0  0  0  0
   24.4671  -21.0363  -14.2867 C   0  0  0  0  0  0  0  0  0  0  0  0
   24.8687  -22.1495  -14.6878 O   0  0  0  0  0  0  0  0  0  0  0  0
   23.3330  -18.4174  -17.4629 C   0  0  0  0  0  0  0  0  0  0  0  0
   23.4895  -19.9165  -17.5726 C   0  0  2  0  0  0  0  0  0  0  0  0
   22.2029  -20.6009  -17.1672 C   0  0  0  0  0  0  0  0  0  0  0  0
   24.6472  -20.3283  -16.6882 C   0  0  2  0  0  0  0  0  0  0  0  0
   24.3662  -20.0176  -15.3074 N   0  0  0  0  0  0  0  0  0  0  0  0
   25.8643  -19.6222  -17.1048 C   0  0  0  0  0  0  0  0  0  0  0  0
   26.6115  -20.0738  -18.1806 O   0  0  0  0  0  0  0  0  0  0  0  0
   26.2564  -18.5820  -16.4863 O   0  0  0  0  0  0  0  0  0  0  0  0
  2  1  1  6
  3  2  1  0
  4  3  1  0
  5  4  1  0
  6  7  1  0
  6  5  1  0
  8  2  1  0
  8  9  2  0
 11 10  1  0
 12 14  1  0
 12 11  1  0
 12 13  1  6
 14 15  1  1
 15  8  1  0
 16 14  1  0
 17 16  2  0
 19 18  1  1
 19 20  1  0
 19 21  1  0
 21 23  1  0
 21 22  1  1
 22 16  1  0
 23 24  1  0
 25 23  2  0
M  END
$$$$
