KIV.pdb
     RDKit          3D

 25 24  0  0  1  0  0  0  0  0999 V2000
   26.7500  -21.5357  -12.7620 N   0  0  0  0  0  0  0  0  0  0  0  0
   25.8562  -20.6088  -12.2122 C   0  0  1  0  0  0  0  0  0  0  0  0
   24.5318  -20.3784  -12.7940 C   0  0  0  0  0  0  0  0  0  0  0  0
   24.2455  -20.0739  -14.1764 C   0  0  0  0  0  0  0  0  0  0  0  0
   24.8018  -18.9762  -14.9628 C   0  0  0  0  0  0  0  0  0  0  0  0
   24.2471  -18.6398  -16.2800 C   0  0  0  0  0  0  0  0  0  0  0  0
   24.1761  -19.9205  -17.0455 N   0  0  0  0  0  0  0  0  0  0  0  0
   25.6833  -21.0156  -10.7504 C   0  0  0  0  0  0  0  0  0  0  0  0
   25.3888  -22.2257  -10.5782 O   0  0  0  0  0  0  0  0  0  0  0  0
   27.8440  -19.6682   -5.3581 C   0  0  0  0  0  0  0  0  0  0  0  0
   26.7465  -20.4206   -6.1167 C   0  0  0  0  0  0  0  0  0  0  0  0
   26.7352  -19.8931   -7.5247 C   0  0  2  0  0  0  0  0  0  0  0  0
   26.6073  -18.3846   -7.5674 C   0  0  0  0  0  0  0  0  0  0  0  0
   25.6872  -20.5738   -8.3334 C   0  0  2  0  0  0  0  0  0  0  0  0
   25.8463  -20.0897   -9.7004 N   0  0  0  0  0  0  0  0  0  0  0  0
   24.3066  -20.4180   -7.8678 C   0  0  0  0  0  0  0  0  0  0  0  0
   23.5916  -19.4120   -8.0629 O   0  0  0  0  0  0  0  0  0  0  0  0
   20.0491  -22.3711   -7.1339 C   0  0  0  0  0  0  0  0  0  0  0  0
   21.5184  -22.5580   -7.4337 C   0  0  2  0  0  0  0  0  0  0  0  0
   21.9835  -23.9019   -6.9182 C   0  0  0  0  0  0  0  0  0  0  0  0
   22.2732  -21.4165   -6.7864 C   0  0  2  0  0  0  0  0  0  0  0  0
   23.6756  -21.4820   -7.1199 N   0  0  0  0  0  0  0  0  0  0  0  0
   22.1190  -21.4843   -5.3287 C   0  0  0  0  0  0  0  0  0  0  0  0
   20.9148  -21.1540   -4.7281 O   0  0  0  0  0  0  0  0  0  0  0  0
   23.0877  -21.8478   -4.5886 O   0  0  0  0  0  0  0  0  0  0  0  0
  2  1  1  6
  3  2  1  0
  4  3  1  0
  5  4  1  0
  6  7  1  0
  6  5  1  0
  8  2  1  0
  8  9  2  0
 11 10  1  0
 12 14  1  0
 12 11  1  0
 12 13  1  1
 14 15  1  6
 15  8  1  0
 16 14  1  0
 17 16  2  0
 19 18  1  1
 19 20  1  0
 19 21  1  0
 21 23  1  0
 21 22  1  1
 22 16  1  0
 23 24  1  0
 25 23  2  0
M  END
$$$$
