KIV.pdb
     RDKit          3D

 25 24  0  0  1  0  0  0  0  0999 V2000
   20.9417  -20.6547  -11.5480 N   0  0  0  0  0  0  0  0  0  0  0  0
   21.3002  -20.9352  -12.8721 C   0  0  1  0  0  0  0  0  0  0  0  0
   20.3806  -20.6925  -13.9862 C   0  0  0  0  0  0  0  0  0  0  0  0
   19.2039  -21.4653  -14.3085 C   0  0  0  0  0  0  0  0  0  0  0  0
   18.9873  -22.8832  -14.0341 C   0  0  0  0  0  0  0  0  0  0  0  0
   17.7327  -23.5399  -14.4220 C   0  0  0  0  0  0  0  0  0  0  0  0
   17.8186  -24.9425  -13.9156 N   0  0  0  0  0  0  0  0  0  0  0  0
   22.5906  -20.1591  -13.1261 C   0  0  0  0  0  0  0  0  0  0  0  0
   22.5487  -18.9515  -12.7786 O   0  0  0  0  0  0  0  0  0  0  0  0
   26.1392  -22.3046  -11.2576 C   0  0  0  0  0  0  0  0  0  0  0  0
   25.7127  -20.8939  -11.6748 C   0  0  0  0  0  0  0  0  0  0  0  0
   26.0111  -20.7530  -13.1417 C   0  0  2  0  0  0  0  0  0  0  0  0
   27.3885  -20.1746  -13.3904 C   0  0  0  0  0  0  0  0  0  0  0  0
   24.9393  -19.9782  -13.8248 C   0  0  2  0  0  0  0  0  0  0  0  0
   23.7207  -20.7712  -13.7043 N   0  0  0  0  0  0  0  0  0  0  0  0
   25.1982  -19.6031  -15.2174 C   0  0  0  0  0  0  0  0  0  0  0  0
   25.2025  -20.3932  -16.1855 O   0  0  0  0  0  0  0  0  0  0  0  0
   26.0807  -15.5550  -16.0985 C   0  0  0  0  0  0  0  0  0  0  0  0
   25.3919  -16.3946  -17.1494 C   0  0  2  0  0  0  0  0  0  0  0  0
   23.8952  -16.1876  -17.0760 C   0  0  0  0  0  0  0  0  0  0  0  0
   25.7710  -17.8406  -16.9104 C   0  0  2  0  0  0  0  0  0  0  0  0
   25.4758  -18.2243  -15.5511 N   0  0  0  0  0  0  0  0  0  0  0  0
   27.2044  -18.0253  -17.1648 C   0  0  0  0  0  0  0  0  0  0  0  0
   27.6691  -18.2801  -18.4449 O   0  0  0  0  0  0  0  0  0  0  0  0
   28.0476  -17.9549  -16.2149 O   0  0  0  0  0  0  0  0  0  0  0  0
  2  1  1  1
  3  2  1  0
  4  3  1  0
  5  4  1  0
  6  7  1  0
  6  5  1  0
  8  2  1  0
  8  9  2  0
 11 10  1  0
 12 14  1  0
 12 11  1  0
 12 13  1  1
 14 15  1  6
 15  8  1  0
 16 14  1  0
 17 16  2  0
 19 18  1  1
 19 20  1  0
 19 21  1  0
 21 23  1  0
 21 22  1  1
 22 16  1  0
 23 24  1  0
 25 23  2  0
M  END
$$$$
