WIW.pdb
     RDKit          3D

 37 40  0  0  1  0  0  0  0  0999 V2000
    6.3309  -19.6215   21.1709 N   0  0  0  0  0  0  0  0  0  0  0  0
    6.0119  -18.2499   21.4946 C   0  0  1  0  0  0  0  0  0  0  0  0
    5.2799  -18.2468   22.8171 C   0  0  0  0  0  0  0  0  0  0  0  0
    4.0886  -19.1296   22.7972 C   0  0  0  0  0  0  0  0  0  0  0  0
    3.7642  -20.1477   23.6638 C   0  0  0  0  0  0  0  0  0  0  0  0
    2.5936  -20.6675   23.2580 N   0  0  0  0  0  0  0  0  0  0  0  0
    2.1633  -20.0077   22.1559 C   0  0  0  0  0  0  0  0  0  0  0  0
    1.0195  -20.1579   21.3611 C   0  0  0  0  0  0  0  0  0  0  0  0
    0.8027  -19.3451   20.2699 C   0  0  0  0  0  0  0  0  0  0  0  0
    1.7592  -18.3863   20.0029 C   0  0  0  0  0  0  0  0  0  0  0  0
    2.8854  -18.2076   20.7512 C   0  0  0  0  0  0  0  0  0  0  0  0
    3.0860  -19.0429   21.8542 C   0  0  0  0  0  0  0  0  0  0  0  0
    7.2494  -17.4408   21.5473 C   0  0  0  0  0  0  0  0  0  0  0  0
    8.3484  -18.0623   21.6665 O   0  0  0  0  0  0  0  0  0  0  0  0
    7.0232  -12.7223   18.9696 C   0  0  0  0  0  0  0  0  0  0  0  0
    7.5522  -14.0740   19.4559 C   0  0  0  0  0  0  0  0  0  0  0  0
    8.2215  -13.9364   20.7813 C   0  0  2  0  0  0  0  0  0  0  0  0
    9.4552  -13.0696   20.7330 C   0  0  0  0  0  0  0  0  0  0  0  0
    8.3338  -15.2159   21.4992 C   0  0  2  0  0  0  0  0  0  0  0  0
    7.1399  -16.0268   21.4626 N   0  0  0  0  0  0  0  0  0  0  0  0
    9.0306  -15.2247   22.7918 C   0  0  0  0  0  0  0  0  0  0  0  0
    9.5674  -14.2184   23.3172 O   0  0  0  0  0  0  0  0  0  0  0  0
    9.1282  -16.4386   23.5257 N   0  0  0  0  0  0  0  0  0  0  0  0
   10.1076  -16.5979   24.6145 C   0  0  1  0  0  0  0  0  0  0  0  0
    9.9978  -15.4533   25.5953 C   0  0  0  0  0  0  0  0  0  0  0  0
    8.5672  -15.1630   25.8729 C   0  0  0  0  0  0  0  0  0  0  0  0
    7.4934  -16.0480   25.7205 C   0  0  0  0  0  0  0  0  0  0  0  0
    6.3666  -15.4003   26.0708 N   0  0  0  0  0  0  0  0  0  0  0  0
    6.6226  -14.1440   26.4459 C   0  0  0  0  0  0  0  0  0  0  0  0
    5.8132  -13.1205   26.8808 C   0  0  0  0  0  0  0  0  0  0  0  0
    6.4184  -11.9176   27.1971 C   0  0  0  0  0  0  0  0  0  0  0  0
    7.7837  -11.7164   27.0916 C   0  0  0  0  0  0  0  0  0  0  0  0
    8.5594  -12.7788   26.6483 C   0  0  0  0  0  0  0  0  0  0  0  0
    7.9860  -13.9885   26.3259 C   0  0  0  0  0  0  0  0  0  0  0  0
   10.0230  -17.9255   25.2211 C   0  0  0  0  0  0  0  0  0  0  0  0
   10.9258  -18.3851   26.1680 O   0  0  0  0  0  0  0  0  0  0  0  0
    9.1032  -18.7572   24.9154 O   0  0  0  0  0  0  0  0  0  0  0  0
  2  1  1  1
  2  3  1  0
  4  3  1  0
  5  4  2  0
  6  7  1  0
  6  5  1  0
  7 12  2  0
  8  7  1  0
  8  9  2  0
  9 10  1  0
 10 11  2  0
 12  4  1  0
 12 11  1  0
 13 20  1  0
 13  2  1  0
 14 13  2  0
 16 15  1  0
 16 17  1  0
 17 18  1  6
 19 17  1  0
 19 20  1  1
 21 19  1  0
 21 22  2  0
 23 24  1  0
 23 21  1  0
 24 25  1  1
 26 25  1  0
 26 27  2  0
 28 27  1  0
 29 28  1  0
 30 29  2  0
 31 30  1  0
 32 31  2  0
 32 33  1  0
 33 34  2  0
 34 29  1  0
 34 26  1  0
 35 24  1  0
 35 36  1  0
 37 35  2  0
M  END
$$$$
