WIW.pdb
     RDKit          3D

 37 40  0  0  1  0  0  0  0  0999 V2000
    5.8077  -18.2887   24.5644 N   0  0  0  0  0  0  0  0  0  0  0  0
    6.3999  -16.9795   24.4133 C   0  0  1  0  0  0  0  0  0  0  0  0
    6.9865  -16.5821   25.7486 C   0  0  0  0  0  0  0  0  0  0  0  0
    6.4754  -15.2703   26.2141 C   0  0  0  0  0  0  0  0  0  0  0  0
    5.2755  -14.9879   26.8251 C   0  0  0  0  0  0  0  0  0  0  0  0
    5.2459  -13.6670   27.0688 N   0  0  0  0  0  0  0  0  0  0  0  0
    6.3951  -13.1000   26.6294 C   0  0  0  0  0  0  0  0  0  0  0  0
    6.8528  -11.7761   26.6469 C   0  0  0  0  0  0  0  0  0  0  0  0
    8.0858  -11.4453   26.1285 C   0  0  0  0  0  0  0  0  0  0  0  0
    8.8382  -12.4734   25.5970 C   0  0  0  0  0  0  0  0  0  0  0  0
    8.4295  -13.7741   25.5607 C   0  0  0  0  0  0  0  0  0  0  0  0
    7.1751  -14.0881   26.0923 C   0  0  0  0  0  0  0  0  0  0  0  0
    7.4250  -17.0070   23.3470 C   0  0  0  0  0  0  0  0  0  0  0  0
    7.8387  -18.1431   22.9644 O   0  0  0  0  0  0  0  0  0  0  0  0
    7.3392  -13.2053   19.4970 C   0  0  0  0  0  0  0  0  0  0  0  0
    7.4407  -14.4854   20.3302 C   0  0  0  0  0  0  0  0  0  0  0  0
    8.8299  -14.6810   20.8357 C   0  0  2  0  0  0  0  0  0  0  0  0
    9.8667  -14.6522   19.7404 C   0  0  0  0  0  0  0  0  0  0  0  0
    8.9307  -15.7700   21.8201 C   0  0  2  0  0  0  0  0  0  0  0  0
    7.8851  -15.7722   22.8157 N   0  0  0  0  0  0  0  0  0  0  0  0
   10.2610  -16.1108   22.3404 C   0  0  0  0  0  0  0  0  0  0  0  0
   10.9006  -17.1469   22.0337 O   0  0  0  0  0  0  0  0  0  0  0  0
   10.8981  -15.2336   23.2603 N   0  0  0  0  0  0  0  0  0  0  0  0
   12.1073  -15.6426   23.9955 C   0  0  1  0  0  0  0  0  0  0  0  0
   11.8779  -16.9609   24.6979 C   0  0  0  0  0  0  0  0  0  0  0  0
   10.7134  -16.8479   25.6140 C   0  0  0  0  0  0  0  0  0  0  0  0
    9.7111  -17.8056   25.8083 C   0  0  0  0  0  0  0  0  0  0  0  0
    8.8402  -17.3199   26.7123 N   0  0  0  0  0  0  0  0  0  0  0  0
    9.1991  -16.1030   27.1306 C   0  0  0  0  0  0  0  0  0  0  0  0
    8.6386  -15.2264   28.0302 C   0  0  0  0  0  0  0  0  0  0  0  0
    9.2854  -14.0211   28.2356 C   0  0  0  0  0  0  0  0  0  0  0  0
   10.4537  -13.6772   27.5779 C   0  0  0  0  0  0  0  0  0  0  0  0
   10.9814  -14.5944   26.6794 C   0  0  0  0  0  0  0  0  0  0  0  0
   10.3606  -15.8025   26.4538 C   0  0  0  0  0  0  0  0  0  0  0  0
   13.2916  -15.6110   23.1386 C   0  0  0  0  0  0  0  0  0  0  0  0
   13.2512  -15.2390   21.8033 O   0  0  0  0  0  0  0  0  0  0  0  0
   14.4521  -15.9272   23.5677 O   0  0  0  0  0  0  0  0  0  0  0  0
  2  1  1  1
  2  3  1  0
  4  3  1  0
  5  4  2  0
  6  7  1  0
  6  5  1  0
  7 12  2  0
  8  7  1  0
  8  9  2  0
  9 10  1  0
 10 11  2  0
 12  4  1  0
 12 11  1  0
 13 20  1  0
 13  2  1  0
 14 13  2  0
 16 15  1  0
 16 17  1  0
 17 18  1  6
 19 17  1  0
 19 20  1  1
 21 19  1  0
 21 22  2  0
 23 24  1  0
 23 21  1  0
 24 25  1  6
 26 25  1  0
 26 27  2  0
 28 27  1  0
 29 28  1  0
 30 29  2  0
 31 30  1  0
 32 31  2  0
 32 33  1  0
 33 34  2  0
 34 29  1  0
 34 26  1  0
 35 24  1  0
 35 36  1  0
 37 35  2  0
M  END
$$$$
