WIW.pdb
     RDKit          3D

 37 40  0  0  1  0  0  0  0  0999 V2000
    7.5677  -20.0712   19.2654 N   0  0  0  0  0  0  0  0  0  0  0  0
    7.2549  -19.1147   20.3021 C   0  0  1  0  0  0  0  0  0  0  0  0
    7.3988  -19.8150   21.6340 C   0  0  0  0  0  0  0  0  0  0  0  0
    6.8655  -19.0008   22.7527 C   0  0  0  0  0  0  0  0  0  0  0  0
    5.7195  -18.2404   22.7864 C   0  0  0  0  0  0  0  0  0  0  0  0
    5.6395  -17.6820   24.0058 N   0  0  0  0  0  0  0  0  0  0  0  0
    6.7041  -18.0664   24.7501 C   0  0  0  0  0  0  0  0  0  0  0  0
    7.0837  -17.7692   26.0655 C   0  0  0  0  0  0  0  0  0  0  0  0
    8.2358  -18.2962   26.6071 C   0  0  0  0  0  0  0  0  0  0  0  0
    8.9882  -19.1224   25.7967 C   0  0  0  0  0  0  0  0  0  0  0  0
    8.6538  -19.4365   24.5123 C   0  0  0  0  0  0  0  0  0  0  0  0
    7.4807  -18.8912   23.9822 C   0  0  0  0  0  0  0  0  0  0  0  0
    8.1502  -17.9417   20.1963 C   0  0  0  0  0  0  0  0  0  0  0  0
    9.3334  -18.1457   19.7881 O   0  0  0  0  0  0  0  0  0  0  0  0
    7.7523  -11.7731   19.8932 C   0  0  0  0  0  0  0  0  0  0  0  0
    8.5846  -13.0520   20.0161 C   0  0  0  0  0  0  0  0  0  0  0  0
    7.7042  -14.2460   20.1659 C   0  0  2  0  0  0  0  0  0  0  0  0
    6.5318  -14.0042   21.0839 C   0  0  0  0  0  0  0  0  0  0  0  0
    8.4615  -15.4917   20.3663 C   0  0  2  0  0  0  0  0  0  0  0  0
    7.6408  -16.6645   20.5540 N   0  0  0  0  0  0  0  0  0  0  0  0
    9.6542  -15.4458   21.2217 C   0  0  0  0  0  0  0  0  0  0  0  0
   10.6651  -14.7362   20.9950 O   0  0  0  0  0  0  0  0  0  0  0  0
    9.7060  -16.2496   22.3934 N   0  0  0  0  0  0  0  0  0  0  0  0
    9.7248  -15.6444   23.7363 C   0  0  1  0  0  0  0  0  0  0  0  0
    8.4394  -15.9486   24.4707 C   0  0  0  0  0  0  0  0  0  0  0  0
    8.3888  -15.1761   25.7391 C   0  0  0  0  0  0  0  0  0  0  0  0
    8.9297  -15.5624   26.9711 C   0  0  0  0  0  0  0  0  0  0  0  0
    8.6663  -14.5909   27.8648 N   0  0  0  0  0  0  0  0  0  0  0  0
    7.9865  -13.5857   27.3064 C   0  0  0  0  0  0  0  0  0  0  0  0
    7.5046  -12.3985   27.8067 C   0  0  0  0  0  0  0  0  0  0  0  0
    6.8302  -11.5641   26.9336 C   0  0  0  0  0  0  0  0  0  0  0  0
    6.6294  -11.8802   25.6011 C   0  0  0  0  0  0  0  0  0  0  0  0
    7.1341  -13.0892   25.1425 C   0  0  0  0  0  0  0  0  0  0  0  0
    7.8100  -13.9409   25.9874 C   0  0  0  0  0  0  0  0  0  0  0  0
   10.9394  -16.0014   24.4678 C   0  0  0  0  0  0  0  0  0  0  0  0
   12.1986  -15.5376   24.1183 O   0  0  0  0  0  0  0  0  0  0  0  0
   10.9200  -16.7715   25.4865 O   0  0  0  0  0  0  0  0  0  0  0  0
  2  1  1  6
  2  3  1  0
  4  3  1  0
  5  4  2  0
  6  7  1  0
  6  5  1  0
  7 12  2  0
  8  7  1  0
  8  9  2  0
  9 10  1  0
 10 11  2  0
 12  4  1  0
 12 11  1  0
 13 20  1  0
 13  2  1  0
 14 13  2  0
 16 15  1  0
 16 17  1  0
 17 18  1  1
 19 17  1  0
 19 20  1  1
 21 19  1  0
 21 22  2  0
 23 24  1  0
 23 21  1  0
 24 25  1  1
 26 25  1  0
 26 27  2  0
 28 27  1  0
 29 28  1  0
 30 29  2  0
 31 30  1  0
 32 31  2  0
 32 33  1  0
 33 34  2  0
 34 29  1  0
 34 26  1  0
 35 24  1  0
 35 36  1  0
 37 35  2  0
M  END
$$$$
