WIW.pdb
     RDKit          3D

 37 40  0  0  1  0  0  0  0  0999 V2000
    6.0704  -18.6978   24.3013 N   0  0  0  0  0  0  0  0  0  0  0  0
    6.4625  -17.3081   24.2505 C   0  0  1  0  0  0  0  0  0  0  0  0
    6.9267  -16.9094   25.6328 C   0  0  0  0  0  0  0  0  0  0  0  0
    6.1486  -15.7696   26.1751 C   0  0  0  0  0  0  0  0  0  0  0  0
    4.9007  -15.7844   26.7541 C   0  0  0  0  0  0  0  0  0  0  0  0
    4.5980  -14.5211   27.0968 N   0  0  0  0  0  0  0  0  0  0  0  0
    5.6199  -13.7015   26.7518 C   0  0  0  0  0  0  0  0  0  0  0  0
    5.7997  -12.3191   26.8903 C   0  0  0  0  0  0  0  0  0  0  0  0
    6.9536  -11.7068   26.4520 C   0  0  0  0  0  0  0  0  0  0  0  0
    7.9122  -12.5159   25.8759 C   0  0  0  0  0  0  0  0  0  0  0  0
    7.7762  -13.8643   25.7226 C   0  0  0  0  0  0  0  0  0  0  0  0
    6.5977  -14.4656   26.1744 C   0  0  0  0  0  0  0  0  0  0  0  0
    7.5228  -17.1174   23.2365 C   0  0  0  0  0  0  0  0  0  0  0  0
    8.1148  -18.1544   22.8091 O   0  0  0  0  0  0  0  0  0  0  0  0
    8.0768  -12.0921   20.2428 C   0  0  0  0  0  0  0  0  0  0  0  0
    8.6317  -13.1746   21.1722 C   0  0  0  0  0  0  0  0  0  0  0  0
    8.1826  -14.5284   20.7376 C   0  0  2  0  0  0  0  0  0  0  0  0
    6.7332  -14.5648   20.3213 C   0  0  0  0  0  0  0  0  0  0  0  0
    8.6449  -15.5983   21.6359 C   0  0  2  0  0  0  0  0  0  0  0  0
    7.8166  -15.7971   22.8017 N   0  0  0  0  0  0  0  0  0  0  0  0
   10.0863  -15.7110   21.8927 C   0  0  0  0  0  0  0  0  0  0  0  0
   10.9812  -15.4479   21.0520 O   0  0  0  0  0  0  0  0  0  0  0  0
   10.5375  -16.1492   23.1679 N   0  0  0  0  0  0  0  0  0  0  0  0
   11.9723  -16.3203   23.4546 C   0  0  1  0  0  0  0  0  0  0  0  0
   12.1689  -16.9116   24.8315 C   0  0  0  0  0  0  0  0  0  0  0  0
   11.0922  -16.4405   25.7407 C   0  0  0  0  0  0  0  0  0  0  0  0
    9.8616  -17.0675   25.9688 C   0  0  0  0  0  0  0  0  0  0  0  0
    9.1719  -16.3227   26.8527 N   0  0  0  0  0  0  0  0  0  0  0  0
    9.8643  -15.2430   27.2261 C   0  0  0  0  0  0  0  0  0  0  0  0
    9.5828  -14.2117   28.0916 C   0  0  0  0  0  0  0  0  0  0  0  0
   10.5461  -13.2322   28.2531 C   0  0  0  0  0  0  0  0  0  0  0  0
   11.7580  -13.2572   27.5851 C   0  0  0  0  0  0  0  0  0  0  0  0
   11.9965  -14.3181   26.7221 C   0  0  0  0  0  0  0  0  0  0  0  0
   11.0572  -15.3084   26.5405 C   0  0  0  0  0  0  0  0  0  0  0  0
   12.6502  -17.0459   22.3814 C   0  0  0  0  0  0  0  0  0  0  0  0
   14.0226  -17.2421   22.3484 O   0  0  0  0  0  0  0  0  0  0  0  0
   12.0168  -17.5513   21.3943 O   0  0  0  0  0  0  0  0  0  0  0  0
  2  1  1  1
  2  3  1  0
  4  3  1  0
  5  4  2  0
  6  7  1  0
  6  5  1  0
  7 12  2  0
  8  7  1  0
  8  9  2  0
  9 10  1  0
 10 11  2  0
 12  4  1  0
 12 11  1  0
 13 20  1  0
 13  2  1  0
 14 13  2  0
 16 15  1  0
 16 17  1  0
 17 18  1  1
 19 17  1  0
 19 20  1  1
 21 19  1  0
 21 22  2  0
 23 24  1  0
 23 21  1  0
 24 25  1  1
 26 25  1  0
 26 27  2  0
 28 27  1  0
 29 28  1  0
 30 29  2  0
 31 30  1  0
 32 31  2  0
 32 33  1  0
 33 34  2  0
 34 29  1  0
 34 26  1  0
 35 24  1  0
 35 36  1  0
 37 35  2  0
M  END
$$$$
