WIW.pdb
     RDKit          3D

 37 40  0  0  1  0  0  0  0  0999 V2000
    6.3209  -19.7639   20.9702 N   0  0  0  0  0  0  0  0  0  0  0  0
    6.0173  -18.3862   21.2822 C   0  0  1  0  0  0  0  0  0  0  0  0
    5.3725  -18.3545   22.6490 C   0  0  0  0  0  0  0  0  0  0  0  0
    4.1789  -19.2313   22.7229 C   0  0  0  0  0  0  0  0  0  0  0  0
    3.8052  -20.0834   23.7364 C   0  0  0  0  0  0  0  0  0  0  0  0
    2.6539  -20.6702   23.3686 N   0  0  0  0  0  0  0  0  0  0  0  0
    2.2838  -20.2146   22.1477 C   0  0  0  0  0  0  0  0  0  0  0  0
    1.1811  -20.5054   21.3341 C   0  0  0  0  0  0  0  0  0  0  0  0
    1.0244  -19.8966   20.1081 C   0  0  0  0  0  0  0  0  0  0  0  0
    1.9986  -18.9960   19.7267 C   0  0  0  0  0  0  0  0  0  0  0  0
    3.0863  -18.6853   20.4886 C   0  0  0  0  0  0  0  0  0  0  0  0
    3.2259  -19.3142   21.7295 C   0  0  0  0  0  0  0  0  0  0  0  0
    7.2518  -17.5722   21.2359 C   0  0  0  0  0  0  0  0  0  0  0  0
    8.3302  -18.1647   20.9287 O   0  0  0  0  0  0  0  0  0  0  0  0
    6.9297  -12.3592   19.5833 C   0  0  0  0  0  0  0  0  0  0  0  0
    7.3594  -13.8114   19.8067 C   0  0  0  0  0  0  0  0  0  0  0  0
    8.0837  -13.9574   21.1019 C   0  0  2  0  0  0  0  0  0  0  0  0
    9.2329  -12.9912   21.2484 C   0  0  0  0  0  0  0  0  0  0  0  0
    8.3452  -15.3619   21.4541 C   0  0  2  0  0  0  0  0  0  0  0  0
    7.1626  -16.1862   21.5351 N   0  0  0  0  0  0  0  0  0  0  0  0
    9.3473  -15.6398   22.4909 C   0  0  0  0  0  0  0  0  0  0  0  0
   10.5694  -15.3699   22.3893 O   0  0  0  0  0  0  0  0  0  0  0  0
    8.9442  -16.2603   23.7050 N   0  0  0  0  0  0  0  0  0  0  0  0
    9.9075  -16.5176   24.7895 C   0  0  1  0  0  0  0  0  0  0  0  0
    9.2229  -16.4362   26.1344 C   0  0  0  0  0  0  0  0  0  0  0  0
    8.0657  -15.5074   26.0554 C   0  0  0  0  0  0  0  0  0  0  0  0
    6.7396  -15.8521   25.7683 C   0  0  0  0  0  0  0  0  0  0  0  0
    6.0028  -14.7259   25.7874 N   0  0  0  0  0  0  0  0  0  0  0  0
    6.7529  -13.6568   26.0684 C   0  0  0  0  0  0  0  0  0  0  0  0
    6.4550  -12.3203   26.1979 C   0  0  0  0  0  0  0  0  0  0  0  0
    7.4944  -11.4608   26.5051 C   0  0  0  0  0  0  0  0  0  0  0  0
    8.7967  -11.8948   26.6821 C   0  0  0  0  0  0  0  0  0  0  0  0
    9.0483  -13.2526   26.5413 C   0  0  0  0  0  0  0  0  0  0  0  0
    8.0345  -14.1330   26.2361 C   0  0  0  0  0  0  0  0  0  0  0  0
   10.6514  -17.7557   24.5626 C   0  0  0  0  0  0  0  0  0  0  0  0
   10.3629  -18.6348   23.5297 O   0  0  0  0  0  0  0  0  0  0  0  0
   11.6250  -18.1123   25.3082 O   0  0  0  0  0  0  0  0  0  0  0  0
  2  1  1  1
  2  3  1  0
  4  3  1  0
  5  4  2  0
  6  7  1  0
  6  5  1  0
  7 12  2  0
  8  7  1  0
  8  9  2  0
  9 10  1  0
 10 11  2  0
 12  4  1  0
 12 11  1  0
 13 20  1  0
 13  2  1  0
 14 13  2  0
 16 15  1  0
 16 17  1  0
 17 18  1  6
 19 17  1  0
 19 20  1  1
 21 19  1  0
 21 22  2  0
 23 24  1  0
 23 21  1  0
 24 25  1  1
 26 25  1  0
 26 27  2  0
 28 27  1  0
 29 28  1  0
 30 29  2  0
 31 30  1  0
 32 31  2  0
 32 33  1  0
 33 34  2  0
 34 29  1  0
 34 26  1  0
 35 24  1  0
 35 36  1  0
 37 35  2  0
M  END
$$$$
