WIW.pdb
     RDKit          3D

 37 40  0  0  1  0  0  0  0  0999 V2000
    5.7706  -18.8382   23.0141 N   0  0  0  0  0  0  0  0  0  0  0  0
    6.4390  -17.6122   23.3852 C   0  0  1  0  0  0  0  0  0  0  0  0
    7.0619  -17.8209   24.7466 C   0  0  0  0  0  0  0  0  0  0  0  0
    6.7667  -16.7010   25.6726 C   0  0  0  0  0  0  0  0  0  0  0  0
    5.7437  -16.5939   26.5864 C   0  0  0  0  0  0  0  0  0  0  0  0
    5.8738  -15.4073   27.2030 N   0  0  0  0  0  0  0  0  0  0  0  0
    6.9525  -14.7553   26.7065 C   0  0  0  0  0  0  0  0  0  0  0  0
    7.5123  -13.5066   27.0065 C   0  0  0  0  0  0  0  0  0  0  0  0
    8.6371  -13.0576   26.3496 C   0  0  0  0  0  0  0  0  0  0  0  0
    9.1779  -13.8914   25.3916 C   0  0  0  0  0  0  0  0  0  0  0  0
    8.6640  -15.1132   25.0701 C   0  0  0  0  0  0  0  0  0  0  0  0
    7.5224  -15.5499   25.7489 C   0  0  0  0  0  0  0  0  0  0  0  0
    7.4499  -17.2573   22.3649 C   0  0  0  0  0  0  0  0  0  0  0  0
    8.0487  -18.2103   21.7805 O   0  0  0  0  0  0  0  0  0  0  0  0
    8.6093  -11.9192   19.9607 C   0  0  0  0  0  0  0  0  0  0  0  0
    8.5018  -13.0579   20.9780 C   0  0  0  0  0  0  0  0  0  0  0  0
    8.3658  -14.3737   20.2897 C   0  0  2  0  0  0  0  0  0  0  0  0
    7.0914  -14.4940   19.4915 C   0  0  0  0  0  0  0  0  0  0  0  0
    8.7194  -15.5097   21.1555 C   0  0  2  0  0  0  0  0  0  0  0  0
    7.6918  -15.8828   22.0986 N   0  0  0  0  0  0  0  0  0  0  0  0
   10.0843  -15.5701   21.6941 C   0  0  0  0  0  0  0  0  0  0  0  0
   10.9876  -14.7365   21.4374 O   0  0  0  0  0  0  0  0  0  0  0  0
   10.4459  -16.6336   22.5657 N   0  0  0  0  0  0  0  0  0  0  0  0
   11.6906  -16.5886   23.3523 C   0  0  1  0  0  0  0  0  0  0  0  0
   11.7434  -15.3291   24.1859 C   0  0  0  0  0  0  0  0  0  0  0  0
   10.9858  -15.5284   25.4487 C   0  0  0  0  0  0  0  0  0  0  0  0
   10.4890  -16.7419   25.9387 C   0  0  0  0  0  0  0  0  0  0  0  0
    9.8611  -16.4952   27.1034 N   0  0  0  0  0  0  0  0  0  0  0  0
    9.9091  -15.1978   27.4183 C   0  0  0  0  0  0  0  0  0  0  0  0
    9.4222  -14.4820   28.4871 C   0  0  0  0  0  0  0  0  0  0  0  0
    9.6564  -13.1189   28.5032 C   0  0  0  0  0  0  0  0  0  0  0  0
   10.3505  -12.4670   27.4986 C   0  0  0  0  0  0  0  0  0  0  0  0
   10.8225  -13.2317   26.4406 C   0  0  0  0  0  0  0  0  0  0  0  0
   10.6053  -14.5907   26.3965 C   0  0  0  0  0  0  0  0  0  0  0  0
   11.8916  -17.8240   24.1081 C   0  0  0  0  0  0  0  0  0  0  0  0
   10.9087  -18.7911   24.2549 O   0  0  0  0  0  0  0  0  0  0  0  0
   12.9963  -18.0959   24.6885 O   0  0  0  0  0  0  0  0  0  0  0  0
  2  1  1  6
  2  3  1  0
  4  3  1  0
  5  4  2  0
  6  7  1  0
  6  5  1  0
  7 12  2  0
  8  7  1  0
  8  9  2  0
  9 10  1  0
 10 11  2  0
 12  4  1  0
 12 11  1  0
 13 20  1  0
 13  2  1  0
 14 13  2  0
 16 15  1  0
 16 17  1  0
 17 18  1  1
 19 17  1  0
 19 20  1  1
 21 19  1  0
 21 22  2  0
 23 24  1  0
 23 21  1  0
 24 25  1  1
 26 25  1  0
 26 27  2  0
 28 27  1  0
 29 28  1  0
 30 29  2  0
 31 30  1  0
 32 31  2  0
 32 33  1  0
 33 34  2  0
 34 29  1  0
 34 26  1  0
 35 24  1  0
 35 36  1  0
 37 35  2  0
M  END
$$$$
