WIW.pdb
     RDKit          3D

 37 40  0  0  1  0  0  0  0  0999 V2000
   10.6632  -18.5612   18.3645 N   0  0  0  0  0  0  0  0  0  0  0  0
    9.6891  -18.5103   19.4304 C   0  0  1  0  0  0  0  0  0  0  0  0
    9.9164  -19.7110   20.3201 C   0  0  0  0  0  0  0  0  0  0  0  0
    9.3251  -20.9463   19.7517 C   0  0  0  0  0  0  0  0  0  0  0  0
    9.9399  -21.9216   19.0009 C   0  0  0  0  0  0  0  0  0  0  0  0
    9.0152  -22.8516   18.7093 N   0  0  0  0  0  0  0  0  0  0  0  0
    7.8273  -22.4949   19.2543 C   0  0  0  0  0  0  0  0  0  0  0  0
    6.5692  -23.1111   19.2439 C   0  0  0  0  0  0  0  0  0  0  0  0
    5.4938  -22.5381   19.8869 C   0  0  0  0  0  0  0  0  0  0  0  0
    5.7169  -21.3395   20.5344 C   0  0  0  0  0  0  0  0  0  0  0  0
    6.9251  -20.7077   20.5684 C   0  0  0  0  0  0  0  0  0  0  0  0
    8.0032  -21.3063   19.9096 C   0  0  0  0  0  0  0  0  0  0  0  0
    9.8195  -17.2390   20.1757 C   0  0  0  0  0  0  0  0  0  0  0  0
   10.9847  -16.7557   20.3058 O   0  0  0  0  0  0  0  0  0  0  0  0
    6.9298  -12.8093   19.7807 C   0  0  0  0  0  0  0  0  0  0  0  0
    7.9622  -13.9129   20.0246 C   0  0  0  0  0  0  0  0  0  0  0  0
    7.8709  -14.4258   21.4217 C   0  0  2  0  0  0  0  0  0  0  0  0
    7.8694  -13.3273   22.4556 C   0  0  0  0  0  0  0  0  0  0  0  0
    8.7610  -15.5714   21.6681 C   0  0  2  0  0  0  0  0  0  0  0  0
    8.6446  -16.6358   20.6996 N   0  0  0  0  0  0  0  0  0  0  0  0
    8.9302  -16.0304   23.0527 C   0  0  0  0  0  0  0  0  0  0  0  0
    8.1340  -16.7954   23.6507 O   0  0  0  0  0  0  0  0  0  0  0  0
   10.0587  -15.5960   23.8007 N   0  0  0  0  0  0  0  0  0  0  0  0
   10.2123  -15.9421   25.2244 C   0  0  1  0  0  0  0  0  0  0  0  0
    9.8434  -14.7646   26.0970 C   0  0  0  0  0  0  0  0  0  0  0  0
    8.3656  -14.6164   26.1449 C   0  0  0  0  0  0  0  0  0  0  0  0
    7.4199  -15.6114   25.8710 C   0  0  0  0  0  0  0  0  0  0  0  0
    6.1947  -15.0745   26.0211 N   0  0  0  0  0  0  0  0  0  0  0  0
    6.2657  -13.7889   26.3770 C   0  0  0  0  0  0  0  0  0  0  0  0
    5.3028  -12.8433   26.6423 C   0  0  0  0  0  0  0  0  0  0  0  0
    5.7315  -11.5762   26.9946 C   0  0  0  0  0  0  0  0  0  0  0  0
    7.0704  -11.2378   27.0862 C   0  0  0  0  0  0  0  0  0  0  0  0
    8.0053  -12.2259   26.8091 C   0  0  0  0  0  0  0  0  0  0  0  0
    7.6094  -13.4965   26.4559 C   0  0  0  0  0  0  0  0  0  0  0  0
    9.5114  -17.1825   25.5528 C   0  0  0  0  0  0  0  0  0  0  0  0
    9.7775  -17.9240   26.6940 O   0  0  0  0  0  0  0  0  0  0  0  0
    8.5994  -17.6692   24.8028 O   0  0  0  0  0  0  0  0  0  0  0  0
  2  1  1  6
  2  3  1  0
  4  3  1  0
  5  4  2  0
  6  7  1  0
  6  5  1  0
  7 12  2  0
  8  7  1  0
  8  9  2  0
  9 10  1  0
 10 11  2  0
 12  4  1  0
 12 11  1  0
 13 20  1  0
 13  2  1  0
 14 13  2  0
 16 15  1  0
 16 17  1  0
 17 18  1  1
 19 17  1  0
 19 20  1  6
 21 19  1  0
 21 22  2  0
 23 24  1  0
 23 21  1  0
 24 25  1  1
 26 25  1  0
 26 27  2  0
 28 27  1  0
 29 28  1  0
 30 29  2  0
 31 30  1  0
 32 31  2  0
 32 33  1  0
 33 34  2  0
 34 29  1  0
 34 26  1  0
 35 24  1  0
 35 36  1  0
 37 35  2  0
M  END
$$$$
