WIW.pdb
     RDKit          3D

 37 40  0  0  1  0  0  0  0  0999 V2000
    5.2594  -17.6390   24.2967 N   0  0  0  0  0  0  0  0  0  0  0  0
    5.9694  -16.3831   24.2167 C   0  0  1  0  0  0  0  0  0  0  0  0
    6.3103  -15.9559   25.6260 C   0  0  0  0  0  0  0  0  0  0  0  0
    5.5284  -14.7710   26.0541 C   0  0  0  0  0  0  0  0  0  0  0  0
    4.2211  -14.7172   26.4796 C   0  0  0  0  0  0  0  0  0  0  0  0
    3.9403  -13.4346   26.7646 N   0  0  0  0  0  0  0  0  0  0  0  0
    5.0338  -12.6696   26.5323 C   0  0  0  0  0  0  0  0  0  0  0  0
    5.2614  -11.2942   26.6706 C   0  0  0  0  0  0  0  0  0  0  0  0
    6.4870  -10.7441   26.3646 C   0  0  0  0  0  0  0  0  0  0  0  0
    7.4678  -11.6075   25.9196 C   0  0  0  0  0  0  0  0  0  0  0  0
    7.2870  -12.9512   25.7714 C   0  0  0  0  0  0  0  0  0  0  0  0
    6.0358  -13.4890   26.0877 C   0  0  0  0  0  0  0  0  0  0  0  0
    7.1792  -16.5375   23.3793 C   0  0  0  0  0  0  0  0  0  0  0  0
    7.7391  -17.6753   23.3669 O   0  0  0  0  0  0  0  0  0  0  0  0
    7.4912  -12.8533   19.9133 C   0  0  0  0  0  0  0  0  0  0  0  0
    7.7615  -14.3474   20.1081 C   0  0  0  0  0  0  0  0  0  0  0  0
    9.0502  -14.5644   20.8261 C   0  0  2  0  0  0  0  0  0  0  0  0
   10.2135  -14.7981   19.8945 C   0  0  0  0  0  0  0  0  0  0  0  0
    8.9186  -15.4803   21.9702 C   0  0  2  0  0  0  0  0  0  0  0  0
    7.6427  -15.4144   22.6427 N   0  0  0  0  0  0  0  0  0  0  0  0
   10.0688  -15.6320   22.8705 C   0  0  0  0  0  0  0  0  0  0  0  0
   10.5021  -14.7299   23.6289 O   0  0  0  0  0  0  0  0  0  0  0  0
   10.7676  -16.8696   22.9102 N   0  0  0  0  0  0  0  0  0  0  0  0
   12.1131  -16.9700   23.5016 C   0  0  1  0  0  0  0  0  0  0  0  0
   12.0839  -17.8424   24.7353 C   0  0  0  0  0  0  0  0  0  0  0  0
   11.3109  -17.1688   25.8108 C   0  0  0  0  0  0  0  0  0  0  0  0
   10.0661  -17.5646   26.3141 C   0  0  0  0  0  0  0  0  0  0  0  0
    9.7068  -16.6902   27.2722 N   0  0  0  0  0  0  0  0  0  0  0  0
   10.6317  -15.7406   27.4377 C   0  0  0  0  0  0  0  0  0  0  0  0
   10.7103  -14.6562   28.2803 C   0  0  0  0  0  0  0  0  0  0  0  0
   11.8362  -13.8577   28.1907 C   0  0  0  0  0  0  0  0  0  0  0  0
   12.8637  -14.1105   27.2985 C   0  0  0  0  0  0  0  0  0  0  0  0
   12.7393  -15.2162   26.4687 C   0  0  0  0  0  0  0  0  0  0  0  0
   11.6305  -16.0301   26.5345 C   0  0  0  0  0  0  0  0  0  0  0  0
   13.1082  -17.3631   22.5052 C   0  0  0  0  0  0  0  0  0  0  0  0
   14.4669  -17.4265   22.7750 O   0  0  0  0  0  0  0  0  0  0  0  0
   12.7883  -17.6767   21.3092 O   0  0  0  0  0  0  0  0  0  0  0  0
  2  1  1  1
  2  3  1  0
  4  3  1  0
  5  4  2  0
  6  7  1  0
  6  5  1  0
  7 12  2  0
  8  7  1  0
  8  9  2  0
  9 10  1  0
 10 11  2  0
 12  4  1  0
 12 11  1  0
 13 20  1  0
 13  2  1  0
 14 13  2  0
 16 15  1  0
 16 17  1  0
 17 18  1  6
 19 17  1  0
 19 20  1  1
 21 19  1  0
 21 22  2  0
 23 24  1  0
 23 21  1  0
 24 25  1  1
 26 25  1  0
 26 27  2  0
 28 27  1  0
 29 28  1  0
 30 29  2  0
 31 30  1  0
 32 31  2  0
 32 33  1  0
 33 34  2  0
 34 29  1  0
 34 26  1  0
 35 24  1  0
 35 36  1  0
 37 35  2  0
M  END
$$$$
