WIW.pdb
     RDKit          3D

 37 40  0  0  1  0  0  0  0  0999 V2000
    6.3231  -17.1091   23.3235 N   0  0  0  0  0  0  0  0  0  0  0  0
    7.5705  -16.5063   22.9134 C   0  0  1  0  0  0  0  0  0  0  0  0
    7.4175  -15.0069   23.0282 C   0  0  0  0  0  0  0  0  0  0  0  0
    7.0447  -14.3837   21.7354 C   0  0  0  0  0  0  0  0  0  0  0  0
    5.7938  -14.0276   21.2869 C   0  0  0  0  0  0  0  0  0  0  0  0
    5.9387  -13.4967   20.0612 N   0  0  0  0  0  0  0  0  0  0  0  0
    7.2488  -13.5049   19.7167 C   0  0  0  0  0  0  0  0  0  0  0  0
    7.9172  -13.0706   18.5646 C   0  0  0  0  0  0  0  0  0  0  0  0
    9.2852  -13.1884   18.4517 C   0  0  0  0  0  0  0  0  0  0  0  0
    9.9560  -13.7502   19.5195 C   0  0  0  0  0  0  0  0  0  0  0  0
    9.3433  -14.1851   20.6578 C   0  0  0  0  0  0  0  0  0  0  0  0
    7.9544  -14.0560   20.7519 C   0  0  0  0  0  0  0  0  0  0  0  0
    8.6784  -17.0134   23.7526 C   0  0  0  0  0  0  0  0  0  0  0  0
    8.4142  -17.2934   24.9610 O   0  0  0  0  0  0  0  0  0  0  0  0
   14.4151  -19.2955   23.1796 C   0  0  0  0  0  0  0  0  0  0  0  0
   13.2796  -18.7310   24.0371 C   0  0  0  0  0  0  0  0  0  0  0  0
   12.1874  -18.1869   23.1802 C   0  0  2  0  0  0  0  0  0  0  0  0
   12.6963  -17.3320   22.0462 C   0  0  0  0  0  0  0  0  0  0  0  0
   11.0603  -17.6545   23.9622 C   0  0  2  0  0  0  0  0  0  0  0  0
    9.9640  -17.1573   23.1651 N   0  0  0  0  0  0  0  0  0  0  0  0
   11.3636  -16.8411   25.1466 C   0  0  0  0  0  0  0  0  0  0  0  0
   11.8653  -15.6907   25.1099 O   0  0  0  0  0  0  0  0  0  0  0  0
   11.0880  -17.3606   26.4412 N   0  0  0  0  0  0  0  0  0  0  0  0
   11.5654  -16.6791   27.6568 C   0  0  1  0  0  0  0  0  0  0  0  0
   10.9615  -15.2975   27.7595 C   0  0  0  0  0  0  0  0  0  0  0  0
    9.4898  -15.3755   27.5692 C   0  0  0  0  0  0  0  0  0  0  0  0
    8.6722  -16.4782   27.8432 C   0  0  0  0  0  0  0  0  0  0  0  0
    7.4058  -16.1460   27.5309 N   0  0  0  0  0  0  0  0  0  0  0  0
    7.3297  -14.8952   27.0680 C   0  0  0  0  0  0  0  0  0  0  0  0
    6.2744  -14.1276   26.6330 C   0  0  0  0  0  0  0  0  0  0  0  0
    6.5520  -12.8394   26.2125 C   0  0  0  0  0  0  0  0  0  0  0  0
    7.8310  -12.3105   26.2156 C   0  0  0  0  0  0  0  0  0  0  0  0
    8.8634  -13.1233   26.6633 C   0  0  0  0  0  0  0  0  0  0  0  0
    8.6186  -14.4099   27.0884 C   0  0  0  0  0  0  0  0  0  0  0  0
   11.3804  -17.5109   28.8449 C   0  0  0  0  0  0  0  0  0  0  0  0
   11.8967  -17.1810   30.0889 O   0  0  0  0  0  0  0  0  0  0  0  0
   10.7250  -18.6066   28.8146 O   0  0  0  0  0  0  0  0  0  0  0  0
  2  1  1  1
  2  3  1  0
  4  3  1  0
  5  4  2  0
  6  7  1  0
  6  5  1  0
  7 12  2  0
  8  7  1  0
  8  9  2  0
  9 10  1  0
 10 11  2  0
 12  4  1  0
 12 11  1  0
 13 20  1  0
 13  2  1  0
 14 13  2  0
 16 15  1  0
 16 17  1  0
 17 18  1  1
 19 17  1  0
 19 20  1  6
 21 19  1  0
 21 22  2  0
 23 24  1  0
 23 21  1  0
 24 25  1  1
 26 25  1  0
 26 27  2  0
 28 27  1  0
 29 28  1  0
 30 29  2  0
 31 30  1  0
 32 31  2  0
 32 33  1  0
 33 34  2  0
 34 29  1  0
 34 26  1  0
 35 24  1  0
 35 36  1  0
 37 35  2  0
M  END
$$$$
