WIW.pdb
     RDKit          3D

 37 40  0  0  1  0  0  0  0  0999 V2000
    6.1351  -17.8638   24.6884 N   0  0  0  0  0  0  0  0  0  0  0  0
    6.7205  -16.5690   24.4268 C   0  0  1  0  0  0  0  0  0  0  0  0
    7.2586  -16.0339   25.7341 C   0  0  0  0  0  0  0  0  0  0  0  0
    6.4579  -14.8937   26.2417 C   0  0  0  0  0  0  0  0  0  0  0  0
    5.2890  -14.9252   26.9666 C   0  0  0  0  0  0  0  0  0  0  0  0
    4.9264  -13.6539   27.2062 N   0  0  0  0  0  0  0  0  0  0  0  0
    5.8333  -12.8129   26.6533 C   0  0  0  0  0  0  0  0  0  0  0  0
    5.9158  -11.4148   26.6197 C   0  0  0  0  0  0  0  0  0  0  0  0
    6.9593  -10.7813   25.9811 C   0  0  0  0  0  0  0  0  0  0  0  0
    7.9085  -11.5855   25.3826 C   0  0  0  0  0  0  0  0  0  0  0  0
    7.8649  -12.9486   25.3926 C   0  0  0  0  0  0  0  0  0  0  0  0
    6.7975  -13.5714   26.0465 C   0  0  0  0  0  0  0  0  0  0  0  0
    7.7810  -16.6901   23.4023 C   0  0  0  0  0  0  0  0  0  0  0  0
    8.1529  -17.8597   23.0828 O   0  0  0  0  0  0  0  0  0  0  0  0
    7.0812  -13.1999   19.4840 C   0  0  0  0  0  0  0  0  0  0  0  0
    7.3602  -14.4078   20.3819 C   0  0  0  0  0  0  0  0  0  0  0  0
    8.8222  -14.5542   20.6358 C   0  0  2  0  0  0  0  0  0  0  0  0
    9.6425  -14.5756   19.3700 C   0  0  0  0  0  0  0  0  0  0  0  0
    9.1261  -15.5819   21.6441 C   0  0  2  0  0  0  0  0  0  0  0  0
    8.3190  -15.5021   22.8386 N   0  0  0  0  0  0  0  0  0  0  0  0
   10.5351  -15.9158   21.8883 C   0  0  0  0  0  0  0  0  0  0  0  0
   11.3587  -16.2239   20.9919 O   0  0  0  0  0  0  0  0  0  0  0  0
   11.0363  -15.9042   23.2189 N   0  0  0  0  0  0  0  0  0  0  0  0
   12.4603  -16.1530   23.5024 C   0  0  1  0  0  0  0  0  0  0  0  0
   12.8202  -15.6493   24.8811 C   0  0  0  0  0  0  0  0  0  0  0  0
   11.8793  -16.2113   25.8845 C   0  0  0  0  0  0  0  0  0  0  0  0
   11.6633  -17.5676   26.1550 C   0  0  0  0  0  0  0  0  0  0  0  0
   10.7333  -17.6564   27.1240 N   0  0  0  0  0  0  0  0  0  0  0  0
   10.3184  -16.4480   27.5141 C   0  0  0  0  0  0  0  0  0  0  0  0
    9.4024  -16.0386   28.4550 C   0  0  0  0  0  0  0  0  0  0  0  0
    9.2112  -14.6775   28.6107 C   0  0  0  0  0  0  0  0  0  0  0  0
    9.8980  -13.7353   27.8649 C   0  0  0  0  0  0  0  0  0  0  0  0
   10.8121  -14.1967   26.9276 C   0  0  0  0  0  0  0  0  0  0  0  0
   11.0245  -15.5455   26.7498 C   0  0  0  0  0  0  0  0  0  0  0  0
   12.8201  -17.5482   23.2543 C   0  0  0  0  0  0  0  0  0  0  0  0
   14.1266  -18.0116   23.2883 O   0  0  0  0  0  0  0  0  0  0  0  0
   11.9461  -18.4403   22.9872 O   0  0  0  0  0  0  0  0  0  0  0  0
  2  1  1  1
  2  3  1  0
  4  3  1  0
  5  4  2  0
  6  7  1  0
  6  5  1  0
  7 12  2  0
  8  7  1  0
  8  9  2  0
  9 10  1  0
 10 11  2  0
 12  4  1  0
 12 11  1  0
 13 20  1  0
 13  2  1  0
 14 13  2  0
 16 15  1  0
 16 17  1  0
 17 18  1  6
 19 17  1  0
 19 20  1  1
 21 19  1  0
 21 22  2  0
 23 24  1  0
 23 21  1  0
 24 25  1  1
 26 25  1  0
 26 27  2  0
 28 27  1  0
 29 28  1  0
 30 29  2  0
 31 30  1  0
 32 31  2  0
 32 33  1  0
 33 34  2  0
 34 29  1  0
 34 26  1  0
 35 24  1  0
 35 36  1  0
 37 35  2  0
M  END
$$$$
