RKD.pdb
     RDKit          3D

 29 28  0  0  1  0  0  0  0  0999 V2000
    9.0369  -12.9836   17.5186 N   0  0  0  0  0  0  0  0  0  0  0  0
    7.8422  -13.3704   16.8752 C   0  0  0  0  0  0  0  0  0  0  0  0
    7.8307  -13.6791   15.6159 N   0  0  0  0  0  0  0  0  0  0  0  0
    6.6254  -13.4276   17.5955 N   0  0  0  0  0  0  0  0  0  0  0  0
    6.7083  -13.2530   19.0557 C   0  0  0  0  0  0  0  0  0  0  0  0
    7.5451  -14.3757   19.5871 C   0  0  0  0  0  0  0  0  0  0  0  0
    7.7068  -14.4386   21.0660 C   0  0  0  0  0  0  0  0  0  0  0  0
    8.4719  -15.6262   21.5035 C   0  0  2  0  0  0  0  0  0  0  0  0
    8.2150  -16.7725   20.7082 N   0  0  0  0  0  0  0  0  0  0  0  0
    8.3074  -15.9047   22.9714 C   0  0  0  0  0  0  0  0  0  0  0  0
    8.4566  -14.9223   23.7414 O   0  0  0  0  0  0  0  0  0  0  0  0
    6.9532  -13.9538   15.1251 N   0  0  0  0  0  0  0  0  0  0  0  0
    8.0022  -17.1893   23.4830 C   0  0  1  0  0  0  0  0  0  0  0  0
    8.2303  -17.5193   24.9185 C   0  0  0  0  0  0  0  0  0  0  0  0
    7.4149  -18.7529   25.2317 C   0  0  0  0  0  0  0  0  0  0  0  0
    7.4587  -19.2385   26.6302 C   0  0  0  0  0  0  0  0  0  0  0  0
    6.6529  -20.4899   26.8614 C   0  0  0  0  0  0  0  0  0  0  0  0
    6.7118  -20.7941   28.3422 N   0  0  0  0  0  0  0  0  0  0  0  0
    5.8487  -21.8948   28.6905 C   0  0  0  0  0  0  0  0  0  0  0  0
    9.6686  -17.6426   25.1555 O   0  0  0  0  0  0  0  0  0  0  0  0
   10.0460  -17.6547   26.3813 N   0  0  0  0  0  0  0  0  0  0  0  0
   10.7007  -17.7555   24.2131 C   0  0  1  0  0  0  0  0  0  0  0  0
   12.0932  -17.8754   24.6479 C   0  0  0  0  0  0  0  0  0  0  0  0
   12.8559  -18.7573   23.6916 C   0  0  0  0  0  0  0  0  0  0  0  0
   12.2869  -20.1132   23.6882 O   0  0  0  0  0  0  0  0  0  0  0  0
   11.8159  -20.7247   24.6776 C   0  0  0  0  0  0  0  0  0  0  0  0
   12.6709  -16.5231   24.7564 O   0  0  0  0  0  0  0  0  0  0  0  0
   13.9692  -16.4193   25.3023 O   0  0  0  0  0  0  0  0  0  0  0  0
   12.2293  -20.8699   22.4877 O   0  0  0  0  0  0  0  0  0  0  0  0
  2  1  1  0
  2  3  2  0
  4  2  1  0
  5  4  1  0
  6  5  1  0
  7  6  1  0
  8  9  1  6
  8  7  1  0
 10  8  1  0
 10 11  2  0
 12 10  1  0
 13 12  1  0
 13 19  1  0
 13 14  1  1
 15 14  1  0
 16 15  1  0
 17 16  1  0
 18 17  1  0
 19 21  1  0
 19 20  2  0
 21 22  1  0
 22 23  1  1
 24 23  1  0
 24 28  1  0
 25 24  2  0
 26 27  1  0
 26 22  1  0
 29 26  2  0
M  END
$$$$
