RKD.pdb
     RDKit          3D

 29 28  0  0  1  0  0  0  0  0999 V2000
    6.2440  -12.6523   18.4902 N   0  0  0  0  0  0  0  0  0  0  0  0
    7.0994  -13.1466   17.4828 C   0  0  0  0  0  0  0  0  0  0  0  0
    6.6279  -13.7979   16.4656 N   0  0  0  0  0  0  0  0  0  0  0  0
    8.4973  -12.9416   17.5641 N   0  0  0  0  0  0  0  0  0  0  0  0
    9.1316  -13.1946   18.8692 C   0  0  0  0  0  0  0  0  0  0  0  0
    8.3750  -14.3127   19.5176 C   0  0  0  0  0  0  0  0  0  0  0  0
    8.8877  -14.7832   20.8340 C   0  0  0  0  0  0  0  0  0  0  0  0
   10.1650  -15.5192   20.7158 C   0  0  2  0  0  0  0  0  0  0  0  0
   10.3234  -16.1518   19.4560 N   0  0  0  0  0  0  0  0  0  0  0  0
   10.3872  -16.4682   21.8601 C   0  0  0  0  0  0  0  0  0  0  0  0
   10.3221  -15.9707   23.0126 O   0  0  0  0  0  0  0  0  0  0  0  0
    7.2501  -14.1874   15.7256 N   0  0  0  0  0  0  0  0  0  0  0  0
   10.6560  -17.8465   21.6776 C   0  0  1  0  0  0  0  0  0  0  0  0
   11.0889  -18.7030   22.8180 C   0  0  0  0  0  0  0  0  0  0  0  0
   10.6384  -20.1142   22.5173 C   0  0  0  0  0  0  0  0  0  0  0  0
   10.9907  -21.1491   23.5163 C   0  0  0  0  0  0  0  0  0  0  0  0
   10.5540  -22.5376   23.1285 C   0  0  0  0  0  0  0  0  0  0  0  0
   11.0449  -23.4794   24.2058 N   0  0  0  0  0  0  0  0  0  0  0  0
   10.6104  -24.8323   23.9635 C   0  0  0  0  0  0  0  0  0  0  0  0
   12.5280  -18.5347   23.0200 O   0  0  0  0  0  0  0  0  0  0  0  0
   13.0500  -19.1974   23.9860 N   0  0  0  0  0  0  0  0  0  0  0  0
   13.4238  -17.7418   22.2886 C   0  0  1  0  0  0  0  0  0  0  0  0
   14.8593  -17.7906   22.5706 C   0  0  0  0  0  0  0  0  0  0  0  0
   15.6240  -17.1121   21.4622 C   0  0  0  0  0  0  0  0  0  0  0  0
   15.4352  -17.8379   20.1973 O   0  0  0  0  0  0  0  0  0  0  0  0
   14.9615  -18.9924   20.0658 C   0  0  0  0  0  0  0  0  0  0  0  0
   15.1018  -17.1736   23.8877 O   0  0  0  0  0  0  0  0  0  0  0  0
   14.0842  -16.3434   24.4071 O   0  0  0  0  0  0  0  0  0  0  0  0
   15.8002  -17.2423   18.9608 O   0  0  0  0  0  0  0  0  0  0  0  0
  2  1  1  0
  2  3  2  0
  4  2  1  0
  5  4  1  0
  6  5  1  0
  7  6  1  0
  8  9  1  6
  8  7  1  0
 10  8  1  0
 10 11  2  0
 12 10  1  0
 13 12  1  0
 13 19  1  0
 13 14  1  1
 15 14  1  0
 16 15  1  0
 17 16  1  0
 18 17  1  0
 19 21  1  0
 19 20  2  0
 21 22  1  0
 22 23  1  1
 24 23  1  0
 24 28  1  0
 25 24  2  0
 26 27  1  0
 26 22  1  0
 29 26  2  0
M  END
$$$$
