RKD.pdb
     RDKit          3D

 29 28  0  0  1  0  0  0  0  0999 V2000
    8.8913  -12.8896   18.3092 N   0  0  0  0  0  0  0  0  0  0  0  0
    8.2057  -12.4071   19.4442 C   0  0  0  0  0  0  0  0  0  0  0  0
    8.2933  -11.1633   19.7996 N   0  0  0  0  0  0  0  0  0  0  0  0
    7.4057  -13.2770   20.2228 N   0  0  0  0  0  0  0  0  0  0  0  0
    8.1040  -14.3533   20.9464 C   0  0  0  0  0  0  0  0  0  0  0  0
    8.2508  -15.5008   19.9952 C   0  0  0  0  0  0  0  0  0  0  0  0
    9.3629  -16.4517   20.2713 C   0  0  0  0  0  0  0  0  0  0  0  0
    9.0513  -17.3845   21.3759 C   0  0  2  0  0  0  0  0  0  0  0  0
    7.7742  -17.9881   21.2455 N   0  0  0  0  0  0  0  0  0  0  0  0
    9.2480  -16.7574   22.7277 C   0  0  0  0  0  0  0  0  0  0  0  0
    9.0229  -15.5230   22.8035 O   0  0  0  0  0  0  0  0  0  0  0  0
    7.7942  -10.7941   20.6368 N   0  0  0  0  0  0  0  0  0  0  0  0
    9.6620  -17.4918   23.8654 C   0  0  1  0  0  0  0  0  0  0  0  0
    9.7594  -16.8447   25.2046 C   0  0  0  0  0  0  0  0  0  0  0  0
    8.4012  -16.2630   25.5231 C   0  0  0  0  0  0  0  0  0  0  0  0
    8.3301  -14.7917   25.6766 C   0  0  0  0  0  0  0  0  0  0  0  0
    6.9720  -14.2922   26.0949 C   0  0  0  0  0  0  0  0  0  0  0  0
    7.0740  -12.7905   26.2476 N   0  0  0  0  0  0  0  0  0  0  0  0
    5.8197  -12.2151   26.6641 C   0  0  0  0  0  0  0  0  0  0  0  0
   10.2642  -17.8217   26.1694 O   0  0  0  0  0  0  0  0  0  0  0  0
    9.4697  -18.7793   26.4807 N   0  0  0  0  0  0  0  0  0  0  0  0
   11.5148  -17.8553   26.8026 C   0  0  1  0  0  0  0  0  0  0  0  0
   11.8495  -18.9387   27.7282 C   0  0  0  0  0  0  0  0  0  0  0  0
   13.3389  -18.9738   27.9611 C   0  0  0  0  0  0  0  0  0  0  0  0
   14.0503  -19.0864   26.6791 O   0  0  0  0  0  0  0  0  0  0  0  0
   15.2477  -18.7791   26.4633 C   0  0  0  0  0  0  0  0  0  0  0  0
   11.0846  -18.7469   28.9741 O   0  0  0  0  0  0  0  0  0  0  0  0
   11.1957  -19.7527   29.9594 O   0  0  0  0  0  0  0  0  0  0  0  0
   13.3867  -19.5819   25.5254 O   0  0  0  0  0  0  0  0  0  0  0  0
  2  1  1  0
  2  3  2  0
  4  2  1  0
  5  4  1  0
  6  5  1  0
  7  6  1  0
  8  9  1  6
  8  7  1  0
 10  8  1  0
 10 11  2  0
 12 10  1  0
 13 12  1  0
 13 19  1  0
 13 14  1  1
 15 14  1  0
 16 15  1  0
 17 16  1  0
 18 17  1  0
 19 21  1  0
 19 20  2  0
 21 22  1  0
 22 23  1  1
 24 23  1  0
 24 28  1  0
 25 24  2  0
 26 27  1  0
 26 22  1  0
 29 26  2  0
M  END
$$$$
