RKD.pdb
     RDKit          3D

 29 28  0  0  1  0  0  0  0  0999 V2000
    7.8340  -12.5217   17.6923 N   0  0  0  0  0  0  0  0  0  0  0  0
    7.5454  -13.6487   16.8938 C   0  0  0  0  0  0  0  0  0  0  0  0
    7.1834  -13.5160   15.6558 N   0  0  0  0  0  0  0  0  0  0  0  0
    7.6442  -14.9538   17.4321 N   0  0  0  0  0  0  0  0  0  0  0  0
    8.2579  -15.0785   18.7652 C   0  0  0  0  0  0  0  0  0  0  0  0
    7.2304  -14.6468   19.7656 C   0  0  0  0  0  0  0  0  0  0  0  0
    7.6483  -14.6662   21.1947 C   0  0  0  0  0  0  0  0  0  0  0  0
    8.4078  -15.8851   21.5477 C   0  0  2  0  0  0  0  0  0  0  0  0
    7.5721  -16.9634   21.9365 N   0  0  0  0  0  0  0  0  0  0  0  0
    9.4905  -15.6138   22.5544 C   0  0  0  0  0  0  0  0  0  0  0  0
   10.3148  -14.7141   22.2522 O   0  0  0  0  0  0  0  0  0  0  0  0
    6.9851  -14.3401   15.0495 N   0  0  0  0  0  0  0  0  0  0  0  0
    9.5982  -16.3163   23.7792 C   0  0  1  0  0  0  0  0  0  0  0  0
   10.7028  -16.0269   24.7370 C   0  0  0  0  0  0  0  0  0  0  0  0
   10.2863  -16.5744   26.0830 C   0  0  0  0  0  0  0  0  0  0  0  0
   11.2946  -16.5086   27.1657 C   0  0  0  0  0  0  0  0  0  0  0  0
   10.8193  -17.0913   28.4709 C   0  0  0  0  0  0  0  0  0  0  0  0
   11.9619  -16.9764   29.4558 N   0  0  0  0  0  0  0  0  0  0  0  0
   11.6360  -17.5922   30.7177 C   0  0  0  0  0  0  0  0  0  0  0  0
   11.9517  -16.5675   24.2004 O   0  0  0  0  0  0  0  0  0  0  0  0
   11.9673  -17.8248   23.9475 N   0  0  0  0  0  0  0  0  0  0  0  0
   13.1452  -15.8879   23.9177 C   0  0  1  0  0  0  0  0  0  0  0  0
   14.3191  -16.6179   23.4363 C   0  0  0  0  0  0  0  0  0  0  0  0
   15.1212  -15.7442   22.5052 C   0  0  0  0  0  0  0  0  0  0  0  0
   14.3914  -15.5418   21.2447 O   0  0  0  0  0  0  0  0  0  0  0  0
   13.6741  -16.3869   20.6565 C   0  0  0  0  0  0  0  0  0  0  0  0
   15.1004  -17.0739   24.6007 O   0  0  0  0  0  0  0  0  0  0  0  0
   14.7364  -16.5560   25.8632 O   0  0  0  0  0  0  0  0  0  0  0  0
   14.4542  -14.2963   20.5652 O   0  0  0  0  0  0  0  0  0  0  0  0
  2  1  1  0
  2  3  2  0
  4  2  1  0
  5  4  1  0
  6  5  1  0
  7  6  1  0
  8  9  1  1
  8  7  1  0
 10  8  1  0
 10 11  2  0
 12 10  1  0
 13 12  1  0
 13 19  1  0
 13 14  1  6
 15 14  1  0
 16 15  1  0
 17 16  1  0
 18 17  1  0
 19 21  1  0
 19 20  2  0
 21 22  1  0
 22 23  1  1
 24 23  1  0
 24 28  1  0
 25 24  2  0
 26 27  1  0
 26 22  1  0
 29 26  2  0
M  END
$$$$
