RKD.pdb
     RDKit          3D

 29 28  0  0  1  0  0  0  0  0999 V2000
    8.3321  -11.4036   19.9647 N   0  0  0  0  0  0  0  0  0  0  0  0
    8.7469  -12.6424   19.4319 C   0  0  0  0  0  0  0  0  0  0  0  0
    9.9871  -13.0154   19.4940 N   0  0  0  0  0  0  0  0  0  0  0  0
    7.8121  -13.5068   18.8138 N   0  0  0  0  0  0  0  0  0  0  0  0
    6.9924  -14.3459   19.7046 C   0  0  0  0  0  0  0  0  0  0  0  0
    7.8480  -15.4967   20.1367 C   0  0  0  0  0  0  0  0  0  0  0  0
    7.7024  -15.9354   21.5521 C   0  0  0  0  0  0  0  0  0  0  0  0
    6.9699  -17.2140   21.6778 C   0  0  2  0  0  0  0  0  0  0  0  0
    5.7822  -17.2487   20.9028 N   0  0  0  0  0  0  0  0  0  0  0  0
    6.7244  -17.5950   23.1109 C   0  0  0  0  0  0  0  0  0  0  0  0
    5.9117  -16.8747   23.7440 O   0  0  0  0  0  0  0  0  0  0  0  0
   10.3308  -13.8667   19.0005 N   0  0  0  0  0  0  0  0  0  0  0  0
    7.3586  -18.6964   23.7354 C   0  0  1  0  0  0  0  0  0  0  0  0
    7.0733  -19.0435   25.1565 C   0  0  0  0  0  0  0  0  0  0  0  0
    6.8245  -20.5332   25.2147 C   0  0  0  0  0  0  0  0  0  0  0  0
    5.5771  -21.0217   24.5831 C   0  0  0  0  0  0  0  0  0  0  0  0
    5.3912  -22.5130   24.6855 C   0  0  0  0  0  0  0  0  0  0  0  0
    4.0999  -22.8537   23.9747 N   0  0  0  0  0  0  0  0  0  0  0  0
    3.8432  -24.2720   23.9958 C   0  0  0  0  0  0  0  0  0  0  0  0
    8.1704  -18.5587   25.9942 O   0  0  0  0  0  0  0  0  0  0  0  0
    9.3516  -18.6668   25.5063 N   0  0  0  0  0  0  0  0  0  0  0  0
    8.1030  -17.9810   27.2700 C   0  0  1  0  0  0  0  0  0  0  0  0
    9.3259  -17.5919   27.9743 C   0  0  0  0  0  0  0  0  0  0  0  0
    9.0895  -16.3208   28.7503 C   0  0  0  0  0  0  0  0  0  0  0  0
    8.9375  -15.1848   27.8290 O   0  0  0  0  0  0  0  0  0  0  0  0
    9.0089  -15.2277   26.5770 C   0  0  0  0  0  0  0  0  0  0  0  0
    9.7504  -18.7115   28.8347 O   0  0  0  0  0  0  0  0  0  0  0  0
   10.9659  -18.5588   29.5373 O   0  0  0  0  0  0  0  0  0  0  0  0
    8.6837  -13.8792   28.3272 O   0  0  0  0  0  0  0  0  0  0  0  0
  2  1  1  0
  2  3  2  0
  4  2  1  0
  5  4  1  0
  6  5  1  0
  7  6  1  0
  8  9  1  6
  8  7  1  0
 10  8  1  0
 10 11  2  0
 12 10  1  0
 13 12  1  0
 13 19  1  0
 13 14  1  1
 15 14  1  0
 16 15  1  0
 17 16  1  0
 18 17  1  0
 19 21  1  0
 19 20  2  0
 21 22  1  0
 22 23  1  1
 24 23  1  0
 24 28  1  0
 25 24  2  0
 26 27  1  0
 26 22  1  0
 29 26  2  0
M  END
$$$$
