RKD.pdb
     RDKit          3D

 29 28  0  0  1  0  0  0  0  0999 V2000
    8.5815  -21.0742   21.6599 N   0  0  0  0  0  0  0  0  0  0  0  0
    8.3782  -20.9390   20.2702 C   0  0  0  0  0  0  0  0  0  0  0  0
    8.7690  -21.8592   19.4446 N   0  0  0  0  0  0  0  0  0  0  0  0
    7.7415  -19.7885   19.7467 N   0  0  0  0  0  0  0  0  0  0  0  0
    7.2756  -18.7857   20.7198 C   0  0  0  0  0  0  0  0  0  0  0  0
    8.4212  -17.8561   20.9775 C   0  0  0  0  0  0  0  0  0  0  0  0
    8.8403  -16.9906   19.8406 C   0  0  0  0  0  0  0  0  0  0  0  0
    8.3929  -15.5899   19.9983 C   0  0  2  0  0  0  0  0  0  0  0  0
    8.8031  -14.7551   18.9272 N   0  0  0  0  0  0  0  0  0  0  0  0
    8.7628  -15.0179   21.3381 C   0  0  0  0  0  0  0  0  0  0  0  0
    9.9726  -14.7150   21.4960 O   0  0  0  0  0  0  0  0  0  0  0  0
    8.5980  -21.7866   18.4191 N   0  0  0  0  0  0  0  0  0  0  0  0
    7.8227  -14.8214   22.3788 C   0  0  2  0  0  0  0  0  0  0  0  0
    8.2412  -14.2713   23.6993 C   0  0  0  0  0  0  0  0  0  0  0  0
    7.0720  -13.4888   24.2517 C   0  0  0  0  0  0  0  0  0  0  0  0
    7.2240  -12.9500   25.6228 C   0  0  0  0  0  0  0  0  0  0  0  0
    6.0263  -12.1735   26.1038 C   0  0  0  0  0  0  0  0  0  0  0  0
    6.3422  -11.6801   27.4986 N   0  0  0  0  0  0  0  0  0  0  0  0
    5.2767  -10.8642   28.0247 C   0  0  0  0  0  0  0  0  0  0  0  0
    8.7151  -15.3684   24.5431 O   0  0  0  0  0  0  0  0  0  0  0  0
    8.0453  -16.4608   24.4883 N   0  0  0  0  0  0  0  0  0  0  0  0
    9.8178  -15.3881   25.4091 C   0  0  1  0  0  0  0  0  0  0  0  0
   10.3047  -16.6528   25.9624 C   0  0  0  0  0  0  0  0  0  0  0  0
   11.5871  -17.0532   25.2777 C   0  0  0  0  0  0  0  0  0  0  0  0
   12.1493  -18.2532   25.9151 O   0  0  0  0  0  0  0  0  0  0  0  0
   11.5044  -19.2464   26.3302 C   0  0  0  0  0  0  0  0  0  0  0  0
   10.4636  -16.4990   27.4202 O   0  0  0  0  0  0  0  0  0  0  0  0
    9.9362  -15.3268   28.0054 O   0  0  0  0  0  0  0  0  0  0  0  0
   13.5498  -18.3756   26.1167 O   0  0  0  0  0  0  0  0  0  0  0  0
  2  1  1  0
  2  3  2  0
  4  2  1  0
  5  4  1  0
  6  5  1  0
  7  6  1  0
  8  9  1  6
  8  7  1  0
 10  8  1  0
 10 11  2  0
 12 10  1  0
 13 12  1  0
 13 19  1  0
 13 14  1  6
 15 14  1  0
 16 15  1  0
 17 16  1  0
 18 17  1  0
 19 21  1  0
 19 20  2  0
 21 22  1  0
 22 23  1  1
 24 23  1  0
 24 28  1  0
 25 24  2  0
 26 27  1  0
 26 22  1  0
 29 26  2  0
M  END
$$$$
