RKD.pdb
     RDKit          3D

 29 28  0  0  1  0  0  0  0  0999 V2000
    8.6162  -18.7566   15.9738 N   0  0  0  0  0  0  0  0  0  0  0  0
    7.8936  -17.5529   15.8329 C   0  0  0  0  0  0  0  0  0  0  0  0
    7.0862  -17.3707   14.8349 N   0  0  0  0  0  0  0  0  0  0  0  0
    8.0380  -16.5139   16.7828 N   0  0  0  0  0  0  0  0  0  0  0  0
    8.9976  -16.7418   17.8768 C   0  0  0  0  0  0  0  0  0  0  0  0
    9.0266  -15.4942   18.7048 C   0  0  0  0  0  0  0  0  0  0  0  0
    7.7076  -14.9568   19.1391 C   0  0  0  0  0  0  0  0  0  0  0  0
    7.8229  -13.6460   19.8141 C   0  0  2  0  0  0  0  0  0  0  0  0
    8.3915  -12.6456   18.9845 N   0  0  0  0  0  0  0  0  0  0  0  0
    8.5185  -13.7452   21.1428 C   0  0  0  0  0  0  0  0  0  0  0  0
    9.7268  -13.3994   21.1624 O   0  0  0  0  0  0  0  0  0  0  0  0
    6.5380  -16.4912   14.7245 N   0  0  0  0  0  0  0  0  0  0  0  0
    7.8732  -14.1987   22.3190 C   0  0  2  0  0  0  0  0  0  0  0  0
    8.5526  -14.1301   23.6438 C   0  0  0  0  0  0  0  0  0  0  0  0
    7.4744  -14.0149   24.6969 C   0  0  0  0  0  0  0  0  0  0  0  0
    7.1758  -12.6518   25.1931 C   0  0  0  0  0  0  0  0  0  0  0  0
    6.1076  -12.6150   26.2544 C   0  0  0  0  0  0  0  0  0  0  0  0
    5.9848  -11.1800   26.7175 N   0  0  0  0  0  0  0  0  0  0  0  0
    5.0413  -11.0526   27.7998 C   0  0  0  0  0  0  0  0  0  0  0  0
    9.4426  -15.2828   23.7824 O   0  0  0  0  0  0  0  0  0  0  0  0
   10.0266  -15.4199   24.9160 N   0  0  0  0  0  0  0  0  0  0  0  0
    9.7424  -16.2713   22.8341 C   0  0  1  0  0  0  0  0  0  0  0  0
   10.6412  -17.3760   23.1722 C   0  0  0  0  0  0  0  0  0  0  0  0
   10.3844  -18.5459   22.2561 C   0  0  0  0  0  0  0  0  0  0  0  0
   11.3421  -19.6269   22.5328 O   0  0  0  0  0  0  0  0  0  0  0  0
   12.2303  -19.6249   23.4193 C   0  0  0  0  0  0  0  0  0  0  0  0
   12.0318  -16.8915   23.0978 O   0  0  0  0  0  0  0  0  0  0  0  0
   13.0230  -17.6805   23.7220 O   0  0  0  0  0  0  0  0  0  0  0  0
   11.3247  -20.8219   21.7656 O   0  0  0  0  0  0  0  0  0  0  0  0
  2  1  1  0
  2  3  2  0
  4  2  1  0
  5  4  1  0
  6  5  1  0
  7  6  1  0
  8  9  1  6
  8  7  1  0
 10  8  1  0
 10 11  2  0
 12 10  1  0
 13 12  1  0
 13 19  1  0
 13 14  1  6
 15 14  1  0
 16 15  1  0
 17 16  1  0
 18 17  1  0
 19 21  1  0
 19 20  2  0
 21 22  1  0
 22 23  1  6
 24 23  1  0
 24 28  1  0
 25 24  2  0
 26 27  1  0
 26 22  1  0
 29 26  2  0
M  END
$$$$
