LCY.pdb
     RDKit          3D

 27 27  0  0  1  0  0  0  0  0999 V2000
   24.4953  -12.9815  -21.6311 C   0  0  0  0  0  0  0  0  0  0  0  0
   24.5601  -13.5285  -20.2449 C   0  0  1  0  0  0  0  0  0  0  0  0
   26.0158  -13.4865  -19.7935 C   0  0  0  0  0  0  0  0  0  0  0  0
   23.7187  -12.7309  -19.3124 C   0  0  0  0  0  0  0  0  0  0  0  0
   23.7901  -13.1625  -17.8666 C   0  0  2  0  0  0  0  0  0  0  0  0
   23.0888  -14.4165  -17.7158 N   0  0  0  0  0  0  0  0  0  0  0  0
   23.0501  -12.1641  -17.0574 C   0  0  0  0  0  0  0  0  0  0  0  0
   21.7879  -12.1241  -17.2592 O   0  0  0  0  0  0  0  0  0  0  0  0
   23.6418  -11.2870  -16.1107 N   0  0  0  0  0  0  0  0  0  0  0  0
   22.8002  -10.3790  -15.3905 C   0  0  1  0  0  0  0  0  0  0  0  0
   22.9353  -10.5977  -13.8941 C   0  0  0  0  0  0  0  0  0  0  0  0
   21.8330   -9.5512  -12.9453 S   0  0  0  0  0  0  0  0  0  0  0  0
   23.0443   -8.9569  -15.7497 C   0  0  0  0  0  0  0  0  0  0  0  0
   24.1811   -8.4512  -15.8750 O   0  0  0  0  0  0  0  0  0  0  0  0
   26.3628   -8.0155  -20.9078 O   0  0  0  0  0  0  0  0  0  0  0  0
   25.2371   -7.6975  -20.1591 C   0  0  0  0  0  0  0  0  0  0  0  0
   24.1999   -8.5828  -19.9744 C   0  0  0  0  0  0  0  0  0  0  0  0
   23.0957   -8.2286  -19.2219 C   0  0  0  0  0  0  0  0  0  0  0  0
   22.9788   -6.9912  -18.6278 C   0  0  0  0  0  0  0  0  0  0  0  0
   21.8012   -6.6110  -17.8246 C   0  0  0  0  0  0  0  0  0  0  0  0
   22.0127   -6.7272  -16.3317 C   0  0  2  0  0  0  0  0  0  0  0  0
   21.9094   -8.1271  -15.9623 N   0  0  0  0  0  0  0  0  0  0  0  0
   21.1122   -5.8753  -15.5537 C   0  0  0  0  0  0  0  0  0  0  0  0
   20.2935   -6.4008  -14.7623 O   0  0  0  0  0  0  0  0  0  0  0  0
   24.0385   -6.1177  -18.8298 C   0  0  0  0  0  0  0  0  0  0  0  0
   25.1473   -6.4549  -19.5776 C   0  0  0  0  0  0  0  0  0  0  0  0
   21.1313   -4.5001  -15.6590 O   0  0  0  0  0  0  0  0  0  0  0  0
  2  3  1  1
  2  1  1  0
  4  2  1  0
  4  5  1  0
  5  7  1  0
  5  6  1  6
  7  8  2  0
  9 10  1  0
  9  7  1  0
 10 11  1  1
 11 12  1  0
 13 14  2  0
 13 10  1  0
 15 16  1  0
 16 26  2  0
 16 17  1  0
 17 18  2  0
 18 19  1  0
 19 20  1  0
 21 20  1  6
 21 22  1  0
 21 23  1  0
 22 13  1  0
 23 27  1  0
 24 23  2  0
 25 19  2  0
 26 25  1  0
M  END
$$$$
