LCY.pdb
     RDKit          3D

 27 27  0  0  1  0  0  0  0  0999 V2000
   21.3338  -10.1947  -22.1675 C   0  0  0  0  0  0  0  0  0  0  0  0
   21.6182  -10.7896  -20.8295 C   0  0  1  0  0  0  0  0  0  0  0  0
   23.1252  -10.7346  -20.6043 C   0  0  0  0  0  0  0  0  0  0  0  0
   20.9183  -10.0429  -19.7494 C   0  0  0  0  0  0  0  0  0  0  0  0
   21.2202  -10.5216  -18.3490 C   0  0  2  0  0  0  0  0  0  0  0  0
   20.4767  -11.7344  -18.0968 N   0  0  0  0  0  0  0  0  0  0  0  0
   20.7049   -9.5048  -17.4003 C   0  0  0  0  0  0  0  0  0  0  0  0
   19.4309   -9.4167  -17.3323 O   0  0  0  0  0  0  0  0  0  0  0  0
   21.5150   -8.6592  -16.5976 N   0  0  0  0  0  0  0  0  0  0  0  0
   20.8786   -7.7119  -15.7322 C   0  0  1  0  0  0  0  0  0  0  0  0
   21.6846   -7.5253  -14.4591 C   0  0  0  0  0  0  0  0  0  0  0  0
   21.6964   -8.9938  -13.4328 S   0  0  0  0  0  0  0  0  0  0  0  0
   20.6152   -6.4083  -16.3971 C   0  0  0  0  0  0  0  0  0  0  0  0
   21.0491   -6.0985  -17.5283 O   0  0  0  0  0  0  0  0  0  0  0  0
   16.7915    0.2173  -20.1837 O   0  0  0  0  0  0  0  0  0  0  0  0
   17.3010   -0.9098  -19.5520 C   0  0  0  0  0  0  0  0  0  0  0  0
   18.6138   -0.9996  -19.1492 C   0  0  0  0  0  0  0  0  0  0  0  0
   19.0832   -2.1392  -18.5232 C   0  0  0  0  0  0  0  0  0  0  0  0
   18.2740   -3.2260  -18.2745 C   0  0  0  0  0  0  0  0  0  0  0  0
   18.7730   -4.4432  -17.6068 C   0  0  0  0  0  0  0  0  0  0  0  0
   19.4253   -4.1852  -16.2670 C   0  0  2  0  0  0  0  0  0  0  0  0
   19.8197   -5.4603  -15.6968 N   0  0  0  0  0  0  0  0  0  0  0  0
   18.5871   -3.4014  -15.3588 C   0  0  0  0  0  0  0  0  0  0  0  0
   17.7652   -3.9875  -14.6147 O   0  0  0  0  0  0  0  0  0  0  0  0
   16.9550   -3.1093  -18.6906 C   0  0  0  0  0  0  0  0  0  0  0  0
   16.4703   -1.9798  -19.3165 C   0  0  0  0  0  0  0  0  0  0  0  0
   18.6690   -2.0261  -15.2893 O   0  0  0  0  0  0  0  0  0  0  0  0
  2  3  1  1
  2  1  1  0
  4  2  1  0
  4  5  1  0
  5  7  1  0
  5  6  1  1
  7  8  2  0
  9 10  1  0
  9  7  1  0
 10 11  1  1
 11 12  1  0
 13 14  2  0
 13 10  1  0
 15 16  1  0
 16 26  2  0
 16 17  1  0
 17 18  2  0
 18 19  1  0
 19 20  1  0
 21 20  1  6
 21 22  1  0
 21 23  1  0
 22 13  1  0
 23 27  1  0
 24 23  2  0
 25 19  2  0
 26 25  1  0
M  END
$$$$
