LCY.pdb
     RDKit          3D

 27 27  0  0  1  0  0  0  0  0999 V2000
   28.1359  -29.8822  -16.8827 C   0  0  0  0  0  0  0  0  0  0  0  0
   28.3699  -28.5639  -17.5401 C   0  0  1  0  0  0  0  0  0  0  0  0
   27.7965  -28.6370  -18.9511 C   0  0  0  0  0  0  0  0  0  0  0  0
   27.7141  -27.4625  -16.7847 C   0  0  0  0  0  0  0  0  0  0  0  0
   27.8881  -26.0885  -17.3874 C   0  0  2  0  0  0  0  0  0  0  0  0
   29.2270  -25.6210  -17.1118 N   0  0  0  0  0  0  0  0  0  0  0  0
   26.9647  -25.1642  -16.6856 C   0  0  0  0  0  0  0  0  0  0  0  0
   27.4181  -24.6559  -15.6032 O   0  0  0  0  0  0  0  0  0  0  0  0
   25.6594  -24.8275  -17.1310 N   0  0  0  0  0  0  0  0  0  0  0  0
   24.9141  -23.8439  -16.4041 C   0  0  1  0  0  0  0  0  0  0  0  0
   24.3990  -22.7645  -17.3395 C   0  0  0  0  0  0  0  0  0  0  0  0
   23.1814  -23.3845  -18.4984 S   0  0  0  0  0  0  0  0  0  0  0  0
   23.8085  -24.4328  -15.6030 C   0  0  0  0  0  0  0  0  0  0  0  0
   23.7998  -25.6095  -15.1796 O   0  0  0  0  0  0  0  0  0  0  0  0
   17.8987  -26.0801   -9.6189 O   0  0  0  0  0  0  0  0  0  0  0  0
   18.9027  -25.6514  -10.4774 C   0  0  0  0  0  0  0  0  0  0  0  0
   19.1160  -24.3209  -10.7568 C   0  0  0  0  0  0  0  0  0  0  0  0
   20.1264  -23.9340  -11.6172 C   0  0  0  0  0  0  0  0  0  0  0  0
   20.9582  -24.8456  -12.2294 C   0  0  0  0  0  0  0  0  0  0  0  0
   22.0368  -24.4348  -13.1482 C   0  0  0  0  0  0  0  0  0  0  0  0
   21.5546  -24.0539  -14.5300 C   0  0  2  0  0  0  0  0  0  0  0  0
   22.6955  -23.5999  -15.3040 N   0  0  0  0  0  0  0  0  0  0  0  0
   20.4660  -23.0759  -14.5118 C   0  0  0  0  0  0  0  0  0  0  0  0
   19.2854  -23.4610  -14.6868 O   0  0  0  0  0  0  0  0  0  0  0  0
   20.7215  -26.1803  -11.9306 C   0  0  0  0  0  0  0  0  0  0  0  0
   19.7181  -26.5835  -11.0745 C   0  0  0  0  0  0  0  0  0  0  0  0
   20.6927  -21.7309  -14.3060 O   0  0  0  0  0  0  0  0  0  0  0  0
  2  3  1  6
  2  1  1  0
  4  2  1  0
  4  5  1  0
  5  7  1  0
  5  6  1  1
  7  8  2  0
  9 10  1  0
  9  7  1  0
 10 11  1  6
 11 12  1  0
 13 14  2  0
 13 10  1  0
 15 16  1  0
 16 26  2  0
 16 17  1  0
 17 18  2  0
 18 19  1  0
 19 20  1  0
 21 20  1  1
 21 22  1  0
 21 23  1  0
 22 13  1  0
 23 27  1  0
 24 23  2  0
 25 19  2  0
 26 25  1  0
M  END
$$$$
