LCY.pdb
     RDKit          3D

 27 27  0  0  1  0  0  0  0  0999 V2000
   22.1748  -19.0534  -18.7687 C   0  0  0  0  0  0  0  0  0  0  0  0
   22.8938  -18.8038  -17.4858 C   0  0  1  0  0  0  0  0  0  0  0  0
   22.4432  -17.4478  -16.9537 C   0  0  0  0  0  0  0  0  0  0  0  0
   22.5934  -19.8640  -16.4861 C   0  0  0  0  0  0  0  0  0  0  0  0
   23.1398  -19.6041  -15.1021 C   0  0  2  0  0  0  0  0  0  0  0  0
   24.5097  -20.0594  -15.0450 N   0  0  0  0  0  0  0  0  0  0  0  0
   22.3754  -20.4425  -14.1470 C   0  0  0  0  0  0  0  0  0  0  0  0
   21.8394  -21.4904  -14.6471 O   0  0  0  0  0  0  0  0  0  0  0  0
   22.2129  -20.1569  -12.7658 N   0  0  0  0  0  0  0  0  0  0  0  0
   21.4971  -21.0893  -11.9475 C   0  0  1  0  0  0  0  0  0  0  0  0
   21.8353  -20.8834  -10.4817 C   0  0  0  0  0  0  0  0  0  0  0  0
   23.5758  -21.1330  -10.1373 S   0  0  0  0  0  0  0  0  0  0  0  0
   20.0278  -21.0447  -12.1712 C   0  0  0  0  0  0  0  0  0  0  0  0
   19.3800  -19.9924  -12.3632 O   0  0  0  0  0  0  0  0  0  0  0  0
   12.0459  -24.1759  -14.3749 O   0  0  0  0  0  0  0  0  0  0  0  0
   13.4002  -24.0155  -14.1124 C   0  0  0  0  0  0  0  0  0  0  0  0
   14.0957  -24.8623  -13.2799 C   0  0  0  0  0  0  0  0  0  0  0  0
   15.4439  -24.6692  -13.0438 C   0  0  0  0  0  0  0  0  0  0  0  0
   16.1493  -23.6359  -13.6202 C   0  0  0  0  0  0  0  0  0  0  0  0
   17.5881  -23.4279  -13.3693 C   0  0  0  0  0  0  0  0  0  0  0  0
   17.8836  -22.3681  -12.3317 C   0  0  2  0  0  0  0  0  0  0  0  0
   19.3227  -22.2795  -12.1649 N   0  0  0  0  0  0  0  0  0  0  0  0
   17.1862  -22.5913  -11.0646 C   0  0  0  0  0  0  0  0  0  0  0  0
   16.0300  -22.1323  -10.9056 O   0  0  0  0  0  0  0  0  0  0  0  0
   15.4244  -22.7969  -14.4552 C   0  0  0  0  0  0  0  0  0  0  0  0
   14.0791  -22.9752  -14.7017 C   0  0  0  0  0  0  0  0  0  0  0  0
   17.7595  -23.2965  -10.0269 O   0  0  0  0  0  0  0  0  0  0  0  0
  2  3  1  1
  2  1  1  0
  4  2  1  0
  4  5  1  0
  5  7  1  0
  5  6  1  6
  7  8  2  0
  9 10  1  0
  9  7  1  0
 10 11  1  1
 11 12  1  0
 13 14  2  0
 13 10  1  0
 15 16  1  0
 16 26  2  0
 16 17  1  0
 17 18  2  0
 18 19  1  0
 19 20  1  0
 21 20  1  6
 21 22  1  0
 21 23  1  0
 22 13  1  0
 23 27  1  0
 24 23  2  0
 25 19  2  0
 26 25  1  0
M  END
$$$$
