LCY.pdb
     RDKit          3D

 27 27  0  0  1  0  0  0  0  0999 V2000
   29.4385  -19.7514  -19.4745 C   0  0  0  0  0  0  0  0  0  0  0  0
   29.0856  -20.3102  -18.1373 C   0  0  1  0  0  0  0  0  0  0  0  0
   28.5265  -19.1736  -17.2886 C   0  0  0  0  0  0  0  0  0  0  0  0
   28.0746  -21.3952  -18.2580 C   0  0  0  0  0  0  0  0  0  0  0  0
   27.6412  -22.0071  -16.9468 C   0  0  2  0  0  0  0  0  0  0  0  0
   28.8150  -22.3927  -16.1979 N   0  0  0  0  0  0  0  0  0  0  0  0
   26.9039  -23.2575  -17.2506 C   0  0  0  0  0  0  0  0  0  0  0  0
   25.8539  -23.1128  -17.9661 O   0  0  0  0  0  0  0  0  0  0  0  0
   27.2842  -24.5520  -16.8086 N   0  0  0  0  0  0  0  0  0  0  0  0
   26.4814  -25.6752  -17.1898 C   0  0  1  0  0  0  0  0  0  0  0  0
   27.3583  -26.8359  -17.6247 C   0  0  0  0  0  0  0  0  0  0  0  0
   28.7821  -27.0571  -16.5598 S   0  0  0  0  0  0  0  0  0  0  0  0
   25.5282  -26.0909  -16.1270 C   0  0  0  0  0  0  0  0  0  0  0  0
   25.8738  -26.4998  -14.9968 O   0  0  0  0  0  0  0  0  0  0  0  0
   19.2321  -26.3806  -10.3224 O   0  0  0  0  0  0  0  0  0  0  0  0
   20.2020  -26.1507  -11.2896 C   0  0  0  0  0  0  0  0  0  0  0  0
   20.0950  -25.1382  -12.2154 C   0  0  0  0  0  0  0  0  0  0  0  0
   21.0822  -24.9415  -13.1628 C   0  0  0  0  0  0  0  0  0  0  0  0
   22.2057  -25.7360  -13.2278 C   0  0  0  0  0  0  0  0  0  0  0  0
   23.2603  -25.5279  -14.2383 C   0  0  0  0  0  0  0  0  0  0  0  0
   23.1086  -26.3908  -15.4709 C   0  0  2  0  0  0  0  0  0  0  0  0
   24.1392  -26.0160  -16.4217 N   0  0  0  0  0  0  0  0  0  0  0  0
   21.7660  -26.3372  -16.0508 C   0  0  0  0  0  0  0  0  0  0  0  0
   21.4778  -25.4236  -16.8602 O   0  0  0  0  0  0  0  0  0  0  0  0
   22.2887  -26.7494  -12.2829 C   0  0  0  0  0  0  0  0  0  0  0  0
   21.3130  -26.9595  -11.3310 C   0  0  0  0  0  0  0  0  0  0  0  0
   20.7948  -27.2652  -15.7374 O   0  0  0  0  0  0  0  0  0  0  0  0
  2  3  1  1
  2  1  1  0
  4  2  1  0
  4  5  1  0
  5  7  1  0
  5  6  1  1
  7  8  2  0
  9 10  1  0
  9  7  1  0
 10 11  1  1
 11 12  1  0
 13 14  2  0
 13 10  1  0
 15 16  1  0
 16 26  2  0
 16 17  1  0
 17 18  2  0
 18 19  1  0
 19 20  1  0
 21 20  1  1
 21 22  1  0
 21 23  1  0
 22 13  1  0
 23 27  1  0
 24 23  2  0
 25 19  2  0
 26 25  1  0
M  END
$$$$
