LCY.pdb
     RDKit          3D

 27 27  0  0  1  0  0  0  0  0999 V2000
   31.6065  -27.8844  -18.8511 C   0  0  0  0  0  0  0  0  0  0  0  0
   30.5597  -28.7997  -19.3908 C   0  0  1  0  0  0  0  0  0  0  0  0
   31.1686  -30.1933  -19.5003 C   0  0  0  0  0  0  0  0  0  0  0  0
   29.3679  -28.8376  -18.5008 C   0  0  0  0  0  0  0  0  0  0  0  0
   28.2460  -29.7279  -18.9804 C   0  0  2  0  0  0  0  0  0  0  0  0
   27.7015  -29.1806  -20.2015 N   0  0  0  0  0  0  0  0  0  0  0  0
   27.1602  -29.6738  -17.9717 C   0  0  0  0  0  0  0  0  0  0  0  0
   27.5119  -29.9536  -16.7744 O   0  0  0  0  0  0  0  0  0  0  0  0
   25.8082  -29.3426  -18.2513 N   0  0  0  0  0  0  0  0  0  0  0  0
   24.8196  -29.5640  -17.2389 C   0  0  1  0  0  0  0  0  0  0  0  0
   23.4768  -29.0024  -17.6711 C   0  0  0  0  0  0  0  0  0  0  0  0
   22.2155  -29.1944  -16.4132 S   0  0  0  0  0  0  0  0  0  0  0  0
   24.7031  -30.9940  -16.8484 C   0  0  0  0  0  0  0  0  0  0  0  0
   24.6655  -31.9419  -17.6631 O   0  0  0  0  0  0  0  0  0  0  0  0
   25.5547  -38.2252  -11.9197 O   0  0  0  0  0  0  0  0  0  0  0  0
   25.5814  -36.9367  -12.4373 C   0  0  0  0  0  0  0  0  0  0  0  0
   25.2684  -35.8309  -11.6802 C   0  0  0  0  0  0  0  0  0  0  0  0
   25.3067  -34.5642  -12.2323 C   0  0  0  0  0  0  0  0  0  0  0  0
   25.6545  -34.3471  -13.5475 C   0  0  0  0  0  0  0  0  0  0  0  0
   25.6957  -32.9961  -14.1387 C   0  0  0  0  0  0  0  0  0  0  0  0
   24.4700  -32.6438  -14.9514 C   0  0  2  0  0  0  0  0  0  0  0  0
   24.6306  -31.2940  -15.4604 N   0  0  0  0  0  0  0  0  0  0  0  0
   23.2186  -32.8180  -14.2128 C   0  0  0  0  0  0  0  0  0  0  0  0
   22.7891  -31.8843  -13.4943 O   0  0  0  0  0  0  0  0  0  0  0  0
   25.9653  -35.4789  -14.2885 C   0  0  0  0  0  0  0  0  0  0  0  0
   25.9322  -36.7497  -13.7535 C   0  0  0  0  0  0  0  0  0  0  0  0
   22.4849  -33.9844  -14.2791 O   0  0  0  0  0  0  0  0  0  0  0  0
  2  3  1  1
  2  1  1  0
  4  2  1  0
  4  5  1  0
  5  7  1  0
  5  6  1  6
  7  8  2  0
  9 10  1  0
  9  7  1  0
 10 11  1  6
 11 12  1  0
 13 14  2  0
 13 10  1  0
 15 16  1  0
 16 26  2  0
 16 17  1  0
 17 18  2  0
 18 19  1  0
 19 20  1  0
 21 20  1  1
 21 22  1  0
 21 23  1  0
 22 13  1  0
 23 27  1  0
 24 23  2  0
 25 19  2  0
 26 25  1  0
M  END
$$$$
