LCY.pdb
     RDKit          3D

 27 27  0  0  1  0  0  0  0  0999 V2000
   16.4181  -13.0721  -19.9429 C   0  0  0  0  0  0  0  0  0  0  0  0
   17.2582  -13.4111  -18.7579 C   0  0  1  0  0  0  0  0  0  0  0  0
   18.5991  -13.9275  -19.2679 C   0  0  0  0  0  0  0  0  0  0  0  0
   17.4717  -12.2201  -17.8919 C   0  0  0  0  0  0  0  0  0  0  0  0
   18.3447  -12.4628  -16.6834 C   0  0  2  0  0  0  0  0  0  0  0  0
   17.5621  -13.1219  -15.6636 N   0  0  0  0  0  0  0  0  0  0  0  0
   18.7331  -11.1424  -16.1310 C   0  0  0  0  0  0  0  0  0  0  0  0
   17.7733  -10.4472  -15.6504 O   0  0  0  0  0  0  0  0  0  0  0  0
   20.0568  -10.6296  -16.1079 N   0  0  0  0  0  0  0  0  0  0  0  0
   20.2877   -9.3400  -15.5291 C   0  0  1  0  0  0  0  0  0  0  0  0
   21.6464   -9.2930  -14.8533 C   0  0  0  0  0  0  0  0  0  0  0  0
   21.9496   -7.7309  -14.0297 S   0  0  0  0  0  0  0  0  0  0  0  0
   20.1364   -8.2318  -16.5089 C   0  0  0  0  0  0  0  0  0  0  0  0
   20.4510   -8.3163  -17.7162 O   0  0  0  0  0  0  0  0  0  0  0  0
   13.0786   -5.5610  -17.3336 O   0  0  0  0  0  0  0  0  0  0  0  0
   14.4448   -5.7332  -17.5141 C   0  0  0  0  0  0  0  0  0  0  0  0
   15.0470   -6.9692  -17.4527 C   0  0  0  0  0  0  0  0  0  0  0  0
   16.4106   -7.0994  -17.6379 C   0  0  0  0  0  0  0  0  0  0  0  0
   17.2238   -6.0163  -17.8895 C   0  0  0  0  0  0  0  0  0  0  0  0
   18.6794   -6.1531  -18.0872 C   0  0  0  0  0  0  0  0  0  0  0  0
   19.4999   -5.8143  -16.8629 C   0  0  2  0  0  0  0  0  0  0  0  0
   19.6002   -7.0028  -16.0358 N   0  0  0  0  0  0  0  0  0  0  0  0
   18.9848   -4.6606  -16.1245 C   0  0  0  0  0  0  0  0  0  0  0  0
   18.8826   -3.5520  -16.7018 O   0  0  0  0  0  0  0  0  0  0  0  0
   16.5915   -4.7820  -17.9463 C   0  0  0  0  0  0  0  0  0  0  0  0
   15.2323   -4.6342  -17.7639 C   0  0  0  0  0  0  0  0  0  0  0  0
   18.6021   -4.7483  -14.8021 O   0  0  0  0  0  0  0  0  0  0  0  0
  2  3  1  6
  2  1  1  0
  4  2  1  0
  4  5  1  0
  5  7  1  0
  5  6  1  1
  7  8  2  0
  9 10  1  0
  9  7  1  0
 10 11  1  6
 11 12  1  0
 13 14  2  0
 13 10  1  0
 15 16  1  0
 16 26  2  0
 16 17  1  0
 17 18  2  0
 18 19  1  0
 19 20  1  0
 21 20  1  6
 21 22  1  0
 21 23  1  0
 22 13  1  0
 23 27  1  0
 24 23  2  0
 25 19  2  0
 26 25  1  0
M  END
$$$$
