LCY.pdb
     RDKit          3D

 27 27  0  0  1  0  0  0  0  0999 V2000
   21.4940  -15.1856  -19.2200 C   0  0  0  0  0  0  0  0  0  0  0  0
   20.6502  -13.9593  -19.1245 C   0  0  1  0  0  0  0  0  0  0  0  0
   19.5008  -14.2562  -18.1677 C   0  0  0  0  0  0  0  0  0  0  0  0
   21.4390  -12.8017  -18.6229 C   0  0  0  0  0  0  0  0  0  0  0  0
   20.6490  -11.5274  -18.4395 C   0  0  2  0  0  0  0  0  0  0  0  0
   20.0087  -11.1879  -19.6893 N   0  0  0  0  0  0  0  0  0  0  0  0
   21.6091  -10.4359  -18.1462 C   0  0  0  0  0  0  0  0  0  0  0  0
   22.3213  -10.6016  -17.0970 O   0  0  0  0  0  0  0  0  0  0  0  0
   21.7734   -9.2659  -18.9335 N   0  0  0  0  0  0  0  0  0  0  0  0
   22.7064   -8.2686  -18.5018 C   0  0  1  0  0  0  0  0  0  0  0  0
   23.7241   -7.9814  -19.5913 C   0  0  0  0  0  0  0  0  0  0  0  0
   22.9708   -7.8211  -21.2091 S   0  0  0  0  0  0  0  0  0  0  0  0
   22.0445   -7.0190  -18.0421 C   0  0  0  0  0  0  0  0  0  0  0  0
   21.1328   -6.4373  -18.6701 O   0  0  0  0  0  0  0  0  0  0  0  0
   18.7535   -8.7289  -11.9189 O   0  0  0  0  0  0  0  0  0  0  0  0
   19.1637   -7.9248  -12.9744 C   0  0  0  0  0  0  0  0  0  0  0  0
   19.2353   -8.3864  -14.2689 C   0  0  0  0  0  0  0  0  0  0  0  0
   19.6487   -7.5545  -15.2925 C   0  0  0  0  0  0  0  0  0  0  0  0
   20.0044   -6.2419  -15.0731 C   0  0  0  0  0  0  0  0  0  0  0  0
   20.4461   -5.3525  -16.1641 C   0  0  0  0  0  0  0  0  0  0  0  0
   21.9482   -5.2172  -16.2761 C   0  0  2  0  0  0  0  0  0  0  0  0
   22.4808   -6.4568  -16.8111 N   0  0  0  0  0  0  0  0  0  0  0  0
   22.5878   -4.8302  -15.0179 C   0  0  0  0  0  0  0  0  0  0  0  0
   23.4603   -5.5759  -14.5126 O   0  0  0  0  0  0  0  0  0  0  0  0
   19.9232   -5.8019  -13.7592 C   0  0  0  0  0  0  0  0  0  0  0  0
   19.5129   -6.6184  -12.7261 C   0  0  0  0  0  0  0  0  0  0  0  0
   22.2635   -3.6619  -14.3601 O   0  0  0  0  0  0  0  0  0  0  0  0
  2  3  1  1
  2  1  1  0
  4  2  1  0
  4  5  1  0
  5  7  1  0
  5  6  1  6
  7  8  2  0
  9 10  1  0
  9  7  1  0
 10 11  1  6
 11 12  1  0
 13 14  2  0
 13 10  1  0
 15 16  1  0
 16 26  2  0
 16 17  1  0
 17 18  2  0
 18 19  1  0
 19 20  1  0
 21 20  1  1
 21 22  1  0
 21 23  1  0
 22 13  1  0
 23 27  1  0
 24 23  2  0
 25 19  2  0
 26 25  1  0
M  END
$$$$
