LCY.pdb
     RDKit          3D

 27 27  0  0  1  0  0  0  0  0999 V2000
   19.9370  -19.5598  -17.0196 C   0  0  0  0  0  0  0  0  0  0  0  0
   21.3919  -19.6498  -16.7035 C   0  0  1  0  0  0  0  0  0  0  0  0
   22.1240  -20.0470  -17.9808 C   0  0  0  0  0  0  0  0  0  0  0  0
   21.9152  -18.3493  -16.2049 C   0  0  0  0  0  0  0  0  0  0  0  0
   23.4200  -18.2205  -16.2269 C   0  0  2  0  0  0  0  0  0  0  0  0
   23.9587  -18.8001  -15.0181 N   0  0  0  0  0  0  0  0  0  0  0  0
   23.7530  -16.7759  -16.1880 C   0  0  0  0  0  0  0  0  0  0  0  0
   22.8112  -16.0084  -15.7886 O   0  0  0  0  0  0  0  0  0  0  0  0
   25.0076  -16.2218  -16.5549 N   0  0  0  0  0  0  0  0  0  0  0  0
   25.1933  -14.8053  -16.4523 C   0  0  1  0  0  0  0  0  0  0  0  0
   26.6394  -14.4782  -16.1251 C   0  0  0  0  0  0  0  0  0  0  0  0
   27.1439  -15.1189  -14.5297 S   0  0  0  0  0  0  0  0  0  0  0  0
   24.7382  -14.0739  -17.6643 C   0  0  0  0  0  0  0  0  0  0  0  0
   24.8648  -14.5048  -18.8314 O   0  0  0  0  0  0  0  0  0  0  0  0
   17.7707  -13.4449  -16.1806 O   0  0  0  0  0  0  0  0  0  0  0  0
   18.9230  -13.2645  -16.9347 C   0  0  0  0  0  0  0  0  0  0  0  0
   19.3005  -12.0342  -17.4220 C   0  0  0  0  0  0  0  0  0  0  0  0
   20.4552  -11.8954  -18.1691 C   0  0  0  0  0  0  0  0  0  0  0  0
   21.2743  -12.9644  -18.4595 C   0  0  0  0  0  0  0  0  0  0  0  0
   22.5069  -12.8185  -19.2568 C   0  0  0  0  0  0  0  0  0  0  0  0
   23.5903  -12.0162  -18.5715 C   0  0  2  0  0  0  0  0  0  0  0  0
   24.1216  -12.8065  -17.4761 N   0  0  0  0  0  0  0  0  0  0  0  0
   23.1414  -10.6919  -18.1396 C   0  0  0  0  0  0  0  0  0  0  0  0
   23.2251  -10.3745  -16.9293 O   0  0  0  0  0  0  0  0  0  0  0  0
   20.8706  -14.1933  -17.9561 C   0  0  0  0  0  0  0  0  0  0  0  0
   19.7217  -14.3494  -17.2091 C   0  0  0  0  0  0  0  0  0  0  0  0
   22.6245   -9.7687  -19.0248 O   0  0  0  0  0  0  0  0  0  0  0  0
  2  3  1  6
  2  1  1  0
  4  2  1  0
  4  5  1  0
  5  7  1  0
  5  6  1  1
  7  8  2  0
  9 10  1  0
  9  7  1  0
 10 11  1  6
 11 12  1  0
 13 14  2  0
 13 10  1  0
 15 16  1  0
 16 26  2  0
 16 17  1  0
 17 18  2  0
 18 19  1  0
 19 20  1  0
 21 20  1  1
 21 22  1  0
 21 23  1  0
 22 13  1  0
 23 27  1  0
 24 23  2  0
 25 19  2  0
 26 25  1  0
M  END
$$$$
