VED.pdb
     RDKit          3D

 25 24  0  0  1  0  0  0  0  0999 V2000
   14.1293  -11.0258  -13.9641 C   0  0  0  0  0  0  0  0  0  0  0  0
   14.3559  -11.7256  -15.2756 C   0  0  1  0  0  0  0  0  0  0  0  0
   14.2338  -10.7581  -16.4050 C   0  0  0  0  0  0  0  0  0  0  0  0
   15.7199  -12.4313  -15.2840 C   0  0  2  0  0  0  0  0  0  0  0  0
   15.6604  -13.3704  -14.1783 N   0  0  0  0  0  0  0  0  0  0  0  0
   16.7514  -11.3866  -15.0615 C   0  0  0  0  0  0  0  0  0  0  0  0
   16.9756  -10.9530  -13.9025 O   0  0  0  0  0  0  0  0  0  0  0  0
   17.5375  -10.8171  -16.1066 N   0  0  0  0  0  0  0  0  0  0  0  0
   18.5508   -9.8148  -15.8458 C   0  0  1  0  0  0  0  0  0  0  0  0
   19.6723  -10.0941  -16.8410 C   0  0  0  0  0  0  0  0  0  0  0  0
   20.7467  -10.9852  -16.2537 C   0  0  0  0  0  0  0  0  0  0  0  0
   21.7800  -11.2203  -17.2683 C   0  0  0  0  0  0  0  0  0  0  0  0
   22.1076  -10.3076  -18.0650 O   0  0  0  0  0  0  0  0  0  0  0  0
   18.0277   -8.4423  -16.0049 C   0  0  0  0  0  0  0  0  0  0  0  0
   16.9449   -8.1844  -16.5904 O   0  0  0  0  0  0  0  0  0  0  0  0
   22.4262  -12.4496  -17.3823 O   0  0  0  0  0  0  0  0  0  0  0  0
   18.7664   -7.3708  -15.4808 N   0  0  0  0  0  0  0  0  0  0  0  0
   18.2702   -5.9868  -15.6432 C   0  0  1  0  0  0  0  0  0  0  0  0
   16.8837   -5.8848  -15.1058 C   0  0  0  0  0  0  0  0  0  0  0  0
   16.3401   -4.5427  -14.9370 C   0  0  0  0  0  0  0  0  0  0  0  0
   16.6722   -3.5740  -15.6266 O   0  0  0  0  0  0  0  0  0  0  0  0
   19.2214   -5.0694  -14.9718 C   0  0  0  0  0  0  0  0  0  0  0  0
   19.0768   -3.8065  -15.0042 O   0  0  0  0  0  0  0  0  0  0  0  0
   15.3852   -4.3055  -13.9446 O   0  0  0  0  0  0  0  0  0  0  0  0
   20.2968   -5.5560  -14.2872 O   0  0  0  0  0  0  0  0  0  0  0  0
  2  4  1  0
  2  3  1  6
  2  1  1  0
  4  5  1  1
  6  7  2  0
  6  4  1  0
  8  6  1  0
  9  8  1  0
  9 10  1  6
 11 10  1  0
 12 11  1  0
 13 12  2  0
 14  9  1  0
 15 14  2  0
 16 12  1  0
 17 14  1  0
 18 17  1  0
 18 22  1  0
 19 20  1  0
 18 19  1  1
 20 24  1  0
 20 21  2  0
 22 25  1  0
 23 22  2  0
M  END
$$$$
