VED.pdb
     RDKit          3D

 25 24  0  0  1  0  0  0  0  0999 V2000
   22.7157  -12.6709  -16.5865 C   0  0  0  0  0  0  0  0  0  0  0  0
   24.0039  -11.9663  -16.9104 C   0  0  1  0  0  0  0  0  0  0  0  0
   24.1558  -11.8208  -18.3877 C   0  0  0  0  0  0  0  0  0  0  0  0
   24.0699  -10.6057  -16.2012 C   0  0  2  0  0  0  0  0  0  0  0  0
   24.0420  -10.9222  -14.7845 N   0  0  0  0  0  0  0  0  0  0  0  0
   22.8670   -9.8403  -16.6160 C   0  0  0  0  0  0  0  0  0  0  0  0
   22.7792   -9.3797  -17.7829 O   0  0  0  0  0  0  0  0  0  0  0  0
   21.7606   -9.5792  -15.7544 N   0  0  0  0  0  0  0  0  0  0  0  0
   20.6044   -8.8263  -16.1967 C   0  0  1  0  0  0  0  0  0  0  0  0
   19.4417   -9.3154  -15.3393 C   0  0  0  0  0  0  0  0  0  0  0  0
   18.1241   -8.6992  -15.7607 C   0  0  0  0  0  0  0  0  0  0  0  0
   17.0657   -9.1732  -14.8620 C   0  0  0  0  0  0  0  0  0  0  0  0
   16.5940   -8.4149  -13.9802 O   0  0  0  0  0  0  0  0  0  0  0  0
   20.8002   -7.3697  -16.0467 C   0  0  0  0  0  0  0  0  0  0  0  0
   21.4353   -6.8578  -15.0895 O   0  0  0  0  0  0  0  0  0  0  0  0
   16.5531  -10.4657  -14.9542 O   0  0  0  0  0  0  0  0  0  0  0  0
   20.2563   -6.5101  -17.0130 N   0  0  0  0  0  0  0  0  0  0  0  0
   20.3549   -5.0452  -16.8326 C   0  0  1  0  0  0  0  0  0  0  0  0
   20.9801   -4.4322  -18.0389 C   0  0  0  0  0  0  0  0  0  0  0  0
   21.0699   -2.9775  -18.0667 C   0  0  0  0  0  0  0  0  0  0  0  0
   20.7109   -2.2479  -17.1377 O   0  0  0  0  0  0  0  0  0  0  0  0
   18.9982   -4.5183  -16.5515 C   0  0  0  0  0  0  0  0  0  0  0  0
   17.9506   -5.0749  -17.0093 O   0  0  0  0  0  0  0  0  0  0  0  0
   21.5881   -2.3402  -19.1974 O   0  0  0  0  0  0  0  0  0  0  0  0
   18.8264   -3.4050  -15.7814 O   0  0  0  0  0  0  0  0  0  0  0  0
  2  4  1  0
  2  3  1  6
  2  1  1  0
  4  5  1  1
  6  7  2  0
  6  4  1  0
  8  6  1  0
  9  8  1  0
  9 10  1  1
 11 10  1  0
 12 11  1  0
 13 12  2  0
 14  9  1  0
 15 14  2  0
 16 12  1  0
 17 14  1  0
 18 17  1  0
 18 22  1  0
 19 20  1  0
 18 19  1  6
 20 24  1  0
 20 21  2  0
 22 25  1  0
 23 22  2  0
M  END
$$$$
