VED.pdb
     RDKit          3D

 25 24  0  0  1  0  0  0  0  0999 V2000
   18.3573  -12.6821  -17.2500 C   0  0  0  0  0  0  0  0  0  0  0  0
   19.1136  -13.8752  -16.7347 C   0  0  1  0  0  0  0  0  0  0  0  0
   18.4025  -15.1349  -17.1006 C   0  0  0  0  0  0  0  0  0  0  0  0
   20.5564  -13.8701  -17.2609 C   0  0  2  0  0  0  0  0  0  0  0  0
   21.1652  -15.0584  -16.6904 N   0  0  0  0  0  0  0  0  0  0  0  0
   21.1985  -12.6294  -16.7577 C   0  0  0  0  0  0  0  0  0  0  0  0
   21.2314  -12.3874  -15.5241 O   0  0  0  0  0  0  0  0  0  0  0  0
   21.8046  -11.6542  -17.6040 N   0  0  0  0  0  0  0  0  0  0  0  0
   22.3745  -10.4300  -17.0787 C   0  0  1  0  0  0  0  0  0  0  0  0
   23.5174  -10.0696  -18.0222 C   0  0  0  0  0  0  0  0  0  0  0  0
   24.2774   -8.8458  -17.5554 C   0  0  0  0  0  0  0  0  0  0  0  0
   25.4405   -8.6444  -18.4267 C   0  0  0  0  0  0  0  0  0  0  0  0
   25.6168   -9.3766  -19.4306 O   0  0  0  0  0  0  0  0  0  0  0  0
   21.3793   -9.3404  -17.0079 C   0  0  0  0  0  0  0  0  0  0  0  0
   20.4673   -9.1877  -17.8603 O   0  0  0  0  0  0  0  0  0  0  0  0
   26.3790   -7.6458  -18.1738 O   0  0  0  0  0  0  0  0  0  0  0  0
   21.4469   -8.4294  -15.9429 N   0  0  0  0  0  0  0  0  0  0  0  0
   20.4492   -7.3420  -15.8414 C   0  0  1  0  0  0  0  0  0  0  0  0
   19.0788   -7.9238  -15.7683 C   0  0  0  0  0  0  0  0  0  0  0  0
   17.9893   -7.0056  -15.4601 C   0  0  0  0  0  0  0  0  0  0  0  0
   18.0114   -5.7992  -15.7213 O   0  0  0  0  0  0  0  0  0  0  0  0
   20.7884   -6.5073  -14.6644 C   0  0  0  0  0  0  0  0  0  0  0  0
   21.8412   -6.7043  -13.9791 O   0  0  0  0  0  0  0  0  0  0  0  0
   16.8381   -7.4881  -14.8316 O   0  0  0  0  0  0  0  0  0  0  0  0
   19.9722   -5.4862  -14.2731 O   0  0  0  0  0  0  0  0  0  0  0  0
  2  4  1  0
  2  3  1  6
  2  1  1  0
  4  5  1  1
  6  7  2  0
  6  4  1  0
  8  6  1  0
  9  8  1  0
  9 10  1  6
 11 10  1  0
 12 11  1  0
 13 12  2  0
 14  9  1  0
 15 14  2  0
 16 12  1  0
 17 14  1  0
 18 17  1  0
 18 22  1  0
 19 20  1  0
 18 19  1  1
 20 24  1  0
 20 21  2  0
 22 25  1  0
 23 22  2  0
M  END
$$$$
