VED.pdb
     RDKit          3D

 25 24  0  0  1  0  0  0  0  0999 V2000
   19.8887  -13.3551  -17.8651 C   0  0  0  0  0  0  0  0  0  0  0  0
   21.1104  -12.7429  -18.4924 C   0  0  1  0  0  0  0  0  0  0  0  0
   20.7705  -12.1599  -19.8232 C   0  0  0  0  0  0  0  0  0  0  0  0
   21.7294  -11.6920  -17.5591 C   0  0  2  0  0  0  0  0  0  0  0  0
   22.1933  -12.4440  -16.4070 N   0  0  0  0  0  0  0  0  0  0  0  0
   20.6473  -10.7426  -17.1950 C   0  0  0  0  0  0  0  0  0  0  0  0
   20.1781   -9.9550  -18.0557 O   0  0  0  0  0  0  0  0  0  0  0  0
   20.0789  -10.6553  -15.8896 N   0  0  0  0  0  0  0  0  0  0  0  0
   19.1374   -9.6142  -15.5306 C   0  0  1  0  0  0  0  0  0  0  0  0
   17.9811  -10.3261  -14.8359 C   0  0  0  0  0  0  0  0  0  0  0  0
   16.9912  -10.9048  -15.8252 C   0  0  0  0  0  0  0  0  0  0  0  0
   15.8794  -11.5148  -15.0874 C   0  0  0  0  0  0  0  0  0  0  0  0
   14.8781  -10.8298  -14.7664 O   0  0  0  0  0  0  0  0  0  0  0  0
   19.7443   -8.5977  -14.6469 C   0  0  0  0  0  0  0  0  0  0  0  0
   20.3165   -8.8836  -13.5640 O   0  0  0  0  0  0  0  0  0  0  0  0
   15.8954  -12.8593  -14.7215 O   0  0  0  0  0  0  0  0  0  0  0  0
   19.6850   -7.2481  -15.0260 N   0  0  0  0  0  0  0  0  0  0  0  0
   20.2270   -6.2072  -14.1255 C   0  0  1  0  0  0  0  0  0  0  0  0
   21.6875   -6.0411  -14.3727 C   0  0  0  0  0  0  0  0  0  0  0  0
   22.3593   -4.9670  -13.6515 C   0  0  0  0  0  0  0  0  0  0  0  0
   22.2734   -4.7984  -12.4315 O   0  0  0  0  0  0  0  0  0  0  0  0
   19.4568   -4.9589  -14.3401 C   0  0  0  0  0  0  0  0  0  0  0  0
   18.6630   -4.8171  -15.3232 O   0  0  0  0  0  0  0  0  0  0  0  0
   23.1547   -4.0574  -14.3537 O   0  0  0  0  0  0  0  0  0  0  0  0
   19.5750   -3.9078  -13.4780 O   0  0  0  0  0  0  0  0  0  0  0  0
  2  4  1  0
  2  3  1  6
  2  1  1  0
  4  5  1  1
  6  7  2  0
  6  4  1  0
  8  6  1  0
  9  8  1  0
  9 10  1  1
 11 10  1  0
 12 11  1  0
 13 12  2  0
 14  9  1  0
 15 14  2  0
 16 12  1  0
 17 14  1  0
 18 17  1  0
 18 22  1  0
 19 20  1  0
 18 19  1  6
 20 24  1  0
 20 21  2  0
 22 25  1  0
 23 22  2  0
M  END
$$$$
