VED.pdb
     RDKit          3D

 25 24  0  0  1  0  0  0  0  0999 V2000
   20.4928   -8.2225  -14.0365 C   0  0  0  0  0  0  0  0  0  0  0  0
   21.1466   -7.3977  -15.1103 C   0  0  1  0  0  0  0  0  0  0  0  0
   22.1141   -6.4359  -14.5057 C   0  0  0  0  0  0  0  0  0  0  0  0
   21.8267   -8.3019  -16.1489 C   0  0  2  0  0  0  0  0  0  0  0  0
   22.2882   -7.3966  -17.1859 N   0  0  0  0  0  0  0  0  0  0  0  0
   20.7903   -9.2358  -16.6575 C   0  0  0  0  0  0  0  0  0  0  0  0
   19.8377   -8.8064  -17.3572 O   0  0  0  0  0  0  0  0  0  0  0  0
   20.7965  -10.6389  -16.4007 N   0  0  0  0  0  0  0  0  0  0  0  0
   19.7420  -11.5110  -16.8769 C   0  0  1  0  0  0  0  0  0  0  0  0
   20.4280  -12.8210  -17.2505 C   0  0  0  0  0  0  0  0  0  0  0  0
   20.9076  -12.8237  -18.6869 C   0  0  0  0  0  0  0  0  0  0  0  0
   21.5356  -14.1173  -18.9786 C   0  0  0  0  0  0  0  0  0  0  0  0
   22.7353  -14.1735  -19.3424 O   0  0  0  0  0  0  0  0  0  0  0  0
   18.6985  -11.7295  -15.8541 C   0  0  0  0  0  0  0  0  0  0  0  0
   18.9442  -11.7716  -14.6215 O   0  0  0  0  0  0  0  0  0  0  0  0
   20.8312  -15.3141  -18.8636 O   0  0  0  0  0  0  0  0  0  0  0  0
   17.3687  -11.8982  -16.2685 N   0  0  0  0  0  0  0  0  0  0  0  0
   16.3095  -12.1323  -15.2628 C   0  0  1  0  0  0  0  0  0  0  0  0
   15.3966  -10.9551  -15.2125 C   0  0  0  0  0  0  0  0  0  0  0  0
   14.2359  -11.0590  -14.3365 C   0  0  0  0  0  0  0  0  0  0  0  0
   14.2000  -11.7618  -13.3221 O   0  0  0  0  0  0  0  0  0  0  0  0
   15.6110  -13.3936  -15.6071 C   0  0  0  0  0  0  0  0  0  0  0  0
   15.2778  -13.6753  -16.8014 O   0  0  0  0  0  0  0  0  0  0  0  0
   13.0797  -10.3330  -14.6352 O   0  0  0  0  0  0  0  0  0  0  0  0
   15.2997  -14.3062  -14.6416 O   0  0  0  0  0  0  0  0  0  0  0  0
  2  4  1  0
  2  3  1  1
  2  1  1  0
  4  5  1  6
  6  7  2  0
  6  4  1  0
  8  6  1  0
  9  8  1  0
  9 10  1  1
 11 10  1  0
 12 11  1  0
 13 12  2  0
 14  9  1  0
 15 14  2  0
 16 12  1  0
 17 14  1  0
 18 17  1  0
 18 22  1  0
 19 20  1  0
 18 19  1  6
 20 24  1  0
 20 21  2  0
 22 25  1  0
 23 22  2  0
M  END
$$$$
