TVS.pdb
     RDKit          3D

 21 20  0  0  1  0  0  0  0  0999 V2000
    5.9905  -15.0777   20.0159 C   0  0  0  0  0  0  0  0  0  0  0  0
    6.6382  -15.1369   21.3466 C   0  0  1  0  0  0  0  0  0  0  0  0
    7.0725  -16.4246   21.6660 O   0  0  0  0  0  0  0  0  0  0  0  0
    7.7801  -14.2005   21.5733 C   0  0  2  0  0  0  0  0  0  0  0  0
    8.7782  -14.2844   20.5215 N   0  0  0  0  0  0  0  0  0  0  0  0
    8.3691  -14.2387   22.9112 C   0  0  0  0  0  0  0  0  0  0  0  0
    9.4513  -14.7912   23.2156 O   0  0  0  0  0  0  0  0  0  0  0  0
    7.9102  -12.5713   27.5746 C   0  0  0  0  0  0  0  0  0  0  0  0
    7.3472  -12.7059   26.1904 C   0  0  2  0  0  0  0  0  0  0  0  0
    5.8827  -12.9990   26.2655 C   0  0  0  0  0  0  0  0  0  0  0  0
    8.1098  -13.6987   25.3606 C   0  0  2  0  0  0  0  0  0  0  0  0
    7.6787  -13.6028   23.9818 N   0  0  0  0  0  0  0  0  0  0  0  0
    7.9854  -15.0827   25.8742 C   0  0  0  0  0  0  0  0  0  0  0  0
    6.8710  -15.6610   25.8393 O   0  0  0  0  0  0  0  0  0  0  0  0
   10.7807  -17.8449   25.5492 O   0  0  0  0  0  0  0  0  0  0  0  0
    9.4525  -18.0864   25.9138 C   0  0  0  0  0  0  0  0  0  0  0  0
    8.9605  -17.1031   26.9448 C   0  0  2  0  0  0  0  0  0  0  0  0
    9.1039  -15.7665   26.4049 N   0  0  0  0  0  0  0  0  0  0  0  0
    9.7913  -17.2904   28.1629 C   0  0  0  0  0  0  0  0  0  0  0  0
    9.7654  -18.3984   28.7306 O   0  0  0  0  0  0  0  0  0  0  0  0
   10.5498  -16.2231   28.6017 O   0  0  0  0  0  0  0  0  0  0  0  0
  2  3  1  0
  2  1  1  6
  4  2  1  0
  4  5  1  6
  6 12  1  0
  6  4  1  0
  7  6  2  0
  9  8  1  1
  9 11  1  0
 10  9  1  0
 11 13  1  0
 11 12  1  6
 13 18  1  0
 14 13  2  0
 15 16  1  0
 17 19  1  0
 17 16  1  6
 18 17  1  0
 19 20  2  0
 19 21  1  0
M  END
$$$$
