TVS.pdb
     RDKit          3D

 21 20  0  0  1  0  0  0  0  0999 V2000
    6.2895  -16.0698   21.3039 C   0  0  0  0  0  0  0  0  0  0  0  0
    7.2570  -15.1962   20.6007 C   0  0  1  0  0  0  0  0  0  0  0  0
    6.9621  -15.0671   19.2423 O   0  0  0  0  0  0  0  0  0  0  0  0
    7.4430  -13.8234   21.1600 C   0  0  2  0  0  0  0  0  0  0  0  0
    8.0978  -12.9300   20.2204 N   0  0  0  0  0  0  0  0  0  0  0  0
    8.0327  -13.7630   22.4967 C   0  0  0  0  0  0  0  0  0  0  0  0
    9.2586  -13.7292   22.7518 O   0  0  0  0  0  0  0  0  0  0  0  0
    6.5758  -11.5864   25.3869 C   0  0  0  0  0  0  0  0  0  0  0  0
    6.7460  -12.9945   25.8763 C   0  0  2  0  0  0  0  0  0  0  0  0
    7.1763  -12.9846   27.3084 C   0  0  0  0  0  0  0  0  0  0  0  0
    7.6525  -13.7989   24.9893 C   0  0  2  0  0  0  0  0  0  0  0  0
    7.1668  -13.7393   23.6268 N   0  0  0  0  0  0  0  0  0  0  0  0
    7.8043  -15.1982   25.4517 C   0  0  0  0  0  0  0  0  0  0  0  0
    6.7988  -15.9494   25.5006 O   0  0  0  0  0  0  0  0  0  0  0  0
   11.0479  -17.3153   24.7992 O   0  0  0  0  0  0  0  0  0  0  0  0
    9.8529  -17.8890   25.2448 C   0  0  0  0  0  0  0  0  0  0  0  0
    9.1962  -17.0645   26.3223 C   0  0  2  0  0  0  0  0  0  0  0  0
    9.0663  -15.7047   25.8403 N   0  0  0  0  0  0  0  0  0  0  0  0
   10.0687  -17.1354   27.5236 C   0  0  0  0  0  0  0  0  0  0  0  0
   10.2758  -18.2504   28.0379 O   0  0  0  0  0  0  0  0  0  0  0  0
   10.6048  -15.9581   28.0069 O   0  0  0  0  0  0  0  0  0  0  0  0
  2  3  1  0
  2  1  1  1
  4  2  1  0
  4  5  1  6
  6 12  1  0
  6  4  1  0
  7  6  2  0
  9  8  1  6
  9 11  1  0
 10  9  1  0
 11 13  1  0
 11 12  1  6
 13 18  1  0
 14 13  2  0
 15 16  1  0
 17 19  1  0
 17 16  1  6
 18 17  1  0
 19 20  2  0
 19 21  1  0
M  END
$$$$
