TVS.pdb
     RDKit          3D

 21 20  0  0  1  0  0  0  0  0999 V2000
    5.9378  -16.1589   20.2979 C   0  0  0  0  0  0  0  0  0  0  0  0
    6.7466  -15.8157   21.4903 C   0  0  1  0  0  0  0  0  0  0  0  0
    7.8016  -16.7083   21.6880 O   0  0  0  0  0  0  0  0  0  0  0  0
    7.3050  -14.4308   21.5397 C   0  0  2  0  0  0  0  0  0  0  0  0
    7.9752  -14.0629   20.3048 N   0  0  0  0  0  0  0  0  0  0  0  0
    8.0995  -14.1145   22.7259 C   0  0  0  0  0  0  0  0  0  0  0  0
    9.3507  -14.0942   22.7809 O   0  0  0  0  0  0  0  0  0  0  0  0
    7.9980  -12.4523   27.3927 C   0  0  0  0  0  0  0  0  0  0  0  0
    7.2884  -12.7664   26.1086 C   0  0  2  0  0  0  0  0  0  0  0  0
    5.9364  -13.3338   26.4026 C   0  0  0  0  0  0  0  0  0  0  0  0
    8.1123  -13.6346   25.2014 C   0  0  2  0  0  0  0  0  0  0  0  0
    7.4236  -13.7981   23.9385 N   0  0  0  0  0  0  0  0  0  0  0  0
    8.4435  -14.9424   25.8135 C   0  0  0  0  0  0  0  0  0  0  0  0
    7.5839  -15.8582   25.8267 O   0  0  0  0  0  0  0  0  0  0  0  0
   11.2027  -17.1518   25.0958 O   0  0  0  0  0  0  0  0  0  0  0  0
   11.2733  -16.9973   26.4839 C   0  0  0  0  0  0  0  0  0  0  0  0
    9.9991  -16.4306   27.0561 C   0  0  2  0  0  0  0  0  0  0  0  0
    9.7154  -15.1785   26.3852 N   0  0  0  0  0  0  0  0  0  0  0  0
   10.2217  -16.2301   28.5119 C   0  0  0  0  0  0  0  0  0  0  0  0
   10.1868  -15.0688   28.9601 O   0  0  0  0  0  0  0  0  0  0  0  0
   10.4560  -17.3450   29.2924 O   0  0  0  0  0  0  0  0  0  0  0  0
  2  3  1  0
  2  1  1  6
  4  2  1  0
  4  5  1  6
  6 12  1  0
  6  4  1  0
  7  6  2  0
  9  8  1  1
  9 11  1  0
 10  9  1  0
 11 13  1  0
 11 12  1  6
 13 18  1  0
 14 13  2  0
 15 16  1  0
 17 19  1  0
 17 16  1  6
 18 17  1  0
 19 20  2  0
 19 21  1  0
M  END
$$$$
