TVS.pdb
     RDKit          3D

 21 20  0  0  1  0  0  0  0  0999 V2000
    9.0554  -18.4205   15.2055 C   0  0  0  0  0  0  0  0  0  0  0  0
    9.3454  -17.7728   16.5056 C   0  0  1  0  0  0  0  0  0  0  0  0
   10.3004  -18.4740   17.2438 O   0  0  0  0  0  0  0  0  0  0  0  0
    9.7678  -16.3406   16.4562 C   0  0  2  0  0  0  0  0  0  0  0  0
   10.8390  -16.1150   15.5016 N   0  0  0  0  0  0  0  0  0  0  0  0
   10.0298  -15.7167   17.7524 C   0  0  0  0  0  0  0  0  0  0  0  0
   11.1610  -15.5363   18.2592 O   0  0  0  0  0  0  0  0  0  0  0  0
    7.6462  -12.7043   19.2034 C   0  0  0  0  0  0  0  0  0  0  0  0
    7.8501  -13.8488   20.1520 C   0  0  2  0  0  0  0  0  0  0  0  0
    7.8211  -13.3498   21.5614 C   0  0  0  0  0  0  0  0  0  0  0  0
    9.0832  -14.6426   19.8283 C   0  0  2  0  0  0  0  0  0  0  0  0
    8.9263  -15.2644   18.5303 N   0  0  0  0  0  0  0  0  0  0  0  0
    9.4067  -15.6411   20.8739 C   0  0  0  0  0  0  0  0  0  0  0  0
    8.7633  -16.7186   20.9250 O   0  0  0  0  0  0  0  0  0  0  0  0
   12.6526  -17.1528   24.1250 O   0  0  0  0  0  0  0  0  0  0  0  0
   12.2453  -16.2587   23.1299 C   0  0  0  0  0  0  0  0  0  0  0  0
   10.7839  -16.4128   22.7939 C   0  0  2  0  0  0  0  0  0  0  0  0
   10.4312  -15.4012   21.8189 N   0  0  0  0  0  0  0  0  0  0  0  0
   10.0214  -16.2400   24.0580 C   0  0  0  0  0  0  0  0  0  0  0  0
    9.3743  -15.1882   24.2182 O   0  0  0  0  0  0  0  0  0  0  0  0
   10.0710  -17.2575   24.9903 O   0  0  0  0  0  0  0  0  0  0  0  0
  2  3  1  0
  2  1  1  6
  4  2  1  0
  4  5  1  6
  6 12  1  0
  6  4  1  0
  7  6  2  0
  9  8  1  6
  9 11  1  0
 10  9  1  0
 11 13  1  0
 11 12  1  6
 13 18  1  0
 14 13  2  0
 15 16  1  0
 17 19  1  0
 17 16  1  1
 18 17  1  0
 19 20  2  0
 19 21  1  0
M  END
$$$$
