TVS.pdb
     RDKit          3D

 21 20  0  0  1  0  0  0  0  0999 V2000
    5.8802  -14.2897   19.8664 C   0  0  0  0  0  0  0  0  0  0  0  0
    6.6055  -14.5004   21.1405 C   0  0  1  0  0  0  0  0  0  0  0  0
    7.4269  -15.6284   21.1006 O   0  0  0  0  0  0  0  0  0  0  0  0
    7.4266  -13.3549   21.6363 C   0  0  2  0  0  0  0  0  0  0  0  0
    8.2722  -12.7932   20.5975 N   0  0  0  0  0  0  0  0  0  0  0  0
    8.1522  -13.5939   22.8832 C   0  0  0  0  0  0  0  0  0  0  0  0
    9.3736  -13.8556   22.9771 O   0  0  0  0  0  0  0  0  0  0  0  0
    5.9050  -13.3235   26.5589 C   0  0  0  0  0  0  0  0  0  0  0  0
    7.3603  -12.9738   26.4535 C   0  0  2  0  0  0  0  0  0  0  0  0
    7.5147  -11.4973   26.2746 C   0  0  0  0  0  0  0  0  0  0  0  0
    8.0628  -13.7769   25.3966 C   0  0  2  0  0  0  0  0  0  0  0  0
    7.4385  -13.5313   24.1136 N   0  0  0  0  0  0  0  0  0  0  0  0
    8.1016  -15.2234   25.7143 C   0  0  0  0  0  0  0  0  0  0  0  0
    7.0639  -15.9178   25.5786 O   0  0  0  0  0  0  0  0  0  0  0  0
   11.4455  -17.2995   25.3441 O   0  0  0  0  0  0  0  0  0  0  0  0
   10.2088  -17.9395   25.4717 C   0  0  0  0  0  0  0  0  0  0  0  0
    9.3171  -17.2537   26.4752 C   0  0  2  0  0  0  0  0  0  0  0  0
    9.2913  -15.8380   26.1695 N   0  0  0  0  0  0  0  0  0  0  0  0
    9.8921  -17.5097   27.8217 C   0  0  0  0  0  0  0  0  0  0  0  0
   10.2336  -16.5322   28.5134 O   0  0  0  0  0  0  0  0  0  0  0  0
   10.0175  -18.8212   28.2354 O   0  0  0  0  0  0  0  0  0  0  0  0
  2  3  1  0
  2  1  1  6
  4  2  1  0
  4  5  1  6
  6 12  1  0
  6  4  1  0
  7  6  2  0
  9  8  1  6
  9 11  1  0
 10  9  1  0
 11 13  1  0
 11 12  1  6
 13 18  1  0
 14 13  2  0
 15 16  1  0
 17 19  1  0
 17 16  1  6
 18 17  1  0
 19 20  2  0
 19 21  1  0
M  END
$$$$
