RQC.pdb
     RDKit          3D

 27 26  0  0  1  0  0  0  0  0999 V2000
    8.3565  -11.7860   19.1608 N   0  0  0  0  0  0  0  0  0  0  0  0
    8.5691  -13.0448   18.5388 C   0  0  0  0  0  0  0  0  0  0  0  0
    8.5996  -13.1386   17.2609 N   0  0  0  0  0  0  0  0  0  0  0  0
    8.7468  -14.1952   19.3741 N   0  0  0  0  0  0  0  0  0  0  0  0
    7.7966  -15.3052   19.2762 C   0  0  0  0  0  0  0  0  0  0  0  0
    6.7159  -15.1634   20.2966 C   0  0  0  0  0  0  0  0  0  0  0  0
    7.0740  -15.5052   21.6912 C   0  0  0  0  0  0  0  0  0  0  0  0
    7.4344  -16.9193   21.9762 C   0  0  2  0  0  0  0  0  0  0  0  0
    6.3779  -17.8435   21.7019 N   0  0  0  0  0  0  0  0  0  0  0  0
    8.0245  -17.1050   23.3294 C   0  0  0  0  0  0  0  0  0  0  0  0
    7.2608  -16.9881   24.3279 O   0  0  0  0  0  0  0  0  0  0  0  0
    8.7617  -14.0701   16.8255 N   0  0  0  0  0  0  0  0  0  0  0  0
   13.3043  -19.9516   24.3482 C   0  0  0  0  0  0  0  0  0  0  0  0
   13.1459  -19.4348   25.6517 O   0  0  0  0  0  0  0  0  0  0  0  0
   13.9960  -19.7563   26.5197 C   0  0  0  0  0  0  0  0  0  0  0  0
   11.9901  -18.5200   26.0035 C   0  0  0  0  0  0  0  0  0  0  0  0
   11.1541  -18.3112   24.8006 C   0  0  1  0  0  0  0  0  0  0  0  0
    9.9422  -17.4587   24.9374 N   0  0  0  0  0  0  0  0  0  0  0  0
    9.3774  -17.4022   23.5628 C   0  0  0  0  0  0  0  0  0  0  0  0
   10.1598  -16.0962   25.4343 O   0  0  0  0  0  0  0  0  0  0  0  0
   10.7926  -15.2301   24.7271 N   0  0  0  0  0  0  0  0  0  0  0  0
    9.7088  -15.6232   26.6868 C   0  0  1  0  0  0  0  0  0  0  0  0
   10.2043  -14.3519   27.2211 C   0  0  0  0  0  0  0  0  0  0  0  0
    9.1932  -13.2476   27.0111 S   0  0  0  0  0  0  0  0  0  0  0  0
    7.5740  -13.6140   27.6830 C   0  0  0  0  0  0  0  0  0  0  0  0
   10.3827  -14.4927   28.6803 O   0  0  0  0  0  0  0  0  0  0  0  0
   10.0909  -15.6648   29.3602 O   0  0  0  0  0  0  0  0  0  0  0  0
  1  2  1  0
  2  3  2  0
  4  2  1  0
  5  4  1  0
  6  5  1  0
  7  6  1  0
  8  7  1  0
  8  9  1  1
 10  8  1  0
 10 18  1  0
 11 10  2  0
 13 12  1  0
 14 13  2  0
 15 13  1  0
 17 16  1  1
 16 15  1  0
 17 18  1  0
 19 17  1  0
 20 19  2  0
 21 19  1  0
 22 25  1  0
 22 21  1  0
 23 24  1  0
 22 23  1  1
 25 26  1  0
 27 25  2  0
M  END
$$$$
