RQC.pdb
     RDKit          3D

 27 26  0  0  1  0  0  0  0  0999 V2000
    7.5704  -12.8382   16.7679 N   0  0  0  0  0  0  0  0  0  0  0  0
    8.2404  -13.9119   16.1237 C   0  0  0  0  0  0  0  0  0  0  0  0
    8.2671  -13.9841   14.8443 N   0  0  0  0  0  0  0  0  0  0  0  0
    8.8792  -14.9021   16.9386 N   0  0  0  0  0  0  0  0  0  0  0  0
    8.1563  -15.4646   18.0814 C   0  0  0  0  0  0  0  0  0  0  0  0
    7.9089  -14.4156   19.1146 C   0  0  0  0  0  0  0  0  0  0  0  0
    7.1959  -14.8468   20.3375 C   0  0  0  0  0  0  0  0  0  0  0  0
    7.4852  -16.2120   20.8506 C   0  0  2  0  0  0  0  0  0  0  0  0
    6.8116  -17.2470   20.1290 N   0  0  0  0  0  0  0  0  0  0  0  0
    7.3063  -16.3272   22.3232 C   0  0  0  0  0  0  0  0  0  0  0  0
    6.1288  -16.4144   22.7701 O   0  0  0  0  0  0  0  0  0  0  0  0
    8.8363  -14.7285   14.3912 N   0  0  0  0  0  0  0  0  0  0  0  0
   10.6157  -19.3050   26.3227 C   0  0  0  0  0  0  0  0  0  0  0  0
   10.6684  -19.1807   24.9180 O   0  0  0  0  0  0  0  0  0  0  0  0
   11.6130  -19.7461   24.3121 C   0  0  0  0  0  0  0  0  0  0  0  0
    9.6229  -18.3920   24.1553 C   0  0  0  0  0  0  0  0  0  0  0  0
    8.7308  -17.7112   25.1197 C   0  0  1  0  0  0  0  0  0  0  0  0
    8.1297  -16.4127   24.7113 N   0  0  0  0  0  0  0  0  0  0  0  0
    8.3663  -16.3450   23.2446 C   0  0  0  0  0  0  0  0  0  0  0  0
    8.6785  -15.2133   25.3522 O   0  0  0  0  0  0  0  0  0  0  0  0
    9.8473  -14.7776   25.0439 N   0  0  0  0  0  0  0  0  0  0  0  0
    8.0000  -14.4500   26.3284 C   0  0  1  0  0  0  0  0  0  0  0  0
    8.6627  -13.3128   26.9725 C   0  0  0  0  0  0  0  0  0  0  0  0
    7.6479  -12.3644   27.5697 S   0  0  0  0  0  0  0  0  0  0  0  0
    6.2255  -12.0750   26.5206 C   0  0  0  0  0  0  0  0  0  0  0  0
    9.4820  -13.8185   28.0922 O   0  0  0  0  0  0  0  0  0  0  0  0
   10.2821  -12.9929   28.8665 O   0  0  0  0  0  0  0  0  0  0  0  0
  1  2  1  0
  2  3  2  0
  4  2  1  0
  5  4  1  0
  6  5  1  0
  7  6  1  0
  8  7  1  0
  8  9  1  6
 10  8  1  0
 10 18  1  0
 11 10  2  0
 13 12  1  0
 14 13  2  0
 15 13  1  0
 17 16  1  6
 16 15  1  0
 17 18  1  0
 19 17  1  0
 20 19  2  0
 21 19  1  0
 22 25  1  0
 22 21  1  0
 23 24  1  0
 22 23  1  1
 25 26  1  0
 27 25  2  0
M  END
$$$$
