RQC.pdb
     RDKit          3D

 27 26  0  0  1  0  0  0  0  0999 V2000
    8.2241  -15.7126   16.2712 N   0  0  0  0  0  0  0  0  0  0  0  0
    8.4681  -14.4175   15.7421 C   0  0  0  0  0  0  0  0  0  0  0  0
    8.5221  -14.2355   14.4745 N   0  0  0  0  0  0  0  0  0  0  0  0
    8.6502  -13.3313   16.6585 N   0  0  0  0  0  0  0  0  0  0  0  0
    8.6611  -13.6024   18.0976 C   0  0  0  0  0  0  0  0  0  0  0  0
    7.2865  -13.9272   18.5815 C   0  0  0  0  0  0  0  0  0  0  0  0
    7.1425  -14.2039   20.0281 C   0  0  0  0  0  0  0  0  0  0  0  0
    8.0035  -15.2683   20.6083 C   0  0  2  0  0  0  0  0  0  0  0  0
    7.9710  -16.4932   19.8706 N   0  0  0  0  0  0  0  0  0  0  0  0
    7.7754  -15.4677   22.0650 C   0  0  0  0  0  0  0  0  0  0  0  0
    6.7700  -14.9105   22.5871 O   0  0  0  0  0  0  0  0  0  0  0  0
    8.8122  -13.3052   14.1087 N   0  0  0  0  0  0  0  0  0  0  0  0
   11.2421  -19.2442   25.4492 C   0  0  0  0  0  0  0  0  0  0  0  0
   10.5670  -18.6184   26.5188 O   0  0  0  0  0  0  0  0  0  0  0  0
   10.8981  -18.9343   27.6892 C   0  0  0  0  0  0  0  0  0  0  0  0
    9.4756  -17.5960   26.2736 C   0  0  0  0  0  0  0  0  0  0  0  0
    9.3547  -17.3560   24.8185 C   0  0  1  0  0  0  0  0  0  0  0  0
    8.4142  -16.2953   24.3661 N   0  0  0  0  0  0  0  0  0  0  0  0
    8.6095  -16.2370   22.8930 C   0  0  0  0  0  0  0  0  0  0  0  0
    8.6159  -14.9610   24.9404 O   0  0  0  0  0  0  0  0  0  0  0  0
    9.6829  -14.2904   24.6905 N   0  0  0  0  0  0  0  0  0  0  0  0
    7.6910  -14.3096   25.7867 C   0  0  1  0  0  0  0  0  0  0  0  0
    7.9888  -12.9801   26.3260 C   0  0  0  0  0  0  0  0  0  0  0  0
    6.7570  -12.1036   26.3116 S   0  0  0  0  0  0  0  0  0  0  0  0
    5.3571  -12.8116   27.1755 C   0  0  0  0  0  0  0  0  0  0  0  0
    8.3905  -13.1252   27.7397 O   0  0  0  0  0  0  0  0  0  0  0  0
    8.9289  -12.0812   28.4755 O   0  0  0  0  0  0  0  0  0  0  0  0
  1  2  1  0
  2  3  2  0
  4  2  1  0
  5  4  1  0
  6  5  1  0
  7  6  1  0
  8  7  1  0
  8  9  1  6
 10  8  1  0
 10 18  1  0
 11 10  2  0
 13 12  1  0
 14 13  2  0
 15 13  1  0
 17 16  1  6
 16 15  1  0
 17 18  1  0
 19 17  1  0
 20 19  2  0
 21 19  1  0
 22 25  1  0
 22 21  1  0
 23 24  1  0
 22 23  1  1
 25 26  1  0
 27 25  2  0
M  END
$$$$
