RQC.pdb
     RDKit          3D

 27 26  0  0  1  0  0  0  0  0999 V2000
    8.0158  -12.6584   14.9928 N   0  0  0  0  0  0  0  0  0  0  0  0
    7.9335  -13.9163   15.6466 C   0  0  0  0  0  0  0  0  0  0  0  0
    8.1990  -14.9961   15.0091 N   0  0  0  0  0  0  0  0  0  0  0  0
    7.5489  -13.9421   17.0265 N   0  0  0  0  0  0  0  0  0  0  0  0
    7.2366  -15.2254   17.6593 C   0  0  0  0  0  0  0  0  0  0  0  0
    6.8744  -15.0293   19.0944 C   0  0  0  0  0  0  0  0  0  0  0  0
    7.8279  -14.2521   19.9171 C   0  0  0  0  0  0  0  0  0  0  0  0
    8.7329  -15.0153   20.8167 C   0  0  2  0  0  0  0  0  0  0  0  0
    9.1463  -16.2733   20.2762 N   0  0  0  0  0  0  0  0  0  0  0  0
    8.2084  -15.1297   22.2044 C   0  0  0  0  0  0  0  0  0  0  0  0
    7.7961  -14.0783   22.7685 O   0  0  0  0  0  0  0  0  0  0  0  0
    8.1172  -15.9086   15.5031 N   0  0  0  0  0  0  0  0  0  0  0  0
    7.2826  -20.5881   24.8445 C   0  0  0  0  0  0  0  0  0  0  0  0
    6.8903  -19.7963   25.9447 O   0  0  0  0  0  0  0  0  0  0  0  0
    6.4974  -20.3849   26.9832 C   0  0  0  0  0  0  0  0  0  0  0  0
    6.9380  -18.2827   25.8853 C   0  0  0  0  0  0  0  0  0  0  0  0
    7.4125  -17.8652   24.5474 C   0  0  1  0  0  0  0  0  0  0  0  0
    7.5413  -16.4069   24.2810 N   0  0  0  0  0  0  0  0  0  0  0  0
    8.1442  -16.3347   22.9234 C   0  0  0  0  0  0  0  0  0  0  0  0
    8.3658  -15.6450   25.2245 O   0  0  0  0  0  0  0  0  0  0  0  0
    9.6480  -15.7185   25.1877 N   0  0  0  0  0  0  0  0  0  0  0  0
    7.8497  -14.7883   26.2223 C   0  0  1  0  0  0  0  0  0  0  0  0
    8.7499  -14.1344   27.1760 C   0  0  0  0  0  0  0  0  0  0  0  0
    8.0628  -12.9727   27.8571 S   0  0  0  0  0  0  0  0  0  0  0  0
    7.2013  -11.8810   26.7286 C   0  0  0  0  0  0  0  0  0  0  0  0
    9.0968  -15.1032   28.2352 O   0  0  0  0  0  0  0  0  0  0  0  0
    8.6187  -16.4041   28.2453 O   0  0  0  0  0  0  0  0  0  0  0  0
  1  2  1  0
  2  3  2  0
  4  2  1  0
  5  4  1  0
  6  5  1  0
  7  6  1  0
  8  7  1  0
  8  9  1  6
 10  8  1  0
 10 18  1  0
 11 10  2  0
 13 12  1  0
 14 13  2  0
 15 13  1  0
 17 16  1  6
 16 15  1  0
 17 18  1  0
 19 17  1  0
 20 19  2  0
 21 19  1  0
 22 25  1  0
 22 21  1  0
 23 24  1  0
 22 23  1  1
 25 26  1  0
 27 25  2  0
M  END
$$$$
