RQC.pdb
     RDKit          3D

 27 26  0  0  1  0  0  0  0  0999 V2000
    8.7075  -14.0637   17.7932 N   0  0  0  0  0  0  0  0  0  0  0  0
    8.5073  -13.0015   18.7142 C   0  0  0  0  0  0  0  0  0  0  0  0
    9.1038  -11.8793   18.5481 N   0  0  0  0  0  0  0  0  0  0  0  0
    7.6272  -13.2196   19.8235 N   0  0  0  0  0  0  0  0  0  0  0  0
    7.1013  -14.5646   20.0671 C   0  0  0  0  0  0  0  0  0  0  0  0
    8.0616  -15.3644   20.8840 C   0  0  0  0  0  0  0  0  0  0  0  0
    8.1346  -16.8126   20.5893 C   0  0  0  0  0  0  0  0  0  0  0  0
    9.0363  -17.6369   21.4369 C   0  0  2  0  0  0  0  0  0  0  0  0
    9.0754  -19.0149   21.0557 N   0  0  0  0  0  0  0  0  0  0  0  0
    8.7939  -17.4495   22.8929 C   0  0  0  0  0  0  0  0  0  0  0  0
    7.6504  -17.7380   23.3433 O   0  0  0  0  0  0  0  0  0  0  0  0
    8.9679  -11.1248   19.2522 N   0  0  0  0  0  0  0  0  0  0  0  0
   11.6153  -18.7677   28.1591 C   0  0  0  0  0  0  0  0  0  0  0  0
   11.1658  -19.6171   27.1258 O   0  0  0  0  0  0  0  0  0  0  0  0
   11.1970  -20.8571   27.3278 C   0  0  0  0  0  0  0  0  0  0  0  0
   10.6593  -19.0608   25.8103 C   0  0  0  0  0  0  0  0  0  0  0  0
   10.6343  -17.5833   25.8868 C   0  0  2  0  0  0  0  0  0  0  0  0
    9.4885  -16.8752   25.2544 N   0  0  0  0  0  0  0  0  0  0  0  0
    9.7588  -16.9718   23.7951 C   0  0  0  0  0  0  0  0  0  0  0  0
    9.3090  -15.4684   25.6275 O   0  0  0  0  0  0  0  0  0  0  0  0
   10.1033  -14.5620   25.1820 N   0  0  0  0  0  0  0  0  0  0  0  0
    8.2839  -14.9934   26.4757 C   0  0  1  0  0  0  0  0  0  0  0  0
    8.3374  -13.6306   27.0116 C   0  0  0  0  0  0  0  0  0  0  0  0
    6.9845  -13.2024   27.5332 S   0  0  0  0  0  0  0  0  0  0  0  0
    5.6585  -13.3960   26.3451 C   0  0  0  0  0  0  0  0  0  0  0  0
    9.2614  -13.6143   28.1636 O   0  0  0  0  0  0  0  0  0  0  0  0
    9.6362  -12.4445   28.8056 O   0  0  0  0  0  0  0  0  0  0  0  0
  1  2  1  0
  2  3  2  0
  4  2  1  0
  5  4  1  0
  6  5  1  0
  7  6  1  0
  8  7  1  0
  8  9  1  6
 10  8  1  0
 10 18  1  0
 11 10  2  0
 13 12  1  0
 14 13  2  0
 15 13  1  0
 17 16  1  6
 16 15  1  0
 17 18  1  0
 19 17  1  0
 20 19  2  0
 21 19  1  0
 22 25  1  0
 22 21  1  0
 23 24  1  0
 22 23  1  1
 25 26  1  0
 27 25  2  0
M  END
$$$$
