RQC.pdb
     RDKit          3D

 27 26  0  0  1  0  0  0  0  0999 V2000
    8.0702  -12.7901   16.5949 N   0  0  0  0  0  0  0  0  0  0  0  0
    8.1626  -14.2016   16.7198 C   0  0  0  0  0  0  0  0  0  0  0  0
    8.1620  -14.9455   15.6760 N   0  0  0  0  0  0  0  0  0  0  0  0
    8.2557  -14.7637   18.0344 N   0  0  0  0  0  0  0  0  0  0  0  0
    8.3548  -13.8700   19.1903 C   0  0  0  0  0  0  0  0  0  0  0  0
    7.0441  -13.7814   19.8999 C   0  0  0  0  0  0  0  0  0  0  0  0
    6.8845  -14.6281   21.1029 C   0  0  0  0  0  0  0  0  0  0  0  0
    8.0609  -15.4281   21.5353 C   0  0  2  0  0  0  0  0  0  0  0  0
    8.3274  -16.5520   20.6918 N   0  0  0  0  0  0  0  0  0  0  0  0
    8.0171  -15.7891   22.9780 C   0  0  0  0  0  0  0  0  0  0  0  0
    7.8062  -14.8650   23.8119 O   0  0  0  0  0  0  0  0  0  0  0  0
    8.2265  -15.9781   15.7904 N   0  0  0  0  0  0  0  0  0  0  0  0
    6.1858  -20.6173   25.5366 C   0  0  0  0  0  0  0  0  0  0  0  0
    7.1705  -20.4394   26.5317 O   0  0  0  0  0  0  0  0  0  0  0  0
    7.0418  -21.0759   27.6075 C   0  0  0  0  0  0  0  0  0  0  0  0
    8.3498  -19.5118   26.3187 C   0  0  0  0  0  0  0  0  0  0  0  0
    8.2407  -18.8886   24.9812 C   0  0  1  0  0  0  0  0  0  0  0  0
    8.0764  -17.4111   24.9155 N   0  0  0  0  0  0  0  0  0  0  0  0
    8.1956  -17.0936   23.4675 C   0  0  0  0  0  0  0  0  0  0  0  0
    9.0480  -16.6158   25.6733 O   0  0  0  0  0  0  0  0  0  0  0  0
   10.2271  -16.4001   25.2105 N   0  0  0  0  0  0  0  0  0  0  0  0
    8.7894  -16.0306   26.9328 C   0  0  1  0  0  0  0  0  0  0  0  0
    9.8234  -15.2443   27.6111 C   0  0  0  0  0  0  0  0  0  0  0  0
    9.2698  -13.9197   28.0852 S   0  0  0  0  0  0  0  0  0  0  0  0
   10.4315  -12.9548   29.0479 C   0  0  0  0  0  0  0  0  0  0  0  0
   10.2579  -15.9789   28.8162 O   0  0  0  0  0  0  0  0  0  0  0  0
   11.3588  -15.5990   29.5678 O   0  0  0  0  0  0  0  0  0  0  0  0
  1  2  1  0
  2  3  2  0
  4  2  1  0
  5  4  1  0
  6  5  1  0
  7  6  1  0
  8  7  1  0
  8  9  1  6
 10  8  1  0
 10 18  1  0
 11 10  2  0
 13 12  1  0
 14 13  2  0
 15 13  1  0
 17 16  1  6
 16 15  1  0
 17 18  1  0
 19 17  1  0
 20 19  2  0
 21 19  1  0
 22 25  1  0
 22 21  1  0
 23 24  1  0
 22 23  1  1
 25 26  1  0
 27 25  2  0
M  END
$$$$
