RQC.pdb
     RDKit          3D

 27 26  0  0  1  0  0  0  0  0999 V2000
    9.7320  -13.5273   17.8887 N   0  0  0  0  0  0  0  0  0  0  0  0
    8.7756  -13.7281   16.8584 C   0  0  0  0  0  0  0  0  0  0  0  0
    9.1454  -13.7768   15.6321 N   0  0  0  0  0  0  0  0  0  0  0  0
    7.3987  -13.8734   17.2269 N   0  0  0  0  0  0  0  0  0  0  0  0
    7.0402  -13.9421   18.6452 C   0  0  0  0  0  0  0  0  0  0  0  0
    7.4801  -15.2408   19.2361 C   0  0  0  0  0  0  0  0  0  0  0  0
    6.9374  -15.5780   20.5708 C   0  0  0  0  0  0  0  0  0  0  0  0
    7.2932  -16.9062   21.1366 C   0  0  2  0  0  0  0  0  0  0  0  0
    6.5271  -17.9829   20.5895 N   0  0  0  0  0  0  0  0  0  0  0  0
    7.3166  -16.9144   22.6243 C   0  0  0  0  0  0  0  0  0  0  0  0
    6.2158  -17.0289   23.2317 O   0  0  0  0  0  0  0  0  0  0  0  0
    8.4309  -13.9466   14.8944 N   0  0  0  0  0  0  0  0  0  0  0  0
   10.9624  -19.2853   26.7978 C   0  0  0  0  0  0  0  0  0  0  0  0
   10.4033  -18.1835   27.4795 O   0  0  0  0  0  0  0  0  0  0  0  0
   10.1648  -18.3099   28.7068 C   0  0  0  0  0  0  0  0  0  0  0  0
   10.0967  -16.8841   26.7624 C   0  0  0  0  0  0  0  0  0  0  0  0
    9.6973  -17.1823   25.3692 C   0  0  1  0  0  0  0  0  0  0  0  0
    8.4430  -16.5647   24.8598 N   0  0  0  0  0  0  0  0  0  0  0  0
    8.4874  -16.8030   23.3925 C   0  0  0  0  0  0  0  0  0  0  0  0
    8.2737  -15.1312   25.1185 O   0  0  0  0  0  0  0  0  0  0  0  0
    9.0388  -14.2652   24.5568 N   0  0  0  0  0  0  0  0  0  0  0  0
    7.2897  -14.5865   25.9734 C   0  0  1  0  0  0  0  0  0  0  0  0
    7.2464  -13.1443   26.2297 C   0  0  0  0  0  0  0  0  0  0  0  0
    5.8568  -12.7101   26.6373 S   0  0  0  0  0  0  0  0  0  0  0  0
    5.7646  -11.0084   27.1877 C   0  0  0  0  0  0  0  0  0  0  0  0
    8.1371  -12.8421   27.3682 O   0  0  0  0  0  0  0  0  0  0  0  0
    8.6489  -11.5754   27.6022 O   0  0  0  0  0  0  0  0  0  0  0  0
  1  2  1  0
  2  3  2  0
  4  2  1  0
  5  4  1  0
  6  5  1  0
  7  6  1  0
  8  7  1  0
  8  9  1  1
 10  8  1  0
 10 18  1  0
 11 10  2  0
 13 12  1  0
 14 13  2  0
 15 13  1  0
 17 16  1  1
 16 15  1  0
 17 18  1  0
 19 17  1  0
 20 19  2  0
 21 19  1  0
 22 25  1  0
 22 21  1  0
 23 24  1  0
 22 23  1  1
 25 26  1  0
 27 25  2  0
M  END
$$$$
