PPE.pdb
     RDKit          3D

 24 25  0  0  1  0  0  0  0  0999 V2000
    8.6166  -14.0029   20.9275 N   0  0  0  0  0  0  0  0  0  0  0  0
    7.9282  -14.7861   19.9527 C   0  0  0  0  0  0  0  0  0  0  0  0
    6.5840  -15.1452   20.4882 C   0  0  0  0  0  0  0  0  0  0  0  0
    6.5039  -14.5576   21.8554 C   0  0  0  0  0  0  0  0  0  0  0  0
    7.7580  -13.7530   22.0236 C   0  0  1  0  0  0  0  0  0  0  0  0
    8.3178  -14.0009   23.3637 C   0  0  0  0  0  0  0  0  0  0  0  0
    9.5072  -14.4800   23.3864 O   0  0  0  0  0  0  0  0  0  0  0  0
    7.6920  -13.7704   24.5995 N   0  0  0  0  0  0  0  0  0  0  0  0
    6.3478  -13.3226   24.7895 C   0  0  0  0  0  0  0  0  0  0  0  0
    6.3121  -12.7989   26.1854 C   0  0  0  0  0  0  0  0  0  0  0  0
    7.7319  -12.8164   26.6957 C   0  0  0  0  0  0  0  0  0  0  0  0
    8.3119  -13.9521   25.8781 C   0  0  1  0  0  0  0  0  0  0  0  0
    7.9849  -15.2530   26.5105 C   0  0  0  0  0  0  0  0  0  0  0  0
    6.8994  -15.7944   26.1856 O   0  0  0  0  0  0  0  0  0  0  0  0
    8.7978  -15.9314   27.4499 N   0  0  0  0  0  0  0  0  0  0  0  0
    9.6438  -17.0717   27.0920 C   0  0  1  0  0  0  0  0  0  0  0  0
   10.5903  -16.7298   25.9938 C   0  0  0  0  0  0  0  0  0  0  0  0
   11.5150  -17.8651   25.6724 C   0  0  0  0  0  0  0  0  0  0  0  0
   12.2040  -17.6794   24.3968 C   0  0  0  0  0  0  0  0  0  0  0  0
   13.4772  -17.5781   24.4310 O   0  0  0  0  0  0  0  0  0  0  0  0
   10.3656  -17.4619   28.3188 C   0  0  0  0  0  0  0  0  0  0  0  0
   10.6936  -18.8088   28.5747 O   0  0  0  0  0  0  0  0  0  0  0  0
   11.6380  -17.5973   23.1413 O   0  0  0  0  0  0  0  0  0  0  0  0
   10.7431  -16.6639   29.2189 O   0  0  0  0  0  0  0  0  0  0  0  0
  1  2  1  0
  3  2  1  0
  4  5  1  0
  4  3  1  0
  5  6  1  1
  5  1  1  0
  6  7  2  0
  8 12  1  0
  8  6  1  0
  9  8  1  0
 10  9  1  0
 10 11  1  0
 11 12  1  0
 12 13  1  1
 13 15  1  0
 13 14  2  0
 15 16  1  0
 16 21  1  0
 16 17  1  6
 18 17  1  0
 19 20  2  0
 19 18  1  0
 21 24  2  0
 21 22  1  0
 23 19  1  0
M  END
$$$$
