PPE.pdb
     RDKit          3D

 24 25  0  0  1  0  0  0  0  0999 V2000
    7.0087  -14.9904   22.1332 N   0  0  0  0  0  0  0  0  0  0  0  0
    6.2679  -14.4518   21.0384 C   0  0  0  0  0  0  0  0  0  0  0  0
    7.0893  -13.3993   20.3750 C   0  0  0  0  0  0  0  0  0  0  0  0
    8.3622  -13.3100   21.1449 C   0  0  0  0  0  0  0  0  0  0  0  0
    8.3006  -14.4147   22.1570 C   0  0  1  0  0  0  0  0  0  0  0  0
    8.7672  -13.9069   23.4590 C   0  0  0  0  0  0  0  0  0  0  0  0
   10.0210  -13.6480   23.5348 O   0  0  0  0  0  0  0  0  0  0  0  0
    7.9919  -13.6814   24.6079 N   0  0  0  0  0  0  0  0  0  0  0  0
    6.5762  -13.8504   24.7121 C   0  0  0  0  0  0  0  0  0  0  0  0
    6.1851  -13.0693   25.9208 C   0  0  0  0  0  0  0  0  0  0  0  0
    7.4145  -12.3226   26.3760 C   0  0  0  0  0  0  0  0  0  0  0  0
    8.5069  -13.2424   25.8705 C   0  0  1  0  0  0  0  0  0  0  0  0
    8.7260  -14.3491   26.8330 C   0  0  0  0  0  0  0  0  0  0  0  0
    8.9934  -14.0359   28.0193 O   0  0  0  0  0  0  0  0  0  0  0  0
    8.6581  -15.7280   26.5207 N   0  0  0  0  0  0  0  0  0  0  0  0
    8.9766  -16.7790   27.4894 C   0  0  1  0  0  0  0  0  0  0  0  0
    7.8095  -17.6713   27.7350 C   0  0  0  0  0  0  0  0  0  0  0  0
    7.3591  -18.3675   26.4861 C   0  0  0  0  0  0  0  0  0  0  0  0
    6.8668  -19.7187   26.7473 C   0  0  0  0  0  0  0  0  0  0  0  0
    6.8815  -20.1206   27.9601 O   0  0  0  0  0  0  0  0  0  0  0  0
   10.1184  -17.5314   26.9342 C   0  0  0  0  0  0  0  0  0  0  0  0
   10.5542  -17.3230   25.6098 O   0  0  0  0  0  0  0  0  0  0  0  0
    6.3821  -20.6274   25.8293 O   0  0  0  0  0  0  0  0  0  0  0  0
   10.7867  -18.3966   27.5621 O   0  0  0  0  0  0  0  0  0  0  0  0
  1  2  1  0
  3  2  1  0
  4  5  1  0
  4  3  1  0
  5  6  1  1
  5  1  1  0
  6  7  2  0
  8 12  1  0
  8  6  1  0
  9  8  1  0
 10  9  1  0
 10 11  1  0
 11 12  1  0
 12 13  1  1
 13 15  1  0
 13 14  2  0
 15 16  1  0
 16 21  1  0
 16 17  1  6
 18 17  1  0
 19 20  2  0
 19 18  1  0
 21 24  2  0
 21 22  1  0
 23 19  1  0
M  END
$$$$
