PPE.pdb
     RDKit          3D

 24 25  0  0  1  0  0  0  0  0999 V2000
    8.3657  -14.2104   21.1905 N   0  0  0  0  0  0  0  0  0  0  0  0
    7.7894  -15.2538   20.4050 C   0  0  0  0  0  0  0  0  0  0  0  0
    6.6216  -15.8184   21.1400 C   0  0  0  0  0  0  0  0  0  0  0  0
    6.5362  -15.0764   22.4296 C   0  0  0  0  0  0  0  0  0  0  0  0
    7.5794  -14.0024   22.3479 C   0  0  1  0  0  0  0  0  0  0  0  0
    8.3049  -13.9317   23.6282 C   0  0  0  0  0  0  0  0  0  0  0  0
    9.5729  -14.1093   23.5561 O   0  0  0  0  0  0  0  0  0  0  0  0
    7.7586  -13.6941   24.8999 N   0  0  0  0  0  0  0  0  0  0  0  0
    6.3669  -13.5921   25.2102 C   0  0  0  0  0  0  0  0  0  0  0  0
    6.3183  -12.8963   26.5284 C   0  0  0  0  0  0  0  0  0  0  0  0
    7.7283  -12.4648   26.8476 C   0  0  0  0  0  0  0  0  0  0  0  0
    8.5217  -13.5160   26.0990 C   0  0  1  0  0  0  0  0  0  0  0  0
    8.6299  -14.7491   26.9157 C   0  0  0  0  0  0  0  0  0  0  0  0
    7.5622  -15.3434   27.2052 O   0  0  0  0  0  0  0  0  0  0  0  0
    9.8391  -15.3079   27.3942 N   0  0  0  0  0  0  0  0  0  0  0  0
    9.9481  -16.6953   27.8497 C   0  0  1  0  0  0  0  0  0  0  0  0
   10.8735  -17.4845   26.9899 C   0  0  0  0  0  0  0  0  0  0  0  0
   12.1038  -16.7094   26.6255 C   0  0  0  0  0  0  0  0  0  0  0  0
   12.9464  -17.4193   25.6651 C   0  0  0  0  0  0  0  0  0  0  0  0
   12.5295  -18.5535   25.2500 O   0  0  0  0  0  0  0  0  0  0  0  0
   10.4265  -16.6440   29.2450 C   0  0  0  0  0  0  0  0  0  0  0  0
   10.6883  -15.4136   29.8813 O   0  0  0  0  0  0  0  0  0  0  0  0
   14.1565  -17.0081   25.1455 O   0  0  0  0  0  0  0  0  0  0  0  0
   10.6387  -17.6513   29.9729 O   0  0  0  0  0  0  0  0  0  0  0  0
  1  2  1  0
  3  2  1  0
  4  5  1  0
  4  3  1  0
  5  6  1  1
  5  1  1  0
  6  7  2  0
  8 12  1  0
  8  6  1  0
  9  8  1  0
 10  9  1  0
 10 11  1  0
 11 12  1  0
 12 13  1  1
 13 15  1  0
 13 14  2  0
 15 16  1  0
 16 21  1  0
 16 17  1  6
 18 17  1  0
 19 20  2  0
 19 18  1  0
 21 24  2  0
 21 22  1  0
 23 19  1  0
M  END
$$$$
