PPE.pdb
     RDKit          3D

 24 25  0  0  1  0  0  0  0  0999 V2000
    6.0014  -18.2045   18.4676 N   0  0  0  0  0  0  0  0  0  0  0  0
    5.0777  -19.1950   18.9186 C   0  0  0  0  0  0  0  0  0  0  0  0
    4.5091  -18.7604   20.2264 C   0  0  0  0  0  0  0  0  0  0  0  0
    5.1592  -17.4611   20.5581 C   0  0  0  0  0  0  0  0  0  0  0  0
    5.9907  -17.1081   19.3613 C   0  0  1  0  0  0  0  0  0  0  0  0
    7.3050  -16.6170   19.8109 C   0  0  0  0  0  0  0  0  0  0  0  0
    8.3123  -17.3251   19.4525 O   0  0  0  0  0  0  0  0  0  0  0  0
    7.5636  -15.4711   20.5803 N   0  0  0  0  0  0  0  0  0  0  0  0
    6.5834  -14.6494   21.2186 C   0  0  0  0  0  0  0  0  0  0  0  0
    7.2831  -13.3613   21.4930 C   0  0  0  0  0  0  0  0  0  0  0  0
    8.6330  -13.4456   20.8245 C   0  0  0  0  0  0  0  0  0  0  0  0
    8.8674  -14.9421   20.8491 C   0  0  1  0  0  0  0  0  0  0  0  0
    9.4072  -15.3508   22.1686 C   0  0  0  0  0  0  0  0  0  0  0  0
    8.5999  -15.4064   23.1287 O   0  0  0  0  0  0  0  0  0  0  0  0
   10.7581  -15.6822   22.4308 N   0  0  0  0  0  0  0  0  0  0  0  0
   11.1657  -16.5237   23.5577 C   0  0  1  0  0  0  0  0  0  0  0  0
   11.5668  -17.8861   23.1088 C   0  0  0  0  0  0  0  0  0  0  0  0
   10.8251  -18.9628   23.8421 C   0  0  0  0  0  0  0  0  0  0  0  0
   11.1395  -20.2987   23.3392 C   0  0  0  0  0  0  0  0  0  0  0  0
   12.1500  -20.4075   22.5648 O   0  0  0  0  0  0  0  0  0  0  0  0
   12.2855  -15.8269   24.2201 C   0  0  0  0  0  0  0  0  0  0  0  0
   12.6995  -16.1831   25.5197 O   0  0  0  0  0  0  0  0  0  0  0  0
   10.4668  -21.4742   23.6018 O   0  0  0  0  0  0  0  0  0  0  0  0
   12.9526  -14.8860   23.7109 O   0  0  0  0  0  0  0  0  0  0  0  0
  1  2  1  0
  3  2  1  0
  4  5  1  0
  4  3  1  0
  5  6  1  1
  5  1  1  0
  6  7  2  0
  8 12  1  0
  8  6  1  0
  9  8  1  0
 10  9  1  0
 10 11  1  0
 11 12  1  0
 12 13  1  1
 13 15  1  0
 13 14  2  0
 15 16  1  0
 16 21  1  0
 16 17  1  6
 18 17  1  0
 19 20  2  0
 19 18  1  0
 21 24  2  0
 21 22  1  0
 23 19  1  0
M  END
$$$$
