PPE.pdb
     RDKit          3D

 24 25  0  0  1  0  0  0  0  0999 V2000
    8.1193  -14.0171   20.9378 N   0  0  0  0  0  0  0  0  0  0  0  0
    7.4262  -14.9398   20.0977 C   0  0  0  0  0  0  0  0  0  0  0  0
    6.2464  -15.4704   20.8387 C   0  0  0  0  0  0  0  0  0  0  0  0
    6.2760  -14.8374   22.1875 C   0  0  0  0  0  0  0  0  0  0  0  0
    7.4011  -13.8470   22.1446 C   0  0  1  0  0  0  0  0  0  0  0  0
    8.1817  -13.9446   23.3903 C   0  0  0  0  0  0  0  0  0  0  0  0
    9.4167  -14.2585   23.2462 O   0  0  0  0  0  0  0  0  0  0  0  0
    7.7189  -13.7330   24.6992 N   0  0  0  0  0  0  0  0  0  0  0  0
    6.3676  -13.4613   25.0784 C   0  0  0  0  0  0  0  0  0  0  0  0
    6.4644  -12.8710   26.4445 C   0  0  0  0  0  0  0  0  0  0  0  0
    7.9318  -12.6682   26.7306 C   0  0  0  0  0  0  0  0  0  0  0  0
    8.5402  -13.7584   25.8725 C   0  0  1  0  0  0  0  0  0  0  0  0
    8.4982  -15.0547   26.5917 C   0  0  0  0  0  0  0  0  0  0  0  0
    7.3673  -15.5523   26.8158 O   0  0  0  0  0  0  0  0  0  0  0  0
    9.6299  -15.7738   27.0450 N   0  0  0  0  0  0  0  0  0  0  0  0
    9.6481  -17.2329   27.1667 C   0  0  1  0  0  0  0  0  0  0  0  0
   10.5139  -17.8598   26.1294 C   0  0  0  0  0  0  0  0  0  0  0  0
   11.9475  -17.4430   26.2642 C   0  0  0  0  0  0  0  0  0  0  0  0
   12.7932  -18.0056   25.2132 C   0  0  0  0  0  0  0  0  0  0  0  0
   13.8081  -18.6877   25.5838 O   0  0  0  0  0  0  0  0  0  0  0  0
   10.1363  -17.5360   28.5261 C   0  0  0  0  0  0  0  0  0  0  0  0
   10.1921  -18.8617   29.0022 O   0  0  0  0  0  0  0  0  0  0  0  0
   12.6273  -17.8867   23.8488 O   0  0  0  0  0  0  0  0  0  0  0  0
   10.5340  -16.6767   29.3585 O   0  0  0  0  0  0  0  0  0  0  0  0
  1  2  1  0
  3  2  1  0
  4  5  1  0
  4  3  1  0
  5  6  1  1
  5  1  1  0
  6  7  2  0
  8 12  1  0
  8  6  1  0
  9  8  1  0
 10  9  1  0
 10 11  1  0
 11 12  1  0
 12 13  1  1
 13 15  1  0
 13 14  2  0
 15 16  1  0
 16 21  1  0
 16 17  1  6
 18 17  1  0
 19 20  2  0
 19 18  1  0
 21 24  2  0
 21 22  1  0
 23 19  1  0
M  END
$$$$
