PPE.pdb
     RDKit          3D

 24 25  0  0  1  0  0  0  0  0999 V2000
    8.3831  -14.2609   21.0430 N   0  0  0  0  0  0  0  0  0  0  0  0
    7.6992  -15.2231   20.2404 C   0  0  0  0  0  0  0  0  0  0  0  0
    6.5136  -15.7212   20.9946 C   0  0  0  0  0  0  0  0  0  0  0  0
    6.5299  -15.0262   22.3127 C   0  0  0  0  0  0  0  0  0  0  0  0
    7.6536  -14.0365   22.2340 C   0  0  1  0  0  0  0  0  0  0  0  0
    8.4230  -14.0746   23.4900 C   0  0  0  0  0  0  0  0  0  0  0  0
    9.6670  -14.3614   23.3682 O   0  0  0  0  0  0  0  0  0  0  0  0
    7.9410  -13.8332   24.7867 N   0  0  0  0  0  0  0  0  0  0  0  0
    6.5739  -13.6260   25.1493 C   0  0  0  0  0  0  0  0  0  0  0  0
    6.6276  -12.9712   26.4881 C   0  0  0  0  0  0  0  0  0  0  0  0
    8.0788  -12.6688   26.7693 C   0  0  0  0  0  0  0  0  0  0  0  0
    8.7557  -13.7577   25.9625 C   0  0  1  0  0  0  0  0  0  0  0  0
    8.7867  -15.0211   26.7385 C   0  0  0  0  0  0  0  0  0  0  0  0
    7.6932  -15.6100   26.9237 O   0  0  0  0  0  0  0  0  0  0  0  0
    9.9493  -15.6143   27.2863 N   0  0  0  0  0  0  0  0  0  0  0  0
   10.0402  -17.0414   27.6016 C   0  0  1  0  0  0  0  0  0  0  0  0
   11.2525  -17.6610   26.9975 C   0  0  0  0  0  0  0  0  0  0  0  0
   11.2574  -17.5499   25.5025 C   0  0  0  0  0  0  0  0  0  0  0  0
   12.4614  -18.1232   24.9044 C   0  0  0  0  0  0  0  0  0  0  0  0
   12.5560  -18.0829   23.6308 O   0  0  0  0  0  0  0  0  0  0  0  0
   10.0620  -17.1468   29.0736 C   0  0  0  0  0  0  0  0  0  0  0  0
   10.0516  -15.9957   29.8873 O   0  0  0  0  0  0  0  0  0  0  0  0
   13.5240  -18.7129   25.5576 O   0  0  0  0  0  0  0  0  0  0  0  0
   10.0908  -18.2292   29.7194 O   0  0  0  0  0  0  0  0  0  0  0  0
  1  2  1  0
  3  2  1  0
  4  5  1  0
  4  3  1  0
  5  6  1  1
  5  1  1  0
  6  7  2  0
  8 12  1  0
  8  6  1  0
  9  8  1  0
 10  9  1  0
 10 11  1  0
 11 12  1  0
 12 13  1  1
 13 15  1  0
 13 14  2  0
 15 16  1  0
 16 21  1  0
 16 17  1  6
 18 17  1  0
 19 20  2  0
 19 18  1  0
 21 24  2  0
 21 22  1  0
 23 19  1  0
M  END
$$$$
