QSP.pdb
     RDKit          3D

 23 23  0  0  1  0  0  0  0  0999 V2000
    8.4893  -12.7850   17.1361 N   0  0  0  0  0  0  0  0  0  0  0  0
    7.7349  -13.9604   17.3709 C   0  0  0  0  0  0  0  0  0  0  0  0
    7.3151  -14.6027   16.3774 O   0  0  0  0  0  0  0  0  0  0  0  0
    7.4219  -14.4611   18.7139 C   0  0  0  0  0  0  0  0  0  0  0  0
    7.9675  -13.5840   19.8094 C   0  0  0  0  0  0  0  0  0  0  0  0
    8.8403  -14.4522   20.6894 C   0  0  2  0  0  0  0  0  0  0  0  0
    8.8984  -15.7725   20.0911 N   0  0  0  0  0  0  0  0  0  0  0  0
    8.3411  -14.5114   22.0913 C   0  0  0  0  0  0  0  0  0  0  0  0
    8.1926  -13.4534   22.7557 O   0  0  0  0  0  0  0  0  0  0  0  0
    6.5617  -17.2113   25.7739 O   0  0  0  0  0  0  0  0  0  0  0  0
    7.0319  -17.1550   24.4602 C   0  0  0  0  0  0  0  0  0  0  0  0
    7.6232  -15.7935   24.1435 C   0  0  2  0  0  0  0  0  0  0  0  0
    8.0129  -15.7346   22.7403 N   0  0  0  0  0  0  0  0  0  0  0  0
    8.7446  -15.5282   25.0422 C   0  0  0  0  0  0  0  0  0  0  0  0
    9.8514  -16.1282   24.8373 O   0  0  0  0  0  0  0  0  0  0  0  0
    8.5881  -14.6180   26.1153 N   0  0  0  0  0  0  0  0  0  0  0  0
    7.4891  -13.7281   26.3898 C   0  0  0  0  0  0  0  0  0  0  0  0
    8.2289  -12.5008   26.9507 C   0  0  0  0  0  0  0  0  0  0  0  0
    9.1728  -13.2033   27.9310 C   0  0  0  0  0  0  0  0  0  0  0  0
    9.5762  -14.4271   27.1399 C   0  0  1  0  0  0  0  0  0  0  0  0
    9.6303  -15.5626   28.0892 C   0  0  0  0  0  0  0  0  0  0  0  0
   10.4969  -15.5473   28.9892 O   0  0  0  0  0  0  0  0  0  0  0  0
    8.7590  -16.6279   28.0093 O   0  0  0  0  0  0  0  0  0  0  0  0
  1  2  1  0
  2  3  2  0
  4  5  1  0
  4  2  1  0
  6  8  1  0
  6  5  1  0
  6  7  1  6
  8 13  1  0
  9  8  2  0
 10 11  1  0
 12 11  1  1
 12 14  1  0
 13 12  1  0
 14 15  2  0
 14 16  1  0
 16 20  1  0
 16 17  1  0
 17 18  1  0
 19 18  1  0
 20 21  1  1
 20 19  1  0
 21 23  1  0
 22 21  2  0
M  END
$$$$
