QSP.pdb
     RDKit          3D

 23 23  0  0  1  0  0  0  0  0999 V2000
    9.9516  -12.7616   19.6607 N   0  0  0  0  0  0  0  0  0  0  0  0
    9.5762  -13.3225   18.4155 C   0  0  0  0  0  0  0  0  0  0  0  0
   10.4285  -13.3420   17.4941 O   0  0  0  0  0  0  0  0  0  0  0  0
    8.2448  -13.8794   18.1522 C   0  0  0  0  0  0  0  0  0  0  0  0
    7.3691  -13.9115   19.3767 C   0  0  0  0  0  0  0  0  0  0  0  0
    7.7328  -15.1550   20.1587 C   0  0  2  0  0  0  0  0  0  0  0  0
    7.3589  -16.3062   19.3591 N   0  0  0  0  0  0  0  0  0  0  0  0
    7.0807  -15.1870   21.4972 C   0  0  0  0  0  0  0  0  0  0  0  0
    5.8364  -15.3475   21.5916 O   0  0  0  0  0  0  0  0  0  0  0  0
    7.4487  -17.3597   24.7562 O   0  0  0  0  0  0  0  0  0  0  0  0
    6.5283  -16.4473   24.2361 C   0  0  0  0  0  0  0  0  0  0  0  0
    7.1635  -15.0863   24.0179 C   0  0  2  0  0  0  0  0  0  0  0  0
    7.8083  -15.0419   22.7115 N   0  0  0  0  0  0  0  0  0  0  0  0
    8.0963  -14.8035   25.1067 C   0  0  0  0  0  0  0  0  0  0  0  0
    9.3023  -15.2057   25.0025 O   0  0  0  0  0  0  0  0  0  0  0  0
    7.6527  -14.0941   26.2489 N   0  0  0  0  0  0  0  0  0  0  0  0
    6.3072  -13.7462   26.6278 C   0  0  0  0  0  0  0  0  0  0  0  0
    6.5203  -12.3550   27.2503 C   0  0  0  0  0  0  0  0  0  0  0  0
    7.7278  -12.6612   28.1413 C   0  0  0  0  0  0  0  0  0  0  0  0
    8.5414  -13.5703   27.2481 C   0  0  1  0  0  0  0  0  0  0  0  0
    9.1107  -14.6327   28.1086 C   0  0  0  0  0  0  0  0  0  0  0  0
    8.6243  -15.7816   28.0392 O   0  0  0  0  0  0  0  0  0  0  0  0
   10.1539  -14.3929   28.9774 O   0  0  0  0  0  0  0  0  0  0  0  0
  1  2  1  0
  2  3  2  0
  4  5  1  0
  4  2  1  0
  6  8  1  0
  6  5  1  0
  6  7  1  6
  8 13  1  0
  9  8  2  0
 10 11  1  0
 12 11  1  1
 12 14  1  0
 13 12  1  0
 14 15  2  0
 14 16  1  0
 16 20  1  0
 16 17  1  0
 17 18  1  0
 19 18  1  0
 20 21  1  1
 20 19  1  0
 21 23  1  0
 22 21  2  0
M  END
$$$$
