QSP.pdb
     RDKit          3D

 23 23  0  0  1  0  0  0  0  0999 V2000
    8.0586  -12.2273   18.4811 N   0  0  0  0  0  0  0  0  0  0  0  0
    8.2233  -13.6088   18.2160 C   0  0  0  0  0  0  0  0  0  0  0  0
    8.8587  -13.9423   17.1860 O   0  0  0  0  0  0  0  0  0  0  0  0
    7.6892  -14.6643   19.0837 C   0  0  0  0  0  0  0  0  0  0  0  0
    8.7660  -15.5049   19.7169 C   0  0  0  0  0  0  0  0  0  0  0  0
    8.0805  -16.5306   20.5932 C   0  0  2  0  0  0  0  0  0  0  0  0
    6.9476  -17.0571   19.8557 N   0  0  0  0  0  0  0  0  0  0  0  0
    7.6595  -15.9588   21.9023 C   0  0  0  0  0  0  0  0  0  0  0  0
    6.6279  -15.2425   21.9779 O   0  0  0  0  0  0  0  0  0  0  0  0
    7.3056  -17.9214   25.1427 O   0  0  0  0  0  0  0  0  0  0  0  0
    6.8170  -16.6318   24.9228 C   0  0  0  0  0  0  0  0  0  0  0  0
    7.9051  -15.7107   24.4021 C   0  0  2  0  0  0  0  0  0  0  0  0
    8.3806  -16.1841   23.1082 N   0  0  0  0  0  0  0  0  0  0  0  0
    8.9795  -15.6193   25.3884 C   0  0  0  0  0  0  0  0  0  0  0  0
   10.0383  -16.3079   25.2091 O   0  0  0  0  0  0  0  0  0  0  0  0
    8.8317  -14.7763   26.5162 N   0  0  0  0  0  0  0  0  0  0  0  0
    7.6676  -14.0471   26.9503 C   0  0  0  0  0  0  0  0  0  0  0  0
    8.3062  -12.7550   27.4897 C   0  0  0  0  0  0  0  0  0  0  0  0
    9.4346  -13.3637   28.3275 C   0  0  0  0  0  0  0  0  0  0  0  0
    9.8967  -14.4955   27.4378 C   0  0  1  0  0  0  0  0  0  0  0  0
   10.1987  -15.6476   28.3180 C   0  0  0  0  0  0  0  0  0  0  0  0
    9.4370  -16.6376   28.2877 O   0  0  0  0  0  0  0  0  0  0  0  0
   11.2876  -15.6596   29.1634 O   0  0  0  0  0  0  0  0  0  0  0  0
  1  2  1  0
  2  3  2  0
  4  5  1  0
  4  2  1  0
  6  8  1  0
  6  5  1  0
  6  7  1  6
  8 13  1  0
  9  8  2  0
 10 11  1  0
 12 11  1  1
 12 14  1  0
 13 12  1  0
 14 15  2  0
 14 16  1  0
 16 20  1  0
 16 17  1  0
 17 18  1  0
 19 18  1  0
 20 21  1  1
 20 19  1  0
 21 23  1  0
 22 21  2  0
M  END
$$$$
