QSP.pdb
     RDKit          3D

 23 23  0  0  1  0  0  0  0  0999 V2000
    9.1313  -12.7490   18.0856 N   0  0  0  0  0  0  0  0  0  0  0  0
    8.4380  -13.9334   17.7354 C   0  0  0  0  0  0  0  0  0  0  0  0
    8.5917  -14.3883   16.5756 O   0  0  0  0  0  0  0  0  0  0  0  0
    7.5525  -14.6507   18.6593 C   0  0  0  0  0  0  0  0  0  0  0  0
    7.4853  -14.0136   20.0219 C   0  0  0  0  0  0  0  0  0  0  0  0
    8.3940  -14.8066   20.9358 C   0  0  2  0  0  0  0  0  0  0  0  0
    8.3843  -16.1848   20.4831 N   0  0  0  0  0  0  0  0  0  0  0  0
    7.9854  -14.7000   22.3640 C   0  0  0  0  0  0  0  0  0  0  0  0
    7.7638  -13.5727   22.8767 O   0  0  0  0  0  0  0  0  0  0  0  0
    7.3824  -18.0887   25.0118 O   0  0  0  0  0  0  0  0  0  0  0  0
    6.7020  -16.8726   25.1030 C   0  0  0  0  0  0  0  0  0  0  0  0
    7.5697  -15.7184   24.6358 C   0  0  2  0  0  0  0  0  0  0  0  0
    7.8268  -15.8362   23.2060 N   0  0  0  0  0  0  0  0  0  0  0  0
    8.8023  -15.6866   25.4203 C   0  0  0  0  0  0  0  0  0  0  0  0
    9.8135  -16.3423   25.0024 O   0  0  0  0  0  0  0  0  0  0  0  0
    8.8558  -14.9358   26.6193 N   0  0  0  0  0  0  0  0  0  0  0  0
    7.8054  -14.1895   27.2635 C   0  0  0  0  0  0  0  0  0  0  0  0
    8.5862  -12.9808   27.8088 C   0  0  0  0  0  0  0  0  0  0  0  0
    9.7768  -13.7130   28.4350 C   0  0  0  0  0  0  0  0  0  0  0  0
   10.0483  -14.7868   27.4057 C   0  0  1  0  0  0  0  0  0  0  0  0
   10.3940  -16.0228   28.1447 C   0  0  0  0  0  0  0  0  0  0  0  0
    9.5857  -16.9754   28.1257 O   0  0  0  0  0  0  0  0  0  0  0  0
   11.5729  -16.1519   28.8477 O   0  0  0  0  0  0  0  0  0  0  0  0
  1  2  1  0
  2  3  2  0
  4  5  1  0
  4  2  1  0
  6  8  1  0
  6  5  1  0
  6  7  1  6
  8 13  1  0
  9  8  2  0
 10 11  1  0
 12 11  1  1
 12 14  1  0
 13 12  1  0
 14 15  2  0
 14 16  1  0
 16 20  1  0
 16 17  1  0
 17 18  1  0
 19 18  1  0
 20 21  1  1
 20 19  1  0
 21 23  1  0
 22 21  2  0
M  END
$$$$
