QSP.pdb
     RDKit          3D

 23 23  0  0  1  0  0  0  0  0999 V2000
    8.8845  -20.9588   16.1513 N   0  0  0  0  0  0  0  0  0  0  0  0
    8.1669  -20.1689   15.2201 C   0  0  0  0  0  0  0  0  0  0  0  0
    7.1581  -20.6734   14.6691 O   0  0  0  0  0  0  0  0  0  0  0  0
    8.5446  -18.7951   14.8702 C   0  0  0  0  0  0  0  0  0  0  0  0
    7.4848  -17.7862   15.2252 C   0  0  0  0  0  0  0  0  0  0  0  0
    8.0149  -16.4216   14.8422 C   0  0  2  0  0  0  0  0  0  0  0  0
    8.8988  -16.5930   13.7048 N   0  0  0  0  0  0  0  0  0  0  0  0
    8.7104  -15.7513   15.9758 C   0  0  0  0  0  0  0  0  0  0  0  0
    9.9651  -15.7886   16.0599 O   0  0  0  0  0  0  0  0  0  0  0  0
    7.2439  -12.4453   18.1056 O   0  0  0  0  0  0  0  0  0  0  0  0
    7.7196  -13.5140   18.8682 C   0  0  0  0  0  0  0  0  0  0  0  0
    8.7045  -14.3586   18.0809 C   0  0  2  0  0  0  0  0  0  0  0  0
    8.0138  -15.0500   16.9996 N   0  0  0  0  0  0  0  0  0  0  0  0
    9.3853  -15.2832   18.9849 C   0  0  0  0  0  0  0  0  0  0  0  0
    8.9962  -16.4972   19.0294 O   0  0  0  0  0  0  0  0  0  0  0  0
   10.4559  -14.8232   19.7890 N   0  0  0  0  0  0  0  0  0  0  0  0
   11.0930  -13.5312   19.7891 C   0  0  0  0  0  0  0  0  0  0  0  0
   12.5588  -13.9186   20.0529 C   0  0  0  0  0  0  0  0  0  0  0  0
   12.3546  -14.8967   21.2137 C   0  0  0  0  0  0  0  0  0  0  0  0
   11.1143  -15.6392   20.7705 C   0  0  1  0  0  0  0  0  0  0  0  0
   10.2803  -15.8547   21.9752 C   0  0  0  0  0  0  0  0  0  0  0  0
    9.2084  -15.2212   22.0801 O   0  0  0  0  0  0  0  0  0  0  0  0
   10.6494  -16.7272   22.9767 O   0  0  0  0  0  0  0  0  0  0  0  0
  1  2  1  0
  2  3  2  0
  4  5  1  0
  4  2  1  0
  6  8  1  0
  6  5  1  0
  6  7  1  6
  8 13  1  0
  9  8  2  0
 10 11  1  0
 12 11  1  1
 12 14  1  0
 13 12  1  0
 14 15  2  0
 14 16  1  0
 16 20  1  0
 16 17  1  0
 17 18  1  0
 19 18  1  0
 20 21  1  1
 20 19  1  0
 21 23  1  0
 22 21  2  0
M  END
$$$$
