QSP.pdb
     RDKit          3D

 23 23  0  0  1  0  0  0  0  0999 V2000
    7.5716  -12.4466   17.9346 N   0  0  0  0  0  0  0  0  0  0  0  0
    8.1509  -13.6882   17.5756 C   0  0  0  0  0  0  0  0  0  0  0  0
    8.2730  -13.9535   16.3547 O   0  0  0  0  0  0  0  0  0  0  0  0
    8.6130  -14.6748   18.5581 C   0  0  0  0  0  0  0  0  0  0  0  0
    8.3440  -14.2583   19.9798 C   0  0  0  0  0  0  0  0  0  0  0  0
    8.9514  -15.3114   20.8808 C   0  0  2  0  0  0  0  0  0  0  0  0
    8.3643  -16.5897   20.5265 N   0  0  0  0  0  0  0  0  0  0  0  0
    8.7489  -15.0006   22.3232 C   0  0  0  0  0  0  0  0  0  0  0  0
    9.1090  -13.8882   22.7878 O   0  0  0  0  0  0  0  0  0  0  0  0
    7.1852  -17.8292   25.1288 O   0  0  0  0  0  0  0  0  0  0  0  0
    6.8288  -16.4808   25.1991 C   0  0  0  0  0  0  0  0  0  0  0  0
    7.9204  -15.5912   24.6331 C   0  0  2  0  0  0  0  0  0  0  0  0
    8.1529  -15.9191   23.2321 N   0  0  0  0  0  0  0  0  0  0  0  0
    9.1293  -15.7280   25.4427 C   0  0  0  0  0  0  0  0  0  0  0  0
   10.0636  -16.4908   25.0277 O   0  0  0  0  0  0  0  0  0  0  0  0
    9.2450  -15.0187   26.6625 N   0  0  0  0  0  0  0  0  0  0  0  0
    8.3487  -14.0417   27.2259 C   0  0  0  0  0  0  0  0  0  0  0  0
    9.3418  -13.0627   27.8768 C   0  0  0  0  0  0  0  0  0  0  0  0
   10.2516  -14.0664   28.5912 C   0  0  0  0  0  0  0  0  0  0  0  0
   10.3546  -15.1691   27.5618 C   0  0  1  0  0  0  0  0  0  0  0  0
   10.3159  -16.4556   28.2944 C   0  0  0  0  0  0  0  0  0  0  0  0
    9.2902  -17.1634   28.2036 O   0  0  0  0  0  0  0  0  0  0  0  0
   11.3705  -16.8916   29.0678 O   0  0  0  0  0  0  0  0  0  0  0  0
  1  2  1  0
  2  3  2  0
  4  5  1  0
  4  2  1  0
  6  8  1  0
  6  5  1  0
  6  7  1  6
  8 13  1  0
  9  8  2  0
 10 11  1  0
 12 11  1  1
 12 14  1  0
 13 12  1  0
 14 15  2  0
 14 16  1  0
 16 20  1  0
 16 17  1  0
 17 18  1  0
 19 18  1  0
 20 21  1  1
 20 19  1  0
 21 23  1  0
 22 21  2  0
M  END
$$$$
