QSP.pdb
     RDKit          3D

 23 23  0  0  1  0  0  0  0  0999 V2000
    7.8717  -12.8579   17.9698 N   0  0  0  0  0  0  0  0  0  0  0  0
    7.9871  -14.2117   17.5701 C   0  0  0  0  0  0  0  0  0  0  0  0
    7.1986  -14.6388   16.6917 O   0  0  0  0  0  0  0  0  0  0  0  0
    8.9798  -15.1348   18.1311 C   0  0  0  0  0  0  0  0  0  0  0  0
    9.9221  -14.4673   19.0975 C   0  0  0  0  0  0  0  0  0  0  0  0
   10.0853  -15.3951   20.2817 C   0  0  2  0  0  0  0  0  0  0  0  0
    9.5594  -16.6930   19.9034 N   0  0  0  0  0  0  0  0  0  0  0  0
    9.4131  -14.8704   21.5027 C   0  0  0  0  0  0  0  0  0  0  0  0
    9.6127  -13.6855   21.8756 O   0  0  0  0  0  0  0  0  0  0  0  0
    6.9160  -17.2936   23.9736 O   0  0  0  0  0  0  0  0  0  0  0  0
    6.6492  -15.9317   23.8179 C   0  0  0  0  0  0  0  0  0  0  0  0
    7.9157  -15.1523   23.5150 C   0  0  2  0  0  0  0  0  0  0  0  0
    8.5313  -15.6581   22.2945 N   0  0  0  0  0  0  0  0  0  0  0  0
    8.8182  -15.2240   24.6622 C   0  0  0  0  0  0  0  0  0  0  0  0
    9.8187  -16.0134   24.6084 O   0  0  0  0  0  0  0  0  0  0  0  0
    8.5720  -14.4240   25.8041 N   0  0  0  0  0  0  0  0  0  0  0  0
    7.5101  -13.4770   26.0296 C   0  0  0  0  0  0  0  0  0  0  0  0
    8.2451  -12.3855   26.8274 C   0  0  0  0  0  0  0  0  0  0  0  0
    8.9849  -13.2681   27.8371 C   0  0  0  0  0  0  0  0  0  0  0  0
    9.4117  -14.4302   26.9691 C   0  0  1  0  0  0  0  0  0  0  0  0
    9.2474  -15.6613   27.7757 C   0  0  0  0  0  0  0  0  0  0  0  0
    8.3244  -16.4499   27.4798 O   0  0  0  0  0  0  0  0  0  0  0  0
   10.0768  -15.9604   28.8355 O   0  0  0  0  0  0  0  0  0  0  0  0
  1  2  1  0
  2  3  2  0
  4  5  1  0
  4  2  1  0
  6  8  1  0
  6  5  1  0
  6  7  1  6
  8 13  1  0
  9  8  2  0
 10 11  1  0
 12 11  1  1
 12 14  1  0
 13 12  1  0
 14 15  2  0
 14 16  1  0
 16 20  1  0
 16 17  1  0
 17 18  1  0
 19 18  1  0
 20 21  1  1
 20 19  1  0
 21 23  1  0
 22 21  2  0
M  END
$$$$
