QSP.pdb
     RDKit          3D

 23 23  0  0  1  0  0  0  0  0999 V2000
    8.8243  -13.3592   21.6942 N   0  0  0  0  0  0  0  0  0  0  0  0
    7.6217  -13.7632   21.0645 C   0  0  0  0  0  0  0  0  0  0  0  0
    6.8315  -14.4937   21.7108 O   0  0  0  0  0  0  0  0  0  0  0  0
    7.2569  -13.3704   19.6989 C   0  0  0  0  0  0  0  0  0  0  0  0
    8.2796  -12.4740   19.0527 C   0  0  0  0  0  0  0  0  0  0  0  0
    8.9386  -13.2670   17.9451 C   0  0  2  0  0  0  0  0  0  0  0  0
    7.8882  -13.8708   17.1473 N   0  0  0  0  0  0  0  0  0  0  0  0
    9.8794  -14.2937   18.4731 C   0  0  0  0  0  0  0  0  0  0  0  0
    9.5107  -15.4911   18.5876 O   0  0  0  0  0  0  0  0  0  0  0  0
   14.4065  -15.7766   18.9327 O   0  0  0  0  0  0  0  0  0  0  0  0
   13.5436  -14.6891   18.7816 C   0  0  0  0  0  0  0  0  0  0  0  0
   12.1539  -15.0112   19.2996 C   0  0  2  0  0  0  0  0  0  0  0  0
   11.2119  -13.9865   18.8671 N   0  0  0  0  0  0  0  0  0  0  0  0
   12.1954  -15.1480   20.7539 C   0  0  0  0  0  0  0  0  0  0  0  0
   12.1718  -14.0935   21.4712 O   0  0  0  0  0  0  0  0  0  0  0  0
   12.2598  -16.4354   21.3395 N   0  0  0  0  0  0  0  0  0  0  0  0
   12.1944  -17.7228   20.6963 C   0  0  0  0  0  0  0  0  0  0  0  0
   11.3992  -18.5366   21.7324 C   0  0  0  0  0  0  0  0  0  0  0  0
   12.1500  -18.1269   23.0029 C   0  0  0  0  0  0  0  0  0  0  0  0
   12.3894  -16.6551   22.7528 C   0  0  1  0  0  0  0  0  0  0  0  0
   13.7495  -16.3433   23.2491 C   0  0  0  0  0  0  0  0  0  0  0  0
   14.6798  -16.2475   22.4205 O   0  0  0  0  0  0  0  0  0  0  0  0
   14.0170  -16.1570   24.5886 O   0  0  0  0  0  0  0  0  0  0  0  0
  1  2  1  0
  2  3  2  0
  4  5  1  0
  4  2  1  0
  6  8  1  0
  6  5  1  0
  6  7  1  1
  8 13  1  0
  9  8  2  0
 10 11  1  0
 12 11  1  1
 12 14  1  0
 13 12  1  0
 14 15  2  0
 14 16  1  0
 16 20  1  0
 16 17  1  0
 17 18  1  0
 19 18  1  0
 20 21  1  6
 20 19  1  0
 21 23  1  0
 22 21  2  0
M  END
$$$$
