QSP.pdb
     RDKit          3D

 23 23  0  0  1  0  0  0  0  0999 V2000
    7.8842  -12.7684   17.3201 N   0  0  0  0  0  0  0  0  0  0  0  0
    8.7574  -13.8563   17.0753 C   0  0  0  0  0  0  0  0  0  0  0  0
    9.1248  -14.0661   15.8934 O   0  0  0  0  0  0  0  0  0  0  0  0
    9.2508  -14.7460   18.1323 C   0  0  0  0  0  0  0  0  0  0  0  0
    8.7554  -14.3623   19.5014 C   0  0  0  0  0  0  0  0  0  0  0  0
    8.4651  -15.6441   20.2514 C   0  0  2  0  0  0  0  0  0  0  0  0
    7.7987  -16.5515   19.3365 N   0  0  0  0  0  0  0  0  0  0  0  0
    7.6480  -15.4065   21.4737 C   0  0  0  0  0  0  0  0  0  0  0  0
    6.5756  -14.7528   21.4012 O   0  0  0  0  0  0  0  0  0  0  0  0
    7.4833  -17.7993   24.8397 O   0  0  0  0  0  0  0  0  0  0  0  0
    6.5698  -16.8037   24.4871 C   0  0  0  0  0  0  0  0  0  0  0  0
    7.2765  -15.5661   23.9652 C   0  0  2  0  0  0  0  0  0  0  0  0
    8.0242  -15.8923   22.7573 N   0  0  0  0  0  0  0  0  0  0  0  0
    8.1309  -15.0139   25.0143 C   0  0  0  0  0  0  0  0  0  0  0  0
    9.3774  -15.2844   24.9972 O   0  0  0  0  0  0  0  0  0  0  0  0
    7.5689  -14.1949   26.0231 N   0  0  0  0  0  0  0  0  0  0  0  0
    6.2033  -13.7629   26.1769 C   0  0  0  0  0  0  0  0  0  0  0  0
    6.3986  -12.3345   26.7152 C   0  0  0  0  0  0  0  0  0  0  0  0
    7.4519  -12.6138   27.7914 C   0  0  0  0  0  0  0  0  0  0  0  0
    8.3347  -13.6260   27.0967 C   0  0  1  0  0  0  0  0  0  0  0  0
    8.7222  -14.6352   28.1089 C   0  0  0  0  0  0  0  0  0  0  0  0
    8.2268  -15.7797   28.0307 O   0  0  0  0  0  0  0  0  0  0  0  0
    9.6069  -14.3509   29.1272 O   0  0  0  0  0  0  0  0  0  0  0  0
  1  2  1  0
  2  3  2  0
  4  5  1  0
  4  2  1  0
  6  8  1  0
  6  5  1  0
  6  7  1  6
  8 13  1  0
  9  8  2  0
 10 11  1  0
 12 11  1  1
 12 14  1  0
 13 12  1  0
 14 15  2  0
 14 16  1  0
 16 20  1  0
 16 17  1  0
 17 18  1  0
 19 18  1  0
 20 21  1  1
 20 19  1  0
 21 23  1  0
 22 21  2  0
M  END
$$$$
