LQC.pdb
     RDKit          3D

 24 23  0  0  1  0  0  0  0  0999 V2000
    9.5542  -13.2693   19.6670 C   0  0  0  0  0  0  0  0  0  0  0  0
    8.1117  -13.5193   19.2914 C   0  0  2  0  0  0  0  0  0  0  0  0
    7.3618  -12.2330   19.1012 C   0  0  0  0  0  0  0  0  0  0  0  0
    7.4489  -14.4159   20.3409 C   0  0  0  0  0  0  0  0  0  0  0  0
    8.4222  -15.5307   20.6238 C   0  0  2  0  0  0  0  0  0  0  0  0
    8.0749  -16.6484   19.7645 N   0  0  0  0  0  0  0  0  0  0  0  0
    8.3981  -15.9828   22.0265 C   0  0  0  0  0  0  0  0  0  0  0  0
    7.3840  -16.5868   22.4990 O   0  0  0  0  0  0  0  0  0  0  0  0
   11.5020  -19.9082   25.0594 N   0  0  0  0  0  0  0  0  0  0  0  0
   11.7459  -19.1516   23.8692 C   0  0  0  0  0  0  0  0  0  0  0  0
   12.7942  -19.4435   23.2331 O   0  0  0  0  0  0  0  0  0  0  0  0
   10.8105  -18.0852   23.4180 C   0  0  0  0  0  0  0  0  0  0  0  0
   10.3654  -17.3287   24.6290 C   0  0  0  0  0  0  0  0  0  0  0  0
    9.4380  -16.1860   24.3217 C   0  0  2  0  0  0  0  0  0  0  0  0
    9.4697  -15.7889   22.9401 N   0  0  0  0  0  0  0  0  0  0  0  0
    9.5823  -15.0552   25.2529 C   0  0  0  0  0  0  0  0  0  0  0  0
   10.5372  -14.2677   25.0880 O   0  0  0  0  0  0  0  0  0  0  0  0
    8.6926  -14.8278   26.3149 N   0  0  0  0  0  0  0  0  0  0  0  0
    8.8769  -13.7483   27.2717 C   0  0  1  0  0  0  0  0  0  0  0  0
    7.5317  -13.1714   27.7021 C   0  0  0  0  0  0  0  0  0  0  0  0
    6.4460  -12.9285   26.2943 S   0  0  0  0  0  0  0  0  0  0  0  0
    9.5931  -14.2277   28.4838 C   0  0  0  0  0  0  0  0  0  0  0  0
    9.8130  -15.4471   28.5969 O   0  0  0  0  0  0  0  0  0  0  0  0
    9.9985  -13.3300   29.4522 O   0  0  0  0  0  0  0  0  0  0  0  0
  2  1  1  1
  2  3  1  0
  4  2  1  0
  4  5  1  0
  5  7  1  0
  5  6  1  6
  7  8  2  0
  9 10  1  0
 10 11  2  0
 10 12  1  0
 12 13  1  0
 14 13  1  6
 15 14  1  0
 15  7  1  0
 16 17  2  0
 16 14  1  0
 18 16  1  0
 19 18  1  0
 19 20  1  1
 21 20  1  0
 22 19  1  0
 22 24  1  0
 23 22  2  0
M  END
$$$$
