LQC.pdb
     RDKit          3D

 24 23  0  0  1  0  0  0  0  0999 V2000
    8.8379  -12.5916   18.5275 C   0  0  0  0  0  0  0  0  0  0  0  0
    7.7426  -13.4432   19.1272 C   0  0  2  0  0  0  0  0  0  0  0  0
    6.7838  -12.6176   19.9349 C   0  0  0  0  0  0  0  0  0  0  0  0
    8.3579  -14.5750   19.9547 C   0  0  0  0  0  0  0  0  0  0  0  0
    9.2701  -15.3337   19.0258 C   0  0  2  0  0  0  0  0  0  0  0  0
    8.4385  -16.0165   18.0509 N   0  0  0  0  0  0  0  0  0  0  0  0
   10.1082  -16.3293   19.7177 C   0  0  0  0  0  0  0  0  0  0  0  0
    9.6193  -17.4381   20.1024 O   0  0  0  0  0  0  0  0  0  0  0  0
   14.7033  -20.0909   18.3127 N   0  0  0  0  0  0  0  0  0  0  0  0
   14.8610  -18.6830   18.5167 C   0  0  0  0  0  0  0  0  0  0  0  0
   16.0476  -18.2623   18.5783 O   0  0  0  0  0  0  0  0  0  0  0  0
   13.6865  -17.7779   18.6470 C   0  0  0  0  0  0  0  0  0  0  0  0
   13.6900  -17.2258   20.0371 C   0  0  0  0  0  0  0  0  0  0  0  0
   12.3211  -17.1199   20.6496 C   0  0  2  0  0  0  0  0  0  0  0  0
   11.4878  -16.1418   20.0044 N   0  0  0  0  0  0  0  0  0  0  0  0
   12.3505  -16.9800   22.1146 C   0  0  0  0  0  0  0  0  0  0  0  0
   12.8587  -15.9494   22.6032 O   0  0  0  0  0  0  0  0  0  0  0  0
   11.8318  -17.9554   22.9811 N   0  0  0  0  0  0  0  0  0  0  0  0
   11.8827  -17.8222   24.4283 C   0  0  1  0  0  0  0  0  0  0  0  0
   10.7562  -18.6147   25.0845 C   0  0  0  0  0  0  0  0  0  0  0  0
    9.1528  -18.1116   24.4552 S   0  0  0  0  0  0  0  0  0  0  0  0
   13.1796  -18.3164   24.9633 C   0  0  0  0  0  0  0  0  0  0  0  0
   13.9980  -18.8098   24.1666 O   0  0  0  0  0  0  0  0  0  0  0  0
   13.4551  -18.2234   26.3135 O   0  0  0  0  0  0  0  0  0  0  0  0
  2  1  1  1
  2  3  1  0
  4  2  1  0
  4  5  1  0
  5  7  1  0
  5  6  1  6
  7  8  2  0
  9 10  1  0
 10 11  2  0
 10 12  1  0
 12 13  1  0
 14 13  1  6
 15 14  1  0
 15  7  1  0
 16 17  2  0
 16 14  1  0
 18 16  1  0
 19 18  1  0
 19 20  1  1
 21 20  1  0
 22 19  1  0
 22 24  1  0
 23 22  2  0
M  END
$$$$
