LQC.pdb
     RDKit          3D

 24 23  0  0  1  0  0  0  0  0999 V2000
    7.4198  -12.1567   19.2482 C   0  0  0  0  0  0  0  0  0  0  0  0
    7.7910  -13.5590   18.8237 C   0  0  2  0  0  0  0  0  0  0  0  0
    7.1847  -13.9107   17.4963 C   0  0  0  0  0  0  0  0  0  0  0  0
    7.3915  -14.5558   19.9152 C   0  0  0  0  0  0  0  0  0  0  0  0
    8.0193  -14.0619   21.1927 C   0  0  2  0  0  0  0  0  0  0  0  0
    9.1355  -13.2055   20.8336 N   0  0  0  0  0  0  0  0  0  0  0  0
    8.5119  -15.1490   22.0576 C   0  0  0  0  0  0  0  0  0  0  0  0
    7.7451  -16.1004   22.4088 O   0  0  0  0  0  0  0  0  0  0  0  0
   13.3332  -18.8161   22.0603 N   0  0  0  0  0  0  0  0  0  0  0  0
   12.5198  -18.1432   21.0939 C   0  0  0  0  0  0  0  0  0  0  0  0
   12.8908  -18.2420   19.8934 O   0  0  0  0  0  0  0  0  0  0  0  0
   11.3091  -17.3748   21.4935 C   0  0  0  0  0  0  0  0  0  0  0  0
   11.4377  -17.0476   22.9473 C   0  0  0  0  0  0  0  0  0  0  0  0
   10.3023  -16.2212   23.4842 C   0  0  2  0  0  0  0  0  0  0  0  0
    9.8410  -15.2246   22.5561 N   0  0  0  0  0  0  0  0  0  0  0  0
   10.5619  -15.6837   24.8298 C   0  0  0  0  0  0  0  0  0  0  0  0
   11.5710  -16.0855   25.4458 O   0  0  0  0  0  0  0  0  0  0  0  0
    9.7234  -14.7410   25.4456 N   0  0  0  0  0  0  0  0  0  0  0  0
    9.9053  -14.3153   26.8242 C   0  0  1  0  0  0  0  0  0  0  0  0
    9.0636  -13.0788   27.1242 C   0  0  0  0  0  0  0  0  0  0  0  0
    7.3502  -13.3262   26.6520 S   0  0  0  0  0  0  0  0  0  0  0  0
    9.5123  -15.3933   27.7706 C   0  0  0  0  0  0  0  0  0  0  0  0
    8.8723  -16.3641   27.3279 O   0  0  0  0  0  0  0  0  0  0  0  0
    9.8563  -15.3057   29.1055 O   0  0  0  0  0  0  0  0  0  0  0  0
  2  1  1  1
  2  3  1  0
  4  2  1  0
  4  5  1  0
  5  7  1  0
  5  6  1  6
  7  8  2  0
  9 10  1  0
 10 11  2  0
 10 12  1  0
 12 13  1  0
 14 13  1  6
 15 14  1  0
 15  7  1  0
 16 17  2  0
 16 14  1  0
 18 16  1  0
 19 18  1  0
 19 20  1  1
 21 20  1  0
 22 19  1  0
 22 24  1  0
 23 22  2  0
M  END
$$$$
