LQC.pdb
     RDKit          3D

 24 23  0  0  1  0  0  0  0  0999 V2000
    9.3008  -13.1624   19.4654 C   0  0  0  0  0  0  0  0  0  0  0  0
    7.8175  -13.4437   19.5359 C   0  0  2  0  0  0  0  0  0  0  0  0
    7.0117  -12.1843   19.4018 C   0  0  0  0  0  0  0  0  0  0  0  0
    7.4912  -14.1943   20.8300 C   0  0  0  0  0  0  0  0  0  0  0  0
    8.4465  -15.3574   20.8994 C   0  0  2  0  0  0  0  0  0  0  0  0
    7.8615  -16.4543   20.1492 N   0  0  0  0  0  0  0  0  0  0  0  0
    8.7128  -15.8107   22.2764 C   0  0  0  0  0  0  0  0  0  0  0  0
    7.7569  -16.0529   23.0789 O   0  0  0  0  0  0  0  0  0  0  0  0
   13.7782  -19.0003   23.7099 N   0  0  0  0  0  0  0  0  0  0  0  0
   12.6083  -19.0104   22.8855 C   0  0  0  0  0  0  0  0  0  0  0  0
   12.7801  -19.3556   21.6855 O   0  0  0  0  0  0  0  0  0  0  0  0
   11.2724  -18.6339   23.4233 C   0  0  0  0  0  0  0  0  0  0  0  0
   11.4452  -17.3952   24.2436 C   0  0  0  0  0  0  0  0  0  0  0  0
   10.2863  -16.4419   24.1515 C   0  0  2  0  0  0  0  0  0  0  0  0
   10.0165  -16.0092   22.8072 N   0  0  0  0  0  0  0  0  0  0  0  0
   10.3726  -15.3296   25.1118 C   0  0  0  0  0  0  0  0  0  0  0  0
   11.1503  -14.3858   24.8597 O   0  0  0  0  0  0  0  0  0  0  0  0
    9.6182  -15.2877   26.2951 N   0  0  0  0  0  0  0  0  0  0  0  0
    9.8747  -14.3226   27.3521 C   0  0  1  0  0  0  0  0  0  0  0  0
    8.6704  -13.4079   27.5535 C   0  0  0  0  0  0  0  0  0  0  0  0
    7.1706  -14.1535   26.9099 S   0  0  0  0  0  0  0  0  0  0  0  0
   10.1660  -15.0079   28.6397 C   0  0  0  0  0  0  0  0  0  0  0  0
   10.0198  -16.2421   28.6986 O   0  0  0  0  0  0  0  0  0  0  0  0
   10.5875  -14.2795   29.7349 O   0  0  0  0  0  0  0  0  0  0  0  0
  2  1  1  1
  2  3  1  0
  4  2  1  0
  4  5  1  0
  5  7  1  0
  5  6  1  6
  7  8  2  0
  9 10  1  0
 10 11  2  0
 10 12  1  0
 12 13  1  0
 14 13  1  6
 15 14  1  0
 15  7  1  0
 16 17  2  0
 16 14  1  0
 18 16  1  0
 19 18  1  0
 19 20  1  1
 21 20  1  0
 22 19  1  0
 22 24  1  0
 23 22  2  0
M  END
$$$$
