LQC.pdb
     RDKit          3D

 24 23  0  0  1  0  0  0  0  0999 V2000
    6.2350  -12.2618   26.2905 C   0  0  0  0  0  0  0  0  0  0  0  0
    7.0643  -13.0181   25.2781 C   0  0  2  0  0  0  0  0  0  0  0  0
    7.6586  -12.0952   24.2542 C   0  0  0  0  0  0  0  0  0  0  0  0
    6.2189  -14.1188   24.6313 C   0  0  0  0  0  0  0  0  0  0  0  0
    7.1284  -14.8479   23.6766 C   0  0  2  0  0  0  0  0  0  0  0  0
    6.3097  -15.7569   22.8945 N   0  0  0  0  0  0  0  0  0  0  0  0
    8.1845  -15.6211   24.3543 C   0  0  0  0  0  0  0  0  0  0  0  0
    7.9024  -16.4107   25.3100 O   0  0  0  0  0  0  0  0  0  0  0  0
   13.6546  -17.9184   21.9741 N   0  0  0  0  0  0  0  0  0  0  0  0
   12.3636  -17.5840   21.4546 C   0  0  0  0  0  0  0  0  0  0  0  0
   12.2847  -17.4664   20.2021 O   0  0  0  0  0  0  0  0  0  0  0  0
   11.1899  -17.3889   22.3491 C   0  0  0  0  0  0  0  0  0  0  0  0
   11.6767  -16.7301   23.6005 C   0  0  0  0  0  0  0  0  0  0  0  0
   10.5808  -16.3956   24.5739 C   0  0  2  0  0  0  0  0  0  0  0  0
    9.5618  -15.5529   24.0093 N   0  0  0  0  0  0  0  0  0  0  0  0
   11.0838  -15.9083   25.8687 C   0  0  0  0  0  0  0  0  0  0  0  0
   11.9577  -15.0163   25.8691 O   0  0  0  0  0  0  0  0  0  0  0  0
   10.6221  -16.4045   27.0981 N   0  0  0  0  0  0  0  0  0  0  0  0
   11.3534  -16.2176   28.3410 C   0  0  1  0  0  0  0  0  0  0  0  0
   10.6815  -15.1589   29.2102 C   0  0  0  0  0  0  0  0  0  0  0  0
   10.3447  -13.6652   28.2748 S   0  0  0  0  0  0  0  0  0  0  0  0
   11.4230  -17.4865   29.1139 C   0  0  0  0  0  0  0  0  0  0  0  0
   10.8057  -18.4764   28.6816 O   0  0  0  0  0  0  0  0  0  0  0  0
   12.1588  -17.5498   30.2811 O   0  0  0  0  0  0  0  0  0  0  0  0
  2  1  1  1
  2  3  1  0
  4  2  1  0
  4  5  1  0
  5  7  1  0
  5  6  1  1
  7  8  2  0
  9 10  1  0
 10 11  2  0
 10 12  1  0
 12 13  1  0
 14 13  1  6
 15 14  1  0
 15  7  1  0
 16 17  2  0
 16 14  1  0
 18 16  1  0
 19 18  1  0
 19 20  1  1
 21 20  1  0
 22 19  1  0
 22 24  1  0
 23 22  2  0
M  END
$$$$
