LQC.pdb
     RDKit          3D

 24 23  0  0  1  0  0  0  0  0999 V2000
    9.4288  -14.2534   20.1080 C   0  0  0  0  0  0  0  0  0  0  0  0
    8.1540  -14.1219   19.3067 C   0  0  2  0  0  0  0  0  0  0  0  0
    7.9706  -12.7246   18.7899 C   0  0  0  0  0  0  0  0  0  0  0  0
    6.9604  -14.5794   20.1496 C   0  0  0  0  0  0  0  0  0  0  0  0
    7.3959  -15.8365   20.8569 C   0  0  2  0  0  0  0  0  0  0  0  0
    6.7847  -16.9620   20.1729 N   0  0  0  0  0  0  0  0  0  0  0  0
    7.0028  -15.8715   22.2770 C   0  0  0  0  0  0  0  0  0  0  0  0
    5.7972  -15.6661   22.6245 O   0  0  0  0  0  0  0  0  0  0  0  0
    6.9450  -20.1915   26.3418 N   0  0  0  0  0  0  0  0  0  0  0  0
    7.5756  -19.9493   25.0800 C   0  0  0  0  0  0  0  0  0  0  0  0
    8.2824  -20.8888   24.6254 O   0  0  0  0  0  0  0  0  0  0  0  0
    7.4008  -18.6608   24.3557 C   0  0  0  0  0  0  0  0  0  0  0  0
    7.6625  -17.5540   25.3272 C   0  0  0  0  0  0  0  0  0  0  0  0
    7.5300  -16.1807   24.7300 C   0  0  2  0  0  0  0  0  0  0  0  0
    7.9068  -16.1291   23.3433 N   0  0  0  0  0  0  0  0  0  0  0  0
    8.1660  -15.1309   25.5425 C   0  0  0  0  0  0  0  0  0  0  0  0
    9.3571  -14.8380   25.3084 O   0  0  0  0  0  0  0  0  0  0  0  0
    7.4896  -14.4487   26.5662 N   0  0  0  0  0  0  0  0  0  0  0  0
    8.1287  -13.4268   27.3798 C   0  0  1  0  0  0  0  0  0  0  0  0
    7.0967  -12.6793   28.2187 C   0  0  0  0  0  0  0  0  0  0  0  0
    5.6336  -12.2885   27.2562 S   0  0  0  0  0  0  0  0  0  0  0  0
    9.1344  -14.0277   28.2962 C   0  0  0  0  0  0  0  0  0  0  0  0
    9.2554  -15.2659   28.3107 O   0  0  0  0  0  0  0  0  0  0  0  0
    9.9080  -13.2189   29.1056 O   0  0  0  0  0  0  0  0  0  0  0  0
  2  1  1  1
  2  3  1  0
  4  2  1  0
  4  5  1  0
  5  7  1  0
  5  6  1  6
  7  8  2  0
  9 10  1  0
 10 11  2  0
 10 12  1  0
 12 13  1  0
 14 13  1  1
 15 14  1  0
 15  7  1  0
 16 17  2  0
 16 14  1  0
 18 16  1  0
 19 18  1  0
 19 20  1  1
 21 20  1  0
 22 19  1  0
 22 24  1  0
 23 22  2  0
M  END
$$$$
