LQC.pdb
     RDKit          3D

 24 23  0  0  1  0  0  0  0  0999 V2000
    8.6167  -11.8785   19.4380 C   0  0  0  0  0  0  0  0  0  0  0  0
    8.2489  -13.1377   18.6872 C   0  0  2  0  0  0  0  0  0  0  0  0
    7.0291  -12.9345   17.8363 C   0  0  0  0  0  0  0  0  0  0  0  0
    8.0707  -14.2969   19.6716 C   0  0  0  0  0  0  0  0  0  0  0  0
    9.2750  -14.2751   20.5768 C   0  0  2  0  0  0  0  0  0  0  0  0
   10.4564  -14.1845   19.7375 N   0  0  0  0  0  0  0  0  0  0  0  0
    9.3858  -15.4737   21.4274 C   0  0  0  0  0  0  0  0  0  0  0  0
    8.3593  -15.9713   21.9888 O   0  0  0  0  0  0  0  0  0  0  0  0
   13.5104  -20.1416   21.0941 N   0  0  0  0  0  0  0  0  0  0  0  0
   13.1849  -19.0633   20.2111 C   0  0  0  0  0  0  0  0  0  0  0  0
   13.7738  -19.0637   19.0967 O   0  0  0  0  0  0  0  0  0  0  0  0
   12.2073  -18.0087   20.5958 C   0  0  0  0  0  0  0  0  0  0  0  0
   11.7192  -18.3224   21.9744 C   0  0  0  0  0  0  0  0  0  0  0  0
   10.7242  -17.3279   22.5049 C   0  0  2  0  0  0  0  0  0  0  0  0
   10.6078  -16.1530   21.6844 N   0  0  0  0  0  0  0  0  0  0  0  0
   10.9150  -17.0214   23.9319 C   0  0  0  0  0  0  0  0  0  0  0  0
   11.5950  -16.0200   24.2389 O   0  0  0  0  0  0  0  0  0  0  0  0
   10.3652  -17.8068   24.9575 N   0  0  0  0  0  0  0  0  0  0  0  0
   10.2410  -17.3307   26.3259 C   0  0  1  0  0  0  0  0  0  0  0  0
    8.8989  -16.6368   26.5377 C   0  0  0  0  0  0  0  0  0  0  0  0
    8.9739  -14.9105   26.0541 S   0  0  0  0  0  0  0  0  0  0  0  0
   10.3471  -18.4558   27.2928 C   0  0  0  0  0  0  0  0  0  0  0  0
   10.3426  -19.6184   26.8496 O   0  0  0  0  0  0  0  0  0  0  0  0
   10.4476  -18.2016   28.6467 O   0  0  0  0  0  0  0  0  0  0  0  0
  2  1  1  1
  2  3  1  0
  4  2  1  0
  4  5  1  0
  5  7  1  0
  5  6  1  6
  7  8  2  0
  9 10  1  0
 10 11  2  0
 10 12  1  0
 12 13  1  0
 14 13  1  6
 15 14  1  0
 15  7  1  0
 16 17  2  0
 16 14  1  0
 18 16  1  0
 19 18  1  0
 19 20  1  6
 21 20  1  0
 22 19  1  0
 22 24  1  0
 23 22  2  0
M  END
$$$$
