LQC.pdb
     RDKit          3D

 24 23  0  0  1  0  0  0  0  0999 V2000
    9.6283  -13.3326   19.4180 C   0  0  0  0  0  0  0  0  0  0  0  0
    8.1213  -13.4434   19.4516 C   0  0  2  0  0  0  0  0  0  0  0  0
    7.4665  -12.1123   19.2221 C   0  0  0  0  0  0  0  0  0  0  0  0
    7.6757  -14.0778   20.7720 C   0  0  0  0  0  0  0  0  0  0  0  0
    8.3627  -15.4163   20.8540 C   0  0  2  0  0  0  0  0  0  0  0  0
    7.5850  -16.3602   20.0714 N   0  0  0  0  0  0  0  0  0  0  0  0
    8.4834  -15.9254   22.2319 C   0  0  0  0  0  0  0  0  0  0  0  0
    7.4494  -16.2205   22.9103 O   0  0  0  0  0  0  0  0  0  0  0  0
   12.4172  -19.9237   24.5481 N   0  0  0  0  0  0  0  0  0  0  0  0
   11.3363  -20.0325   23.6163 C   0  0  0  0  0  0  0  0  0  0  0  0
   11.2790  -21.1060   22.9581 O   0  0  0  0  0  0  0  0  0  0  0  0
   10.3437  -18.9370   23.4425 C   0  0  0  0  0  0  0  0  0  0  0  0
   10.7357  -17.8192   24.3558 C   0  0  0  0  0  0  0  0  0  0  0  0
    9.8508  -16.6089   24.2453 C   0  0  2  0  0  0  0  0  0  0  0  0
    9.7235  -16.1234   22.8978 N   0  0  0  0  0  0  0  0  0  0  0  0
   10.1902  -15.5520   25.2121 C   0  0  0  0  0  0  0  0  0  0  0  0
   11.2862  -14.9660   25.0916 O   0  0  0  0  0  0  0  0  0  0  0  0
    9.3340  -15.1781   26.2600 N   0  0  0  0  0  0  0  0  0  0  0  0
    9.7204  -14.2163   27.2800 C   0  0  1  0  0  0  0  0  0  0  0  0
    8.5578  -13.2873   27.6158 C   0  0  0  0  0  0  0  0  0  0  0  0
    7.8526  -12.5633   26.1332 S   0  0  0  0  0  0  0  0  0  0  0  0
   10.1478  -14.9054   28.5269 C   0  0  0  0  0  0  0  0  0  0  0  0
   10.0209  -16.1413   28.5924 O   0  0  0  0  0  0  0  0  0  0  0  0
   10.6711  -14.1783   29.5783 O   0  0  0  0  0  0  0  0  0  0  0  0
  2  1  1  1
  2  3  1  0
  4  2  1  0
  4  5  1  0
  5  7  1  0
  5  6  1  6
  7  8  2  0
  9 10  1  0
 10 11  2  0
 10 12  1  0
 12 13  1  0
 14 13  1  6
 15 14  1  0
 15  7  1  0
 16 17  2  0
 16 14  1  0
 18 16  1  0
 19 18  1  0
 19 20  1  1
 21 20  1  0
 22 19  1  0
 22 24  1  0
 23 22  2  0
M  END
$$$$
