LQC.pdb
     RDKit          3D

 24 23  0  0  1  0  0  0  0  0999 V2000
    6.9967  -12.2033   24.6153 C   0  0  0  0  0  0  0  0  0  0  0  0
    6.1296  -12.9278   25.6191 C   0  0  2  0  0  0  0  0  0  0  0  0
    5.8433  -12.0714   26.8182 C   0  0  0  0  0  0  0  0  0  0  0  0
    6.7845  -14.2555   26.0098 C   0  0  0  0  0  0  0  0  0  0  0  0
    6.5132  -15.2128   24.8783 C   0  0  2  0  0  0  0  0  0  0  0  0
    5.6595  -16.2701   25.3899 N   0  0  0  0  0  0  0  0  0  0  0  0
    7.7366  -15.8164   24.3203 C   0  0  0  0  0  0  0  0  0  0  0  0
    8.3159  -16.7808   24.9127 O   0  0  0  0  0  0  0  0  0  0  0  0
   12.6735  -14.3003   19.0841 N   0  0  0  0  0  0  0  0  0  0  0  0
   11.5797  -15.1004   19.5444 C   0  0  0  0  0  0  0  0  0  0  0  0
   10.7205  -15.4144   18.6773 O   0  0  0  0  0  0  0  0  0  0  0  0
   11.4725  -15.5309   20.9653 C   0  0  0  0  0  0  0  0  0  0  0  0
   10.1625  -15.0376   21.4922 C   0  0  0  0  0  0  0  0  0  0  0  0
    9.6462  -15.8256   22.6638 C   0  0  2  0  0  0  0  0  0  0  0  0
    8.3528  -15.3869   23.1135 N   0  0  0  0  0  0  0  0  0  0  0  0
   10.6263  -15.9525   23.7547 C   0  0  0  0  0  0  0  0  0  0  0  0
   11.2013  -14.9208   24.1600 O   0  0  0  0  0  0  0  0  0  0  0  0
   10.9392  -17.1824   24.3551 N   0  0  0  0  0  0  0  0  0  0  0  0
   12.0562  -17.3430   25.2723 C   0  0  1  0  0  0  0  0  0  0  0  0
   11.5589  -17.5444   26.7005 C   0  0  0  0  0  0  0  0  0  0  0  0
   10.0879  -18.5712   26.7400 S   0  0  0  0  0  0  0  0  0  0  0  0
   12.8909  -18.5147   24.8948 C   0  0  0  0  0  0  0  0  0  0  0  0
   12.4978  -19.2466   23.9686 O   0  0  0  0  0  0  0  0  0  0  0  0
   14.0712  -18.7719   25.5645 O   0  0  0  0  0  0  0  0  0  0  0  0
  2  1  1  6
  2  3  1  0
  4  2  1  0
  4  5  1  0
  5  7  1  0
  5  6  1  1
  7  8  2  0
  9 10  1  0
 10 11  2  0
 10 12  1  0
 12 13  1  0
 14 13  1  6
 15 14  1  0
 15  7  1  0
 16 17  2  0
 16 14  1  0
 18 16  1  0
 19 18  1  0
 19 20  1  1
 21 20  1  0
 22 19  1  0
 22 24  1  0
 23 22  2  0
M  END
$$$$
