MKK.pdb
     RDKit          3D

 27 26  0  0  1  0  0  0  0  0999 V2000
   31.0712  -22.6616  -18.6655 C   0  0  0  0  0  0  0  0  0  0  0  0
   29.3801  -22.7451  -18.0802 S   0  0  0  0  0  0  0  0  0  0  0  0
   28.5187  -24.2316  -18.6054 C   0  0  0  0  0  0  0  0  0  0  0  0
   27.0775  -24.2536  -18.1552 C   0  0  0  0  0  0  0  0  0  0  0  0
   26.9449  -24.0862  -16.6639 C   0  0  2  0  0  0  0  0  0  0  0  0
   27.5527  -25.1601  -15.9444 N   0  0  0  0  0  0  0  0  0  0  0  0
   25.5319  -23.8969  -16.2426 C   0  0  0  0  0  0  0  0  0  0  0  0
   24.8167  -23.0531  -16.8614 O   0  0  0  0  0  0  0  0  0  0  0  0
   24.9327  -24.6065  -15.1853 N   0  0  0  0  0  0  0  0  0  0  0  0
   23.5175  -24.4805  -14.8185 C   0  0  1  0  0  0  0  0  0  0  0  0
   23.1378  -25.5480  -13.8329 C   0  0  0  0  0  0  0  0  0  0  0  0
   21.6931  -25.4410  -13.4687 C   0  0  0  0  0  0  0  0  0  0  0  0
   21.2983  -26.5015  -12.4831 C   0  0  0  0  0  0  0  0  0  0  0  0
   19.8052  -26.4346  -12.2609 C   0  0  0  0  0  0  0  0  0  0  0  0
   19.4650  -27.4781  -11.3208 N   0  0  0  0  0  0  0  0  0  0  0  0
   23.2959  -23.0960  -14.3289 C   0  0  0  0  0  0  0  0  0  0  0  0
   23.8169  -22.6085  -13.2954 O   0  0  0  0  0  0  0  0  0  0  0  0
   22.4321  -22.1879  -15.0406 N   0  0  0  0  0  0  0  0  0  0  0  0
   22.2020  -20.8424  -14.5726 C   0  0  1  0  0  0  0  0  0  0  0  0
   21.5703  -19.9611  -15.6351 C   0  0  0  0  0  0  0  0  0  0  0  0
   21.3648  -18.5883  -15.0809 C   0  0  0  0  0  0  0  0  0  0  0  0
   20.6003  -17.7511  -16.0618 C   0  0  0  0  0  0  0  0  0  0  0  0
   20.3963  -16.3740  -15.5277 C   0  0  0  0  0  0  0  0  0  0  0  0
   19.6086  -15.5737  -16.4788 N   0  0  0  0  0  0  0  0  0  0  0  0
   21.3993  -20.8955  -13.3308 C   0  0  0  0  0  0  0  0  0  0  0  0
   20.3883  -21.6446  -13.2211 O   0  0  0  0  0  0  0  0  0  0  0  0
   21.7282  -20.1165  -12.2258 O   0  0  0  0  0  0  0  0  0  0  0  0
  1  2  1  0
  3  4  1  0
  3  2  1  0
  4  5  1  0
  5  6  1  1
  7  5  1  0
  7  8  2  0
  9  7  1  0
 10 11  1  1
 10  9  1  0
 12 13  1  0
 12 11  1  0
 13 14  1  0
 14 15  1  0
 16 10  1  0
 17 16  2  0
 18 16  1  0
 19 18  1  0
 19 20  1  6
 21 20  1  0
 21 22  1  0
 23 22  1  0
 23 24  1  0
 25 19  1  0
 25 27  1  0
 26 25  2  0
M  END
$$$$
