MKK.pdb
     RDKit          3D

 27 26  0  0  1  0  0  0  0  0999 V2000
   16.3505  -19.7630  -16.9408 C   0  0  0  0  0  0  0  0  0  0  0  0
   17.5452  -18.4853  -17.3275 S   0  0  0  0  0  0  0  0  0  0  0  0
   17.5447  -17.1310  -16.1470 C   0  0  0  0  0  0  0  0  0  0  0  0
   18.5537  -16.0623  -16.4936 C   0  0  0  0  0  0  0  0  0  0  0  0
   17.8992  -14.8113  -17.0191 C   0  0  2  0  0  0  0  0  0  0  0  0
   17.1025  -15.0651  -18.1773 N   0  0  0  0  0  0  0  0  0  0  0  0
   18.8836  -13.7279  -17.2783 C   0  0  0  0  0  0  0  0  0  0  0  0
   19.7501  -13.4636  -16.3919 O   0  0  0  0  0  0  0  0  0  0  0  0
   18.9121  -12.9685  -18.4628 N   0  0  0  0  0  0  0  0  0  0  0  0
   19.9700  -12.0049  -18.7874 C   0  0  1  0  0  0  0  0  0  0  0  0
   19.9913  -11.7326  -20.2641 C   0  0  0  0  0  0  0  0  0  0  0  0
   20.5534  -12.8992  -21.0084 C   0  0  0  0  0  0  0  0  0  0  0  0
   20.5214  -12.6681  -22.4908 C   0  0  0  0  0  0  0  0  0  0  0  0
   21.0159  -13.9115  -23.1929 C   0  0  0  0  0  0  0  0  0  0  0  0
   20.8799  -13.6838  -24.6135 N   0  0  0  0  0  0  0  0  0  0  0  0
   19.7575  -10.7967  -17.9505 C   0  0  0  0  0  0  0  0  0  0  0  0
   18.6455  -10.2476  -17.7524 O   0  0  0  0  0  0  0  0  0  0  0  0
   20.8621  -10.1523  -17.2856 N   0  0  0  0  0  0  0  0  0  0  0  0
   20.6634   -9.0089  -16.4281 C   0  0  1  0  0  0  0  0  0  0  0  0
   21.3679   -9.1595  -15.0917 C   0  0  0  0  0  0  0  0  0  0  0  0
   21.1334   -7.9345  -14.2681 C   0  0  0  0  0  0  0  0  0  0  0  0
   21.7609   -8.1002  -12.9167 C   0  0  0  0  0  0  0  0  0  0  0  0
   21.5046   -6.9001  -12.0698 C   0  0  0  0  0  0  0  0  0  0  0  0
   22.3922   -5.7975  -12.4726 N   0  0  0  0  0  0  0  0  0  0  0  0
   21.0780   -7.7867  -17.1517 C   0  0  0  0  0  0  0  0  0  0  0  0
   21.9622   -7.8125  -18.0533 O   0  0  0  0  0  0  0  0  0  0  0  0
   20.5064   -6.5507  -16.8660 O   0  0  0  0  0  0  0  0  0  0  0  0
  1  2  1  0
  3  4  1  0
  3  2  1  0
  4  5  1  0
  5  6  1  6
  7  5  1  0
  7  8  2  0
  9  7  1  0
 10 11  1  6
 10  9  1  0
 12 13  1  0
 12 11  1  0
 13 14  1  0
 14 15  1  0
 16 10  1  0
 17 16  2  0
 18 16  1  0
 19 18  1  0
 19 20  1  1
 21 20  1  0
 21 22  1  0
 23 22  1  0
 23 24  1  0
 25 19  1  0
 25 27  1  0
 26 25  2  0
M  END
$$$$
