MKK.pdb
     RDKit          3D

 27 26  0  0  1  0  0  0  0  0999 V2000
   29.8667  -20.3525   -7.1048 C   0  0  0  0  0  0  0  0  0  0  0  0
   28.4426  -19.8003   -6.1687 S   0  0  0  0  0  0  0  0  0  0  0  0
   26.8804  -20.1214   -6.9958 C   0  0  0  0  0  0  0  0  0  0  0  0
   26.9974  -20.0489   -8.4995 C   0  0  0  0  0  0  0  0  0  0  0  0
   25.6537  -20.1112   -9.1781 C   0  0  2  0  0  0  0  0  0  0  0  0
   24.9206  -21.2825   -8.8164 N   0  0  0  0  0  0  0  0  0  0  0  0
   25.7636  -19.9882  -10.6555 C   0  0  0  0  0  0  0  0  0  0  0  0
   26.3517  -18.9769  -11.1432 O   0  0  0  0  0  0  0  0  0  0  0  0
   25.2478  -20.9381  -11.5566 N   0  0  0  0  0  0  0  0  0  0  0  0
   25.2606  -20.7694  -13.0141 C   0  0  1  0  0  0  0  0  0  0  0  0
   25.9396  -21.9383  -13.6680 C   0  0  0  0  0  0  0  0  0  0  0  0
   25.9709  -21.7689  -15.1517 C   0  0  0  0  0  0  0  0  0  0  0  0
   26.6243  -22.9420  -15.8217 C   0  0  0  0  0  0  0  0  0  0  0  0
   26.6230  -22.7180  -17.3161 C   0  0  0  0  0  0  0  0  0  0  0  0
   27.3501  -23.8143  -17.9141 N   0  0  0  0  0  0  0  0  0  0  0  0
   23.8604  -20.5541  -13.4596 C   0  0  0  0  0  0  0  0  0  0  0  0
   22.8669  -21.1979  -13.0402 O   0  0  0  0  0  0  0  0  0  0  0  0
   23.5419  -19.5497  -14.4431 N   0  0  0  0  0  0  0  0  0  0  0  0
   22.1760  -19.1936  -14.7429 C   0  0  1  0  0  0  0  0  0  0  0  0
   22.0619  -17.8132  -15.3645 C   0  0  0  0  0  0  0  0  0  0  0  0
   20.6254  -17.5178  -15.6527 C   0  0  0  0  0  0  0  0  0  0  0  0
   20.4896  -16.1280  -16.1981 C   0  0  0  0  0  0  0  0  0  0  0  0
   19.0658  -15.8314  -16.5269 C   0  0  0  0  0  0  0  0  0  0  0  0
   18.9368  -14.4499  -17.0174 N   0  0  0  0  0  0  0  0  0  0  0  0
   21.5792  -20.2478  -15.5924 C   0  0  0  0  0  0  0  0  0  0  0  0
   22.2138  -20.7718  -16.5506 O   0  0  0  0  0  0  0  0  0  0  0  0
   20.2853  -20.7078  -15.3682 O   0  0  0  0  0  0  0  0  0  0  0  0
  1  2  1  0
  3  4  1  0
  3  2  1  0
  4  5  1  0
  5  6  1  6
  7  5  1  0
  7  8  2  0
  9  7  1  0
 10 11  1  6
 10  9  1  0
 12 13  1  0
 12 11  1  0
 13 14  1  0
 14 15  1  0
 16 10  1  0
 17 16  2  0
 18 16  1  0
 19 18  1  0
 19 20  1  6
 21 20  1  0
 21 22  1  0
 23 22  1  0
 23 24  1  0
 25 19  1  0
 25 27  1  0
 26 25  2  0
M  END
$$$$
