MKK.pdb
     RDKit          3D

 27 26  0  0  1  0  0  0  0  0999 V2000
   27.3770  -18.4367   -6.0022 C   0  0  0  0  0  0  0  0  0  0  0  0
   28.2216  -20.0162   -5.9688 S   0  0  0  0  0  0  0  0  0  0  0  0
   28.0951  -20.9226   -7.5148 C   0  0  0  0  0  0  0  0  0  0  0  0
   26.9554  -20.4363   -8.3779 C   0  0  0  0  0  0  0  0  0  0  0  0
   26.8124  -21.2459   -9.6404 C   0  0  2  0  0  0  0  0  0  0  0  0
   28.0746  -21.6838  -10.1460 N   0  0  0  0  0  0  0  0  0  0  0  0
   26.0421  -20.5242  -10.6871 C   0  0  0  0  0  0  0  0  0  0  0  0
   25.0032  -19.8820  -10.3486 O   0  0  0  0  0  0  0  0  0  0  0  0
   26.4009  -20.5106  -12.0478 N   0  0  0  0  0  0  0  0  0  0  0  0
   25.6810  -19.7459  -13.0725 C   0  0  1  0  0  0  0  0  0  0  0  0
   26.6151  -19.3505  -14.1798 C   0  0  0  0  0  0  0  0  0  0  0  0
   25.8909  -18.5730  -15.2296 C   0  0  0  0  0  0  0  0  0  0  0  0
   26.7755  -17.5269  -15.8422 C   0  0  0  0  0  0  0  0  0  0  0  0
   25.9862  -16.7615  -16.8787 C   0  0  0  0  0  0  0  0  0  0  0  0
   26.8636  -15.7515  -17.4252 N   0  0  0  0  0  0  0  0  0  0  0  0
   24.5223  -20.5609  -13.5182 C   0  0  0  0  0  0  0  0  0  0  0  0
   24.5717  -21.7833  -13.8022 O   0  0  0  0  0  0  0  0  0  0  0  0
   23.2134  -19.9736  -13.6581 N   0  0  0  0  0  0  0  0  0  0  0  0
   22.0473  -20.7827  -13.9184 C   0  0  1  0  0  0  0  0  0  0  0  0
   21.0796  -20.7948  -12.7488 C   0  0  0  0  0  0  0  0  0  0  0  0
   19.9291  -21.6939  -13.0679 C   0  0  0  0  0  0  0  0  0  0  0  0
   19.0149  -21.7928  -11.8839 C   0  0  0  0  0  0  0  0  0  0  0  0
   17.8768  -22.7106  -12.1764 C   0  0  0  0  0  0  0  0  0  0  0  0
   17.0288  -22.8618  -10.9831 N   0  0  0  0  0  0  0  0  0  0  0  0
   21.4126  -20.3226  -15.1733 C   0  0  0  0  0  0  0  0  0  0  0  0
   21.3469  -19.0987  -15.4783 O   0  0  0  0  0  0  0  0  0  0  0  0
   20.8584  -21.2264  -16.0745 O   0  0  0  0  0  0  0  0  0  0  0  0
  1  2  1  0
  3  4  1  0
  3  2  1  0
  4  5  1  0
  5  6  1  6
  7  5  1  0
  7  8  2  0
  9  7  1  0
 10 11  1  6
 10  9  1  0
 12 13  1  0
 12 11  1  0
 13 14  1  0
 14 15  1  0
 16 10  1  0
 17 16  2  0
 18 16  1  0
 19 18  1  0
 19 20  1  1
 21 20  1  0
 21 22  1  0
 23 22  1  0
 23 24  1  0
 25 19  1  0
 25 27  1  0
 26 25  2  0
M  END
$$$$
