MKK.pdb
     RDKit          3D

 27 26  0  0  1  0  0  0  0  0999 V2000
   26.1857  -21.4483  -21.7792 C   0  0  0  0  0  0  0  0  0  0  0  0
   26.8365  -19.7907  -21.9742 S   0  0  0  0  0  0  0  0  0  0  0  0
   26.9868  -18.8990  -20.4219 C   0  0  0  0  0  0  0  0  0  0  0  0
   26.4199  -19.6714  -19.2548 C   0  0  0  0  0  0  0  0  0  0  0  0
   25.8906  -18.7636  -18.1752 C   0  0  2  0  0  0  0  0  0  0  0  0
   26.8879  -17.8630  -17.6909 N   0  0  0  0  0  0  0  0  0  0  0  0
   25.2709  -19.5217  -17.0567 C   0  0  0  0  0  0  0  0  0  0  0  0
   24.3421  -20.3443  -17.3157 O   0  0  0  0  0  0  0  0  0  0  0  0
   25.6577  -19.3796  -15.7111 N   0  0  0  0  0  0  0  0  0  0  0  0
   24.9547  -20.0139  -14.5901 C   0  0  1  0  0  0  0  0  0  0  0  0
   25.7733  -19.9092  -13.3355 C   0  0  0  0  0  0  0  0  0  0  0  0
   25.0487  -20.5173  -12.1796 C   0  0  0  0  0  0  0  0  0  0  0  0
   25.8667  -20.4460  -10.9235 C   0  0  0  0  0  0  0  0  0  0  0  0
   25.1111  -21.1263   -9.8056 C   0  0  0  0  0  0  0  0  0  0  0  0
   25.9614  -21.1020   -8.6373 N   0  0  0  0  0  0  0  0  0  0  0  0
   23.6081  -19.3958  -14.4893 C   0  0  0  0  0  0  0  0  0  0  0  0
   23.3869  -18.1602  -14.4495 O   0  0  0  0  0  0  0  0  0  0  0  0
   22.4212  -20.2114  -14.4283 N   0  0  0  0  0  0  0  0  0  0  0  0
   21.1079  -19.6250  -14.3115 C   0  0  1  0  0  0  0  0  0  0  0  0
   20.3913  -19.5419  -15.6473 C   0  0  0  0  0  0  0  0  0  0  0  0
   19.0472  -18.9188  -15.4497 C   0  0  0  0  0  0  0  0  0  0  0  0
   18.3172  -18.8544  -16.7575 C   0  0  0  0  0  0  0  0  0  0  0  0
   17.0145  -18.1473  -16.5956 C   0  0  0  0  0  0  0  0  0  0  0  0
   16.3785  -17.9513  -17.9082 N   0  0  0  0  0  0  0  0  0  0  0  0
   20.3333  -20.3768  -13.2996 C   0  0  0  0  0  0  0  0  0  0  0  0
   20.4214  -21.6319  -13.1888 O   0  0  0  0  0  0  0  0  0  0  0  0
   19.4702  -19.7267  -12.4230 O   0  0  0  0  0  0  0  0  0  0  0  0
  1  2  1  0
  3  4  1  0
  3  2  1  0
  4  5  1  0
  5  6  1  1
  7  5  1  0
  7  8  2  0
  9  7  1  0
 10 11  1  1
 10  9  1  0
 12 13  1  0
 12 11  1  0
 13 14  1  0
 14 15  1  0
 16 10  1  0
 17 16  2  0
 18 16  1  0
 19 18  1  0
 19 20  1  6
 21 20  1  0
 21 22  1  0
 23 22  1  0
 23 24  1  0
 25 19  1  0
 25 27  1  0
 26 25  2  0
M  END
$$$$
