MKK.pdb
     RDKit          3D

 27 26  0  0  1  0  0  0  0  0999 V2000
   23.3760  -15.6619  -23.7582 C   0  0  0  0  0  0  0  0  0  0  0  0
   23.8936  -15.8857  -22.0578 S   0  0  0  0  0  0  0  0  0  0  0  0
   23.2208  -14.6493  -20.9415 C   0  0  0  0  0  0  0  0  0  0  0  0
   23.3229  -13.2501  -21.5001 C   0  0  0  0  0  0  0  0  0  0  0  0
   24.0658  -12.3213  -20.5753 C   0  0  2  0  0  0  0  0  0  0  0  0
   24.5221  -12.9857  -19.3960 N   0  0  0  0  0  0  0  0  0  0  0  0
   23.2689  -11.1146  -20.2307 C   0  0  0  0  0  0  0  0  0  0  0  0
   22.8817  -10.3500  -21.1645 O   0  0  0  0  0  0  0  0  0  0  0  0
   22.9139  -10.7655  -18.9145 N   0  0  0  0  0  0  0  0  0  0  0  0
   22.2260   -9.5188  -18.5597 C   0  0  1  0  0  0  0  0  0  0  0  0
   21.1437   -9.7889  -17.5544 C   0  0  0  0  0  0  0  0  0  0  0  0
   20.3526   -8.5510  -17.2845 C   0  0  0  0  0  0  0  0  0  0  0  0
   19.1556   -8.8437  -16.4280 C   0  0  0  0  0  0  0  0  0  0  0  0
   18.3742   -7.5668  -16.2225 C   0  0  0  0  0  0  0  0  0  0  0  0
   17.1445   -7.9207  -15.5507 N   0  0  0  0  0  0  0  0  0  0  0  0
   23.2518   -8.5479  -18.1009 C   0  0  0  0  0  0  0  0  0  0  0  0
   24.0815   -8.7610  -17.1825 O   0  0  0  0  0  0  0  0  0  0  0  0
   23.3628   -7.2452  -18.7077 N   0  0  0  0  0  0  0  0  0  0  0  0
   24.3602   -6.2951  -18.2778 C   0  0  1  0  0  0  0  0  0  0  0  0
   24.8399   -5.4078  -19.4124 C   0  0  0  0  0  0  0  0  0  0  0  0
   25.9484   -4.5334  -18.9217 C   0  0  0  0  0  0  0  0  0  0  0  0
   26.5543   -3.7844  -20.0704 C   0  0  0  0  0  0  0  0  0  0  0  0
   27.6492   -2.8914  -19.5939 C   0  0  0  0  0  0  0  0  0  0  0  0
   28.3995   -2.3545  -20.7404 N   0  0  0  0  0  0  0  0  0  0  0  0
   23.8247   -5.5173  -17.1388 C   0  0  0  0  0  0  0  0  0  0  0  0
   22.6011   -5.2161  -17.0527 O   0  0  0  0  0  0  0  0  0  0  0  0
   24.6536   -5.0831  -16.1090 O   0  0  0  0  0  0  0  0  0  0  0  0
  1  2  1  0
  3  4  1  0
  3  2  1  0
  4  5  1  0
  5  6  1  1
  7  5  1  0
  7  8  2  0
  9  7  1  0
 10 11  1  1
 10  9  1  0
 12 13  1  0
 12 11  1  0
 13 14  1  0
 14 15  1  0
 16 10  1  0
 17 16  2  0
 18 16  1  0
 19 18  1  0
 19 20  1  6
 21 20  1  0
 21 22  1  0
 23 22  1  0
 23 24  1  0
 25 19  1  0
 25 27  1  0
 26 25  2  0
M  END
$$$$
