MKK.pdb
     RDKit          3D

 27 26  0  0  1  0  0  0  0  0999 V2000
   16.2772  -20.0584  -25.1791 C   0  0  0  0  0  0  0  0  0  0  0  0
   17.7347  -20.6893  -24.3502 S   0  0  0  0  0  0  0  0  0  0  0  0
   17.8351  -20.2060  -22.6228 C   0  0  0  0  0  0  0  0  0  0  0  0
   19.0682  -20.7498  -21.9416 C   0  0  0  0  0  0  0  0  0  0  0  0
   19.3033  -20.1117  -20.5972 C   0  0  2  0  0  0  0  0  0  0  0  0
   20.3236  -19.1133  -20.6451 N   0  0  0  0  0  0  0  0  0  0  0  0
   19.5924  -21.1166  -19.5406 C   0  0  0  0  0  0  0  0  0  0  0  0
   18.7246  -22.0049  -19.2872 O   0  0  0  0  0  0  0  0  0  0  0  0
   20.7859  -21.1418  -18.7954 N   0  0  0  0  0  0  0  0  0  0  0  0
   21.1241  -22.1977  -17.8343 C   0  0  1  0  0  0  0  0  0  0  0  0
   22.6096  -22.4151  -17.8004 C   0  0  0  0  0  0  0  0  0  0  0  0
   22.9671  -23.4664  -16.8014 C   0  0  0  0  0  0  0  0  0  0  0  0
   24.4442  -23.7310  -16.7917 C   0  0  0  0  0  0  0  0  0  0  0  0
   24.7414  -24.8225  -15.7900 C   0  0  0  0  0  0  0  0  0  0  0  0
   26.1696  -25.0426  -15.8077 N   0  0  0  0  0  0  0  0  0  0  0  0
   20.5353  -21.8250  -16.5229 C   0  0  0  0  0  0  0  0  0  0  0  0
   20.8189  -20.7848  -15.8787 O   0  0  0  0  0  0  0  0  0  0  0  0
   19.5602  -22.6706  -15.8813 N   0  0  0  0  0  0  0  0  0  0  0  0
   18.9995  -22.3341  -14.5949 C   0  0  1  0  0  0  0  0  0  0  0  0
   18.0450  -23.3985  -14.0844 C   0  0  0  0  0  0  0  0  0  0  0  0
   17.4324  -22.9391  -12.8008 C   0  0  0  0  0  0  0  0  0  0  0  0
   16.5560  -24.0176  -12.2386 C   0  0  0  0  0  0  0  0  0  0  0  0
   15.9211  -23.5666  -10.9671 C   0  0  0  0  0  0  0  0  0  0  0  0
   15.2584  -24.7001  -10.3025 N   0  0  0  0  0  0  0  0  0  0  0  0
   20.1014  -22.0602  -13.6463 C   0  0  0  0  0  0  0  0  0  0  0  0
   21.0922  -22.8352  -13.5324 O   0  0  0  0  0  0  0  0  0  0  0  0
   20.0905  -20.9294  -12.8356 O   0  0  0  0  0  0  0  0  0  0  0  0
  1  2  1  0
  3  4  1  0
  3  2  1  0
  4  5  1  0
  5  6  1  6
  7  5  1  0
  7  8  2  0
  9  7  1  0
 10 11  1  1
 10  9  1  0
 12 13  1  0
 12 11  1  0
 13 14  1  0
 14 15  1  0
 16 10  1  0
 17 16  2  0
 18 16  1  0
 19 18  1  0
 19 20  1  1
 21 20  1  0
 21 22  1  0
 23 22  1  0
 23 24  1  0
 25 19  1  0
 25 27  1  0
 26 25  2  0
M  END
$$$$
