CPQ.pdb
     RDKit          3D

 23 23  0  0  1  0  0  0  0  0999 V2000
    9.7649  -14.6900   14.5822 N   0  0  0  0  0  0  0  0  0  0  0  0
    8.7755  -14.9983   15.6251 C   0  0  1  0  0  0  0  0  0  0  0  0
    8.4723  -16.4769   15.4156 C   0  0  0  0  0  0  0  0  0  0  0  0
    7.4158  -17.1603   16.6952 S   0  0  0  0  0  0  0  0  0  0  0  0
    9.4530  -14.7591   16.9074 C   0  0  0  0  0  0  0  0  0  0  0  0
   10.5809  -15.2596   17.1370 O   0  0  0  0  0  0  0  0  0  0  0  0
    8.8499  -13.9618   17.9055 N   0  0  0  0  0  0  0  0  0  0  0  0
    7.6458  -13.1774   17.7120 C   0  0  0  0  0  0  0  0  0  0  0  0
    6.9703  -13.3381   19.0741 C   0  0  0  0  0  0  0  0  0  0  0  0
    8.1861  -13.0559   19.9666 C   0  0  0  0  0  0  0  0  0  0  0  0
    9.3422  -13.7342   19.2636 C   0  0  1  0  0  0  0  0  0  0  0  0
    9.5795  -15.0815   19.8971 C   0  0  0  0  0  0  0  0  0  0  0  0
    9.2190  -16.1601   19.3793 O   0  0  0  0  0  0  0  0  0  0  0  0
   14.3834  -14.1646   18.3400 N   0  0  0  0  0  0  0  0  0  0  0  0
   14.8212  -14.9234   19.4488 C   0  0  0  0  0  0  0  0  0  0  0  0
   15.9983  -15.3462   19.4222 O   0  0  0  0  0  0  0  0  0  0  0  0
   13.9773  -15.2330   20.6047 C   0  0  0  0  0  0  0  0  0  0  0  0
   12.5711  -14.7825   20.5469 C   0  0  0  0  0  0  0  0  0  0  0  0
   11.6211  -15.6409   21.2973 C   0  0  2  0  0  0  0  0  0  0  0  0
   10.2418  -15.1973   21.1501 N   0  0  0  0  0  0  0  0  0  0  0  0
   11.9571  -15.8417   22.7266 C   0  0  0  0  0  0  0  0  0  0  0  0
   12.5252  -16.9001   23.0669 O   0  0  0  0  0  0  0  0  0  0  0  0
   11.6645  -14.9017   23.6839 O   0  0  0  0  0  0  0  0  0  0  0  0
  2  1  1  6
  2  5  1  0
  2  3  1  0
  3  4  1  0
  5  6  2  0
  7  5  1  0
  7 11  1  0
  8  7  1  0
  9  8  1  0
  9 10  1  0
 10 11  1  0
 11 12  1  1
 12 13  2  0
 12 20  1  0
 15 14  1  0
 15 16  2  0
 17 18  1  0
 17 15  1  0
 19 18  1  1
 20 19  1  0
 21 19  1  0
 21 23  1  0
 22 21  2  0
M  END
$$$$
