CPQ.pdb
     RDKit          3D

 23 23  0  0  1  0  0  0  0  0999 V2000
    5.7640  -16.9930   25.9755 N   0  0  0  0  0  0  0  0  0  0  0  0
    6.1461  -15.7413   25.3055 C   0  0  1  0  0  0  0  0  0  0  0  0
    6.4111  -14.7772   26.4555 C   0  0  0  0  0  0  0  0  0  0  0  0
    6.6575  -13.0868   25.9057 S   0  0  0  0  0  0  0  0  0  0  0  0
    7.3740  -16.0434   24.5561 C   0  0  0  0  0  0  0  0  0  0  0  0
    8.2404  -16.8154   25.0340 O   0  0  0  0  0  0  0  0  0  0  0  0
    7.6030  -15.4726   23.2843 N   0  0  0  0  0  0  0  0  0  0  0  0
    6.5909  -14.8005   22.4927 C   0  0  0  0  0  0  0  0  0  0  0  0
    7.4144  -13.6814   21.8547 C   0  0  0  0  0  0  0  0  0  0  0  0
    8.6173  -14.5162   21.3959 C   0  0  0  0  0  0  0  0  0  0  0  0
    8.8498  -15.5022   22.5205 C   0  0  1  0  0  0  0  0  0  0  0  0
    9.9467  -14.9793   23.4128 C   0  0  0  0  0  0  0  0  0  0  0  0
    9.8583  -13.9163   24.0636 O   0  0  0  0  0  0  0  0  0  0  0  0
   10.8334  -16.3186   28.8615 N   0  0  0  0  0  0  0  0  0  0  0  0
   10.5596  -15.0914   28.2167 C   0  0  0  0  0  0  0  0  0  0  0  0
   10.1413  -14.1527   28.9301 O   0  0  0  0  0  0  0  0  0  0  0  0
   10.7379  -14.8717   26.7802 C   0  0  0  0  0  0  0  0  0  0  0  0
   11.2118  -16.0206   25.9808 C   0  0  0  0  0  0  0  0  0  0  0  0
   11.9846  -15.6480   24.7698 C   0  0  2  0  0  0  0  0  0  0  0  0
   11.1711  -15.6866   23.5625 N   0  0  0  0  0  0  0  0  0  0  0  0
   13.2446  -16.4036   24.5771 C   0  0  0  0  0  0  0  0  0  0  0  0
   13.1828  -17.5754   24.1507 O   0  0  0  0  0  0  0  0  0  0  0  0
   14.4733  -15.8554   24.8513 O   0  0  0  0  0  0  0  0  0  0  0  0
  2  1  1  1
  2  5  1  0
  2  3  1  0
  3  4  1  0
  5  6  2  0
  7  5  1  0
  7 11  1  0
  8  7  1  0
  9  8  1  0
  9 10  1  0
 10 11  1  0
 11 12  1  1
 12 13  2  0
 12 20  1  0
 15 14  1  0
 15 16  2  0
 17 18  1  0
 17 15  1  0
 19 18  1  1
 20 19  1  0
 21 19  1  0
 21 23  1  0
 22 21  2  0
M  END
$$$$
