CPQ.pdb
     RDKit          3D

 23 23  0  0  1  0  0  0  0  0999 V2000
    5.4260  -14.5320   26.3055 N   0  0  0  0  0  0  0  0  0  0  0  0
    6.2640  -13.7751   25.3639 C   0  0  1  0  0  0  0  0  0  0  0  0
    7.1088  -12.8812   26.2636 C   0  0  0  0  0  0  0  0  0  0  0  0
    6.2564  -11.3799   26.7535 S   0  0  0  0  0  0  0  0  0  0  0  0
    7.0856  -14.7726   24.6635 C   0  0  0  0  0  0  0  0  0  0  0  0
    7.5569  -15.7589   25.2802 O   0  0  0  0  0  0  0  0  0  0  0  0
    7.3604  -14.6420   23.2839 N   0  0  0  0  0  0  0  0  0  0  0  0
    6.6409  -13.7616   22.3841 C   0  0  0  0  0  0  0  0  0  0  0  0
    7.7707  -13.2961   21.4653 C   0  0  0  0  0  0  0  0  0  0  0  0
    8.4158  -14.6602   21.1874 C   0  0  0  0  0  0  0  0  0  0  0  0
    8.3515  -15.3905   22.5116 C   0  0  1  0  0  0  0  0  0  0  0  0
    9.6787  -15.2528   23.2131 C   0  0  0  0  0  0  0  0  0  0  0  0
   10.1044  -14.1738   23.6779 O   0  0  0  0  0  0  0  0  0  0  0  0
   11.9883  -15.6052   29.3379 N   0  0  0  0  0  0  0  0  0  0  0  0
   11.2654  -16.1963   28.2772 C   0  0  0  0  0  0  0  0  0  0  0  0
   10.0904  -16.5531   28.5163 O   0  0  0  0  0  0  0  0  0  0  0  0
   11.8171  -16.4077   26.9375 C   0  0  0  0  0  0  0  0  0  0  0  0
   10.8871  -16.2578   25.7990 C   0  0  0  0  0  0  0  0  0  0  0  0
   11.5030  -16.4921   24.4693 C   0  0  2  0  0  0  0  0  0  0  0  0
   10.5378  -16.3728   23.3853 N   0  0  0  0  0  0  0  0  0  0  0  0
   12.2704  -17.7543   24.3510 C   0  0  0  0  0  0  0  0  0  0  0  0
   11.6879  -18.7735   23.9257 O   0  0  0  0  0  0  0  0  0  0  0  0
   13.5977  -17.8359   24.6928 O   0  0  0  0  0  0  0  0  0  0  0  0
  2  1  1  1
  2  5  1  0
  2  3  1  0
  3  4  1  0
  5  6  2  0
  7  5  1  0
  7 11  1  0
  8  7  1  0
  9  8  1  0
  9 10  1  0
 10 11  1  0
 11 12  1  1
 12 13  2  0
 12 20  1  0
 15 14  1  0
 15 16  2  0
 17 18  1  0
 17 15  1  0
 19 18  1  1
 20 19  1  0
 21 19  1  0
 21 23  1  0
 22 21  2  0
M  END
$$$$
