CPQ.pdb
     RDKit          3D

 23 23  0  0  1  0  0  0  0  0999 V2000
    5.3815  -15.0972   26.2769 N   0  0  0  0  0  0  0  0  0  0  0  0
    6.2022  -14.2289   25.4200 C   0  0  1  0  0  0  0  0  0  0  0  0
    6.8416  -13.2499   26.3972 C   0  0  0  0  0  0  0  0  0  0  0  0
    5.9007  -11.7328   26.5803 S   0  0  0  0  0  0  0  0  0  0  0  0
    7.2034  -15.1067   24.7973 C   0  0  0  0  0  0  0  0  0  0  0  0
    7.7801  -15.9957   25.4698 O   0  0  0  0  0  0  0  0  0  0  0  0
    7.5357  -14.9683   23.4313 N   0  0  0  0  0  0  0  0  0  0  0  0
    6.8061  -14.1418   22.4894 C   0  0  0  0  0  0  0  0  0  0  0  0
    7.9471  -13.6114   21.6211 C   0  0  0  0  0  0  0  0  0  0  0  0
    8.6903  -14.9333   21.3879 C   0  0  0  0  0  0  0  0  0  0  0  0
    8.6084  -15.6572   22.7146 C   0  0  1  0  0  0  0  0  0  0  0  0
    9.8888  -15.4303   23.4774 C   0  0  0  0  0  0  0  0  0  0  0  0
   10.4149  -14.3061   23.6229 O   0  0  0  0  0  0  0  0  0  0  0  0
   10.9030  -13.8789   28.6826 N   0  0  0  0  0  0  0  0  0  0  0  0
   10.7821  -15.2546   28.3832 C   0  0  0  0  0  0  0  0  0  0  0  0
   10.8510  -16.0556   29.3417 O   0  0  0  0  0  0  0  0  0  0  0  0
   10.5850  -15.7765   27.0294 C   0  0  0  0  0  0  0  0  0  0  0  0
   11.5615  -15.3589   26.0020 C   0  0  0  0  0  0  0  0  0  0  0  0
   11.7685  -16.3479   24.9150 C   0  0  2  0  0  0  0  0  0  0  0  0
   10.5830  -16.5122   24.0853 N   0  0  0  0  0  0  0  0  0  0  0  0
   12.2836  -17.6644   25.3594 C   0  0  0  0  0  0  0  0  0  0  0  0
   11.5397  -18.6628   25.2662 O   0  0  0  0  0  0  0  0  0  0  0  0
   13.5499  -17.8186   25.8675 O   0  0  0  0  0  0  0  0  0  0  0  0
  2  1  1  1
  2  5  1  0
  2  3  1  0
  3  4  1  0
  5  6  2  0
  7  5  1  0
  7 11  1  0
  8  7  1  0
  9  8  1  0
  9 10  1  0
 10 11  1  0
 11 12  1  1
 12 13  2  0
 12 20  1  0
 15 14  1  0
 15 16  2  0
 17 18  1  0
 17 15  1  0
 19 18  1  1
 20 19  1  0
 21 19  1  0
 21 23  1  0
 22 21  2  0
M  END
$$$$
