CPQ.pdb
     RDKit          3D

 23 23  0  0  1  0  0  0  0  0999 V2000
    8.9308  -16.8119   16.5079 N   0  0  0  0  0  0  0  0  0  0  0  0
    7.9992  -16.2245   17.4818 C   0  0  1  0  0  0  0  0  0  0  0  0
    7.1528  -17.4069   17.9373 C   0  0  0  0  0  0  0  0  0  0  0  0
    8.1329  -18.7380   18.6360 S   0  0  0  0  0  0  0  0  0  0  0  0
    8.8333  -15.7011   18.5732 C   0  0  0  0  0  0  0  0  0  0  0  0
    9.9514  -16.2130   18.8243 O   0  0  0  0  0  0  0  0  0  0  0  0
    8.3946  -14.6127   19.3596 N   0  0  0  0  0  0  0  0  0  0  0  0
    7.2381  -13.7933   19.0536 C   0  0  0  0  0  0  0  0  0  0  0  0
    6.6939  -13.5204   20.4560 C   0  0  0  0  0  0  0  0  0  0  0  0
    8.0112  -13.1327   21.1407 C   0  0  0  0  0  0  0  0  0  0  0  0
    9.0372  -14.0831   20.5619 C   0  0  1  0  0  0  0  0  0  0  0  0
    9.2375  -15.2310   21.5183 C   0  0  0  0  0  0  0  0  0  0  0  0
    8.3842  -16.1229   21.7136 O   0  0  0  0  0  0  0  0  0  0  0  0
   14.4686  -18.9799   24.1080 N   0  0  0  0  0  0  0  0  0  0  0  0
   13.5778  -18.9393   23.0118 C   0  0  0  0  0  0  0  0  0  0  0  0
   13.9916  -19.3956   21.9229 O   0  0  0  0  0  0  0  0  0  0  0  0
   12.2198  -18.3975   23.0890 C   0  0  0  0  0  0  0  0  0  0  0  0
   12.0882  -16.9271   23.1551 C   0  0  0  0  0  0  0  0  0  0  0  0
   10.6880  -16.4390   23.2149 C   0  0  2  0  0  0  0  0  0  0  0  0
   10.4386  -15.3607   22.2684 N   0  0  0  0  0  0  0  0  0  0  0  0
   10.2143  -16.0675   24.5690 C   0  0  0  0  0  0  0  0  0  0  0  0
   10.1454  -16.9542   25.4453 O   0  0  0  0  0  0  0  0  0  0  0  0
    9.8514  -14.7821   24.8879 O   0  0  0  0  0  0  0  0  0  0  0  0
  2  1  1  6
  2  5  1  0
  2  3  1  0
  3  4  1  0
  5  6  2  0
  7  5  1  0
  7 11  1  0
  8  7  1  0
  9  8  1  0
  9 10  1  0
 10 11  1  0
 11 12  1  1
 12 13  2  0
 12 20  1  0
 15 14  1  0
 15 16  2  0
 17 18  1  0
 17 15  1  0
 19 18  1  1
 20 19  1  0
 21 19  1  0
 21 23  1  0
 22 21  2  0
M  END
$$$$
