CPQ.pdb
     RDKit          3D

 23 23  0  0  1  0  0  0  0  0999 V2000
    5.5653  -15.0464   26.2090 N   0  0  0  0  0  0  0  0  0  0  0  0
    6.4268  -14.1678   25.4043 C   0  0  1  0  0  0  0  0  0  0  0  0
    7.3933  -13.5726   26.4210 C   0  0  0  0  0  0  0  0  0  0  0  0
    7.3073  -11.7818   26.4995 S   0  0  0  0  0  0  0  0  0  0  0  0
    7.1169  -15.0454   24.4480 C   0  0  0  0  0  0  0  0  0  0  0  0
    7.5424  -16.1706   24.8057 O   0  0  0  0  0  0  0  0  0  0  0  0
    7.3140  -14.6410   23.1089 N   0  0  0  0  0  0  0  0  0  0  0  0
    6.6205  -13.5365   22.4750 C   0  0  0  0  0  0  0  0  0  0  0  0
    7.7268  -12.9686   21.5857 C   0  0  0  0  0  0  0  0  0  0  0  0
    8.2283  -14.2845   20.9766 C   0  0  0  0  0  0  0  0  0  0  0  0
    8.1831  -15.2765   22.1189 C   0  0  1  0  0  0  0  0  0  0  0  0
    9.5592  -15.3918   22.7237 C   0  0  0  0  0  0  0  0  0  0  0  0
    9.9438  -14.7099   23.6976 O   0  0  0  0  0  0  0  0  0  0  0  0
   11.7519  -20.0728   26.9020 N   0  0  0  0  0  0  0  0  0  0  0  0
   11.6690  -18.7990   26.2959 C   0  0  0  0  0  0  0  0  0  0  0  0
   11.3553  -17.8364   27.0309 O   0  0  0  0  0  0  0  0  0  0  0  0
   11.9271  -18.5578   24.8749 C   0  0  0  0  0  0  0  0  0  0  0  0
   10.9612  -17.7022   24.1547 C   0  0  0  0  0  0  0  0  0  0  0  0
   11.5391  -16.9536   23.0111 C   0  0  2  0  0  0  0  0  0  0  0  0
   10.5161  -16.3054   22.2023 N   0  0  0  0  0  0  0  0  0  0  0  0
   12.4643  -17.7354   22.1575 C   0  0  0  0  0  0  0  0  0  0  0  0
   13.6448  -17.8881   22.5345 O   0  0  0  0  0  0  0  0  0  0  0  0
   12.0636  -18.2956   20.9696 O   0  0  0  0  0  0  0  0  0  0  0  0
  2  1  1  1
  2  5  1  0
  2  3  1  0
  3  4  1  0
  5  6  2  0
  7  5  1  0
  7 11  1  0
  8  7  1  0
  9  8  1  0
  9 10  1  0
 10 11  1  0
 11 12  1  1
 12 13  2  0
 12 20  1  0
 15 14  1  0
 15 16  2  0
 17 18  1  0
 17 15  1  0
 19 18  1  1
 20 19  1  0
 21 19  1  0
 21 23  1  0
 22 21  2  0
M  END
$$$$
