CPQ.pdb
     RDKit          3D

 23 23  0  0  1  0  0  0  0  0999 V2000
    8.1205  -14.2762   21.3172 N   0  0  0  0  0  0  0  0  0  0  0  0
    7.3120  -14.5382   22.5170 C   0  0  1  0  0  0  0  0  0  0  0  0
    7.0470  -16.0377   22.4589 C   0  0  0  0  0  0  0  0  0  0  0  0
    5.6092  -16.4540   21.4690 S   0  0  0  0  0  0  0  0  0  0  0  0
    8.1616  -14.1806   23.6620 C   0  0  0  0  0  0  0  0  0  0  0  0
    9.3758  -14.4976   23.6800 O   0  0  0  0  0  0  0  0  0  0  0  0
    7.6297  -13.4735   24.7632 N   0  0  0  0  0  0  0  0  0  0  0  0
    6.3136  -12.8652   24.7891 C   0  0  0  0  0  0  0  0  0  0  0  0
    5.9042  -13.1161   26.2405 C   0  0  0  0  0  0  0  0  0  0  0  0
    7.2013  -12.6653   26.9249 C   0  0  0  0  0  0  0  0  0  0  0  0
    8.3060  -13.1769   26.0255 C   0  0  1  0  0  0  0  0  0  0  0  0
    8.8294  -14.4767   26.5817 C   0  0  0  0  0  0  0  0  0  0  0  0
    8.1873  -15.5482   26.5510 O   0  0  0  0  0  0  0  0  0  0  0  0
   13.8391  -17.4510   24.5542 N   0  0  0  0  0  0  0  0  0  0  0  0
   13.4798  -16.2363   25.1804 C   0  0  0  0  0  0  0  0  0  0  0  0
   14.3549  -15.3442   25.2403 O   0  0  0  0  0  0  0  0  0  0  0  0
   12.1569  -15.9782   25.7525 C   0  0  0  0  0  0  0  0  0  0  0  0
   12.0366  -16.0563   27.2233 C   0  0  0  0  0  0  0  0  0  0  0  0
   10.6751  -15.7755   27.7428 C   0  0  2  0  0  0  0  0  0  0  0  0
   10.1139  -14.5520   27.1871 N   0  0  0  0  0  0  0  0  0  0  0  0
   10.5575  -15.7822   29.2200 C   0  0  0  0  0  0  0  0  0  0  0  0
   10.2345  -14.7255   29.8013 O   0  0  0  0  0  0  0  0  0  0  0  0
   10.7914  -16.9114   29.9654 O   0  0  0  0  0  0  0  0  0  0  0  0
  2  1  1  6
  2  5  1  0
  2  3  1  0
  3  4  1  0
  5  6  2  0
  7  5  1  0
  7 11  1  0
  8  7  1  0
  9  8  1  0
  9 10  1  0
 10 11  1  0
 11 12  1  1
 12 13  2  0
 12 20  1  0
 15 14  1  0
 15 16  2  0
 17 18  1  0
 17 15  1  0
 19 18  1  1
 20 19  1  0
 21 19  1  0
 21 23  1  0
 22 21  2  0
M  END
$$$$
