CPQ.pdb
     RDKit          3D

 23 23  0  0  1  0  0  0  0  0999 V2000
    8.0275  -14.6262   21.2957 N   0  0  0  0  0  0  0  0  0  0  0  0
    7.1223  -14.3734   22.4264 C   0  0  1  0  0  0  0  0  0  0  0  0
    6.3922  -15.6978   22.6134 C   0  0  0  0  0  0  0  0  0  0  0  0
    7.4700  -17.1206   22.4276 S   0  0  0  0  0  0  0  0  0  0  0  0
    7.9871  -14.0631   23.5739 C   0  0  0  0  0  0  0  0  0  0  0  0
    9.1546  -14.5193   23.6356 O   0  0  0  0  0  0  0  0  0  0  0  0
    7.5225  -13.2459   24.6284 N   0  0  0  0  0  0  0  0  0  0  0  0
    6.2880  -12.4860   24.5943 C   0  0  0  0  0  0  0  0  0  0  0  0
    5.8244  -12.6165   26.0453 C   0  0  0  0  0  0  0  0  0  0  0  0
    7.1529  -12.2895   26.7398 C   0  0  0  0  0  0  0  0  0  0  0  0
    8.2055  -12.9706   25.8919 C   0  0  1  0  0  0  0  0  0  0  0  0
    8.5599  -14.2948   26.5195 C   0  0  0  0  0  0  0  0  0  0  0  0
    7.7903  -15.2792   26.5335 O   0  0  0  0  0  0  0  0  0  0  0  0
   13.6399  -17.3402   25.3559 N   0  0  0  0  0  0  0  0  0  0  0  0
   13.5720  -16.0001   25.7990 C   0  0  0  0  0  0  0  0  0  0  0  0
   14.5089  -15.2407   25.4661 O   0  0  0  0  0  0  0  0  0  0  0  0
   12.4781  -15.4692   26.6147 C   0  0  0  0  0  0  0  0  0  0  0  0
   11.3521  -16.3824   26.9008 C   0  0  0  0  0  0  0  0  0  0  0  0
   10.2555  -15.7736   27.6941 C   0  0  2  0  0  0  0  0  0  0  0  0
    9.8206  -14.4966   27.1454 N   0  0  0  0  0  0  0  0  0  0  0  0
   10.5277  -15.6547   29.1459 C   0  0  0  0  0  0  0  0  0  0  0  0
   10.4363  -14.5317   29.6839 O   0  0  0  0  0  0  0  0  0  0  0  0
   10.8750  -16.7383   29.9143 O   0  0  0  0  0  0  0  0  0  0  0  0
  2  1  1  6
  2  5  1  0
  2  3  1  0
  3  4  1  0
  5  6  2  0
  7  5  1  0
  7 11  1  0
  8  7  1  0
  9  8  1  0
  9 10  1  0
 10 11  1  0
 11 12  1  1
 12 13  2  0
 12 20  1  0
 15 14  1  0
 15 16  2  0
 17 18  1  0
 17 15  1  0
 19 18  1  6
 20 19  1  0
 21 19  1  0
 21 23  1  0
 22 21  2  0
M  END
$$$$
