CAE.pdb
     RDKit          3D

 21 20  0  0  1  0  0  0  0  0999 V2000
    9.1877  -14.0972   18.1370 N   0  0  0  0  0  0  0  0  0  0  0  0
    8.6909  -13.8516   19.4611 C   0  0  1  0  0  0  0  0  0  0  0  0
    7.2489  -13.4469   19.4434 C   0  0  0  0  0  0  0  0  0  0  0  0
    7.1227  -11.8865   18.5032 S   0  0  0  0  0  0  0  0  0  0  0  0
    8.9477  -15.0399   20.3041 C   0  0  0  0  0  0  0  0  0  0  0  0
    8.6547  -15.0357   21.5382 O   0  0  0  0  0  0  0  0  0  0  0  0
    9.6291  -18.6238   19.7974 C   0  0  0  0  0  0  0  0  0  0  0  0
    9.7673  -17.3783   20.6598 C   0  0  2  0  0  0  0  0  0  0  0  0
    9.5271  -16.2395   19.8008 N   0  0  0  0  0  0  0  0  0  0  0  0
   11.0774  -17.3187   21.3330 C   0  0  0  0  0  0  0  0  0  0  0  0
   11.4604  -18.3302   21.9764 O   0  0  0  0  0  0  0  0  0  0  0  0
   11.9458  -16.2073   21.3141 N   0  0  0  0  0  0  0  0  0  0  0  0
   13.2582  -16.1716   21.9261 C   0  0  1  0  0  0  0  0  0  0  0  0
   14.2059  -15.2544   21.2236 C   0  0  0  0  0  0  0  0  0  0  0  0
   14.4467  -15.6307   19.7832 C   0  0  0  0  0  0  0  0  0  0  0  0
   15.3957  -14.6892   19.1348 C   0  0  0  0  0  0  0  0  0  0  0  0
   15.0109  -13.7731   18.3541 O   0  0  0  0  0  0  0  0  0  0  0  0
   13.1787  -15.9251   23.3875 C   0  0  0  0  0  0  0  0  0  0  0  0
   12.1017  -15.5918   23.9422 O   0  0  0  0  0  0  0  0  0  0  0  0
   16.7792  -14.7529   19.3445 O   0  0  0  0  0  0  0  0  0  0  0  0
   14.2880  -16.0496   24.2171 O   0  0  0  0  0  0  0  0  0  0  0  0
  2  3  1  0
  2  1  1  6
  4  3  1  0
  5  2  1  0
  6  5  2  0
  8  7  1  6
  8  9  1  0
  9  5  1  0
 10  8  1  0
 10 12  1  0
 11 10  2  0
 13 12  1  0
 13 14  1  6
 13 18  1  0
 15 14  1  0
 16 15  1  0
 17 16  2  0
 18 19  2  0
 18 21  1  0
 20 16  1  0
M  END
$$$$
