CAE.pdb
     RDKit          3D

 21 20  0  0  1  0  0  0  0  0999 V2000
    7.0600  -13.0675   19.5518 N   0  0  0  0  0  0  0  0  0  0  0  0
    8.0719  -14.0165   19.1835 C   0  0  1  0  0  0  0  0  0  0  0  0
    9.4119  -13.3644   19.0331 C   0  0  0  0  0  0  0  0  0  0  0  0
    9.3162  -12.2229   17.6108 S   0  0  0  0  0  0  0  0  0  0  0  0
    8.0756  -15.1264   20.1616 C   0  0  0  0  0  0  0  0  0  0  0  0
    7.7627  -14.9241   21.3740 O   0  0  0  0  0  0  0  0  0  0  0  0
    8.2398  -18.8380   19.9833 C   0  0  0  0  0  0  0  0  0  0  0  0
    8.3093  -17.5418   20.7764 C   0  0  2  0  0  0  0  0  0  0  0  0
    8.4221  -16.4643   19.8179 N   0  0  0  0  0  0  0  0  0  0  0  0
    9.4133  -17.5539   21.7533 C   0  0  0  0  0  0  0  0  0  0  0  0
    9.4187  -18.4557   22.6311 O   0  0  0  0  0  0  0  0  0  0  0  0
   10.4754  -16.6262   21.7840 N   0  0  0  0  0  0  0  0  0  0  0  0
   11.5220  -16.5988   22.7851 C   0  0  1  0  0  0  0  0  0  0  0  0
   12.6956  -15.7669   22.3810 C   0  0  0  0  0  0  0  0  0  0  0  0
   13.3921  -16.2749   21.1437 C   0  0  0  0  0  0  0  0  0  0  0  0
   14.2691  -15.2299   20.5552 C   0  0  0  0  0  0  0  0  0  0  0  0
   13.8594  -14.4216   19.6745 O   0  0  0  0  0  0  0  0  0  0  0  0
   10.9921  -16.2521   24.1274 C   0  0  0  0  0  0  0  0  0  0  0  0
   11.6751  -16.4180   25.1689 O   0  0  0  0  0  0  0  0  0  0  0  0
   15.6076  -15.0698   20.9358 O   0  0  0  0  0  0  0  0  0  0  0  0
    9.7161  -15.7271   24.3028 O   0  0  0  0  0  0  0  0  0  0  0  0
  2  3  1  0
  2  1  1  1
  4  3  1  0
  5  2  1  0
  6  5  2  0
  8  7  1  6
  8  9  1  0
  9  5  1  0
 10  8  1  0
 10 12  1  0
 11 10  2  0
 13 12  1  0
 13 14  1  6
 13 18  1  0
 15 14  1  0
 16 15  1  0
 17 16  2  0
 18 19  2  0
 18 21  1  0
 20 16  1  0
M  END
$$$$
