CAE.pdb
     RDKit          3D

 21 20  0  0  1  0  0  0  0  0999 V2000
    7.6457  -13.1406   19.6066 N   0  0  0  0  0  0  0  0  0  0  0  0
    8.6950  -14.1199   19.6249 C   0  0  1  0  0  0  0  0  0  0  0  0
   10.0419  -13.4891   19.4480 C   0  0  0  0  0  0  0  0  0  0  0  0
   10.1210  -12.8180   17.7514 S   0  0  0  0  0  0  0  0  0  0  0  0
    8.5899  -14.9208   20.8644 C   0  0  0  0  0  0  0  0  0  0  0  0
    8.2724  -14.3754   21.9646 O   0  0  0  0  0  0  0  0  0  0  0  0
    8.5993  -18.5354   21.7713 C   0  0  0  0  0  0  0  0  0  0  0  0
    8.7405  -17.0673   22.1436 C   0  0  2  0  0  0  0  0  0  0  0  0
    8.8322  -16.3235   20.9063 N   0  0  0  0  0  0  0  0  0  0  0  0
    9.8910  -16.8348   23.0355 C   0  0  0  0  0  0  0  0  0  0  0  0
   11.0050  -16.5744   22.5111 O   0  0  0  0  0  0  0  0  0  0  0  0
    9.8435  -16.8812   24.4445 N   0  0  0  0  0  0  0  0  0  0  0  0
   10.9920  -16.7444   25.3165 C   0  0  1  0  0  0  0  0  0  0  0  0
   10.8747  -15.5925   26.2610 C   0  0  0  0  0  0  0  0  0  0  0  0
   10.3060  -15.9749   27.6043 C   0  0  0  0  0  0  0  0  0  0  0  0
   10.1989  -14.7923   28.4973 C   0  0  0  0  0  0  0  0  0  0  0  0
    9.7718  -14.8781   29.6835 O   0  0  0  0  0  0  0  0  0  0  0  0
   11.3280  -18.0233   25.9906 C   0  0  0  0  0  0  0  0  0  0  0  0
   10.4660  -18.9194   26.1719 O   0  0  0  0  0  0  0  0  0  0  0  0
   10.5633  -13.5039   28.0858 O   0  0  0  0  0  0  0  0  0  0  0  0
   12.6100  -18.2965   26.4555 O   0  0  0  0  0  0  0  0  0  0  0  0
  2  3  1  0
  2  1  1  1
  4  3  1  0
  5  2  1  0
  6  5  2  0
  8  7  1  6
  8  9  1  0
  9  5  1  0
 10  8  1  0
 10 12  1  0
 11 10  2  0
 13 12  1  0
 13 14  1  1
 13 18  1  0
 15 14  1  0
 16 15  1  0
 17 16  2  0
 18 19  2  0
 18 21  1  0
 20 16  1  0
M  END
$$$$
