CAE.pdb
     RDKit          3D

 21 20  0  0  1  0  0  0  0  0999 V2000
   10.2563  -20.5012   14.0061 N   0  0  0  0  0  0  0  0  0  0  0  0
   11.0571  -19.4960   14.6454 C   0  0  1  0  0  0  0  0  0  0  0  0
   10.2097  -18.4652   15.3257 C   0  0  0  0  0  0  0  0  0  0  0  0
    9.3204  -19.2913   16.6901 S   0  0  0  0  0  0  0  0  0  0  0  0
   12.0178  -20.1503   15.5605 C   0  0  0  0  0  0  0  0  0  0  0  0
   11.6936  -21.1943   16.2037 O   0  0  0  0  0  0  0  0  0  0  0  0
   15.6453  -20.2019   16.0747 C   0  0  0  0  0  0  0  0  0  0  0  0
   14.2530  -20.3412   16.6715 C   0  0  2  0  0  0  0  0  0  0  0  0
   13.3391  -19.6651   15.7769 N   0  0  0  0  0  0  0  0  0  0  0  0
   14.1913  -19.8213   18.0496 C   0  0  0  0  0  0  0  0  0  0  0  0
   13.8811  -18.6129   18.2144 O   0  0  0  0  0  0  0  0  0  0  0  0
   14.4550  -20.5773   19.2109 N   0  0  0  0  0  0  0  0  0  0  0  0
   14.2363  -20.1159   20.5664 C   0  0  1  0  0  0  0  0  0  0  0  0
   13.4392  -21.0755   21.3890 C   0  0  0  0  0  0  0  0  0  0  0  0
   14.0079  -22.4721   21.3988 C   0  0  0  0  0  0  0  0  0  0  0  0
   13.2481  -23.3536   22.3224 C   0  0  0  0  0  0  0  0  0  0  0  0
   13.5467  -23.4686   23.5449 O   0  0  0  0  0  0  0  0  0  0  0  0
   15.5027  -19.6971   21.2174 C   0  0  0  0  0  0  0  0  0  0  0  0
   16.6209  -19.9243   20.6915 O   0  0  0  0  0  0  0  0  0  0  0  0
   12.1510  -24.1160   21.9017 O   0  0  0  0  0  0  0  0  0  0  0  0
   15.5184  -19.0332   22.4395 O   0  0  0  0  0  0  0  0  0  0  0  0
  2  3  1  0
  2  1  1  1
  4  3  1  0
  5  2  1  0
  6  5  2  0
  8  7  1  6
  8  9  1  0
  9  5  1  0
 10  8  1  0
 10 12  1  0
 11 10  2  0
 13 12  1  0
 13 14  1  1
 13 18  1  0
 15 14  1  0
 16 15  1  0
 17 16  2  0
 18 19  2  0
 18 21  1  0
 20 16  1  0
M  END
$$$$
