CAE.pdb
     RDKit          3D

 21 20  0  0  1  0  0  0  0  0999 V2000
    8.4627  -16.6747   17.5511 N   0  0  0  0  0  0  0  0  0  0  0  0
    7.7213  -16.7139   18.7796 C   0  0  1  0  0  0  0  0  0  0  0  0
    7.3243  -18.1124   19.1404 C   0  0  0  0  0  0  0  0  0  0  0  0
    8.8352  -19.0040   19.6475 S   0  0  0  0  0  0  0  0  0  0  0  0
    8.5041  -16.0431   19.8406 C   0  0  0  0  0  0  0  0  0  0  0  0
    9.7580  -15.8918   19.7248 O   0  0  0  0  0  0  0  0  0  0  0  0
    7.7941  -14.3088   23.0789 C   0  0  0  0  0  0  0  0  0  0  0  0
    8.7327  -15.0126   22.1105 C   0  0  2  0  0  0  0  0  0  0  0  0
    7.9183  -15.5341   21.0347 N   0  0  0  0  0  0  0  0  0  0  0  0
    9.5307  -16.0562   22.7793 C   0  0  0  0  0  0  0  0  0  0  0  0
    9.0668  -17.2255   22.8158 O   0  0  0  0  0  0  0  0  0  0  0  0
   10.7858  -15.8477   23.3883 N   0  0  0  0  0  0  0  0  0  0  0  0
   11.5512  -16.8664   24.0773 C   0  0  1  0  0  0  0  0  0  0  0  0
   13.0257  -16.6329   24.0131 C   0  0  0  0  0  0  0  0  0  0  0  0
   13.5426  -16.4507   22.6082 C   0  0  0  0  0  0  0  0  0  0  0  0
   15.0138  -16.2435   22.6011 C   0  0  0  0  0  0  0  0  0  0  0  0
   15.5384  -15.1174   22.8326 O   0  0  0  0  0  0  0  0  0  0  0  0
   11.0529  -17.0918   25.4570 C   0  0  0  0  0  0  0  0  0  0  0  0
   10.2273  -16.3125   25.9954 O   0  0  0  0  0  0  0  0  0  0  0  0
   15.9179  -17.2805   22.3379 O   0  0  0  0  0  0  0  0  0  0  0  0
   11.4718  -18.1736   26.2241 O   0  0  0  0  0  0  0  0  0  0  0  0
  2  3  1  0
  2  1  1  6
  4  3  1  0
  5  2  1  0
  6  5  2  0
  8  7  1  1
  8  9  1  0
  9  5  1  0
 10  8  1  0
 10 12  1  0
 11 10  2  0
 13 12  1  0
 13 14  1  1
 13 18  1  0
 15 14  1  0
 16 15  1  0
 17 16  2  0
 18 19  2  0
 18 21  1  0
 20 16  1  0
M  END
$$$$
