CAE.pdb
     RDKit          3D

 21 20  0  0  1  0  0  0  0  0999 V2000
    8.8125  -12.4051   17.6513 N   0  0  0  0  0  0  0  0  0  0  0  0
    8.5144  -13.6999   18.1945 C   0  0  1  0  0  0  0  0  0  0  0  0
    9.0848  -14.7975   17.3500 C   0  0  0  0  0  0  0  0  0  0  0  0
    7.8209  -15.2612   16.1161 S   0  0  0  0  0  0  0  0  0  0  0  0
    8.9731  -13.7539   19.6000 C   0  0  0  0  0  0  0  0  0  0  0  0
   10.1607  -13.4324   19.9080 O   0  0  0  0  0  0  0  0  0  0  0  0
    7.4698  -14.5620   22.9332 C   0  0  0  0  0  0  0  0  0  0  0  0
    8.6609  -14.3598   22.0087 C   0  0  2  0  0  0  0  0  0  0  0  0
    8.1340  -14.1606   20.6764 N   0  0  0  0  0  0  0  0  0  0  0  0
    9.6118  -15.4838   22.0839 C   0  0  0  0  0  0  0  0  0  0  0  0
    9.9572  -16.0414   21.0100 O   0  0  0  0  0  0  0  0  0  0  0  0
   10.1718  -15.9901   23.2755 N   0  0  0  0  0  0  0  0  0  0  0  0
   11.5359  -16.4566   23.4161 C   0  0  1  0  0  0  0  0  0  0  0  0
   12.5390  -15.5130   22.8364 C   0  0  0  0  0  0  0  0  0  0  0  0
   13.2188  -16.0466   21.6005 C   0  0  0  0  0  0  0  0  0  0  0  0
   14.3005  -15.1343   21.1477 C   0  0  0  0  0  0  0  0  0  0  0  0
   15.3108  -14.8776   21.8621 O   0  0  0  0  0  0  0  0  0  0  0  0
   11.8421  -16.8519   24.8136 C   0  0  0  0  0  0  0  0  0  0  0  0
   11.4895  -16.1453   25.7909 O   0  0  0  0  0  0  0  0  0  0  0  0
   14.2741  -14.4976   19.9003 O   0  0  0  0  0  0  0  0  0  0  0  0
   12.5330  -18.0210   25.1141 O   0  0  0  0  0  0  0  0  0  0  0  0
  2  3  1  0
  2  1  1  6
  4  3  1  0
  5  2  1  0
  6  5  2  0
  8  7  1  1
  8  9  1  0
  9  5  1  0
 10  8  1  0
 10 12  1  0
 11 10  2  0
 13 12  1  0
 13 14  1  1
 13 18  1  0
 15 14  1  0
 16 15  1  0
 17 16  2  0
 18 19  2  0
 18 21  1  0
 20 16  1  0
M  END
$$$$
