CAE.pdb
     RDKit          3D

 21 20  0  0  1  0  0  0  0  0999 V2000
    5.2820  -14.2636   26.1576 N   0  0  0  0  0  0  0  0  0  0  0  0
    6.2744  -13.5528   25.4024 C   0  0  1  0  0  0  0  0  0  0  0  0
    7.2475  -12.8473   26.2961 C   0  0  0  0  0  0  0  0  0  0  0  0
    6.3242  -11.5759   27.2267 S   0  0  0  0  0  0  0  0  0  0  0  0
    6.9277  -14.4867   24.4592 C   0  0  0  0  0  0  0  0  0  0  0  0
    6.7504  -15.7388   24.5580 O   0  0  0  0  0  0  0  0  0  0  0  0
    8.9205  -14.2134   21.3125 C   0  0  0  0  0  0  0  0  0  0  0  0
    8.4112  -15.0017   22.5097 C   0  0  2  0  0  0  0  0  0  0  0  0
    7.7791  -14.0551   23.4024 N   0  0  0  0  0  0  0  0  0  0  0  0
    9.4887  -15.7684   23.1614 C   0  0  0  0  0  0  0  0  0  0  0  0
   10.2143  -16.5017   22.4408 O   0  0  0  0  0  0  0  0  0  0  0  0
    9.7748  -15.7461   24.5424 N   0  0  0  0  0  0  0  0  0  0  0  0
   10.8049  -16.5344   25.1873 C   0  0  1  0  0  0  0  0  0  0  0  0
   10.9315  -16.2477   26.6483 C   0  0  0  0  0  0  0  0  0  0  0  0
   10.6440  -14.8106   27.0038 C   0  0  0  0  0  0  0  0  0  0  0  0
   10.7106  -14.5983   28.4727 C   0  0  0  0  0  0  0  0  0  0  0  0
   11.1395  -15.4848   29.2646 O   0  0  0  0  0  0  0  0  0  0  0  0
   10.6638  -17.9803   24.8837 C   0  0  0  0  0  0  0  0  0  0  0  0
    9.6282  -18.4424   24.3427 O   0  0  0  0  0  0  0  0  0  0  0  0
   10.3031  -13.4031   29.0790 O   0  0  0  0  0  0  0  0  0  0  0  0
   11.6668  -18.8968   25.1809 O   0  0  0  0  0  0  0  0  0  0  0  0
  2  3  1  0
  2  1  1  1
  4  3  1  0
  5  2  1  0
  6  5  2  0
  8  7  1  6
  8  9  1  0
  9  5  1  0
 10  8  1  0
 10 12  1  0
 11 10  2  0
 13 12  1  0
 13 14  1  1
 13 18  1  0
 15 14  1  0
 16 15  1  0
 17 16  2  0
 18 19  2  0
 18 21  1  0
 20 16  1  0
M  END
$$$$
