CAE.pdb
     RDKit          3D

 21 20  0  0  1  0  0  0  0  0999 V2000
    9.0635  -17.2725   17.9219 N   0  0  0  0  0  0  0  0  0  0  0  0
    8.2010  -17.1757   19.0651 C   0  0  1  0  0  0  0  0  0  0  0  0
    7.6921  -18.5194   19.4881 C   0  0  0  0  0  0  0  0  0  0  0  0
    9.0356  -19.3606   20.3948 S   0  0  0  0  0  0  0  0  0  0  0  0
    8.9092  -16.4586   20.1481 C   0  0  0  0  0  0  0  0  0  0  0  0
   10.1766  -16.4450   20.1970 O   0  0  0  0  0  0  0  0  0  0  0  0
    7.9752  -14.2667   23.0337 C   0  0  0  0  0  0  0  0  0  0  0  0
    8.9580  -15.1528   22.2834 C   0  0  2  0  0  0  0  0  0  0  0  0
    8.2338  -15.7523   21.1840 N   0  0  0  0  0  0  0  0  0  0  0  0
    9.5821  -16.1532   23.1683 C   0  0  0  0  0  0  0  0  0  0  0  0
    8.9733  -17.2378   23.3597 O   0  0  0  0  0  0  0  0  0  0  0  0
   10.8199  -15.9909   23.8249 N   0  0  0  0  0  0  0  0  0  0  0  0
   11.3924  -16.9390   24.7585 C   0  0  1  0  0  0  0  0  0  0  0  0
   12.8835  -16.8677   24.8233 C   0  0  0  0  0  0  0  0  0  0  0  0
   13.5515  -17.0734   23.4871 C   0  0  0  0  0  0  0  0  0  0  0  0
   14.8014  -16.2767   23.3845 C   0  0  0  0  0  0  0  0  0  0  0  0
   15.9044  -16.6883   23.8438 O   0  0  0  0  0  0  0  0  0  0  0  0
   10.7433  -16.8612   26.0910 C   0  0  0  0  0  0  0  0  0  0  0  0
    9.9129  -15.9599   26.3682 O   0  0  0  0  0  0  0  0  0  0  0  0
   14.8422  -15.0172   22.7729 O   0  0  0  0  0  0  0  0  0  0  0  0
   11.0189  -17.7784   27.0995 O   0  0  0  0  0  0  0  0  0  0  0  0
  2  3  1  0
  2  1  1  6
  4  3  1  0
  5  2  1  0
  6  5  2  0
  8  7  1  1
  8  9  1  0
  9  5  1  0
 10  8  1  0
 10 12  1  0
 11 10  2  0
 13 12  1  0
 13 14  1  1
 13 18  1  0
 15 14  1  0
 16 15  1  0
 17 16  2  0
 18 19  2  0
 18 21  1  0
 20 16  1  0
M  END
$$$$
