VME.pdb
     RDKit          3D

 25 24  0  0  1  0  0  0  0  0999 V2000
   22.9117  -18.0709  -17.7551 C   0  0  0  0  0  0  0  0  0  0  0  0
   24.3115  -17.5616  -17.5626 C   0  0  2  0  0  0  0  0  0  0  0  0
   24.6199  -16.5165  -18.5928 C   0  0  0  0  0  0  0  0  0  0  0  0
   25.2683  -18.7366  -17.6176 C   0  0  2  0  0  0  0  0  0  0  0  0
   25.2484  -19.3107  -18.9303 N   0  0  0  0  0  0  0  0  0  0  0  0
   24.8725  -19.6922  -16.5502 C   0  0  0  0  0  0  0  0  0  0  0  0
   23.9618  -20.5098  -16.8130 O   0  0  0  0  0  0  0  0  0  0  0  0
   28.3745  -20.4931  -11.2219 C   0  0  0  0  0  0  0  0  0  0  0  0
   27.1296  -21.7691  -10.8803 S   0  0  0  0  0  0  0  0  0  0  0  0
   25.7707  -21.7189  -12.0818 C   0  0  0  0  0  0  0  0  0  0  0  0
   26.1167  -20.6928  -13.1301 C   0  0  0  0  0  0  0  0  0  0  0  0
   25.0448  -20.5595  -14.1829 C   0  0  2  0  0  0  0  0  0  0  0  0
   25.4657  -19.7271  -15.2612 N   0  0  0  0  0  0  0  0  0  0  0  0
   23.7730  -20.1140  -13.5601 C   0  0  0  0  0  0  0  0  0  0  0  0
   23.5299  -18.9251  -13.2384 O   0  0  0  0  0  0  0  0  0  0  0  0
   22.7480  -21.0650  -13.2988 N   0  0  0  0  0  0  0  0  0  0  0  0
   21.4379  -20.7376  -12.8372 C   0  0  1  0  0  0  0  0  0  0  0  0
   20.6954  -19.8128  -13.7736 C   0  0  0  0  0  0  0  0  0  0  0  0
   19.4898  -20.4387  -14.3840 C   0  0  0  0  0  0  0  0  0  0  0  0
   18.8921  -19.4854  -15.3490 C   0  0  0  0  0  0  0  0  0  0  0  0
   19.2791  -19.4665  -16.5427 O   0  0  0  0  0  0  0  0  0  0  0  0
   20.6923  -21.9950  -12.5979 C   0  0  0  0  0  0  0  0  0  0  0  0
   21.0711  -23.1159  -13.0262 O   0  0  0  0  0  0  0  0  0  0  0  0
   17.8906  -18.5837  -14.9783 O   0  0  0  0  0  0  0  0  0  0  0  0
   19.5144  -21.9728  -11.8700 O   0  0  0  0  0  0  0  0  0  0  0  0
  2  4  1  0
  2  1  1  6
  3  2  1  0
  4  5  1  6
  6  4  1  0
  6  7  2  0
  9  8  1  0
 10  9  1  0
 11 10  1  0
 12 11  1  1
 12 13  1  0
 13  6  1  0
 14 12  1  0
 14 16  1  0
 15 14  2  0
 17 16  1  0
 17 22  1  0
 17 18  1  6
 19 18  1  0
 20 19  1  0
 20 21  2  0
 22 23  2  0
 22 25  1  0
 24 20  1  0
M  END
$$$$
