VME.pdb
     RDKit          3D

 25 24  0  0  1  0  0  0  0  0999 V2000
   27.8567  -17.5824  -14.5167 C   0  0  0  0  0  0  0  0  0  0  0  0
   27.8698  -18.4905  -15.7129 C   0  0  2  0  0  0  0  0  0  0  0  0
   28.1283  -17.6925  -16.9559 C   0  0  0  0  0  0  0  0  0  0  0  0
   26.5553  -19.2445  -15.7654 C   0  0  2  0  0  0  0  0  0  0  0  0
   25.4739  -18.3147  -15.9040 N   0  0  0  0  0  0  0  0  0  0  0  0
   26.4629  -20.0777  -14.5381 C   0  0  0  0  0  0  0  0  0  0  0  0
   27.2063  -21.0820  -14.4622 O   0  0  0  0  0  0  0  0  0  0  0  0
   26.2172  -20.9358   -6.8857 C   0  0  0  0  0  0  0  0  0  0  0  0
   26.3182  -19.9367   -8.3978 S   0  0  0  0  0  0  0  0  0  0  0  0
   25.6288  -20.8143   -9.8287 C   0  0  0  0  0  0  0  0  0  0  0  0
   25.8687  -19.9667  -11.0517 C   0  0  0  0  0  0  0  0  0  0  0  0
   25.3911  -20.6328  -12.3179 C   0  0  2  0  0  0  0  0  0  0  0  0
   25.5855  -19.7988  -13.4578 N   0  0  0  0  0  0  0  0  0  0  0  0
   23.9868  -21.0859  -12.1556 C   0  0  0  0  0  0  0  0  0  0  0  0
   23.6108  -21.8990  -11.2760 O   0  0  0  0  0  0  0  0  0  0  0  0
   22.9826  -20.5887  -13.0318 N   0  0  0  0  0  0  0  0  0  0  0  0
   21.5859  -20.8471  -12.8927 C   0  0  1  0  0  0  0  0  0  0  0  0
   20.7451  -19.5926  -12.9428 C   0  0  0  0  0  0  0  0  0  0  0  0
   19.2852  -19.8583  -12.8167 C   0  0  0  0  0  0  0  0  0  0  0  0
   18.5488  -18.5858  -13.0063 C   0  0  0  0  0  0  0  0  0  0  0  0
   19.1171  -17.5974  -13.5308 O   0  0  0  0  0  0  0  0  0  0  0  0
   21.1799  -21.8248  -13.9288 C   0  0  0  0  0  0  0  0  0  0  0  0
   21.8112  -21.9956  -15.0038 O   0  0  0  0  0  0  0  0  0  0  0  0
   17.2151  -18.4347  -12.6165 O   0  0  0  0  0  0  0  0  0  0  0  0
   20.0534  -22.6071  -13.7378 O   0  0  0  0  0  0  0  0  0  0  0  0
  2  4  1  0
  2  1  1  1
  3  2  1  0
  4  5  1  1
  6  4  1  0
  6  7  2  0
  9  8  1  0
 10  9  1  0
 11 10  1  0
 12 11  1  1
 12 13  1  0
 13  6  1  0
 14 12  1  0
 14 16  1  0
 15 14  2  0
 17 16  1  0
 17 22  1  0
 17 18  1  6
 19 18  1  0
 20 19  1  0
 20 21  2  0
 22 23  2  0
 22 25  1  0
 24 20  1  0
M  END
$$$$
