VME.pdb
     RDKit          3D

 25 24  0  0  1  0  0  0  0  0999 V2000
   26.8645  -19.5408  -10.5960 C   0  0  0  0  0  0  0  0  0  0  0  0
   25.6675  -20.3477  -10.1816 C   0  0  2  0  0  0  0  0  0  0  0  0
   26.0254  -21.2343   -9.0264 C   0  0  0  0  0  0  0  0  0  0  0  0
   25.1664  -21.1262  -11.3824 C   0  0  2  0  0  0  0  0  0  0  0  0
   26.1672  -22.0635  -11.7983 N   0  0  0  0  0  0  0  0  0  0  0  0
   24.8027  -20.1448  -12.4377 C   0  0  0  0  0  0  0  0  0  0  0  0
   23.8335  -19.3850  -12.2131 O   0  0  0  0  0  0  0  0  0  0  0  0
   26.8217  -14.3544  -15.2930 C   0  0  0  0  0  0  0  0  0  0  0  0
   26.2488  -15.9596  -15.9174 S   0  0  0  0  0  0  0  0  0  0  0  0
   26.8118  -17.3276  -14.8666 C   0  0  0  0  0  0  0  0  0  0  0  0
   26.3110  -18.6136  -15.4724 C   0  0  0  0  0  0  0  0  0  0  0  0
   25.1089  -19.1638  -14.7463 C   0  0  2  0  0  0  0  0  0  0  0  0
   25.4885  -20.0238  -13.6745 N   0  0  0  0  0  0  0  0  0  0  0  0
   24.1810  -19.8046  -15.7118 C   0  0  0  0  0  0  0  0  0  0  0  0
   24.4638  -20.8292  -16.3799 O   0  0  0  0  0  0  0  0  0  0  0  0
   22.8870  -19.2504  -15.9160 N   0  0  0  0  0  0  0  0  0  0  0  0
   21.7380  -19.9994  -16.3102 C   0  0  1  0  0  0  0  0  0  0  0  0
   21.4268  -21.1419  -15.3714 C   0  0  0  0  0  0  0  0  0  0  0  0
   21.2114  -20.7041  -13.9644 C   0  0  0  0  0  0  0  0  0  0  0  0
   19.9551  -21.3093  -13.4616 C   0  0  0  0  0  0  0  0  0  0  0  0
   19.7931  -22.5533  -13.4968 O   0  0  0  0  0  0  0  0  0  0  0  0
   20.5920  -19.0710  -16.4479 C   0  0  0  0  0  0  0  0  0  0  0  0
   19.4709  -19.4186  -16.9016 O   0  0  0  0  0  0  0  0  0  0  0  0
   18.9164  -20.5353  -12.9366 O   0  0  0  0  0  0  0  0  0  0  0  0
   20.7258  -17.7461  -16.0679 O   0  0  0  0  0  0  0  0  0  0  0  0
  2  4  1  0
  2  1  1  6
  3  2  1  0
  4  5  1  6
  6  4  1  0
  6  7  2  0
  9  8  1  0
 10  9  1  0
 11 10  1  0
 12 11  1  6
 12 13  1  0
 13  6  1  0
 14 12  1  0
 14 16  1  0
 15 14  2  0
 17 16  1  0
 17 22  1  0
 17 18  1  1
 19 18  1  0
 20 19  1  0
 20 21  2  0
 22 23  2  0
 22 25  1  0
 24 20  1  0
M  END
$$$$
