VME.pdb
     RDKit          3D

 25 24  0  0  1  0  0  0  0  0999 V2000
   29.3683  -21.1046  -13.2115 C   0  0  0  0  0  0  0  0  0  0  0  0
   28.2026  -20.9203  -14.1402 C   0  0  2  0  0  0  0  0  0  0  0  0
   28.6498  -20.2158  -15.3861 C   0  0  0  0  0  0  0  0  0  0  0  0
   27.1090  -20.1700  -13.4051 C   0  0  2  0  0  0  0  0  0  0  0  0
   27.5057  -18.8060  -13.2175 N   0  0  0  0  0  0  0  0  0  0  0  0
   26.8462  -20.8883  -12.1307 C   0  0  0  0  0  0  0  0  0  0  0  0
   26.4502  -22.0735  -12.2047 O   0  0  0  0  0  0  0  0  0  0  0  0
   28.7512  -19.7474   -6.1230 C   0  0  0  0  0  0  0  0  0  0  0  0
   26.9887  -19.9643   -5.7473 S   0  0  0  0  0  0  0  0  0  0  0  0
   26.0502  -20.4848   -7.2105 C   0  0  0  0  0  0  0  0  0  0  0  0
   26.8535  -20.1165   -8.4314 C   0  0  0  0  0  0  0  0  0  0  0  0
   26.1910  -20.5578   -9.7126 C   0  0  2  0  0  0  0  0  0  0  0  0
   27.0181  -20.3083  -10.8467 N   0  0  0  0  0  0  0  0  0  0  0  0
   24.8427  -19.9467   -9.8244 C   0  0  0  0  0  0  0  0  0  0  0  0
   24.6316  -18.7092   -9.8106 O   0  0  0  0  0  0  0  0  0  0  0  0
   23.7006  -20.7843   -9.9564 N   0  0  0  0  0  0  0  0  0  0  0  0
   22.5436  -20.4611  -10.7268 C   0  0  1  0  0  0  0  0  0  0  0  0
   22.5923  -21.0211  -12.1294 C   0  0  0  0  0  0  0  0  0  0  0  0
   21.3633  -20.7338  -12.9198 C   0  0  0  0  0  0  0  0  0  0  0  0
   21.5763  -21.1827  -14.3164 C   0  0  0  0  0  0  0  0  0  0  0  0
   22.0275  -22.3301  -14.5509 O   0  0  0  0  0  0  0  0  0  0  0  0
   21.3421  -20.9192   -9.9915 C   0  0  0  0  0  0  0  0  0  0  0  0
   20.1977  -20.4236  -10.1594 O   0  0  0  0  0  0  0  0  0  0  0  0
   21.2894  -20.3631  -15.4116 O   0  0  0  0  0  0  0  0  0  0  0  0
   21.4470  -21.9427   -9.0646 O   0  0  0  0  0  0  0  0  0  0  0  0
  2  4  1  0
  2  1  1  1
  3  2  1  0
  4  5  1  1
  6  4  1  0
  6  7  2  0
  9  8  1  0
 10  9  1  0
 11 10  1  0
 12 11  1  1
 12 13  1  0
 13  6  1  0
 14 12  1  0
 14 16  1  0
 15 14  2  0
 17 16  1  0
 17 22  1  0
 17 18  1  6
 19 18  1  0
 20 19  1  0
 20 21  2  0
 22 23  2  0
 22 25  1  0
 24 20  1  0
M  END
$$$$
