VME.pdb
     RDKit          3D

 25 24  0  0  1  0  0  0  0  0999 V2000
   20.2611  -13.0221  -15.6881 C   0  0  0  0  0  0  0  0  0  0  0  0
   18.9969  -12.3165  -16.0875 C   0  0  2  0  0  0  0  0  0  0  0  0
   18.1360  -13.2350  -16.9023 C   0  0  0  0  0  0  0  0  0  0  0  0
   19.3627  -11.0464  -16.8303 C   0  0  2  0  0  0  0  0  0  0  0  0
   19.9550  -11.3816  -18.0913 N   0  0  0  0  0  0  0  0  0  0  0  0
   20.2586  -10.2505  -15.9510 C   0  0  0  0  0  0  0  0  0  0  0  0
   19.8406   -9.9622  -14.8068 O   0  0  0  0  0  0  0  0  0  0  0  0
   26.7504  -12.2370  -15.0548 C   0  0  0  0  0  0  0  0  0  0  0  0
   26.0898  -10.6427  -15.6173 S   0  0  0  0  0  0  0  0  0  0  0  0
   24.2986  -10.5272  -15.3506 C   0  0  0  0  0  0  0  0  0  0  0  0
   23.8433   -9.1765  -15.8406 C   0  0  0  0  0  0  0  0  0  0  0  0
   22.3795   -8.9294  -15.5738 C   0  0  2  0  0  0  0  0  0  0  0  0
   21.5500   -9.8041  -16.3351 N   0  0  0  0  0  0  0  0  0  0  0  0
   22.0608   -7.4939  -15.7778 C   0  0  0  0  0  0  0  0  0  0  0  0
   22.0664   -6.9279  -16.8983 O   0  0  0  0  0  0  0  0  0  0  0  0
   21.7248   -6.6831  -14.6583 N   0  0  0  0  0  0  0  0  0  0  0  0
   21.4723   -5.2799  -14.7212 C   0  0  1  0  0  0  0  0  0  0  0  0
   20.0031   -4.9392  -14.6274 C   0  0  0  0  0  0  0  0  0  0  0  0
   19.2227   -5.3701  -15.8203 C   0  0  0  0  0  0  0  0  0  0  0  0
   17.8062   -4.9747  -15.6341 C   0  0  0  0  0  0  0  0  0  0  0  0
   17.4648   -4.2929  -14.6373 O   0  0  0  0  0  0  0  0  0  0  0  0
   22.2626   -4.6088  -13.6633 C   0  0  0  0  0  0  0  0  0  0  0  0
   22.8625   -5.2306  -12.7485 O   0  0  0  0  0  0  0  0  0  0  0  0
   16.8086   -5.3373  -16.5434 O   0  0  0  0  0  0  0  0  0  0  0  0
   22.3680   -3.2281  -13.6496 O   0  0  0  0  0  0  0  0  0  0  0  0
  2  4  1  0
  2  1  1  6
  3  2  1  0
  4  5  1  6
  6  4  1  0
  6  7  2  0
  9  8  1  0
 10  9  1  0
 11 10  1  0
 12 11  1  6
 12 13  1  0
 13  6  1  0
 14 12  1  0
 14 16  1  0
 15 14  2  0
 17 16  1  0
 17 22  1  0
 17 18  1  1
 19 18  1  0
 20 19  1  0
 20 21  2  0
 22 23  2  0
 22 25  1  0
 24 20  1  0
M  END
$$$$
