VME.pdb
     RDKit          3D

 25 24  0  0  1  0  0  0  0  0999 V2000
   21.2355  -13.5849  -15.6687 C   0  0  0  0  0  0  0  0  0  0  0  0
   20.0125  -13.0358  -16.3460 C   0  0  2  0  0  0  0  0  0  0  0  0
   19.3078  -14.1298  -17.0910 C   0  0  0  0  0  0  0  0  0  0  0  0
   20.4289  -11.8895  -17.2469 C   0  0  2  0  0  0  0  0  0  0  0  0
   21.1717  -12.4000  -18.3608 N   0  0  0  0  0  0  0  0  0  0  0  0
   21.1960  -10.9209  -16.4207 C   0  0  0  0  0  0  0  0  0  0  0  0
   20.6220  -10.4278  -15.4235 O   0  0  0  0  0  0  0  0  0  0  0  0
   27.7617  -12.6202  -15.1668 C   0  0  0  0  0  0  0  0  0  0  0  0
   27.0264  -11.1464  -15.9295 S   0  0  0  0  0  0  0  0  0  0  0  0
   25.2682  -10.9815  -15.5117 C   0  0  0  0  0  0  0  0  0  0  0  0
   24.7554   -9.7188  -16.1554 C   0  0  0  0  0  0  0  0  0  0  0  0
   23.2679   -9.5437  -15.9777 C   0  0  2  0  0  0  0  0  0  0  0  0
   22.5314  -10.5286  -16.6989 N   0  0  0  0  0  0  0  0  0  0  0  0
   22.8755   -8.1528  -16.3173 C   0  0  0  0  0  0  0  0  0  0  0  0
   22.8923   -7.6853  -17.4823 O   0  0  0  0  0  0  0  0  0  0  0  0
   22.4502   -7.2711  -15.2853 N   0  0  0  0  0  0  0  0  0  0  0  0
   21.9798   -5.9408  -15.4992 C   0  0  1  0  0  0  0  0  0  0  0  0
   20.5449   -5.8901  -15.9705 C   0  0  0  0  0  0  0  0  0  0  0  0
   20.0276   -4.5028  -16.1299 C   0  0  0  0  0  0  0  0  0  0  0  0
   18.6253   -4.5665  -16.6062 C   0  0  0  0  0  0  0  0  0  0  0  0
   17.6871   -4.7422  -15.7914 O   0  0  0  0  0  0  0  0  0  0  0  0
   22.1794   -5.1623  -14.2549 C   0  0  0  0  0  0  0  0  0  0  0  0
   22.4545   -5.6893  -13.1459 O   0  0  0  0  0  0  0  0  0  0  0  0
   18.2937   -4.4361  -17.9578 O   0  0  0  0  0  0  0  0  0  0  0  0
   22.0646   -3.7824  -14.2766 O   0  0  0  0  0  0  0  0  0  0  0  0
  2  4  1  0
  2  1  1  6
  3  2  1  0
  4  5  1  6
  6  4  1  0
  6  7  2  0
  9  8  1  0
 10  9  1  0
 11 10  1  0
 12 11  1  6
 12 13  1  0
 13  6  1  0
 14 12  1  0
 14 16  1  0
 15 14  2  0
 17 16  1  0
 17 22  1  0
 17 18  1  1
 19 18  1  0
 20 19  1  0
 20 21  2  0
 22 23  2  0
 22 25  1  0
 24 20  1  0
M  END
$$$$
