VME.pdb
     RDKit          3D

 25 24  0  0  1  0  0  0  0  0999 V2000
   20.7285  -13.5709  -18.6133 C   0  0  0  0  0  0  0  0  0  0  0  0
   19.5351  -12.7249  -18.9534 C   0  0  2  0  0  0  0  0  0  0  0  0
   18.9092  -13.2140  -20.2252 C   0  0  0  0  0  0  0  0  0  0  0  0
   19.9743  -11.2760  -19.0377 C   0  0  2  0  0  0  0  0  0  0  0  0
   20.8668  -11.1088  -20.1461 N   0  0  0  0  0  0  0  0  0  0  0  0
   20.5817  -10.9111  -17.7312 C   0  0  0  0  0  0  0  0  0  0  0  0
   19.8459  -10.9494  -16.7192 O   0  0  0  0  0  0  0  0  0  0  0  0
   24.9805  -14.8903  -15.2648 C   0  0  0  0  0  0  0  0  0  0  0  0
   25.1495  -13.0948  -15.4703 S   0  0  0  0  0  0  0  0  0  0  0  0
   23.5476  -12.3019  -15.7833 C   0  0  0  0  0  0  0  0  0  0  0  0
   23.7976  -10.8379  -16.0403 C   0  0  0  0  0  0  0  0  0  0  0  0
   22.5299  -10.0822  -16.3515 C   0  0  2  0  0  0  0  0  0  0  0  0
   21.9381  -10.5250  -17.5707 N   0  0  0  0  0  0  0  0  0  0  0  0
   22.7890   -8.6207  -16.3225 C   0  0  0  0  0  0  0  0  0  0  0  0
   23.2686   -7.9755  -17.2867 O   0  0  0  0  0  0  0  0  0  0  0  0
   22.4874   -7.8771  -15.1480 N   0  0  0  0  0  0  0  0  0  0  0  0
   22.5173   -6.4530  -15.0609 C   0  0  1  0  0  0  0  0  0  0  0  0
   21.6987   -5.7780  -16.1368 C   0  0  0  0  0  0  0  0  0  0  0  0
   21.7079   -4.2921  -16.0368 C   0  0  0  0  0  0  0  0  0  0  0  0
   20.7117   -3.7422  -16.9869 C   0  0  0  0  0  0  0  0  0  0  0  0
   20.0322   -4.5123  -17.7082 O   0  0  0  0  0  0  0  0  0  0  0  0
   22.0811   -6.0524  -13.7032 C   0  0  0  0  0  0  0  0  0  0  0  0
   21.4492   -6.8148  -12.9267 O   0  0  0  0  0  0  0  0  0  0  0  0
   20.4904   -2.3683  -17.1179 O   0  0  0  0  0  0  0  0  0  0  0  0
   22.3659   -4.7817  -13.2321 O   0  0  0  0  0  0  0  0  0  0  0  0
  2  4  1  0
  2  1  1  6
  3  2  1  0
  4  5  1  6
  6  4  1  0
  6  7  2  0
  9  8  1  0
 10  9  1  0
 11 10  1  0
 12 11  1  6
 12 13  1  0
 13  6  1  0
 14 12  1  0
 14 16  1  0
 15 14  2  0
 17 16  1  0
 17 22  1  0
 17 18  1  6
 19 18  1  0
 20 19  1  0
 20 21  2  0
 22 23  2  0
 22 25  1  0
 24 20  1  0
M  END
$$$$
