VME.pdb
     RDKit          3D

 25 24  0  0  1  0  0  0  0  0999 V2000
   20.3667  -21.8865  -12.0067 C   0  0  0  0  0  0  0  0  0  0  0  0
   21.6954  -21.3135  -12.4089 C   0  0  2  0  0  0  0  0  0  0  0  0
   22.3328  -22.1853  -13.4493 C   0  0  0  0  0  0  0  0  0  0  0  0
   22.5544  -21.1602  -11.1688 C   0  0  2  0  0  0  0  0  0  0  0  0
   21.8853  -20.3173  -10.2228 N   0  0  0  0  0  0  0  0  0  0  0  0
   23.8764  -20.6328  -11.5970 C   0  0  0  0  0  0  0  0  0  0  0  0
   23.9455  -19.4206  -11.9016 O   0  0  0  0  0  0  0  0  0  0  0  0
   31.7292  -21.4120  -11.1033 C   0  0  0  0  0  0  0  0  0  0  0  0
   30.0359  -21.8314  -10.6017 S   0  0  0  0  0  0  0  0  0  0  0  0
   28.8038  -21.0499  -11.6804 C   0  0  0  0  0  0  0  0  0  0  0  0
   27.4396  -21.5124  -11.2369 C   0  0  0  0  0  0  0  0  0  0  0  0
   26.3331  -20.9519  -12.0951 C   0  0  2  0  0  0  0  0  0  0  0  0
   25.0533  -21.4219  -11.6784 N   0  0  0  0  0  0  0  0  0  0  0  0
   26.6172  -21.2169  -13.5279 C   0  0  0  0  0  0  0  0  0  0  0  0
   26.6416  -22.3646  -14.0362 O   0  0  0  0  0  0  0  0  0  0  0  0
   26.8814  -20.1283  -14.4046 N   0  0  0  0  0  0  0  0  0  0  0  0
   26.9127  -20.2239  -15.8282 C   0  0  1  0  0  0  0  0  0  0  0  0
   25.7065  -19.5978  -16.4890 C   0  0  0  0  0  0  0  0  0  0  0  0
   24.5526  -20.5313  -16.6110 C   0  0  0  0  0  0  0  0  0  0  0  0
   23.3268  -19.7441  -16.8849 C   0  0  0  0  0  0  0  0  0  0  0  0
   23.2708  -18.5300  -16.5719 O   0  0  0  0  0  0  0  0  0  0  0  0
   28.1790  -19.6291  -16.3150 C   0  0  0  0  0  0  0  0  0  0  0  0
   28.5167  -18.4387  -16.0866 O   0  0  0  0  0  0  0  0  0  0  0  0
   22.2018  -20.3092  -17.4920 O   0  0  0  0  0  0  0  0  0  0  0  0
   29.0594  -20.3932  -17.0625 O   0  0  0  0  0  0  0  0  0  0  0  0
  2  4  1  0
  2  1  1  1
  3  2  1  0
  4  5  1  1
  6  4  1  0
  6  7  2  0
  9  8  1  0
 10  9  1  0
 11 10  1  0
 12 11  1  1
 12 13  1  0
 13  6  1  0
 14 12  1  0
 14 16  1  0
 15 14  2  0
 17 16  1  0
 17 22  1  0
 17 18  1  6
 19 18  1  0
 20 19  1  0
 20 21  2  0
 22 23  2  0
 22 25  1  0
 24 20  1  0
M  END
$$$$
