FNL.pdb
     RDKit          3D

 28 28  0  0  1  0  0  0  0  0999 V2000
   31.5215  -29.2499    4.3451 N   0  0  0  0  0  0  0  0  0  0  0  0
   32.1535  -27.9700    4.0082 C   0  0  1  0  0  0  0  0  0  0  0  0
   31.1912  -26.9046    4.5054 C   0  0  0  0  0  0  0  0  0  0  0  0
   30.0222  -26.7427    3.5942 C   0  0  0  0  0  0  0  0  0  0  0  0
   28.7701  -27.1988    3.9985 C   0  0  0  0  0  0  0  0  0  0  0  0
   27.6549  -27.0655    3.1802 C   0  0  0  0  0  0  0  0  0  0  0  0
   27.7555  -26.4781    1.9440 C   0  0  0  0  0  0  0  0  0  0  0  0
   29.0001  -26.0257    1.5445 C   0  0  0  0  0  0  0  0  0  0  0  0
   30.1217  -26.1515    2.3508 C   0  0  0  0  0  0  0  0  0  0  0  0
   33.4725  -27.8661    4.6584 C   0  0  0  0  0  0  0  0  0  0  0  0
   33.6429  -28.4518    5.7353 O   0  0  0  0  0  0  0  0  0  0  0  0
   38.3175  -29.0075    4.3214 N   0  0  0  0  0  0  0  0  0  0  0  0
   37.2034  -28.4462    3.6583 C   0  0  0  0  0  0  0  0  0  0  0  0
   36.4589  -29.1610    2.9254 O   0  0  0  0  0  0  0  0  0  0  0  0
   36.8924  -27.0195    3.8115 C   0  0  0  0  0  0  0  0  0  0  0  0
   35.7340  -26.8135    4.8192 C   0  0  2  0  0  0  0  0  0  0  0  0
   34.5244  -27.1304    4.0927 N   0  0  0  0  0  0  0  0  0  0  0  0
   35.7853  -25.4097    5.2900 C   0  0  0  0  0  0  0  0  0  0  0  0
   35.3159  -24.5598    4.4431 O   0  0  0  0  0  0  0  0  0  0  0  0
   32.8762  -21.9036    7.7536 C   0  0  0  0  0  0  0  0  0  0  0  0
   34.3736  -22.0466    7.7691 C   0  0  1  0  0  0  0  0  0  0  0  0
   34.9481  -21.7372    9.1395 C   0  0  0  0  0  0  0  0  0  0  0  0
   34.8416  -23.2997    7.1903 C   0  0  0  0  0  0  0  0  0  0  0  0
   36.2578  -23.5866    6.9384 C   0  0  2  0  0  0  0  0  0  0  0  0
   36.2891  -25.0117    6.5299 N   0  0  0  0  0  0  0  0  0  0  0  0
   37.2584  -23.4196    7.9654 C   0  0  0  0  0  0  0  0  0  0  0  0
   37.6221  -24.5431    8.7428 O   0  0  0  0  0  0  0  0  0  0  0  0
   37.8852  -22.3759    8.2864 O   0  0  0  0  0  0  0  0  0  0  0  0
  2  1  1  1
  2  3  1  0
  3  4  1  0
  4  5  2  0
  5  6  1  0
  7  6  2  0
  8  7  1  0
  9  4  1  0
  9  8  2  0
 10 11  2  0
 10  2  1  0
 13 12  1  0
 14 13  2  0
 15 13  1  0
 16 15  1  6
 16 17  1  0
 17 10  1  0
 18 16  1  0
 18 25  1  0
 19 18  2  0
 21 20  1  1
 21 22  1  0
 23 21  1  0
 24 25  1  0
 24 23  1  1
 26 24  1  0
 27 26  1  0
 28 26  2  0
M  END
$$$$
