FNL.pdb
     RDKit          3D

 28 28  0  0  1  0  0  0  0  0999 V2000
   24.3367  -27.1055   11.6580 N   0  0  0  0  0  0  0  0  0  0  0  0
   25.6552  -27.1554   11.0175 C   0  0  1  0  0  0  0  0  0  0  0  0
   25.4118  -26.7696    9.5684 C   0  0  0  0  0  0  0  0  0  0  0  0
   26.6713  -26.7829    8.7705 C   0  0  0  0  0  0  0  0  0  0  0  0
   27.4024  -25.6067    8.6248 C   0  0  0  0  0  0  0  0  0  0  0  0
   28.5822  -25.5767    7.8910 C   0  0  0  0  0  0  0  0  0  0  0  0
   29.0631  -26.7105    7.2856 C   0  0  0  0  0  0  0  0  0  0  0  0
   28.3353  -27.8776    7.4316 C   0  0  0  0  0  0  0  0  0  0  0  0
   27.1566  -27.9226    8.1614 C   0  0  0  0  0  0  0  0  0  0  0  0
   26.5822  -26.2241   11.6860 C   0  0  0  0  0  0  0  0  0  0  0  0
   26.1801  -25.0830   11.9467 O   0  0  0  0  0  0  0  0  0  0  0  0
   29.4460  -29.1328   13.6594 N   0  0  0  0  0  0  0  0  0  0  0  0
   28.9226  -27.8633   13.9919 C   0  0  0  0  0  0  0  0  0  0  0  0
   27.8177  -27.7580   14.6003 O   0  0  0  0  0  0  0  0  0  0  0  0
   29.6571  -26.6432   13.6346 C   0  0  0  0  0  0  0  0  0  0  0  0
   28.7884  -25.7178   12.7463 C   0  0  2  0  0  0  0  0  0  0  0  0
   27.8904  -26.5961   12.0298 N   0  0  0  0  0  0  0  0  0  0  0  0
   29.6973  -24.9561   11.8583 C   0  0  0  0  0  0  0  0  0  0  0  0
   30.1953  -25.6574   10.8991 O   0  0  0  0  0  0  0  0  0  0  0  0
   28.7261  -19.8336   10.3626 C   0  0  0  0  0  0  0  0  0  0  0  0
   29.1576  -21.2691   10.2367 C   0  0  1  0  0  0  0  0  0  0  0  0
   29.1360  -21.7320    8.7913 C   0  0  0  0  0  0  0  0  0  0  0  0
   30.3969  -21.5655   10.9441 C   0  0  0  0  0  0  0  0  0  0  0  0
   30.9347  -22.9228   11.0845 C   0  0  2  0  0  0  0  0  0  0  0  0
   30.0061  -23.6038   12.0186 N   0  0  0  0  0  0  0  0  0  0  0  0
   32.2728  -23.1603   11.5713 C   0  0  0  0  0  0  0  0  0  0  0  0
   32.4333  -23.7182   12.8605 O   0  0  0  0  0  0  0  0  0  0  0  0
   33.3684  -22.9358   10.9929 O   0  0  0  0  0  0  0  0  0  0  0  0
  2  1  1  1
  2  3  1  0
  3  4  1  0
  4  5  2  0
  5  6  1  0
  7  6  2  0
  8  7  1  0
  9  4  1  0
  9  8  2  0
 10 11  2  0
 10  2  1  0
 13 12  1  0
 14 13  2  0
 15 13  1  0
 16 15  1  1
 16 17  1  0
 17 10  1  0
 18 16  1  0
 18 25  1  0
 19 18  2  0
 21 20  1  6
 21 22  1  0
 23 21  1  0
 24 25  1  0
 24 23  1  1
 26 24  1  0
 27 26  1  0
 28 26  2  0
M  END
$$$$
