FNL.pdb
     RDKit          3D

 28 28  0  0  1  0  0  0  0  0999 V2000
   30.1352  -20.8188  -14.1855 N   0  0  0  0  0  0  0  0  0  0  0  0
   29.0165  -21.2381  -13.3348 C   0  0  1  0  0  0  0  0  0  0  0  0
   29.2574  -20.5639  -11.9948 C   0  0  0  0  0  0  0  0  0  0  0  0
   30.4401  -21.1355  -11.2895 C   0  0  0  0  0  0  0  0  0  0  0  0
   30.2928  -22.2968  -10.5352 C   0  0  0  0  0  0  0  0  0  0  0  0
   31.3701  -22.8627   -9.8641 C   0  0  0  0  0  0  0  0  0  0  0  0
   32.6161  -22.2909   -9.9252 C   0  0  0  0  0  0  0  0  0  0  0  0
   32.7602  -21.1375  -10.6749 C   0  0  0  0  0  0  0  0  0  0  0  0
   31.6942  -20.5618  -11.3505 C   0  0  0  0  0  0  0  0  0  0  0  0
   27.7357  -20.8242  -13.9361 C   0  0  0  0  0  0  0  0  0  0  0  0
   27.5890  -19.6338  -14.2412 O   0  0  0  0  0  0  0  0  0  0  0  0
   26.5408  -23.0535  -17.4477 N   0  0  0  0  0  0  0  0  0  0  0  0
   25.7503  -22.0192  -16.8987 C   0  0  0  0  0  0  0  0  0  0  0  0
   25.7276  -20.8706  -17.4302 O   0  0  0  0  0  0  0  0  0  0  0  0
   24.9405  -22.2640  -15.6988 C   0  0  0  0  0  0  0  0  0  0  0  0
   25.3627  -21.3180  -14.5470 C   0  0  2  0  0  0  0  0  0  0  0  0
   26.6946  -21.7353  -14.1685 N   0  0  0  0  0  0  0  0  0  0  0  0
   24.3709  -21.4595  -13.4557 C   0  0  0  0  0  0  0  0  0  0  0  0
   24.0338  -22.6794  -13.2144 O   0  0  0  0  0  0  0  0  0  0  0  0
   25.2979  -19.8637   -8.7435 C   0  0  0  0  0  0  0  0  0  0  0  0
   24.7773  -20.6209   -9.9344 C   0  0  1  0  0  0  0  0  0  0  0  0
   24.7924  -22.1191   -9.6915 C   0  0  0  0  0  0  0  0  0  0  0  0
   23.5103  -20.1068  -10.4390 C   0  0  0  0  0  0  0  0  0  0  0  0
   22.8570  -20.6277  -11.6445 C   0  0  2  0  0  0  0  0  0  0  0  0
   23.8319  -20.3911  -12.7364 N   0  0  0  0  0  0  0  0  0  0  0  0
   21.5846  -20.1173  -12.0965 C   0  0  0  0  0  0  0  0  0  0  0  0
   20.4110  -20.5489  -11.4366 O   0  0  0  0  0  0  0  0  0  0  0  0
   21.3529  -19.3075  -13.0323 O   0  0  0  0  0  0  0  0  0  0  0  0
  2  1  1  6
  2  3  1  0
  3  4  1  0
  4  5  2  0
  5  6  1  0
  7  6  2  0
  8  7  1  0
  9  4  1  0
  9  8  2  0
 10 11  2  0
 10  2  1  0
 13 12  1  0
 14 13  2  0
 15 13  1  0
 16 15  1  6
 16 17  1  0
 17 10  1  0
 18 16  1  0
 18 25  1  0
 19 18  2  0
 21 20  1  1
 21 22  1  0
 23 21  1  0
 24 25  1  0
 24 23  1  1
 26 24  1  0
 27 26  1  0
 28 26  2  0
M  END
$$$$
