FNL.pdb
     RDKit          3D

 28 28  0  0  1  0  0  0  0  0999 V2000
   28.3838  -20.5544  -15.4175 N   0  0  0  0  0  0  0  0  0  0  0  0
   28.6850  -20.9301  -14.0321 C   0  0  1  0  0  0  0  0  0  0  0  0
   30.0890  -20.4110  -13.7723 C   0  0  0  0  0  0  0  0  0  0  0  0
   30.6622  -20.9652  -12.5125 C   0  0  0  0  0  0  0  0  0  0  0  0
   31.2348  -22.2346  -12.5207 C   0  0  0  0  0  0  0  0  0  0  0  0
   31.7817  -22.7869  -11.3686 C   0  0  0  0  0  0  0  0  0  0  0  0
   31.7729  -22.0944  -10.1838 C   0  0  0  0  0  0  0  0  0  0  0  0
   31.2036  -20.8338  -10.1780 C   0  0  0  0  0  0  0  0  0  0  0  0
   30.6547  -20.2697  -11.3201 C   0  0  0  0  0  0  0  0  0  0  0  0
   27.6986  -20.3301  -13.1153 C   0  0  0  0  0  0  0  0  0  0  0  0
   27.5138  -19.1076  -13.1715 O   0  0  0  0  0  0  0  0  0  0  0  0
   24.1524  -20.9771  -14.2137 N   0  0  0  0  0  0  0  0  0  0  0  0
   24.2939  -20.2500  -13.0106 C   0  0  0  0  0  0  0  0  0  0  0  0
   24.1322  -18.9948  -12.9903 O   0  0  0  0  0  0  0  0  0  0  0  0
   24.6317  -20.9441  -11.7617 C   0  0  0  0  0  0  0  0  0  0  0  0
   26.0351  -20.5223  -11.2595 C   0  0  2  0  0  0  0  0  0  0  0  0
   26.9740  -21.1015  -12.1946 N   0  0  0  0  0  0  0  0  0  0  0  0
   26.1948  -21.0300   -9.8769 C   0  0  0  0  0  0  0  0  0  0  0  0
   26.2849  -22.3130   -9.8013 O   0  0  0  0  0  0  0  0  0  0  0  0
   28.4200  -18.4855   -5.5405 C   0  0  0  0  0  0  0  0  0  0  0  0
   28.0137  -19.6613   -6.3862 C   0  0  1  0  0  0  0  0  0  0  0  0
   28.7947  -20.9092   -6.0164 C   0  0  0  0  0  0  0  0  0  0  0  0
   26.5707  -19.8541   -6.4551 C   0  0  0  0  0  0  0  0  0  0  0  0
   25.9291  -20.7728   -7.4015 C   0  0  2  0  0  0  0  0  0  0  0  0
   26.2463  -20.2204   -8.7405 N   0  0  0  0  0  0  0  0  0  0  0  0
   24.5069  -21.0183   -7.3721 C   0  0  0  0  0  0  0  0  0  0  0  0
   24.0059  -21.9777   -6.4625 O   0  0  0  0  0  0  0  0  0  0  0  0
   23.6044  -20.4806   -8.0662 O   0  0  0  0  0  0  0  0  0  0  0  0
  2  1  1  6
  2  3  1  0
  3  4  1  0
  4  5  2  0
  5  6  1  0
  7  6  2  0
  8  7  1  0
  9  4  1  0
  9  8  2  0
 10 11  2  0
 10  2  1  0
 13 12  1  0
 14 13  2  0
 15 13  1  0
 16 15  1  6
 16 17  1  0
 17 10  1  0
 18 16  1  0
 18 25  1  0
 19 18  2  0
 21 20  1  1
 21 22  1  0
 23 21  1  0
 24 25  1  0
 24 23  1  1
 26 24  1  0
 27 26  1  0
 28 26  2  0
M  END
$$$$
