FNL.pdb
     RDKit          3D

 28 28  0  0  1  0  0  0  0  0999 V2000
   15.5222  -15.1989    4.7628 N   0  0  0  0  0  0  0  0  0  0  0  0
   16.5222  -16.1294    4.2287 C   0  0  1  0  0  0  0  0  0  0  0  0
   17.8470  -15.6757    4.8180 C   0  0  0  0  0  0  0  0  0  0  0  0
   18.3855  -14.4754    4.1163 C   0  0  0  0  0  0  0  0  0  0  0  0
   18.5832  -13.2960    4.8297 C   0  0  0  0  0  0  0  0  0  0  0  0
   19.0848  -12.1557    4.2138 C   0  0  0  0  0  0  0  0  0  0  0  0
   19.4010  -12.1586    2.8784 C   0  0  0  0  0  0  0  0  0  0  0  0
   19.2038  -13.3312    2.1717 C   0  0  0  0  0  0  0  0  0  0  0  0
   18.7046  -14.4771    2.7732 C   0  0  0  0  0  0  0  0  0  0  0  0
   16.1916  -17.5121    4.6191 C   0  0  0  0  0  0  0  0  0  0  0  0
   15.4208  -17.6838    5.5720 O   0  0  0  0  0  0  0  0  0  0  0  0
   14.6171  -20.1885    2.6230 N   0  0  0  0  0  0  0  0  0  0  0  0
   15.7939  -20.9126    2.3283 C   0  0  0  0  0  0  0  0  0  0  0  0
   15.8923  -21.5791    1.2567 O   0  0  0  0  0  0  0  0  0  0  0  0
   16.9239  -20.9016    3.2656 C   0  0  0  0  0  0  0  0  0  0  0  0
   16.6338  -19.9676    4.4669 C   0  0  2  0  0  0  0  0  0  0  0  0
   16.7218  -18.6220    3.9446 N   0  0  0  0  0  0  0  0  0  0  0  0
   17.6363  -20.2555    5.5191 C   0  0  0  0  0  0  0  0  0  0  0  0
   18.6570  -19.4697    5.4938 O   0  0  0  0  0  0  0  0  0  0  0  0
   20.4395  -20.5020    9.7183 C   0  0  0  0  0  0  0  0  0  0  0  0
   18.9930  -20.0908    9.6828 C   0  0  1  0  0  0  0  0  0  0  0  0
   18.7842  -18.7333   10.3290 C   0  0  0  0  0  0  0  0  0  0  0  0
   18.3836  -20.2296    8.3662 C   0  0  0  0  0  0  0  0  0  0  0  0
   18.5240  -21.4339    7.5409 C   0  0  2  0  0  0  0  0  0  0  0  0
   17.5162  -21.2757    6.4648 N   0  0  0  0  0  0  0  0  0  0  0  0
   18.3473  -22.7555    8.0940 C   0  0  0  0  0  0  0  0  0  0  0  0
   17.0417  -23.2953    8.1494 O   0  0  0  0  0  0  0  0  0  0  0  0
   19.2218  -23.5356    8.5544 O   0  0  0  0  0  0  0  0  0  0  0  0
  2  1  1  1
  2  3  1  0
  3  4  1  0
  4  5  2  0
  5  6  1  0
  7  6  2  0
  8  7  1  0
  9  4  1  0
  9  8  2  0
 10 11  2  0
 10  2  1  0
 13 12  1  0
 14 13  2  0
 15 13  1  0
 16 15  1  6
 16 17  1  0
 17 10  1  0
 18 16  1  0
 18 25  1  0
 19 18  2  0
 21 20  1  6
 21 22  1  0
 23 21  1  0
 24 25  1  0
 24 23  1  1
 26 24  1  0
 27 26  1  0
 28 26  2  0
M  END
$$$$
