FNL.pdb
     RDKit          3D

 28 28  0  0  1  0  0  0  0  0999 V2000
   23.9339   -9.6696  -17.2962 N   0  0  0  0  0  0  0  0  0  0  0  0
   22.9104   -9.8483  -16.2610 C   0  0  1  0  0  0  0  0  0  0  0  0
   23.4630  -10.9150  -15.3310 C   0  0  0  0  0  0  0  0  0  0  0  0
   24.9369  -11.0783  -15.4860 C   0  0  0  0  0  0  0  0  0  0  0  0
   25.7879  -10.0652  -15.0517 C   0  0  0  0  0  0  0  0  0  0  0  0
   27.1674  -10.1788  -15.1763 C   0  0  0  0  0  0  0  0  0  0  0  0
   27.7337  -11.2976  -15.7338 C   0  0  0  0  0  0  0  0  0  0  0  0
   26.8865  -12.3026  -16.1645 C   0  0  0  0  0  0  0  0  0  0  0  0
   25.5080  -12.2033  -16.0460 C   0  0  0  0  0  0  0  0  0  0  0  0
   22.6701   -8.5757  -15.5567 C   0  0  0  0  0  0  0  0  0  0  0  0
   23.6476   -7.8793  -15.2546 O   0  0  0  0  0  0  0  0  0  0  0  0
   22.0911   -3.5718  -14.9672 N   0  0  0  0  0  0  0  0  0  0  0  0
   21.1007   -4.4590  -15.4446 C   0  0  0  0  0  0  0  0  0  0  0  0
   19.8957   -4.0866  -15.5519 O   0  0  0  0  0  0  0  0  0  0  0  0
   21.4576   -5.8315  -15.8248 C   0  0  0  0  0  0  0  0  0  0  0  0
   21.1107   -6.8256  -14.6885 C   0  0  2  0  0  0  0  0  0  0  0  0
   21.3778   -8.1411  -15.2265 N   0  0  0  0  0  0  0  0  0  0  0  0
   19.6904   -6.6188  -14.3215 C   0  0  0  0  0  0  0  0  0  0  0  0
   18.8604   -6.9427  -15.2522 O   0  0  0  0  0  0  0  0  0  0  0  0
   15.4997   -7.4024  -11.1241 C   0  0  0  0  0  0  0  0  0  0  0  0
   16.4559   -6.3576  -10.6174 C   0  0  1  0  0  0  0  0  0  0  0  0
   16.6040   -6.4236   -9.1082 C   0  0  0  0  0  0  0  0  0  0  0  0
   17.7189   -6.3271  -11.3442 C   0  0  0  0  0  0  0  0  0  0  0  0
   17.8122   -6.0267  -12.7768 C   0  0  2  0  0  0  0  0  0  0  0  0
   19.2584   -6.1211  -13.0905 N   0  0  0  0  0  0  0  0  0  0  0  0
   17.3432   -4.7741  -13.3197 C   0  0  0  0  0  0  0  0  0  0  0  0
   16.0560   -4.7307  -13.9031 O   0  0  0  0  0  0  0  0  0  0  0  0
   17.9353   -3.6634  -13.3519 O   0  0  0  0  0  0  0  0  0  0  0  0
  2  1  1  6
  2  3  1  0
  3  4  1  0
  4  5  2  0
  5  6  1  0
  7  6  2  0
  8  7  1  0
  9  4  1  0
  9  8  2  0
 10 11  2  0
 10  2  1  0
 13 12  1  0
 14 13  2  0
 15 13  1  0
 16 15  1  6
 16 17  1  0
 17 10  1  0
 18 16  1  0
 18 25  1  0
 19 18  2  0
 21 20  1  6
 21 22  1  0
 23 21  1  0
 24 25  1  0
 24 23  1  1
 26 24  1  0
 27 26  1  0
 28 26  2  0
M  END
$$$$
