FNL.pdb
     RDKit          3D

 28 28  0  0  1  0  0  0  0  0999 V2000
   27.8856  -19.6975  -20.3717 N   0  0  0  0  0  0  0  0  0  0  0  0
   27.2320  -18.9874  -19.2674 C   0  0  1  0  0  0  0  0  0  0  0  0
   27.8102  -17.5828  -19.2961 C   0  0  0  0  0  0  0  0  0  0  0  0
   29.2710  -17.5769  -18.9977 C   0  0  0  0  0  0  0  0  0  0  0  0
   29.7123  -17.9380  -17.7272 C   0  0  0  0  0  0  0  0  0  0  0  0
   31.0649  -17.9474  -17.4088 C   0  0  0  0  0  0  0  0  0  0  0  0
   32.0096  -17.5990  -18.3413 C   0  0  0  0  0  0  0  0  0  0  0  0
   31.5691  -17.2406  -19.6026 C   0  0  0  0  0  0  0  0  0  0  0  0
   30.2225  -17.2273  -19.9348 C   0  0  0  0  0  0  0  0  0  0  0  0
   25.7701  -18.9840  -19.4578 C   0  0  0  0  0  0  0  0  0  0  0  0
   25.3289  -19.0764  -20.6105 O   0  0  0  0  0  0  0  0  0  0  0  0
   20.7580  -19.5209  -18.4993 N   0  0  0  0  0  0  0  0  0  0  0  0
   21.4915  -19.9683  -17.3777 C   0  0  0  0  0  0  0  0  0  0  0  0
   20.9305  -20.6415  -16.4643 O   0  0  0  0  0  0  0  0  0  0  0  0
   22.9211  -19.6571  -17.2561 C   0  0  0  0  0  0  0  0  0  0  0  0
   23.4453  -18.9659  -18.5396 C   0  0  2  0  0  0  0  0  0  0  0  0
   24.8799  -18.8813  -18.3785 N   0  0  0  0  0  0  0  0  0  0  0  0
   22.7873  -17.6427  -18.6444 C   0  0  0  0  0  0  0  0  0  0  0  0
   23.0658  -16.8450  -17.6717 O   0  0  0  0  0  0  0  0  0  0  0  0
   19.1193  -14.6818  -22.0236 C   0  0  0  0  0  0  0  0  0  0  0  0
   20.0085  -15.8912  -21.9255 C   0  0  1  0  0  0  0  0  0  0  0  0
   20.1795  -16.5672  -23.2737 C   0  0  0  0  0  0  0  0  0  0  0  0
   21.2573  -15.6360  -21.2187 C   0  0  0  0  0  0  0  0  0  0  0  0
   21.4284  -15.8752  -19.7818 C   0  0  2  0  0  0  0  0  0  0  0  0
   21.9390  -17.2641  -19.6868 N   0  0  0  0  0  0  0  0  0  0  0  0
   20.3230  -15.7678  -18.8596 C   0  0  0  0  0  0  0  0  0  0  0  0
   19.8251  -16.9484  -18.2618 O   0  0  0  0  0  0  0  0  0  0  0  0
   19.7086  -14.7328  -18.4901 O   0  0  0  0  0  0  0  0  0  0  0  0
  2  1  1  6
  2  3  1  0
  3  4  1  0
  4  5  2  0
  5  6  1  0
  7  6  2  0
  8  7  1  0
  9  4  1  0
  9  8  2  0
 10 11  2  0
 10  2  1  0
 13 12  1  0
 14 13  2  0
 15 13  1  0
 16 15  1  1
 16 17  1  0
 17 10  1  0
 18 16  1  0
 18 25  1  0
 19 18  2  0
 21 20  1  6
 21 22  1  0
 23 21  1  0
 24 25  1  0
 24 23  1  6
 26 24  1  0
 27 26  1  0
 28 26  2  0
M  END
$$$$
