FNL.pdb
     RDKit          3D

 28 28  0  0  1  0  0  0  0  0999 V2000
   28.1868  -21.9928  -11.8588 N   0  0  0  0  0  0  0  0  0  0  0  0
   26.8644  -21.4967  -11.4638 C   0  0  1  0  0  0  0  0  0  0  0  0
   27.1165  -20.1320  -10.8456 C   0  0  0  0  0  0  0  0  0  0  0  0
   27.4749  -20.2333   -9.4019 C   0  0  0  0  0  0  0  0  0  0  0  0
   28.8163  -20.2616   -9.0293 C   0  0  0  0  0  0  0  0  0  0  0  0
   29.1927  -20.3536   -7.6947 C   0  0  0  0  0  0  0  0  0  0  0  0
   28.2489  -20.4199   -6.7006 C   0  0  0  0  0  0  0  0  0  0  0  0
   26.9171  -20.3916   -7.0729 C   0  0  0  0  0  0  0  0  0  0  0  0
   26.5267  -20.2995   -8.4007 C   0  0  0  0  0  0  0  0  0  0  0  0
   25.9793  -21.4124  -12.6398 C   0  0  0  0  0  0  0  0  0  0  0  0
   26.4339  -20.9228  -13.6816 O   0  0  0  0  0  0  0  0  0  0  0  0
   25.5478  -23.5149  -15.1881 N   0  0  0  0  0  0  0  0  0  0  0  0
   24.4418  -24.1688  -14.6005 C   0  0  0  0  0  0  0  0  0  0  0  0
   24.3438  -25.4303  -14.6331 O   0  0  0  0  0  0  0  0  0  0  0  0
   23.3865  -23.3900  -13.9407 C   0  0  0  0  0  0  0  0  0  0  0  0
   23.8123  -21.9090  -13.7824 C   0  0  2  0  0  0  0  0  0  0  0  0
   24.6532  -21.8687  -12.6066 N   0  0  0  0  0  0  0  0  0  0  0  0
   22.5821  -21.0937  -13.6524 C   0  0  0  0  0  0  0  0  0  0  0  0
   22.0647  -21.1177  -12.4727 O   0  0  0  0  0  0  0  0  0  0  0  0
   21.4836  -16.5889  -16.7937 C   0  0  0  0  0  0  0  0  0  0  0  0
   21.6208  -17.4343  -15.5571 C   0  0  1  0  0  0  0  0  0  0  0  0
   21.5604  -16.5908  -14.2967 C   0  0  0  0  0  0  0  0  0  0  0  0
   20.7375  -18.5935  -15.5471 C   0  0  0  0  0  0  0  0  0  0  0  0
   20.7514  -19.6027  -14.4828 C   0  0  2  0  0  0  0  0  0  0  0  0
   22.0110  -20.3567  -14.6917 N   0  0  0  0  0  0  0  0  0  0  0  0
   19.6939  -20.5761  -14.3488 C   0  0  0  0  0  0  0  0  0  0  0  0
   18.5637  -20.2421  -13.5677 O   0  0  0  0  0  0  0  0  0  0  0  0
   19.6235  -21.7303  -14.8470 O   0  0  0  0  0  0  0  0  0  0  0  0
  2  1  1  6
  2  3  1  0
  3  4  1  0
  4  5  2  0
  5  6  1  0
  7  6  2  0
  8  7  1  0
  9  4  1  0
  9  8  2  0
 10 11  2  0
 10  2  1  0
 13 12  1  0
 14 13  2  0
 15 13  1  0
 16 15  1  1
 16 17  1  0
 17 10  1  0
 18 16  1  0
 18 25  1  0
 19 18  2  0
 21 20  1  6
 21 22  1  0
 23 21  1  0
 24 25  1  0
 24 23  1  6
 26 24  1  0
 27 26  1  0
 28 26  2  0
M  END
$$$$
