FNL.pdb
     RDKit          3D

 28 28  0  0  1  0  0  0  0  0999 V2000
   35.8499  -40.0060   -2.7059 N   0  0  0  0  0  0  0  0  0  0  0  0
   34.7223  -39.6353   -1.8445 C   0  0  1  0  0  0  0  0  0  0  0  0
   35.1760  -39.9553   -0.4304 C   0  0  0  0  0  0  0  0  0  0  0  0
   35.1987  -41.4238   -0.1728 C   0  0  0  0  0  0  0  0  0  0  0  0
   34.0072  -42.0894    0.1033 C   0  0  0  0  0  0  0  0  0  0  0  0
   33.9847  -43.4574    0.3472 C   0  0  0  0  0  0  0  0  0  0  0  0
   35.1415  -44.1954    0.3232 C   0  0  0  0  0  0  0  0  0  0  0  0
   36.3239  -43.5321    0.0487 C   0  0  0  0  0  0  0  0  0  0  0  0
   36.3614  -42.1675   -0.1972 C   0  0  0  0  0  0  0  0  0  0  0  0
   34.4035  -38.2054   -2.0092 C   0  0  0  0  0  0  0  0  0  0  0  0
   35.3342  -37.4183   -2.2238 O   0  0  0  0  0  0  0  0  0  0  0  0
   29.4832  -34.6649   -3.1487 N   0  0  0  0  0  0  0  0  0  0  0  0
   30.8348  -34.9325   -2.8362 C   0  0  0  0  0  0  0  0  0  0  0  0
   31.6942  -34.0033   -2.8319 O   0  0  0  0  0  0  0  0  0  0  0  0
   31.2626  -36.2987   -2.5104 C   0  0  0  0  0  0  0  0  0  0  0  0
   32.7582  -36.3261   -2.1076 C   0  0  2  0  0  0  0  0  0  0  0  0
   33.0886  -37.7229   -1.9308 N   0  0  0  0  0  0  0  0  0  0  0  0
   32.9106  -35.5256   -0.8704 C   0  0  0  0  0  0  0  0  0  0  0  0
   32.4702  -36.1146    0.1875 O   0  0  0  0  0  0  0  0  0  0  0  0
   36.5633  -31.3216   -0.6198 C   0  0  0  0  0  0  0  0  0  0  0  0
   35.8500  -32.6048   -0.2919 C   0  0  1  0  0  0  0  0  0  0  0  0
   36.6997  -33.5053    0.5861 C   0  0  0  0  0  0  0  0  0  0  0  0
   34.4898  -32.4040    0.1917 C   0  0  0  0  0  0  0  0  0  0  0  0
   33.5634  -33.5089    0.4604 C   0  0  2  0  0  0  0  0  0  0  0  0
   33.4743  -34.2492   -0.8213 N   0  0  0  0  0  0  0  0  0  0  0  0
   32.2109  -33.2715    0.9058 C   0  0  0  0  0  0  0  0  0  0  0  0
   32.0125  -32.6420    2.1561 O   0  0  0  0  0  0  0  0  0  0  0  0
   31.1324  -33.5529    0.3203 O   0  0  0  0  0  0  0  0  0  0  0  0
  2  1  1  6
  2  3  1  0
  3  4  1  0
  4  5  2  0
  5  6  1  0
  7  6  2  0
  8  7  1  0
  9  4  1  0
  9  8  2  0
 10 11  2  0
 10  2  1  0
 13 12  1  0
 14 13  2  0
 15 13  1  0
 16 15  1  1
 16 17  1  0
 17 10  1  0
 18 16  1  0
 18 25  1  0
 19 18  2  0
 21 20  1  1
 21 22  1  0
 23 21  1  0
 24 25  1  0
 24 23  1  6
 26 24  1  0
 27 26  1  0
 28 26  2  0
M  END
$$$$
