FNL.pdb
     RDKit          3D

 28 28  0  0  1  0  0  0  0  0999 V2000
   27.3864  -35.3043   -6.7587 N   0  0  0  0  0  0  0  0  0  0  0  0
   28.5431  -35.6081   -5.9098 C   0  0  1  0  0  0  0  0  0  0  0  0
   29.1752  -34.2625   -5.5970 C   0  0  0  0  0  0  0  0  0  0  0  0
   30.4290  -34.4084   -4.8033 C   0  0  0  0  0  0  0  0  0  0  0  0
   30.3918  -34.2238   -3.4236 C   0  0  0  0  0  0  0  0  0  0  0  0
   31.5373  -34.3524   -2.6473 C   0  0  0  0  0  0  0  0  0  0  0  0
   32.7441  -34.6661   -3.2206 C   0  0  0  0  0  0  0  0  0  0  0  0
   32.7787  -34.8490   -4.5912 C   0  0  0  0  0  0  0  0  0  0  0  0
   31.6434  -34.7245   -5.3785 C   0  0  0  0  0  0  0  0  0  0  0  0
   28.1084  -36.3086   -4.6876 C   0  0  0  0  0  0  0  0  0  0  0  0
   27.1176  -35.8761   -4.0850 O   0  0  0  0  0  0  0  0  0  0  0  0
   26.3798  -39.5427   -4.1071 N   0  0  0  0  0  0  0  0  0  0  0  0
   27.5555  -40.2695   -3.8145 C   0  0  0  0  0  0  0  0  0  0  0  0
   27.6379  -41.5032   -4.0855 O   0  0  0  0  0  0  0  0  0  0  0  0
   28.7031  -39.6003   -3.1893 C   0  0  0  0  0  0  0  0  0  0  0  0
   28.4086  -38.0959   -2.9660 C   0  0  2  0  0  0  0  0  0  0  0  0
   28.7810  -37.4386   -4.1992 N   0  0  0  0  0  0  0  0  0  0  0  0
   29.2016  -37.6459   -1.7983 C   0  0  0  0  0  0  0  0  0  0  0  0
   28.8666  -38.2148   -0.6919 O   0  0  0  0  0  0  0  0  0  0  0  0
   34.7579  -37.0303   -1.7665 C   0  0  0  0  0  0  0  0  0  0  0  0
   33.4211  -37.4063   -1.1883 C   0  0  1  0  0  0  0  0  0  0  0  0
   33.5676  -38.0586    0.1743 C   0  0  0  0  0  0  0  0  0  0  0  0
   32.4450  -36.3250   -1.2349 C   0  0  0  0  0  0  0  0  0  0  0  0
   31.0914  -36.4426   -0.6825 C   0  0  2  0  0  0  0  0  0  0  0  0
   30.2231  -36.6958   -1.8575 N   0  0  0  0  0  0  0  0  0  0  0  0
   30.4841  -35.3693    0.0679 C   0  0  0  0  0  0  0  0  0  0  0  0
   29.4110  -34.6590   -0.5176 O   0  0  0  0  0  0  0  0  0  0  0  0
   30.7796  -34.9528    1.2187 O   0  0  0  0  0  0  0  0  0  0  0  0
  2  1  1  6
  2  3  1  0
  3  4  1  0
  4  5  2  0
  5  6  1  0
  7  6  2  0
  8  7  1  0
  9  4  1  0
  9  8  2  0
 10 11  2  0
 10  2  1  0
 13 12  1  0
 14 13  2  0
 15 13  1  0
 16 15  1  6
 16 17  1  0
 17 10  1  0
 18 16  1  0
 18 25  1  0
 19 18  2  0
 21 20  1  1
 21 22  1  0
 23 21  1  0
 24 25  1  0
 24 23  1  6
 26 24  1  0
 27 26  1  0
 28 26  2  0
M  END
$$$$
