FNL.pdb
     RDKit          3D

 28 28  0  0  1  0  0  0  0  0999 V2000
   28.2311  -20.6118  -16.5398 N   0  0  0  0  0  0  0  0  0  0  0  0
   27.7011  -21.3220  -15.3711 C   0  0  1  0  0  0  0  0  0  0  0  0
   27.7166  -20.3046  -14.2429 C   0  0  0  0  0  0  0  0  0  0  0  0
   28.7115  -20.6575  -13.1899 C   0  0  0  0  0  0  0  0  0  0  0  0
   29.8491  -19.8702  -13.0307 C   0  0  0  0  0  0  0  0  0  0  0  0
   30.7996  -20.1636  -12.0603 C   0  0  0  0  0  0  0  0  0  0  0  0
   30.6443  -21.2429  -11.2270 C   0  0  0  0  0  0  0  0  0  0  0  0
   29.5136  -22.0234  -11.3868 C   0  0  0  0  0  0  0  0  0  0  0  0
   28.5564  -21.7423  -12.3505 C   0  0  0  0  0  0  0  0  0  0  0  0
   26.3396  -21.8147  -15.6482 C   0  0  0  0  0  0  0  0  0  0  0  0
   25.6492  -21.1986  -16.4701 O   0  0  0  0  0  0  0  0  0  0  0  0
   25.1901  -25.1221  -16.9343 N   0  0  0  0  0  0  0  0  0  0  0  0
   24.8002  -25.6581  -15.6866 C   0  0  0  0  0  0  0  0  0  0  0  0
   24.8540  -26.9045  -15.4726 O   0  0  0  0  0  0  0  0  0  0  0  0
   24.3255  -24.7723  -14.6162 C   0  0  0  0  0  0  0  0  0  0  0  0
   24.4104  -23.2880  -15.0516 C   0  0  2  0  0  0  0  0  0  0  0  0
   25.8160  -22.9502  -15.0122 N   0  0  0  0  0  0  0  0  0  0  0  0
   23.5885  -22.4908  -14.1116 C   0  0  0  0  0  0  0  0  0  0  0  0
   22.3668  -22.8902  -14.0217 O   0  0  0  0  0  0  0  0  0  0  0  0
   25.8818  -19.6742   -9.8579 C   0  0  0  0  0  0  0  0  0  0  0  0
   24.9176  -20.6076  -10.5376 C   0  0  1  0  0  0  0  0  0  0  0  0
   24.1411  -21.4361   -9.5303 C   0  0  0  0  0  0  0  0  0  0  0  0
   24.0898  -19.9535  -11.5431 C   0  0  0  0  0  0  0  0  0  0  0  0
   23.1772  -20.6842  -12.4289 C   0  0  2  0  0  0  0  0  0  0  0  0
   24.0629  -21.4026  -13.3766 N   0  0  0  0  0  0  0  0  0  0  0  0
   22.1797  -20.0015  -13.2180 C   0  0  0  0  0  0  0  0  0  0  0  0
   20.9458  -19.6742  -12.6103 O   0  0  0  0  0  0  0  0  0  0  0  0
   22.2475  -19.6360  -14.4210 O   0  0  0  0  0  0  0  0  0  0  0  0
  2  1  1  6
  2  3  1  0
  3  4  1  0
  4  5  2  0
  5  6  1  0
  7  6  2  0
  8  7  1  0
  9  4  1  0
  9  8  2  0
 10 11  2  0
 10  2  1  0
 13 12  1  0
 14 13  2  0
 15 13  1  0
 16 15  1  1
 16 17  1  0
 17 10  1  0
 18 16  1  0
 18 25  1  0
 19 18  2  0
 21 20  1  1
 21 22  1  0
 23 21  1  0
 24 25  1  0
 24 23  1  6
 26 24  1  0
 27 26  1  0
 28 26  2  0
M  END
$$$$
