NLV.pdb
     RDKit          3D

 24 23  0  0  1  0  0  0  0  0999 V2000
   19.2699  -10.5432  -21.4514 N   0  0  0  0  0  0  0  0  0  0  0  0
   19.1537   -9.1722  -21.1111 C   0  0  0  0  0  0  0  0  0  0  0  0
   18.9736   -8.3523  -22.0392 O   0  0  0  0  0  0  0  0  0  0  0  0
   19.2442   -8.7496  -19.7093 C   0  0  0  0  0  0  0  0  0  0  0  0
   19.5634   -9.9208  -18.7931 C   0  0  2  0  0  0  0  0  0  0  0  0
   18.3817  -10.7113  -18.5902 N   0  0  0  0  0  0  0  0  0  0  0  0
   20.0793   -9.3465  -17.5198 C   0  0  0  0  0  0  0  0  0  0  0  0
   19.1927   -9.1296  -16.6246 O   0  0  0  0  0  0  0  0  0  0  0  0
   21.9496  -10.4931  -13.6897 C   0  0  0  0  0  0  0  0  0  0  0  0
   22.8411  -10.5433  -14.9499 C   0  0  2  0  0  0  0  0  0  0  0  0
   24.1278  -11.1594  -14.4611 C   0  0  0  0  0  0  0  0  0  0  0  0
   23.0134   -9.1605  -15.4303 C   0  0  0  0  0  0  0  0  0  0  0  0
   21.8697   -8.4858  -16.0782 C   0  0  2  0  0  0  0  0  0  0  0  0
   21.4462   -9.0610  -17.3127 N   0  0  0  0  0  0  0  0  0  0  0  0
   21.9731   -7.0186  -16.2360 C   0  0  0  0  0  0  0  0  0  0  0  0
   22.5310   -6.5222  -17.2771 O   0  0  0  0  0  0  0  0  0  0  0  0
   19.1999   -4.5337  -14.9372 C   0  0  0  0  0  0  0  0  0  0  0  0
   20.3130   -4.0948  -15.8574 C   0  0  1  0  0  0  0  0  0  0  0  0
   20.3983   -2.6038  -16.0199 C   0  0  0  0  0  0  0  0  0  0  0  0
   21.6252   -4.6863  -15.3762 C   0  0  2  0  0  0  0  0  0  0  0  0
   21.4599   -6.1203  -15.2517 N   0  0  0  0  0  0  0  0  0  0  0  0
   22.0710   -4.0938  -14.1124 C   0  0  0  0  0  0  0  0  0  0  0  0
   22.7146   -2.8691  -14.1190 O   0  0  0  0  0  0  0  0  0  0  0  0
   21.8865   -4.6722  -12.9905 O   0  0  0  0  0  0  0  0  0  0  0  0
  1  2  1  0
  2  3  2  0
  4  2  1  0
  4  5  1  0
  5  6  1  1
  7  8  2  0
  7  5  1  0
 10  9  1  1
 10 11  1  0
 10 12  1  0
 13 12  1  6
 13 14  1  0
 14  7  1  0
 15 13  1  0
 16 15  2  0
 18 17  1  1
 19 18  1  0
 20 18  1  0
 20 21  1  1
 21 15  1  0
 22 20  1  0
 23 22  1  0
 24 22  2  0
M  END
$$$$
