NLV.pdb
     RDKit          3D

 24 23  0  0  1  0  0  0  0  0999 V2000
   16.4961  -12.2907  -18.0675 N   0  0  0  0  0  0  0  0  0  0  0  0
   16.8382  -12.7860  -16.7843 C   0  0  0  0  0  0  0  0  0  0  0  0
   16.2312  -13.7976  -16.3668 O   0  0  0  0  0  0  0  0  0  0  0  0
   17.8740  -12.1192  -15.9880 C   0  0  0  0  0  0  0  0  0  0  0  0
   18.4157  -10.8872  -16.6965 C   0  0  2  0  0  0  0  0  0  0  0  0
   19.1849  -11.2877  -17.8413 N   0  0  0  0  0  0  0  0  0  0  0  0
   19.2363  -10.1417  -15.7026 C   0  0  0  0  0  0  0  0  0  0  0  0
   18.6055   -9.7549  -14.6600 O   0  0  0  0  0  0  0  0  0  0  0  0
   22.7529  -12.1223  -15.0848 C   0  0  0  0  0  0  0  0  0  0  0  0
   23.2875  -10.7022  -15.3723 C   0  0  2  0  0  0  0  0  0  0  0  0
   24.7659  -10.8067  -15.0937 C   0  0  0  0  0  0  0  0  0  0  0  0
   22.5965   -9.7721  -14.4613 C   0  0  0  0  0  0  0  0  0  0  0  0
   21.3345   -9.1466  -14.9077 C   0  0  2  0  0  0  0  0  0  0  0  0
   20.6101   -9.8792  -15.8939 N   0  0  0  0  0  0  0  0  0  0  0  0
   21.4109   -7.7268  -15.3158 C   0  0  0  0  0  0  0  0  0  0  0  0
   21.6215   -7.4213  -16.5421 O   0  0  0  0  0  0  0  0  0  0  0  0
   19.4053   -5.4032  -16.2004 C   0  0  0  0  0  0  0  0  0  0  0  0
   20.0311   -4.6973  -15.0221 C   0  0  1  0  0  0  0  0  0  0  0  0
   19.1726   -4.7203  -13.7894 C   0  0  0  0  0  0  0  0  0  0  0  0
   21.4086   -5.2787  -14.7617 C   0  0  2  0  0  0  0  0  0  0  0  0
   21.2514   -6.6658  -14.3735 N   0  0  0  0  0  0  0  0  0  0  0  0
   22.1460   -4.5253  -13.7441 C   0  0  0  0  0  0  0  0  0  0  0  0
   22.3401   -5.0764  -12.4900 O   0  0  0  0  0  0  0  0  0  0  0  0
   22.6222   -3.3642  -13.9730 O   0  0  0  0  0  0  0  0  0  0  0  0
  1  2  1  0
  2  3  2  0
  4  2  1  0
  4  5  1  0
  5  6  1  6
  7  8  2  0
  7  5  1  0
 10  9  1  1
 10 11  1  0
 10 12  1  0
 13 12  1  6
 13 14  1  0
 14  7  1  0
 15 13  1  0
 16 15  2  0
 18 17  1  6
 19 18  1  0
 20 18  1  0
 20 21  1  1
 21 15  1  0
 22 20  1  0
 23 22  1  0
 24 22  2  0
M  END
$$$$
