NLV.pdb
     RDKit          3D

 24 23  0  0  1  0  0  0  0  0999 V2000
   18.4494  -16.5141  -17.8040 N   0  0  0  0  0  0  0  0  0  0  0  0
   18.7752  -16.4879  -16.4248 C   0  0  0  0  0  0  0  0  0  0  0  0
   18.2991  -17.3853  -15.6940 O   0  0  0  0  0  0  0  0  0  0  0  0
   19.6451  -15.4337  -15.8920 C   0  0  0  0  0  0  0  0  0  0  0  0
   19.9660  -14.3881  -16.9488 C   0  0  2  0  0  0  0  0  0  0  0  0
   20.6591  -15.0058  -18.0445 N   0  0  0  0  0  0  0  0  0  0  0  0
   20.7885  -13.3395  -16.2848 C   0  0  0  0  0  0  0  0  0  0  0  0
   20.3237  -12.9082  -15.1746 O   0  0  0  0  0  0  0  0  0  0  0  0
   25.0094  -13.0672  -14.5576 C   0  0  0  0  0  0  0  0  0  0  0  0
   24.9339  -12.9581  -16.0963 C   0  0  2  0  0  0  0  0  0  0  0  0
   26.3756  -12.8470  -16.5245 C   0  0  0  0  0  0  0  0  0  0  0  0
   24.1450  -11.7558  -16.4204 C   0  0  0  0  0  0  0  0  0  0  0  0
   22.6846  -11.7831  -16.1980 C   0  0  2  0  0  0  0  0  0  0  0  0
   21.9936  -12.8545  -16.8375 N   0  0  0  0  0  0  0  0  0  0  0  0
   21.9565  -10.5193  -16.4449 C   0  0  0  0  0  0  0  0  0  0  0  0
   21.8179  -10.0809  -17.6408 O   0  0  0  0  0  0  0  0  0  0  0  0
   18.6557   -7.2251  -15.3229 C   0  0  0  0  0  0  0  0  0  0  0  0
   19.2845   -8.5974  -15.3165 C   0  0  1  0  0  0  0  0  0  0  0  0
   18.6097   -9.5659  -16.2458 C   0  0  0  0  0  0  0  0  0  0  0  0
   20.7678   -8.4718  -15.6117 C   0  0  2  0  0  0  0  0  0  0  0  0
   21.3894   -9.7594  -15.3773 N   0  0  0  0  0  0  0  0  0  0  0  0
   21.4062   -7.4231  -14.8118 C   0  0  0  0  0  0  0  0  0  0  0  0
   22.1520   -7.7686  -13.6988 O   0  0  0  0  0  0  0  0  0  0  0  0
   21.2990   -6.1865  -15.1059 O   0  0  0  0  0  0  0  0  0  0  0  0
  1  2  1  0
  2  3  2  0
  4  2  1  0
  4  5  1  0
  5  6  1  6
  7  8  2  0
  7  5  1  0
 10  9  1  1
 10 11  1  0
 10 12  1  0
 13 12  1  6
 13 14  1  0
 14  7  1  0
 15 13  1  0
 16 15  2  0
 18 17  1  6
 19 18  1  0
 20 18  1  0
 20 21  1  1
 21 15  1  0
 22 20  1  0
 23 22  1  0
 24 22  2  0
M  END
$$$$
