NLV.pdb
     RDKit          3D

 24 23  0  0  1  0  0  0  0  0999 V2000
   19.2197  -19.1185  -16.3878 N   0  0  0  0  0  0  0  0  0  0  0  0
   20.5727  -18.7177  -16.5205 C   0  0  0  0  0  0  0  0  0  0  0  0
   20.8111  -17.6618  -17.1484 O   0  0  0  0  0  0  0  0  0  0  0  0
   21.6438  -19.5292  -15.9323 C   0  0  0  0  0  0  0  0  0  0  0  0
   22.7749  -19.7622  -16.9221 C   0  0  2  0  0  0  0  0  0  0  0  0
   22.4876  -20.9215  -17.7195 N   0  0  0  0  0  0  0  0  0  0  0  0
   24.0216  -19.9252  -16.1244 C   0  0  0  0  0  0  0  0  0  0  0  0
   24.2049  -21.0932  -15.6379 O   0  0  0  0  0  0  0  0  0  0  0  0
   28.3867  -19.4841  -17.1052 C   0  0  0  0  0  0  0  0  0  0  0  0
   27.7350  -18.1245  -16.7703 C   0  0  2  0  0  0  0  0  0  0  0  0
   28.8584  -17.1320  -16.9348 C   0  0  0  0  0  0  0  0  0  0  0  0
   27.2333  -18.1989  -15.3863 C   0  0  0  0  0  0  0  0  0  0  0  0
   26.0818  -19.0773  -15.0942 C   0  0  2  0  0  0  0  0  0  0  0  0
   24.9364  -18.8700  -15.9183 N   0  0  0  0  0  0  0  0  0  0  0  0
   25.6550  -19.1564  -13.6801 C   0  0  0  0  0  0  0  0  0  0  0  0
   24.8588  -18.2753  -13.1991 O   0  0  0  0  0  0  0  0  0  0  0  0
   24.3725  -21.1028   -9.6338 C   0  0  0  0  0  0  0  0  0  0  0  0
   24.6927  -21.1334  -11.1086 C   0  0  1  0  0  0  0  0  0  0  0  0
   23.5021  -20.8575  -11.9823 C   0  0  0  0  0  0  0  0  0  0  0  0
   25.8363  -20.1776  -11.3944 C   0  0  2  0  0  0  0  0  0  0  0  0
   26.1052  -20.2019  -12.8179 N   0  0  0  0  0  0  0  0  0  0  0  0
   27.0389  -20.5045  -10.6237 C   0  0  0  0  0  0  0  0  0  0  0  0
   27.1035  -20.1744   -9.2816 O   0  0  0  0  0  0  0  0  0  0  0  0
   28.0430  -21.0893  -11.1500 O   0  0  0  0  0  0  0  0  0  0  0  0
  1  2  1  0
  2  3  2  0
  4  2  1  0
  4  5  1  0
  5  6  1  1
  7  8  2  0
  7  5  1  0
 10  9  1  1
 10 11  1  0
 10 12  1  0
 13 12  1  1
 13 14  1  0
 14  7  1  0
 15 13  1  0
 16 15  2  0
 18 17  1  1
 19 18  1  0
 20 18  1  0
 20 21  1  6
 21 15  1  0
 22 20  1  0
 23 22  1  0
 24 22  2  0
M  END
$$$$
