NLV.pdb
     RDKit          3D

 24 23  0  0  1  0  0  0  0  0999 V2000
   44.5936  -12.2240   -7.9080 N   0  0  0  0  0  0  0  0  0  0  0  0
   43.2400  -12.0612   -8.2959 C   0  0  0  0  0  0  0  0  0  0  0  0
   42.6858  -13.0085   -8.8970 O   0  0  0  0  0  0  0  0  0  0  0  0
   42.5303  -10.8139   -7.9920 C   0  0  0  0  0  0  0  0  0  0  0  0
   43.4457   -9.7996   -7.3240 C   0  0  2  0  0  0  0  0  0  0  0  0
   43.7100  -10.2046   -5.9718 N   0  0  0  0  0  0  0  0  0  0  0  0
   42.7540   -8.4826   -7.3897 C   0  0  0  0  0  0  0  0  0  0  0  0
   42.0248   -8.2023   -6.3777 O   0  0  0  0  0  0  0  0  0  0  0  0
   44.3067   -4.2516   -7.3290 C   0  0  0  0  0  0  0  0  0  0  0  0
   44.3948   -4.9367   -8.7103 C   0  0  2  0  0  0  0  0  0  0  0  0
   45.0674   -3.9083   -9.5844 C   0  0  0  0  0  0  0  0  0  0  0  0
   43.0204   -5.2470   -9.1432 C   0  0  0  0  0  0  0  0  0  0  0  0
   42.2798   -6.3174   -8.4441 C   0  0  2  0  0  0  0  0  0  0  0  0
   42.8907   -7.6054   -8.4873 N   0  0  0  0  0  0  0  0  0  0  0  0
   40.8439   -6.4493   -8.7739 C   0  0  0  0  0  0  0  0  0  0  0  0
   40.4699   -7.2396   -9.7104 O   0  0  0  0  0  0  0  0  0  0  0  0
   36.1459   -5.6339   -7.5874 C   0  0  0  0  0  0  0  0  0  0  0  0
   37.5964   -5.8210   -7.2141 C   0  0  1  0  0  0  0  0  0  0  0  0
   37.8512   -7.0731   -6.4239 C   0  0  0  0  0  0  0  0  0  0  0  0
   38.4496   -5.7612   -8.4677 C   0  0  2  0  0  0  0  0  0  0  0  0
   39.8419   -5.7154   -8.0693 N   0  0  0  0  0  0  0  0  0  0  0  0
   38.1057   -4.6195   -9.3194 C   0  0  0  0  0  0  0  0  0  0  0  0
   38.9155   -3.4976   -9.3215 O   0  0  0  0  0  0  0  0  0  0  0  0
   37.0737   -4.6198  -10.0691 O   0  0  0  0  0  0  0  0  0  0  0  0
  1  2  1  0
  2  3  2  0
  4  2  1  0
  4  5  1  0
  5  6  1  1
  7  8  2  0
  7  5  1  0
 10  9  1  1
 10 11  1  0
 10 12  1  0
 13 12  1  6
 13 14  1  0
 14  7  1  0
 15 13  1  0
 16 15  2  0
 18 17  1  6
 19 18  1  0
 20 18  1  0
 20 21  1  1
 21 15  1  0
 22 20  1  0
 23 22  1  0
 24 22  2  0
M  END
$$$$
