NLV.pdb
     RDKit          3D

 24 23  0  0  1  0  0  0  0  0999 V2000
   26.3582  -24.6211  -14.5555 N   0  0  0  0  0  0  0  0  0  0  0  0
   25.0490  -24.3024  -14.9952 C   0  0  0  0  0  0  0  0  0  0  0  0
   24.4156  -25.1762  -15.6286 O   0  0  0  0  0  0  0  0  0  0  0  0
   24.4738  -22.9844  -14.7056 C   0  0  0  0  0  0  0  0  0  0  0  0
   25.4671  -22.0891  -13.9810 C   0  0  2  0  0  0  0  0  0  0  0  0
   25.4862  -22.4208  -12.5838 N   0  0  0  0  0  0  0  0  0  0  0  0
   25.0361  -20.6837  -14.2177 C   0  0  0  0  0  0  0  0  0  0  0  0
   24.1658  -20.2376  -13.3943 O   0  0  0  0  0  0  0  0  0  0  0  0
   27.0951  -15.6248  -16.8548 C   0  0  0  0  0  0  0  0  0  0  0  0
   25.9463  -16.1881  -15.9898 C   0  0  2  0  0  0  0  0  0  0  0  0
   25.9379  -15.2987  -14.7720 C   0  0  0  0  0  0  0  0  0  0  0  0
   26.2718  -17.5905  -15.6738 C   0  0  0  0  0  0  0  0  0  0  0  0
   25.1673  -18.5285  -15.3851 C   0  0  2  0  0  0  0  0  0  0  0  0
   25.5486  -19.8982  -15.2728 N   0  0  0  0  0  0  0  0  0  0  0  0
   23.9723  -18.4262  -16.2509 C   0  0  0  0  0  0  0  0  0  0  0  0
   24.0034  -18.8874  -17.4459 O   0  0  0  0  0  0  0  0  0  0  0  0
   20.8264  -19.9498  -16.1358 C   0  0  0  0  0  0  0  0  0  0  0  0
   20.4690  -18.4840  -16.0903 C   0  0  1  0  0  0  0  0  0  0  0  0
   20.0752  -18.0093  -14.7204 C   0  0  0  0  0  0  0  0  0  0  0  0
   21.6147  -17.6695  -16.6623 C   0  0  2  0  0  0  0  0  0  0  0  0
   22.7622  -17.8234  -15.7912 N   0  0  0  0  0  0  0  0  0  0  0  0
   21.2629  -16.2568  -16.8286 C   0  0  0  0  0  0  0  0  0  0  0  0
   20.4826  -15.8668  -17.9024 O   0  0  0  0  0  0  0  0  0  0  0  0
   21.6545  -15.3601  -16.0102 O   0  0  0  0  0  0  0  0  0  0  0  0
  1  2  1  0
  2  3  2  0
  4  2  1  0
  4  5  1  0
  5  6  1  1
  7  8  2  0
  7  5  1  0
 10  9  1  6
 10 11  1  0
 10 12  1  0
 13 12  1  6
 13 14  1  0
 14  7  1  0
 15 13  1  0
 16 15  2  0
 18 17  1  1
 19 18  1  0
 20 18  1  0
 20 21  1  1
 21 15  1  0
 22 20  1  0
 23 22  1  0
 24 22  2  0
M  END
$$$$
