NLV.pdb
     RDKit          3D

 24 23  0  0  1  0  0  0  0  0999 V2000
   15.9883   -8.7643  -20.8878 N   0  0  0  0  0  0  0  0  0  0  0  0
   17.2537   -9.2672  -20.4941 C   0  0  0  0  0  0  0  0  0  0  0  0
   17.9251   -9.8926  -21.3449 O   0  0  0  0  0  0  0  0  0  0  0  0
   17.7416   -9.0495  -19.1280 C   0  0  0  0  0  0  0  0  0  0  0  0
   18.3167  -10.3248  -18.5312 C   0  0  2  0  0  0  0  0  0  0  0  0
   17.2486  -11.2187  -18.1812 N   0  0  0  0  0  0  0  0  0  0  0  0
   19.1227   -9.9229  -17.3454 C   0  0  0  0  0  0  0  0  0  0  0  0
   18.4547   -9.7518  -16.2688 O   0  0  0  0  0  0  0  0  0  0  0  0
   24.3548  -10.9011  -14.6338 C   0  0  0  0  0  0  0  0  0  0  0  0
   23.2069   -9.8710  -14.7136 C   0  0  2  0  0  0  0  0  0  0  0  0
   22.5271   -9.9789  -13.3719 C   0  0  0  0  0  0  0  0  0  0  0  0
   22.3320  -10.2634  -15.8331 C   0  0  0  0  0  0  0  0  0  0  0  0
   21.2336   -9.3575  -16.2277 C   0  0  2  0  0  0  0  0  0  0  0  0
   20.5217   -9.7429  -17.4019 N   0  0  0  0  0  0  0  0  0  0  0  0
   21.5637   -7.9179  -16.3102 C   0  0  0  0  0  0  0  0  0  0  0  0
   22.2834   -7.4782  -17.2747 O   0  0  0  0  0  0  0  0  0  0  0  0
   19.7651   -5.1196  -17.1732 C   0  0  0  0  0  0  0  0  0  0  0  0
   20.1767   -4.8019  -15.7562 C   0  0  1  0  0  0  0  0  0  0  0  0
   19.0843   -5.0361  -14.7519 C   0  0  0  0  0  0  0  0  0  0  0  0
   21.4352   -5.5774  -15.4127 C   0  0  2  0  0  0  0  0  0  0  0  0
   21.0966   -6.9841  -15.3362 N   0  0  0  0  0  0  0  0  0  0  0  0
   22.0507   -5.1133  -14.1666 C   0  0  0  0  0  0  0  0  0  0  0  0
   22.8158   -3.9606  -14.1681 O   0  0  0  0  0  0  0  0  0  0  0  0
   21.9067   -5.7403  -13.0651 O   0  0  0  0  0  0  0  0  0  0  0  0
  1  2  1  0
  2  3  2  0
  4  2  1  0
  4  5  1  0
  5  6  1  1
  7  8  2  0
  7  5  1  0
 10  9  1  1
 10 11  1  0
 10 12  1  0
 13 12  1  6
 13 14  1  0
 14  7  1  0
 15 13  1  0
 16 15  2  0
 18 17  1  6
 19 18  1  0
 20 18  1  0
 20 21  1  1
 21 15  1  0
 22 20  1  0
 23 22  1  0
 24 22  2  0
M  END
$$$$
