TPQ.pdb
     RDKit          3D

 24 24  0  0  1  0  0  0  0  0999 V2000
   24.0049  -23.7796  -18.1638 C   0  0  0  0  0  0  0  0  0  0  0  0
   24.9095  -24.8324  -17.5848 C   0  0  1  0  0  0  0  0  0  0  0  0
   25.5992  -25.4327  -18.5870 O   0  0  0  0  0  0  0  0  0  0  0  0
   25.7256  -24.3086  -16.4223 C   0  0  2  0  0  0  0  0  0  0  0  0
   26.4716  -25.5012  -15.9623 N   0  0  0  0  0  0  0  0  0  0  0  0
   24.8718  -23.7766  -15.3219 C   0  0  0  0  0  0  0  0  0  0  0  0
   24.0748  -24.6455  -14.8495 O   0  0  0  0  0  0  0  0  0  0  0  0
   24.9460  -22.4565  -14.8600 N   0  0  0  0  0  0  0  0  0  0  0  0
   26.2414  -21.7224  -14.8746 C   0  0  0  0  0  0  0  0  0  0  0  0
   25.8105  -20.4411  -15.5456 C   0  0  0  0  0  0  0  0  0  0  0  0
   24.3504  -20.2741  -15.1658 C   0  0  0  0  0  0  0  0  0  0  0  0
   24.0899  -21.4936  -14.2807 C   0  0  1  0  0  0  0  0  0  0  0  0
   22.6899  -21.7618  -14.0888 C   0  0  0  0  0  0  0  0  0  0  0  0
   21.9250  -22.0603  -15.0326 O   0  0  0  0  0  0  0  0  0  0  0  0
   19.7085  -23.5201   -8.7120 N   0  0  0  0  0  0  0  0  0  0  0  0
   18.6800  -23.4951   -9.6827 C   0  0  0  0  0  0  0  0  0  0  0  0
   17.5447  -23.8931   -9.3826 O   0  0  0  0  0  0  0  0  0  0  0  0
   18.9774  -22.9977  -11.0337 C   0  0  0  0  0  0  0  0  0  0  0  0
   20.3845  -22.5152  -11.2234 C   0  0  0  0  0  0  0  0  0  0  0  0
   20.6615  -22.0376  -12.5955 C   0  0  2  0  0  0  0  0  0  0  0  0
   22.0574  -21.7108  -12.8135 N   0  0  0  0  0  0  0  0  0  0  0  0
   19.8105  -20.8710  -12.9453 C   0  0  0  0  0  0  0  0  0  0  0  0
   20.2563  -19.5635  -12.9526 O   0  0  0  0  0  0  0  0  0  0  0  0
   18.5945  -21.0368  -13.2614 O   0  0  0  0  0  0  0  0  0  0  0  0
  2  1  1  6
  2  3  1  0
  4  2  1  0
  4  5  1  1
  6  4  1  0
  7  6  2  0
  8 12  1  0
  8  6  1  0
  9  8  1  0
 10  9  1  0
 10 11  1  0
 11 12  1  0
 12 13  1  6
 13 14  2  0
 16 15  1  0
 17 16  2  0
 18 16  1  0
 19 18  1  0
 20 19  1  1
 21 20  1  0
 21 13  1  0
 22 20  1  0
 23 22  1  0
 24 22  2  0
M  END
$$$$
