TPQ.pdb
     RDKit          3D

 24 24  0  0  1  0  0  0  0  0999 V2000
   28.2906  -20.4589   -4.3039 C   0  0  0  0  0  0  0  0  0  0  0  0
   27.8424  -20.7228   -5.7150 C   0  0  1  0  0  0  0  0  0  0  0  0
   26.5042  -20.9459   -5.7269 O   0  0  0  0  0  0  0  0  0  0  0  0
   28.3627  -19.6827   -6.6841 C   0  0  2  0  0  0  0  0  0  0  0  0
   27.7854  -18.4192   -6.1734 N   0  0  0  0  0  0  0  0  0  0  0  0
   27.9086  -19.9306   -8.0824 C   0  0  0  0  0  0  0  0  0  0  0  0
   26.6735  -19.6880   -8.2522 O   0  0  0  0  0  0  0  0  0  0  0  0
   28.7595  -20.3821   -9.0991 N   0  0  0  0  0  0  0  0  0  0  0  0
   30.2206  -20.1008   -9.0422 C   0  0  0  0  0  0  0  0  0  0  0  0
   30.7656  -21.4845   -9.2990 C   0  0  0  0  0  0  0  0  0  0  0  0
   29.7154  -22.1636  -10.1593 C   0  0  0  0  0  0  0  0  0  0  0  0
   28.6590  -21.0709  -10.3284 C   0  0  1  0  0  0  0  0  0  0  0  0
   27.3965  -21.5755  -10.7976 C   0  0  0  0  0  0  0  0  0  0  0  0
   26.8943  -22.6386  -10.3703 O   0  0  0  0  0  0  0  0  0  0  0  0
   21.8770  -19.2388  -11.4666 N   0  0  0  0  0  0  0  0  0  0  0  0
   22.6604  -19.6999  -10.3829 C   0  0  0  0  0  0  0  0  0  0  0  0
   22.3117  -19.4414   -9.2215 O   0  0  0  0  0  0  0  0  0  0  0  0
   23.8777  -20.4780  -10.6546 C   0  0  0  0  0  0  0  0  0  0  0  0
   24.2072  -20.6301  -12.1095 C   0  0  0  0  0  0  0  0  0  0  0  0
   25.4020  -21.4660  -12.3567 C   0  0  2  0  0  0  0  0  0  0  0  0
   26.6134  -20.9109  -11.7847 N   0  0  0  0  0  0  0  0  0  0  0  0
   25.5985  -21.7147  -13.8083 C   0  0  0  0  0  0  0  0  0  0  0  0
   24.9703  -22.7241  -14.5116 O   0  0  0  0  0  0  0  0  0  0  0  0
   26.3821  -20.9825  -14.4835 O   0  0  0  0  0  0  0  0  0  0  0  0
  2  1  1  1
  2  3  1  0
  4  2  1  0
  4  5  1  1
  6  4  1  0
  7  6  2  0
  8 12  1  0
  8  6  1  0
  9  8  1  0
 10  9  1  0
 10 11  1  0
 11 12  1  0
 12 13  1  1
 13 14  2  0
 16 15  1  0
 17 16  2  0
 18 16  1  0
 19 18  1  0
 20 19  1  6
 21 20  1  0
 21 13  1  0
 22 20  1  0
 23 22  1  0
 24 22  2  0
M  END
$$$$
