TPQ.pdb
     RDKit          3D

 24 24  0  0  1  0  0  0  0  0999 V2000
   13.0770  -19.8308    3.5278 C   0  0  0  0  0  0  0  0  0  0  0  0
   13.9744  -20.8634    2.9031 C   0  0  1  0  0  0  0  0  0  0  0  0
   13.2377  -21.6727    2.1013 O   0  0  0  0  0  0  0  0  0  0  0  0
   15.2125  -20.2474    2.2871 C   0  0  2  0  0  0  0  0  0  0  0  0
   15.8418  -21.3820    1.5750 N   0  0  0  0  0  0  0  0  0  0  0  0
   16.1455  -19.6992    3.3126 C   0  0  0  0  0  0  0  0  0  0  0  0
   16.2644  -20.4537    4.3274 O   0  0  0  0  0  0  0  0  0  0  0  0
   16.8191  -18.4800    3.1667 N   0  0  0  0  0  0  0  0  0  0  0  0
   17.4413  -18.1115    1.8650 C   0  0  0  0  0  0  0  0  0  0  0  0
   16.8865  -16.7186    1.6927 C   0  0  0  0  0  0  0  0  0  0  0  0
   16.6846  -16.2020    3.1057 C   0  0  0  0  0  0  0  0  0  0  0  0
   17.1718  -17.3692    3.9651 C   0  0  1  0  0  0  0  0  0  0  0  0
   16.7487  -17.2742    5.3365 C   0  0  0  0  0  0  0  0  0  0  0  0
   15.5537  -17.4013    5.6839 O   0  0  0  0  0  0  0  0  0  0  0  0
   18.0205  -21.6671    8.8397 N   0  0  0  0  0  0  0  0  0  0  0  0
   18.4218  -20.3209    8.6737 C   0  0  0  0  0  0  0  0  0  0  0  0
   19.6280  -20.0479    8.5848 O   0  0  0  0  0  0  0  0  0  0  0  0
   17.3985  -19.2674    8.6110 C   0  0  0  0  0  0  0  0  0  0  0  0
   17.9381  -17.8704    8.6882 C   0  0  0  0  0  0  0  0  0  0  0  0
   17.2372  -16.9202    7.7975 C   0  0  2  0  0  0  0  0  0  0  0  0
   17.6503  -17.0285    6.4117 N   0  0  0  0  0  0  0  0  0  0  0  0
   17.4009  -15.5189    8.2638 C   0  0  0  0  0  0  0  0  0  0  0  0
   17.0195  -15.0707    9.5135 O   0  0  0  0  0  0  0  0  0  0  0  0
   17.9155  -14.6463    7.5024 O   0  0  0  0  0  0  0  0  0  0  0  0
  2  1  1  6
  2  3  1  0
  4  2  1  0
  4  5  1  1
  6  4  1  0
  7  6  2  0
  8 12  1  0
  8  6  1  0
  9  8  1  0
 10  9  1  0
 10 11  1  0
 11 12  1  0
 12 13  1  1
 13 14  2  0
 16 15  1  0
 17 16  2  0
 18 16  1  0
 19 18  1  0
 20 19  1  1
 21 20  1  0
 21 13  1  0
 22 20  1  0
 23 22  1  0
 24 22  2  0
M  END
$$$$
