TPQ.pdb
     RDKit          3D

 24 24  0  0  1  0  0  0  0  0999 V2000
   21.9769  -14.1013  -19.4517 C   0  0  0  0  0  0  0  0  0  0  0  0
   21.5886  -15.3324  -18.6800 C   0  0  1  0  0  0  0  0  0  0  0  0
   21.6606  -16.4147  -19.4948 O   0  0  0  0  0  0  0  0  0  0  0  0
   22.3191  -15.4324  -17.3578 C   0  0  2  0  0  0  0  0  0  0  0  0
   21.8623  -16.7296  -16.8110 N   0  0  0  0  0  0  0  0  0  0  0  0
   21.9629  -14.3243  -16.4259 C   0  0  0  0  0  0  0  0  0  0  0  0
   20.7368  -13.9990  -16.4894 O   0  0  0  0  0  0  0  0  0  0  0  0
   22.8871  -13.7110  -15.5709 N   0  0  0  0  0  0  0  0  0  0  0  0
   23.8523  -14.5312  -14.7879 C   0  0  0  0  0  0  0  0  0  0  0  0
   25.1371  -13.8103  -15.1153 C   0  0  0  0  0  0  0  0  0  0  0  0
   24.7239  -12.3711  -15.3647 C   0  0  0  0  0  0  0  0  0  0  0  0
   23.2129  -12.4083  -15.1321 C   0  0  1  0  0  0  0  0  0  0  0  0
   22.5335  -11.2544  -15.6573 C   0  0  0  0  0  0  0  0  0  0  0  0
   22.5558  -10.9533  -16.8713 O   0  0  0  0  0  0  0  0  0  0  0  0
   16.8558   -9.2101  -14.6647 N   0  0  0  0  0  0  0  0  0  0  0  0
   17.4129   -8.1095  -15.3568 C   0  0  0  0  0  0  0  0  0  0  0  0
   16.6794   -7.1758  -15.7141 O   0  0  0  0  0  0  0  0  0  0  0  0
   18.8549   -8.0937  -15.6417 C   0  0  0  0  0  0  0  0  0  0  0  0
   19.6004   -9.2968  -15.1462 C   0  0  0  0  0  0  0  0  0  0  0  0
   21.0609   -9.2134  -15.3639 C   0  0  2  0  0  0  0  0  0  0  0  0
   21.7803  -10.3600  -14.8438 N   0  0  0  0  0  0  0  0  0  0  0  0
   21.6237   -7.9633  -14.7909 C   0  0  0  0  0  0  0  0  0  0  0  0
   21.6147   -6.7435  -15.4390 O   0  0  0  0  0  0  0  0  0  0  0  0
   22.1562   -7.9686  -13.6409 O   0  0  0  0  0  0  0  0  0  0  0  0
  2  1  1  6
  2  3  1  0
  4  2  1  0
  4  5  1  1
  6  4  1  0
  7  6  2  0
  8 12  1  0
  8  6  1  0
  9  8  1  0
 10  9  1  0
 10 11  1  0
 11 12  1  0
 12 13  1  6
 13 14  2  0
 16 15  1  0
 17 16  2  0
 18 16  1  0
 19 18  1  0
 20 19  1  1
 21 20  1  0
 21 13  1  0
 22 20  1  0
 23 22  1  0
 24 22  2  0
M  END
$$$$
