TPQ.pdb
     RDKit          3D

 24 24  0  0  1  0  0  0  0  0999 V2000
   21.8013  -11.1954  -19.5382 C   0  0  0  0  0  0  0  0  0  0  0  0
   21.3970  -12.3892  -18.7178 C   0  0  1  0  0  0  0  0  0  0  0  0
   21.2803  -13.4717  -19.5271 O   0  0  0  0  0  0  0  0  0  0  0  0
   22.2620  -12.5561  -17.4865 C   0  0  2  0  0  0  0  0  0  0  0  0
   21.7579  -13.8089  -16.8808 N   0  0  0  0  0  0  0  0  0  0  0  0
   22.1136  -11.4228  -16.5292 C   0  0  0  0  0  0  0  0  0  0  0  0
   20.9185  -11.0017  -16.4420 O   0  0  0  0  0  0  0  0  0  0  0  0
   23.1832  -10.8836  -15.8034 N   0  0  0  0  0  0  0  0  0  0  0  0
   24.2425  -11.7703  -15.2476 C   0  0  0  0  0  0  0  0  0  0  0  0
   25.4740  -11.0492  -15.7385 C   0  0  0  0  0  0  0  0  0  0  0  0
   25.0640   -9.5901  -15.8220 C   0  0  0  0  0  0  0  0  0  0  0  0
   23.6122   -9.6190  -15.3425 C   0  0  1  0  0  0  0  0  0  0  0  0
   22.8863   -8.4216  -15.6711 C   0  0  0  0  0  0  0  0  0  0  0  0
   22.6400   -8.0845  -16.8504 O   0  0  0  0  0  0  0  0  0  0  0  0
   17.7715   -6.6418  -15.8349 N   0  0  0  0  0  0  0  0  0  0  0  0
   18.1881   -5.3195  -15.5545 C   0  0  0  0  0  0  0  0  0  0  0  0
   17.4539   -4.3683  -15.8601 O   0  0  0  0  0  0  0  0  0  0  0  0
   19.4882   -5.0969  -14.9055 C   0  0  0  0  0  0  0  0  0  0  0  0
   20.2448   -6.3505  -14.5817 C   0  0  0  0  0  0  0  0  0  0  0  0
   21.6620   -6.3063  -15.0026 C   0  0  2  0  0  0  0  0  0  0  0  0
   22.3878   -7.5211  -14.6863 N   0  0  0  0  0  0  0  0  0  0  0  0
   22.3641   -5.1337  -14.4197 C   0  0  0  0  0  0  0  0  0  0  0  0
   23.3895   -5.2261  -13.4988 O   0  0  0  0  0  0  0  0  0  0  0  0
   22.0352   -3.9572  -14.7570 O   0  0  0  0  0  0  0  0  0  0  0  0
  2  1  1  6
  2  3  1  0
  4  2  1  0
  4  5  1  1
  6  4  1  0
  7  6  2  0
  8 12  1  0
  8  6  1  0
  9  8  1  0
 10  9  1  0
 10 11  1  0
 11 12  1  0
 12 13  1  6
 13 14  2  0
 16 15  1  0
 17 16  2  0
 18 16  1  0
 19 18  1  0
 20 19  1  1
 21 20  1  0
 21 13  1  0
 22 20  1  0
 23 22  1  0
 24 22  2  0
M  END
$$$$
