TPQ.pdb
     RDKit          3D

 24 24  0  0  1  0  0  0  0  0999 V2000
   27.5621  -20.7228  -19.3623 C   0  0  0  0  0  0  0  0  0  0  0  0
   27.9939  -21.7943  -18.3993 C   0  0  1  0  0  0  0  0  0  0  0  0
   28.9559  -22.5565  -18.9772 O   0  0  0  0  0  0  0  0  0  0  0  0
   28.3068  -21.2371  -17.0269 C   0  0  2  0  0  0  0  0  0  0  0  0
   28.6931  -22.4362  -16.2502 N   0  0  0  0  0  0  0  0  0  0  0  0
   27.1283  -20.5728  -16.4004 C   0  0  0  0  0  0  0  0  0  0  0  0
   26.1815  -21.3806  -16.1468 O   0  0  0  0  0  0  0  0  0  0  0  0
   27.0763  -19.2013  -16.1212 N   0  0  0  0  0  0  0  0  0  0  0  0
   28.3004  -18.4710  -15.6905 C   0  0  0  0  0  0  0  0  0  0  0  0
   28.2527  -17.2961  -16.6366 C   0  0  0  0  0  0  0  0  0  0  0  0
   26.7768  -17.0843  -16.9211 C   0  0  0  0  0  0  0  0  0  0  0  0
   26.1106  -18.1713  -16.0766 C   0  0  1  0  0  0  0  0  0  0  0  0
   24.7434  -18.4163  -16.4503 C   0  0  0  0  0  0  0  0  0  0  0  0
   24.3909  -18.5988  -17.6366 O   0  0  0  0  0  0  0  0  0  0  0  0
   20.4026  -22.3689  -14.8727 N   0  0  0  0  0  0  0  0  0  0  0  0
   21.3951  -21.9409  -13.9601 C   0  0  0  0  0  0  0  0  0  0  0  0
   21.5058  -22.5101  -12.8642 O   0  0  0  0  0  0  0  0  0  0  0  0
   22.2782  -20.8249  -14.3285 C   0  0  0  0  0  0  0  0  0  0  0  0
   22.0770  -20.3056  -15.7208 C   0  0  0  0  0  0  0  0  0  0  0  0
   22.3215  -18.8524  -15.8466 C   0  0  2  0  0  0  0  0  0  0  0  0
   23.6786  -18.4719  -15.5057 N   0  0  0  0  0  0  0  0  0  0  0  0
   21.3585  -18.0682  -15.0307 C   0  0  0  0  0  0  0  0  0  0  0  0
   21.7221  -17.2578  -13.9728 O   0  0  0  0  0  0  0  0  0  0  0  0
   20.1174  -18.1158  -15.2830 O   0  0  0  0  0  0  0  0  0  0  0  0
  2  1  1  6
  2  3  1  0
  4  2  1  0
  4  5  1  1
  6  4  1  0
  7  6  2  0
  8 12  1  0
  8  6  1  0
  9  8  1  0
 10  9  1  0
 10 11  1  0
 11 12  1  0
 12 13  1  6
 13 14  2  0
 16 15  1  0
 17 16  2  0
 18 16  1  0
 19 18  1  0
 20 19  1  1
 21 20  1  0
 21 13  1  0
 22 20  1  0
 23 22  1  0
 24 22  2  0
M  END
$$$$
