TPQ.pdb
     RDKit          3D

 24 24  0  0  1  0  0  0  0  0999 V2000
   16.7457   -9.4820  -17.2293 C   0  0  0  0  0  0  0  0  0  0  0  0
   17.0304  -10.8769  -16.7448 C   0  0  1  0  0  0  0  0  0  0  0  0
   16.2461  -11.7553  -17.4185 O   0  0  0  0  0  0  0  0  0  0  0  0
   18.5132  -11.1804  -16.7149 C   0  0  2  0  0  0  0  0  0  0  0  0
   18.5664  -12.5855  -16.2534 N   0  0  0  0  0  0  0  0  0  0  0  0
   19.2556  -10.2975  -15.7702 C   0  0  0  0  0  0  0  0  0  0  0  0
   18.5373   -9.8905  -14.8049 O   0  0  0  0  0  0  0  0  0  0  0  0
   20.6042   -9.9570  -15.9337 N   0  0  0  0  0  0  0  0  0  0  0  0
   21.5743  -10.9500  -16.4723 C   0  0  0  0  0  0  0  0  0  0  0  0
   22.2351  -10.1181  -17.5443 C   0  0  0  0  0  0  0  0  0  0  0  0
   22.1492   -8.6898  -17.0376 C   0  0  0  0  0  0  0  0  0  0  0  0
   21.4489   -8.8517  -15.6878 C   0  0  1  0  0  0  0  0  0  0  0  0
   20.9252   -7.6150  -15.1729 C   0  0  0  0  0  0  0  0  0  0  0  0
   20.0173   -6.9754  -15.7486 O   0  0  0  0  0  0  0  0  0  0  0  0
   19.2069   -5.8845   -9.6084 N   0  0  0  0  0  0  0  0  0  0  0  0
   18.4527   -6.3823  -10.6966 C   0  0  0  0  0  0  0  0  0  0  0  0
   17.3224   -6.8504  -10.4951 O   0  0  0  0  0  0  0  0  0  0  0  0
   19.0254   -6.3369  -12.0497 C   0  0  0  0  0  0  0  0  0  0  0  0
   20.4055   -5.7550  -12.1221 C   0  0  0  0  0  0  0  0  0  0  0  0
   20.9554   -5.7169  -13.4946 C   0  0  2  0  0  0  0  0  0  0  0  0
   21.3935   -7.0153  -13.9685 N   0  0  0  0  0  0  0  0  0  0  0  0
   22.0681   -4.7385  -13.6055 C   0  0  0  0  0  0  0  0  0  0  0  0
   21.8905   -3.3703  -13.6733 O   0  0  0  0  0  0  0  0  0  0  0  0
   23.2705   -5.1373  -13.6453 O   0  0  0  0  0  0  0  0  0  0  0  0
  2  1  1  6
  2  3  1  0
  4  2  1  0
  4  5  1  1
  6  4  1  0
  7  6  2  0
  8 12  1  0
  8  6  1  0
  9  8  1  0
 10  9  1  0
 10 11  1  0
 11 12  1  0
 12 13  1  6
 13 14  2  0
 16 15  1  0
 17 16  2  0
 18 16  1  0
 19 18  1  0
 20 19  1  1
 21 20  1  0
 21 13  1  0
 22 20  1  0
 23 22  1  0
 24 22  2  0
M  END
$$$$
