TPQ.pdb
     RDKit          3D

 24 24  0  0  1  0  0  0  0  0999 V2000
   18.7203  -10.9163  -17.6847 C   0  0  0  0  0  0  0  0  0  0  0  0
   19.7512  -11.8199  -17.0663 C   0  0  1  0  0  0  0  0  0  0  0  0
   20.0852  -12.7923  -17.9514 O   0  0  0  0  0  0  0  0  0  0  0  0
   20.8964  -11.0439  -16.4511 C   0  0  2  0  0  0  0  0  0  0  0  0
   21.8346  -12.1034  -16.0179 N   0  0  0  0  0  0  0  0  0  0  0  0
   20.4655  -10.2252  -15.2819 C   0  0  0  0  0  0  0  0  0  0  0  0
   19.5024  -10.7479  -14.6396 O   0  0  0  0  0  0  0  0  0  0  0  0
   21.0645   -9.0086  -14.9319 N   0  0  0  0  0  0  0  0  0  0  0  0
   22.5388   -8.8322  -15.0442 C   0  0  0  0  0  0  0  0  0  0  0  0
   22.5911   -7.5298  -15.8049 C   0  0  0  0  0  0  0  0  0  0  0  0
   21.3300   -6.7896  -15.3978 C   0  0  0  0  0  0  0  0  0  0  0  0
   20.6759   -7.7552  -14.4087 C   0  0  1  0  0  0  0  0  0  0  0  0
   19.2932   -7.4510  -14.1550 C   0  0  0  0  0  0  0  0  0  0  0  0
   18.3919   -7.6566  -14.9977 O   0  0  0  0  0  0  0  0  0  0  0  0
   16.0865   -7.9346   -8.8025 N   0  0  0  0  0  0  0  0  0  0  0  0
   15.1244   -7.4305   -9.7086 C   0  0  0  0  0  0  0  0  0  0  0  0
   13.9351   -7.3631   -9.3644 O   0  0  0  0  0  0  0  0  0  0  0  0
   15.5534   -6.9961  -11.0459 C   0  0  0  0  0  0  0  0  0  0  0  0
   17.0245   -7.1324  -11.3023 C   0  0  0  0  0  0  0  0  0  0  0  0
   17.4367   -6.6384  -12.6339 C   0  0  2  0  0  0  0  0  0  0  0  0
   18.8338   -6.8922  -12.9278 N   0  0  0  0  0  0  0  0  0  0  0  0
   17.1445   -5.1898  -12.7888 C   0  0  0  0  0  0  0  0  0  0  0  0
   15.9206   -4.6862  -13.1845 O   0  0  0  0  0  0  0  0  0  0  0  0
   18.0427   -4.3265  -12.5562 O   0  0  0  0  0  0  0  0  0  0  0  0
  2  1  1  6
  2  3  1  0
  4  2  1  0
  4  5  1  1
  6  4  1  0
  7  6  2  0
  8 12  1  0
  8  6  1  0
  9  8  1  0
 10  9  1  0
 10 11  1  0
 11 12  1  0
 12 13  1  6
 13 14  2  0
 16 15  1  0
 17 16  2  0
 18 16  1  0
 19 18  1  0
 20 19  1  1
 21 20  1  0
 21 13  1  0
 22 20  1  0
 23 22  1  0
 24 22  2  0
M  END
$$$$
