DNV.pdb
     RDKit          3D

 24 23  0  0  1  0  0  0  0  0999 V2000
   19.6141  -13.2310  -15.7947 N   0  0  0  0  0  0  0  0  0  0  0  0
   18.5863  -12.2185  -16.1795 C   0  0  1  0  0  0  0  0  0  0  0  0
   17.3311  -12.6557  -15.4832 C   0  0  0  0  0  0  0  0  0  0  0  0
   16.6491  -13.8294  -16.0252 C   0  0  0  0  0  0  0  0  0  0  0  0
   16.9802  -14.3168  -17.1695 O   0  0  0  0  0  0  0  0  0  0  0  0
   19.1379  -10.9341  -15.6439 C   0  0  0  0  0  0  0  0  0  0  0  0
   18.7616  -10.5734  -14.4987 O   0  0  0  0  0  0  0  0  0  0  0  0
   15.6260  -14.5028  -15.3955 O   0  0  0  0  0  0  0  0  0  0  0  0
   23.7663  -10.6598  -15.4265 N   0  0  0  0  0  0  0  0  0  0  0  0
   22.7707   -9.6899  -15.0949 C   0  0  0  0  0  0  0  0  0  0  0  0
   22.4570   -9.5983  -13.8774 O   0  0  0  0  0  0  0  0  0  0  0  0
   22.1919   -8.8788  -16.1839 C   0  0  0  0  0  0  0  0  0  0  0  0
   20.6596   -8.8990  -16.0275 C   0  0  2  0  0  0  0  0  0  0  0  0
   20.0396  -10.1279  -16.3413 N   0  0  0  0  0  0  0  0  0  0  0  0
   20.1355   -7.6907  -16.6247 C   0  0  0  0  0  0  0  0  0  0  0  0
   20.3062   -7.4968  -17.8479 O   0  0  0  0  0  0  0  0  0  0  0  0
   16.8954   -6.6606  -17.4596 C   0  0  0  0  0  0  0  0  0  0  0  0
   17.3714   -5.5054  -16.6067 C   0  0  1  0  0  0  0  0  0  0  0  0
   16.7543   -5.7361  -15.2367 C   0  0  0  0  0  0  0  0  0  0  0  0
   18.8536   -5.4994  -16.4640 C   0  0  2  0  0  0  0  0  0  0  0  0
   19.4298   -6.6899  -15.9197 N   0  0  0  0  0  0  0  0  0  0  0  0
   19.3104   -4.3379  -15.6626 C   0  0  0  0  0  0  0  0  0  0  0  0
   19.2635   -3.0351  -16.1747 O   0  0  0  0  0  0  0  0  0  0  0  0
   19.7621   -4.4494  -14.4879 O   0  0  0  0  0  0  0  0  0  0  0  0
  2  1  1  1
  2  3  1  0
  3  4  1  0
  4  8  1  0
  4  5  2  0
  6  2  1  0
  7  6  2  0
  9 10  1  0
 10 12  1  0
 10 11  2  0
 13 12  1  6
 13 14  1  0
 13 15  1  0
 14  6  1  0
 15 21  1  0
 16 15  2  0
 18 17  1  6
 18 19  1  0
 20 18  1  0
 20 21  1  1
 22 23  1  0
 22 20  1  0
 24 22  2  0
M  END
$$$$
