DNV.pdb
     RDKit          3D

 24 23  0  0  1  0  0  0  0  0999 V2000
   27.1506  -25.2294  -16.6687 N   0  0  0  0  0  0  0  0  0  0  0  0
   28.0352  -24.0548  -16.9282 C   0  0  1  0  0  0  0  0  0  0  0  0
   28.0265  -23.8841  -18.4188 C   0  0  0  0  0  0  0  0  0  0  0  0
   28.6550  -22.6756  -18.9493 C   0  0  0  0  0  0  0  0  0  0  0  0
   29.8702  -22.3762  -18.6493 O   0  0  0  0  0  0  0  0  0  0  0  0
   27.3557  -22.9343  -16.2048 C   0  0  0  0  0  0  0  0  0  0  0  0
   28.0410  -22.2750  -15.3808 O   0  0  0  0  0  0  0  0  0  0  0  0
   28.0373  -21.7726  -19.7859 O   0  0  0  0  0  0  0  0  0  0  0  0
   24.1543  -19.3590  -14.9038 N   0  0  0  0  0  0  0  0  0  0  0  0
   23.5211  -19.8575  -16.0838 C   0  0  0  0  0  0  0  0  0  0  0  0
   22.5680  -19.1726  -16.5438 O   0  0  0  0  0  0  0  0  0  0  0  0
   24.0211  -21.1171  -16.6690 C   0  0  0  0  0  0  0  0  0  0  0  0
   25.1882  -21.6153  -15.7960 C   0  0  2  0  0  0  0  0  0  0  0  0
   26.0173  -22.5863  -16.3981 N   0  0  0  0  0  0  0  0  0  0  0  0
   24.6723  -21.8763  -14.4704 C   0  0  0  0  0  0  0  0  0  0  0  0
   23.8266  -22.7842  -14.3179 O   0  0  0  0  0  0  0  0  0  0  0  0
   25.7509  -19.5096  -10.8405 C   0  0  0  0  0  0  0  0  0  0  0  0
   25.5238  -21.0045  -10.8860 C   0  0  1  0  0  0  0  0  0  0  0  0
   24.8854  -21.3550   -9.5515 C   0  0  0  0  0  0  0  0  0  0  0  0
   24.5838  -21.3865  -11.9758 C   0  0  2  0  0  0  0  0  0  0  0  0
   25.0573  -21.1710  -13.3081 N   0  0  0  0  0  0  0  0  0  0  0  0
   23.2751  -20.7063  -11.8180 C   0  0  0  0  0  0  0  0  0  0  0  0
   22.3623  -21.1014  -10.8319 O   0  0  0  0  0  0  0  0  0  0  0  0
   22.9087  -19.7443  -12.5505 O   0  0  0  0  0  0  0  0  0  0  0  0
  2  1  1  6
  2  3  1  0
  3  4  1  0
  4  8  1  0
  4  5  2  0
  6  2  1  0
  7  6  2  0
  9 10  1  0
 10 12  1  0
 10 11  2  0
 13 12  1  6
 13 14  1  0
 13 15  1  0
 14  6  1  0
 15 21  1  0
 16 15  2  0
 18 17  1  1
 18 19  1  0
 20 18  1  0
 20 21  1  6
 22 23  1  0
 22 20  1  0
 24 22  2  0
M  END
$$$$
