DNV.pdb
     RDKit          3D

 24 23  0  0  1  0  0  0  0  0999 V2000
   25.8860  -20.8896  -13.6944 N   0  0  0  0  0  0  0  0  0  0  0  0
   27.0554  -20.8764  -12.7660 C   0  0  1  0  0  0  0  0  0  0  0  0
   28.0945  -20.0478  -13.4623 C   0  0  0  0  0  0  0  0  0  0  0  0
   28.6379  -20.5809  -14.7101 C   0  0  0  0  0  0  0  0  0  0  0  0
   28.9787  -21.8182  -14.8076 O   0  0  0  0  0  0  0  0  0  0  0  0
   26.5175  -20.2261  -11.5297 C   0  0  0  0  0  0  0  0  0  0  0  0
   26.6591  -18.9807  -11.4202 O   0  0  0  0  0  0  0  0  0  0  0  0
   28.8342  -19.8456  -15.8579 O   0  0  0  0  0  0  0  0  0  0  0  0
   23.6814  -19.6682  -10.9923 N   0  0  0  0  0  0  0  0  0  0  0  0
   23.0966  -20.4019   -9.9145 C   0  0  0  0  0  0  0  0  0  0  0  0
   21.8427  -20.5300   -9.9353 O   0  0  0  0  0  0  0  0  0  0  0  0
   23.9884  -20.9478   -8.8727 C   0  0  0  0  0  0  0  0  0  0  0  0
   25.4317  -20.5378   -9.2213 C   0  0  2  0  0  0  0  0  0  0  0  0
   25.8722  -20.9228  -10.5061 N   0  0  0  0  0  0  0  0  0  0  0  0
   26.2694  -20.8484   -8.0841 C   0  0  0  0  0  0  0  0  0  0  0  0
   26.3706  -22.0381   -7.7138 O   0  0  0  0  0  0  0  0  0  0  0  0
   29.9635  -20.0515   -4.9818 C   0  0  0  0  0  0  0  0  0  0  0  0
   29.2150  -19.7338   -6.2575 C   0  0  1  0  0  0  0  0  0  0  0  0
   29.8836  -20.5718   -7.3353 C   0  0  0  0  0  0  0  0  0  0  0  0
   27.7823  -20.1304   -6.1694 C   0  0  2  0  0  0  0  0  0  0  0  0
   26.9990  -19.8925   -7.3421 N   0  0  0  0  0  0  0  0  0  0  0  0
   27.1175  -19.4844   -5.0115 C   0  0  0  0  0  0  0  0  0  0  0  0
   27.4524  -19.8254   -3.6950 O   0  0  0  0  0  0  0  0  0  0  0  0
   26.2231  -18.6010   -5.1384 O   0  0  0  0  0  0  0  0  0  0  0  0
  2  1  1  6
  2  3  1  0
  3  4  1  0
  4  8  1  0
  4  5  2  0
  6  2  1  0
  7  6  2  0
  9 10  1  0
 10 12  1  0
 10 11  2  0
 13 12  1  1
 13 14  1  0
 13 15  1  0
 14  6  1  0
 15 21  1  0
 16 15  2  0
 18 17  1  1
 18 19  1  0
 20 18  1  0
 20 21  1  6
 22 23  1  0
 22 20  1  0
 24 22  2  0
M  END
$$$$
