DNV.pdb
     RDKit          3D

 24 23  0  0  1  0  0  0  0  0999 V2000
   15.9265  -11.6815  -17.1056 N   0  0  0  0  0  0  0  0  0  0  0  0
   15.8366  -10.2003  -16.9399 C   0  0  1  0  0  0  0  0  0  0  0  0
   15.1860   -9.9980  -15.6031 C   0  0  0  0  0  0  0  0  0  0  0  0
   13.7440  -10.2259  -15.5286 C   0  0  0  0  0  0  0  0  0  0  0  0
   13.1608  -10.4060  -14.3955 O   0  0  0  0  0  0  0  0  0  0  0  0
   17.2651   -9.7541  -16.9711 C   0  0  0  0  0  0  0  0  0  0  0  0
   18.1261  -10.5283  -16.4786 O   0  0  0  0  0  0  0  0  0  0  0  0
   12.8997  -10.2713  -16.6156 O   0  0  0  0  0  0  0  0  0  0  0  0
   21.3367   -6.9956  -19.5590 N   0  0  0  0  0  0  0  0  0  0  0  0
   20.4576   -6.3207  -18.6569 C   0  0  0  0  0  0  0  0  0  0  0  0
   20.9609   -5.3920  -17.9690 O   0  0  0  0  0  0  0  0  0  0  0  0
   19.0474   -6.7526  -18.5974 C   0  0  0  0  0  0  0  0  0  0  0  0
   18.9490   -7.9142  -17.5906 C   0  0  2  0  0  0  0  0  0  0  0  0
   17.6853   -8.5386  -17.5149 N   0  0  0  0  0  0  0  0  0  0  0  0
   19.5838   -7.4924  -16.3615 C   0  0  0  0  0  0  0  0  0  0  0  0
   18.8911   -6.9346  -15.4829 O   0  0  0  0  0  0  0  0  0  0  0  0
   22.9523   -8.7325  -13.0267 C   0  0  0  0  0  0  0  0  0  0  0  0
   22.4160   -8.8152  -14.4388 C   0  0  1  0  0  0  0  0  0  0  0  0
   21.5470  -10.0623  -14.4664 C   0  0  0  0  0  0  0  0  0  0  0  0
   21.5677   -7.6388  -14.7761 C   0  0  2  0  0  0  0  0  0  0  0  0
   20.9553   -7.6651  -16.0683 N   0  0  0  0  0  0  0  0  0  0  0  0
   22.3260   -6.3722  -14.6324 C   0  0  0  0  0  0  0  0  0  0  0  0
   22.5435   -5.7911  -13.3767 O   0  0  0  0  0  0  0  0  0  0  0  0
   22.8151   -5.7493  -15.6169 O   0  0  0  0  0  0  0  0  0  0  0  0
  2  1  1  1
  2  3  1  0
  3  4  1  0
  4  8  1  0
  4  5  2  0
  6  2  1  0
  7  6  2  0
  9 10  1  0
 10 12  1  0
 10 11  2  0
 13 12  1  6
 13 14  1  0
 13 15  1  0
 14  6  1  0
 15 21  1  0
 16 15  2  0
 18 17  1  1
 18 19  1  0
 20 18  1  0
 20 21  1  6
 22 23  1  0
 22 20  1  0
 24 22  2  0
M  END
$$$$
