DNV.pdb
     RDKit          3D

 24 23  0  0  1  0  0  0  0  0999 V2000
   19.7339  -19.0494  -14.1422 N   0  0  0  0  0  0  0  0  0  0  0  0
   20.1130  -20.1192  -13.1719 C   0  0  1  0  0  0  0  0  0  0  0  0
   19.6678  -21.4005  -13.8132 C   0  0  0  0  0  0  0  0  0  0  0  0
   18.4025  -21.3689  -14.5443 C   0  0  0  0  0  0  0  0  0  0  0  0
   17.2774  -21.4102  -13.9207 O   0  0  0  0  0  0  0  0  0  0  0  0
   21.6018  -19.9972  -13.0756 C   0  0  0  0  0  0  0  0  0  0  0  0
   22.0687  -19.3266  -12.1186 O   0  0  0  0  0  0  0  0  0  0  0  0
   18.2899  -21.2971  -15.9150 O   0  0  0  0  0  0  0  0  0  0  0  0
   24.7919  -21.1139  -11.6222 N   0  0  0  0  0  0  0  0  0  0  0  0
   25.0405  -22.1647  -12.5582 C   0  0  0  0  0  0  0  0  0  0  0  0
   25.6858  -23.1594  -12.1301 O   0  0  0  0  0  0  0  0  0  0  0  0
   24.5316  -22.0118  -13.9353 C   0  0  0  0  0  0  0  0  0  0  0  0
   23.8969  -20.6134  -14.0540 C   0  0  2  0  0  0  0  0  0  0  0  0
   22.4874  -20.5849  -13.9810 N   0  0  0  0  0  0  0  0  0  0  0  0
   24.5442  -19.9223  -15.1471 C   0  0  0  0  0  0  0  0  0  0  0  0
   24.0169  -19.9539  -16.2802 O   0  0  0  0  0  0  0  0  0  0  0  0
   28.0996  -16.7806  -16.7742 C   0  0  0  0  0  0  0  0  0  0  0  0
   27.4759  -17.5234  -15.6133 C   0  0  1  0  0  0  0  0  0  0  0  0
   26.8338  -16.4509  -14.7481 C   0  0  0  0  0  0  0  0  0  0  0  0
   26.4148  -18.4645  -16.0669 C   0  0  2  0  0  0  0  0  0  0  0  0
   25.7521  -19.1980  -15.0334 N   0  0  0  0  0  0  0  0  0  0  0  0
   26.9406  -19.4219  -17.0704 C   0  0  0  0  0  0  0  0  0  0  0  0
   26.8554  -19.1590  -18.4435 O   0  0  0  0  0  0  0  0  0  0  0  0
   27.4892  -20.5153  -16.7546 O   0  0  0  0  0  0  0  0  0  0  0  0
  2  1  1  6
  2  3  1  0
  3  4  1  0
  4  8  1  0
  4  5  2  0
  6  2  1  0
  7  6  2  0
  9 10  1  0
 10 12  1  0
 10 11  2  0
 13 12  1  6
 13 14  1  0
 13 15  1  0
 14  6  1  0
 15 21  1  0
 16 15  2  0
 18 17  1  6
 18 19  1  0
 20 18  1  0
 20 21  1  1
 22 23  1  0
 22 20  1  0
 24 22  2  0
M  END
$$$$
