DNV.pdb
     RDKit          3D

 24 23  0  0  1  0  0  0  0  0999 V2000
   16.3704  -12.1659  -16.9141 N   0  0  0  0  0  0  0  0  0  0  0  0
   16.8193  -11.7701  -15.5461 C   0  0  1  0  0  0  0  0  0  0  0  0
   17.8036  -12.8271  -15.1396 C   0  0  0  0  0  0  0  0  0  0  0  0
   17.2533  -14.1014  -14.6812 C   0  0  0  0  0  0  0  0  0  0  0  0
   16.1919  -14.1401  -13.9544 O   0  0  0  0  0  0  0  0  0  0  0  0
   17.4509  -10.4293  -15.7558 C   0  0  0  0  0  0  0  0  0  0  0  0
   18.1131  -10.2582  -16.8120 O   0  0  0  0  0  0  0  0  0  0  0  0
   17.7921  -15.3364  -14.9660 O   0  0  0  0  0  0  0  0  0  0  0  0
   17.6216   -4.9998  -15.9205 N   0  0  0  0  0  0  0  0  0  0  0  0
   17.4778   -5.6467  -14.6545 C   0  0  0  0  0  0  0  0  0  0  0  0
   17.9569   -5.0439  -13.6563 O   0  0  0  0  0  0  0  0  0  0  0  0
   16.7899   -6.9518  -14.6081 C   0  0  0  0  0  0  0  0  0  0  0  0
   17.8388   -8.0504  -14.8643 C   0  0  2  0  0  0  0  0  0  0  0  0
   17.3412   -9.3713  -14.8512 N   0  0  0  0  0  0  0  0  0  0  0  0
   19.0058   -7.7459  -14.0663 C   0  0  0  0  0  0  0  0  0  0  0  0
   18.9912   -8.0145  -12.8455 O   0  0  0  0  0  0  0  0  0  0  0  0
   22.2455   -9.2664  -14.3929 C   0  0  0  0  0  0  0  0  0  0  0  0
   22.5694   -7.7889  -14.3720 C   0  0  1  0  0  0  0  0  0  0  0  0
   22.8289   -7.4135  -15.8221 C   0  0  0  0  0  0  0  0  0  0  0  0
   21.4237   -6.9803  -13.8709 C   0  0  2  0  0  0  0  0  0  0  0  0
   20.1876   -7.1561  -14.5685 N   0  0  0  0  0  0  0  0  0  0  0  0
   21.7574   -5.5353  -13.8465 C   0  0  0  0  0  0  0  0  0  0  0  0
   22.7186   -5.0238  -12.9655 O   0  0  0  0  0  0  0  0  0  0  0  0
   21.2050   -4.6903  -14.6062 O   0  0  0  0  0  0  0  0  0  0  0  0
  2  1  1  6
  2  3  1  0
  3  4  1  0
  4  8  1  0
  4  5  2  0
  6  2  1  0
  7  6  2  0
  9 10  1  0
 10 12  1  0
 10 11  2  0
 13 12  1  1
 13 14  1  0
 13 15  1  0
 14  6  1  0
 15 21  1  0
 16 15  2  0
 18 17  1  6
 18 19  1  0
 20 18  1  0
 20 21  1  6
 22 23  1  0
 22 20  1  0
 24 22  2  0
M  END
$$$$
