RRI.pdb
     RDKit          3D

 31 30  0  0  1  0  0  0  0  0999 V2000
   12.8689  -15.2220   18.1908 N   0  0  0  0  0  0  0  0  0  0  0  0
   12.8317  -14.2612   19.2700 C   0  0  0  0  0  0  0  0  0  0  0  0
   13.8630  -14.0815   20.0107 N   0  0  0  0  0  0  0  0  0  0  0  0
   11.6448  -13.5395   19.4806 N   0  0  0  0  0  0  0  0  0  0  0  0
   10.3811  -14.0741   19.0222 C   0  0  0  0  0  0  0  0  0  0  0  0
    9.3013  -13.1781   19.5151 C   0  0  0  0  0  0  0  0  0  0  0  0
    7.9050  -13.6203   19.2884 C   0  0  0  0  0  0  0  0  0  0  0  0
    7.6377  -15.0803   19.3722 C   0  0  2  0  0  0  0  0  0  0  0  0
    6.5281  -15.4861   18.5774 N   0  0  0  0  0  0  0  0  0  0  0  0
    7.3142  -15.3646   20.8238 C   0  0  0  0  0  0  0  0  0  0  0  0
    6.3941  -14.7015   21.3425 O   0  0  0  0  0  0  0  0  0  0  0  0
   13.8808  -13.4754   20.8294 N   0  0  0  0  0  0  0  0  0  0  0  0
    4.6921  -20.8423   22.7003 C   0  0  0  0  0  0  0  0  0  0  0  0
    5.5202  -21.5974   21.7991 N   0  0  0  0  0  0  0  0  0  0  0  0
    4.9928  -22.3845   20.9254 N   0  0  0  0  0  0  0  0  0  0  0  0
    6.9332  -21.5017   21.8409 C   0  0  0  0  0  0  0  0  0  0  0  0
    7.6756  -20.5907   22.6574 C   0  0  0  0  0  0  0  0  0  0  0  0
    7.3008  -19.1289   22.4273 C   0  0  0  0  0  0  0  0  0  0  0  0
    8.1704  -18.1886   23.1860 C   0  0  2  0  0  0  0  0  0  0  0  0
    7.7739  -16.7315   22.9021 N   0  0  0  0  0  0  0  0  0  0  0  0
    8.0340  -16.3454   21.5481 C   0  0  0  0  0  0  0  0  0  0  0  0
    8.5022  -15.8421   23.8646 O   0  0  0  0  0  0  0  0  0  0  0  0
    9.6919  -15.4755   23.6077 C   0  0  0  0  0  0  0  0  0  0  0  0
    5.6209  -22.9038   20.2890 C   0  0  0  0  0  0  0  0  0  0  0  0
    6.1535  -11.5632   25.9847 C   0  0  2  0  0  0  0  0  0  0  0  0
    7.1288  -12.6319   25.5278 C   0  0  0  0  0  0  0  0  0  0  0  0
    7.5053  -13.5761   26.6047 C   0  0  2  0  0  0  0  0  0  0  0  0
    8.1962  -12.7810   27.7227 N   0  0  0  0  0  0  0  0  0  0  0  0
    8.4021  -14.7063   26.1468 C   0  0  0  0  0  0  0  0  0  0  0  0
    7.8556  -15.4309   25.0291 O   0  0  0  0  0  0  0  0  0  0  0  0
    8.6715  -15.5869   27.2941 O   0  0  0  0  0  0  0  0  0  0  0  0
  2  1  1  0
  3  2  2  0
  4  2  1  0
  5  4  1  0
  6  7  1  0
  6  5  1  0
  8  9  1  6
  8 10  1  0
  8  7  1  0
 10 11  2  0
 13 12  1  0
 14 13  2  0
 15 13  1  0
 16 15  1  0
 17 16  1  0
 18 17  1  0
 19 18  1  6
 19 21  1  0
 20 10  1  0
 20 19  1  0
 21 22  2  0
 21 28  1  0
 24 25  1  0
 24 23  1  0
 25 27  1  0
 25 26  1  6
 27 29  1  0
 27 28  1  1
 29 31  2  0
 29 30  1  0
M  END
$$$$
