RRI.pdb
     RDKit          3D

 31 30  0  0  1  0  0  0  0  0999 V2000
    9.9701  -13.7102   19.7404 N   0  0  0  0  0  0  0  0  0  0  0  0
    9.1211  -12.8179   18.9840 C   0  0  0  0  0  0  0  0  0  0  0  0
    9.5132  -11.6271   18.7143 N   0  0  0  0  0  0  0  0  0  0  0  0
    7.8676  -13.2894   18.5593 N   0  0  0  0  0  0  0  0  0  0  0  0
    7.1284  -14.2226   19.3811 C   0  0  0  0  0  0  0  0  0  0  0  0
    7.2568  -15.5714   18.7677 C   0  0  0  0  0  0  0  0  0  0  0  0
    8.3531  -16.4351   19.2666 C   0  0  0  0  0  0  0  0  0  0  0  0
    7.9708  -17.7674   19.8041 C   0  0  2  0  0  0  0  0  0  0  0  0
    7.1189  -18.4949   18.9251 N   0  0  0  0  0  0  0  0  0  0  0  0
    7.2146  -17.5000   21.0885 C   0  0  0  0  0  0  0  0  0  0  0  0
    5.9991  -17.7783   21.1020 O   0  0  0  0  0  0  0  0  0  0  0  0
    8.9469  -10.9353   18.2256 N   0  0  0  0  0  0  0  0  0  0  0  0
    7.6772  -19.8609   28.8808 C   0  0  0  0  0  0  0  0  0  0  0  0
    7.5061  -21.0685   28.1189 N   0  0  0  0  0  0  0  0  0  0  0  0
    7.6501  -22.2223   28.6750 N   0  0  0  0  0  0  0  0  0  0  0  0
    7.1755  -21.0308   26.7416 C   0  0  0  0  0  0  0  0  0  0  0  0
    8.0077  -20.4975   25.7069 C   0  0  0  0  0  0  0  0  0  0  0  0
    7.6652  -19.0564   25.3377 C   0  0  0  0  0  0  0  0  0  0  0  0
    7.8506  -18.7774   23.8873 C   0  0  1  0  0  0  0  0  0  0  0  0
    7.5929  -17.2939   23.5812 N   0  0  0  0  0  0  0  0  0  0  0  0
    7.8738  -16.9576   22.2181 C   0  0  0  0  0  0  0  0  0  0  0  0
    8.4139  -16.4626   24.5207 O   0  0  0  0  0  0  0  0  0  0  0  0
    9.6783  -16.5916   24.5360 C   0  0  0  0  0  0  0  0  0  0  0  0
    7.5244  -23.0676   28.0929 C   0  0  0  0  0  0  0  0  0  0  0  0
    5.2926  -12.3235   26.7834 C   0  0  2  0  0  0  0  0  0  0  0  0
    6.4046  -13.0667   26.0670 C   0  0  0  0  0  0  0  0  0  0  0  0
    7.3254  -13.7686   26.9902 C   0  0  2  0  0  0  0  0  0  0  0  0
    8.0255  -12.7171   27.8641 N   0  0  0  0  0  0  0  0  0  0  0  0
    8.3577  -14.6293   26.2939 C   0  0  0  0  0  0  0  0  0  0  0  0
    7.7702  -15.5578   25.3635 O   0  0  0  0  0  0  0  0  0  0  0  0
    9.1666  -15.3122   27.3154 O   0  0  0  0  0  0  0  0  0  0  0  0
  2  1  1  0
  3  2  2  0
  4  2  1  0
  5  4  1  0
  6  7  1  0
  6  5  1  0
  8  9  1  6
  8 10  1  0
  8  7  1  0
 10 11  2  0
 13 12  1  0
 14 13  2  0
 15 13  1  0
 16 15  1  0
 17 16  1  0
 18 17  1  0
 19 18  1  6
 19 21  1  0
 20 10  1  0
 20 19  1  0
 21 22  2  0
 21 28  1  0
 24 25  1  0
 24 23  1  0
 25 27  1  0
 25 26  1  6
 27 29  1  0
 27 28  1  6
 29 31  2  0
 29 30  1  0
M  END
$$$$
