RRI.pdb
     RDKit          3D

 31 30  0  0  1  0  0  0  0  0999 V2000
    8.3693  -12.0957   19.4144 N   0  0  0  0  0  0  0  0  0  0  0  0
    9.5643  -12.8475   19.1044 C   0  0  0  0  0  0  0  0  0  0  0  0
   10.6584  -12.6079   19.7290 N   0  0  0  0  0  0  0  0  0  0  0  0
    9.4914  -13.8362   18.1089 N   0  0  0  0  0  0  0  0  0  0  0  0
    8.2098  -14.2094   17.5513 C   0  0  0  0  0  0  0  0  0  0  0  0
    7.9134  -15.6018   17.9816 C   0  0  0  0  0  0  0  0  0  0  0  0
    7.3580  -15.7806   19.3440 C   0  0  0  0  0  0  0  0  0  0  0  0
    7.1707  -17.1770   19.8183 C   0  0  2  0  0  0  0  0  0  0  0  0
    6.0468  -17.8174   19.2230 N   0  0  0  0  0  0  0  0  0  0  0  0
    6.9319  -17.0844   21.3107 C   0  0  0  0  0  0  0  0  0  0  0  0
    5.9482  -16.4180   21.6896 O   0  0  0  0  0  0  0  0  0  0  0  0
   11.5326  -13.1039   19.5625 N   0  0  0  0  0  0  0  0  0  0  0  0
    5.4619  -20.4489   27.3103 C   0  0  0  0  0  0  0  0  0  0  0  0
    6.7377  -20.9571   27.7370 N   0  0  0  0  0  0  0  0  0  0  0  0
    6.9308  -21.3023   28.9636 N   0  0  0  0  0  0  0  0  0  0  0  0
    7.8174  -21.0948   26.8297 C   0  0  0  0  0  0  0  0  0  0  0  0
    8.7629  -20.0695   26.5094 C   0  0  0  0  0  0  0  0  0  0  0  0
    8.1384  -18.8710   25.7996 C   0  0  0  0  0  0  0  0  0  0  0  0
    8.2369  -18.9683   24.3175 C   0  0  1  0  0  0  0  0  0  0  0  0
    7.6647  -17.7080   23.6502 N   0  0  0  0  0  0  0  0  0  0  0  0
    7.7970  -17.7332   22.2248 C   0  0  0  0  0  0  0  0  0  0  0  0
    8.3473  -16.5071   24.2328 O   0  0  0  0  0  0  0  0  0  0  0  0
    9.4846  -16.1517   23.7901 C   0  0  0  0  0  0  0  0  0  0  0  0
    7.8650  -21.6531   29.2343 C   0  0  0  0  0  0  0  0  0  0  0  0
    4.9727  -12.5457   26.1447 C   0  0  2  0  0  0  0  0  0  0  0  0
    6.1682  -13.2598   25.5424 C   0  0  0  0  0  0  0  0  0  0  0  0
    7.0912  -13.8115   26.5605 C   0  0  2  0  0  0  0  0  0  0  0  0
    7.6837  -12.6404   27.3588 N   0  0  0  0  0  0  0  0  0  0  0  0
    8.2059  -14.6593   25.9861 C   0  0  0  0  0  0  0  0  0  0  0  0
    7.7165  -15.7985   25.2542 O   0  0  0  0  0  0  0  0  0  0  0  0
    9.1073  -15.0543   27.0796 O   0  0  0  0  0  0  0  0  0  0  0  0
  2  1  1  0
  3  2  2  0
  4  2  1  0
  5  4  1  0
  6  7  1  0
  6  5  1  0
  8  9  1  6
  8 10  1  0
  8  7  1  0
 10 11  2  0
 13 12  1  0
 14 13  2  0
 15 13  1  0
 16 15  1  0
 17 16  1  0
 18 17  1  0
 19 18  1  6
 19 21  1  0
 20 10  1  0
 20 19  1  0
 21 22  2  0
 21 28  1  0
 24 25  1  0
 24 23  1  0
 25 27  1  0
 25 26  1  6
 27 29  1  0
 27 28  1  6
 29 31  2  0
 29 30  1  0
M  END
$$$$
