RRI.pdb
     RDKit          3D

 31 30  0  0  1  0  0  0  0  0999 V2000
    9.8346  -14.2391   19.6838 N   0  0  0  0  0  0  0  0  0  0  0  0
    9.2947  -13.5425   18.5382 C   0  0  0  0  0  0  0  0  0  0  0  0
    9.5236  -12.2911   18.3762 N   0  0  0  0  0  0  0  0  0  0  0  0
    8.5200  -14.2696   17.6189 N   0  0  0  0  0  0  0  0  0  0  0  0
    7.2665  -14.8597   18.0352 C   0  0  0  0  0  0  0  0  0  0  0  0
    7.4950  -16.3140   18.2462 C   0  0  0  0  0  0  0  0  0  0  0  0
    8.0379  -16.7251   19.5627 C   0  0  0  0  0  0  0  0  0  0  0  0
    7.3823  -17.8792   20.2321 C   0  0  2  0  0  0  0  0  0  0  0  0
    6.3014  -18.4162   19.4765 N   0  0  0  0  0  0  0  0  0  0  0  0
    6.8331  -17.3488   21.5397 C   0  0  0  0  0  0  0  0  0  0  0  0
    5.8919  -16.5335   21.4730 O   0  0  0  0  0  0  0  0  0  0  0  0
    9.1500  -11.7359   17.6079 N   0  0  0  0  0  0  0  0  0  0  0  0
   11.1661  -19.0768   26.2862 C   0  0  0  0  0  0  0  0  0  0  0  0
   10.9818  -20.4779   26.0197 N   0  0  0  0  0  0  0  0  0  0  0  0
   11.9963  -21.2655   25.9125 N   0  0  0  0  0  0  0  0  0  0  0  0
    9.6881  -21.0355   25.8676 C   0  0  0  0  0  0  0  0  0  0  0  0
    8.4584  -20.3132   25.9850 C   0  0  0  0  0  0  0  0  0  0  0  0
    8.3568  -19.1316   25.0239 C   0  0  0  0  0  0  0  0  0  0  0  0
    7.0629  -18.4056   25.1438 C   0  0  1  0  0  0  0  0  0  0  0  0
    6.9484  -17.3159   24.0666 N   0  0  0  0  0  0  0  0  0  0  0  0
    7.3752  -17.7709   22.7778 C   0  0  0  0  0  0  0  0  0  0  0  0
    7.7435  -16.1235   24.5068 O   0  0  0  0  0  0  0  0  0  0  0  0
    8.9988  -16.0950   24.3095 C   0  0  0  0  0  0  0  0  0  0  0  0
   11.8240  -22.2633   25.7033 C   0  0  0  0  0  0  0  0  0  0  0  0
    6.3618  -10.3481   26.1872 C   0  0  2  0  0  0  0  0  0  0  0  0
    7.1650  -11.5717   26.5868 C   0  0  0  0  0  0  0  0  0  0  0  0
    6.6073  -12.8351   26.0523 C   0  0  2  0  0  0  0  0  0  0  0  0
    5.6364  -13.4118   27.0936 N   0  0  0  0  0  0  0  0  0  0  0  0
    7.6545  -13.8687   25.6968 C   0  0  0  0  0  0  0  0  0  0  0  0
    7.0858  -15.0621   25.1265 O   0  0  0  0  0  0  0  0  0  0  0  0
    8.4539  -14.1599   26.8970 O   0  0  0  0  0  0  0  0  0  0  0  0
  2  1  1  0
  3  2  2  0
  4  2  1  0
  5  4  1  0
  6  7  1  0
  6  5  1  0
  8  9  1  6
  8 10  1  0
  8  7  1  0
 10 11  2  0
 13 12  1  0
 14 13  2  0
 15 13  1  0
 16 15  1  0
 17 16  1  0
 18 17  1  0
 19 18  1  6
 19 21  1  0
 20 10  1  0
 20 19  1  0
 21 22  2  0
 21 28  1  0
 24 25  1  0
 24 23  1  0
 25 27  1  0
 25 26  1  1
 27 29  1  0
 27 28  1  1
 29 31  2  0
 29 30  1  0
M  END
$$$$
