RRI.pdb
     RDKit          3D

 31 30  0  0  1  0  0  0  0  0999 V2000
    7.7356  -12.6629   13.3563 N   0  0  0  0  0  0  0  0  0  0  0  0
    8.1203  -13.6221   14.3669 C   0  0  0  0  0  0  0  0  0  0  0  0
    9.0007  -14.5172   14.1060 N   0  0  0  0  0  0  0  0  0  0  0  0
    7.5066  -13.5450   15.6284 N   0  0  0  0  0  0  0  0  0  0  0  0
    7.8407  -14.5066   16.6562 C   0  0  0  0  0  0  0  0  0  0  0  0
    6.7088  -14.5561   17.6196 C   0  0  0  0  0  0  0  0  0  0  0  0
    7.0113  -14.2164   19.0302 C   0  0  0  0  0  0  0  0  0  0  0  0
    8.3180  -14.6764   19.5695 C   0  0  2  0  0  0  0  0  0  0  0  0
    8.8081  -15.8413   18.9136 N   0  0  0  0  0  0  0  0  0  0  0  0
    8.0749  -15.0152   21.0252 C   0  0  0  0  0  0  0  0  0  0  0  0
    7.4499  -14.1792   21.7076 O   0  0  0  0  0  0  0  0  0  0  0  0
    9.2796  -15.2516   14.7548 N   0  0  0  0  0  0  0  0  0  0  0  0
    5.8743  -21.7808   25.7797 C   0  0  0  0  0  0  0  0  0  0  0  0
    6.5773  -20.8954   26.6685 N   0  0  0  0  0  0  0  0  0  0  0  0
    6.3699  -20.9393   27.9397 N   0  0  0  0  0  0  0  0  0  0  0  0
    7.5150  -19.9521   26.1800 C   0  0  0  0  0  0  0  0  0  0  0  0
    7.6432  -19.5465   24.8137 C   0  0  0  0  0  0  0  0  0  0  0  0
    8.7049  -18.4707   24.5991 C   0  0  0  0  0  0  0  0  0  0  0  0
    8.8571  -18.0941   23.1671 C   0  0  1  0  0  0  0  0  0  0  0  0
    8.3243  -16.6746   22.9182 N   0  0  0  0  0  0  0  0  0  0  0  0
    8.5426  -16.2340   21.5735 C   0  0  0  0  0  0  0  0  0  0  0  0
    8.9685  -15.7434   23.9008 O   0  0  0  0  0  0  0  0  0  0  0  0
   10.1274  -15.2787   23.6626 C   0  0  0  0  0  0  0  0  0  0  0  0
    6.9231  -20.3143   28.5500 C   0  0  0  0  0  0  0  0  0  0  0  0
    5.7347  -11.9746   25.9740 C   0  0  2  0  0  0  0  0  0  0  0  0
    6.9336  -12.7767   25.5034 C   0  0  0  0  0  0  0  0  0  0  0  0
    7.5335  -13.6090   26.5713 C   0  0  2  0  0  0  0  0  0  0  0  0
    8.0183  -12.6779   27.6927 N   0  0  0  0  0  0  0  0  0  0  0  0
    8.6742  -14.4858   26.1009 C   0  0  0  0  0  0  0  0  0  0  0  0
    8.2787  -15.4022   25.0632 O   0  0  0  0  0  0  0  0  0  0  0  0
    9.2408  -15.1846   27.2649 O   0  0  0  0  0  0  0  0  0  0  0  0
  2  1  1  0
  3  2  2  0
  4  2  1  0
  5  4  1  0
  6  7  1  0
  6  5  1  0
  8  9  1  6
  8 10  1  0
  8  7  1  0
 10 11  2  0
 13 12  1  0
 14 13  2  0
 15 13  1  0
 16 15  1  0
 17 16  1  0
 18 17  1  0
 19 18  1  6
 19 21  1  0
 20 10  1  0
 20 19  1  0
 21 22  2  0
 21 28  1  0
 24 25  1  0
 24 23  1  0
 25 27  1  0
 25 26  1  6
 27 29  1  0
 27 28  1  1
 29 31  2  0
 29 30  1  0
M  END
$$$$
