RRI.pdb
     RDKit          3D

 31 30  0  0  1  0  0  0  0  0999 V2000
   16.6883  -20.9553   21.2370 N   0  0  0  0  0  0  0  0  0  0  0  0
   16.9551  -19.5448   21.0683 C   0  0  0  0  0  0  0  0  0  0  0  0
   18.1552  -19.1000   21.1498 N   0  0  0  0  0  0  0  0  0  0  0  0
   15.8720  -18.6860   20.8163 N   0  0  0  0  0  0  0  0  0  0  0  0
   14.5225  -19.2070   20.8036 C   0  0  0  0  0  0  0  0  0  0  0  0
   13.6043  -18.0864   20.4673 C   0  0  0  0  0  0  0  0  0  0  0  0
   12.1590  -18.4037   20.3831 C   0  0  0  0  0  0  0  0  0  0  0  0
   11.2436  -17.2893   20.0224 C   0  0  2  0  0  0  0  0  0  0  0  0
   11.9172  -16.1986   19.4025 N   0  0  0  0  0  0  0  0  0  0  0  0
   10.6436  -16.8016   21.3243 C   0  0  0  0  0  0  0  0  0  0  0  0
   11.1994  -15.8334   21.8800 O   0  0  0  0  0  0  0  0  0  0  0  0
   18.4042  -18.1133   21.1000 N   0  0  0  0  0  0  0  0  0  0  0  0
    6.6402  -21.2343   27.7705 C   0  0  0  0  0  0  0  0  0  0  0  0
    6.6040  -20.5514   26.5054 N   0  0  0  0  0  0  0  0  0  0  0  0
    6.9837  -21.1457   25.4266 N   0  0  0  0  0  0  0  0  0  0  0  0
    6.1528  -19.2121   26.4032 C   0  0  0  0  0  0  0  0  0  0  0  0
    5.9366  -18.5047   25.1782 C   0  0  0  0  0  0  0  0  0  0  0  0
    7.1091  -17.6119   24.7803 C   0  0  0  0  0  0  0  0  0  0  0  0
    7.6951  -17.9889   23.4649 C   0  0  1  0  0  0  0  0  0  0  0  0
    8.8625  -17.0579   23.1023 N   0  0  0  0  0  0  0  0  0  0  0  0
    9.4991  -17.4280   21.8744 C   0  0  0  0  0  0  0  0  0  0  0  0
    9.8423  -17.0562   24.2371 O   0  0  0  0  0  0  0  0  0  0  0  0
   10.8048  -17.8864   24.2404 C   0  0  0  0  0  0  0  0  0  0  0  0
    7.0466  -20.5913   24.5561 C   0  0  0  0  0  0  0  0  0  0  0  0
   10.7161  -13.2065   29.1378 C   0  0  1  0  0  0  0  0  0  0  0  0
   11.0601  -14.4740   28.3781 C   0  0  0  0  0  0  0  0  0  0  0  0
   10.2305  -14.6711   27.1673 C   0  0  2  0  0  0  0  0  0  0  0  0
    8.7539  -14.5328   27.5673 N   0  0  0  0  0  0  0  0  0  0  0  0
   10.4547  -15.9993   26.4769 C   0  0  0  0  0  0  0  0  0  0  0  0
    9.6782  -16.1371   25.2723 O   0  0  0  0  0  0  0  0  0  0  0  0
   10.1783  -17.0802   27.4358 O   0  0  0  0  0  0  0  0  0  0  0  0
  2  1  1  0
  3  2  2  0
  4  2  1  0
  5  4  1  0
  6  7  1  0
  6  5  1  0
  8  9  1  1
  8 10  1  0
  8  7  1  0
 10 11  2  0
 13 12  1  0
 14 13  2  0
 15 13  1  0
 16 15  1  0
 17 16  1  0
 18 17  1  0
 19 18  1  6
 19 21  1  0
 20 10  1  0
 20 19  1  0
 21 22  2  0
 21 28  1  0
 24 25  1  0
 24 23  1  0
 25 27  1  0
 25 26  1  6
 27 29  1  0
 27 28  1  1
 29 31  2  0
 29 30  1  0
M  END
$$$$
