RRI.pdb
     RDKit          3D

 31 30  0  0  1  0  0  0  0  0999 V2000
    8.3747  -15.6076   13.7807 N   0  0  0  0  0  0  0  0  0  0  0  0
    7.7407  -14.3119   13.8721 C   0  0  0  0  0  0  0  0  0  0  0  0
    7.0478  -13.8611   12.8916 N   0  0  0  0  0  0  0  0  0  0  0  0
    7.9055  -13.5699   15.0537 N   0  0  0  0  0  0  0  0  0  0  0  0
    8.4844  -14.1918   16.2246 C   0  0  0  0  0  0  0  0  0  0  0  0
    7.3696  -14.6470   17.0973 C   0  0  0  0  0  0  0  0  0  0  0  0
    7.4062  -14.2153   18.5148 C   0  0  0  0  0  0  0  0  0  0  0  0
    8.5822  -14.6400   19.3190 C   0  0  2  0  0  0  0  0  0  0  0  0
    9.1313  -15.8798   18.8842 N   0  0  0  0  0  0  0  0  0  0  0  0
    8.0802  -14.8117   20.7372 C   0  0  0  0  0  0  0  0  0  0  0  0
    7.5824  -13.8109   21.2901 O   0  0  0  0  0  0  0  0  0  0  0  0
    6.5774  -12.9574   12.8913 N   0  0  0  0  0  0  0  0  0  0  0  0
    7.6316  -21.6281   24.1674 C   0  0  0  0  0  0  0  0  0  0  0  0
    7.3799  -21.2177   25.5225 N   0  0  0  0  0  0  0  0  0  0  0  0
    7.6553  -22.0010   26.5083 N   0  0  0  0  0  0  0  0  0  0  0  0
    6.8252  -19.9477   25.8173 C   0  0  0  0  0  0  0  0  0  0  0  0
    6.5277  -18.9325   24.8537 C   0  0  0  0  0  0  0  0  0  0  0  0
    7.6961  -17.9854   24.5924 C   0  0  0  0  0  0  0  0  0  0  0  0
    7.9652  -17.7950   23.1409 C   0  0  1  0  0  0  0  0  0  0  0  0
    7.7576  -16.3270   22.7370 N   0  0  0  0  0  0  0  0  0  0  0  0
    8.1779  -16.0623   21.3941 C   0  0  0  0  0  0  0  0  0  0  0  0
    8.4904  -15.4551   23.7119 O   0  0  0  0  0  0  0  0  0  0  0  0
    9.7614  -15.4369   23.7099 C   0  0  0  0  0  0  0  0  0  0  0  0
    7.4077  -21.6940   27.4641 C   0  0  0  0  0  0  0  0  0  0  0  0
    6.8803  -10.4313   26.9628 C   0  0  1  0  0  0  0  0  0  0  0  0
    7.7277  -11.6895   26.9302 C   0  0  0  0  0  0  0  0  0  0  0  0
    7.2243  -12.7067   25.9789 C   0  0  2  0  0  0  0  0  0  0  0  0
    5.9946  -13.3832   26.6030 N   0  0  0  0  0  0  0  0  0  0  0  0
    8.2493  -13.7530   25.5970 C   0  0  0  0  0  0  0  0  0  0  0  0
    7.7586  -14.6754   24.6063 O   0  0  0  0  0  0  0  0  0  0  0  0
    8.6942  -14.4428   26.8178 O   0  0  0  0  0  0  0  0  0  0  0  0
  2  1  1  0
  3  2  2  0
  4  2  1  0
  5  4  1  0
  6  7  1  0
  6  5  1  0
  8  9  1  6
  8 10  1  0
  8  7  1  0
 10 11  2  0
 13 12  1  0
 14 13  2  0
 15 13  1  0
 16 15  1  0
 17 16  1  0
 18 17  1  0
 19 18  1  6
 19 21  1  0
 20 10  1  0
 20 19  1  0
 21 22  2  0
 21 28  1  0
 24 25  1  0
 24 23  1  0
 25 27  1  0
 25 26  1  6
 27 29  1  0
 27 28  1  1
 29 31  2  0
 29 30  1  0
M  END
$$$$
