RRI.pdb
     RDKit          3D

 31 30  0  0  1  0  0  0  0  0999 V2000
    7.7439  -13.3365   14.8770 N   0  0  0  0  0  0  0  0  0  0  0  0
    8.4574  -14.4905   15.3755 C   0  0  0  0  0  0  0  0  0  0  0  0
    8.9577  -15.3432   14.5586 N   0  0  0  0  0  0  0  0  0  0  0  0
    8.5837  -14.6479   16.7659 N   0  0  0  0  0  0  0  0  0  0  0  0
    7.9669  -13.6940   17.6617 C   0  0  0  0  0  0  0  0  0  0  0  0
    6.7487  -14.3272   18.2335 C   0  0  0  0  0  0  0  0  0  0  0  0
    6.7368  -14.5616   19.6969 C   0  0  0  0  0  0  0  0  0  0  0  0
    7.7728  -15.4779   20.2418 C   0  0  2  0  0  0  0  0  0  0  0  0
    7.6762  -16.7976   19.7157 N   0  0  0  0  0  0  0  0  0  0  0  0
    7.5327  -15.5412   21.7356 C   0  0  0  0  0  0  0  0  0  0  0  0
    7.3579  -14.4592   22.3304 O   0  0  0  0  0  0  0  0  0  0  0  0
    9.4684  -16.1773   14.8440 N   0  0  0  0  0  0  0  0  0  0  0  0
    8.9745  -21.7836   25.2634 C   0  0  0  0  0  0  0  0  0  0  0  0
    7.7807  -21.5051   26.0154 N   0  0  0  0  0  0  0  0  0  0  0  0
    7.7237  -21.7623   27.2770 N   0  0  0  0  0  0  0  0  0  0  0  0
    6.6356  -20.9423   25.3991 C   0  0  0  0  0  0  0  0  0  0  0  0
    6.4785  -20.7212   23.9941 C   0  0  0  0  0  0  0  0  0  0  0  0
    6.3843  -19.2439   23.6211 C   0  0  0  0  0  0  0  0  0  0  0  0
    7.4491  -18.4231   24.2599 C   0  0  2  0  0  0  0  0  0  0  0  0
    7.3378  -16.9535   23.8252 N   0  0  0  0  0  0  0  0  0  0  0  0
    7.5095  -16.7838   22.4139 C   0  0  0  0  0  0  0  0  0  0  0  0
    8.3470  -16.1512   24.5903 O   0  0  0  0  0  0  0  0  0  0  0  0
    9.5454  -16.0818   24.1722 C   0  0  0  0  0  0  0  0  0  0  0  0
    6.8392  -21.5727   27.7778 C   0  0  0  0  0  0  0  0  0  0  0  0
    5.9185  -11.9669   27.0314 C   0  0  2  0  0  0  0  0  0  0  0  0
    7.0207  -12.7401   26.3318 C   0  0  0  0  0  0  0  0  0  0  0  0
    7.8420  -13.5518   27.2589 C   0  0  2  0  0  0  0  0  0  0  0  0
    8.7194  -12.5994   28.0850 N   0  0  0  0  0  0  0  0  0  0  0  0
    8.7092  -14.5840   26.5705 C   0  0  0  0  0  0  0  0  0  0  0  0
    7.9483  -15.4917   25.7520 O   0  0  0  0  0  0  0  0  0  0  0  0
    9.4967  -15.2925   27.5913 O   0  0  0  0  0  0  0  0  0  0  0  0
  2  1  1  0
  3  2  2  0
  4  2  1  0
  5  4  1  0
  6  7  1  0
  6  5  1  0
  8  9  1  6
  8 10  1  0
  8  7  1  0
 10 11  2  0
 13 12  1  0
 14 13  2  0
 15 13  1  0
 16 15  1  0
 17 16  1  0
 18 17  1  0
 19 18  1  6
 19 21  1  0
 20 10  1  0
 20 19  1  0
 21 22  2  0
 21 28  1  0
 24 25  1  0
 24 23  1  0
 25 27  1  0
 25 26  1  6
 27 29  1  0
 27 28  1  6
 29 31  2  0
 29 30  1  0
M  END
$$$$
