RRI.pdb
     RDKit          3D

 31 30  0  0  1  0  0  0  0  0999 V2000
    8.9243  -13.5278   16.0264 N   0  0  0  0  0  0  0  0  0  0  0  0
    8.0011  -14.5010   15.4880 C   0  0  0  0  0  0  0  0  0  0  0  0
    8.1558  -14.9477   14.2959 N   0  0  0  0  0  0  0  0  0  0  0  0
    6.9411  -14.9365   16.3008 N   0  0  0  0  0  0  0  0  0  0  0  0
    7.1621  -15.1823   17.7092 C   0  0  0  0  0  0  0  0  0  0  0  0
    7.2553  -13.8648   18.3927 C   0  0  0  0  0  0  0  0  0  0  0  0
    7.3408  -13.8797   19.8723 C   0  0  0  0  0  0  0  0  0  0  0  0
    8.1960  -14.9282   20.4881 C   0  0  2  0  0  0  0  0  0  0  0  0
    8.0081  -16.2113   19.8998 N   0  0  0  0  0  0  0  0  0  0  0  0
    7.7828  -15.0052   21.9428 C   0  0  0  0  0  0  0  0  0  0  0  0
    7.6874  -13.9289   22.5653 O   0  0  0  0  0  0  0  0  0  0  0  0
    7.5357  -15.6242   13.8535 N   0  0  0  0  0  0  0  0  0  0  0  0
    8.4903  -21.7124   22.0750 C   0  0  0  0  0  0  0  0  0  0  0  0
    9.0026  -21.8507   23.4116 N   0  0  0  0  0  0  0  0  0  0  0  0
   10.0374  -22.5821   23.6464 N   0  0  0  0  0  0  0  0  0  0  0  0
    8.3914  -21.1920   24.5072 C   0  0  0  0  0  0  0  0  0  0  0  0
    7.3032  -20.2677   24.4126 C   0  0  0  0  0  0  0  0  0  0  0  0
    7.7531  -18.8199   24.2335 C   0  0  0  0  0  0  0  0  0  0  0  0
    6.6108  -17.8664   24.1913 C   0  0  1  0  0  0  0  0  0  0  0  0
    7.1044  -16.4379   23.9142 N   0  0  0  0  0  0  0  0  0  0  0  0
    7.5183  -16.2538   22.5560 C   0  0  0  0  0  0  0  0  0  0  0  0
    8.2214  -16.1257   24.8642 O   0  0  0  0  0  0  0  0  0  0  0  0
    9.4117  -16.4601   24.5695 C   0  0  0  0  0  0  0  0  0  0  0  0
   10.3812  -22.6496   24.6192 C   0  0  0  0  0  0  0  0  0  0  0  0
    6.6977  -11.4614   27.0811 C   0  0  2  0  0  0  0  0  0  0  0  0
    7.5290  -12.5729   26.4682 C   0  0  0  0  0  0  0  0  0  0  0  0
    8.1357  -13.4711   27.4772 C   0  0  2  0  0  0  0  0  0  0  0  0
    9.1465  -12.6582   28.3001 N   0  0  0  0  0  0  0  0  0  0  0  0
    8.8129  -14.6902   26.8885 C   0  0  0  0  0  0  0  0  0  0  0  0
    7.9307  -15.4691   26.0591 O   0  0  0  0  0  0  0  0  0  0  0  0
    9.3824  -15.4874   27.9859 O   0  0  0  0  0  0  0  0  0  0  0  0
  2  1  1  0
  3  2  2  0
  4  2  1  0
  5  4  1  0
  6  7  1  0
  6  5  1  0
  8  9  1  6
  8 10  1  0
  8  7  1  0
 10 11  2  0
 13 12  1  0
 14 13  2  0
 15 13  1  0
 16 15  1  0
 17 16  1  0
 18 17  1  0
 19 18  1  6
 19 21  1  0
 20 10  1  0
 20 19  1  0
 21 22  2  0
 21 28  1  0
 24 25  1  0
 24 23  1  0
 25 27  1  0
 25 26  1  6
 27 29  1  0
 27 28  1  6
 29 31  2  0
 29 30  1  0
M  END
$$$$
