SHQ.pdb
     RDKit          3D

 26 26  0  0  1  0  0  0  0  0999 V2000
   14.8126  -16.5702   18.0548 O   0  0  0  0  0  0  0  0  0  0  0  0
   13.9212  -16.1163   17.0886 C   0  0  0  0  0  0  0  0  0  0  0  0
   13.5400  -14.6763   17.3802 C   0  0  2  0  0  0  0  0  0  0  0  0
   14.6617  -13.7951   17.3366 N   0  0  0  0  0  0  0  0  0  0  0  0
   12.8859  -14.6434   18.7118 C   0  0  0  0  0  0  0  0  0  0  0  0
   13.5167  -14.1903   19.6733 O   0  0  0  0  0  0  0  0  0  0  0  0
   11.5597  -15.1140   18.9211 N   0  0  0  0  0  0  0  0  0  0  0  0
   10.9445  -15.1835   20.2227 C   0  0  1  0  0  0  0  0  0  0  0  0
    9.4511  -15.3213   20.1588 C   0  0  0  0  0  0  0  0  0  0  0  0
    8.7977  -14.3716   19.2317 C   0  0  0  0  0  0  0  0  0  0  0  0
    8.4521  -13.0436   19.3908 C   0  0  0  0  0  0  0  0  0  0  0  0
    7.8736  -12.6718   18.2428 N   0  0  0  0  0  0  0  0  0  0  0  0
    7.8464  -13.7020   17.3878 C   0  0  0  0  0  0  0  0  0  0  0  0
    8.4139  -14.7651   17.9807 N   0  0  0  0  0  0  0  0  0  0  0  0
   11.5654  -16.2130   21.0875 C   0  0  0  0  0  0  0  0  0  0  0  0
   11.9189  -17.3361   20.6462 O   0  0  0  0  0  0  0  0  0  0  0  0
   17.2059  -16.8457   21.5243 N   0  0  0  0  0  0  0  0  0  0  0  0
   16.6017  -16.1270   22.5999 C   0  0  0  0  0  0  0  0  0  0  0  0
   17.0812  -15.0368   23.0411 O   0  0  0  0  0  0  0  0  0  0  0  0
   15.3716  -16.6123   23.2603 C   0  0  0  0  0  0  0  0  0  0  0  0
   14.1031  -16.1083   22.6802 C   0  0  0  0  0  0  0  0  0  0  0  0
   12.8255  -16.5795   23.2580 C   0  0  2  0  0  0  0  0  0  0  0  0
   11.7659  -15.9262   22.4418 N   0  0  0  0  0  0  0  0  0  0  0  0
   12.5628  -16.3529   24.6609 C   0  0  0  0  0  0  0  0  0  0  0  0
   11.6033  -15.5055   25.1938 O   0  0  0  0  0  0  0  0  0  0  0  0
   13.2647  -16.9689   25.5340 O   0  0  0  0  0  0  0  0  0  0  0  0
  2  1  1  0
  2  3  1  0
  3  4  1  1
  5  3  1  0
  5  6  2  0
  7  5  1  0
  8  7  1  0
  8  9  1  6
 10  9  1  0
 10 11  2  0
 12 11  1  0
 13 12  1  0
 14 13  2  0
 14 10  1  0
 15  8  1  0
 16 15  2  0
 17 18  1  0
 18 19  2  0
 18 20  1  0
 20 21  1  0
 22 21  1  6
 22 24  1  0
 22 23  1  0
 23 15  1  0
 24 25  1  0
 26 24  2  0
M  END
$$$$
