SHQ.pdb
     RDKit          3D

 26 26  0  0  1  0  0  0  0  0999 V2000
   15.3533  -16.9036   16.9558 O   0  0  0  0  0  0  0  0  0  0  0  0
   14.8976  -16.4116   15.7374 C   0  0  0  0  0  0  0  0  0  0  0  0
   14.6370  -14.9207   15.8528 C   0  0  2  0  0  0  0  0  0  0  0  0
   15.8416  -14.1622   15.9548 N   0  0  0  0  0  0  0  0  0  0  0  0
   13.7677  -14.7048   17.0359 C   0  0  0  0  0  0  0  0  0  0  0  0
   14.2972  -14.4905   18.1319 O   0  0  0  0  0  0  0  0  0  0  0  0
   12.3476  -14.7353   16.9537 N   0  0  0  0  0  0  0  0  0  0  0  0
   11.4877  -14.5119   18.0887 C   0  0  1  0  0  0  0  0  0  0  0  0
   10.0344  -14.4446   17.7188 C   0  0  0  0  0  0  0  0  0  0  0  0
    9.1467  -14.0496   18.8343 C   0  0  0  0  0  0  0  0  0  0  0  0
    9.4123  -13.8464   20.1746 C   0  0  0  0  0  0  0  0  0  0  0  0
    8.2441  -13.5156   20.7372 N   0  0  0  0  0  0  0  0  0  0  0  0
    7.2759  -13.5050   19.8123 C   0  0  0  0  0  0  0  0  0  0  0  0
    7.8137  -13.8331   18.6262 N   0  0  0  0  0  0  0  0  0  0  0  0
   11.7420  -15.4707   19.1883 C   0  0  0  0  0  0  0  0  0  0  0  0
   11.8719  -16.7050   18.9860 O   0  0  0  0  0  0  0  0  0  0  0  0
   16.2193  -14.4013   22.6851 N   0  0  0  0  0  0  0  0  0  0  0  0
   15.6633  -15.4851   23.4297 C   0  0  0  0  0  0  0  0  0  0  0  0
   16.2689  -16.0140   24.4128 O   0  0  0  0  0  0  0  0  0  0  0  0
   14.3388  -16.0520   23.0991 C   0  0  0  0  0  0  0  0  0  0  0  0
   13.6209  -15.3744   21.9922 C   0  0  0  0  0  0  0  0  0  0  0  0
   12.2603  -15.8386   21.6437 C   0  0  2  0  0  0  0  0  0  0  0  0
   11.8414  -14.9870   20.4969 N   0  0  0  0  0  0  0  0  0  0  0  0
   11.2310  -15.8226   22.6582 C   0  0  0  0  0  0  0  0  0  0  0  0
   11.0840  -16.7280   23.6980 O   0  0  0  0  0  0  0  0  0  0  0  0
   10.3423  -14.9040   22.6300 O   0  0  0  0  0  0  0  0  0  0  0  0
  2  1  1  0
  2  3  1  0
  3  4  1  1
  5  3  1  0
  5  6  2  0
  7  5  1  0
  8  7  1  0
  8  9  1  6
 10  9  1  0
 10 11  2  0
 12 11  1  0
 13 12  1  0
 14 13  2  0
 14 10  1  0
 15  8  1  0
 16 15  2  0
 17 18  1  0
 18 19  2  0
 18 20  1  0
 20 21  1  0
 22 21  1  1
 22 24  1  0
 22 23  1  0
 23 15  1  0
 24 25  1  0
 26 24  2  0
M  END
$$$$
