SHQ.pdb
     RDKit          3D

 26 26  0  0  1  0  0  0  0  0999 V2000
   12.0918  -18.6439   14.5094 O   0  0  0  0  0  0  0  0  0  0  0  0
   11.0981  -18.1582   13.6663 C   0  0  0  0  0  0  0  0  0  0  0  0
   11.3127  -16.6754   13.4233 C   0  0  2  0  0  0  0  0  0  0  0  0
   12.5479  -16.4037   12.7622 N   0  0  0  0  0  0  0  0  0  0  0  0
   11.2476  -15.9887   14.7373 C   0  0  0  0  0  0  0  0  0  0  0  0
   12.2954  -15.5726   15.2436 O   0  0  0  0  0  0  0  0  0  0  0  0
   10.0229  -15.7921   15.4343 N   0  0  0  0  0  0  0  0  0  0  0  0
    9.9433  -15.1472   16.7209 C   0  0  1  0  0  0  0  0  0  0  0  0
    8.5318  -14.8821   17.1575 C   0  0  0  0  0  0  0  0  0  0  0  0
    8.4239  -14.0368   18.3666 C   0  0  0  0  0  0  0  0  0  0  0  0
    9.3983  -13.4887   19.1782 C   0  0  0  0  0  0  0  0  0  0  0  0
    8.7476  -12.8238   20.1401 N   0  0  0  0  0  0  0  0  0  0  0  0
    7.4253  -12.9350   19.9610 C   0  0  0  0  0  0  0  0  0  0  0  0
    7.2030  -13.6827   18.8677 N   0  0  0  0  0  0  0  0  0  0  0  0
   10.7266  -15.8565   17.7584 C   0  0  0  0  0  0  0  0  0  0  0  0
   10.7484  -17.1109   17.8425 O   0  0  0  0  0  0  0  0  0  0  0  0
   15.6601  -13.2363   20.2433 N   0  0  0  0  0  0  0  0  0  0  0  0
   15.8067  -14.6028   20.6299 C   0  0  0  0  0  0  0  0  0  0  0  0
   16.7210  -14.9893   21.4223 O   0  0  0  0  0  0  0  0  0  0  0  0
   14.8916  -15.6506   20.1305 C   0  0  0  0  0  0  0  0  0  0  0  0
   13.7200  -15.1543   19.3684 C   0  0  0  0  0  0  0  0  0  0  0  0
   12.3883  -15.7232   19.6701 C   0  0  2  0  0  0  0  0  0  0  0  0
   11.4680  -15.1055   18.6764 N   0  0  0  0  0  0  0  0  0  0  0  0
   11.8411  -15.5650   20.9983 C   0  0  0  0  0  0  0  0  0  0  0  0
   10.7471  -14.7903   21.3525 O   0  0  0  0  0  0  0  0  0  0  0  0
   12.3920  -16.1768   21.9764 O   0  0  0  0  0  0  0  0  0  0  0  0
  2  1  1  0
  2  3  1  0
  3  4  1  1
  5  3  1  0
  5  6  2  0
  7  5  1  0
  8  7  1  0
  8  9  1  1
 10  9  1  0
 10 11  2  0
 12 11  1  0
 13 12  1  0
 14 13  2  0
 14 10  1  0
 15  8  1  0
 16 15  2  0
 17 18  1  0
 18 19  2  0
 18 20  1  0
 20 21  1  0
 22 21  1  1
 22 24  1  0
 22 23  1  0
 23 15  1  0
 24 25  1  0
 26 24  2  0
M  END
$$$$
