SHQ.pdb
     RDKit          3D

 26 26  0  0  1  0  0  0  0  0999 V2000
    6.9669  -21.4475   19.1797 O   0  0  0  0  0  0  0  0  0  0  0  0
    7.0433  -21.4238   20.5681 C   0  0  0  0  0  0  0  0  0  0  0  0
    6.1218  -20.3479   21.1130 C   0  0  2  0  0  0  0  0  0  0  0  0
    4.9403  -20.1920   20.3279 N   0  0  0  0  0  0  0  0  0  0  0  0
    6.8933  -19.0817   21.1749 C   0  0  0  0  0  0  0  0  0  0  0  0
    8.0627  -19.1166   21.5731 O   0  0  0  0  0  0  0  0  0  0  0  0
    6.3353  -17.8301   20.7921 N   0  0  0  0  0  0  0  0  0  0  0  0
    7.0054  -16.5714   21.0025 C   0  0  1  0  0  0  0  0  0  0  0  0
    6.4238  -15.4540   20.1861 C   0  0  0  0  0  0  0  0  0  0  0  0
    7.2005  -14.1964   20.2466 C   0  0  0  0  0  0  0  0  0  0  0  0
    6.9455  -13.0052   20.8979 C   0  0  0  0  0  0  0  0  0  0  0  0
    7.9702  -12.1961   20.6038 N   0  0  0  0  0  0  0  0  0  0  0  0
    8.8402  -12.8287   19.8064 C   0  0  0  0  0  0  0  0  0  0  0  0
    8.3823  -14.0695   19.5727 N   0  0  0  0  0  0  0  0  0  0  0  0
    7.1117  -16.2202   22.4373 C   0  0  0  0  0  0  0  0  0  0  0  0
    6.1023  -16.1192   23.1802 O   0  0  0  0  0  0  0  0  0  0  0  0
    7.2829  -19.6789   26.0660 N   0  0  0  0  0  0  0  0  0  0  0  0
    7.8416  -18.7122   26.9557 C   0  0  0  0  0  0  0  0  0  0  0  0
    7.9590  -18.9254   28.2022 O   0  0  0  0  0  0  0  0  0  0  0  0
    8.3241  -17.4020   26.4706 C   0  0  0  0  0  0  0  0  0  0  0  0
    8.1457  -17.1623   25.0178 C   0  0  0  0  0  0  0  0  0  0  0  0
    8.6171  -15.8802   24.4501 C   0  0  2  0  0  0  0  0  0  0  0  0
    8.3785  -15.9933   22.9852 N   0  0  0  0  0  0  0  0  0  0  0  0
    9.9815  -15.4665   24.6865 C   0  0  0  0  0  0  0  0  0  0  0  0
   11.0113  -15.4519   23.7582 O   0  0  0  0  0  0  0  0  0  0  0  0
   10.3200  -15.0728   25.8548 O   0  0  0  0  0  0  0  0  0  0  0  0
  2  1  1  0
  2  3  1  0
  3  4  1  6
  5  3  1  0
  5  6  2  0
  7  5  1  0
  8  7  1  0
  8  9  1  6
 10  9  1  0
 10 11  2  0
 12 11  1  0
 13 12  1  0
 14 13  2  0
 14 10  1  0
 15  8  1  0
 16 15  2  0
 17 18  1  0
 18 19  2  0
 18 20  1  0
 20 21  1  0
 22 21  1  1
 22 24  1  0
 22 23  1  0
 23 15  1  0
 24 25  1  0
 26 24  2  0
M  END
$$$$
