SHQ.pdb
     RDKit          3D

 26 26  0  0  1  0  0  0  0  0999 V2000
   12.0276  -17.9986   16.2093 O   0  0  0  0  0  0  0  0  0  0  0  0
   10.6384  -17.9628   16.1542 C   0  0  0  0  0  0  0  0  0  0  0  0
   10.1658  -16.5219   16.0904 C   0  0  2  0  0  0  0  0  0  0  0  0
   10.7161  -15.8155   14.9792 N   0  0  0  0  0  0  0  0  0  0  0  0
   10.5314  -15.8698   17.3724 C   0  0  0  0  0  0  0  0  0  0  0  0
   11.5201  -15.1289   17.4021 O   0  0  0  0  0  0  0  0  0  0  0  0
    9.7847  -16.0667   18.5674 N   0  0  0  0  0  0  0  0  0  0  0  0
   10.1748  -15.5141   19.8402 C   0  0  1  0  0  0  0  0  0  0  0  0
    9.0089  -15.2585   20.7505 C   0  0  0  0  0  0  0  0  0  0  0  0
    8.0378  -14.2747   20.2237 C   0  0  0  0  0  0  0  0  0  0  0  0
    6.9741  -14.4279   19.3556 C   0  0  0  0  0  0  0  0  0  0  0  0
    6.4398  -13.2100   19.2069 N   0  0  0  0  0  0  0  0  0  0  0  0
    7.1197  -12.3180   19.9384 C   0  0  0  0  0  0  0  0  0  0  0  0
    8.1140  -12.9568   20.5763 N   0  0  0  0  0  0  0  0  0  0  0  0
   11.2368  -16.3079   20.4998 C   0  0  0  0  0  0  0  0  0  0  0  0
   11.1519  -17.5542   20.6439 O   0  0  0  0  0  0  0  0  0  0  0  0
   17.3823  -14.8497   19.5972 N   0  0  0  0  0  0  0  0  0  0  0  0
   16.0695  -14.3856   19.2818 C   0  0  0  0  0  0  0  0  0  0  0  0
   15.8131  -13.7517   18.2115 O   0  0  0  0  0  0  0  0  0  0  0  0
   14.9260  -14.6245   20.1874 C   0  0  0  0  0  0  0  0  0  0  0  0
   14.6423  -16.0499   20.4830 C   0  0  0  0  0  0  0  0  0  0  0  0
   13.5822  -16.3708   21.4635 C   0  0  2  0  0  0  0  0  0  0  0  0
   12.3739  -15.6491   20.9789 N   0  0  0  0  0  0  0  0  0  0  0  0
   13.7999  -16.0649   22.8591 C   0  0  0  0  0  0  0  0  0  0  0  0
   14.7469  -16.6416   23.6917 O   0  0  0  0  0  0  0  0  0  0  0  0
   13.0653  -15.1858   23.4265 O   0  0  0  0  0  0  0  0  0  0  0  0
  2  1  1  0
  2  3  1  0
  3  4  1  6
  5  3  1  0
  5  6  2  0
  7  5  1  0
  8  7  1  0
  8  9  1  1
 10  9  1  0
 10 11  2  0
 12 11  1  0
 13 12  1  0
 14 13  2  0
 14 10  1  0
 15  8  1  0
 16 15  2  0
 17 18  1  0
 18 19  2  0
 18 20  1  0
 20 21  1  0
 22 21  1  6
 22 24  1  0
 22 23  1  0
 23 15  1  0
 24 25  1  0
 26 24  2  0
M  END
$$$$
