SHQ.pdb
     RDKit          3D

 26 26  0  0  1  0  0  0  0  0999 V2000
   10.4884  -18.7905   22.4181 O   0  0  0  0  0  0  0  0  0  0  0  0
    9.7024  -18.3683   21.3512 C   0  0  0  0  0  0  0  0  0  0  0  0
   10.1081  -16.9644   20.9408 C   0  0  2  0  0  0  0  0  0  0  0  0
   11.4394  -16.9082   20.4297 N   0  0  0  0  0  0  0  0  0  0  0  0
    9.9532  -16.0852   22.1262 C   0  0  0  0  0  0  0  0  0  0  0  0
   10.9273  -15.9063   22.8655 O   0  0  0  0  0  0  0  0  0  0  0  0
    8.7244  -15.4410   22.4416 N   0  0  0  0  0  0  0  0  0  0  0  0
    8.5137  -14.6988   23.6591 C   0  0  1  0  0  0  0  0  0  0  0  0
    7.1667  -14.0389   23.7178 C   0  0  0  0  0  0  0  0  0  0  0  0
    6.9894  -13.1333   24.8740 C   0  0  0  0  0  0  0  0  0  0  0  0
    7.6453  -11.9678   25.2201 C   0  0  0  0  0  0  0  0  0  0  0  0
    7.0967  -11.5628   26.3716 N   0  0  0  0  0  0  0  0  0  0  0  0
    6.1387  -12.4185   26.7497 C   0  0  0  0  0  0  0  0  0  0  0  0
    6.0560  -13.3991   25.8357 N   0  0  0  0  0  0  0  0  0  0  0  0
    8.7956  -15.5050   24.8689 C   0  0  0  0  0  0  0  0  0  0  0  0
    8.5361  -16.7337   24.9323 O   0  0  0  0  0  0  0  0  0  0  0  0
   12.7904  -18.4252   25.9569 N   0  0  0  0  0  0  0  0  0  0  0  0
   12.3948  -18.4111   27.3286 C   0  0  0  0  0  0  0  0  0  0  0  0
   12.9361  -19.1617   28.1984 O   0  0  0  0  0  0  0  0  0  0  0  0
   11.3294  -17.5106   27.8174 C   0  0  0  0  0  0  0  0  0  0  0  0
   10.7423  -16.6133   26.7927 C   0  0  0  0  0  0  0  0  0  0  0  0
    9.7403  -15.6127   27.2204 C   0  0  2  0  0  0  0  0  0  0  0  0
    9.3707  -14.8784   25.9794 N   0  0  0  0  0  0  0  0  0  0  0  0
   10.0896  -14.6664   28.2553 C   0  0  0  0  0  0  0  0  0  0  0  0
   10.1200  -13.2855   28.1339 O   0  0  0  0  0  0  0  0  0  0  0  0
   10.4160  -15.1006   29.4126 O   0  0  0  0  0  0  0  0  0  0  0  0
  2  1  1  0
  2  3  1  0
  3  4  1  1
  5  3  1  0
  5  6  2  0
  7  5  1  0
  8  7  1  0
  8  9  1  1
 10  9  1  0
 10 11  2  0
 12 11  1  0
 13 12  1  0
 14 13  2  0
 14 10  1  0
 15  8  1  0
 16 15  2  0
 17 18  1  0
 18 19  2  0
 18 20  1  0
 20 21  1  0
 22 21  1  6
 22 24  1  0
 22 23  1  0
 23 15  1  0
 24 25  1  0
 26 24  2  0
M  END
$$$$
