SHQ.pdb
     RDKit          3D

 26 26  0  0  1  0  0  0  0  0999 V2000
    7.4093  -19.4338   21.7303 O   0  0  0  0  0  0  0  0  0  0  0  0
    6.2632  -18.8269   21.2280 C   0  0  0  0  0  0  0  0  0  0  0  0
    6.5519  -18.2443   19.8564 C   0  0  2  0  0  0  0  0  0  0  0  0
    6.7313  -19.2520   18.8620 N   0  0  0  0  0  0  0  0  0  0  0  0
    7.7588  -17.3889   19.9743 C   0  0  0  0  0  0  0  0  0  0  0  0
    8.8556  -17.8604   19.6546 O   0  0  0  0  0  0  0  0  0  0  0  0
    7.6985  -16.0465   20.4417 N   0  0  0  0  0  0  0  0  0  0  0  0
    8.8686  -15.2297   20.6451 C   0  0  1  0  0  0  0  0  0  0  0  0
    8.6324  -13.7798   20.3363 C   0  0  0  0  0  0  0  0  0  0  0  0
    8.1679  -13.5260   18.9550 C   0  0  0  0  0  0  0  0  0  0  0  0
    6.9652  -13.0411   18.4788 C   0  0  0  0  0  0  0  0  0  0  0  0
    7.0750  -13.0246   17.1451 N   0  0  0  0  0  0  0  0  0  0  0  0
    8.2820  -13.4737   16.7784 C   0  0  0  0  0  0  0  0  0  0  0  0
    8.9750  -13.7899   17.8845 N   0  0  0  0  0  0  0  0  0  0  0  0
    9.4698  -15.4264   21.9841 C   0  0  0  0  0  0  0  0  0  0  0  0
    8.7948  -15.3435   23.0418 O   0  0  0  0  0  0  0  0  0  0  0  0
   10.2149  -20.4176   23.4132 N   0  0  0  0  0  0  0  0  0  0  0  0
   11.1248  -19.9492   24.4087 C   0  0  0  0  0  0  0  0  0  0  0  0
   11.5660  -20.7013   25.3321 O   0  0  0  0  0  0  0  0  0  0  0  0
   11.6126  -18.5539   24.4160 C   0  0  0  0  0  0  0  0  0  0  0  0
   11.0971  -17.6995   23.3187 C   0  0  0  0  0  0  0  0  0  0  0  0
   11.4641  -16.2665   23.3071 C   0  0  2  0  0  0  0  0  0  0  0  0
   10.8354  -15.7147   22.0758 N   0  0  0  0  0  0  0  0  0  0  0  0
   12.8613  -15.8986   23.3422 C   0  0  0  0  0  0  0  0  0  0  0  0
   13.6784  -15.8696   24.4620 O   0  0  0  0  0  0  0  0  0  0  0  0
   13.4421  -15.5522   22.2573 O   0  0  0  0  0  0  0  0  0  0  0  0
  2  1  1  0
  2  3  1  0
  3  4  1  6
  5  3  1  0
  5  6  2  0
  7  5  1  0
  8  7  1  0
  8  9  1  1
 10  9  1  0
 10 11  2  0
 12 11  1  0
 13 12  1  0
 14 13  2  0
 14 10  1  0
 15  8  1  0
 16 15  2  0
 17 18  1  0
 18 19  2  0
 18 20  1  0
 20 21  1  0
 22 21  1  6
 22 24  1  0
 22 23  1  0
 23 15  1  0
 24 25  1  0
 26 24  2  0
M  END
$$$$
