SHQ.pdb
     RDKit          3D

 26 26  0  0  1  0  0  0  0  0999 V2000
   10.4288  -21.0635   18.3786 O   0  0  0  0  0  0  0  0  0  0  0  0
    9.2910  -20.5472   17.7678 C   0  0  0  0  0  0  0  0  0  0  0  0
    9.6632  -19.3341   16.9349 C   0  0  2  0  0  0  0  0  0  0  0  0
   10.8736  -19.5245   16.2034 N   0  0  0  0  0  0  0  0  0  0  0  0
    9.7702  -18.1725   17.8522 C   0  0  0  0  0  0  0  0  0  0  0  0
   10.8734  -17.8963   18.3360 O   0  0  0  0  0  0  0  0  0  0  0  0
    8.6491  -17.3659   18.1942 N   0  0  0  0  0  0  0  0  0  0  0  0
    8.7208  -16.2745   19.1328 C   0  0  1  0  0  0  0  0  0  0  0  0
    7.5022  -15.3982   19.1072 C   0  0  0  0  0  0  0  0  0  0  0  0
    7.6309  -14.1637   19.9120 C   0  0  0  0  0  0  0  0  0  0  0  0
    7.1573  -13.8502   21.1713 C   0  0  0  0  0  0  0  0  0  0  0  0
    7.5490  -12.5933   21.4115 N   0  0  0  0  0  0  0  0  0  0  0  0
    8.2381  -12.1196   20.3658 C   0  0  0  0  0  0  0  0  0  0  0  0
    8.3006  -13.0765   19.4255 N   0  0  0  0  0  0  0  0  0  0  0  0
    9.0563  -16.7273   20.5023 C   0  0  0  0  0  0  0  0  0  0  0  0
    8.5846  -17.7841   20.9943 O   0  0  0  0  0  0  0  0  0  0  0  0
   14.6565  -15.8471   22.6255 N   0  0  0  0  0  0  0  0  0  0  0  0
   14.0227  -16.2799   23.8293 C   0  0  0  0  0  0  0  0  0  0  0  0
   14.6818  -16.5838   24.8715 O   0  0  0  0  0  0  0  0  0  0  0  0
   12.5525  -16.3930   23.9322 C   0  0  0  0  0  0  0  0  0  0  0  0
   11.8059  -16.0599   22.6946 C   0  0  0  0  0  0  0  0  0  0  0  0
   10.3548  -16.3433   22.6470 C   0  0  2  0  0  0  0  0  0  0  0  0
    9.9280  -15.9533   21.2753 N   0  0  0  0  0  0  0  0  0  0  0  0
    9.4849  -15.7206   23.6186 C   0  0  0  0  0  0  0  0  0  0  0  0
    9.2228  -16.1755   24.9019 O   0  0  0  0  0  0  0  0  0  0  0  0
    8.8698  -14.6445   23.3054 O   0  0  0  0  0  0  0  0  0  0  0  0
  2  1  1  0
  2  3  1  0
  3  4  1  1
  5  3  1  0
  5  6  2  0
  7  5  1  0
  8  7  1  0
  8  9  1  1
 10  9  1  0
 10 11  2  0
 12 11  1  0
 13 12  1  0
 14 13  2  0
 14 10  1  0
 15  8  1  0
 16 15  2  0
 17 18  1  0
 18 19  2  0
 18 20  1  0
 20 21  1  0
 22 21  1  1
 22 24  1  0
 22 23  1  0
 23 15  1  0
 24 25  1  0
 26 24  2  0
M  END
$$$$
