RYW.pdb
     RDKit          3D

 38 40  0  0  1  0  0  0  0  0999 V2000
   26.6384  -25.5140  -15.8867 N   0  0  0  0  0  0  0  0  0  0  0  0
   27.8952  -26.1066  -16.1216 C   0  0  0  0  0  0  0  0  0  0  0  0
   28.0604  -27.3922  -16.1680 N   0  0  0  0  0  0  0  0  0  0  0  0
   29.0003  -25.2529  -16.3105 N   0  0  0  0  0  0  0  0  0  0  0  0
   28.8041  -23.8217  -16.2505 C   0  0  0  0  0  0  0  0  0  0  0  0
   29.5684  -23.1172  -17.3439 C   0  0  0  0  0  0  0  0  0  0  0  0
   29.4157  -21.6309  -17.1468 C   0  0  0  0  0  0  0  0  0  0  0  0
   27.9635  -21.2139  -17.1818 C   0  0  2  0  0  0  0  0  0  0  0  0
   27.6400  -20.4389  -18.3502 N   0  0  0  0  0  0  0  0  0  0  0  0
   27.6196  -20.3917  -15.9847 C   0  0  0  0  0  0  0  0  0  0  0  0
   28.3308  -19.3816  -15.6547 O   0  0  0  0  0  0  0  0  0  0  0  0
   28.9734  -27.7873  -16.4268 O   0  0  0  0  0  0  0  0  0  0  0  0
   20.5542  -22.3867  -15.4999 C   0  0  0  0  0  0  0  0  0  0  0  0
   21.6394  -21.5871  -15.1654 C   0  0  0  0  0  0  0  0  0  0  0  0
   22.4043  -20.9247  -16.1181 C   0  0  0  0  0  0  0  0  0  0  0  0
   23.4556  -20.1528  -15.7598 C   0  0  0  0  0  0  0  0  0  0  0  0
   23.7948  -20.0047  -14.4391 C   0  0  0  0  0  0  0  0  0  0  0  0
   24.9482  -19.1771  -14.0109 C   0  0  1  0  0  0  0  0  0  0  0  0
   26.2372  -19.9213  -13.9322 N   0  0  0  0  0  0  0  0  0  0  0  0
   26.5151  -20.6656  -15.1572 C   0  0  0  0  0  0  0  0  0  0  0  0
   26.1728  -20.8846  -12.8280 O   0  0  0  0  0  0  0  0  0  0  0  0
   25.8909  -22.1077  -12.9827 C   0  0  0  0  0  0  0  0  0  0  0  0
   23.0613  -20.6448  -13.4695 C   0  0  0  0  0  0  0  0  0  0  0  0
   21.9980  -21.4252  -13.8296 N   0  0  0  0  0  0  0  0  0  0  0  0
   26.4364  -20.4459  -11.5087 C   0  0  2  0  0  0  0  0  0  0  0  0
   26.1476  -21.2538  -10.3298 C   0  0  0  0  0  0  0  0  0  0  0  0
   27.4695  -21.3517   -9.6017 C   0  0  0  0  0  0  0  0  0  0  0  0
   27.3547  -20.6602   -8.3041 C   0  0  0  0  0  0  0  0  0  0  0  0
   26.1726  -20.1461   -7.7812 N   0  0  0  0  0  0  0  0  0  0  0  0
   26.4230  -19.6416   -6.5757 C   0  0  0  0  0  0  0  0  0  0  0  0
   27.7136  -19.8018   -6.2879 C   0  0  0  0  0  0  0  0  0  0  0  0
   28.4810  -19.4565   -5.1931 C   0  0  0  0  0  0  0  0  0  0  0  0
   29.8309  -19.7299   -5.1465 C   0  0  0  0  0  0  0  0  0  0  0  0
   30.4404  -20.3623   -6.2122 C   0  0  0  0  0  0  0  0  0  0  0  0
   29.6636  -20.6999   -7.2937 C   0  0  0  0  0  0  0  0  0  0  0  0
   28.3110  -20.4370   -7.3600 C   0  0  0  0  0  0  0  0  0  0  0  0
   25.0177  -20.7653   -9.5744 O   0  0  0  0  0  0  0  0  0  0  0  0
   24.5362  -21.3974   -8.5955 O   0  0  0  0  0  0  0  0  0  0  0  0
  2  1  1  0
  2  3  2  0
  4  5  1  0
  4  2  1  0
  5  6  1  0
  6  7  1  0
  7  8  1  0
  8  9  1  6
 10 11  2  0
 10  8  1  0
 12 13  1  0
 13 23  2  0
 13 14  1  0
 14 15  2  0
 15 16  1  0
 16 17  1  0
 18 17  1  6
 18 19  1  0
 18 20  1  0
 19 10  1  0
 20 21  2  0
 22 16  2  0
 23 22  1  0
 24 20  1  0
 24 25  1  0
 25 26  1  1
 26 27  1  0
 27 28  2  0
 28 29  1  0
 30 31  2  0
 30 29  1  0
 32 31  1  0
 33 32  2  0
 34 33  1  0
 34 35  2  0
 35 27  1  0
 35 30  1  0
 36 25  1  0
 36 38  1  0
 37 36  2  0
M  END
$$$$
