RYW.pdb
     RDKit          3D

 38 40  0  0  1  0  0  0  0  0999 V2000
   17.2387  -24.7141  -11.9000 N   0  0  0  0  0  0  0  0  0  0  0  0
   18.3416  -24.4492  -11.0638 C   0  0  0  0  0  0  0  0  0  0  0  0
   18.2140  -24.2355   -9.7909 N   0  0  0  0  0  0  0  0  0  0  0  0
   19.6216  -24.4201  -11.6522 N   0  0  0  0  0  0  0  0  0  0  0  0
   19.7528  -24.6794  -13.0685 C   0  0  0  0  0  0  0  0  0  0  0  0
   19.6088  -26.1501  -13.3722 C   0  0  0  0  0  0  0  0  0  0  0  0
   20.9866  -26.7568  -13.4410 C   0  0  0  0  0  0  0  0  0  0  0  0
   21.6965  -26.3756  -14.7196 C   0  0  2  0  0  0  0  0  0  0  0  0
   21.8532  -27.4894  -15.6170 N   0  0  0  0  0  0  0  0  0  0  0  0
   23.0567  -25.8346  -14.4289 C   0  0  0  0  0  0  0  0  0  0  0  0
   23.9822  -26.5917  -13.9759 O   0  0  0  0  0  0  0  0  0  0  0  0
   19.0351  -23.9924   -9.2223 O   0  0  0  0  0  0  0  0  0  0  0  0
   27.8709  -27.8317  -18.3285 C   0  0  0  0  0  0  0  0  0  0  0  0
   27.3059  -26.7746  -17.6270 C   0  0  0  0  0  0  0  0  0  0  0  0
   27.9103  -26.2070  -16.5117 C   0  0  0  0  0  0  0  0  0  0  0  0
   27.3341  -25.1776  -15.8500 C   0  0  0  0  0  0  0  0  0  0  0  0
   26.1313  -24.6662  -16.2661 C   0  0  0  0  0  0  0  0  0  0  0  0
   25.4646  -23.5472  -15.5576 C   0  0  2  0  0  0  0  0  0  0  0  0
   24.7312  -23.9557  -14.3260 N   0  0  0  0  0  0  0  0  0  0  0  0
   23.4052  -24.4863  -14.6292 C   0  0  0  0  0  0  0  0  0  0  0  0
   24.5578  -22.7872  -13.4564 O   0  0  0  0  0  0  0  0  0  0  0  0
   23.6012  -21.9677  -13.5692 C   0  0  0  0  0  0  0  0  0  0  0  0
   25.5045  -25.2024  -17.3649 C   0  0  0  0  0  0  0  0  0  0  0  0
   26.0855  -26.2427  -18.0354 N   0  0  0  0  0  0  0  0  0  0  0  0
   25.4986  -22.5421  -12.4283 C   0  0  2  0  0  0  0  0  0  0  0  0
   25.5016  -21.3235  -11.6276 C   0  0  0  0  0  0  0  0  0  0  0  0
   26.8528  -21.3171  -10.9486 C   0  0  0  0  0  0  0  0  0  0  0  0
   26.7196  -20.6884   -9.6211 C   0  0  0  0  0  0  0  0  0  0  0  0
   25.5890  -20.0127   -9.1735 N   0  0  0  0  0  0  0  0  0  0  0  0
   25.7934  -19.6241   -7.9174 C   0  0  0  0  0  0  0  0  0  0  0  0
   27.0050  -20.0140   -7.5248 C   0  0  0  0  0  0  0  0  0  0  0  0
   27.7024  -19.8629   -6.3427 C   0  0  0  0  0  0  0  0  0  0  0  0
   28.9786  -20.3610   -6.1923 C   0  0  0  0  0  0  0  0  0  0  0  0
   29.5833  -21.0272   -7.2398 C   0  0  0  0  0  0  0  0  0  0  0  0
   28.8765  -21.1699   -8.4091 C   0  0  0  0  0  0  0  0  0  0  0  0
   27.5981  -20.6807   -8.5801 C   0  0  0  0  0  0  0  0  0  0  0  0
   25.1442  -20.1486  -12.3876 O   0  0  0  0  0  0  0  0  0  0  0  0
   24.3522  -19.2733  -11.9445 O   0  0  0  0  0  0  0  0  0  0  0  0
  2  1  1  0
  2  3  2  0
  4  5  1  0
  4  2  1  0
  5  6  1  0
  6  7  1  0
  7  8  1  0
  8  9  1  6
 10 11  2  0
 10  8  1  0
 12 13  1  0
 13 23  2  0
 13 14  1  0
 14 15  2  0
 15 16  1  0
 16 17  1  0
 18 17  1  6
 18 19  1  0
 18 20  1  0
 19 10  1  0
 20 21  2  0
 22 16  2  0
 23 22  1  0
 24 20  1  0
 24 25  1  0
 25 26  1  1
 26 27  1  0
 27 28  2  0
 28 29  1  0
 30 31  2  0
 30 29  1  0
 32 31  1  0
 33 32  2  0
 34 33  1  0
 34 35  2  0
 35 27  1  0
 35 30  1  0
 36 25  1  0
 36 38  1  0
 37 36  2  0
M  END
$$$$
