RYW.pdb
     RDKit          3D

 38 40  0  0  1  0  0  0  0  0999 V2000
   30.5252  -24.6591  -18.5320 N   0  0  0  0  0  0  0  0  0  0  0  0
   30.5053  -23.7531  -19.6112 C   0  0  0  0  0  0  0  0  0  0  0  0
   30.9496  -24.0647  -20.7893 N   0  0  0  0  0  0  0  0  0  0  0  0
   29.9792  -22.4665  -19.3807 N   0  0  0  0  0  0  0  0  0  0  0  0
   29.1075  -22.2537  -18.2470 C   0  0  0  0  0  0  0  0  0  0  0  0
   27.8111  -21.6058  -18.6661 C   0  0  0  0  0  0  0  0  0  0  0  0
   26.7780  -21.8830  -17.6045 C   0  0  0  0  0  0  0  0  0  0  0  0
   27.3650  -22.6629  -16.4507 C   0  0  2  0  0  0  0  0  0  0  0  0
   27.4898  -24.0669  -16.7403 N   0  0  0  0  0  0  0  0  0  0  0  0
   26.5140  -22.5268  -15.2322 C   0  0  0  0  0  0  0  0  0  0  0  0
   25.4327  -23.1977  -15.1073 O   0  0  0  0  0  0  0  0  0  0  0  0
   30.8876  -23.3884  -21.5610 O   0  0  0  0  0  0  0  0  0  0  0  0
   23.5941  -20.0581   -7.2173 C   0  0  0  0  0  0  0  0  0  0  0  0
   24.3274  -20.2243   -8.3850 C   0  0  0  0  0  0  0  0  0  0  0  0
   23.8062  -19.9474   -9.6432 C   0  0  0  0  0  0  0  0  0  0  0  0
   24.5466  -20.1197  -10.7620 C   0  0  0  0  0  0  0  0  0  0  0  0
   25.8378  -20.5753  -10.6813 C   0  0  0  0  0  0  0  0  0  0  0  0
   26.6740  -20.7880  -11.8871 C   0  0  1  0  0  0  0  0  0  0  0  0
   25.9777  -21.5033  -12.9939 N   0  0  0  0  0  0  0  0  0  0  0  0
   26.8364  -21.6712  -14.1628 C   0  0  0  0  0  0  0  0  0  0  0  0
   24.8040  -20.7273  -13.4083 O   0  0  0  0  0  0  0  0  0  0  0  0
   24.8753  -19.6478  -14.0633 C   0  0  0  0  0  0  0  0  0  0  0  0
   26.3864  -20.8596   -9.4540 C   0  0  0  0  0  0  0  0  0  0  0  0
   25.6398  -20.6858   -8.3220 N   0  0  0  0  0  0  0  0  0  0  0  0
   23.5108  -21.1908  -13.0688 C   0  0  1  0  0  0  0  0  0  0  0  0
   22.2903  -20.4870  -13.4441 C   0  0  0  0  0  0  0  0  0  0  0  0
   22.3705  -20.3609  -14.9490 C   0  0  0  0  0  0  0  0  0  0  0  0
   21.1660  -19.6634  -15.4368 C   0  0  0  0  0  0  0  0  0  0  0  0
   20.7172  -18.4332  -14.9673 N   0  0  0  0  0  0  0  0  0  0  0  0
   19.6406  -18.0777  -15.6636 C   0  0  0  0  0  0  0  0  0  0  0  0
   19.3654  -19.0190  -16.5651 C   0  0  0  0  0  0  0  0  0  0  0  0
   18.3711  -19.1472  -17.5145 C   0  0  0  0  0  0  0  0  0  0  0  0
   18.2990  -20.2520  -18.3352 C   0  0  0  0  0  0  0  0  0  0  0  0
   19.2360  -21.2592  -18.2143 C   0  0  0  0  0  0  0  0  0  0  0  0
   20.2192  -21.1168  -17.2655 C   0  0  0  0  0  0  0  0  0  0  0  0
   20.3104  -20.0189  -16.4353 C   0  0  0  0  0  0  0  0  0  0  0  0
   21.0987  -21.0950  -12.8998 O   0  0  0  0  0  0  0  0  0  0  0  0
   20.1499  -20.4137  -12.4252 O   0  0  0  0  0  0  0  0  0  0  0  0
  2  1  1  0
  2  3  2  0
  4  5  1  0
  4  2  1  0
  5  6  1  0
  6  7  1  0
  7  8  1  0
  8  9  1  6
 10 11  2  0
 10  8  1  0
 12 13  1  0
 13 23  2  0
 13 14  1  0
 14 15  2  0
 15 16  1  0
 16 17  1  0
 18 17  1  1
 18 19  1  0
 18 20  1  0
 19 10  1  0
 20 21  2  0
 22 16  2  0
 23 22  1  0
 24 20  1  0
 24 25  1  0
 25 26  1  1
 26 27  1  0
 27 28  2  0
 28 29  1  0
 30 31  2  0
 30 29  1  0
 32 31  1  0
 33 32  2  0
 34 33  1  0
 34 35  2  0
 35 27  1  0
 35 30  1  0
 36 25  1  0
 36 38  1  0
 37 36  2  0
M  END
$$$$
