RYW.pdb
     RDKit          3D

 38 40  0  0  1  0  0  0  0  0999 V2000
   26.3628  -21.9948  -21.7032 N   0  0  0  0  0  0  0  0  0  0  0  0
   25.6884  -20.8582  -21.2144 C   0  0  0  0  0  0  0  0  0  0  0  0
   24.9278  -20.1238  -21.9658 N   0  0  0  0  0  0  0  0  0  0  0  0
   25.8601  -20.5245  -19.8562 N   0  0  0  0  0  0  0  0  0  0  0  0
   26.8826  -21.1991  -19.0881 C   0  0  0  0  0  0  0  0  0  0  0  0
   26.4603  -22.6012  -18.7254 C   0  0  0  0  0  0  0  0  0  0  0  0
   25.7643  -22.5558  -17.3894 C   0  0  0  0  0  0  0  0  0  0  0  0
   26.7518  -22.4055  -16.2553 C   0  0  2  0  0  0  0  0  0  0  0  0
   27.5241  -23.5993  -16.0342 N   0  0  0  0  0  0  0  0  0  0  0  0
   26.0479  -22.0800  -14.9801 C   0  0  0  0  0  0  0  0  0  0  0  0
   25.7649  -22.9953  -14.1333 O   0  0  0  0  0  0  0  0  0  0  0  0
   24.4292  -19.3184  -21.5667 O   0  0  0  0  0  0  0  0  0  0  0  0
   30.1980  -21.9065  -10.1472 C   0  0  0  0  0  0  0  0  0  0  0  0
   29.0589  -21.3379  -10.7021 C   0  0  0  0  0  0  0  0  0  0  0  0
   27.7992  -21.4735  -10.1312 C   0  0  0  0  0  0  0  0  0  0  0  0
   26.7087  -20.9071  -10.6965 C   0  0  0  0  0  0  0  0  0  0  0  0
   26.8206  -20.1808  -11.8546 C   0  0  0  0  0  0  0  0  0  0  0  0
   25.6453  -19.5568  -12.5088 C   0  0  2  0  0  0  0  0  0  0  0  0
   24.8991  -20.4693  -13.4210 N   0  0  0  0  0  0  0  0  0  0  0  0
   25.6575  -20.7742  -14.6308 C   0  0  0  0  0  0  0  0  0  0  0  0
   23.6453  -19.8264  -13.8287 O   0  0  0  0  0  0  0  0  0  0  0  0
   23.5776  -18.9228  -14.7110 C   0  0  0  0  0  0  0  0  0  0  0  0
   28.0504  -20.0256  -12.4475 C   0  0  0  0  0  0  0  0  0  0  0  0
   29.1539  -20.5971  -11.8775 N   0  0  0  0  0  0  0  0  0  0  0  0
   22.4323  -20.2212  -13.2162 C   0  0  1  0  0  0  0  0  0  0  0  0
   21.1479  -19.6044  -13.5259 C   0  0  0  0  0  0  0  0  0  0  0  0
   20.9556  -19.8476  -15.0060 C   0  0  0  0  0  0  0  0  0  0  0  0
   20.3890  -21.1952  -15.2011 C   0  0  0  0  0  0  0  0  0  0  0  0
   19.2068  -21.6494  -14.6254 N   0  0  0  0  0  0  0  0  0  0  0  0
   18.9693  -22.8853  -15.0572 C   0  0  0  0  0  0  0  0  0  0  0  0
   19.9417  -23.2591  -15.8872 C   0  0  0  0  0  0  0  0  0  0  0  0
   20.1792  -24.4231  -16.5910 C   0  0  0  0  0  0  0  0  0  0  0  0
   21.2929  -24.5653  -17.3902 C   0  0  0  0  0  0  0  0  0  0  0  0
   22.1982  -23.5280  -17.4970 C   0  0  0  0  0  0  0  0  0  0  0  0
   21.9477  -22.3763  -16.7911 C   0  0  0  0  0  0  0  0  0  0  0  0
   20.8388  -22.2127  -15.9871 C   0  0  0  0  0  0  0  0  0  0  0  0
   20.0874  -20.0386  -12.6469 O   0  0  0  0  0  0  0  0  0  0  0  0
   20.1947  -21.0571  -11.9116 O   0  0  0  0  0  0  0  0  0  0  0  0
  2  1  1  0
  2  3  2  0
  4  5  1  0
  4  2  1  0
  5  6  1  0
  6  7  1  0
  7  8  1  0
  8  9  1  1
 10 11  2  0
 10  8  1  0
 12 13  1  0
 13 23  2  0
 13 14  1  0
 14 15  2  0
 15 16  1  0
 16 17  1  0
 18 17  1  1
 18 19  1  0
 18 20  1  0
 19 10  1  0
 20 21  2  0
 22 16  2  0
 23 22  1  0
 24 20  1  0
 24 25  1  0
 25 26  1  6
 26 27  1  0
 27 28  2  0
 28 29  1  0
 30 31  2  0
 30 29  1  0
 32 31  1  0
 33 32  2  0
 34 33  1  0
 34 35  2  0
 35 27  1  0
 35 30  1  0
 36 25  1  0
 36 38  1  0
 37 36  2  0
M  END
$$$$
