TEN.pdb
     RDKit          3D

 25 24  0  0  1  0  0  0  0  0999 V2000
    7.9143  -12.0693   19.3843 C   0  0  0  0  0  0  0  0  0  0  0  0
    8.3649  -13.3618   20.0447 C   0  0  1  0  0  0  0  0  0  0  0  0
    7.9213  -13.4229   21.3693 O   0  0  0  0  0  0  0  0  0  0  0  0
    7.8445  -14.5632   19.3054 C   0  0  2  0  0  0  0  0  0  0  0  0
    6.4217  -14.5611   19.1509 N   0  0  0  0  0  0  0  0  0  0  0  0
    8.3244  -15.7824   20.0080 C   0  0  0  0  0  0  0  0  0  0  0  0
    7.5074  -16.4840   20.6620 O   0  0  0  0  0  0  0  0  0  0  0  0
    9.6774  -16.2048   19.9805 N   0  0  0  0  0  0  0  0  0  0  0  0
   10.0927  -17.3214   20.7801 C   0  0  1  0  0  0  0  0  0  0  0  0
   11.3785  -17.9444   20.2864 C   0  0  0  0  0  0  0  0  0  0  0  0
   11.1993  -18.7272   19.0286 C   0  0  0  0  0  0  0  0  0  0  0  0
   12.5106  -19.2746   18.6129 C   0  0  0  0  0  0  0  0  0  0  0  0
   12.7040  -20.4971   18.6338 O   0  0  0  0  0  0  0  0  0  0  0  0
   10.3628  -16.8312   22.1619 C   0  0  0  0  0  0  0  0  0  0  0  0
   11.0456  -15.7855   22.3216 O   0  0  0  0  0  0  0  0  0  0  0  0
   13.5158  -18.4252   18.2028 O   0  0  0  0  0  0  0  0  0  0  0  0
    9.1410  -14.0748   24.9291 N   0  0  0  0  0  0  0  0  0  0  0  0
    8.1731  -15.0898   25.0685 C   0  0  0  0  0  0  0  0  0  0  0  0
    6.9890  -14.7485   25.2709 O   0  0  0  0  0  0  0  0  0  0  0  0
    8.5480  -16.4889   24.9784 C   0  0  0  0  0  0  0  0  0  0  0  0
    9.9531  -16.8102   24.6205 C   0  0  2  0  0  0  0  0  0  0  0  0
    9.8987  -17.4689   23.3146 N   0  0  0  0  0  0  0  0  0  0  0  0
   10.6926  -17.6718   25.5347 C   0  0  0  0  0  0  0  0  0  0  0  0
   11.6306  -17.1823   26.4136 O   0  0  0  0  0  0  0  0  0  0  0  0
   10.5070  -18.9351   25.5664 O   0  0  0  0  0  0  0  0  0  0  0  0
  2  1  1  6
  2  3  1  0
  4  6  1  0
  4  2  1  0
  4  5  1  1
  6  7  2  0
  8  9  1  0
  8  6  1  0
  9 14  1  0
 10 11  1  0
  9 10  1  6
 12 11  1  0
 13 12  2  0
 14 22  1  0
 14 15  2  0
 16 12  1  0
 18 17  1  0
 18 20  1  0
 19 18  2  0
 21 20  1  1
 21 23  1  0
 22 21  1  0
 23 25  2  0
 23 24  1  0
M  END
$$$$
