TEN.pdb
     RDKit          3D

 25 24  0  0  1  0  0  0  0  0999 V2000
   12.5360  -19.9491   15.2123 C   0  0  0  0  0  0  0  0  0  0  0  0
   11.9886  -19.4867   16.5526 C   0  0  1  0  0  0  0  0  0  0  0  0
   12.6904  -18.3697   17.0163 O   0  0  0  0  0  0  0  0  0  0  0  0
   10.5303  -19.1341   16.4548 C   0  0  2  0  0  0  0  0  0  0  0  0
   10.2561  -18.1210   15.4818 N   0  0  0  0  0  0  0  0  0  0  0  0
   10.0566  -18.7451   17.8093 C   0  0  0  0  0  0  0  0  0  0  0  0
    9.8060  -17.5351   18.0555 O   0  0  0  0  0  0  0  0  0  0  0  0
    9.8685  -19.6809   18.8576 N   0  0  0  0  0  0  0  0  0  0  0  0
    9.2562  -19.2627   20.0860 C   0  0  1  0  0  0  0  0  0  0  0  0
    8.3911  -20.3391   20.7008 C   0  0  0  0  0  0  0  0  0  0  0  0
    7.1679  -20.6310   19.8972 C   0  0  0  0  0  0  0  0  0  0  0  0
    6.3916  -21.6946   20.5739 C   0  0  0  0  0  0  0  0  0  0  0  0
    5.4482  -21.3931   21.3165 O   0  0  0  0  0  0  0  0  0  0  0  0
   10.3368  -18.9735   21.0715 C   0  0  0  0  0  0  0  0  0  0  0  0
   11.4399  -19.5717   20.9687 O   0  0  0  0  0  0  0  0  0  0  0  0
    6.7176  -23.0196   20.3781 O   0  0  0  0  0  0  0  0  0  0  0  0
   13.8749  -15.2742   22.2785 N   0  0  0  0  0  0  0  0  0  0  0  0
   12.8604  -16.1910   21.9365 C   0  0  0  0  0  0  0  0  0  0  0  0
   12.9607  -16.8002   20.8511 O   0  0  0  0  0  0  0  0  0  0  0  0
   11.7347  -16.4157   22.8243 C   0  0  0  0  0  0  0  0  0  0  0  0
   11.3024  -17.8173   23.0574 C   0  0  2  0  0  0  0  0  0  0  0  0
   10.2033  -18.0638   22.1228 N   0  0  0  0  0  0  0  0  0  0  0  0
   10.8447  -18.1585   24.3987 C   0  0  0  0  0  0  0  0  0  0  0  0
   11.7039  -18.5818   25.3860 O   0  0  0  0  0  0  0  0  0  0  0  0
    9.6132  -18.0823   24.7287 O   0  0  0  0  0  0  0  0  0  0  0  0
  2  1  1  6
  2  3  1  0
  4  6  1  0
  4  2  1  0
  4  5  1  6
  6  7  2  0
  8  9  1  0
  8  6  1  0
  9 14  1  0
 10 11  1  0
  9 10  1  1
 12 11  1  0
 13 12  2  0
 14 22  1  0
 14 15  2  0
 16 12  1  0
 18 17  1  0
 18 20  1  0
 19 18  2  0
 21 20  1  1
 21 23  1  0
 22 21  1  0
 23 25  2  0
 23 24  1  0
M  END
$$$$
