TEN.pdb
     RDKit          3D

 25 24  0  0  1  0  0  0  0  0999 V2000
   10.0312  -20.7481   14.0444 C   0  0  0  0  0  0  0  0  0  0  0  0
    9.5938  -19.3150   13.7906 C   0  0  1  0  0  0  0  0  0  0  0  0
    9.5985  -19.0299   12.4217 O   0  0  0  0  0  0  0  0  0  0  0  0
    8.2141  -19.0611   14.3318 C   0  0  2  0  0  0  0  0  0  0  0  0
    7.6554  -17.8168   13.8985 N   0  0  0  0  0  0  0  0  0  0  0  0
    8.2741  -19.1560   15.8143 C   0  0  0  0  0  0  0  0  0  0  0  0
    8.5516  -18.1302   16.4912 O   0  0  0  0  0  0  0  0  0  0  0  0
    8.0310  -20.3617   16.5194 N   0  0  0  0  0  0  0  0  0  0  0  0
    8.0759  -20.3713   17.9534 C   0  0  1  0  0  0  0  0  0  0  0  0
    7.0399  -21.2886   18.5619 C   0  0  0  0  0  0  0  0  0  0  0  0
    6.7701  -22.4955   17.7267 C   0  0  0  0  0  0  0  0  0  0  0  0
    5.7782  -23.3476   18.4208 C   0  0  0  0  0  0  0  0  0  0  0  0
    5.6322  -24.5285   18.0794 O   0  0  0  0  0  0  0  0  0  0  0  0
    9.4062  -20.8957   18.3753 C   0  0  0  0  0  0  0  0  0  0  0  0
    9.7711  -22.0353   17.9835 O   0  0  0  0  0  0  0  0  0  0  0  0
    5.0174  -22.8281   19.4462 O   0  0  0  0  0  0  0  0  0  0  0  0
   11.3021  -18.3020   21.3884 N   0  0  0  0  0  0  0  0  0  0  0  0
   10.6473  -19.3448   22.0742 C   0  0  0  0  0  0  0  0  0  0  0  0
   10.1607  -19.0949   23.1967 O   0  0  0  0  0  0  0  0  0  0  0  0
   10.5451  -20.6682   21.4874 C   0  0  0  0  0  0  0  0  0  0  0  0
   11.1554  -20.8849   20.1510 C   0  0  2  0  0  0  0  0  0  0  0  0
   10.2925  -20.1916   19.1935 N   0  0  0  0  0  0  0  0  0  0  0  0
   11.3124  -22.2644   19.7066 C   0  0  0  0  0  0  0  0  0  0  0  0
   11.0449  -23.3377   20.5240 O   0  0  0  0  0  0  0  0  0  0  0  0
   11.7102  -22.5497   18.5268 O   0  0  0  0  0  0  0  0  0  0  0  0
  2  1  1  6
  2  3  1  0
  4  6  1  0
  4  2  1  0
  4  5  1  1
  6  7  2  0
  8  9  1  0
  8  6  1  0
  9 14  1  0
 10 11  1  0
  9 10  1  1
 12 11  1  0
 13 12  2  0
 14 22  1  0
 14 15  2  0
 16 12  1  0
 18 17  1  0
 18 20  1  0
 19 18  2  0
 21 20  1  1
 21 23  1  0
 22 21  1  0
 23 25  2  0
 23 24  1  0
M  END
$$$$
