TEN.pdb
     RDKit          3D

 25 24  0  0  1  0  0  0  0  0999 V2000
    7.7690  -11.9589   19.6435 C   0  0  0  0  0  0  0  0  0  0  0  0
    8.7167  -13.1283   19.8535 C   0  0  1  0  0  0  0  0  0  0  0  0
    8.1502  -14.0786   20.7086 O   0  0  0  0  0  0  0  0  0  0  0  0
    9.0588  -13.7949   18.5499 C   0  0  2  0  0  0  0  0  0  0  0  0
    7.9175  -14.3225   17.8664 N   0  0  0  0  0  0  0  0  0  0  0  0
   10.0774  -14.8438   18.8201 C   0  0  0  0  0  0  0  0  0  0  0  0
    9.7289  -16.0541   18.8511 O   0  0  0  0  0  0  0  0  0  0  0  0
   11.4450  -14.5484   19.0488 N   0  0  0  0  0  0  0  0  0  0  0  0
   12.3622  -15.6081   19.3557 C   0  0  1  0  0  0  0  0  0  0  0  0
   13.6998  -15.4359   18.6728 C   0  0  0  0  0  0  0  0  0  0  0  0
   13.8253  -14.1300   17.9616 C   0  0  0  0  0  0  0  0  0  0  0  0
   15.2145  -13.9818   17.4717 C   0  0  0  0  0  0  0  0  0  0  0  0
   15.8267  -12.9229   17.6624 O   0  0  0  0  0  0  0  0  0  0  0  0
   12.6292  -15.5844   20.8222 C   0  0  0  0  0  0  0  0  0  0  0  0
   12.6295  -14.4818   21.4301 O   0  0  0  0  0  0  0  0  0  0  0  0
   15.8268  -15.0207   16.8040 O   0  0  0  0  0  0  0  0  0  0  0  0
   11.3046  -17.8808   25.8690 N   0  0  0  0  0  0  0  0  0  0  0  0
   12.4276  -18.0366   25.0316 C   0  0  0  0  0  0  0  0  0  0  0  0
   13.5079  -18.3799   25.5556 O   0  0  0  0  0  0  0  0  0  0  0  0
   12.3249  -17.8032   23.6030 C   0  0  0  0  0  0  0  0  0  0  0  0
   13.0680  -16.6513   23.0318 C   0  0  2  0  0  0  0  0  0  0  0  0
   12.8842  -16.7284   21.5818 N   0  0  0  0  0  0  0  0  0  0  0  0
   14.4979  -16.5794   23.3063 C   0  0  0  0  0  0  0  0  0  0  0  0
   15.4302  -17.2402   22.5407 O   0  0  0  0  0  0  0  0  0  0  0  0
   14.9622  -15.8948   24.2795 O   0  0  0  0  0  0  0  0  0  0  0  0
  2  1  1  6
  2  3  1  0
  4  6  1  0
  4  2  1  0
  4  5  1  1
  6  7  2  0
  8  9  1  0
  8  6  1  0
  9 14  1  0
 10 11  1  0
  9 10  1  6
 12 11  1  0
 13 12  2  0
 14 22  1  0
 14 15  2  0
 16 12  1  0
 18 17  1  0
 18 20  1  0
 19 18  2  0
 21 20  1  1
 21 23  1  0
 22 21  1  0
 23 25  2  0
 23 24  1  0
M  END
$$$$
