TEN.pdb
     RDKit          3D

 25 24  0  0  1  0  0  0  0  0999 V2000
   10.4144  -12.7571   19.4968 C   0  0  0  0  0  0  0  0  0  0  0  0
    8.9002  -12.7106   19.3752 C   0  0  1  0  0  0  0  0  0  0  0  0
    8.4915  -11.5512   18.7087 O   0  0  0  0  0  0  0  0  0  0  0  0
    8.3752  -13.9062   18.6299 C   0  0  2  0  0  0  0  0  0  0  0  0
    6.9592  -13.8695   18.4248 N   0  0  0  0  0  0  0  0  0  0  0  0
    8.7981  -15.1295   19.3615 C   0  0  0  0  0  0  0  0  0  0  0  0
    7.9771  -15.7168   20.1155 O   0  0  0  0  0  0  0  0  0  0  0  0
   10.1001  -15.6801   19.2534 N   0  0  0  0  0  0  0  0  0  0  0  0
   10.3847  -16.9592   19.8376 C   0  0  1  0  0  0  0  0  0  0  0  0
   11.1796  -17.8559   18.9160 C   0  0  0  0  0  0  0  0  0  0  0  0
   11.4189  -19.2127   19.4895 C   0  0  0  0  0  0  0  0  0  0  0  0
   12.2417  -19.9966   18.5406 C   0  0  0  0  0  0  0  0  0  0  0  0
   13.4650  -19.8148   18.4880 O   0  0  0  0  0  0  0  0  0  0  0  0
   11.2272  -16.7425   21.0483 C   0  0  0  0  0  0  0  0  0  0  0  0
   12.1902  -15.9334   20.9913 O   0  0  0  0  0  0  0  0  0  0  0  0
   11.6477  -20.9280   17.7161 O   0  0  0  0  0  0  0  0  0  0  0  0
   12.2505  -19.1682   26.4908 N   0  0  0  0  0  0  0  0  0  0  0  0
   12.0472  -17.9604   25.7934 C   0  0  0  0  0  0  0  0  0  0  0  0
   12.5093  -16.9113   26.2886 O   0  0  0  0  0  0  0  0  0  0  0  0
   11.3213  -17.9433   24.5369 C   0  0  0  0  0  0  0  0  0  0  0  0
   11.9032  -17.1728   23.4085 C   0  0  2  0  0  0  0  0  0  0  0  0
   11.0141  -17.3913   22.2666 N   0  0  0  0  0  0  0  0  0  0  0  0
   13.2607  -17.5128   23.0002 C   0  0  0  0  0  0  0  0  0  0  0  0
   13.5535  -18.6539   22.2902 O   0  0  0  0  0  0  0  0  0  0  0  0
   14.2556  -16.7637   23.2835 O   0  0  0  0  0  0  0  0  0  0  0  0
  2  1  1  6
  2  3  1  0
  4  6  1  0
  4  2  1  0
  4  5  1  1
  6  7  2  0
  8  9  1  0
  8  6  1  0
  9 14  1  0
 10 11  1  0
  9 10  1  6
 12 11  1  0
 13 12  2  0
 14 22  1  0
 14 15  2  0
 16 12  1  0
 18 17  1  0
 18 20  1  0
 19 18  2  0
 21 20  1  1
 21 23  1  0
 22 21  1  0
 23 25  2  0
 23 24  1  0
M  END
$$$$
