TEN.pdb
     RDKit          3D

 25 24  0  0  1  0  0  0  0  0999 V2000
    7.0923  -18.6167   18.4837 C   0  0  0  0  0  0  0  0  0  0  0  0
    8.0761  -19.0109   19.5729 C   0  0  1  0  0  0  0  0  0  0  0  0
    9.2845  -19.4426   19.0173 O   0  0  0  0  0  0  0  0  0  0  0  0
    8.3547  -17.8602   20.4997 C   0  0  2  0  0  0  0  0  0  0  0  0
    9.0537  -16.7817   19.8702 N   0  0  0  0  0  0  0  0  0  0  0  0
    9.0913  -18.3848   21.6799 C   0  0  0  0  0  0  0  0  0  0  0  0
    8.6234  -19.3651   22.3182 O   0  0  0  0  0  0  0  0  0  0  0  0
   10.3148  -17.8301   22.1331 N   0  0  0  0  0  0  0  0  0  0  0  0
   10.9857  -18.4082   23.2618 C   0  0  1  0  0  0  0  0  0  0  0  0
   12.4308  -17.9767   23.3635 C   0  0  0  0  0  0  0  0  0  0  0  0
   13.2669  -18.4747   22.2321 C   0  0  0  0  0  0  0  0  0  0  0  0
   14.4566  -17.6042   22.0949 C   0  0  0  0  0  0  0  0  0  0  0  0
   14.6624  -16.7052   22.9207 O   0  0  0  0  0  0  0  0  0  0  0  0
   10.3119  -17.9278   24.5019 C   0  0  0  0  0  0  0  0  0  0  0  0
   10.3205  -16.6976   24.7699 O   0  0  0  0  0  0  0  0  0  0  0  0
   15.3349  -17.7932   21.0495 O   0  0  0  0  0  0  0  0  0  0  0  0
    7.3825  -17.3361   24.4759 N   0  0  0  0  0  0  0  0  0  0  0  0
    6.8255  -18.1880   25.4509 C   0  0  0  0  0  0  0  0  0  0  0  0
    5.6342  -18.5368   25.3147 O   0  0  0  0  0  0  0  0  0  0  0  0
    7.6187  -18.6429   26.5778 C   0  0  0  0  0  0  0  0  0  0  0  0
    9.0486  -18.2450   26.6270 C   0  0  2  0  0  0  0  0  0  0  0  0
    9.6583  -18.7698   25.4043 N   0  0  0  0  0  0  0  0  0  0  0  0
    9.8314  -18.7140   27.7638 C   0  0  0  0  0  0  0  0  0  0  0  0
    9.8636  -18.0435   28.9644 O   0  0  0  0  0  0  0  0  0  0  0  0
   10.5336  -19.7793   27.7030 O   0  0  0  0  0  0  0  0  0  0  0  0
  2  1  1  6
  2  3  1  0
  4  6  1  0
  4  2  1  0
  4  5  1  6
  6  7  2  0
  8  9  1  0
  8  6  1  0
  9 14  1  0
 10 11  1  0
  9 10  1  1
 12 11  1  0
 13 12  2  0
 14 22  1  0
 14 15  2  0
 16 12  1  0
 18 17  1  0
 18 20  1  0
 19 18  2  0
 21 20  1  1
 21 23  1  0
 22 21  1  0
 23 25  2  0
 23 24  1  0
M  END
$$$$
