TEN.pdb
     RDKit          3D

 25 24  0  0  1  0  0  0  0  0999 V2000
    9.1863  -12.6075   19.7319 C   0  0  0  0  0  0  0  0  0  0  0  0
    8.2236  -13.3715   18.8379 C   0  0  1  0  0  0  0  0  0  0  0  0
    7.3272  -12.4984   18.2138 O   0  0  0  0  0  0  0  0  0  0  0  0
    8.9589  -14.1462   17.7797 C   0  0  2  0  0  0  0  0  0  0  0  0
    8.0900  -14.8301   16.8711 N   0  0  0  0  0  0  0  0  0  0  0  0
    9.8977  -15.0787   18.4575 C   0  0  0  0  0  0  0  0  0  0  0  0
    9.5583  -16.2784   18.6386 O   0  0  0  0  0  0  0  0  0  0  0  0
   11.1781  -14.6819   18.9192 N   0  0  0  0  0  0  0  0  0  0  0  0
   12.0139  -15.6259   19.6039 C   0  0  1  0  0  0  0  0  0  0  0  0
   13.4732  -15.4852   19.2359 C   0  0  0  0  0  0  0  0  0  0  0  0
   13.7978  -14.1537   18.6453 C   0  0  0  0  0  0  0  0  0  0  0  0
   15.2221  -14.1421   18.2414 C   0  0  0  0  0  0  0  0  0  0  0  0
   15.5501  -14.5594   17.1231 O   0  0  0  0  0  0  0  0  0  0  0  0
   11.9183  -15.3584   21.0675 C   0  0  0  0  0  0  0  0  0  0  0  0
   11.3892  -14.2870   21.4642 O   0  0  0  0  0  0  0  0  0  0  0  0
   16.1829  -13.6673   19.1083 O   0  0  0  0  0  0  0  0  0  0  0  0
    9.0597  -15.3933   23.9308 N   0  0  0  0  0  0  0  0  0  0  0  0
    9.0586  -16.5037   23.0626 C   0  0  0  0  0  0  0  0  0  0  0  0
    7.9587  -16.9191   22.6418 O   0  0  0  0  0  0  0  0  0  0  0  0
   10.3027  -17.1411   22.6731 C   0  0  0  0  0  0  0  0  0  0  0  0
   11.5687  -16.5812   23.2111 C   0  0  2  0  0  0  0  0  0  0  0  0
   12.3868  -16.2362   22.0476 N   0  0  0  0  0  0  0  0  0  0  0  0
   12.3585  -17.4406   24.0845 C   0  0  0  0  0  0  0  0  0  0  0  0
   12.4425  -17.2353   25.4419 O   0  0  0  0  0  0  0  0  0  0  0  0
   13.0188  -18.4355   23.6308 O   0  0  0  0  0  0  0  0  0  0  0  0
  2  1  1  6
  2  3  1  0
  4  6  1  0
  4  2  1  0
  4  5  1  1
  6  7  2  0
  8  9  1  0
  8  6  1  0
  9 14  1  0
 10 11  1  0
  9 10  1  6
 12 11  1  0
 13 12  2  0
 14 22  1  0
 14 15  2  0
 16 12  1  0
 18 17  1  0
 18 20  1  0
 19 18  2  0
 21 20  1  6
 21 23  1  0
 22 21  1  0
 23 25  2  0
 23 24  1  0
M  END
$$$$
