TEN.pdb
     RDKit          3D

 25 24  0  0  1  0  0  0  0  0999 V2000
    7.6092  -12.1436   18.4780 C   0  0  0  0  0  0  0  0  0  0  0  0
    8.0745  -13.5469   18.8302 C   0  0  1  0  0  0  0  0  0  0  0  0
    8.3066  -14.2975   17.6735 O   0  0  0  0  0  0  0  0  0  0  0  0
    9.3369  -13.5150   19.6463 C   0  0  2  0  0  0  0  0  0  0  0  0
   10.4795  -13.0739   18.9060 N   0  0  0  0  0  0  0  0  0  0  0  0
    9.5432  -14.8659   20.2321 C   0  0  0  0  0  0  0  0  0  0  0  0
    8.6062  -15.4153   20.8705 O   0  0  0  0  0  0  0  0  0  0  0  0
   10.7608  -15.5814   20.1079 N   0  0  0  0  0  0  0  0  0  0  0  0
   10.9036  -16.8617   20.7395 C   0  0  1  0  0  0  0  0  0  0  0  0
   12.1030  -17.6298   20.2330 C   0  0  0  0  0  0  0  0  0  0  0  0
   12.1738  -19.0191   20.7734 C   0  0  0  0  0  0  0  0  0  0  0  0
   13.3653  -19.6932   20.2097 C   0  0  0  0  0  0  0  0  0  0  0  0
   14.1819  -20.2371   20.9646 O   0  0  0  0  0  0  0  0  0  0  0  0
   11.1266  -16.6410   22.1970 C   0  0  0  0  0  0  0  0  0  0  0  0
   12.0275  -15.8436   22.5681 O   0  0  0  0  0  0  0  0  0  0  0  0
   13.5664  -19.7161   18.8462 O   0  0  0  0  0  0  0  0  0  0  0  0
    9.2062  -14.5910   24.0159 N   0  0  0  0  0  0  0  0  0  0  0  0
    8.6109  -15.5371   24.8744 C   0  0  0  0  0  0  0  0  0  0  0  0
    7.4690  -15.2922   25.3167 O   0  0  0  0  0  0  0  0  0  0  0  0
    9.3097  -16.7581   25.2302 C   0  0  0  0  0  0  0  0  0  0  0  0
   10.6388  -17.0028   24.6144 C   0  0  2  0  0  0  0  0  0  0  0  0
   10.3865  -17.2737   23.1984 N   0  0  0  0  0  0  0  0  0  0  0  0
   11.4305  -18.1014   25.1542 C   0  0  0  0  0  0  0  0  0  0  0  0
   12.0431  -18.0348   26.3839 O   0  0  0  0  0  0  0  0  0  0  0  0
   11.5980  -19.1904   24.5080 O   0  0  0  0  0  0  0  0  0  0  0  0
  2  1  1  6
  2  3  1  0
  4  6  1  0
  4  2  1  0
  4  5  1  6
  6  7  2  0
  8  9  1  0
  8  6  1  0
  9 14  1  0
 10 11  1  0
  9 10  1  6
 12 11  1  0
 13 12  2  0
 14 22  1  0
 14 15  2  0
 16 12  1  0
 18 17  1  0
 18 20  1  0
 19 18  2  0
 21 20  1  1
 21 23  1  0
 22 21  1  0
 23 25  2  0
 23 24  1  0
M  END
$$$$
