TEN.pdb
     RDKit          3D

 25 24  0  0  1  0  0  0  0  0999 V2000
    6.6491  -13.1547   18.2585 C   0  0  0  0  0  0  0  0  0  0  0  0
    7.8732  -14.0507   18.3500 C   0  0  1  0  0  0  0  0  0  0  0  0
    8.4551  -14.2258   17.0907 O   0  0  0  0  0  0  0  0  0  0  0  0
    8.9031  -13.4748   19.2818 C   0  0  2  0  0  0  0  0  0  0  0  0
    9.4472  -12.2318   18.8268 N   0  0  0  0  0  0  0  0  0  0  0  0
    9.9601  -14.4989   19.4928 C   0  0  0  0  0  0  0  0  0  0  0  0
    9.6380  -15.6513   19.8874 O   0  0  0  0  0  0  0  0  0  0  0  0
   11.3365  -14.2426   19.2691 N   0  0  0  0  0  0  0  0  0  0  0  0
   12.3021  -15.2780   19.5012 C   0  0  1  0  0  0  0  0  0  0  0  0
   13.6079  -15.0277   18.7822 C   0  0  0  0  0  0  0  0  0  0  0  0
   13.5262  -15.3002   17.3172 C   0  0  0  0  0  0  0  0  0  0  0  0
   14.8622  -15.0905   16.7146 C   0  0  0  0  0  0  0  0  0  0  0  0
   15.6124  -16.0567   16.5248 O   0  0  0  0  0  0  0  0  0  0  0  0
   12.6186  -15.3033   20.9578 C   0  0  0  0  0  0  0  0  0  0  0  0
   12.4744  -14.2532   21.6373 O   0  0  0  0  0  0  0  0  0  0  0  0
   15.2716  -13.8216   16.3649 O   0  0  0  0  0  0  0  0  0  0  0  0
    9.3695  -16.6316   24.7276 N   0  0  0  0  0  0  0  0  0  0  0  0
   10.7211  -16.9366   24.4692 C   0  0  0  0  0  0  0  0  0  0  0  0
   11.4025  -17.4182   25.3982 O   0  0  0  0  0  0  0  0  0  0  0  0
   11.2979  -16.6956   23.1595 C   0  0  0  0  0  0  0  0  0  0  0  0
   12.7782  -16.6486   23.0500 C   0  0  2  0  0  0  0  0  0  0  0  0
   13.0739  -16.4385   21.6321 N   0  0  0  0  0  0  0  0  0  0  0  0
   13.5165  -17.8222   23.5001 C   0  0  0  0  0  0  0  0  0  0  0  0
   14.2602  -17.8270   24.6572 O   0  0  0  0  0  0  0  0  0  0  0  0
   13.5117  -18.9145   22.8380 O   0  0  0  0  0  0  0  0  0  0  0  0
  2  1  1  6
  2  3  1  0
  4  6  1  0
  4  2  1  0
  4  5  1  6
  6  7  2  0
  8  9  1  0
  8  6  1  0
  9 14  1  0
 10 11  1  0
  9 10  1  6
 12 11  1  0
 13 12  2  0
 14 22  1  0
 14 15  2  0
 16 12  1  0
 18 17  1  0
 18 20  1  0
 19 18  2  0
 21 20  1  6
 21 23  1  0
 22 21  1  0
 23 25  2  0
 23 24  1  0
M  END
$$$$
