PAA.pdb
     RDKit          3D

 18 18  0  0  1  0  0  0  0  0999 V2000
    8.3480  -14.7522   19.5712 N   0  0  0  0  0  0  0  0  0  0  0  0
    7.0081  -14.1850   19.5566 C   0  0  0  0  0  0  0  0  0  0  0  0
    7.1773  -12.7906   20.0901 C   0  0  0  0  0  0  0  0  0  0  0  0
    8.6355  -12.6440   20.4853 C   0  0  0  0  0  0  0  0  0  0  0  0
    9.0510  -14.0927   20.6529 C   0  0  1  0  0  0  0  0  0  0  0  0
    8.6054  -14.6218   21.9657 C   0  0  0  0  0  0  0  0  0  0  0  0
    7.5992  -14.1041   22.5069 O   0  0  0  0  0  0  0  0  0  0  0  0
    9.2373  -17.5897   24.0892 C   0  0  0  0  0  0  0  0  0  0  0  0
    8.9440  -16.0894   23.9857 C   0  0  2  0  0  0  0  0  0  0  0  0
    9.2478  -15.6769   22.6452 N   0  0  0  0  0  0  0  0  0  0  0  0
    9.7680  -15.4052   25.0032 C   0  0  0  0  0  0  0  0  0  0  0  0
   10.9592  -15.0565   24.8355 O   0  0  0  0  0  0  0  0  0  0  0  0
    9.1410  -13.2751   27.8751 C   0  0  0  0  0  0  0  0  0  0  0  0
    9.9086  -14.4802   27.3178 C   0  0  2  0  0  0  0  0  0  0  0  0
    9.1593  -15.1258   26.2592 N   0  0  0  0  0  0  0  0  0  0  0  0
   10.0977  -15.4052   28.4792 C   0  0  0  0  0  0  0  0  0  0  0  0
   10.9464  -15.0349   29.5119 O   0  0  0  0  0  0  0  0  0  0  0  0
    9.5169  -16.5057   28.5557 O   0  0  0  0  0  0  0  0  0  0  0  0
  1  2  1  0
  1  5  1  0
  2  3  1  0
  3  4  1  0
  5  4  1  0
  5  6  1  1
  6  7  2  0
  9  8  1  6
  9 10  1  0
 10  6  1  0
 11 15  1  0
 11  9  1  0
 12 11  2  0
 14 13  1  1
 14 15  1  0
 14 16  1  0
 16 18  2  0
 16 17  1  0
M  END
$$$$
