PAA.pdb
     RDKit          3D

 18 18  0  0  1  0  0  0  0  0999 V2000
    8.8837  -14.7166   15.6292 N   0  0  0  0  0  0  0  0  0  0  0  0
   10.1936  -15.3429   15.7260 C   0  0  0  0  0  0  0  0  0  0  0  0
    9.9496  -16.6269   16.4673 C   0  0  0  0  0  0  0  0  0  0  0  0
    8.4823  -16.6395   16.8556 C   0  0  0  0  0  0  0  0  0  0  0  0
    8.1384  -15.1642   16.7883 C   0  0  1  0  0  0  0  0  0  0  0  0
    8.5978  -14.4583   18.0100 C   0  0  0  0  0  0  0  0  0  0  0  0
    9.7835  -14.0514   18.0535 O   0  0  0  0  0  0  0  0  0  0  0  0
    6.9351  -13.0862   21.0694 C   0  0  0  0  0  0  0  0  0  0  0  0
    8.1957  -13.5159   20.3120 C   0  0  2  0  0  0  0  0  0  0  0  0
    7.7778  -14.2158   19.1310 N   0  0  0  0  0  0  0  0  0  0  0  0
    8.9996  -14.3521   21.2270 C   0  0  0  0  0  0  0  0  0  0  0  0
    9.5734  -13.9289   22.2567 O   0  0  0  0  0  0  0  0  0  0  0  0
    9.2778  -18.0181   21.8025 C   0  0  0  0  0  0  0  0  0  0  0  0
    9.9036  -16.6188   21.7539 C   0  0  2  0  0  0  0  0  0  0  0  0
    9.1265  -15.7340   20.9101 N   0  0  0  0  0  0  0  0  0  0  0  0
   11.2793  -16.8156   21.1979 C   0  0  0  0  0  0  0  0  0  0  0  0
   11.6283  -16.1900   20.0102 O   0  0  0  0  0  0  0  0  0  0  0  0
   12.1318  -17.5263   21.7657 O   0  0  0  0  0  0  0  0  0  0  0  0
  1  2  1  0
  1  5  1  0
  2  3  1  0
  3  4  1  0
  5  4  1  0
  5  6  1  1
  6  7  2  0
  9  8  1  1
  9 10  1  0
 10  6  1  0
 11 15  1  0
 11  9  1  0
 12 11  2  0
 14 13  1  6
 14 15  1  0
 14 16  1  0
 16 18  2  0
 16 17  1  0
M  END
$$$$
