PAA.pdb
     RDKit          3D

 18 18  0  0  1  0  0  0  0  0999 V2000
    8.2206  -16.0039   16.9297 N   0  0  0  0  0  0  0  0  0  0  0  0
    7.1410  -15.0903   16.5873 C   0  0  0  0  0  0  0  0  0  0  0  0
    7.8165  -13.9456   15.8869 C   0  0  0  0  0  0  0  0  0  0  0  0
    9.3092  -14.2157   15.9397 C   0  0  0  0  0  0  0  0  0  0  0  0
    9.4011  -15.1822   17.1045 C   0  0  1  0  0  0  0  0  0  0  0  0
    9.3469  -14.4574   18.3982 C   0  0  0  0  0  0  0  0  0  0  0  0
   10.3565  -13.8068   18.7600 O   0  0  0  0  0  0  0  0  0  0  0  0
    6.6750  -13.5639   20.8472 C   0  0  0  0  0  0  0  0  0  0  0  0
    8.1550  -13.7713   20.5094 C   0  0  2  0  0  0  0  0  0  0  0  0
    8.2234  -14.4555   19.2498 N   0  0  0  0  0  0  0  0  0  0  0  0
    8.7599  -14.5375   21.6184 C   0  0  0  0  0  0  0  0  0  0  0  0
    8.8877  -14.1117   22.7893 O   0  0  0  0  0  0  0  0  0  0  0  0
    9.6452  -18.1573   22.0634 C   0  0  0  0  0  0  0  0  0  0  0  0
    9.8342  -16.6649   22.3619 C   0  0  2  0  0  0  0  0  0  0  0  0
    9.2278  -15.8502   21.3287 N   0  0  0  0  0  0  0  0  0  0  0  0
   11.3149  -16.4515   22.4101 C   0  0  0  0  0  0  0  0  0  0  0  0
   12.0631  -17.0957   23.3843 O   0  0  0  0  0  0  0  0  0  0  0  0
   11.9078  -15.7107   21.6015 O   0  0  0  0  0  0  0  0  0  0  0  0
  1  2  1  0
  1  5  1  0
  2  3  1  0
  3  4  1  0
  5  4  1  0
  5  6  1  1
  6  7  2  0
  9  8  1  1
  9 10  1  0
 10  6  1  0
 11 15  1  0
 11  9  1  0
 12 11  2  0
 14 13  1  6
 14 15  1  0
 14 16  1  0
 16 18  2  0
 16 17  1  0
M  END
$$$$
