PAA.pdb
     RDKit          3D

 18 18  0  0  1  0  0  0  0  0999 V2000
    7.9055  -14.5943   18.9802 N   0  0  0  0  0  0  0  0  0  0  0  0
    6.9633  -13.4906   19.0877 C   0  0  0  0  0  0  0  0  0  0  0  0
    7.7800  -12.3396   19.6030 C   0  0  0  0  0  0  0  0  0  0  0  0
    9.1772  -12.8723   19.8635 C   0  0  0  0  0  0  0  0  0  0  0  0
    8.9148  -14.3602   19.9931 C   0  0  1  0  0  0  0  0  0  0  0  0
    8.3890  -14.6887   21.3412 C   0  0  0  0  0  0  0  0  0  0  0  0
    7.2978  -14.1816   21.6956 O   0  0  0  0  0  0  0  0  0  0  0  0
    9.1743  -17.2397   23.9383 C   0  0  0  0  0  0  0  0  0  0  0  0
    8.5329  -15.9056   23.5428 C   0  0  2  0  0  0  0  0  0  0  0  0
    9.0451  -15.5407   22.2529 N   0  0  0  0  0  0  0  0  0  0  0  0
    8.8643  -14.9245   24.5964 C   0  0  0  0  0  0  0  0  0  0  0  0
    9.9807  -14.3718   24.7268 O   0  0  0  0  0  0  0  0  0  0  0  0
    6.7130  -12.9208   26.9345 C   0  0  0  0  0  0  0  0  0  0  0  0
    8.0465  -13.5512   26.5143 C   0  0  2  0  0  0  0  0  0  0  0  0
    7.8387  -14.5886   25.5246 N   0  0  0  0  0  0  0  0  0  0  0  0
    8.6327  -14.1192   27.7688 C   0  0  0  0  0  0  0  0  0  0  0  0
    9.1289  -13.2592   28.7373 O   0  0  0  0  0  0  0  0  0  0  0  0
    8.6932  -15.3465   27.9795 O   0  0  0  0  0  0  0  0  0  0  0  0
  1  2  1  0
  1  5  1  0
  2  3  1  0
  3  4  1  0
  5  4  1  0
  5  6  1  1
  6  7  2  0
  9  8  1  1
  9 10  1  0
 10  6  1  0
 11 15  1  0
 11  9  1  0
 12 11  2  0
 14 13  1  1
 14 15  1  0
 14 16  1  0
 16 18  2  0
 16 17  1  0
M  END
$$$$
