PAA.pdb
     RDKit          3D

 18 18  0  0  1  0  0  0  0  0999 V2000
    5.8752  -18.4162   24.2499 N   0  0  0  0  0  0  0  0  0  0  0  0
    5.1647  -18.3113   22.9844 C   0  0  0  0  0  0  0  0  0  0  0  0
    5.7723  -19.3756   22.1153 C   0  0  0  0  0  0  0  0  0  0  0  0
    6.9014  -20.0037   22.9121 C   0  0  0  0  0  0  0  0  0  0  0  0
    7.1961  -18.9171   23.9279 C   0  0  1  0  0  0  0  0  0  0  0  0
    8.0301  -17.8459   23.3290 C   0  0  0  0  0  0  0  0  0  0  0  0
    9.1593  -18.1518   22.8766 O   0  0  0  0  0  0  0  0  0  0  0  0
    7.7203  -14.5512   21.8420 C   0  0  0  0  0  0  0  0  0  0  0  0
    8.4861  -15.4146   22.8498 C   0  0  2  0  0  0  0  0  0  0  0  0
    7.6280  -16.4977   23.2371 N   0  0  0  0  0  0  0  0  0  0  0  0
    8.8664  -14.5438   23.9811 C   0  0  0  0  0  0  0  0  0  0  0  0
    9.9206  -13.8698   24.0357 O   0  0  0  0  0  0  0  0  0  0  0  0
    6.8859  -13.1522   26.8511 C   0  0  0  0  0  0  0  0  0  0  0  0
    8.2032  -13.5437   26.1704 C   0  0  2  0  0  0  0  0  0  0  0  0
    7.9673  -14.4707   25.0823 N   0  0  0  0  0  0  0  0  0  0  0  0
    9.0336  -14.1780   27.2420 C   0  0  0  0  0  0  0  0  0  0  0  0
    9.4153  -15.5049   27.1103 O   0  0  0  0  0  0  0  0  0  0  0  0
    9.3990  -13.5547   28.2581 O   0  0  0  0  0  0  0  0  0  0  0  0
  1  2  1  0
  1  5  1  0
  2  3  1  0
  3  4  1  0
  5  4  1  0
  5  6  1  6
  6  7  2  0
  9  8  1  6
  9 10  1  0
 10  6  1  0
 11 15  1  0
 11  9  1  0
 12 11  2  0
 14 13  1  1
 14 15  1  0
 14 16  1  0
 16 18  2  0
 16 17  1  0
M  END
$$$$
