PAA.pdb
     RDKit          3D

 18 18  0  0  1  0  0  0  0  0999 V2000
    8.9107  -14.5833   18.7800 N   0  0  0  0  0  0  0  0  0  0  0  0
    7.5185  -14.3653   18.4170 C   0  0  0  0  0  0  0  0  0  0  0  0
    7.2431  -12.9382   18.7979 C   0  0  0  0  0  0  0  0  0  0  0  0
    8.4992  -12.4104   19.4668 C   0  0  0  0  0  0  0  0  0  0  0  0
    9.1781  -13.6971   19.8946 C   0  0  1  0  0  0  0  0  0  0  0  0
    8.5708  -14.2260   21.1408 C   0  0  0  0  0  0  0  0  0  0  0  0
    8.6695  -13.5436   22.1887 O   0  0  0  0  0  0  0  0  0  0  0  0
    6.1027  -16.8434   22.0186 C   0  0  0  0  0  0  0  0  0  0  0  0
    7.3161  -15.9980   22.4194 C   0  0  2  0  0  0  0  0  0  0  0  0
    7.8858  -15.4558   21.2191 N   0  0  0  0  0  0  0  0  0  0  0  0
    8.2463  -16.8784   23.1558 C   0  0  0  0  0  0  0  0  0  0  0  0
    7.9524  -17.5110   24.1960 O   0  0  0  0  0  0  0  0  0  0  0  0
   11.3057  -18.7103   22.2815 C   0  0  0  0  0  0  0  0  0  0  0  0
   10.5359  -17.8628   23.3020 C   0  0  2  0  0  0  0  0  0  0  0  0
    9.5668  -17.0122   22.6415 N   0  0  0  0  0  0  0  0  0  0  0  0
   11.5732  -17.0447   24.0055 C   0  0  0  0  0  0  0  0  0  0  0  0
   11.5484  -15.6634   23.8819 O   0  0  0  0  0  0  0  0  0  0  0  0
   12.4671  -17.5608   24.7047 O   0  0  0  0  0  0  0  0  0  0  0  0
  1  2  1  0
  1  5  1  0
  2  3  1  0
  3  4  1  0
  5  4  1  0
  5  6  1  1
  6  7  2  0
  9  8  1  6
  9 10  1  0
 10  6  1  0
 11 15  1  0
 11  9  1  0
 12 11  2  0
 14 13  1  6
 14 15  1  0
 14 16  1  0
 16 18  2  0
 16 17  1  0
M  END
$$$$
