PAA.pdb
     RDKit          3D

 18 18  0  0  1  0  0  0  0  0999 V2000
   -4.9199  -25.2142   25.8779 N   0  0  0  0  0  0  0  0  0  0  0  0
   -3.7362  -24.6050   25.2905 C   0  0  0  0  0  0  0  0  0  0  0  0
   -2.5826  -25.3705   25.8740 C   0  0  0  0  0  0  0  0  0  0  0  0
   -3.1663  -26.3553   26.8708 C   0  0  0  0  0  0  0  0  0  0  0  0
   -4.5101  -25.7205   27.1721 C   0  0  1  0  0  0  0  0  0  0  0  0
   -4.3636  -24.6102   28.1457 C   0  0  0  0  0  0  0  0  0  0  0  0
   -3.9512  -24.8791   29.2993 O   0  0  0  0  0  0  0  0  0  0  0  0
   -4.0881  -20.9451   28.0437 C   0  0  0  0  0  0  0  0  0  0  0  0
   -4.5840  -22.1854   28.7942 C   0  0  2  0  0  0  0  0  0  0  0  0
   -4.6617  -23.2641   27.8510 N   0  0  0  0  0  0  0  0  0  0  0  0
   -5.8901  -21.8470   29.3960 C   0  0  0  0  0  0  0  0  0  0  0  0
   -6.0648  -20.9586   30.2614 O   0  0  0  0  0  0  0  0  0  0  0  0
   -9.4148  -22.7147   28.4027 C   0  0  0  0  0  0  0  0  0  0  0  0
   -8.3569  -22.2316   29.4025 C   0  0  2  0  0  0  0  0  0  0  0  0
   -7.0247  -22.5861   28.9570 N   0  0  0  0  0  0  0  0  0  0  0  0
   -8.6872  -22.9123   30.6939 C   0  0  0  0  0  0  0  0  0  0  0  0
   -9.7672  -22.4656   31.4409 O   0  0  0  0  0  0  0  0  0  0  0  0
   -8.0237  -23.8740   31.1286 O   0  0  0  0  0  0  0  0  0  0  0  0
  1  2  1  0
  1  5  1  0
  2  3  1  0
  3  4  1  0
  5  4  1  0
  5  6  1  1
  6  7  2  0
  9  8  1  6
  9 10  1  0
 10  6  1  0
 11 15  1  0
 11  9  1  0
 12 11  2  0
 14 13  1  6
 14 15  1  0
 14 16  1  0
 16 18  2  0
 16 17  1  0
M  END
$$$$
