VER.pdb
     RDKit          3D

 28 27  0  0  1  0  0  0  0  0999 V2000
   25.9555  -21.5182   -8.8377 C   0  0  0  0  0  0  0  0  0  0  0  0
   25.9635  -20.7106  -10.0932 C   0  0  2  0  0  0  0  0  0  0  0  0
   25.6569  -19.2582   -9.7120 C   0  0  0  0  0  0  0  0  0  0  0  0
   24.8823  -21.1622  -11.0693 C   0  0  2  0  0  0  0  0  0  0  0  0
   25.0953  -22.5506  -11.4517 N   0  0  0  0  0  0  0  0  0  0  0  0
   24.8579  -20.3161  -12.2848 C   0  0  0  0  0  0  0  0  0  0  0  0
   24.6342  -19.0854  -12.2348 O   0  0  0  0  0  0  0  0  0  0  0  0
   25.0908  -20.8715  -13.5820 N   0  0  0  0  0  0  0  0  0  0  0  0
   25.1226  -20.1002  -14.7987 C   0  0  1  0  0  0  0  0  0  0  0  0
   25.8868  -20.8573  -15.8407 C   0  0  0  0  0  0  0  0  0  0  0  0
   27.3009  -21.1649  -15.4291 C   0  0  0  0  0  0  0  0  0  0  0  0
   28.0235  -21.8767  -16.5148 C   0  0  0  0  0  0  0  0  0  0  0  0
   28.7619  -22.8437  -16.2051 O   0  0  0  0  0  0  0  0  0  0  0  0
   23.7458  -19.7261  -15.2453 C   0  0  0  0  0  0  0  0  0  0  0  0
   22.7814  -20.4960  -15.0208 O   0  0  0  0  0  0  0  0  0  0  0  0
   27.9260  -21.5297  -17.8544 O   0  0  0  0  0  0  0  0  0  0  0  0
   22.6423  -11.4871  -15.2184 N   0  0  0  0  0  0  0  0  0  0  0  0
   21.6054  -12.1961  -15.8713 C   0  0  0  0  0  0  0  0  0  0  0  0
   20.4455  -11.6908  -16.1092 N   0  0  0  0  0  0  0  0  0  0  0  0
   21.8277  -13.5319  -16.2947 N   0  0  0  0  0  0  0  0  0  0  0  0
   23.0797  -14.2355  -16.0034 C   0  0  0  0  0  0  0  0  0  0  0  0
   23.0995  -15.5939  -16.5755 C   0  0  0  0  0  0  0  0  0  0  0  0
   22.2485  -16.5872  -15.9318 C   0  0  0  0  0  0  0  0  0  0  0  0
   22.1824  -18.0145  -16.2901 C   0  0  2  0  0  0  0  0  0  0  0  0
   23.5741  -18.5163  -15.9071 N   0  0  0  0  0  0  0  0  0  0  0  0
   22.1163  -18.3980  -17.7037 C   0  0  0  0  0  0  0  0  0  0  0  0
   23.1130  -18.9944  -18.2421 O   0  0  0  0  0  0  0  0  0  0  0  0
   21.0643  -18.1912  -18.5539 O   0  0  0  0  0  0  0  0  0  0  0  0
  2  1  1  1
  2  3  1  0
  4  2  1  0
  4  5  1  6
  6  7  2  0
  6  4  1  0
  8  6  1  0
  9  8  1  0
  9 10  1  6
 11 10  1  0
 12 11  1  0
 13 12  2  0
 14  9  1  0
 15 14  2  0
 16 12  1  0
 18 17  1  0
 19 18  2  0
 20 18  1  0
 21 20  1  0
 22 21  1  0
 23 22  1  0
 24 23  1  6
 24 25  1  0
 25 14  1  0
 26 28  1  0
 26 24  1  0
 27 26  2  0
M  END
$$$$
