VER.pdb
     RDKit          3D

 28 27  0  0  1  0  0  0  0  0999 V2000
   26.4197  -20.1287  -19.6844 C   0  0  0  0  0  0  0  0  0  0  0  0
   25.6256  -18.9053  -20.0022 C   0  0  2  0  0  0  0  0  0  0  0  0
   26.5958  -17.8518  -20.5480 C   0  0  0  0  0  0  0  0  0  0  0  0
   24.9651  -18.3150  -18.7608 C   0  0  2  0  0  0  0  0  0  0  0  0
   25.9350  -17.5542  -17.9863 N   0  0  0  0  0  0  0  0  0  0  0  0
   24.3722  -19.3693  -17.9059 C   0  0  0  0  0  0  0  0  0  0  0  0
   23.4961  -20.1562  -18.3305 O   0  0  0  0  0  0  0  0  0  0  0  0
   24.7771  -19.5376  -16.5446 N   0  0  0  0  0  0  0  0  0  0  0  0
   24.1929  -20.4940  -15.6388 C   0  0  1  0  0  0  0  0  0  0  0  0
   25.2165  -20.8978  -14.6229 C   0  0  0  0  0  0  0  0  0  0  0  0
   26.2353  -21.8645  -15.1630 C   0  0  0  0  0  0  0  0  0  0  0  0
   27.4261  -21.1418  -15.6799 C   0  0  0  0  0  0  0  0  0  0  0  0
   27.4221  -19.8868  -15.6480 O   0  0  0  0  0  0  0  0  0  0  0  0
   22.9380  -19.9662  -15.0209 C   0  0  0  0  0  0  0  0  0  0  0  0
   22.9165  -18.8125  -14.5295 O   0  0  0  0  0  0  0  0  0  0  0  0
   28.5441  -21.7803  -16.1967 O   0  0  0  0  0  0  0  0  0  0  0  0
   17.7307  -15.4933  -18.2878 N   0  0  0  0  0  0  0  0  0  0  0  0
   16.8504  -15.9417  -17.2738 C   0  0  0  0  0  0  0  0  0  0  0  0
   15.6995  -15.4094  -17.0517 N   0  0  0  0  0  0  0  0  0  0  0  0
   17.2300  -17.0296  -16.4460 N   0  0  0  0  0  0  0  0  0  0  0  0
   18.6101  -17.5203  -16.4012 C   0  0  0  0  0  0  0  0  0  0  0  0
   18.7863  -18.5924  -15.4049 C   0  0  0  0  0  0  0  0  0  0  0  0
   20.0907  -19.2422  -15.3671 C   0  0  0  0  0  0  0  0  0  0  0  0
   20.4892  -20.3007  -14.4233 C   0  0  2  0  0  0  0  0  0  0  0  0
   21.8148  -20.7846  -15.0097 N   0  0  0  0  0  0  0  0  0  0  0  0
   19.7212  -21.5488  -14.3775 C   0  0  0  0  0  0  0  0  0  0  0  0
   18.7912  -21.6850  -13.5084 O   0  0  0  0  0  0  0  0  0  0  0  0
   19.8830  -22.6334  -15.1960 O   0  0  0  0  0  0  0  0  0  0  0  0
  2  1  1  1
  2  3  1  0
  4  2  1  0
  4  5  1  1
  6  7  2  0
  6  4  1  0
  8  6  1  0
  9  8  1  0
  9 10  1  1
 11 10  1  0
 12 11  1  0
 13 12  2  0
 14  9  1  0
 15 14  2  0
 16 12  1  0
 18 17  1  0
 19 18  2  0
 20 18  1  0
 21 20  1  0
 22 21  1  0
 23 22  1  0
 24 23  1  6
 24 25  1  0
 25 14  1  0
 26 28  1  0
 26 24  1  0
 27 26  2  0
M  END
$$$$
