VER.pdb
     RDKit          3D

 28 27  0  0  1  0  0  0  0  0999 V2000
   16.6715  -23.9370  -10.5138 C   0  0  0  0  0  0  0  0  0  0  0  0
   17.7840  -24.0472  -11.5031 C   0  0  2  0  0  0  0  0  0  0  0  0
   18.7180  -25.1655  -11.0276 C   0  0  0  0  0  0  0  0  0  0  0  0
   18.6095  -22.7670  -11.5786 C   0  0  2  0  0  0  0  0  0  0  0  0
   17.7528  -21.6313  -11.8874 N   0  0  0  0  0  0  0  0  0  0  0  0
   19.6785  -22.8677  -12.5989 C   0  0  0  0  0  0  0  0  0  0  0  0
   20.6775  -23.6064  -12.4458 O   0  0  0  0  0  0  0  0  0  0  0  0
   19.6175  -22.1190  -13.8159 N   0  0  0  0  0  0  0  0  0  0  0  0
   20.6714  -22.0834  -14.7980 C   0  0  1  0  0  0  0  0  0  0  0  0
   20.0732  -21.8633  -16.1532 C   0  0  0  0  0  0  0  0  0  0  0  0
   21.0963  -21.8566  -17.2564 C   0  0  0  0  0  0  0  0  0  0  0  0
   20.4498  -21.6249  -18.5740 C   0  0  0  0  0  0  0  0  0  0  0  0
   20.2187  -20.4418  -18.9247 O   0  0  0  0  0  0  0  0  0  0  0  0
   21.7099  -21.0662  -14.4491 C   0  0  0  0  0  0  0  0  0  0  0  0
   21.3771  -19.9956  -13.8867 O   0  0  0  0  0  0  0  0  0  0  0  0
   20.0873  -22.6472  -19.4389 O   0  0  0  0  0  0  0  0  0  0  0  0
   28.4140  -20.6069   -8.8357 N   0  0  0  0  0  0  0  0  0  0  0  0
   28.6796  -21.0879  -10.1404 C   0  0  0  0  0  0  0  0  0  0  0  0
   29.5462  -22.0061  -10.3918 N   0  0  0  0  0  0  0  0  0  0  0  0
   27.9705  -20.5486  -11.2446 N   0  0  0  0  0  0  0  0  0  0  0  0
   26.7876  -21.2115  -11.8002 C   0  0  0  0  0  0  0  0  0  0  0  0
   26.1592  -20.4191  -12.8727 C   0  0  0  0  0  0  0  0  0  0  0  0
   24.9429  -20.9651  -13.4624 C   0  0  0  0  0  0  0  0  0  0  0  0
   24.1389  -20.3167  -14.5127 C   0  0  2  0  0  0  0  0  0  0  0  0
   23.0348  -21.3428  -14.7646 N   0  0  0  0  0  0  0  0  0  0  0  0
   24.7027  -20.1636  -15.8574 C   0  0  0  0  0  0  0  0  0  0  0  0
   24.6182  -21.1322  -16.6902 O   0  0  0  0  0  0  0  0  0  0  0  0
   25.3316  -19.0544  -16.3539 O   0  0  0  0  0  0  0  0  0  0  0  0
  2  1  1  1
  2  3  1  0
  4  2  1  0
  4  5  1  6
  6  7  2  0
  6  4  1  0
  8  6  1  0
  9  8  1  0
  9 10  1  6
 11 10  1  0
 12 11  1  0
 13 12  2  0
 14  9  1  0
 15 14  2  0
 16 12  1  0
 18 17  1  0
 19 18  2  0
 20 18  1  0
 21 20  1  0
 22 21  1  0
 23 22  1  0
 24 23  1  1
 24 25  1  0
 25 14  1  0
 26 28  1  0
 26 24  1  0
 27 26  2  0
M  END
$$$$
