VER.pdb
     RDKit          3D

 28 27  0  0  1  0  0  0  0  0999 V2000
   29.2351  -22.4715  -21.3655 C   0  0  0  0  0  0  0  0  0  0  0  0
   30.5197  -22.8355  -20.6978 C   0  0  2  0  0  0  0  0  0  0  0  0
   31.1139  -24.0282  -21.4549 C   0  0  0  0  0  0  0  0  0  0  0  0
   30.3074  -23.2746  -19.2528 C   0  0  2  0  0  0  0  0  0  0  0  0
   29.4141  -24.4229  -19.2001 N   0  0  0  0  0  0  0  0  0  0  0  0
   29.7485  -22.1792  -18.4271 C   0  0  0  0  0  0  0  0  0  0  0  0
   30.3354  -21.0818  -18.2915 O   0  0  0  0  0  0  0  0  0  0  0  0
   28.5021  -22.3267  -17.7414 N   0  0  0  0  0  0  0  0  0  0  0  0
   27.9024  -21.3032  -16.9234 C   0  0  1  0  0  0  0  0  0  0  0  0
   27.2890  -20.2628  -17.8090 C   0  0  0  0  0  0  0  0  0  0  0  0
   26.1993  -20.8069  -18.6923 C   0  0  0  0  0  0  0  0  0  0  0  0
   25.6390  -19.7375  -19.5584 C   0  0  0  0  0  0  0  0  0  0  0  0
   24.5991  -19.1459  -19.1778 O   0  0  0  0  0  0  0  0  0  0  0  0
   26.9290  -21.8832  -15.9481 C   0  0  0  0  0  0  0  0  0  0  0  0
   26.2681  -22.9050  -16.2519 O   0  0  0  0  0  0  0  0  0  0  0  0
   26.2039  -19.3570  -20.7669 O   0  0  0  0  0  0  0  0  0  0  0  0
   23.5368  -20.3255   -9.3279 N   0  0  0  0  0  0  0  0  0  0  0  0
   24.4318  -20.8457   -8.3623 C   0  0  0  0  0  0  0  0  0  0  0  0
   24.0704  -21.1833   -7.1738 N   0  0  0  0  0  0  0  0  0  0  0  0
   25.8011  -21.0135   -8.6936 N   0  0  0  0  0  0  0  0  0  0  0  0
   26.3333  -20.6163   -9.9999 C   0  0  0  0  0  0  0  0  0  0  0  0
   25.7548  -21.4091  -11.0998 C   0  0  0  0  0  0  0  0  0  0  0  0
   26.2323  -21.1089  -12.4440 C   0  0  0  0  0  0  0  0  0  0  0  0
   25.7905  -21.7837  -13.6766 C   0  0  2  0  0  0  0  0  0  0  0  0
   26.7837  -21.2612  -14.7138 N   0  0  0  0  0  0  0  0  0  0  0  0
   24.5116  -21.4039  -14.2848 C   0  0  0  0  0  0  0  0  0  0  0  0
   24.4481  -20.3541  -15.0146 O   0  0  0  0  0  0  0  0  0  0  0  0
   23.3240  -22.0731  -14.1654 O   0  0  0  0  0  0  0  0  0  0  0  0
  2  1  1  6
  2  3  1  0
  4  2  1  0
  4  5  1  6
  6  7  2  0
  6  4  1  0
  8  6  1  0
  9  8  1  0
  9 10  1  6
 11 10  1  0
 12 11  1  0
 13 12  2  0
 14  9  1  0
 15 14  2  0
 16 12  1  0
 18 17  1  0
 19 18  2  0
 20 18  1  0
 21 20  1  0
 22 21  1  0
 23 22  1  0
 24 23  1  1
 24 25  1  0
 25 14  1  0
 26 28  1  0
 26 24  1  0
 27 26  2  0
M  END
$$$$
