VER.pdb
     RDKit          3D

 28 27  0  0  1  0  0  0  0  0999 V2000
   24.7818  -17.5319  -18.4724 C   0  0  0  0  0  0  0  0  0  0  0  0
   26.0712  -17.3169  -17.7515 C   0  0  2  0  0  0  0  0  0  0  0  0
   27.0137  -16.5685  -18.7006 C   0  0  0  0  0  0  0  0  0  0  0  0
   26.7470  -18.6341  -17.3852 C   0  0  2  0  0  0  0  0  0  0  0  0
   27.1125  -19.3660  -18.5894 N   0  0  0  0  0  0  0  0  0  0  0  0
   25.8702  -19.4804  -16.5432 C   0  0  0  0  0  0  0  0  0  0  0  0
   24.8676  -20.0688  -17.0076 O   0  0  0  0  0  0  0  0  0  0  0  0
   26.1313  -19.6653  -15.1493 N   0  0  0  0  0  0  0  0  0  0  0  0
   25.2221  -20.3065  -14.2336 C   0  0  1  0  0  0  0  0  0  0  0  0
   25.9507  -20.6362  -12.9674 C   0  0  0  0  0  0  0  0  0  0  0  0
   25.0520  -21.1925  -11.8965 C   0  0  0  0  0  0  0  0  0  0  0  0
   25.8143  -21.4441  -10.6463 C   0  0  0  0  0  0  0  0  0  0  0  0
   27.0398  -21.1720  -10.6303 O   0  0  0  0  0  0  0  0  0  0  0  0
   24.0019  -19.4743  -14.0019 C   0  0  0  0  0  0  0  0  0  0  0  0
   24.1162  -18.2669  -13.6818 O   0  0  0  0  0  0  0  0  0  0  0  0
   25.2438  -21.9642   -9.4937 O   0  0  0  0  0  0  0  0  0  0  0  0
   18.4041  -18.1667  -19.8639 N   0  0  0  0  0  0  0  0  0  0  0  0
   17.6929  -17.5863  -18.7863 C   0  0  0  0  0  0  0  0  0  0  0  0
   16.5882  -16.9422  -18.9347 N   0  0  0  0  0  0  0  0  0  0  0  0
   18.2000  -17.7044  -17.4665 N   0  0  0  0  0  0  0  0  0  0  0  0
   19.4597  -18.3974  -17.1830 C   0  0  0  0  0  0  0  0  0  0  0  0
   19.7504  -18.4525  -15.7389 C   0  0  0  0  0  0  0  0  0  0  0  0
   20.9688  -19.1483  -15.3431 C   0  0  0  0  0  0  0  0  0  0  0  0
   21.4670  -19.2776  -13.9629 C   0  0  2  0  0  0  0  0  0  0  0  0
   22.7574  -20.0746  -14.1506 N   0  0  0  0  0  0  0  0  0  0  0  0
   20.7399  -20.1253  -13.0131 C   0  0  0  0  0  0  0  0  0  0  0  0
   21.0472  -21.3638  -12.9104 O   0  0  0  0  0  0  0  0  0  0  0  0
   19.7294  -19.7302  -12.1791 O   0  0  0  0  0  0  0  0  0  0  0  0
  2  1  1  6
  2  3  1  0
  4  2  1  0
  4  5  1  6
  6  7  2  0
  6  4  1  0
  8  6  1  0
  9  8  1  0
  9 10  1  1
 11 10  1  0
 12 11  1  0
 13 12  2  0
 14  9  1  0
 15 14  2  0
 16 12  1  0
 18 17  1  0
 19 18  2  0
 20 18  1  0
 21 20  1  0
 22 21  1  0
 23 22  1  0
 24 23  1  6
 24 25  1  0
 25 14  1  0
 26 28  1  0
 26 24  1  0
 27 26  2  0
M  END
$$$$
