VER.pdb
     RDKit          3D

 28 27  0  0  1  0  0  0  0  0999 V2000
   28.8689  -25.0492  -19.1310 C   0  0  0  0  0  0  0  0  0  0  0  0
   29.0931  -26.2061  -18.2146 C   0  0  2  0  0  0  0  0  0  0  0  0
   28.5416  -27.4582  -18.9053 C   0  0  0  0  0  0  0  0  0  0  0  0
   28.3411  -26.0450  -16.8976 C   0  0  2  0  0  0  0  0  0  0  0  0
   28.6688  -27.1370  -15.9923 N   0  0  0  0  0  0  0  0  0  0  0  0
   26.8756  -26.0049  -17.1086 C   0  0  0  0  0  0  0  0  0  0  0  0
   26.3289  -25.1303  -17.8180 O   0  0  0  0  0  0  0  0  0  0  0  0
   26.0110  -26.9719  -16.5063 N   0  0  0  0  0  0  0  0  0  0  0  0
   24.5759  -26.9661  -16.6353 C   0  0  1  0  0  0  0  0  0  0  0  0
   24.0429  -28.3139  -16.2580 C   0  0  0  0  0  0  0  0  0  0  0  0
   24.1261  -29.3164  -17.3769 C   0  0  0  0  0  0  0  0  0  0  0  0
   23.5392  -30.6175  -16.9642 C   0  0  0  0  0  0  0  0  0  0  0  0
   24.3186  -31.5624  -16.6887 O   0  0  0  0  0  0  0  0  0  0  0  0
   23.9603  -25.8560  -15.8456 C   0  0  0  0  0  0  0  0  0  0  0  0
   24.4461  -25.5294  -14.7363 O   0  0  0  0  0  0  0  0  0  0  0  0
   22.1742  -30.8448  -16.8668 O   0  0  0  0  0  0  0  0  0  0  0  0
   18.7059  -20.1938  -19.9858 N   0  0  0  0  0  0  0  0  0  0  0  0
   18.9535  -19.5327  -18.7588 C   0  0  0  0  0  0  0  0  0  0  0  0
   18.6385  -18.3033  -18.5429 N   0  0  0  0  0  0  0  0  0  0  0  0
   19.5791  -20.2356  -17.6969 N   0  0  0  0  0  0  0  0  0  0  0  0
   20.1163  -21.5871  -17.8770 C   0  0  0  0  0  0  0  0  0  0  0  0
   20.7171  -22.1154  -16.6390 C   0  0  0  0  0  0  0  0  0  0  0  0
   21.4570  -23.3663  -16.7531 C   0  0  0  0  0  0  0  0  0  0  0  0
   22.2274  -24.0033  -15.6711 C   0  0  2  0  0  0  0  0  0  0  0  0
   22.8494  -25.2094  -16.3739 N   0  0  0  0  0  0  0  0  0  0  0  0
   21.5138  -24.6499  -14.5656 C   0  0  0  0  0  0  0  0  0  0  0  0
   21.0784  -25.8451  -14.7099 O   0  0  0  0  0  0  0  0  0  0  0  0
   21.2518  -24.1051  -13.3380 O   0  0  0  0  0  0  0  0  0  0  0  0
  2  1  1  6
  2  3  1  0
  4  2  1  0
  4  5  1  1
  6  7  2  0
  6  4  1  0
  8  6  1  0
  9  8  1  0
  9 10  1  1
 11 10  1  0
 12 11  1  0
 13 12  2  0
 14  9  1  0
 15 14  2  0
 16 12  1  0
 18 17  1  0
 19 18  2  0
 20 18  1  0
 21 20  1  0
 22 21  1  0
 23 22  1  0
 24 23  1  6
 24 25  1  0
 25 14  1  0
 26 28  1  0
 26 24  1  0
 27 26  2  0
M  END
$$$$
