VER.pdb
     RDKit          3D

 28 27  0  0  1  0  0  0  0  0999 V2000
   28.1856  -21.2203  -10.3185 C   0  0  0  0  0  0  0  0  0  0  0  0
   27.4125  -21.1852  -11.5951 C   0  0  2  0  0  0  0  0  0  0  0  0
   28.1512  -20.2500  -12.5588 C   0  0  0  0  0  0  0  0  0  0  0  0
   26.0102  -20.6191  -11.3978 C   0  0  2  0  0  0  0  0  0  0  0  0
   25.2452  -21.4679  -10.4958 N   0  0  0  0  0  0  0  0  0  0  0  0
   25.2877  -20.4930  -12.6847 C   0  0  0  0  0  0  0  0  0  0  0  0
   25.6119  -19.6488  -13.5502 O   0  0  0  0  0  0  0  0  0  0  0  0
   24.1771  -21.3372  -12.9995 N   0  0  0  0  0  0  0  0  0  0  0  0
   23.4162  -21.2521  -14.2203 C   0  0  1  0  0  0  0  0  0  0  0  0
   23.7295  -22.4387  -15.0786 C   0  0  0  0  0  0  0  0  0  0  0  0
   24.3454  -23.5768  -14.3109 C   0  0  0  0  0  0  0  0  0  0  0  0
   24.5939  -24.7402  -15.2011 C   0  0  0  0  0  0  0  0  0  0  0  0
   25.6756  -24.7840  -15.8368 O   0  0  0  0  0  0  0  0  0  0  0  0
   21.9543  -21.1044  -13.9443 C   0  0  0  0  0  0  0  0  0  0  0  0
   21.4471  -21.6492  -12.9348 O   0  0  0  0  0  0  0  0  0  0  0  0
   23.6935  -25.7823  -15.3678 O   0  0  0  0  0  0  0  0  0  0  0  0
   18.0305  -15.7999  -19.1803 N   0  0  0  0  0  0  0  0  0  0  0  0
   18.4228  -17.1565  -19.2793 C   0  0  0  0  0  0  0  0  0  0  0  0
   18.8091  -17.7015  -20.3798 N   0  0  0  0  0  0  0  0  0  0  0  0
   18.3982  -17.9799  -18.1241 N   0  0  0  0  0  0  0  0  0  0  0  0
   17.9410  -17.4754  -16.8265 C   0  0  0  0  0  0  0  0  0  0  0  0
   18.0569  -18.4905  -15.7638 C   0  0  0  0  0  0  0  0  0  0  0  0
   19.3448  -19.1616  -15.6381 C   0  0  0  0  0  0  0  0  0  0  0  0
   19.6895  -20.1602  -14.6113 C   0  0  2  0  0  0  0  0  0  0  0  0
   21.1893  -20.3554  -14.8303 N   0  0  0  0  0  0  0  0  0  0  0  0
   19.1964  -21.5338  -14.7509 C   0  0  0  0  0  0  0  0  0  0  0  0
   19.7937  -22.3401  -15.5460 O   0  0  0  0  0  0  0  0  0  0  0  0
   18.1281  -22.0846  -14.0967 O   0  0  0  0  0  0  0  0  0  0  0  0
  2  1  1  1
  2  3  1  0
  4  2  1  0
  4  5  1  1
  6  7  2  0
  6  4  1  0
  8  6  1  0
  9  8  1  0
  9 10  1  6
 11 10  1  0
 12 11  1  0
 13 12  2  0
 14  9  1  0
 15 14  2  0
 16 12  1  0
 18 17  1  0
 19 18  2  0
 20 18  1  0
 21 20  1  0
 22 21  1  0
 23 22  1  0
 24 23  1  6
 24 25  1  0
 25 14  1  0
 26 28  1  0
 26 24  1  0
 27 26  2  0
M  END
$$$$
