MYF.pdb
     RDKit          3D

 32 33  0  0  1  0  0  0  0  0999 V2000
   18.6321  -14.6021  -17.3937 C   0  0  0  0  0  0  0  0  0  0  0  0
   19.3649  -13.8419  -15.9349 S   0  0  0  0  0  0  0  0  0  0  0  0
   21.1464  -13.6430  -16.1502 C   0  0  0  0  0  0  0  0  0  0  0  0
   21.7167  -14.9918  -16.5915 C   0  0  0  0  0  0  0  0  0  0  0  0
   23.2211  -14.8582  -16.6504 C   0  0  2  0  0  0  0  0  0  0  0  0
   23.6030  -14.3703  -17.9681 N   0  0  0  0  0  0  0  0  0  0  0  0
   23.8308  -16.1671  -16.3598 C   0  0  0  0  0  0  0  0  0  0  0  0
   23.9185  -16.9916  -17.3022 O   0  0  0  0  0  0  0  0  0  0  0  0
   29.8134  -15.2437  -18.4198 O   0  0  0  0  0  0  0  0  0  0  0  0
   28.9893  -15.8102  -17.4432 C   0  0  0  0  0  0  0  0  0  0  0  0
   28.8741  -17.1735  -17.2853 C   0  0  0  0  0  0  0  0  0  0  0  0
   28.0555  -17.7073  -16.3158 C   0  0  0  0  0  0  0  0  0  0  0  0
   27.3033  -16.9072  -15.4464 C   0  0  0  0  0  0  0  0  0  0  0  0
   26.4116  -17.4761  -14.4408 C   0  0  0  0  0  0  0  0  0  0  0  0
   25.0232  -17.7945  -14.8382 C   0  0  2  0  0  0  0  0  0  0  0  0
   24.3069  -16.5134  -15.0875 N   0  0  0  0  0  0  0  0  0  0  0  0
   24.1791  -18.5193  -13.9028 C   0  0  0  0  0  0  0  0  0  0  0  0
   24.1426  -18.2894  -12.6562 O   0  0  0  0  0  0  0  0  0  0  0  0
   27.4395  -15.5471  -15.6288 C   0  0  0  0  0  0  0  0  0  0  0  0
   28.2580  -15.0070  -16.5986 C   0  0  0  0  0  0  0  0  0  0  0  0
   23.3171  -19.5540  -14.3499 N   0  0  0  0  0  0  0  0  0  0  0  0
   22.4177  -20.2290  -13.4172 C   0  0  1  0  0  0  0  0  0  0  0  0
   21.6911  -19.1342  -12.6631 C   0  0  0  0  0  0  0  0  0  0  0  0
   20.6190  -19.6415  -11.7755 C   0  0  0  0  0  0  0  0  0  0  0  0
   20.8862  -20.0567  -10.4699 C   0  0  0  0  0  0  0  0  0  0  0  0
   19.8962  -20.5232   -9.6311 C   0  0  0  0  0  0  0  0  0  0  0  0
   18.5879  -20.5961  -10.0620 C   0  0  0  0  0  0  0  0  0  0  0  0
   18.3109  -20.1907  -11.3446 C   0  0  0  0  0  0  0  0  0  0  0  0
   19.3026  -19.7259  -12.1775 C   0  0  0  0  0  0  0  0  0  0  0  0
   21.5480  -21.2250  -14.0287 C   0  0  0  0  0  0  0  0  0  0  0  0
   21.1505  -21.2893  -15.3418 O   0  0  0  0  0  0  0  0  0  0  0  0
   21.0935  -22.1528  -13.2697 O   0  0  0  0  0  0  0  0  0  0  0  0
  1  2  1  0
  3  2  1  0
  4  3  1  0
  5  6  1  6
  5  4  1  0
  7  5  1  0
  7  8  2  0
  9 10  1  0
 10 20  2  0
 10 11  1  0
 11 12  2  0
 12 13  1  0
 13 14  1  0
 15 14  1  1
 15 17  1  0
 15 16  1  0
 16  7  1  0
 17 18  2  0
 19 13  2  0
 20 19  1  0
 21 22  1  0
 21 17  1  0
 22 30  1  0
 22 23  1  6
 24 29  1  0
 24 23  1  0
 25 24  2  0
 26 27  2  0
 26 25  1  0
 27 28  1  0
 28 29  2  0
 30 32  2  0
 30 31  1  0
M  END
$$$$
