MYF.pdb
     RDKit          3D

 32 33  0  0  1  0  0  0  0  0999 V2000
   26.4271  -17.1437  -16.8852 C   0  0  0  0  0  0  0  0  0  0  0  0
   28.1555  -16.9270  -16.4285 S   0  0  0  0  0  0  0  0  0  0  0  0
   28.7358  -18.3331  -15.4559 C   0  0  0  0  0  0  0  0  0  0  0  0
   27.5105  -19.0184  -14.8491 C   0  0  0  0  0  0  0  0  0  0  0  0
   28.0029  -20.1207  -13.9398 C   0  0  2  0  0  0  0  0  0  0  0  0
   28.6395  -21.1525  -14.7464 N   0  0  0  0  0  0  0  0  0  0  0  0
   26.8639  -20.6568  -13.1751 C   0  0  0  0  0  0  0  0  0  0  0  0
   26.2258  -21.6155  -13.6745 O   0  0  0  0  0  0  0  0  0  0  0  0
   30.0886  -21.3889   -6.8046 O   0  0  0  0  0  0  0  0  0  0  0  0
   28.9323  -21.0779   -7.5255 C   0  0  0  0  0  0  0  0  0  0  0  0
   27.9539  -20.2525   -7.0170 C   0  0  0  0  0  0  0  0  0  0  0  0
   26.8237  -19.9612   -7.7468 C   0  0  0  0  0  0  0  0  0  0  0  0
   26.6058  -20.4793   -9.0297 C   0  0  0  0  0  0  0  0  0  0  0  0
   25.3918  -20.1946   -9.7880 C   0  0  0  0  0  0  0  0  0  0  0  0
   25.3096  -20.6789  -11.1829 C   0  0  2  0  0  0  0  0  0  0  0  0
   26.4782  -20.1390  -11.9308 N   0  0  0  0  0  0  0  0  0  0  0  0
   24.1520  -20.3115  -11.9814 C   0  0  0  0  0  0  0  0  0  0  0  0
   24.1491  -19.3750  -12.8364 O   0  0  0  0  0  0  0  0  0  0  0  0
   27.6024  -21.3017   -9.5116 C   0  0  0  0  0  0  0  0  0  0  0  0
   28.7367  -21.5970   -8.7847 C   0  0  0  0  0  0  0  0  0  0  0  0
   22.9231  -21.0082  -11.8471 N   0  0  0  0  0  0  0  0  0  0  0  0
   21.8057  -20.7270  -12.7453 C   0  0  1  0  0  0  0  0  0  0  0  0
   22.3412  -20.8958  -14.1524 C   0  0  0  0  0  0  0  0  0  0  0  0
   21.3093  -20.7206  -15.2007 C   0  0  0  0  0  0  0  0  0  0  0  0
   21.5552  -21.0594  -16.5324 C   0  0  0  0  0  0  0  0  0  0  0  0
   20.6008  -20.9087  -17.5161 C   0  0  0  0  0  0  0  0  0  0  0  0
   19.3514  -20.4100  -17.2114 C   0  0  0  0  0  0  0  0  0  0  0  0
   19.0960  -20.0725  -15.9048 C   0  0  0  0  0  0  0  0  0  0  0  0
   20.0520  -20.2249  -14.9271 C   0  0  0  0  0  0  0  0  0  0  0  0
   20.5951  -21.4862  -12.4613 C   0  0  0  0  0  0  0  0  0  0  0  0
   19.3270  -20.9924  -12.2766 O   0  0  0  0  0  0  0  0  0  0  0  0
   20.7088  -22.7598  -12.3700 O   0  0  0  0  0  0  0  0  0  0  0  0
  1  2  1  0
  3  2  1  0
  4  3  1  0
  5  6  1  6
  5  4  1  0
  7  5  1  0
  7  8  2  0
  9 10  1  0
 10 20  2  0
 10 11  1  0
 11 12  2  0
 12 13  1  0
 13 14  1  0
 15 14  1  1
 15 17  1  0
 15 16  1  0
 16  7  1  0
 17 18  2  0
 19 13  2  0
 20 19  1  0
 21 22  1  0
 21 17  1  0
 22 30  1  0
 22 23  1  6
 24 29  1  0
 24 23  1  0
 25 24  2  0
 26 27  2  0
 26 25  1  0
 27 28  1  0
 28 29  2  0
 30 32  2  0
 30 31  1  0
M  END
$$$$
