MYF.pdb
     RDKit          3D

 32 33  0  0  1  0  0  0  0  0999 V2000
   21.1138  -12.9249  -15.8699 C   0  0  0  0  0  0  0  0  0  0  0  0
   21.1661  -13.0830  -17.6630 S   0  0  0  0  0  0  0  0  0  0  0  0
   19.8564  -12.1013  -18.4250 C   0  0  0  0  0  0  0  0  0  0  0  0
   20.0845  -10.6390  -18.0389 C   0  0  0  0  0  0  0  0  0  0  0  0
   18.9123   -9.8380  -18.5575 C   0  0  2  0  0  0  0  0  0  0  0  0
   18.8681   -9.9467  -20.0088 N   0  0  0  0  0  0  0  0  0  0  0  0
   19.0581   -8.4380  -18.1234 C   0  0  0  0  0  0  0  0  0  0  0  0
   19.6385   -7.6434  -18.9027 O   0  0  0  0  0  0  0  0  0  0  0  0
   13.3878   -6.2260  -20.4998 O   0  0  0  0  0  0  0  0  0  0  0  0
   14.3218   -6.2206  -19.4600 C   0  0  0  0  0  0  0  0  0  0  0  0
   14.5064   -7.3101  -18.6379 C   0  0  0  0  0  0  0  0  0  0  0  0
   15.4329   -7.2802  -17.6202 C   0  0  0  0  0  0  0  0  0  0  0  0
   16.2300   -6.1570  -17.3652 C   0  0  0  0  0  0  0  0  0  0  0  0
   17.1885   -6.1167  -16.2655 C   0  0  0  0  0  0  0  0  0  0  0  0
   18.5823   -6.5287  -16.5381 C   0  0  2  0  0  0  0  0  0  0  0  0
   18.5779   -7.9752  -16.8904 N   0  0  0  0  0  0  0  0  0  0  0  0
   19.5663   -6.4053  -15.4755 C   0  0  0  0  0  0  0  0  0  0  0  0
   20.0605   -7.3911  -14.8492 O   0  0  0  0  0  0  0  0  0  0  0  0
   16.0223   -5.0827  -18.2045 C   0  0  0  0  0  0  0  0  0  0  0  0
   15.0955   -5.1072  -19.2255 C   0  0  0  0  0  0  0  0  0  0  0  0
   20.0478   -5.1330  -15.0720 N   0  0  0  0  0  0  0  0  0  0  0  0
   21.2605   -5.0171  -14.2656 C   0  0  1  0  0  0  0  0  0  0  0  0
   22.3694   -5.6583  -15.0746 C   0  0  0  0  0  0  0  0  0  0  0  0
   22.7181   -7.0238  -14.6181 C   0  0  0  0  0  0  0  0  0  0  0  0
   22.3491   -7.4887  -13.3547 C   0  0  0  0  0  0  0  0  0  0  0  0
   22.6605   -8.7600  -12.9209 C   0  0  0  0  0  0  0  0  0  0  0  0
   23.3584   -9.6280  -13.7346 C   0  0  0  0  0  0  0  0  0  0  0  0
   23.7277   -9.1833  -14.9804 C   0  0  0  0  0  0  0  0  0  0  0  0
   23.4143   -7.9138  -15.4084 C   0  0  0  0  0  0  0  0  0  0  0  0
   21.5512   -3.6675  -13.8002 C   0  0  0  0  0  0  0  0  0  0  0  0
   22.2290   -3.3077  -12.6612 O   0  0  0  0  0  0  0  0  0  0  0  0
   21.1342   -2.6946  -14.5235 O   0  0  0  0  0  0  0  0  0  0  0  0
  1  2  1  0
  3  2  1  0
  4  3  1  0
  5  6  1  6
  5  4  1  0
  7  5  1  0
  7  8  2  0
  9 10  1  0
 10 20  2  0
 10 11  1  0
 11 12  2  0
 12 13  1  0
 13 14  1  0
 15 14  1  1
 15 17  1  0
 15 16  1  0
 16  7  1  0
 17 18  2  0
 19 13  2  0
 20 19  1  0
 21 22  1  0
 21 17  1  0
 22 30  1  0
 22 23  1  6
 24 29  1  0
 24 23  1  0
 25 24  2  0
 26 27  2  0
 26 25  1  0
 27 28  1  0
 28 29  2  0
 30 32  2  0
 30 31  1  0
M  END
$$$$
