MYF.pdb
     RDKit          3D

 32 33  0  0  1  0  0  0  0  0999 V2000
   37.2928  -14.6337  -17.7282 C   0  0  0  0  0  0  0  0  0  0  0  0
   37.0069  -12.9613  -18.3318 S   0  0  0  0  0  0  0  0  0  0  0  0
   36.3384  -12.9976  -20.0086 C   0  0  0  0  0  0  0  0  0  0  0  0
   34.8379  -12.7147  -19.9191 C   0  0  0  0  0  0  0  0  0  0  0  0
   34.1149  -14.0401  -19.9884 C   0  0  2  0  0  0  0  0  0  0  0  0
   34.3779  -14.6572  -21.2808 N   0  0  0  0  0  0  0  0  0  0  0  0
   32.6746  -13.8126  -19.7800 C   0  0  0  0  0  0  0  0  0  0  0  0
   31.9617  -13.6206  -20.7951 O   0  0  0  0  0  0  0  0  0  0  0  0
   24.6354  -14.2495  -15.8125 O   0  0  0  0  0  0  0  0  0  0  0  0
   25.9746  -14.3132  -16.2074 C   0  0  0  0  0  0  0  0  0  0  0  0
   26.3460  -14.7260  -17.4678 C   0  0  0  0  0  0  0  0  0  0  0  0
   27.6722  -14.7803  -17.8329 C   0  0  0  0  0  0  0  0  0  0  0  0
   28.7058  -14.4242  -16.9572 C   0  0  0  0  0  0  0  0  0  0  0  0
   30.1122  -14.5135  -17.3364 C   0  0  0  0  0  0  0  0  0  0  0  0
   30.6360  -13.5344  -18.3131 C   0  0  2  0  0  0  0  0  0  0  0  0
   32.0872  -13.8039  -18.5072 N   0  0  0  0  0  0  0  0  0  0  0  0
   30.5580  -12.1190  -17.9917 C   0  0  0  0  0  0  0  0  0  0  0  0
   31.4739  -11.4760  -17.3952 O   0  0  0  0  0  0  0  0  0  0  0  0
   28.3028  -14.0153  -15.7033 C   0  0  0  0  0  0  0  0  0  0  0  0
   26.9757  -13.9591  -15.3323 C   0  0  0  0  0  0  0  0  0  0  0  0
   29.4169  -11.3531  -18.3453 N   0  0  0  0  0  0  0  0  0  0  0  0
   29.3937   -9.9083  -18.1297 C   0  0  1  0  0  0  0  0  0  0  0  0
   30.5825   -9.3489  -18.8841 C   0  0  0  0  0  0  0  0  0  0  0  0
   31.7072   -8.9554  -18.0039 C   0  0  0  0  0  0  0  0  0  0  0  0
   31.6503   -7.8050  -17.2153 C   0  0  0  0  0  0  0  0  0  0  0  0
   32.6868   -7.4320  -16.3859 C   0  0  0  0  0  0  0  0  0  0  0  0
   33.8325   -8.1960  -16.3070 C   0  0  0  0  0  0  0  0  0  0  0  0
   33.9016   -9.3308  -17.0777 C   0  0  0  0  0  0  0  0  0  0  0  0
   32.8644   -9.6984  -17.9037 C   0  0  0  0  0  0  0  0  0  0  0  0
   28.1218   -9.2701  -18.4418 C   0  0  0  0  0  0  0  0  0  0  0  0
   26.9939   -9.8665  -18.9500 O   0  0  0  0  0  0  0  0  0  0  0  0
   28.0279   -8.0104  -18.2236 O   0  0  0  0  0  0  0  0  0  0  0  0
  1  2  1  0
  3  2  1  0
  4  3  1  0
  5  6  1  6
  5  4  1  0
  7  5  1  0
  7  8  2  0
  9 10  1  0
 10 20  2  0
 10 11  1  0
 11 12  2  0
 12 13  1  0
 13 14  1  0
 15 14  1  1
 15 17  1  0
 15 16  1  0
 16  7  1  0
 17 18  2  0
 19 13  2  0
 20 19  1  0
 21 22  1  0
 21 17  1  0
 22 30  1  0
 22 23  1  6
 24 29  1  0
 24 23  1  0
 25 24  2  0
 26 27  2  0
 26 25  1  0
 27 28  1  0
 28 29  2  0
 30 32  2  0
 30 31  1  0
M  END
$$$$
