MYF.pdb
     RDKit          3D

 32 33  0  0  1  0  0  0  0  0999 V2000
   28.2835  -15.7169  -16.7425 C   0  0  0  0  0  0  0  0  0  0  0  0
   29.1273  -16.5399  -18.1041 S   0  0  0  0  0  0  0  0  0  0  0  0
   27.9437  -17.4228  -19.1430 C   0  0  0  0  0  0  0  0  0  0  0  0
   27.0684  -18.2806  -18.2278 C   0  0  0  0  0  0  0  0  0  0  0  0
   27.9213  -19.4139  -17.7054 C   0  0  2  0  0  0  0  0  0  0  0  0
   28.2002  -20.3391  -18.7946 N   0  0  0  0  0  0  0  0  0  0  0  0
   27.2113  -20.0781  -16.5989 C   0  0  0  0  0  0  0  0  0  0  0  0
   26.3295  -20.9211  -16.8945 O   0  0  0  0  0  0  0  0  0  0  0  0
   24.7493  -21.2393   -7.9570 O   0  0  0  0  0  0  0  0  0  0  0  0
   25.3942  -20.9970   -9.1731 C   0  0  0  0  0  0  0  0  0  0  0  0
   25.7907  -22.0194  -10.0065 C   0  0  0  0  0  0  0  0  0  0  0  0
   26.4245  -21.7550  -11.1996 C   0  0  0  0  0  0  0  0  0  0  0  0
   26.6991  -20.4505  -11.6292 C   0  0  0  0  0  0  0  0  0  0  0  0
   27.3998  -20.1743  -12.8792 C   0  0  0  0  0  0  0  0  0  0  0  0
   26.6731  -20.3874  -14.1494 C   0  0  2  0  0  0  0  0  0  0  0  0
   27.4851  -19.8028  -15.2519 N   0  0  0  0  0  0  0  0  0  0  0  0
   25.3530  -19.7994  -14.3045 C   0  0  0  0  0  0  0  0  0  0  0  0
   25.1490  -18.5967  -14.6512 O   0  0  0  0  0  0  0  0  0  0  0  0
   26.2903  -19.4487  -10.7741 C   0  0  0  0  0  0  0  0  0  0  0  0
   25.6551  -19.7080   -9.5777 C   0  0  0  0  0  0  0  0  0  0  0  0
   24.1817  -20.5666  -14.0743 N   0  0  0  0  0  0  0  0  0  0  0  0
   22.8575  -19.9719  -14.2392 C   0  0  1  0  0  0  0  0  0  0  0  0
   22.7467  -19.5843  -15.6996 C   0  0  0  0  0  0  0  0  0  0  0  0
   21.4119  -19.0601  -16.0708 C   0  0  0  0  0  0  0  0  0  0  0  0
   21.1530  -17.6893  -16.1214 C   0  0  0  0  0  0  0  0  0  0  0  0
   19.9174  -17.1884  -16.4730 C   0  0  0  0  0  0  0  0  0  0  0  0
   18.8797  -18.0395  -16.7915 C   0  0  0  0  0  0  0  0  0  0  0  0
   19.1207  -19.3909  -16.7458 C   0  0  0  0  0  0  0  0  0  0  0  0
   20.3556  -19.8854  -16.3942 C   0  0  0  0  0  0  0  0  0  0  0  0
   21.7598  -20.7918  -13.7439 C   0  0  0  0  0  0  0  0  0  0  0  0
   20.6119  -20.3604  -13.1254 O   0  0  0  0  0  0  0  0  0  0  0  0
   21.8609  -22.0609  -13.8940 O   0  0  0  0  0  0  0  0  0  0  0  0
  1  2  1  0
  3  2  1  0
  4  3  1  0
  5  6  1  6
  5  4  1  0
  7  5  1  0
  7  8  2  0
  9 10  1  0
 10 20  2  0
 10 11  1  0
 11 12  2  0
 12 13  1  0
 13 14  1  0
 15 14  1  1
 15 17  1  0
 15 16  1  0
 16  7  1  0
 17 18  2  0
 19 13  2  0
 20 19  1  0
 21 22  1  0
 21 17  1  0
 22 30  1  0
 22 23  1  6
 24 29  1  0
 24 23  1  0
 25 24  2  0
 26 27  2  0
 26 25  1  0
 27 28  1  0
 28 29  2  0
 30 32  2  0
 30 31  1  0
M  END
$$$$
