MYF.pdb
     RDKit          3D

 32 33  0  0  1  0  0  0  0  0999 V2000
   21.2980  -19.4299  -16.6289 C   0  0  0  0  0  0  0  0  0  0  0  0
   22.7049  -19.6967  -17.7210 S   0  0  0  0  0  0  0  0  0  0  0  0
   23.1411  -21.4478  -17.7775 C   0  0  0  0  0  0  0  0  0  0  0  0
   23.3970  -21.9116  -16.3426 C   0  0  0  0  0  0  0  0  0  0  0  0
   24.7714  -21.4276  -15.9409 C   0  0  2  0  0  0  0  0  0  0  0  0
   25.7713  -22.1217  -16.7400 N   0  0  0  0  0  0  0  0  0  0  0  0
   24.9641  -21.6714  -14.5011 C   0  0  0  0  0  0  0  0  0  0  0  0
   25.0230  -22.8642  -14.1144 O   0  0  0  0  0  0  0  0  0  0  0  0
   27.8618  -20.2360   -6.1711 O   0  0  0  0  0  0  0  0  0  0  0  0
   27.4841  -20.1448   -7.5137 C   0  0  0  0  0  0  0  0  0  0  0  0
   26.4739  -19.3079   -7.9334 C   0  0  0  0  0  0  0  0  0  0  0  0
   26.1202  -19.2358   -9.2618 C   0  0  0  0  0  0  0  0  0  0  0  0
   26.7573  -19.9978  -10.2493 C   0  0  0  0  0  0  0  0  0  0  0  0
   26.3586  -19.9433  -11.6521 C   0  0  0  0  0  0  0  0  0  0  0  0
   25.3314  -20.8968  -12.1241 C   0  0  2  0  0  0  0  0  0  0  0  0
   25.0814  -20.6322  -13.5676 N   0  0  0  0  0  0  0  0  0  0  0  0
   24.0166  -20.8681  -11.5051 C   0  0  0  0  0  0  0  0  0  0  0  0
   23.0776  -20.0984  -11.8711 O   0  0  0  0  0  0  0  0  0  0  0  0
   27.7640  -20.8257   -9.7987 C   0  0  0  0  0  0  0  0  0  0  0  0
   28.1223  -20.9019   -8.4691 C   0  0  0  0  0  0  0  0  0  0  0  0
   23.7002  -21.7329  -10.4255 N   0  0  0  0  0  0  0  0  0  0  0  0
   22.3858  -21.6805   -9.7899 C   0  0  1  0  0  0  0  0  0  0  0  0
   22.3079  -22.8887   -8.8791 C   0  0  0  0  0  0  0  0  0  0  0  0
   20.9843  -23.0574   -8.2357 C   0  0  0  0  0  0  0  0  0  0  0  0
   19.9643  -23.7916   -8.8434 C   0  0  0  0  0  0  0  0  0  0  0  0
   18.7307  -23.9628   -8.2516 C   0  0  0  0  0  0  0  0  0  0  0  0
   18.4598  -23.4051   -7.0194 C   0  0  0  0  0  0  0  0  0  0  0  0
   19.4547  -22.6802   -6.4102 C   0  0  0  0  0  0  0  0  0  0  0  0
   20.6839  -22.5124   -7.0052 C   0  0  0  0  0  0  0  0  0  0  0  0
   22.0762  -20.4121   -9.1436 C   0  0  0  0  0  0  0  0  0  0  0  0
   20.8883  -19.7241   -9.1866 O   0  0  0  0  0  0  0  0  0  0  0  0
   23.0062  -19.8626   -8.4533 O   0  0  0  0  0  0  0  0  0  0  0  0
  1  2  1  0
  3  2  1  0
  4  3  1  0
  5  6  1  6
  5  4  1  0
  7  5  1  0
  7  8  2  0
  9 10  1  0
 10 20  2  0
 10 11  1  0
 11 12  2  0
 12 13  1  0
 13 14  1  0
 15 14  1  1
 15 17  1  0
 15 16  1  0
 16  7  1  0
 17 18  2  0
 19 13  2  0
 20 19  1  0
 21 22  1  0
 21 17  1  0
 22 30  1  0
 22 23  1  1
 24 29  1  0
 24 23  1  0
 25 24  2  0
 26 27  2  0
 26 25  1  0
 27 28  1  0
 28 29  2  0
 30 32  2  0
 30 31  1  0
M  END
$$$$
