MYF.pdb
     RDKit          3D

 32 33  0  0  1  0  0  0  0  0999 V2000
   17.1302  -24.2364  -14.0613 C   0  0  0  0  0  0  0  0  0  0  0  0
   17.0194  -23.5247  -12.4107 S   0  0  0  0  0  0  0  0  0  0  0  0
   18.2814  -22.2540  -12.1817 C   0  0  0  0  0  0  0  0  0  0  0  0
   19.6491  -22.9220  -12.3317 C   0  0  0  0  0  0  0  0  0  0  0  0
   20.3357  -22.3015  -13.5267 C   0  0  2  0  0  0  0  0  0  0  0  0
   20.0125  -23.0775  -14.7156 N   0  0  0  0  0  0  0  0  0  0  0  0
   21.7876  -22.2661  -13.2811 C   0  0  0  0  0  0  0  0  0  0  0  0
   22.3812  -23.3625  -13.1355 O   0  0  0  0  0  0  0  0  0  0  0  0
   30.1947  -19.3697  -14.2509 O   0  0  0  0  0  0  0  0  0  0  0  0
   28.8147  -19.5879  -14.2091 C   0  0  0  0  0  0  0  0  0  0  0  0
   28.2500  -20.7755  -14.6185 C   0  0  0  0  0  0  0  0  0  0  0  0
   26.8876  -20.9662  -14.5677 C   0  0  0  0  0  0  0  0  0  0  0  0
   26.0094  -19.9786  -14.1039 C   0  0  0  0  0  0  0  0  0  0  0  0
   24.5630  -20.1717  -14.0815 C   0  0  0  0  0  0  0  0  0  0  0  0
   23.9921  -21.0545  -13.0416 C   0  0  2  0  0  0  0  0  0  0  0  0
   22.5125  -21.0686  -13.2064 N   0  0  0  0  0  0  0  0  0  0  0  0
   24.2098  -20.7175  -11.6445 C   0  0  0  0  0  0  0  0  0  0  0  0
   23.4915  -19.9010  -10.9921 O   0  0  0  0  0  0  0  0  0  0  0  0
   26.6042  -18.8013  -13.7013 C   0  0  0  0  0  0  0  0  0  0  0  0
   27.9684  -18.6049  -13.7501 C   0  0  0  0  0  0  0  0  0  0  0  0
   25.2697  -21.3083  -10.9088 N   0  0  0  0  0  0  0  0  0  0  0  0
   25.7293  -20.7128   -9.6564 C   0  0  1  0  0  0  0  0  0  0  0  0
   26.7702  -21.6595   -9.0948 C   0  0  0  0  0  0  0  0  0  0  0  0
   27.3932  -21.1743   -7.8414 C   0  0  0  0  0  0  0  0  0  0  0  0
   26.7312  -21.2595   -6.6154 C   0  0  0  0  0  0  0  0  0  0  0  0
   27.3031  -20.8190   -5.4406 C   0  0  0  0  0  0  0  0  0  0  0  0
   28.5688  -20.2706   -5.4385 C   0  0  0  0  0  0  0  0  0  0  0  0
   29.2314  -20.1808   -6.6381 C   0  0  0  0  0  0  0  0  0  0  0  0
   28.6561  -20.6219   -7.8075 C   0  0  0  0  0  0  0  0  0  0  0  0
   26.1666  -19.3277   -9.7695 C   0  0  0  0  0  0  0  0  0  0  0  0
   27.0378  -18.8026  -10.6922 O   0  0  0  0  0  0  0  0  0  0  0  0
   25.6948  -18.4919   -8.9196 O   0  0  0  0  0  0  0  0  0  0  0  0
  1  2  1  0
  3  2  1  0
  4  3  1  0
  5  6  1  6
  5  4  1  0
  7  5  1  0
  7  8  2  0
  9 10  1  0
 10 20  2  0
 10 11  1  0
 11 12  2  0
 12 13  1  0
 13 14  1  0
 15 14  1  6
 15 17  1  0
 15 16  1  0
 16  7  1  0
 17 18  2  0
 19 13  2  0
 20 19  1  0
 21 22  1  0
 21 17  1  0
 22 30  1  0
 22 23  1  6
 24 29  1  0
 24 23  1  0
 25 24  2  0
 26 27  2  0
 26 25  1  0
 27 28  1  0
 28 29  2  0
 30 32  2  0
 30 31  1  0
M  END
$$$$
