GHD.pdb
     RDKit          3D

 23 23  0  0  1  0  0  0  0  0999 V2000
   19.9876  -11.0696  -16.5650 N   0  0  0  0  0  0  0  0  0  0  0  0
   21.3574  -11.4792  -16.3587 C   0  0  0  0  0  0  0  0  0  0  0  0
   22.2147  -10.3598  -15.8930 C   0  0  0  0  0  0  0  0  0  0  0  0
   22.1714  -10.1295  -14.6369 O   0  0  0  0  0  0  0  0  0  0  0  0
   23.0084   -9.6175  -16.7736 N   0  0  0  0  0  0  0  0  0  0  0  0
   23.8147   -8.4915  -16.3057 C   0  0  1  0  0  0  0  0  0  0  0  0
   25.1857   -8.5218  -16.8572 C   0  0  0  0  0  0  0  0  0  0  0  0
   26.0432   -9.6466  -16.4252 C   0  0  0  0  0  0  0  0  0  0  0  0
   26.3124  -10.8157  -17.0671 C   0  0  0  0  0  0  0  0  0  0  0  0
   27.2158  -11.5212  -16.3206 N   0  0  0  0  0  0  0  0  0  0  0  0
   27.4740  -10.7706  -15.2519 C   0  0  0  0  0  0  0  0  0  0  0  0
   26.7936   -9.6429  -15.2776 N   0  0  0  0  0  0  0  0  0  0  0  0
   23.1552   -7.2556  -16.8985 C   0  0  0  0  0  0  0  0  0  0  0  0
   22.5735   -7.2439  -17.9904 O   0  0  0  0  0  0  0  0  0  0  0  0
   23.1891   -6.0242  -16.1851 N   0  0  0  0  0  0  0  0  0  0  0  0
   22.6154   -4.7836  -16.7075 C   0  0  1  0  0  0  0  0  0  0  0  0
   22.0512   -4.0701  -15.5015 C   0  0  0  0  0  0  0  0  0  0  0  0
   21.4745   -2.7560  -15.7659 C   0  0  0  0  0  0  0  0  0  0  0  0
   21.8981   -1.6699  -15.3164 O   0  0  0  0  0  0  0  0  0  0  0  0
   23.7352   -3.9777  -17.2360 C   0  0  0  0  0  0  0  0  0  0  0  0
   23.4715   -2.9985  -18.1756 O   0  0  0  0  0  0  0  0  0  0  0  0
   20.3378   -2.7305  -16.6063 O   0  0  0  0  0  0  0  0  0  0  0  0
   24.9117   -4.1360  -16.8765 O   0  0  0  0  0  0  0  0  0  0  0  0
  2  3  1  0
  2  1  1  0
  3  5  1  0
  4  3  2  0
  5  6  1  0
  6  7  1  6
  6 13  1  0
  8  9  2  0
  8  7  1  0
 10  9  1  0
 11 12  2  0
 11 10  1  0
 12  8  1  0
 13 14  2  0
 13 15  1  0
 15 16  1  0
 16 17  1  1
 17 18  1  0
 18 22  1  0
 19 18  2  0
 20 21  1  0
 20 16  1  0
 23 20  2  0
M  END
$$$$
