GHD.pdb
     RDKit          3D

 23 23  0  0  1  0  0  0  0  0999 V2000
   35.4356  -38.3316   -4.7081 N   0  0  0  0  0  0  0  0  0  0  0  0
   34.0473  -38.0927   -5.0275 C   0  0  0  0  0  0  0  0  0  0  0  0
   33.4737  -36.9728   -4.2389 C   0  0  0  0  0  0  0  0  0  0  0  0
   34.2692  -36.4431   -3.3909 O   0  0  0  0  0  0  0  0  0  0  0  0
   32.1569  -36.5370   -4.4191 N   0  0  0  0  0  0  0  0  0  0  0  0
   31.6166  -35.4132   -3.6563 C   0  0  1  0  0  0  0  0  0  0  0  0
   31.0583  -34.3626   -4.5334 C   0  0  0  0  0  0  0  0  0  0  0  0
   32.0265  -33.6244   -5.3729 C   0  0  0  0  0  0  0  0  0  0  0  0
   32.0304  -33.4448   -6.7217 C   0  0  0  0  0  0  0  0  0  0  0  0
   33.0812  -32.6317   -7.0470 N   0  0  0  0  0  0  0  0  0  0  0  0
   33.6858  -32.3367   -5.8982 C   0  0  0  0  0  0  0  0  0  0  0  0
   33.0859  -32.9101   -4.8752 N   0  0  0  0  0  0  0  0  0  0  0  0
   30.4348  -35.9846   -2.8878 C   0  0  0  0  0  0  0  0  0  0  0  0
   29.7678  -36.9528   -3.2731 O   0  0  0  0  0  0  0  0  0  0  0  0
   30.0446  -35.3980   -1.6508 N   0  0  0  0  0  0  0  0  0  0  0  0
   29.0663  -36.0101   -0.7511 C   0  0  1  0  0  0  0  0  0  0  0  0
   29.2187  -35.2737    0.5589 C   0  0  0  0  0  0  0  0  0  0  0  0
   28.2987  -35.6814    1.6158 C   0  0  0  0  0  0  0  0  0  0  0  0
   27.9032  -36.8474    1.8285 O   0  0  0  0  0  0  0  0  0  0  0  0
   27.7272  -35.7060   -1.2961 C   0  0  0  0  0  0  0  0  0  0  0  0
   27.6202  -34.8365   -2.3655 O   0  0  0  0  0  0  0  0  0  0  0  0
   27.8249  -34.6529    2.4624 O   0  0  0  0  0  0  0  0  0  0  0  0
   26.6834  -36.1957   -0.8389 O   0  0  0  0  0  0  0  0  0  0  0  0
  2  3  1  0
  2  1  1  0
  3  5  1  0
  4  3  2  0
  5  6  1  0
  6  7  1  6
  6 13  1  0
  8  9  2  0
  8  7  1  0
 10  9  1  0
 11 12  2  0
 11 10  1  0
 12  8  1  0
 13 14  2  0
 13 15  1  0
 15 16  1  0
 16 17  1  1
 17 18  1  0
 18 22  1  0
 19 18  2  0
 20 21  1  0
 20 16  1  0
 23 20  2  0
M  END
$$$$
