GHD.pdb
     RDKit          3D

 23 23  0  0  1  0  0  0  0  0999 V2000
   49.1139  -10.9993   -7.0001 N   0  0  0  0  0  0  0  0  0  0  0  0
   48.1205   -9.9508   -6.9862 C   0  0  0  0  0  0  0  0  0  0  0  0
   46.7471  -10.4749   -7.1963 C   0  0  0  0  0  0  0  0  0  0  0  0
   46.6844  -11.6839   -7.6048 O   0  0  0  0  0  0  0  0  0  0  0  0
   45.6111   -9.6935   -6.9611 N   0  0  0  0  0  0  0  0  0  0  0  0
   44.2675  -10.2066   -7.2227 C   0  0  1  0  0  0  0  0  0  0  0  0
   43.2456   -9.5420   -6.3868 C   0  0  0  0  0  0  0  0  0  0  0  0
   41.8678  -10.0694   -6.4896 C   0  0  0  0  0  0  0  0  0  0  0  0
   41.2023  -10.9012   -5.6431 C   0  0  0  0  0  0  0  0  0  0  0  0
   39.9252  -11.0592   -6.1067 N   0  0  0  0  0  0  0  0  0  0  0  0
   39.8437  -10.3249   -7.2142 C   0  0  0  0  0  0  0  0  0  0  0  0
   40.9831   -9.7179   -7.4764 N   0  0  0  0  0  0  0  0  0  0  0  0
   43.9589   -9.8029   -8.6564 C   0  0  0  0  0  0  0  0  0  0  0  0
   44.4412   -8.8063   -9.2087 O   0  0  0  0  0  0  0  0  0  0  0  0
   43.0688  -10.5923   -9.4381 N   0  0  0  0  0  0  0  0  0  0  0  0
   42.7631  -10.2991  -10.8387 C   0  0  1  0  0  0  0  0  0  0  0  0
   42.0454  -11.5252  -11.3519 C   0  0  0  0  0  0  0  0  0  0  0  0
   41.5958  -11.4518  -12.7382 C   0  0  0  0  0  0  0  0  0  0  0  0
   41.7076  -10.4596  -13.4895 O   0  0  0  0  0  0  0  0  0  0  0  0
   41.8089   -9.1712  -10.8467 C   0  0  0  0  0  0  0  0  0  0  0  0
   40.8026   -9.1376   -9.8994 O   0  0  0  0  0  0  0  0  0  0  0  0
   40.9829  -12.6148  -13.2584 O   0  0  0  0  0  0  0  0  0  0  0  0
   41.8648   -8.2434  -11.6680 O   0  0  0  0  0  0  0  0  0  0  0  0
  2  3  1  0
  2  1  1  0
  3  5  1  0
  4  3  2  0
  5  6  1  0
  6  7  1  1
  6 13  1  0
  8  9  2  0
  8  7  1  0
 10  9  1  0
 11 12  2  0
 11 10  1  0
 12  8  1  0
 13 14  2  0
 13 15  1  0
 15 16  1  0
 16 17  1  1
 17 18  1  0
 18 22  1  0
 19 18  2  0
 20 21  1  0
 20 16  1  0
 23 20  2  0
M  END
$$$$
