GHD.pdb
     RDKit          3D

 23 23  0  0  1  0  0  0  0  0999 V2000
   20.9227  -13.7334  -18.6095 N   0  0  0  0  0  0  0  0  0  0  0  0
   22.0870  -14.1721  -17.8757 C   0  0  0  0  0  0  0  0  0  0  0  0
   22.5213  -13.1767  -16.8630 C   0  0  0  0  0  0  0  0  0  0  0  0
   22.2434  -13.4775  -15.6527 O   0  0  0  0  0  0  0  0  0  0  0  0
   23.1857  -11.9984  -17.2187 N   0  0  0  0  0  0  0  0  0  0  0  0
   23.5673  -11.0074  -16.2140 C   0  0  1  0  0  0  0  0  0  0  0  0
   24.9756  -10.5825  -16.3586 C   0  0  0  0  0  0  0  0  0  0  0  0
   26.0040  -11.5851  -16.0062 C   0  0  0  0  0  0  0  0  0  0  0  0
   25.8448  -12.8888  -15.6506 C   0  0  0  0  0  0  0  0  0  0  0  0
   27.0828  -13.4468  -15.4860 N   0  0  0  0  0  0  0  0  0  0  0  0
   27.9588  -12.4783  -15.7447 C   0  0  0  0  0  0  0  0  0  0  0  0
   27.3541  -11.3511  -16.0596 N   0  0  0  0  0  0  0  0  0  0  0  0
   22.7278   -9.7784  -16.5276 C   0  0  0  0  0  0  0  0  0  0  0  0
   22.3358   -9.4855  -17.6640 O   0  0  0  0  0  0  0  0  0  0  0  0
   22.3525   -8.8913  -15.4793 N   0  0  0  0  0  0  0  0  0  0  0  0
   21.4834   -7.7327  -15.6876 C   0  0  1  0  0  0  0  0  0  0  0  0
   20.1197   -8.3097  -15.9861 C   0  0  0  0  0  0  0  0  0  0  0  0
   19.0489   -7.3316  -16.1477 C   0  0  0  0  0  0  0  0  0  0  0  0
   19.1497   -6.2290  -16.7270 O   0  0  0  0  0  0  0  0  0  0  0  0
   21.4058   -7.0125  -14.4000 C   0  0  0  0  0  0  0  0  0  0  0  0
   20.9090   -5.7225  -14.3822 O   0  0  0  0  0  0  0  0  0  0  0  0
   17.7957   -7.6803  -15.5937 O   0  0  0  0  0  0  0  0  0  0  0  0
   21.7673   -7.5108  -13.3232 O   0  0  0  0  0  0  0  0  0  0  0  0
  2  3  1  0
  2  1  1  0
  3  5  1  0
  4  3  2  0
  5  6  1  0
  6  7  1  6
  6 13  1  0
  8  9  2  0
  8  7  1  0
 10  9  1  0
 11 12  2  0
 11 10  1  0
 12  8  1  0
 13 14  2  0
 13 15  1  0
 15 16  1  0
 16 17  1  1
 17 18  1  0
 18 22  1  0
 19 18  2  0
 20 21  1  0
 20 16  1  0
 23 20  2  0
M  END
$$$$
