GHD.pdb
     RDKit          3D

 23 23  0  0  1  0  0  0  0  0999 V2000
   25.7705  -12.2378  -18.6788 N   0  0  0  0  0  0  0  0  0  0  0  0
   26.8226  -11.4650  -19.2973 C   0  0  0  0  0  0  0  0  0  0  0  0
   28.0845  -11.5068  -18.5159 C   0  0  0  0  0  0  0  0  0  0  0  0
   28.0073  -12.1108  -17.3925 O   0  0  0  0  0  0  0  0  0  0  0  0
   29.2666  -10.9243  -18.9845 N   0  0  0  0  0  0  0  0  0  0  0  0
   30.5171  -11.0329  -18.2352 C   0  0  1  0  0  0  0  0  0  0  0  0
   31.4977  -11.9069  -18.9129 C   0  0  0  0  0  0  0  0  0  0  0  0
   31.1594  -13.3449  -18.9813 C   0  0  0  0  0  0  0  0  0  0  0  0
   30.6194  -14.0510  -20.0114 C   0  0  0  0  0  0  0  0  0  0  0  0
   30.5514  -15.3672  -19.6452 N   0  0  0  0  0  0  0  0  0  0  0  0
   31.0488  -15.4308  -18.4120 C   0  0  0  0  0  0  0  0  0  0  0  0
   31.4234  -14.2440  -17.9802 N   0  0  0  0  0  0  0  0  0  0  0  0
   31.1186   -9.6360  -18.2592 C   0  0  0  0  0  0  0  0  0  0  0  0
   30.8804   -8.8002  -19.1398 O   0  0  0  0  0  0  0  0  0  0  0  0
   32.0110   -9.2318  -17.2264 N   0  0  0  0  0  0  0  0  0  0  0  0
   32.5944   -7.8918  -17.1554 C   0  0  1  0  0  0  0  0  0  0  0  0
   32.8664   -7.6559  -15.6885 C   0  0  0  0  0  0  0  0  0  0  0  0
   33.4727   -6.3688  -15.3642 C   0  0  0  0  0  0  0  0  0  0  0  0
   33.7040   -5.4467  -16.1752 O   0  0  0  0  0  0  0  0  0  0  0  0
   33.8917   -7.9465  -17.8603 C   0  0  0  0  0  0  0  0  0  0  0  0
   34.3751   -6.8010  -18.4648 O   0  0  0  0  0  0  0  0  0  0  0  0
   33.8216   -6.1664  -14.0091 O   0  0  0  0  0  0  0  0  0  0  0  0
   34.5764   -8.9778  -17.9384 O   0  0  0  0  0  0  0  0  0  0  0  0
  2  3  1  0
  2  1  1  0
  3  5  1  0
  4  3  2  0
  5  6  1  0
  6  7  1  6
  6 13  1  0
  8  9  2  0
  8  7  1  0
 10  9  1  0
 11 12  2  0
 11 10  1  0
 12  8  1  0
 13 14  2  0
 13 15  1  0
 15 16  1  0
 16 17  1  1
 17 18  1  0
 18 22  1  0
 19 18  2  0
 20 21  1  0
 20 16  1  0
 23 20  2  0
M  END
$$$$
