GHD.pdb
     RDKit          3D

 23 23  0  0  1  0  0  0  0  0999 V2000
   22.2190  -13.9988  -17.0130 N   0  0  0  0  0  0  0  0  0  0  0  0
   21.4686  -12.7763  -17.1821 C   0  0  0  0  0  0  0  0  0  0  0  0
   22.0454  -11.6504  -16.4044 C   0  0  0  0  0  0  0  0  0  0  0  0
   21.9171  -11.7449  -15.1367 O   0  0  0  0  0  0  0  0  0  0  0  0
   22.6809  -10.5697  -17.0244 N   0  0  0  0  0  0  0  0  0  0  0  0
   23.3387   -9.5239  -16.2429 C   0  0  1  0  0  0  0  0  0  0  0  0
   24.7139   -9.2583  -16.7152 C   0  0  0  0  0  0  0  0  0  0  0  0
   25.7438  -10.2469  -16.3292 C   0  0  0  0  0  0  0  0  0  0  0  0
   25.6002  -11.4095  -15.6370 C   0  0  0  0  0  0  0  0  0  0  0  0
   26.8167  -12.0324  -15.5801 N   0  0  0  0  0  0  0  0  0  0  0  0
   27.6644  -11.2418  -16.2347 C   0  0  0  0  0  0  0  0  0  0  0  0
   27.0621  -10.1655  -16.6976 N   0  0  0  0  0  0  0  0  0  0  0  0
   22.5486   -8.2561  -16.5290 C   0  0  0  0  0  0  0  0  0  0  0  0
   21.8710   -8.0842  -17.5499 O   0  0  0  0  0  0  0  0  0  0  0  0
   22.5658   -7.1847  -15.5917 N   0  0  0  0  0  0  0  0  0  0  0  0
   21.7961   -5.9536  -15.7734 C   0  0  1  0  0  0  0  0  0  0  0  0
   21.8354   -5.2610  -14.4316 C   0  0  0  0  0  0  0  0  0  0  0  0
   21.1254   -3.9879  -14.3643 C   0  0  0  0  0  0  0  0  0  0  0  0
   21.4453   -3.0112  -13.6535 O   0  0  0  0  0  0  0  0  0  0  0  0
   22.5358   -5.1195  -16.7428 C   0  0  0  0  0  0  0  0  0  0  0  0
   21.8296   -4.2611  -17.5648 O   0  0  0  0  0  0  0  0  0  0  0  0
   19.9782   -3.8686  -15.1821 O   0  0  0  0  0  0  0  0  0  0  0  0
   23.7704   -5.1502  -16.8585 O   0  0  0  0  0  0  0  0  0  0  0  0
  2  3  1  0
  2  1  1  0
  3  5  1  0
  4  3  2  0
  5  6  1  0
  6  7  1  6
  6 13  1  0
  8  9  2  0
  8  7  1  0
 10  9  1  0
 11 12  2  0
 11 10  1  0
 12  8  1  0
 13 14  2  0
 13 15  1  0
 15 16  1  0
 16 17  1  1
 17 18  1  0
 18 22  1  0
 19 18  2  0
 20 21  1  0
 20 16  1  0
 23 20  2  0
M  END
$$$$
