GHD.pdb
     RDKit          3D

 23 23  0  0  1  0  0  0  0  0999 V2000
   12.1241  -13.6082    4.3771 N   0  0  0  0  0  0  0  0  0  0  0  0
   12.9486  -13.7171    5.5581 C   0  0  0  0  0  0  0  0  0  0  0  0
   14.1356  -14.5816    5.3373 C   0  0  0  0  0  0  0  0  0  0  0  0
   14.2038  -15.1249    4.1829 O   0  0  0  0  0  0  0  0  0  0  0  0
   15.1030  -14.7802    6.3278 N   0  0  0  0  0  0  0  0  0  0  0  0
   16.3239  -15.5372    6.0575 C   0  0  1  0  0  0  0  0  0  0  0  0
   17.5246  -14.8697    6.6030 C   0  0  0  0  0  0  0  0  0  0  0  0
   18.1312  -13.8167    5.7602 C   0  0  0  0  0  0  0  0  0  0  0  0
   17.7156  -13.3352    4.5574 C   0  0  0  0  0  0  0  0  0  0  0  0
   18.5485  -12.3148    4.1885 N   0  0  0  0  0  0  0  0  0  0  0  0
   19.4428  -12.1993    5.1678 C   0  0  0  0  0  0  0  0  0  0  0  0
   19.2274  -13.0782    6.1251 N   0  0  0  0  0  0  0  0  0  0  0  0
   16.1734  -16.8303    6.8442 C   0  0  0  0  0  0  0  0  0  0  0  0
   15.5194  -16.9263    7.8900 O   0  0  0  0  0  0  0  0  0  0  0  0
   16.8071  -18.0181    6.3814 N   0  0  0  0  0  0  0  0  0  0  0  0
   16.6904  -19.3043    7.0693 C   0  0  1  0  0  0  0  0  0  0  0  0
   16.7419  -20.3443    5.9750 C   0  0  0  0  0  0  0  0  0  0  0  0
   16.6419  -21.7292    6.4237 C   0  0  0  0  0  0  0  0  0  0  0  0
   16.5071  -22.1041    7.6080 O   0  0  0  0  0  0  0  0  0  0  0  0
   17.8976  -19.4585    7.9069 C   0  0  0  0  0  0  0  0  0  0  0  0
   18.9698  -18.6106    7.7002 O   0  0  0  0  0  0  0  0  0  0  0  0
   16.7050  -22.7184    5.4155 O   0  0  0  0  0  0  0  0  0  0  0  0
   17.9997  -20.3183    8.7950 O   0  0  0  0  0  0  0  0  0  0  0  0
  2  3  1  0
  2  1  1  0
  3  5  1  0
  4  3  2  0
  5  6  1  0
  6  7  1  1
  6 13  1  0
  8  9  2  0
  8  7  1  0
 10  9  1  0
 11 12  2  0
 11 10  1  0
 12  8  1  0
 13 14  2  0
 13 15  1  0
 15 16  1  0
 16 17  1  6
 17 18  1  0
 18 22  1  0
 19 18  2  0
 20 21  1  0
 20 16  1  0
 23 20  2  0
M  END
$$$$
