GHD.pdb
     RDKit          3D

 23 23  0  0  1  0  0  0  0  0999 V2000
   21.5323  -14.0417  -19.6384 N   0  0  0  0  0  0  0  0  0  0  0  0
   20.1290  -13.9029  -19.9515 C   0  0  0  0  0  0  0  0  0  0  0  0
   19.4224  -13.0218  -18.9874 C   0  0  0  0  0  0  0  0  0  0  0  0
   18.3505  -12.4843  -19.4287 O   0  0  0  0  0  0  0  0  0  0  0  0
   19.9037  -12.8027  -17.6926 N   0  0  0  0  0  0  0  0  0  0  0  0
   19.1431  -12.0190  -16.7209 C   0  0  1  0  0  0  0  0  0  0  0  0
   18.9303  -12.7549  -15.4568 C   0  0  0  0  0  0  0  0  0  0  0  0
   17.7640  -13.6631  -15.4134 C   0  0  0  0  0  0  0  0  0  0  0  0
   16.8108  -13.8811  -16.3596 C   0  0  0  0  0  0  0  0  0  0  0  0
   15.9697  -14.8611  -15.9088 N   0  0  0  0  0  0  0  0  0  0  0  0
   16.4278  -15.2145  -14.7098 C   0  0  0  0  0  0  0  0  0  0  0  0
   17.4984  -14.5223  -14.3783 N   0  0  0  0  0  0  0  0  0  0  0  0
   20.0389  -10.8407  -16.3705 C   0  0  0  0  0  0  0  0  0  0  0  0
   21.2538  -10.9403  -16.1585 O   0  0  0  0  0  0  0  0  0  0  0  0
   19.4832   -9.5338  -16.2717 N   0  0  0  0  0  0  0  0  0  0  0  0
   20.2788   -8.3518  -15.9384 C   0  0  1  0  0  0  0  0  0  0  0  0
   19.4250   -7.1734  -16.3431 C   0  0  0  0  0  0  0  0  0  0  0  0
   20.0142   -5.8611  -16.0978 C   0  0  0  0  0  0  0  0  0  0  0  0
   21.1478   -5.6491  -15.6169 O   0  0  0  0  0  0  0  0  0  0  0  0
   20.4260   -8.3294  -14.4685 C   0  0  0  0  0  0  0  0  0  0  0  0
   19.6867   -9.2152  -13.7070 O   0  0  0  0  0  0  0  0  0  0  0  0
   19.2173   -4.7447  -16.4409 O   0  0  0  0  0  0  0  0  0  0  0  0
   21.1866   -7.5486  -13.8765 O   0  0  0  0  0  0  0  0  0  0  0  0
  2  3  1  0
  2  1  1  0
  3  5  1  0
  4  3  2  0
  5  6  1  0
  6  7  1  1
  6 13  1  0
  8  9  2  0
  8  7  1  0
 10  9  1  0
 11 12  2  0
 11 10  1  0
 12  8  1  0
 13 14  2  0
 13 15  1  0
 15 16  1  0
 16 17  1  1
 17 18  1  0
 18 22  1  0
 19 18  2  0
 20 21  1  0
 20 16  1  0
 23 20  2  0
M  END
$$$$
