GHD.pdb
     RDKit          3D

 23 23  0  0  1  0  0  0  0  0999 V2000
   17.8415   -6.6635  -18.8920 N   0  0  0  0  0  0  0  0  0  0  0  0
   18.7362   -7.5479  -18.1821 C   0  0  0  0  0  0  0  0  0  0  0  0
   19.1586   -6.9882  -16.8732 C   0  0  0  0  0  0  0  0  0  0  0  0
   18.4684   -7.3748  -15.8698 O   0  0  0  0  0  0  0  0  0  0  0  0
   20.2351   -6.1028  -16.7578 N   0  0  0  0  0  0  0  0  0  0  0  0
   20.6253   -5.5442  -15.4646 C   0  0  1  0  0  0  0  0  0  0  0  0
   21.9457   -6.0384  -15.0205 C   0  0  0  0  0  0  0  0  0  0  0  0
   22.0194   -7.4659  -14.6410 C   0  0  0  0  0  0  0  0  0  0  0  0
   21.0477   -8.4171  -14.6874 C   0  0  0  0  0  0  0  0  0  0  0  0
   21.5936   -9.6123  -14.3071 N   0  0  0  0  0  0  0  0  0  0  0  0
   22.8741   -9.3627  -14.0420 C   0  0  0  0  0  0  0  0  0  0  0  0
   23.1678   -8.0923  -14.2298 N   0  0  0  0  0  0  0  0  0  0  0  0
   20.8006   -4.0535  -15.7109 C   0  0  0  0  0  0  0  0  0  0  0  0
   21.3500   -3.5826  -16.7145 O   0  0  0  0  0  0  0  0  0  0  0  0
   20.3178   -3.1164  -14.7541 N   0  0  0  0  0  0  0  0  0  0  0  0
   20.4232   -1.6679  -14.9327 C   0  0  1  0  0  0  0  0  0  0  0  0
   19.3300   -1.0824  -14.0702 C   0  0  0  0  0  0  0  0  0  0  0  0
   19.2729    0.3753  -14.0376 C   0  0  0  0  0  0  0  0  0  0  0  0
   19.6612    1.0994  -13.0961 O   0  0  0  0  0  0  0  0  0  0  0  0
   21.7246   -1.2555  -14.3680 C   0  0  0  0  0  0  0  0  0  0  0  0
   22.4069   -2.1328  -13.5458 O   0  0  0  0  0  0  0  0  0  0  0  0
   18.7275    1.0047  -15.1801 O   0  0  0  0  0  0  0  0  0  0  0  0
   22.2418   -0.1514  -14.5959 O   0  0  0  0  0  0  0  0  0  0  0  0
  2  3  1  0
  2  1  1  0
  3  5  1  0
  4  3  2  0
  5  6  1  0
  6  7  1  6
  6 13  1  0
  8  9  2  0
  8  7  1  0
 10  9  1  0
 11 12  2  0
 11 10  1  0
 12  8  1  0
 13 14  2  0
 13 15  1  0
 15 16  1  0
 16 17  1  1
 17 18  1  0
 18 22  1  0
 19 18  2  0
 20 21  1  0
 20 16  1  0
 23 20  2  0
M  END
$$$$
