GHD.pdb
     RDKit          3D

 23 23  0  0  1  0  0  0  0  0999 V2000
   24.5725  -12.7057  -17.7812 N   0  0  0  0  0  0  0  0  0  0  0  0
   24.1881  -12.2122  -16.4792 C   0  0  0  0  0  0  0  0  0  0  0  0
   23.1429  -11.1607  -16.5627 C   0  0  0  0  0  0  0  0  0  0  0  0
   22.7326  -10.8962  -17.7435 O   0  0  0  0  0  0  0  0  0  0  0  0
   22.6501  -10.5129  -15.4252 N   0  0  0  0  0  0  0  0  0  0  0  0
   21.5763   -9.5253  -15.5176 C   0  0  1  0  0  0  0  0  0  0  0  0
   20.4162   -9.8845  -14.6752 C   0  0  0  0  0  0  0  0  0  0  0  0
   19.4895  -10.8952  -15.2290 C   0  0  0  0  0  0  0  0  0  0  0  0
   19.5730  -11.5861  -16.3982 C   0  0  0  0  0  0  0  0  0  0  0  0
   18.5271  -12.4659  -16.4566 N   0  0  0  0  0  0  0  0  0  0  0  0
   17.8387  -12.2922  -15.3306 C   0  0  0  0  0  0  0  0  0  0  0  0
   18.3815  -11.3631  -14.5706 N   0  0  0  0  0  0  0  0  0  0  0  0
   22.1515   -8.2536  -14.9132 C   0  0  0  0  0  0  0  0  0  0  0  0
   22.8913   -8.2375  -13.9216 O   0  0  0  0  0  0  0  0  0  0  0  0
   21.8428   -6.9912  -15.4943 N   0  0  0  0  0  0  0  0  0  0  0  0
   22.3824   -5.7278  -14.9906 C   0  0  1  0  0  0  0  0  0  0  0  0
   22.0355   -4.7017  -16.0434 C   0  0  0  0  0  0  0  0  0  0  0  0
   22.3506   -3.3197  -15.6971 C   0  0  0  0  0  0  0  0  0  0  0  0
   23.1663   -2.9546  -14.8236 O   0  0  0  0  0  0  0  0  0  0  0  0
   21.6329   -5.3963  -13.7613 C   0  0  0  0  0  0  0  0  0  0  0  0
   22.2081   -4.5481  -12.8335 O   0  0  0  0  0  0  0  0  0  0  0  0
   21.6629   -2.3212  -16.4243 O   0  0  0  0  0  0  0  0  0  0  0  0
   20.5026   -5.8446  -13.5163 O   0  0  0  0  0  0  0  0  0  0  0  0
  2  3  1  0
  2  1  1  0
  3  5  1  0
  4  3  2  0
  5  6  1  0
  6  7  1  1
  6 13  1  0
  8  9  2  0
  8  7  1  0
 10  9  1  0
 11 12  2  0
 11 10  1  0
 12  8  1  0
 13 14  2  0
 13 15  1  0
 15 16  1  0
 16 17  1  6
 17 18  1  0
 18 22  1  0
 19 18  2  0
 20 21  1  0
 20 16  1  0
 23 20  2  0
M  END
$$$$
