GHD.pdb
     RDKit          3D

 23 23  0  0  1  0  0  0  0  0999 V2000
   22.9260  -11.1579  -20.2033 N   0  0  0  0  0  0  0  0  0  0  0  0
   21.9303  -10.1769  -20.5678 C   0  0  0  0  0  0  0  0  0  0  0  0
   21.1708   -9.6829  -19.3914 C   0  0  0  0  0  0  0  0  0  0  0  0
   20.0502   -9.1316  -19.6616 O   0  0  0  0  0  0  0  0  0  0  0  0
   21.6557   -9.8162  -18.0862 N   0  0  0  0  0  0  0  0  0  0  0  0
   20.9072   -9.3022  -16.9405 C   0  0  1  0  0  0  0  0  0  0  0  0
   20.8097  -10.2944  -15.8493 C   0  0  0  0  0  0  0  0  0  0  0  0
   19.7352  -11.3031  -15.9722 C   0  0  0  0  0  0  0  0  0  0  0  0
   18.8294  -11.4739  -16.9730 C   0  0  0  0  0  0  0  0  0  0  0  0
   18.0761  -12.5802  -16.6907 N   0  0  0  0  0  0  0  0  0  0  0  0
   18.5382  -13.0534  -15.5355 C   0  0  0  0  0  0  0  0  0  0  0  0
   19.5296  -12.3187  -15.0742 N   0  0  0  0  0  0  0  0  0  0  0  0
   21.7515   -8.1622  -16.3919 C   0  0  0  0  0  0  0  0  0  0  0  0
   22.9887   -8.1664  -16.3816 O   0  0  0  0  0  0  0  0  0  0  0  0
   21.1171   -7.0082  -15.8511 N   0  0  0  0  0  0  0  0  0  0  0  0
   21.8591   -5.8843  -15.2789 C   0  0  1  0  0  0  0  0  0  0  0  0
   21.2123   -4.6479  -15.8572 C   0  0  0  0  0  0  0  0  0  0  0  0
   21.7098   -3.3796  -15.3346 C   0  0  0  0  0  0  0  0  0  0  0  0
   22.8863   -3.1467  -14.9836 O   0  0  0  0  0  0  0  0  0  0  0  0
   21.6082   -5.8961  -13.8231 C   0  0  0  0  0  0  0  0  0  0  0  0
   22.3742   -5.0875  -13.0042 O   0  0  0  0  0  0  0  0  0  0  0  0
   20.7630   -2.3355  -15.2232 O   0  0  0  0  0  0  0  0  0  0  0  0
   20.7368   -6.6013  -13.2923 O   0  0  0  0  0  0  0  0  0  0  0  0
  2  3  1  0
  2  1  1  0
  3  5  1  0
  4  3  2  0
  5  6  1  0
  6  7  1  1
  6 13  1  0
  8  9  2  0
  8  7  1  0
 10  9  1  0
 11 12  2  0
 11 10  1  0
 12  8  1  0
 13 14  2  0
 13 15  1  0
 15 16  1  0
 16 17  1  6
 17 18  1  0
 18 22  1  0
 19 18  2  0
 20 21  1  0
 20 16  1  0
 23 20  2  0
M  END
$$$$
