GHD.pdb
     RDKit          3D

 23 23  0  0  1  0  0  0  0  0999 V2000
   27.4058  -15.4488  -15.7733 N   0  0  0  0  0  0  0  0  0  0  0  0
   26.5749  -14.3305  -15.3923 C   0  0  0  0  0  0  0  0  0  0  0  0
   25.2245  -14.3986  -16.0061 C   0  0  0  0  0  0  0  0  0  0  0  0
   25.1736  -14.9820  -17.1418 O   0  0  0  0  0  0  0  0  0  0  0  0
   24.0965  -13.8601  -15.3786 N   0  0  0  0  0  0  0  0  0  0  0  0
   22.7572  -14.0404  -15.9359 C   0  0  1  0  0  0  0  0  0  0  0  0
   21.9278  -14.9431  -15.1100 C   0  0  0  0  0  0  0  0  0  0  0  0
   22.1339  -16.3935  -15.3121 C   0  0  0  0  0  0  0  0  0  0  0  0
   23.0504  -17.0294  -16.0913 C   0  0  0  0  0  0  0  0  0  0  0  0
   22.9133  -18.3779  -15.9078 N   0  0  0  0  0  0  0  0  0  0  0  0
   21.9263  -18.5297  -15.0274 C   0  0  0  0  0  0  0  0  0  0  0  0
   21.4350  -17.3681  -14.6472 N   0  0  0  0  0  0  0  0  0  0  0  0
   22.0998  -12.6718  -15.8445 C   0  0  0  0  0  0  0  0  0  0  0  0
   22.4337  -11.8020  -15.0303 O   0  0  0  0  0  0  0  0  0  0  0  0
   21.0365  -12.3367  -16.7296 N   0  0  0  0  0  0  0  0  0  0  0  0
   20.3854  -11.0263  -16.7344 C   0  0  1  0  0  0  0  0  0  0  0  0
   19.5257  -11.0163  -17.9763 C   0  0  0  0  0  0  0  0  0  0  0  0
   18.8089   -9.7708  -18.2303 C   0  0  0  0  0  0  0  0  0  0  0  0
   18.8675   -8.7394  -17.5273 O   0  0  0  0  0  0  0  0  0  0  0  0
   19.4933  -10.9818  -15.5575 C   0  0  0  0  0  0  0  0  0  0  0  0
   19.4154   -9.8157  -14.8190 O   0  0  0  0  0  0  0  0  0  0  0  0
   17.9814   -9.7490  -19.3764 O   0  0  0  0  0  0  0  0  0  0  0  0
   18.8037  -11.9466  -15.1943 O   0  0  0  0  0  0  0  0  0  0  0  0
  2  3  1  0
  2  1  1  0
  3  5  1  0
  4  3  2  0
  5  6  1  0
  6  7  1  1
  6 13  1  0
  8  9  2  0
  8  7  1  0
 10  9  1  0
 11 12  2  0
 11 10  1  0
 12  8  1  0
 13 14  2  0
 13 15  1  0
 15 16  1  0
 16 17  1  6
 17 18  1  0
 18 22  1  0
 19 18  2  0
 20 21  1  0
 20 16  1  0
 23 20  2  0
M  END
$$$$
