QAI.pdb
     RDKit          3D

 23 22  0  0  1  0  0  0  0  0999 V2000
   18.7920  -20.8186  -14.6097 N   0  0  0  0  0  0  0  0  0  0  0  0
   18.7222  -22.0772  -13.9131 C   0  0  0  0  0  0  0  0  0  0  0  0
   17.5689  -22.5640  -13.8174 O   0  0  0  0  0  0  0  0  0  0  0  0
   19.9129  -22.7294  -13.3645 C   0  0  0  0  0  0  0  0  0  0  0  0
   21.1912  -21.9596  -13.5244 C   0  0  0  0  0  0  0  0  0  0  0  0
   21.5721  -21.1736  -12.2961 C   0  0  2  0  0  0  0  0  0  0  0  0
   20.6495  -20.0848  -12.0435 N   0  0  0  0  0  0  0  0  0  0  0  0
   22.9770  -20.7017  -12.3754 C   0  0  0  0  0  0  0  0  0  0  0  0
   23.2018  -19.7022  -13.1010 O   0  0  0  0  0  0  0  0  0  0  0  0
   26.3640  -21.5430  -10.8902 C   0  0  0  0  0  0  0  0  0  0  0  0
   25.4281  -20.9188  -11.8938 C   0  0  2  0  0  0  0  0  0  0  0  0
   24.0598  -21.2889  -11.7029 N   0  0  0  0  0  0  0  0  0  0  0  0
   25.8849  -21.1521  -13.2927 C   0  0  0  0  0  0  0  0  0  0  0  0
   25.3994  -22.1337  -13.9030 O   0  0  0  0  0  0  0  0  0  0  0  0
   25.8365  -18.7516  -18.3393 C   0  0  0  0  0  0  0  0  0  0  0  0
   27.0487  -19.2647  -17.5636 C   0  0  0  0  0  0  0  0  0  0  0  0
   26.8335  -19.1404  -16.0823 C   0  0  2  0  0  0  0  0  0  0  0  0
   27.6161  -17.9790  -15.5046 C   0  0  0  0  0  0  0  0  0  0  0  0
   27.0941  -20.4242  -15.3958 C   0  0  2  0  0  0  0  0  0  0  0  0
   26.8213  -20.3349  -13.9508 N   0  0  0  0  0  0  0  0  0  0  0  0
   28.4135  -21.0127  -15.5950 C   0  0  0  0  0  0  0  0  0  0  0  0
   28.5875  -22.0837  -16.5051 O   0  0  0  0  0  0  0  0  0  0  0  0
   29.4451  -20.6252  -14.9966 O   0  0  0  0  0  0  0  0  0  0  0  0
  2  1  1  0
  3  2  2  0
  4  2  1  0
  5  6  1  0
  5  4  1  0
  6  7  1  6
  8  9  2  0
  8  6  1  0
 11 10  1  1
 11 13  1  0
 11 12  1  0
 12  8  1  0
 13 20  1  0
 14 13  2  0
 16 15  1  0
 17 19  1  0
 17 16  1  0
 17 18  1  1
 19 21  1  0
 19 20  1  1
 21 23  2  0
 21 22  1  0
M  END
$$$$
