QAI.pdb
     RDKit          3D

 23 22  0  0  1  0  0  0  0  0999 V2000
   26.2125  -18.2126  -19.5371 N   0  0  0  0  0  0  0  0  0  0  0  0
   27.1832  -19.1081  -20.1115 C   0  0  0  0  0  0  0  0  0  0  0  0
   27.5819  -18.7887  -21.2583 O   0  0  0  0  0  0  0  0  0  0  0  0
   27.6612  -20.2960  -19.4014 C   0  0  0  0  0  0  0  0  0  0  0  0
   26.9942  -20.5613  -18.0834 C   0  0  0  0  0  0  0  0  0  0  0  0
   27.3237  -19.5344  -17.0305 C   0  0  2  0  0  0  0  0  0  0  0  0
   28.5499  -18.8238  -17.3334 N   0  0  0  0  0  0  0  0  0  0  0  0
   27.3570  -20.1445  -15.6779 C   0  0  0  0  0  0  0  0  0  0  0  0
   26.3752  -20.8544  -15.3491 O   0  0  0  0  0  0  0  0  0  0  0  0
   29.6722  -20.2740  -12.6705 C   0  0  0  0  0  0  0  0  0  0  0  0
   28.3861  -20.5101  -13.4208 C   0  0  2  0  0  0  0  0  0  0  0  0
   28.3985  -19.9846  -14.7510 N   0  0  0  0  0  0  0  0  0  0  0  0
   27.2019  -20.0478  -12.6436 C   0  0  0  0  0  0  0  0  0  0  0  0
   26.9681  -18.8162  -12.6244 O   0  0  0  0  0  0  0  0  0  0  0  0
   22.2843  -22.5160  -12.4474 C   0  0  0  0  0  0  0  0  0  0  0  0
   23.6144  -22.2120  -11.7599 C   0  0  0  0  0  0  0  0  0  0  0  0
   23.9141  -20.7405  -11.7912 C   0  0  2  0  0  0  0  0  0  0  0  0
   23.8112  -20.1841  -13.1965 C   0  0  0  0  0  0  0  0  0  0  0  0
   25.2064  -20.4453  -11.1353 C   0  0  2  0  0  0  0  0  0  0  0  0
   26.3467  -20.9153  -11.9410 N   0  0  0  0  0  0  0  0  0  0  0  0
   25.3644  -20.9200   -9.7654 C   0  0  0  0  0  0  0  0  0  0  0  0
   26.3955  -21.8353   -9.4415 O   0  0  0  0  0  0  0  0  0  0  0  0
   24.6260  -20.5638   -8.8166 O   0  0  0  0  0  0  0  0  0  0  0  0
  2  1  1  0
  3  2  2  0
  4  2  1  0
  5  6  1  0
  5  4  1  0
  6  7  1  6
  8  9  2  0
  8  6  1  0
 11 10  1  1
 11 13  1  0
 11 12  1  0
 12  8  1  0
 13 20  1  0
 14 13  2  0
 16 15  1  0
 17 19  1  0
 17 16  1  0
 17 18  1  6
 19 21  1  0
 19 20  1  6
 21 23  2  0
 21 22  1  0
M  END
$$$$
