QAI.pdb
     RDKit          3D

 23 22  0  0  1  0  0  0  0  0999 V2000
   18.7186  -16.8785  -16.8170 N   0  0  0  0  0  0  0  0  0  0  0  0
   17.2860  -16.8643  -16.9645 C   0  0  0  0  0  0  0  0  0  0  0  0
   16.7339  -17.9871  -16.8613 O   0  0  0  0  0  0  0  0  0  0  0  0
   16.5422  -15.6280  -17.2140 C   0  0  0  0  0  0  0  0  0  0  0  0
   17.3852  -14.3935  -17.3464 C   0  0  0  0  0  0  0  0  0  0  0  0
   17.2369  -13.4424  -16.1866 C   0  0  2  0  0  0  0  0  0  0  0  0
   15.8541  -13.3024  -15.7758 N   0  0  0  0  0  0  0  0  0  0  0  0
   17.8611  -12.1296  -16.4860 C   0  0  0  0  0  0  0  0  0  0  0  0
   19.0629  -12.1401  -16.8489 O   0  0  0  0  0  0  0  0  0  0  0  0
   16.8506   -8.4839  -16.7293 C   0  0  0  0  0  0  0  0  0  0  0  0
   17.8294   -9.6275  -16.6458 C   0  0  2  0  0  0  0  0  0  0  0  0
   17.2083  -10.8908  -16.3926 N   0  0  0  0  0  0  0  0  0  0  0  0
   18.9325   -9.3398  -15.6864 C   0  0  0  0  0  0  0  0  0  0  0  0
   18.7108   -9.5513  -14.4706 O   0  0  0  0  0  0  0  0  0  0  0  0
   23.5079  -11.5971  -15.7391 C   0  0  0  0  0  0  0  0  0  0  0  0
   22.2197  -10.8014  -15.5347 C   0  0  0  0  0  0  0  0  0  0  0  0
   22.5034   -9.3291  -15.4444 C   0  0  2  0  0  0  0  0  0  0  0  0
   23.6563   -9.0439  -14.5039 C   0  0  0  0  0  0  0  0  0  0  0  0
   21.2774   -8.5687  -15.1190 C   0  0  2  0  0  0  0  0  0  0  0  0
   20.1919   -8.8493  -16.0748 N   0  0  0  0  0  0  0  0  0  0  0  0
   21.4253   -7.1247  -14.9783 C   0  0  0  0  0  0  0  0  0  0  0  0
   21.7426   -6.5588  -13.7195 O   0  0  0  0  0  0  0  0  0  0  0  0
   21.2867   -6.3160  -15.9266 O   0  0  0  0  0  0  0  0  0  0  0  0
  2  1  1  0
  3  2  2  0
  4  2  1  0
  5  6  1  0
  5  4  1  0
  6  7  1  6
  8  9  2  0
  8  6  1  0
 11 10  1  1
 11 13  1  0
 11 12  1  0
 12  8  1  0
 13 20  1  0
 14 13  2  0
 16 15  1  0
 17 19  1  0
 17 16  1  0
 17 18  1  1
 19 21  1  0
 19 20  1  6
 21 23  2  0
 21 22  1  0
M  END
$$$$
