QAI.pdb
     RDKit          3D

 23 22  0  0  1  0  0  0  0  0999 V2000
   27.3628  -22.4872  -15.4478 N   0  0  0  0  0  0  0  0  0  0  0  0
   28.1877  -21.5957  -16.2216 C   0  0  0  0  0  0  0  0  0  0  0  0
   29.1505  -22.1455  -16.8105 O   0  0  0  0  0  0  0  0  0  0  0  0
   27.9128  -20.1601  -16.3078 C   0  0  0  0  0  0  0  0  0  0  0  0
   26.7264  -19.6904  -15.5178 C   0  0  0  0  0  0  0  0  0  0  0  0
   25.4326  -20.3355  -15.9439 C   0  0  2  0  0  0  0  0  0  0  0  0
   25.2365  -20.2584  -17.3777 N   0  0  0  0  0  0  0  0  0  0  0  0
   24.2806  -19.7722  -15.1965 C   0  0  0  0  0  0  0  0  0  0  0  0
   24.4022  -19.6762  -13.9507 O   0  0  0  0  0  0  0  0  0  0  0  0
   20.8857  -18.2464  -15.9337 C   0  0  0  0  0  0  0  0  0  0  0  0
   21.9711  -18.8067  -15.0501 C   0  0  2  0  0  0  0  0  0  0  0  0
   23.0780  -19.3441  -15.7795 N   0  0  0  0  0  0  0  0  0  0  0  0
   21.4279  -19.7750  -14.0565 C   0  0  0  0  0  0  0  0  0  0  0  0
   21.2545  -20.9571  -14.4367 O   0  0  0  0  0  0  0  0  0  0  0  0
   23.4536  -20.1092   -9.2469 C   0  0  0  0  0  0  0  0  0  0  0  0
   22.7583  -20.3017  -10.5937 C   0  0  0  0  0  0  0  0  0  0  0  0
   21.2646  -20.2632  -10.4402 C   0  0  2  0  0  0  0  0  0  0  0  0
   20.7877  -21.2659   -9.4097 C   0  0  0  0  0  0  0  0  0  0  0  0
   20.5902  -20.3999  -11.7494 C   0  0  2  0  0  0  0  0  0  0  0  0
   21.1052  -19.4304  -12.7318 N   0  0  0  0  0  0  0  0  0  0  0  0
   19.1331  -20.3390  -11.7404 C   0  0  0  0  0  0  0  0  0  0  0  0
   18.3693  -21.5290  -11.6634 O   0  0  0  0  0  0  0  0  0  0  0  0
   18.4816  -19.2691  -11.7981 O   0  0  0  0  0  0  0  0  0  0  0  0
  2  1  1  0
  3  2  2  0
  4  2  1  0
  5  6  1  0
  5  4  1  0
  6  7  1  6
  8  9  2  0
  8  6  1  0
 11 10  1  6
 11 13  1  0
 11 12  1  0
 12  8  1  0
 13 20  1  0
 14 13  2  0
 16 15  1  0
 17 19  1  0
 17 16  1  0
 17 18  1  1
 19 21  1  0
 19 20  1  6
 21 23  2  0
 21 22  1  0
M  END
$$$$
