QAI.pdb
     RDKit          3D

 23 22  0  0  1  0  0  0  0  0999 V2000
   19.2227  -19.9395  -14.9159 N   0  0  0  0  0  0  0  0  0  0  0  0
   19.1934  -20.2105  -16.3301 C   0  0  0  0  0  0  0  0  0  0  0  0
   18.8606  -21.3816  -16.6361 O   0  0  0  0  0  0  0  0  0  0  0  0
   19.5273  -19.1889  -17.3246 C   0  0  0  0  0  0  0  0  0  0  0  0
   19.8313  -17.8302  -16.7644 C   0  0  0  0  0  0  0  0  0  0  0  0
   21.2927  -17.4684  -16.8367 C   0  0  2  0  0  0  0  0  0  0  0  0
   22.1045  -18.3275  -15.9980 N   0  0  0  0  0  0  0  0  0  0  0  0
   21.5058  -16.0323  -16.5284 C   0  0  0  0  0  0  0  0  0  0  0  0
   21.3390  -15.6750  -15.3366 O   0  0  0  0  0  0  0  0  0  0  0  0
   23.2757  -13.0731  -17.8443 C   0  0  0  0  0  0  0  0  0  0  0  0
   22.0733  -13.6733  -17.1611 C   0  0  2  0  0  0  0  0  0  0  0  0
   21.8767  -15.0568  -17.4666 N   0  0  0  0  0  0  0  0  0  0  0  0
   20.8446  -12.8643  -17.3969 C   0  0  0  0  0  0  0  0  0  0  0  0
   20.1682  -13.1253  -18.4198 O   0  0  0  0  0  0  0  0  0  0  0  0
   16.4763  -12.8058  -14.8367 C   0  0  0  0  0  0  0  0  0  0  0  0
   17.4333  -12.5125  -15.9911 C   0  0  0  0  0  0  0  0  0  0  0  0
   18.1789  -11.2290  -15.7610 C   0  0  2  0  0  0  0  0  0  0  0  0
   17.2309  -10.0566  -15.6136 C   0  0  0  0  0  0  0  0  0  0  0  0
   19.2147  -11.0210  -16.7959 C   0  0  2  0  0  0  0  0  0  0  0  0
   20.4142  -11.8368  -16.5385 N   0  0  0  0  0  0  0  0  0  0  0  0
   19.6214   -9.6423  -17.0419 C   0  0  0  0  0  0  0  0  0  0  0  0
   20.7539   -9.1037  -16.3838 O   0  0  0  0  0  0  0  0  0  0  0  0
   19.0188   -8.8686  -17.8234 O   0  0  0  0  0  0  0  0  0  0  0  0
  2  1  1  0
  3  2  2  0
  4  2  1  0
  5  6  1  0
  5  4  1  0
  6  7  1  1
  8  9  2  0
  8  6  1  0
 11 10  1  6
 11 13  1  0
 11 12  1  0
 12  8  1  0
 13 20  1  0
 14 13  2  0
 16 15  1  0
 17 19  1  0
 17 16  1  0
 17 18  1  6
 19 21  1  0
 19 20  1  1
 21 23  2  0
 21 22  1  0
M  END
$$$$
