QAI.pdb
     RDKit          3D

 23 22  0  0  1  0  0  0  0  0999 V2000
   17.9536  -10.4436  -20.3848 N   0  0  0  0  0  0  0  0  0  0  0  0
   18.0848  -11.8758  -20.3095 C   0  0  0  0  0  0  0  0  0  0  0  0
   17.5476  -12.5051  -21.2536 O   0  0  0  0  0  0  0  0  0  0  0  0
   18.7943  -12.5349  -19.2112 C   0  0  0  0  0  0  0  0  0  0  0  0
   19.3433  -11.6118  -18.1630 C   0  0  0  0  0  0  0  0  0  0  0  0
   20.0155  -12.3349  -17.0241 C   0  0  2  0  0  0  0  0  0  0  0  0
   19.1213  -13.2743  -16.3773 N   0  0  0  0  0  0  0  0  0  0  0  0
   20.6078  -11.3782  -16.0562 C   0  0  0  0  0  0  0  0  0  0  0  0
   19.8092  -10.6831  -15.3815 O   0  0  0  0  0  0  0  0  0  0  0  0
   23.9930  -10.4593  -14.6412 C   0  0  0  0  0  0  0  0  0  0  0  0
   22.5476  -10.2045  -14.9853 C   0  0  2  0  0  0  0  0  0  0  0  0
   21.9835  -11.1986  -15.8453 N   0  0  0  0  0  0  0  0  0  0  0  0
   22.3405   -8.8246  -15.5078 C   0  0  0  0  0  0  0  0  0  0  0  0
   22.5133   -8.6395  -16.7357 O   0  0  0  0  0  0  0  0  0  0  0  0
   18.9567   -4.4711  -16.8677 C   0  0  0  0  0  0  0  0  0  0  0  0
   20.3270   -4.6992  -16.2316 C   0  0  0  0  0  0  0  0  0  0  0  0
   20.4665   -6.1126  -15.7427 C   0  0  2  0  0  0  0  0  0  0  0  0
   19.3647   -6.4724  -14.7673 C   0  0  0  0  0  0  0  0  0  0  0  0
   21.8248   -6.3624  -15.2136 C   0  0  2  0  0  0  0  0  0  0  0  0
   21.9658   -7.7360  -14.7001 N   0  0  0  0  0  0  0  0  0  0  0  0
   22.3137   -5.4264  -14.2077 C   0  0  0  0  0  0  0  0  0  0  0  0
   22.3978   -5.8179  -12.8492 O   0  0  0  0  0  0  0  0  0  0  0  0
   22.6792   -4.2553  -14.4671 O   0  0  0  0  0  0  0  0  0  0  0  0
  2  1  1  0
  3  2  2  0
  4  2  1  0
  5  6  1  0
  5  4  1  0
  6  7  1  1
  8  9  2  0
  8  6  1  0
 11 10  1  6
 11 13  1  0
 11 12  1  0
 12  8  1  0
 13 20  1  0
 14 13  2  0
 16 15  1  0
 17 19  1  0
 17 16  1  0
 17 18  1  1
 19 21  1  0
 19 20  1  1
 21 23  2  0
 21 22  1  0
M  END
$$$$
