VAL.pdb
     RDKit          3D

 21 20  0  0  1  0  0  0  0  0999 V2000
   14.7330  -14.4640  -15.5334 C   0  0  0  0  0  0  0  0  0  0  0  0
   15.9266  -13.5310  -15.7551 C   0  0  2  0  0  0  0  0  0  0  0  0
   15.9666  -12.5759  -14.5822 C   0  0  0  0  0  0  0  0  0  0  0  0
   15.6875  -12.8209  -17.0574 C   0  0  2  0  0  0  0  0  0  0  0  0
   15.6484  -13.8197  -18.1095 N   0  0  0  0  0  0  0  0  0  0  0  0
   16.7846  -11.8656  -17.3593 C   0  0  0  0  0  0  0  0  0  0  0  0
   17.9241  -12.3055  -17.6652 O   0  0  0  0  0  0  0  0  0  0  0  0
   16.9738   -8.1675  -17.8491 C   0  0  0  0  0  0  0  0  0  0  0  0
   17.6062   -9.4997  -17.5949 C   0  0  2  0  0  0  0  0  0  0  0  0
   16.5773  -10.4530  -17.3108 N   0  0  0  0  0  0  0  0  0  0  0  0
   18.5269   -9.4026  -16.4072 C   0  0  0  0  0  0  0  0  0  0  0  0
   18.0411   -9.4905  -15.2341 O   0  0  0  0  0  0  0  0  0  0  0  0
   22.7805  -10.5464  -13.1950 C   0  0  0  0  0  0  0  0  0  0  0  0
   23.0360   -9.7696  -14.4591 C   0  0  1  0  0  0  0  0  0  0  0  0
   24.3457  -10.3608  -15.0221 C   0  0  0  0  0  0  0  0  0  0  0  0
   22.0340   -9.8900  -15.5294 C   0  0  0  0  0  0  0  0  0  0  0  0
   20.7729   -9.1229  -15.4324 C   0  0  2  0  0  0  0  0  0  0  0  0
   19.9221   -9.2154  -16.5727 N   0  0  0  0  0  0  0  0  0  0  0  0
   21.0370   -7.7034  -15.1327 C   0  0  0  0  0  0  0  0  0  0  0  0
   21.1347   -7.3195  -13.8044 O   0  0  0  0  0  0  0  0  0  0  0  0
   21.1807   -6.8012  -16.0060 O   0  0  0  0  0  0  0  0  0  0  0  0
  2  1  1  1
  2  4  1  0
  3  2  1  0
  4  5  1  6
  6  4  1  0
  6 10  1  0
  7  6  2  0
  9 10  1  0
  9  8  1  1
  9 11  1  0
 11 18  1  0
 12 11  2  0
 14 15  1  6
 14 13  1  0
 16 14  1  0
 17 16  1  6
 18 17  1  0
 19 20  1  0
 19 17  1  0
 21 19  2  0
M  END
$$$$
