VAL.pdb
     RDKit          3D

 21 20  0  0  1  0  0  0  0  0999 V2000
   32.3534  -10.3220  -17.4366 C   0  0  0  0  0  0  0  0  0  0  0  0
   33.5610  -11.1723  -17.0328 C   0  0  2  0  0  0  0  0  0  0  0  0
   34.3558  -10.3654  -16.0296 C   0  0  0  0  0  0  0  0  0  0  0  0
   34.3407  -11.4442  -18.2880 C   0  0  2  0  0  0  0  0  0  0  0  0
   34.7156  -10.1669  -18.8658 N   0  0  0  0  0  0  0  0  0  0  0  0
   33.5210  -12.1848  -19.2815 C   0  0  0  0  0  0  0  0  0  0  0  0
   32.8115  -11.5448  -20.1016 O   0  0  0  0  0  0  0  0  0  0  0  0
   33.2524  -15.7597  -20.3244 C   0  0  0  0  0  0  0  0  0  0  0  0
   32.7172  -14.3643  -20.2468 C   0  0  2  0  0  0  0  0  0  0  0  0
   33.5179  -13.6126  -19.3292 N   0  0  0  0  0  0  0  0  0  0  0  0
   31.2969  -14.3960  -19.7472 C   0  0  0  0  0  0  0  0  0  0  0  0
   31.0786  -14.4353  -18.4940 O   0  0  0  0  0  0  0  0  0  0  0  0
   25.7295  -14.1431  -20.8648 C   0  0  0  0  0  0  0  0  0  0  0  0
   26.6337  -13.1441  -20.1931 C   0  0  1  0  0  0  0  0  0  0  0  0
   26.5454  -13.4866  -18.6909 C   0  0  0  0  0  0  0  0  0  0  0  0
   28.0611  -13.1944  -20.5457 C   0  0  0  0  0  0  0  0  0  0  0  0
   28.8656  -14.3705  -20.1483 C   0  0  2  0  0  0  0  0  0  0  0  0
   30.2014  -14.3827  -20.6464 N   0  0  0  0  0  0  0  0  0  0  0  0
   28.1912  -15.6266  -20.5250 C   0  0  0  0  0  0  0  0  0  0  0  0
   27.2823  -16.1768  -19.6349 O   0  0  0  0  0  0  0  0  0  0  0  0
   28.3837  -16.2460  -21.6097 O   0  0  0  0  0  0  0  0  0  0  0  0
  2  1  1  6
  2  4  1  0
  3  2  1  0
  4  5  1  6
  6  4  1  0
  6 10  1  0
  7  6  2  0
  9 10  1  0
  9  8  1  1
  9 11  1  0
 11 18  1  0
 12 11  2  0
 14 15  1  1
 14 13  1  0
 16 14  1  0
 17 16  1  6
 18 17  1  0
 19 20  1  0
 19 17  1  0
 21 19  2  0
M  END
$$$$
