VAL.pdb
     RDKit          3D

 21 20  0  0  1  0  0  0  0  0999 V2000
   25.9530  -17.2931  -19.4263 C   0  0  0  0  0  0  0  0  0  0  0  0
   27.0624  -16.6081  -18.6236 C   0  0  2  0  0  0  0  0  0  0  0  0
   27.8771  -15.7905  -19.6019 C   0  0  0  0  0  0  0  0  0  0  0  0
   27.8727  -17.6990  -17.9827 C   0  0  2  0  0  0  0  0  0  0  0  0
   28.3857  -18.5525  -19.0383 N   0  0  0  0  0  0  0  0  0  0  0  0
   27.0378  -18.5275  -17.0750 C   0  0  0  0  0  0  0  0  0  0  0  0
   26.1763  -19.3062  -17.5620 O   0  0  0  0  0  0  0  0  0  0  0  0
   26.8557  -18.9614  -13.3516 C   0  0  0  0  0  0  0  0  0  0  0  0
   26.3600  -19.1904  -14.7449 C   0  0  2  0  0  0  0  0  0  0  0  0
   27.1892  -18.4620  -15.6560 N   0  0  0  0  0  0  0  0  0  0  0  0
   24.9438  -18.6923  -14.8647 C   0  0  0  0  0  0  0  0  0  0  0  0
   24.7360  -17.4678  -15.1426 O   0  0  0  0  0  0  0  0  0  0  0  0
   20.6863  -16.5344  -16.3006 C   0  0  0  0  0  0  0  0  0  0  0  0
   20.9233  -17.9996  -16.5533 C   0  0  1  0  0  0  0  0  0  0  0  0
   20.7475  -18.1658  -18.0775 C   0  0  0  0  0  0  0  0  0  0  0  0
   22.2595  -18.5239  -16.2313 C   0  0  0  0  0  0  0  0  0  0  0  0
   22.5121  -19.0914  -14.8887 C   0  0  2  0  0  0  0  0  0  0  0  0
   23.8408  -19.5616  -14.6736 N   0  0  0  0  0  0  0  0  0  0  0  0
   21.5552  -20.1699  -14.5799 C   0  0  0  0  0  0  0  0  0  0  0  0
   20.2184  -19.8379  -14.4254 O   0  0  0  0  0  0  0  0  0  0  0  0
   21.8669  -21.3870  -14.4425 O   0  0  0  0  0  0  0  0  0  0  0  0
  2  1  1  6
  2  4  1  0
  3  2  1  0
  4  5  1  6
  6  4  1  0
  6 10  1  0
  7  6  2  0
  9 10  1  0
  9  8  1  1
  9 11  1  0
 11 18  1  0
 12 11  2  0
 14 15  1  6
 14 13  1  0
 16 14  1  0
 17 16  1  6
 18 17  1  0
 19 20  1  0
 19 17  1  0
 21 19  2  0
M  END
$$$$
