VAL.pdb
     RDKit          3D

 21 20  0  0  1  0  0  0  0  0999 V2000
   15.0057   -6.2424   -7.9858 C   0  0  0  0  0  0  0  0  0  0  0  0
   14.4043   -6.8506   -9.2557 C   0  0  2  0  0  0  0  0  0  0  0  0
   13.6328   -8.0823   -8.8349 C   0  0  0  0  0  0  0  0  0  0  0  0
   15.5532   -7.1835  -10.1648 C   0  0  2  0  0  0  0  0  0  0  0  0
   16.4523   -8.0647   -9.4430 N   0  0  0  0  0  0  0  0  0  0  0  0
   16.3054   -5.9620  -10.5516 C   0  0  0  0  0  0  0  0  0  0  0  0
   17.2962   -5.5994   -9.8643 O   0  0  0  0  0  0  0  0  0  0  0  0
   16.0611   -3.5052  -13.3730 C   0  0  0  0  0  0  0  0  0  0  0  0
   16.5458   -3.9371  -12.0246 C   0  0  2  0  0  0  0  0  0  0  0  0
   15.9300   -5.1849  -11.6900 N   0  0  0  0  0  0  0  0  0  0  0  0
   16.1591   -2.9074  -10.9960 C   0  0  0  0  0  0  0  0  0  0  0  0
   15.0354   -3.0075  -10.4069 O   0  0  0  0  0  0  0  0  0  0  0  0
   15.9427   -0.1943   -6.3664 C   0  0  0  0  0  0  0  0  0  0  0  0
   16.9314    0.1741   -7.4404 C   0  0  1  0  0  0  0  0  0  0  0  0
   18.2422    0.4664   -6.6800 C   0  0  0  0  0  0  0  0  0  0  0  0
   17.2521   -0.8614   -8.4349 C   0  0  0  0  0  0  0  0  0  0  0  0
   16.5988   -0.8204   -9.7614 C   0  0  2  0  0  0  0  0  0  0  0  0
   17.0229   -1.8310  -10.6734 N   0  0  0  0  0  0  0  0  0  0  0  0
   16.7571    0.5040  -10.3903 C   0  0  0  0  0  0  0  0  0  0  0  0
   16.0301    1.5663   -9.8765 O   0  0  0  0  0  0  0  0  0  0  0  0
   17.5130    0.7445  -11.3741 O   0  0  0  0  0  0  0  0  0  0  0  0
  2  1  1  1
  2  4  1  0
  3  2  1  0
  4  5  1  1
  6  4  1  0
  6 10  1  0
  7  6  2  0
  9 10  1  0
  9  8  1  6
  9 11  1  0
 11 18  1  0
 12 11  2  0
 14 15  1  1
 14 13  1  0
 16 14  1  0
 17 16  1  1
 18 17  1  0
 19 20  1  0
 19 17  1  0
 21 19  2  0
M  END
$$$$
