VAL.pdb
     RDKit          3D

 21 20  0  0  1  0  0  0  0  0999 V2000
   18.9893  -14.5658  -16.2986 C   0  0  0  0  0  0  0  0  0  0  0  0
   17.4921  -14.4654  -16.6029 C   0  0  2  0  0  0  0  0  0  0  0  0
   16.9478  -15.8771  -16.6210 C   0  0  0  0  0  0  0  0  0  0  0  0
   17.3642  -13.7906  -17.9393 C   0  0  2  0  0  0  0  0  0  0  0  0
   17.9459  -14.6670  -18.9390 N   0  0  0  0  0  0  0  0  0  0  0  0
   18.0995  -12.4998  -17.9634 C   0  0  0  0  0  0  0  0  0  0  0  0
   19.3309  -12.4916  -18.2265 O   0  0  0  0  0  0  0  0  0  0  0  0
   17.0959   -8.9054  -17.6601 C   0  0  0  0  0  0  0  0  0  0  0  0
   18.1161  -10.0000  -17.6833 C   0  0  2  0  0  0  0  0  0  0  0  0
   17.4402  -11.2615  -17.6939 N   0  0  0  0  0  0  0  0  0  0  0  0
   18.9760   -9.9142  -16.4500 C   0  0  0  0  0  0  0  0  0  0  0  0
   18.5830  -10.4743  -15.3769 O   0  0  0  0  0  0  0  0  0  0  0  0
   22.9793  -10.9127  -13.2423 C   0  0  0  0  0  0  0  0  0  0  0  0
   23.3226  -10.0680  -14.4404 C   0  0  1  0  0  0  0  0  0  0  0  0
   24.5854  -10.7277  -15.0336 C   0  0  0  0  0  0  0  0  0  0  0  0
   22.3322  -10.0186  -15.5270 C   0  0  0  0  0  0  0  0  0  0  0  0
   21.0727   -9.2689  -15.3273 C   0  0  2  0  0  0  0  0  0  0  0  0
   20.2128   -9.2221  -16.4636 N   0  0  0  0  0  0  0  0  0  0  0  0
   21.3406   -7.8965  -14.8593 C   0  0  0  0  0  0  0  0  0  0  0  0
   21.4081   -7.6694  -13.4937 O   0  0  0  0  0  0  0  0  0  0  0  0
   21.5135   -6.9012  -15.6188 O   0  0  0  0  0  0  0  0  0  0  0  0
  2  1  1  6
  2  4  1  0
  3  2  1  0
  4  5  1  6
  6  4  1  0
  6 10  1  0
  7  6  2  0
  9 10  1  0
  9  8  1  1
  9 11  1  0
 11 18  1  0
 12 11  2  0
 14 15  1  6
 14 13  1  0
 16 14  1  0
 17 16  1  6
 18 17  1  0
 19 20  1  0
 19 17  1  0
 21 19  2  0
M  END
$$$$
