VAL.pdb
     RDKit          3D

 21 20  0  0  1  0  0  0  0  0999 V2000
   17.3745  -12.8471  -18.4714 C   0  0  0  0  0  0  0  0  0  0  0  0
   17.5439  -11.4959  -17.7714 C   0  0  2  0  0  0  0  0  0  0  0  0
   17.9125  -10.4875  -18.8374 C   0  0  0  0  0  0  0  0  0  0  0  0
   18.6338  -11.6680  -16.7516 C   0  0  2  0  0  0  0  0  0  0  0  0
   18.2209  -12.7092  -15.8289 N   0  0  0  0  0  0  0  0  0  0  0  0
   18.8512  -10.4174  -15.9795 C   0  0  0  0  0  0  0  0  0  0  0  0
   17.8804   -9.8772  -15.3866 O   0  0  0  0  0  0  0  0  0  0  0  0
   21.8874   -8.4658  -14.9900 C   0  0  0  0  0  0  0  0  0  0  0  0
   20.4061   -8.6417  -15.1094 C   0  0  2  0  0  0  0  0  0  0  0  0
   20.1411   -9.8097  -15.8928 N   0  0  0  0  0  0  0  0  0  0  0  0
   19.8098   -7.4428  -15.7985 C   0  0  0  0  0  0  0  0  0  0  0  0
   19.7525   -7.4199  -17.0696 O   0  0  0  0  0  0  0  0  0  0  0  0
   16.5253   -4.0324  -17.9381 C   0  0  0  0  0  0  0  0  0  0  0  0
   16.7014   -3.9455  -16.4454 C   0  0  1  0  0  0  0  0  0  0  0  0
   15.2652   -3.8516  -15.8882 C   0  0  0  0  0  0  0  0  0  0  0  0
   17.3288   -5.0978  -15.7800 C   0  0  0  0  0  0  0  0  0  0  0  0
   18.8042   -5.1939  -15.7334 C   0  0  2  0  0  0  0  0  0  0  0  0
   19.3121   -6.3418  -15.0574 N   0  0  0  0  0  0  0  0  0  0  0  0
   19.3968   -3.9780  -15.1463 C   0  0  0  0  0  0  0  0  0  0  0  0
   20.0346   -4.0841  -13.9203 O   0  0  0  0  0  0  0  0  0  0  0  0
   19.3647   -2.8341  -15.6828 O   0  0  0  0  0  0  0  0  0  0  0  0
  2  1  1  6
  2  4  1  0
  3  2  1  0
  4  5  1  1
  6  4  1  0
  6 10  1  0
  7  6  2  0
  9 10  1  0
  9  8  1  6
  9 11  1  0
 11 18  1  0
 12 11  2  0
 14 15  1  1
 14 13  1  0
 16 14  1  0
 17 16  1  1
 18 17  1  0
 19 20  1  0
 19 17  1  0
 21 19  2  0
M  END
$$$$
