VAL.pdb
     RDKit          3D

 21 20  0  0  1  0  0  0  0  0999 V2000
   16.3956  -12.0892  -14.8232 C   0  0  0  0  0  0  0  0  0  0  0  0
   15.4075  -11.7183  -15.9324 C   0  0  2  0  0  0  0  0  0  0  0  0
   14.1472  -12.5195  -15.6895 C   0  0  0  0  0  0  0  0  0  0  0  0
   16.0638  -12.0738  -17.2364 C   0  0  2  0  0  0  0  0  0  0  0  0
   16.3275  -13.5008  -17.2285 N   0  0  0  0  0  0  0  0  0  0  0  0
   17.3561  -11.3597  -17.4012 C   0  0  0  0  0  0  0  0  0  0  0  0
   18.4335  -11.9583  -17.1427 O   0  0  0  0  0  0  0  0  0  0  0  0
   18.3461   -8.1223  -18.9653 C   0  0  0  0  0  0  0  0  0  0  0  0
   18.6313   -9.3049  -18.0938 C   0  0  2  0  0  0  0  0  0  0  0  0
   17.4068  -10.0038  -17.8480 N   0  0  0  0  0  0  0  0  0  0  0  0
   19.2019   -8.8378  -16.7807 C   0  0  0  0  0  0  0  0  0  0  0  0
   18.4160   -8.6120  -15.8055 O   0  0  0  0  0  0  0  0  0  0  0  0
   24.1868  -10.5086  -14.7185 C   0  0  0  0  0  0  0  0  0  0  0  0
   22.7482  -10.0914  -14.8709 C   0  0  1  0  0  0  0  0  0  0  0  0
   22.0838  -10.4871  -13.5353 C   0  0  0  0  0  0  0  0  0  0  0  0
   22.4865   -8.6553  -15.0538 C   0  0  0  0  0  0  0  0  0  0  0  0
   21.1122   -8.2015  -15.3599 C   0  0  2  0  0  0  0  0  0  0  0  0
   20.5961   -8.6457  -16.6125 N   0  0  0  0  0  0  0  0  0  0  0  0
   21.0084   -6.7327  -15.2808 C   0  0  0  0  0  0  0  0  0  0  0  0
   21.0975   -6.1339  -14.0340 O   0  0  0  0  0  0  0  0  0  0  0  0
   20.8410   -5.9715  -16.2757 O   0  0  0  0  0  0  0  0  0  0  0  0
  2  1  1  1
  2  4  1  0
  3  2  1  0
  4  5  1  1
  6  4  1  0
  6 10  1  0
  7  6  2  0
  9 10  1  0
  9  8  1  6
  9 11  1  0
 11 18  1  0
 12 11  2  0
 14 15  1  1
 14 13  1  0
 16 14  1  0
 17 16  1  6
 18 17  1  0
 19 20  1  0
 19 17  1  0
 21 19  2  0
M  END
$$$$
