VAL.pdb
     RDKit          3D

 21 20  0  0  1  0  0  0  0  0999 V2000
   22.1532  -17.8144  -12.0859 C   0  0  0  0  0  0  0  0  0  0  0  0
   21.0466  -18.8642  -12.2194 C   0  0  2  0  0  0  0  0  0  0  0  0
   20.5081  -19.1200  -10.8288 C   0  0  0  0  0  0  0  0  0  0  0  0
   21.6788  -20.0890  -12.8175 C   0  0  2  0  0  0  0  0  0  0  0  0
   20.6154  -21.0046  -13.1873 N   0  0  0  0  0  0  0  0  0  0  0  0
   22.5642  -20.7707  -11.8384 C   0  0  0  0  0  0  0  0  0  0  0  0
   22.0544  -21.4336  -10.8969 O   0  0  0  0  0  0  0  0  0  0  0  0
   25.8217  -22.2019  -12.0993 C   0  0  0  0  0  0  0  0  0  0  0  0
   24.8737  -21.5111  -11.1702 C   0  0  2  0  0  0  0  0  0  0  0  0
   23.9870  -20.6923  -11.9394 N   0  0  0  0  0  0  0  0  0  0  0  0
   25.6472  -20.6372  -10.2184 C   0  0  0  0  0  0  0  0  0  0  0  0
   25.8887  -19.4294  -10.5386 O   0  0  0  0  0  0  0  0  0  0  0  0
   27.6757  -19.9797   -4.5172 C   0  0  0  0  0  0  0  0  0  0  0  0
   27.3326  -19.6805   -5.9523 C   0  0  1  0  0  0  0  0  0  0  0  0
   28.4276  -18.6977   -6.4182 C   0  0  0  0  0  0  0  0  0  0  0  0
   27.3624  -20.8101   -6.8942 C   0  0  0  0  0  0  0  0  0  0  0  0
   27.2463  -20.5479   -8.3454 C   0  0  2  0  0  0  0  0  0  0  0  0
   26.1099  -21.1355   -8.9748 N   0  0  0  0  0  0  0  0  0  0  0  0
   28.4689  -20.9609   -9.0588 C   0  0  0  0  0  0  0  0  0  0  0  0
   29.6382  -20.2556   -8.8211 O   0  0  0  0  0  0  0  0  0  0  0  0
   28.5301  -21.9191   -9.8806 O   0  0  0  0  0  0  0  0  0  0  0  0
  2  1  1  1
  2  4  1  0
  3  2  1  0
  4  5  1  1
  6  4  1  0
  6 10  1  0
  7  6  2  0
  9 10  1  0
  9  8  1  6
  9 11  1  0
 11 18  1  0
 12 11  2  0
 14 15  1  6
 14 13  1  0
 16 14  1  0
 17 16  1  1
 18 17  1  0
 19 20  1  0
 19 17  1  0
 21 19  2  0
M  END
$$$$
