VAL.pdb
     RDKit          3D

 21 20  0  0  1  0  0  0  0  0999 V2000
   16.7989  -13.3775  -16.6774 C   0  0  0  0  0  0  0  0  0  0  0  0
   17.5824  -12.0788  -16.4682 C   0  0  2  0  0  0  0  0  0  0  0  0
   17.7136  -11.8760  -14.9745 C   0  0  0  0  0  0  0  0  0  0  0  0
   16.7901  -10.9826  -17.1225 C   0  0  2  0  0  0  0  0  0  0  0  0
   16.6348  -11.3207  -18.5251 N   0  0  0  0  0  0  0  0  0  0  0  0
   17.4967   -9.6789  -17.0305 C   0  0  0  0  0  0  0  0  0  0  0  0
   18.6003   -9.5282  -17.6178 O   0  0  0  0  0  0  0  0  0  0  0  0
   16.6348   -6.3046  -15.6859 C   0  0  0  0  0  0  0  0  0  0  0  0
   17.6266   -7.3349  -16.1268 C   0  0  2  0  0  0  0  0  0  0  0  0
   16.9518   -8.5866  -16.2884 N   0  0  0  0  0  0  0  0  0  0  0  0
   18.6968   -7.4860  -15.0780 C   0  0  0  0  0  0  0  0  0  0  0  0
   18.5857   -8.4033  -14.2029 O   0  0  0  0  0  0  0  0  0  0  0  0
   22.5096   -9.1780  -12.2606 C   0  0  0  0  0  0  0  0  0  0  0  0
   22.7633   -8.5701  -13.6143 C   0  0  1  0  0  0  0  0  0  0  0  0
   23.5024   -9.6711  -14.4039 C   0  0  0  0  0  0  0  0  0  0  0  0
   21.5830   -8.2086  -14.4146 C   0  0  0  0  0  0  0  0  0  0  0  0
   20.9177   -6.9084  -14.1798 C   0  0  2  0  0  0  0  0  0  0  0  0
   19.8231   -6.6262  -15.0487 N   0  0  0  0  0  0  0  0  0  0  0  0
   21.8868   -5.7985  -14.2370 C   0  0  0  0  0  0  0  0  0  0  0  0
   22.5798   -5.4712  -13.0821 O   0  0  0  0  0  0  0  0  0  0  0  0
   22.1339   -5.1153  -15.2712 O   0  0  0  0  0  0  0  0  0  0  0  0
  2  1  1  1
  2  4  1  0
  3  2  1  0
  4  5  1  6
  6  4  1  0
  6 10  1  0
  7  6  2  0
  9 10  1  0
  9  8  1  1
  9 11  1  0
 11 18  1  0
 12 11  2  0
 14 15  1  6
 14 13  1  0
 16 14  1  0
 17 16  1  6
 18 17  1  0
 19 20  1  0
 19 17  1  0
 21 19  2  0
M  END
$$$$
