VAL.pdb
     RDKit          3D

 21 20  0  0  1  0  0  0  0  0999 V2000
   24.2683  -12.5207  -16.0763 C   0  0  0  0  0  0  0  0  0  0  0  0
   23.4076  -11.2548  -16.0436 C   0  0  2  0  0  0  0  0  0  0  0  0
   23.2574  -10.8582  -14.5912 C   0  0  0  0  0  0  0  0  0  0  0  0
   22.0906  -11.6079  -16.6748 C   0  0  2  0  0  0  0  0  0  0  0  0
   22.3545  -12.0887  -18.0183 N   0  0  0  0  0  0  0  0  0  0  0  0
   21.2027  -10.4204  -16.7685 C   0  0  0  0  0  0  0  0  0  0  0  0
   21.5583   -9.4328  -17.4642 O   0  0  0  0  0  0  0  0  0  0  0  0
   17.6550   -9.7444  -15.9639 C   0  0  0  0  0  0  0  0  0  0  0  0
   19.0551   -9.2567  -16.1671 C   0  0  2  0  0  0  0  0  0  0  0  0
   19.9492  -10.3713  -16.0852 N   0  0  0  0  0  0  0  0  0  0  0  0
   19.4057   -8.2660  -15.0885 C   0  0  0  0  0  0  0  0  0  0  0  0
   20.1264   -8.6412  -14.1089 O   0  0  0  0  0  0  0  0  0  0  0  0
   22.1407   -3.5028  -15.4908 C   0  0  0  0  0  0  0  0  0  0  0  0
   22.1000   -4.8273  -14.7762 C   0  0  1  0  0  0  0  0  0  0  0  0
   21.6733   -4.4796  -13.3344 C   0  0  0  0  0  0  0  0  0  0  0  0
   21.1310   -5.8197  -15.2665 C   0  0  0  0  0  0  0  0  0  0  0  0
   19.7763   -5.8651  -14.6742 C   0  0  2  0  0  0  0  0  0  0  0  0
   18.9481   -6.9257  -15.1452 N   0  0  0  0  0  0  0  0  0  0  0  0
   19.0754   -4.5802  -14.8536 C   0  0  0  0  0  0  0  0  0  0  0  0
   19.0387   -3.6972  -13.7858 O   0  0  0  0  0  0  0  0  0  0  0  0
   18.4983   -4.2212  -15.9191 O   0  0  0  0  0  0  0  0  0  0  0  0
  2  1  1  1
  2  4  1  0
  3  2  1  0
  4  5  1  6
  6  4  1  0
  6 10  1  0
  7  6  2  0
  9 10  1  0
  9  8  1  1
  9 11  1  0
 11 18  1  0
 12 11  2  0
 14 15  1  1
 14 13  1  0
 16 14  1  0
 17 16  1  6
 18 17  1  0
 19 20  1  0
 19 17  1  0
 21 19  2  0
M  END
$$$$
