VAL.pdb
     RDKit          3D

 21 20  0  0  1  0  0  0  0  0999 V2000
   23.6314  -35.9720  -10.7199 C   0  0  0  0  0  0  0  0  0  0  0  0
   23.3690  -34.6277  -11.4044 C   0  0  2  0  0  0  0  0  0  0  0  0
   22.5923  -34.9187  -12.6698 C   0  0  0  0  0  0  0  0  0  0  0  0
   24.7111  -34.0158  -11.6901 C   0  0  2  0  0  0  0  0  0  0  0  0
   25.4503  -34.9362  -12.5342 N   0  0  0  0  0  0  0  0  0  0  0  0
   25.4840  -33.8042  -10.4390 C   0  0  0  0  0  0  0  0  0  0  0  0
   26.4120  -34.6012  -10.1404 O   0  0  0  0  0  0  0  0  0  0  0  0
   25.4939  -31.1672   -7.7752 C   0  0  0  0  0  0  0  0  0  0  0  0
   25.8818  -32.5051   -8.3220 C   0  0  2  0  0  0  0  0  0  0  0  0
   25.1985  -32.7132   -9.5622 N   0  0  0  0  0  0  0  0  0  0  0  0
   25.4770  -33.5832   -7.3516 C   0  0  0  0  0  0  0  0  0  0  0  0
   24.3299  -34.1229   -7.4636 O   0  0  0  0  0  0  0  0  0  0  0  0
   26.5577  -37.3755   -3.3117 C   0  0  0  0  0  0  0  0  0  0  0  0
   26.4064  -37.4975   -4.8047 C   0  0  1  0  0  0  0  0  0  0  0  0
   24.8987  -37.7422   -5.0251 C   0  0  0  0  0  0  0  0  0  0  0  0
   26.7558  -36.3163   -5.6089 C   0  0  0  0  0  0  0  0  0  0  0  0
   25.9697  -35.0731   -5.4515 C   0  0  2  0  0  0  0  0  0  0  0  0
   26.3495  -34.0064   -6.3179 N   0  0  0  0  0  0  0  0  0  0  0  0
   25.9960  -34.6019   -4.0545 C   0  0  0  0  0  0  0  0  0  0  0  0
   25.0090  -35.0508   -3.1910 O   0  0  0  0  0  0  0  0  0  0  0  0
   26.8597  -33.8097   -3.5814 O   0  0  0  0  0  0  0  0  0  0  0  0
  2  1  1  6
  2  4  1  0
  3  2  1  0
  4  5  1  6
  6  4  1  0
  6 10  1  0
  7  6  2  0
  9 10  1  0
  9  8  1  1
  9 11  1  0
 11 18  1  0
 12 11  2  0
 14 15  1  1
 14 13  1  0
 16 14  1  0
 17 16  1  1
 18 17  1  0
 19 20  1  0
 19 17  1  0
 21 19  2  0
M  END
$$$$
