VAL.pdb
     RDKit          3D

 21 20  0  0  1  0  0  0  0  0999 V2000
   19.7250   -9.6035  -19.4690 C   0  0  0  0  0  0  0  0  0  0  0  0
   21.0209  -10.3774  -19.7261 C   0  0  2  0  0  0  0  0  0  0  0  0
   20.8871  -11.0268  -21.0861 C   0  0  0  0  0  0  0  0  0  0  0  0
   21.1487  -11.3902  -18.6236 C   0  0  2  0  0  0  0  0  0  0  0  0
   19.9932  -12.2659  -18.6862 N   0  0  0  0  0  0  0  0  0  0  0  0
   21.1681  -10.7353  -17.2902 C   0  0  0  0  0  0  0  0  0  0  0  0
   20.0896  -10.3307  -16.7815 O   0  0  0  0  0  0  0  0  0  0  0  0
   23.7507  -10.2555  -14.6381 C   0  0  0  0  0  0  0  0  0  0  0  0
   22.4524   -9.9032  -15.2936 C   0  0  2  0  0  0  0  0  0  0  0  0
   22.3867  -10.5524  -16.5674 N   0  0  0  0  0  0  0  0  0  0  0  0
   22.3785   -8.4130  -15.4978 C   0  0  0  0  0  0  0  0  0  0  0  0
   22.9206   -7.8981  -16.5277 O   0  0  0  0  0  0  0  0  0  0  0  0
   18.3699   -5.5851  -16.7013 C   0  0  0  0  0  0  0  0  0  0  0  0
   19.8077   -5.9614  -16.4607 C   0  0  1  0  0  0  0  0  0  0  0  0
   20.6023   -5.1575  -17.5116 C   0  0  0  0  0  0  0  0  0  0  0  0
   20.3789   -5.6089  -15.1517 C   0  0  0  0  0  0  0  0  0  0  0  0
   21.6933   -6.1636  -14.7605 C   0  0  2  0  0  0  0  0  0  0  0  0
   21.7172   -7.5757  -14.5648 N   0  0  0  0  0  0  0  0  0  0  0  0
   22.2144   -5.4936  -13.5547 C   0  0  0  0  0  0  0  0  0  0  0  0
   22.5464   -4.1506  -13.6410 O   0  0  0  0  0  0  0  0  0  0  0  0
   22.3841   -6.0591  -12.4373 O   0  0  0  0  0  0  0  0  0  0  0  0
  2  1  1  1
  2  4  1  0
  3  2  1  0
  4  5  1  1
  6  4  1  0
  6 10  1  0
  7  6  2  0
  9 10  1  0
  9  8  1  6
  9 11  1  0
 11 18  1  0
 12 11  2  0
 14 15  1  6
 14 13  1  0
 16 14  1  0
 17 16  1  1
 18 17  1  0
 19 20  1  0
 19 17  1  0
 21 19  2  0
M  END
$$$$
