PFC.pdb
     RDKit          3D

 25 26  0  0  1  0  0  0  0  0999 V2000
    7.5238  -15.2068   18.9535 N   0  0  0  0  0  0  0  0  0  0  0  0
    6.7655  -14.4318   18.0061 C   0  0  0  0  0  0  0  0  0  0  0  0
    7.3050  -13.0232   18.1345 C   0  0  0  0  0  0  0  0  0  0  0  0
    8.7740  -13.2838   18.3776 C   0  0  0  0  0  0  0  0  0  0  0  0
    8.7668  -14.5274   19.1911 C   0  0  1  0  0  0  0  0  0  0  0  0
    9.0205  -14.3478   20.6181 C   0  0  0  0  0  0  0  0  0  0  0  0
   10.1660  -13.9860   20.9925 O   0  0  0  0  0  0  0  0  0  0  0  0
    8.0339  -14.5624   21.6073 N   0  0  0  0  0  0  0  0  0  0  0  0
    8.2833  -14.3698   23.0350 C   0  0  1  0  0  0  0  0  0  0  0  0
    7.0102  -13.8834   23.6549 C   0  0  0  0  0  0  0  0  0  0  0  0
    7.1107  -13.4122   25.0247 C   0  0  0  0  0  0  0  0  0  0  0  0
    6.5213  -14.2215   26.0050 C   0  0  0  0  0  0  0  0  0  0  0  0
    6.5580  -13.8690   27.3375 C   0  0  0  0  0  0  0  0  0  0  0  0
    7.1962  -12.6887   27.6786 C   0  0  0  0  0  0  0  0  0  0  0  0
    7.7757  -11.8964   26.6992 C   0  0  0  0  0  0  0  0  0  0  0  0
    7.7408  -12.2458   25.3661 C   0  0  0  0  0  0  0  0  0  0  0  0
    8.6038  -15.6968   23.6491 C   0  0  0  0  0  0  0  0  0  0  0  0
    7.8464  -16.6803   23.4434 O   0  0  0  0  0  0  0  0  0  0  0  0
    9.7325  -15.9083   24.4626 N   0  0  0  0  0  0  0  0  0  0  0  0
   10.1235  -17.1964   25.0020 C   0  0  1  0  0  0  0  0  0  0  0  0
   11.5755  -17.5065   24.7247 C   0  0  0  0  0  0  0  0  0  0  0  0
   12.5714  -16.0986   25.2686 S   0  0  0  0  0  0  0  0  0  0  0  0
    9.9413  -17.2190   26.4763 C   0  0  0  0  0  0  0  0  0  0  0  0
   10.1718  -18.3639   27.2216 O   0  0  0  0  0  0  0  0  0  0  0  0
    9.5691  -16.1872   27.0886 O   0  0  0  0  0  0  0  0  0  0  0  0
  1  2  1  0
  3  2  1  0
  4  5  1  0
  4  3  1  0
  5  1  1  0
  5  6  1  1
  6  7  2  0
  8  6  1  0
  8  9  1  0
  9 17  1  0
  9 10  1  1
 10 11  1  0
 11 16  1  0
 12 11  2  0
 12 13  1  0
 13 14  2  0
 14 15  1  0
 16 15  2  0
 17 18  2  0
 19 20  1  0
 19 17  1  0
 20 23  1  0
 20 21  1  1
 22 21  1  0
 23 25  2  0
 23 24  1  0
M  END
$$$$
