PFC.pdb
     RDKit          3D

 25 26  0  0  1  0  0  0  0  0999 V2000
    7.7059  -15.4154   19.2405 N   0  0  0  0  0  0  0  0  0  0  0  0
    6.9654  -14.6903   18.2410 C   0  0  0  0  0  0  0  0  0  0  0  0
    7.4616  -13.2640   18.3467 C   0  0  0  0  0  0  0  0  0  0  0  0
    8.9263  -13.4763   18.6546 C   0  0  0  0  0  0  0  0  0  0  0  0
    8.9200  -14.6950   19.5050 C   0  0  1  0  0  0  0  0  0  0  0  0
    9.1121  -14.4661   20.9346 C   0  0  0  0  0  0  0  0  0  0  0  0
   10.2249  -14.0404   21.3394 O   0  0  0  0  0  0  0  0  0  0  0  0
    8.1008  -14.7014   21.8936 N   0  0  0  0  0  0  0  0  0  0  0  0
    8.2600  -14.3853   23.3121 C   0  0  1  0  0  0  0  0  0  0  0  0
    6.9605  -13.8230   23.7988 C   0  0  0  0  0  0  0  0  0  0  0  0
    6.9764  -13.2519   25.1338 C   0  0  0  0  0  0  0  0  0  0  0  0
    7.5941  -12.0013   25.2673 C   0  0  0  0  0  0  0  0  0  0  0  0
    7.6656  -11.3680   26.4900 C   0  0  0  0  0  0  0  0  0  0  0  0
    7.1073  -12.0063   27.5843 C   0  0  0  0  0  0  0  0  0  0  0  0
    6.4987  -13.2438   27.4394 C   0  0  0  0  0  0  0  0  0  0  0  0
    6.4256  -13.8797   26.2184 C   0  0  0  0  0  0  0  0  0  0  0  0
    8.5083  -15.6569   24.0619 C   0  0  0  0  0  0  0  0  0  0  0  0
    7.6772  -16.5987   23.9881 O   0  0  0  0  0  0  0  0  0  0  0  0
    9.6473  -15.8602   24.8631 N   0  0  0  0  0  0  0  0  0  0  0  0
    9.9745  -17.1115   25.5190 C   0  0  1  0  0  0  0  0  0  0  0  0
   11.4360  -17.4617   25.3685 C   0  0  0  0  0  0  0  0  0  0  0  0
   11.8469  -17.4419   23.6076 S   0  0  0  0  0  0  0  0  0  0  0  0
    9.6891  -17.0249   26.9745 C   0  0  0  0  0  0  0  0  0  0  0  0
    9.8126  -18.1248   27.8079 O   0  0  0  0  0  0  0  0  0  0  0  0
    9.3247  -15.9385   27.4892 O   0  0  0  0  0  0  0  0  0  0  0  0
  1  2  1  0
  3  2  1  0
  4  5  1  0
  4  3  1  0
  5  1  1  0
  5  6  1  1
  6  7  2  0
  8  6  1  0
  8  9  1  0
  9 17  1  0
  9 10  1  1
 10 11  1  0
 11 16  1  0
 12 11  2  0
 12 13  1  0
 13 14  2  0
 14 15  1  0
 16 15  2  0
 17 18  2  0
 19 20  1  0
 19 17  1  0
 20 23  1  0
 20 21  1  1
 22 21  1  0
 23 25  2  0
 23 24  1  0
M  END
$$$$
