PFC.pdb
     RDKit          3D

 25 26  0  0  1  0  0  0  0  0999 V2000
    7.6826  -15.2873   19.1622 N   0  0  0  0  0  0  0  0  0  0  0  0
    6.9405  -14.5625   18.1638 C   0  0  0  0  0  0  0  0  0  0  0  0
    7.4226  -13.1324   18.2817 C   0  0  0  0  0  0  0  0  0  0  0  0
    8.8876  -13.3329   18.5959 C   0  0  0  0  0  0  0  0  0  0  0  0
    8.8883  -14.5573   19.4381 C   0  0  1  0  0  0  0  0  0  0  0  0
    9.0709  -14.3363   20.8702 C   0  0  0  0  0  0  0  0  0  0  0  0
   10.2017  -13.9811   21.2926 O   0  0  0  0  0  0  0  0  0  0  0  0
    8.0307  -14.5033   21.8125 N   0  0  0  0  0  0  0  0  0  0  0  0
    8.2139  -14.2874   23.2468 C   0  0  1  0  0  0  0  0  0  0  0  0
    6.9308  -13.7386   23.7891 C   0  0  0  0  0  0  0  0  0  0  0  0
    6.9604  -13.3077   25.1755 C   0  0  0  0  0  0  0  0  0  0  0  0
    7.5659  -12.0696   25.4285 C   0  0  0  0  0  0  0  0  0  0  0  0
    7.6488  -11.5646   26.7088 C   0  0  0  0  0  0  0  0  0  0  0  0
    7.1145  -12.3192   27.7393 C   0  0  0  0  0  0  0  0  0  0  0  0
    6.5178  -13.5429   27.4761 C   0  0  0  0  0  0  0  0  0  0  0  0
    6.4333  -14.0508   26.1972 C   0  0  0  0  0  0  0  0  0  0  0  0
    8.4502  -15.6111   23.9047 C   0  0  0  0  0  0  0  0  0  0  0  0
    7.6447  -16.5582   23.7110 O   0  0  0  0  0  0  0  0  0  0  0  0
    9.5497  -15.8589   24.7474 N   0  0  0  0  0  0  0  0  0  0  0  0
    9.8678  -17.1528   25.3196 C   0  0  1  0  0  0  0  0  0  0  0  0
   11.2276  -17.6438   24.8822 C   0  0  0  0  0  0  0  0  0  0  0  0
   12.4338  -16.3345   25.1991 S   0  0  0  0  0  0  0  0  0  0  0  0
    9.8831  -17.0749   26.8033 C   0  0  0  0  0  0  0  0  0  0  0  0
    9.9982  -18.2085   27.5913 O   0  0  0  0  0  0  0  0  0  0  0  0
    9.7909  -15.9650   27.3843 O   0  0  0  0  0  0  0  0  0  0  0  0
  1  2  1  0
  3  2  1  0
  4  5  1  0
  4  3  1  0
  5  1  1  0
  5  6  1  1
  6  7  2  0
  8  6  1  0
  8  9  1  0
  9 17  1  0
  9 10  1  1
 10 11  1  0
 11 16  1  0
 12 11  2  0
 12 13  1  0
 13 14  2  0
 14 15  1  0
 16 15  2  0
 17 18  2  0
 19 20  1  0
 19 17  1  0
 20 23  1  0
 20 21  1  6
 22 21  1  0
 23 25  2  0
 23 24  1  0
M  END
$$$$
