PFC.pdb
     RDKit          3D

 25 26  0  0  1  0  0  0  0  0999 V2000
    8.0320  -16.0168   20.5979 N   0  0  0  0  0  0  0  0  0  0  0  0
    7.0020  -15.6098   19.6780 C   0  0  0  0  0  0  0  0  0  0  0  0
    7.1195  -14.1023   19.6033 C   0  0  0  0  0  0  0  0  0  0  0  0
    8.6165  -13.9118   19.6922 C   0  0  0  0  0  0  0  0  0  0  0  0
    9.0409  -14.9946   20.6173 C   0  0  1  0  0  0  0  0  0  0  0  0
    9.3558  -14.5717   21.9793 C   0  0  0  0  0  0  0  0  0  0  0  0
   10.2578  -13.7125   22.1574 O   0  0  0  0  0  0  0  0  0  0  0  0
    8.6913  -15.0845   23.1166 N   0  0  0  0  0  0  0  0  0  0  0  0
    8.9490  -14.6039   24.4731 C   0  0  1  0  0  0  0  0  0  0  0  0
    7.6853  -14.7686   25.2590 C   0  0  0  0  0  0  0  0  0  0  0  0
    7.1849  -13.5732   25.9140 C   0  0  0  0  0  0  0  0  0  0  0  0
    7.9776  -13.0517   26.9451 C   0  0  0  0  0  0  0  0  0  0  0  0
    7.5971  -11.9197   27.6343 C   0  0  0  0  0  0  0  0  0  0  0  0
    6.4056  -11.3124   27.2761 C   0  0  0  0  0  0  0  0  0  0  0  0
    5.6299  -11.8381   26.2540 C   0  0  0  0  0  0  0  0  0  0  0  0
    6.0074  -12.9698   25.5629 C   0  0  0  0  0  0  0  0  0  0  0  0
    9.9872  -15.4794   25.1028 C   0  0  0  0  0  0  0  0  0  0  0  0
   11.1686  -15.4584   24.6704 O   0  0  0  0  0  0  0  0  0  0  0  0
    9.7065  -16.3442   26.1769 N   0  0  0  0  0  0  0  0  0  0  0  0
   10.7157  -17.0102   26.9775 C   0  0  1  0  0  0  0  0  0  0  0  0
   10.7120  -16.5243   28.4076 C   0  0  0  0  0  0  0  0  0  0  0  0
   11.0994  -14.7580   28.4089 S   0  0  0  0  0  0  0  0  0  0  0  0
   10.4704  -18.4752   27.0086 C   0  0  0  0  0  0  0  0  0  0  0  0
   11.3178  -19.3418   27.6796 O   0  0  0  0  0  0  0  0  0  0  0  0
    9.4763  -18.9678   26.4195 O   0  0  0  0  0  0  0  0  0  0  0  0
  1  2  1  0
  3  2  1  0
  4  5  1  0
  4  3  1  0
  5  1  1  0
  5  6  1  1
  6  7  2  0
  8  6  1  0
  8  9  1  0
  9 17  1  0
  9 10  1  1
 10 11  1  0
 11 16  1  0
 12 11  2  0
 12 13  1  0
 13 14  2  0
 14 15  1  0
 16 15  2  0
 17 18  2  0
 19 20  1  0
 19 17  1  0
 20 23  1  0
 20 21  1  1
 22 21  1  0
 23 25  2  0
 23 24  1  0
M  END
$$$$
