PFC.pdb
     RDKit          3D

 25 26  0  0  1  0  0  0  0  0999 V2000
    7.5744  -15.3977   19.1484 N   0  0  0  0  0  0  0  0  0  0  0  0
    6.8315  -14.6949   18.1349 C   0  0  0  0  0  0  0  0  0  0  0  0
    7.3191  -13.2640   18.2161 C   0  0  0  0  0  0  0  0  0  0  0  0
    8.7845  -13.4621   18.5303 C   0  0  0  0  0  0  0  0  0  0  0  0
    8.7837  -14.6654   19.4023 C   0  0  1  0  0  0  0  0  0  0  0  0
    8.9719  -14.4100   20.8279 C   0  0  0  0  0  0  0  0  0  0  0  0
   10.0794  -13.9650   21.2262 O   0  0  0  0  0  0  0  0  0  0  0  0
    7.9622  -14.6403   21.7899 N   0  0  0  0  0  0  0  0  0  0  0  0
    8.1505  -14.3869   23.2175 C   0  0  1  0  0  0  0  0  0  0  0  0
    6.8659  -13.8337   23.7519 C   0  0  0  0  0  0  0  0  0  0  0  0
    6.9086  -13.3326   25.1140 C   0  0  0  0  0  0  0  0  0  0  0  0
    6.5361  -14.2344   26.1198 C   0  0  0  0  0  0  0  0  0  0  0  0
    6.5404  -13.8634   27.4477 C   0  0  0  0  0  0  0  0  0  0  0  0
    6.9246  -12.5702   27.7583 C   0  0  0  0  0  0  0  0  0  0  0  0
    7.2910  -11.6870   26.7541 C   0  0  0  0  0  0  0  0  0  0  0  0
    7.2879  -12.0547   25.4254 C   0  0  0  0  0  0  0  0  0  0  0  0
    8.3994  -15.6918   23.9074 C   0  0  0  0  0  0  0  0  0  0  0  0
    7.5927  -16.6449   23.7523 O   0  0  0  0  0  0  0  0  0  0  0  0
    9.5125  -15.9150   24.7391 N   0  0  0  0  0  0  0  0  0  0  0  0
    9.8342  -17.1890   25.3526 C   0  0  1  0  0  0  0  0  0  0  0  0
   11.1277  -17.7600   24.8214 C   0  0  0  0  0  0  0  0  0  0  0  0
   12.3665  -16.4428   24.8058 S   0  0  0  0  0  0  0  0  0  0  0  0
    9.9912  -17.0329   26.8217 C   0  0  0  0  0  0  0  0  0  0  0  0
   10.1832  -18.1238   27.6539 O   0  0  0  0  0  0  0  0  0  0  0  0
    9.9529  -15.8937   27.3496 O   0  0  0  0  0  0  0  0  0  0  0  0
  1  2  1  0
  3  2  1  0
  4  5  1  0
  4  3  1  0
  5  1  1  0
  5  6  1  1
  6  7  2  0
  8  6  1  0
  8  9  1  0
  9 17  1  0
  9 10  1  1
 10 11  1  0
 11 16  1  0
 12 11  2  0
 12 13  1  0
 13 14  2  0
 14 15  1  0
 16 15  2  0
 17 18  2  0
 19 20  1  0
 19 17  1  0
 20 23  1  0
 20 21  1  6
 22 21  1  0
 23 25  2  0
 23 24  1  0
M  END
$$$$
