PFC.pdb
     RDKit          3D

 25 26  0  0  1  0  0  0  0  0999 V2000
    7.8180  -15.3690   19.1677 N   0  0  0  0  0  0  0  0  0  0  0  0
    7.0342  -14.6744   18.1796 C   0  0  0  0  0  0  0  0  0  0  0  0
    7.4117  -13.2169   18.3370 C   0  0  0  0  0  0  0  0  0  0  0  0
    8.8846  -13.3200   18.6610 C   0  0  0  0  0  0  0  0  0  0  0  0
    8.9661  -14.5618   19.4732 C   0  0  1  0  0  0  0  0  0  0  0  0
    9.1204  -14.3641   20.9120 C   0  0  0  0  0  0  0  0  0  0  0  0
   10.2225  -13.9490   21.3553 O   0  0  0  0  0  0  0  0  0  0  0  0
    8.0836  -14.6182   21.8385 N   0  0  0  0  0  0  0  0  0  0  0  0
    8.2316  -14.4041   23.2771 C   0  0  1  0  0  0  0  0  0  0  0  0
    6.9407  -13.8417   23.7859 C   0  0  0  0  0  0  0  0  0  0  0  0
    6.9473  -13.3834   25.1637 C   0  0  0  0  0  0  0  0  0  0  0  0
    7.6992  -12.2318   25.4318 C   0  0  0  0  0  0  0  0  0  0  0  0
    7.7746  -11.7098   26.7058 C   0  0  0  0  0  0  0  0  0  0  0  0
    7.0836  -12.3592   27.7145 C   0  0  0  0  0  0  0  0  0  0  0  0
    6.3429  -13.4980   27.4365 C   0  0  0  0  0  0  0  0  0  0  0  0
    6.2654  -14.0225   26.1639 C   0  0  0  0  0  0  0  0  0  0  0  0
    8.4368  -15.7301   23.9408 C   0  0  0  0  0  0  0  0  0  0  0  0
    7.6614  -16.6863   23.6802 O   0  0  0  0  0  0  0  0  0  0  0  0
    9.4737  -15.9703   24.8614 N   0  0  0  0  0  0  0  0  0  0  0  0
    9.7770  -17.2679   25.4332 C   0  0  1  0  0  0  0  0  0  0  0  0
   11.0790  -17.2565   26.1987 C   0  0  0  0  0  0  0  0  0  0  0  0
   11.0329  -15.8867   27.3783 S   0  0  0  0  0  0  0  0  0  0  0  0
    8.7106  -17.6790   26.3827 C   0  0  0  0  0  0  0  0  0  0  0  0
    8.6793  -18.9477   26.9384 O   0  0  0  0  0  0  0  0  0  0  0  0
    7.8015  -16.8753   26.7072 O   0  0  0  0  0  0  0  0  0  0  0  0
  1  2  1  0
  3  2  1  0
  4  5  1  0
  4  3  1  0
  5  1  1  0
  5  6  1  1
  6  7  2  0
  8  6  1  0
  8  9  1  0
  9 17  1  0
  9 10  1  1
 10 11  1  0
 11 16  1  0
 12 11  2  0
 12 13  1  0
 13 14  2  0
 14 15  1  0
 16 15  2  0
 17 18  2  0
 19 20  1  0
 19 17  1  0
 20 23  1  0
 20 21  1  1
 22 21  1  0
 23 25  2  0
 23 24  1  0
M  END
$$$$
