PFC.pdb
     RDKit          3D

 25 26  0  0  1  0  0  0  0  0999 V2000
    7.3177  -15.1991   20.2495 N   0  0  0  0  0  0  0  0  0  0  0  0
    6.4961  -14.2534   19.5397 C   0  0  0  0  0  0  0  0  0  0  0  0
    7.1178  -12.9036   19.8281 C   0  0  0  0  0  0  0  0  0  0  0  0
    8.5899  -13.2469   19.8451 C   0  0  0  0  0  0  0  0  0  0  0  0
    8.6127  -14.6082   20.4409 C   0  0  1  0  0  0  0  0  0  0  0  0
    9.0376  -14.6775   21.8366 C   0  0  0  0  0  0  0  0  0  0  0  0
   10.1649  -14.2174   22.1539 O   0  0  0  0  0  0  0  0  0  0  0  0
    8.2375  -15.2409   22.8566 N   0  0  0  0  0  0  0  0  0  0  0  0
    8.6277  -15.2407   24.2656 C   0  0  1  0  0  0  0  0  0  0  0  0
    7.3825  -15.0724   25.0797 C   0  0  0  0  0  0  0  0  0  0  0  0
    7.1765  -13.7575   25.6602 C   0  0  0  0  0  0  0  0  0  0  0  0
    5.8527  -13.3009   25.7103 C   0  0  0  0  0  0  0  0  0  0  0  0
    5.5436  -12.0665   26.2413 C   0  0  0  0  0  0  0  0  0  0  0  0
    6.5829  -11.2900   26.7245 C   0  0  0  0  0  0  0  0  0  0  0  0
    7.8888  -11.7529   26.6692 C   0  0  0  0  0  0  0  0  0  0  0  0
    8.2013  -12.9866   26.1390 C   0  0  0  0  0  0  0  0  0  0  0  0
    9.2077  -16.5788   24.6028 C   0  0  0  0  0  0  0  0  0  0  0  0
    8.5915  -17.6270   24.2788 O   0  0  0  0  0  0  0  0  0  0  0  0
   10.4330  -16.7310   25.2781 N   0  0  0  0  0  0  0  0  0  0  0  0
   11.0231  -18.0092   25.6261 C   0  0  1  0  0  0  0  0  0  0  0  0
   12.5292  -17.9839   25.5147 C   0  0  0  0  0  0  0  0  0  0  0  0
   13.1609  -19.6138   25.9775 S   0  0  0  0  0  0  0  0  0  0  0  0
   10.6904  -18.3702   27.0284 C   0  0  0  0  0  0  0  0  0  0  0  0
   10.9523  -19.6316   27.5378 O   0  0  0  0  0  0  0  0  0  0  0  0
   10.1571  -17.5290   27.7938 O   0  0  0  0  0  0  0  0  0  0  0  0
  1  2  1  0
  3  2  1  0
  4  5  1  0
  4  3  1  0
  5  1  1  0
  5  6  1  1
  6  7  2  0
  8  6  1  0
  8  9  1  0
  9 17  1  0
  9 10  1  1
 10 11  1  0
 11 16  1  0
 12 11  2  0
 12 13  1  0
 13 14  2  0
 14 15  1  0
 16 15  2  0
 17 18  2  0
 19 20  1  0
 19 17  1  0
 20 23  1  0
 20 21  1  1
 22 21  1  0
 23 25  2  0
 23 24  1  0
M  END
$$$$
