NVF.pdb
     RDKit          3D

 27 27  0  0  1  0  0  0  0  0999 V2000
   21.3239  -13.4493  -19.0817 N   0  0  0  0  0  0  0  0  0  0  0  0
   21.7564  -12.2414  -19.6572 C   0  0  0  0  0  0  0  0  0  0  0  0
   22.7102  -12.2510  -20.4635 O   0  0  0  0  0  0  0  0  0  0  0  0
   21.0928  -10.9573  -19.3172 C   0  0  0  0  0  0  0  0  0  0  0  0
   19.9387  -11.1949  -18.3632 C   0  0  2  0  0  0  0  0  0  0  0  0
   18.7794  -11.7099  -19.0584 N   0  0  0  0  0  0  0  0  0  0  0  0
   19.5701   -9.9395  -17.6556 C   0  0  0  0  0  0  0  0  0  0  0  0
   19.0275   -8.9970  -18.3289 O   0  0  0  0  0  0  0  0  0  0  0  0
   17.1559   -9.5087  -15.1172 C   0  0  0  0  0  0  0  0  0  0  0  0
   18.4227   -8.9482  -14.5468 C   0  0  1  0  0  0  0  0  0  0  0  0
   19.0043   -9.8702  -13.5299 C   0  0  0  0  0  0  0  0  0  0  0  0
   19.3851   -8.5229  -15.6415 C   0  0  2  0  0  0  0  0  0  0  0  0
   19.8080   -9.7761  -16.2684 N   0  0  0  0  0  0  0  0  0  0  0  0
   20.5728   -7.7957  -15.1066 C   0  0  0  0  0  0  0  0  0  0  0  0
   21.5769   -8.4938  -14.7578 O   0  0  0  0  0  0  0  0  0  0  0  0
   20.5422   -6.3844  -15.0093 N   0  0  0  0  0  0  0  0  0  0  0  0
   21.7451   -5.6993  -14.5029 C   0  0  1  0  0  0  0  0  0  0  0  0
   22.8197   -5.9529  -15.5014 C   0  0  0  0  0  0  0  0  0  0  0  0
   22.6068   -5.1224  -16.7049 C   0  0  0  0  0  0  0  0  0  0  0  0
   22.8735   -3.7587  -16.6990 C   0  0  0  0  0  0  0  0  0  0  0  0
   22.6817   -2.9792  -17.8136 C   0  0  0  0  0  0  0  0  0  0  0  0
   22.2134   -3.5860  -18.9518 C   0  0  0  0  0  0  0  0  0  0  0  0
   21.9398   -4.9395  -18.9863 C   0  0  0  0  0  0  0  0  0  0  0  0
   22.1382   -5.7137  -17.8536 C   0  0  0  0  0  0  0  0  0  0  0  0
   21.4430   -4.2918  -14.2208 C   0  0  0  0  0  0  0  0  0  0  0  0
   22.3245   -3.4652  -13.5540 O   0  0  0  0  0  0  0  0  0  0  0  0
   20.3502   -3.8024  -14.5892 O   0  0  0  0  0  0  0  0  0  0  0  0
  2  3  2  0
  2  1  1  0
  4  2  1  0
  5  4  1  0
  5  6  1  6
  7  8  2  0
  7  5  1  0
 10  9  1  6
 10 12  1  0
 11 10  1  0
 12 13  1  1
 13  7  1  0
 14 12  1  0
 14 15  2  0
 16 14  1  0
 17 16  1  0
 17 25  1  0
 17 18  1  6
 19 18  1  0
 20 19  2  0
 21 20  1  0
 22 21  2  0
 22 23  1  0
 23 24  2  0
 24 19  1  0
 25 26  1  0
 27 25  2  0
M  END
$$$$
