NVF.pdb
     RDKit          3D

 27 27  0  0  1  0  0  0  0  0999 V2000
   19.6877  -14.8730  -19.7238 N   0  0  0  0  0  0  0  0  0  0  0  0
   18.9854  -13.6550  -19.7447 C   0  0  0  0  0  0  0  0  0  0  0  0
   18.3265  -13.3423  -20.7586 O   0  0  0  0  0  0  0  0  0  0  0  0
   19.0187  -12.7385  -18.5769 C   0  0  0  0  0  0  0  0  0  0  0  0
   19.8853  -13.3169  -17.4754 C   0  0  2  0  0  0  0  0  0  0  0  0
   19.2600  -14.4698  -16.8652 N   0  0  0  0  0  0  0  0  0  0  0  0
   20.1622  -12.2965  -16.4292 C   0  0  0  0  0  0  0  0  0  0  0  0
   19.2336  -12.0078  -15.5983 O   0  0  0  0  0  0  0  0  0  0  0  0
   24.0109  -10.8795  -15.8193 C   0  0  0  0  0  0  0  0  0  0  0  0
   22.9583  -10.8237  -14.7546 C   0  0  1  0  0  0  0  0  0  0  0  0
   23.3421   -9.8716  -13.6736 C   0  0  0  0  0  0  0  0  0  0  0  0
   21.5801  -10.5888  -15.3469 C   0  0  2  0  0  0  0  0  0  0  0  0
   21.4202  -11.6504  -16.3419 N   0  0  0  0  0  0  0  0  0  0  0  0
   21.4606   -9.2544  -16.0032 C   0  0  0  0  0  0  0  0  0  0  0  0
   21.9527   -9.1307  -17.1692 O   0  0  0  0  0  0  0  0  0  0  0  0
   20.8163   -8.1956  -15.3206 N   0  0  0  0  0  0  0  0  0  0  0  0
   20.6296   -6.9217  -16.0383 C   0  0  1  0  0  0  0  0  0  0  0  0
   19.8490   -7.2452  -17.2638 C   0  0  0  0  0  0  0  0  0  0  0  0
   19.5776   -6.0159  -18.0376 C   0  0  0  0  0  0  0  0  0  0  0  0
   20.2447   -4.8278  -17.7652 C   0  0  0  0  0  0  0  0  0  0  0  0
   20.0015   -3.6809  -18.4810 C   0  0  0  0  0  0  0  0  0  0  0  0
   19.0702   -3.7345  -19.4874 C   0  0  0  0  0  0  0  0  0  0  0  0
   18.3920   -4.9017  -19.7800 C   0  0  0  0  0  0  0  0  0  0  0  0
   18.6479   -6.0515  -19.0492 C   0  0  0  0  0  0  0  0  0  0  0  0
   20.0420   -5.9194  -15.1427 C   0  0  0  0  0  0  0  0  0  0  0  0
   20.3054   -4.5703  -15.2677 O   0  0  0  0  0  0  0  0  0  0  0  0
   19.2709   -6.2799  -14.2234 O   0  0  0  0  0  0  0  0  0  0  0  0
  2  3  2  0
  2  1  1  0
  4  2  1  0
  5  4  1  0
  5  6  1  1
  7  8  2  0
  7  5  1  0
 10  9  1  6
 10 12  1  0
 11 10  1  0
 12 13  1  6
 13  7  1  0
 14 12  1  0
 14 15  2  0
 16 14  1  0
 17 16  1  0
 17 25  1  0
 17 18  1  6
 19 18  1  0
 20 19  2  0
 21 20  1  0
 22 21  2  0
 22 23  1  0
 23 24  2  0
 24 19  1  0
 25 26  1  0
 27 25  2  0
M  END
$$$$
