NVF.pdb
     RDKit          3D

 27 27  0  0  1  0  0  0  0  0999 V2000
   16.8038  -15.3551  -16.0552 N   0  0  0  0  0  0  0  0  0  0  0  0
   17.3728  -14.6025  -15.0126 C   0  0  0  0  0  0  0  0  0  0  0  0
   17.1524  -14.9287  -13.8273 O   0  0  0  0  0  0  0  0  0  0  0  0
   18.2311  -13.4267  -15.3051 C   0  0  0  0  0  0  0  0  0  0  0  0
   18.3253  -13.1998  -16.8012 C   0  0  2  0  0  0  0  0  0  0  0  0
   18.9640  -14.3163  -17.4630 N   0  0  0  0  0  0  0  0  0  0  0  0
   19.0798  -11.9535  -17.1009 C   0  0  0  0  0  0  0  0  0  0  0  0
   19.8489  -11.9372  -18.1228 O   0  0  0  0  0  0  0  0  0  0  0  0
   19.0295  -10.2848  -19.0279 C   0  0  0  0  0  0  0  0  0  0  0  0
   18.9400   -9.1918  -18.0073 C   0  0  1  0  0  0  0  0  0  0  0  0
   17.5323   -8.7302  -17.8412 C   0  0  0  0  0  0  0  0  0  0  0  0
   19.6372   -9.5789  -16.7152 C   0  0  2  0  0  0  0  0  0  0  0  0
   18.9603  -10.8026  -16.2830 N   0  0  0  0  0  0  0  0  0  0  0  0
   19.5120   -8.5295  -15.6623 C   0  0  0  0  0  0  0  0  0  0  0  0
   18.4055   -8.4554  -15.0399 O   0  0  0  0  0  0  0  0  0  0  0  0
   20.6060   -7.6721  -15.3973 N   0  0  0  0  0  0  0  0  0  0  0  0
   20.5373   -6.8116  -14.2024 C   0  0  1  0  0  0  0  0  0  0  0  0
   21.8301   -6.9902  -13.4864 C   0  0  0  0  0  0  0  0  0  0  0  0
   22.9614   -6.7016  -14.3922 C   0  0  0  0  0  0  0  0  0  0  0  0
   23.4188   -5.4041  -14.5875 C   0  0  0  0  0  0  0  0  0  0  0  0
   24.4716   -5.1263  -15.4250 C   0  0  0  0  0  0  0  0  0  0  0  0
   25.0717   -6.1750  -16.0755 C   0  0  0  0  0  0  0  0  0  0  0  0
   24.6379   -7.4747  -15.9004 C   0  0  0  0  0  0  0  0  0  0  0  0
   23.5743   -7.7398  -15.0519 C   0  0  0  0  0  0  0  0  0  0  0  0
   20.1958   -5.4382  -14.5886 C   0  0  0  0  0  0  0  0  0  0  0  0
   20.1275   -5.0357  -15.9070 O   0  0  0  0  0  0  0  0  0  0  0  0
   19.9548   -4.5835  -13.7050 O   0  0  0  0  0  0  0  0  0  0  0  0
  2  3  2  0
  2  1  1  0
  4  2  1  0
  5  4  1  0
  5  6  1  6
  7  8  2  0
  7  5  1  0
 10  9  1  6
 10 12  1  0
 11 10  1  0
 12 13  1  1
 13  7  1  0
 14 12  1  0
 14 15  2  0
 16 14  1  0
 17 16  1  0
 17 25  1  0
 17 18  1  6
 19 18  1  0
 20 19  2  0
 21 20  1  0
 22 21  2  0
 22 23  1  0
 23 24  2  0
 24 19  1  0
 25 26  1  0
 27 25  2  0
M  END
$$$$
