NVF.pdb
     RDKit          3D

 27 27  0  0  1  0  0  0  0  0999 V2000
   20.5068  -19.4035  -14.3969 N   0  0  0  0  0  0  0  0  0  0  0  0
   20.3969  -19.7321  -13.0341 C   0  0  0  0  0  0  0  0  0  0  0  0
   19.3823  -19.3801  -12.3964 O   0  0  0  0  0  0  0  0  0  0  0  0
   21.4718  -20.4915  -12.3465 C   0  0  0  0  0  0  0  0  0  0  0  0
   22.6280  -20.7464  -13.2936 C   0  0  2  0  0  0  0  0  0  0  0  0
   22.2589  -21.6809  -14.3343 N   0  0  0  0  0  0  0  0  0  0  0  0
   23.8090  -21.2716  -12.5575 C   0  0  0  0  0  0  0  0  0  0  0  0
   23.8182  -22.5055  -12.2207 O   0  0  0  0  0  0  0  0  0  0  0  0
   27.3642  -21.3172  -13.4985 C   0  0  0  0  0  0  0  0  0  0  0  0
   27.2587  -20.6154  -12.1791 C   0  0  1  0  0  0  0  0  0  0  0  0
   27.4514  -19.1458  -12.3390 C   0  0  0  0  0  0  0  0  0  0  0  0
   25.9945  -21.0124  -11.4376 C   0  0  2  0  0  0  0  0  0  0  0  0
   24.9062  -20.4372  -12.2295 N   0  0  0  0  0  0  0  0  0  0  0  0
   25.9538  -20.4707  -10.0482 C   0  0  0  0  0  0  0  0  0  0  0  0
   25.2896  -19.4034   -9.8565 O   0  0  0  0  0  0  0  0  0  0  0  0
   26.6398  -21.1497   -9.0135 N   0  0  0  0  0  0  0  0  0  0  0  0
   26.7362  -20.4908   -7.6985 C   0  0  1  0  0  0  0  0  0  0  0  0
   27.3989  -21.4674   -6.7914 C   0  0  0  0  0  0  0  0  0  0  0  0
   27.9668  -20.7724   -5.6175 C   0  0  0  0  0  0  0  0  0  0  0  0
   29.2513  -20.2428   -5.6419 C   0  0  0  0  0  0  0  0  0  0  0  0
   29.7865  -19.5924   -4.5569 C   0  0  0  0  0  0  0  0  0  0  0  0
   29.0129  -19.4751   -3.4296 C   0  0  0  0  0  0  0  0  0  0  0  0
   27.7330  -19.9918   -3.3771 C   0  0  0  0  0  0  0  0  0  0  0  0
   27.2060  -20.6457   -4.4800 C   0  0  0  0  0  0  0  0  0  0  0  0
   27.3925  -19.1859   -7.8349 C   0  0  0  0  0  0  0  0  0  0  0  0
   26.9872  -18.0758   -7.1219 O   0  0  0  0  0  0  0  0  0  0  0  0
   28.3574  -19.0523   -8.6226 O   0  0  0  0  0  0  0  0  0  0  0  0
  2  3  2  0
  2  1  1  0
  4  2  1  0
  5  4  1  0
  5  6  1  6
  7  8  2  0
  7  5  1  0
 10  9  1  6
 10 12  1  0
 11 10  1  0
 12 13  1  6
 13  7  1  0
 14 12  1  0
 14 15  2  0
 16 14  1  0
 17 16  1  0
 17 25  1  0
 17 18  1  1
 19 18  1  0
 20 19  2  0
 21 20  1  0
 22 21  2  0
 22 23  1  0
 23 24  2  0
 24 19  1  0
 25 26  1  0
 27 25  2  0
M  END
$$$$
