NVF.pdb
     RDKit          3D

 27 27  0  0  1  0  0  0  0  0999 V2000
   29.5091  -23.1138  -17.4682 N   0  0  0  0  0  0  0  0  0  0  0  0
   29.6364  -23.0088  -16.0718 C   0  0  0  0  0  0  0  0  0  0  0  0
   30.4342  -23.7573  -15.4689 O   0  0  0  0  0  0  0  0  0  0  0  0
   28.8344  -22.0199  -15.3079 C   0  0  0  0  0  0  0  0  0  0  0  0
   27.8717  -21.2957  -16.2284 C   0  0  2  0  0  0  0  0  0  0  0  0
   28.5731  -20.4065  -17.1283 N   0  0  0  0  0  0  0  0  0  0  0  0
   26.8754  -20.5169  -15.4452 C   0  0  0  0  0  0  0  0  0  0  0  0
   27.1178  -19.2842  -15.2048 O   0  0  0  0  0  0  0  0  0  0  0  0
   22.3498  -19.5217  -14.6656 C   0  0  0  0  0  0  0  0  0  0  0  0
   23.5787  -20.0936  -15.3036 C   0  0  1  0  0  0  0  0  0  0  0  0
   23.9448  -19.3343  -16.5332 C   0  0  0  0  0  0  0  0  0  0  0  0
   24.7048  -20.2529  -14.2977 C   0  0  2  0  0  0  0  0  0  0  0  0
   25.6809  -21.1122  -14.9694 N   0  0  0  0  0  0  0  0  0  0  0  0
   24.2509  -20.8937  -13.0293 C   0  0  0  0  0  0  0  0  0  0  0  0
   23.9806  -22.1358  -13.0664 O   0  0  0  0  0  0  0  0  0  0  0  0
   24.1405  -20.1142  -11.8536 N   0  0  0  0  0  0  0  0  0  0  0  0
   23.5836  -20.7545  -10.6483 C   0  0  1  0  0  0  0  0  0  0  0  0
   24.0557  -19.9454   -9.4914 C   0  0  0  0  0  0  0  0  0  0  0  0
   25.5119  -20.1160   -9.3073 C   0  0  0  0  0  0  0  0  0  0  0  0
   26.1519  -21.2982   -9.6593 C   0  0  0  0  0  0  0  0  0  0  0  0
   27.5053  -21.4650   -9.4947 C   0  0  0  0  0  0  0  0  0  0  0  0
   28.2238  -20.4220   -8.9665 C   0  0  0  0  0  0  0  0  0  0  0  0
   27.6140  -19.2357   -8.6077 C   0  0  0  0  0  0  0  0  0  0  0  0
   26.2471  -19.0817   -8.7795 C   0  0  0  0  0  0  0  0  0  0  0  0
   22.1306  -20.9051  -10.7826 C   0  0  0  0  0  0  0  0  0  0  0  0
   21.4342  -21.9320  -10.1780 O   0  0  0  0  0  0  0  0  0  0  0  0
   21.4790  -20.0831  -11.4675 O   0  0  0  0  0  0  0  0  0  0  0  0
  2  3  2  0
  2  1  1  0
  4  2  1  0
  5  4  1  0
  5  6  1  6
  7  8  2  0
  7  5  1  0
 10  9  1  1
 10 12  1  0
 11 10  1  0
 12 13  1  6
 13  7  1  0
 14 12  1  0
 14 15  2  0
 16 14  1  0
 17 16  1  0
 17 25  1  0
 17 18  1  1
 19 18  1  0
 20 19  2  0
 21 20  1  0
 22 21  2  0
 22 23  1  0
 23 24  2  0
 24 19  1  0
 25 26  1  0
 27 25  2  0
M  END
$$$$
