IVY.pdb
     RDKit          3D

 28 28  0  0  1  0  0  0  0  0999 V2000
    5.5889  -21.5679   23.2082 C   0  0  0  0  0  0  0  0  0  0  0  0
    5.4267  -20.6982   22.0085 C   0  0  0  0  0  0  0  0  0  0  0  0
    6.2297  -19.4411   22.1041 C   0  0  2  0  0  0  0  0  0  0  0  0
    5.9359  -18.7161   23.3984 C   0  0  0  0  0  0  0  0  0  0  0  0
    6.0850  -18.5335   20.9125 C   0  0  2  0  0  0  0  0  0  0  0  0
    6.3896  -19.3604   19.7157 N   0  0  0  0  0  0  0  0  0  0  0  0
    7.0468  -17.4108   20.8843 C   0  0  0  0  0  0  0  0  0  0  0  0
    8.2787  -17.6553   20.6801 O   0  0  0  0  0  0  0  0  0  0  0  0
    6.7081  -13.8256   19.1856 C   0  0  0  0  0  0  0  0  0  0  0  0
    7.0949  -13.7304   20.6279 C   0  0  2  0  0  0  0  0  0  0  0  0
    8.0276  -12.5505   20.7945 C   0  0  0  0  0  0  0  0  0  0  0  0
    7.7333  -14.9995   21.1518 C   0  0  2  0  0  0  0  0  0  0  0  0
    6.7331  -16.0430   21.0648 N   0  0  0  0  0  0  0  0  0  0  0  0
    8.2400  -14.8309   22.5341 C   0  0  0  0  0  0  0  0  0  0  0  0
    7.5568  -14.1658   23.3597 O   0  0  0  0  0  0  0  0  0  0  0  0
   10.7552  -14.7713   30.6332 O   0  0  0  0  0  0  0  0  0  0  0  0
   10.3032  -15.0110   29.3326 C   0  0  0  0  0  0  0  0  0  0  0  0
   10.2460  -16.2755   28.7935 C   0  0  0  0  0  0  0  0  0  0  0  0
    9.7869  -16.4773   27.4852 C   0  0  0  0  0  0  0  0  0  0  0  0
    9.3832  -15.4191   26.7097 C   0  0  0  0  0  0  0  0  0  0  0  0
    8.9038  -15.6273   25.3403 C   0  0  0  0  0  0  0  0  0  0  0  0
    9.9508  -15.2531   24.3524 C   0  0  2  0  0  0  0  0  0  0  0  0
    9.4690  -15.3873   22.9777 N   0  0  0  0  0  0  0  0  0  0  0  0
   11.1980  -15.9631   24.5705 C   0  0  0  0  0  0  0  0  0  0  0  0
   11.5672  -17.1837   24.0544 O   0  0  0  0  0  0  0  0  0  0  0  0
    9.4471  -14.1659   27.2637 C   0  0  0  0  0  0  0  0  0  0  0  0
    9.8997  -13.9491   28.5590 C   0  0  0  0  0  0  0  0  0  0  0  0
   12.0670  -15.4097   25.3284 O   0  0  0  0  0  0  0  0  0  0  0  0
  1  2  1  0
  2  3  1  0
  3  5  1  0
  3  4  1  1
  5  6  1  6
  5  7  1  0
  7  8  2  0
  7 13  1  0
 10 11  1  6
 10  9  1  0
 12 10  1  0
 12 13  1  1
 14 12  1  0
 14 15  2  0
 16 17  1  0
 17 27  2  0
 18 17  1  0
 18 19  2  0
 19 20  1  0
 20 26  2  0
 20 21  1  0
 22 23  1  0
 22 21  1  1
 23 14  1  0
 24 22  1  0
 25 24  1  0
 27 26  1  0
 28 24  2  0
M  END
$$$$
