IVY.pdb
     RDKit          3D

 28 28  0  0  1  0  0  0  0  0999 V2000
    6.5178  -11.4197   28.0068 C   0  0  0  0  0  0  0  0  0  0  0  0
    5.8559  -12.4904   27.2083 C   0  0  0  0  0  0  0  0  0  0  0  0
    6.8263  -13.2554   26.3673 C   0  0  2  0  0  0  0  0  0  0  0  0
    7.7531  -12.3145   25.6304 C   0  0  0  0  0  0  0  0  0  0  0  0
    6.1781  -14.2423   25.4342 C   0  0  2  0  0  0  0  0  0  0  0  0
    5.3767  -15.1603   26.2851 N   0  0  0  0  0  0  0  0  0  0  0  0
    7.1324  -15.1004   24.7001 C   0  0  0  0  0  0  0  0  0  0  0  0
    7.5897  -16.1440   25.2665 O   0  0  0  0  0  0  0  0  0  0  0  0
    7.0705  -15.5163   20.6911 C   0  0  0  0  0  0  0  0  0  0  0  0
    8.4622  -15.4415   21.2357 C   0  0  2  0  0  0  0  0  0  0  0  0
    9.3384  -16.3806   20.4355 C   0  0  0  0  0  0  0  0  0  0  0  0
    8.5352  -15.7650   22.7131 C   0  0  2  0  0  0  0  0  0  0  0  0
    7.6082  -14.8791   23.3861 N   0  0  0  0  0  0  0  0  0  0  0  0
    9.9137  -15.6288   23.2392 C   0  0  0  0  0  0  0  0  0  0  0  0
   10.5262  -14.5384   23.0762 O   0  0  0  0  0  0  0  0  0  0  0  0
   10.2885  -14.0113   29.8018 O   0  0  0  0  0  0  0  0  0  0  0  0
   10.7735  -14.8340   28.7814 C   0  0  0  0  0  0  0  0  0  0  0  0
   10.9022  -16.1957   28.9310 C   0  0  0  0  0  0  0  0  0  0  0  0
   11.3925  -16.9889   27.8852 C   0  0  0  0  0  0  0  0  0  0  0  0
   11.7563  -16.4274   26.6866 C   0  0  0  0  0  0  0  0  0  0  0  0
   12.2708  -17.2547   25.5916 C   0  0  0  0  0  0  0  0  0  0  0  0
   12.0028  -16.6146   24.2761 C   0  0  2  0  0  0  0  0  0  0  0  0
   10.5843  -16.6765   23.9242 N   0  0  0  0  0  0  0  0  0  0  0  0
   12.8548  -17.1351   23.2224 C   0  0  0  0  0  0  0  0  0  0  0  0
   14.1469  -16.7635   22.9309 O   0  0  0  0  0  0  0  0  0  0  0  0
   11.6212  -15.0687   26.5557 C   0  0  0  0  0  0  0  0  0  0  0  0
   11.1368  -14.2684   27.5827 C   0  0  0  0  0  0  0  0  0  0  0  0
   12.3675  -18.0425   22.4642 O   0  0  0  0  0  0  0  0  0  0  0  0
  1  2  1  0
  2  3  1  0
  3  5  1  0
  3  4  1  6
  5  6  1  1
  5  7  1  0
  7  8  2  0
  7 13  1  0
 10 11  1  6
 10  9  1  0
 12 10  1  0
 12 13  1  1
 14 12  1  0
 14 15  2  0
 16 17  1  0
 17 27  2  0
 18 17  1  0
 18 19  2  0
 19 20  1  0
 20 26  2  0
 20 21  1  0
 22 23  1  0
 22 21  1  1
 23 14  1  0
 24 22  1  0
 25 24  1  0
 27 26  1  0
 28 24  2  0
M  END
$$$$
