IVY.pdb
     RDKit          3D

 28 28  0  0  1  0  0  0  0  0999 V2000
    7.7553  -11.8828   19.2748 C   0  0  0  0  0  0  0  0  0  0  0  0
    7.8153  -13.3534   19.0390 C   0  0  0  0  0  0  0  0  0  0  0  0
    8.1803  -14.1132   20.2734 C   0  0  2  0  0  0  0  0  0  0  0  0
    9.4746  -13.5935   20.8581 C   0  0  0  0  0  0  0  0  0  0  0  0
    8.2157  -15.6056   20.0822 C   0  0  2  0  0  0  0  0  0  0  0  0
    6.8905  -15.9892   19.5293 N   0  0  0  0  0  0  0  0  0  0  0  0
    8.3694  -16.3746   21.3356 C   0  0  0  0  0  0  0  0  0  0  0  0
    7.3936  -16.4332   22.1501 O   0  0  0  0  0  0  0  0  0  0  0  0
    9.4852  -19.9852   21.9758 C   0  0  0  0  0  0  0  0  0  0  0  0
   10.3228  -19.0588   22.7999 C   0  0  2  0  0  0  0  0  0  0  0  0
   10.6364  -19.7411   24.1137 C   0  0  0  0  0  0  0  0  0  0  0  0
    9.6609  -17.7173   23.0346 C   0  0  2  0  0  0  0  0  0  0  0  0
    9.5269  -17.0800   21.7412 N   0  0  0  0  0  0  0  0  0  0  0  0
   10.4305  -16.8828   23.9869 C   0  0  0  0  0  0  0  0  0  0  0  0
   11.6179  -16.5666   23.7029 O   0  0  0  0  0  0  0  0  0  0  0  0
    5.1276  -12.7659   26.7434 O   0  0  0  0  0  0  0  0  0  0  0  0
    6.4729  -13.1289   26.6349 C   0  0  0  0  0  0  0  0  0  0  0  0
    7.3954  -12.8407   27.6141 C   0  0  0  0  0  0  0  0  0  0  0  0
    8.7364  -13.2207   27.4703 C   0  0  0  0  0  0  0  0  0  0  0  0
    9.1624  -13.8893   26.3498 C   0  0  0  0  0  0  0  0  0  0  0  0
   10.5648  -14.2866   26.1963 C   0  0  0  0  0  0  0  0  0  0  0  0
   10.7018  -15.7669   26.2437 C   0  0  2  0  0  0  0  0  0  0  0  0
    9.8902  -16.4177   25.2152 N   0  0  0  0  0  0  0  0  0  0  0  0
   10.4481  -16.3051   27.5677 C   0  0  0  0  0  0  0  0  0  0  0  0
    9.4786  -17.2110   27.9310 O   0  0  0  0  0  0  0  0  0  0  0  0
    8.2289  -14.1681   25.3842 C   0  0  0  0  0  0  0  0  0  0  0  0
    6.8959  -13.7983   25.5116 C   0  0  0  0  0  0  0  0  0  0  0  0
   11.1988  -15.9026   28.5217 O   0  0  0  0  0  0  0  0  0  0  0  0
  1  2  1  0
  2  3  1  0
  3  5  1  0
  3  4  1  6
  5  6  1  1
  5  7  1  0
  7  8  2  0
  7 13  1  0
 10 11  1  1
 10  9  1  0
 12 10  1  0
 12 13  1  6
 14 12  1  0
 14 15  2  0
 16 17  1  0
 17 27  2  0
 18 17  1  0
 18 19  2  0
 19 20  1  0
 20 26  2  0
 20 21  1  0
 22 23  1  0
 22 21  1  1
 23 14  1  0
 24 22  1  0
 25 24  1  0
 27 26  1  0
 28 24  2  0
M  END
$$$$
