IVY.pdb
     RDKit          3D

 28 28  0  0  1  0  0  0  0  0999 V2000
    7.6777  -11.5079   20.0287 C   0  0  0  0  0  0  0  0  0  0  0  0
    7.6367  -12.9474   19.6439 C   0  0  0  0  0  0  0  0  0  0  0  0
    7.6984  -13.8554   20.8297 C   0  0  2  0  0  0  0  0  0  0  0  0
    8.9764  -13.6334   21.6073 C   0  0  0  0  0  0  0  0  0  0  0  0
    7.4956  -15.3087   20.4955 C   0  0  2  0  0  0  0  0  0  0  0  0
    6.1904  -15.3989   19.7904 N   0  0  0  0  0  0  0  0  0  0  0  0
    7.3803  -16.1923   21.6753 C   0  0  0  0  0  0  0  0  0  0  0  0
    6.3133  -16.1649   22.3681 O   0  0  0  0  0  0  0  0  0  0  0  0
    7.9646  -19.9271   21.8426 C   0  0  0  0  0  0  0  0  0  0  0  0
    8.7133  -19.2996   22.9761 C   0  0  2  0  0  0  0  0  0  0  0  0
    8.6219  -20.2189   24.1746 C   0  0  0  0  0  0  0  0  0  0  0  0
    8.2085  -17.9143   23.3205 C   0  0  2  0  0  0  0  0  0  0  0  0
    8.3642  -17.1003   22.1330 N   0  0  0  0  0  0  0  0  0  0  0  0
    8.9250  -17.3407   24.4839 C   0  0  0  0  0  0  0  0  0  0  0  0
   10.1105  -16.9371   24.3346 O   0  0  0  0  0  0  0  0  0  0  0  0
    6.5235  -11.1174   25.0987 O   0  0  0  0  0  0  0  0  0  0  0  0
    6.8948  -12.2950   25.7535 C   0  0  0  0  0  0  0  0  0  0  0  0
    6.0417  -13.3666   25.8831 C   0  0  0  0  0  0  0  0  0  0  0  0
    6.4493  -14.5315   26.5465 C   0  0  0  0  0  0  0  0  0  0  0  0
    7.7088  -14.6322   27.0830 C   0  0  0  0  0  0  0  0  0  0  0  0
    8.1370  -15.8491   27.7787 C   0  0  0  0  0  0  0  0  0  0  0  0
    9.0429  -16.6569   26.9191 C   0  0  2  0  0  0  0  0  0  0  0  0
    8.3353  -17.2226   25.7704 N   0  0  0  0  0  0  0  0  0  0  0  0
    9.7672  -17.6655   27.6708 C   0  0  0  0  0  0  0  0  0  0  0  0
   10.8666  -17.4796   28.4766 O   0  0  0  0  0  0  0  0  0  0  0  0
    8.5454  -13.5542   26.9441 C   0  0  0  0  0  0  0  0  0  0  0  0
    8.1567  -12.3923   26.2894 C   0  0  0  0  0  0  0  0  0  0  0  0
    9.3545  -18.8732   27.5870 O   0  0  0  0  0  0  0  0  0  0  0  0
  1  2  1  0
  2  3  1  0
  3  5  1  0
  3  4  1  6
  5  6  1  1
  5  7  1  0
  7  8  2  0
  7 13  1  0
 10 11  1  1
 10  9  1  0
 12 10  1  0
 12 13  1  6
 14 12  1  0
 14 15  2  0
 16 17  1  0
 17 27  2  0
 18 17  1  0
 18 19  2  0
 19 20  1  0
 20 26  2  0
 20 21  1  0
 22 23  1  0
 22 21  1  1
 23 14  1  0
 24 22  1  0
 25 24  1  0
 27 26  1  0
 28 24  2  0
M  END
$$$$
