IVY.pdb
     RDKit          3D

 28 28  0  0  1  0  0  0  0  0999 V2000
   10.9677  -21.4981   23.4749 C   0  0  0  0  0  0  0  0  0  0  0  0
   10.5923  -20.5621   22.3773 C   0  0  0  0  0  0  0  0  0  0  0  0
   10.3734  -19.1675   22.8687 C   0  0  2  0  0  0  0  0  0  0  0  0
    9.4724  -19.1638   24.0834 C   0  0  0  0  0  0  0  0  0  0  0  0
    9.8829  -18.2181   21.8091 C   0  0  2  0  0  0  0  0  0  0  0  0
   10.9087  -18.2233   20.7337 N   0  0  0  0  0  0  0  0  0  0  0  0
    9.7729  -16.8132   22.2568 C   0  0  0  0  0  0  0  0  0  0  0  0
   10.8285  -16.1829   22.5845 O   0  0  0  0  0  0  0  0  0  0  0  0
    6.6756  -14.3770   21.1380 C   0  0  0  0  0  0  0  0  0  0  0  0
    7.9935  -13.8740   21.6371 C   0  0  2  0  0  0  0  0  0  0  0  0
    8.9710  -13.8707   20.4819 C   0  0  0  0  0  0  0  0  0  0  0  0
    8.5331  -14.6850   22.7964 C   0  0  2  0  0  0  0  0  0  0  0  0
    8.5761  -16.0659   22.3624 N   0  0  0  0  0  0  0  0  0  0  0  0
    7.7122  -14.5129   24.0179 C   0  0  0  0  0  0  0  0  0  0  0  0
    6.7178  -15.2673   24.1987 O   0  0  0  0  0  0  0  0  0  0  0  0
   11.8739  -17.1793   28.3225 O   0  0  0  0  0  0  0  0  0  0  0  0
   10.9177  -16.1838   28.1040 C   0  0  0  0  0  0  0  0  0  0  0  0
    9.5773  -16.3848   28.3405 C   0  0  0  0  0  0  0  0  0  0  0  0
    8.6471  -15.3626   28.1098 C   0  0  0  0  0  0  0  0  0  0  0  0
    9.0500  -14.1365   27.6424 C   0  0  0  0  0  0  0  0  0  0  0  0
    8.0789  -13.0660   27.3988 C   0  0  0  0  0  0  0  0  0  0  0  0
    7.2142  -13.3934   26.2338 C   0  0  2  0  0  0  0  0  0  0  0  0
    7.9940  -13.5303   25.0038 N   0  0  0  0  0  0  0  0  0  0  0  0
    6.1094  -12.4638   26.0848 C   0  0  0  0  0  0  0  0  0  0  0  0
    4.9813  -12.3725   26.8668 O   0  0  0  0  0  0  0  0  0  0  0  0
   10.3899  -13.9543   27.4124 C   0  0  0  0  0  0  0  0  0  0  0  0
   11.3246  -14.9573   27.6361 C   0  0  0  0  0  0  0  0  0  0  0  0
    6.1698  -11.6257   25.1205 O   0  0  0  0  0  0  0  0  0  0  0  0
  1  2  1  0
  2  3  1  0
  3  5  1  0
  3  4  1  1
  5  6  1  6
  5  7  1  0
  7  8  2  0
  7 13  1  0
 10 11  1  6
 10  9  1  0
 12 10  1  0
 12 13  1  6
 14 12  1  0
 14 15  2  0
 16 17  1  0
 17 27  2  0
 18 17  1  0
 18 19  2  0
 19 20  1  0
 20 26  2  0
 20 21  1  0
 22 23  1  0
 22 21  1  1
 23 14  1  0
 24 22  1  0
 25 24  1  0
 27 26  1  0
 28 24  2  0
M  END
$$$$
