IVY.pdb
     RDKit          3D

 28 28  0  0  1  0  0  0  0  0999 V2000
    7.4820  -11.6537   19.9697 C   0  0  0  0  0  0  0  0  0  0  0  0
    7.7764  -13.0446   19.5218 C   0  0  0  0  0  0  0  0  0  0  0  0
    8.0221  -13.9717   20.6682 C   0  0  2  0  0  0  0  0  0  0  0  0
    9.0424  -13.3872   21.6194 C   0  0  0  0  0  0  0  0  0  0  0  0
    8.3864  -15.3715   20.2527 C   0  0  2  0  0  0  0  0  0  0  0  0
    7.2639  -15.8654   19.4130 N   0  0  0  0  0  0  0  0  0  0  0  0
    8.5032  -16.3268   21.3751 C   0  0  0  0  0  0  0  0  0  0  0  0
    7.4446  -16.8063   21.8933 O   0  0  0  0  0  0  0  0  0  0  0  0
   10.6405  -19.4540   21.4970 C   0  0  0  0  0  0  0  0  0  0  0  0
   10.8641  -18.7004   22.7702 C   0  0  2  0  0  0  0  0  0  0  0  0
   11.0082  -19.7001   23.8969 C   0  0  0  0  0  0  0  0  0  0  0  0
    9.7603  -17.7079   23.0691 C   0  0  2  0  0  0  0  0  0  0  0  0
    9.7100  -16.7836   21.9555 N   0  0  0  0  0  0  0  0  0  0  0  0
    9.9805  -17.0114   24.3583 C   0  0  0  0  0  0  0  0  0  0  0  0
   10.9041  -16.1567   24.4426 O   0  0  0  0  0  0  0  0  0  0  0  0
    6.2792  -11.4450   24.9085 O   0  0  0  0  0  0  0  0  0  0  0  0
    6.7743  -12.5888   25.5409 C   0  0  0  0  0  0  0  0  0  0  0  0
    7.9817  -12.6020   26.2005 C   0  0  0  0  0  0  0  0  0  0  0  0
    8.4459  -13.7682   26.8233 C   0  0  0  0  0  0  0  0  0  0  0  0
    7.7081  -14.9252   26.7907 C   0  0  0  0  0  0  0  0  0  0  0  0
    8.1920  -16.1468   27.4401 C   0  0  0  0  0  0  0  0  0  0  0  0
    9.4500  -16.6199   26.8031 C   0  0  2  0  0  0  0  0  0  0  0  0
    9.1942  -17.2624   25.5140 N   0  0  0  0  0  0  0  0  0  0  0  0
   10.2392  -17.4567   27.6884 C   0  0  0  0  0  0  0  0  0  0  0  0
   11.0187  -17.0526   28.7475 O   0  0  0  0  0  0  0  0  0  0  0  0
    6.5072  -14.8933   26.1287 C   0  0  0  0  0  0  0  0  0  0  0  0
    6.0329  -13.7455   25.5063 C   0  0  0  0  0  0  0  0  0  0  0  0
   10.2247  -18.7179   27.4763 O   0  0  0  0  0  0  0  0  0  0  0  0
  1  2  1  0
  2  3  1  0
  3  5  1  0
  3  4  1  6
  5  6  1  6
  5  7  1  0
  7  8  2  0
  7 13  1  0
 10 11  1  1
 10  9  1  0
 12 10  1  0
 12 13  1  6
 14 12  1  0
 14 15  2  0
 16 17  1  0
 17 27  2  0
 18 17  1  0
 18 19  2  0
 19 20  1  0
 20 26  2  0
 20 21  1  0
 22 23  1  0
 22 21  1  1
 23 14  1  0
 24 22  1  0
 25 24  1  0
 27 26  1  0
 28 24  2  0
M  END
$$$$
