IVY.pdb
     RDKit          3D

 28 28  0  0  1  0  0  0  0  0999 V2000
    7.0033  -20.7548   26.9584 C   0  0  0  0  0  0  0  0  0  0  0  0
    6.2567  -20.3099   25.7474 C   0  0  0  0  0  0  0  0  0  0  0  0
    6.9643  -19.2178   25.0119 C   0  0  2  0  0  0  0  0  0  0  0  0
    7.3543  -18.1027   25.9562 C   0  0  0  0  0  0  0  0  0  0  0  0
    6.2089  -18.6979   23.8186 C   0  0  2  0  0  0  0  0  0  0  0  0
    5.8721  -19.8825   22.9866 N   0  0  0  0  0  0  0  0  0  0  0  0
    6.9959  -17.8008   22.9458 C   0  0  0  0  0  0  0  0  0  0  0  0
    7.8032  -18.3078   22.1030 O   0  0  0  0  0  0  0  0  0  0  0  0
    5.8931  -14.7482   20.8018 C   0  0  0  0  0  0  0  0  0  0  0  0
    7.0331  -14.3644   21.6918 C   0  0  2  0  0  0  0  0  0  0  0  0
    7.9114  -13.3839   20.9454 C   0  0  0  0  0  0  0  0  0  0  0  0
    7.8383  -15.5561   22.1651 C   0  0  2  0  0  0  0  0  0  0  0  0
    6.9450  -16.3868   22.9455 N   0  0  0  0  0  0  0  0  0  0  0  0
    9.0304  -15.1418   22.9417 C   0  0  0  0  0  0  0  0  0  0  0  0
    8.9338  -14.1701   23.7398 O   0  0  0  0  0  0  0  0  0  0  0  0
    9.7746  -13.4927   29.6185 O   0  0  0  0  0  0  0  0  0  0  0  0
    9.8937  -14.3037   28.4866 C   0  0  0  0  0  0  0  0  0  0  0  0
    8.8305  -14.5684   27.6544 C   0  0  0  0  0  0  0  0  0  0  0  0
    8.9878  -15.3867   26.5279 C   0  0  0  0  0  0  0  0  0  0  0  0
   10.2057  -15.9440   26.2272 C   0  0  0  0  0  0  0  0  0  0  0  0
   10.3726  -16.8015   25.0503 C   0  0  0  0  0  0  0  0  0  0  0  0
   11.1320  -16.0935   23.9853 C   0  0  2  0  0  0  0  0  0  0  0  0
   10.2878  -15.7923   22.8292 N   0  0  0  0  0  0  0  0  0  0  0  0
   12.3474  -16.7938   23.6121 C   0  0  0  0  0  0  0  0  0  0  0  0
   13.6091  -16.6145   24.1304 O   0  0  0  0  0  0  0  0  0  0  0  0
   11.2540  -15.6692   27.0680 C   0  0  0  0  0  0  0  0  0  0  0  0
   11.1146  -14.8601   28.1885 C   0  0  0  0  0  0  0  0  0  0  0  0
   12.2587  -17.6821   22.6963 O   0  0  0  0  0  0  0  0  0  0  0  0
  1  2  1  0
  2  3  1  0
  3  5  1  0
  3  4  1  1
  5  6  1  6
  5  7  1  0
  7  8  2  0
  7 13  1  0
 10 11  1  6
 10  9  1  0
 12 10  1  0
 12 13  1  1
 14 12  1  0
 14 15  2  0
 16 17  1  0
 17 27  2  0
 18 17  1  0
 18 19  2  0
 19 20  1  0
 20 26  2  0
 20 21  1  0
 22 23  1  0
 22 21  1  1
 23 14  1  0
 24 22  1  0
 25 24  1  0
 27 26  1  0
 28 24  2  0
M  END
$$$$
