IVY.pdb
     RDKit          3D

 28 28  0  0  1  0  0  0  0  0999 V2000
    7.0962  -11.6481   20.0059 C   0  0  0  0  0  0  0  0  0  0  0  0
    7.4553  -13.0321   19.5848 C   0  0  0  0  0  0  0  0  0  0  0  0
    7.7584  -13.9203   20.7483 C   0  0  2  0  0  0  0  0  0  0  0  0
    8.7729  -13.2736   21.6647 C   0  0  0  0  0  0  0  0  0  0  0  0
    8.1690  -15.3150   20.3595 C   0  0  2  0  0  0  0  0  0  0  0  0
    7.0946  -15.8375   19.4754 N   0  0  0  0  0  0  0  0  0  0  0  0
    8.2560  -16.2602   21.4930 C   0  0  0  0  0  0  0  0  0  0  0  0
    7.1839  -16.7331   21.9891 O   0  0  0  0  0  0  0  0  0  0  0  0
   10.0960  -19.4704   21.6311 C   0  0  0  0  0  0  0  0  0  0  0  0
   10.4600  -18.7266   22.8774 C   0  0  2  0  0  0  0  0  0  0  0  0
   10.5804  -19.7234   24.0096 C   0  0  0  0  0  0  0  0  0  0  0  0
    9.4684  -17.6360   23.2237 C   0  0  2  0  0  0  0  0  0  0  0  0
    9.4472  -16.7140   22.1072 N   0  0  0  0  0  0  0  0  0  0  0  0
    9.8159  -16.9593   24.4952 C   0  0  0  0  0  0  0  0  0  0  0  0
   10.8320  -16.2131   24.5339 O   0  0  0  0  0  0  0  0  0  0  0  0
    6.7386  -11.1728   25.1649 O   0  0  0  0  0  0  0  0  0  0  0  0
    7.1699  -12.3395   25.8020 C   0  0  0  0  0  0  0  0  0  0  0  0
    8.4284  -12.4608   26.3447 C   0  0  0  0  0  0  0  0  0  0  0  0
    8.8259  -13.6467   26.9762 C   0  0  0  0  0  0  0  0  0  0  0  0
    7.9701  -14.7160   27.0689 C   0  0  0  0  0  0  0  0  0  0  0  0
    8.3839  -15.9581   27.7277 C   0  0  0  0  0  0  0  0  0  0  0  0
    9.4960  -16.6055   26.9820 C   0  0  2  0  0  0  0  0  0  0  0  0
    9.0528  -17.1119   25.6832 N   0  0  0  0  0  0  0  0  0  0  0  0
   10.1727  -17.6215   27.7675 C   0  0  0  0  0  0  0  0  0  0  0  0
   10.0742  -18.9870   27.6324 O   0  0  0  0  0  0  0  0  0  0  0  0
    6.7198  -14.5769   26.5223 C   0  0  0  0  0  0  0  0  0  0  0  0
    6.3104  -13.4081   25.8930 C   0  0  0  0  0  0  0  0  0  0  0  0
   10.9534  -17.2238   28.6993 O   0  0  0  0  0  0  0  0  0  0  0  0
  1  2  1  0
  2  3  1  0
  3  5  1  0
  3  4  1  6
  5  6  1  6
  5  7  1  0
  7  8  2  0
  7 13  1  0
 10 11  1  1
 10  9  1  0
 12 10  1  0
 12 13  1  6
 14 12  1  0
 14 15  2  0
 16 17  1  0
 17 27  2  0
 18 17  1  0
 18 19  2  0
 19 20  1  0
 20 26  2  0
 20 21  1  0
 22 23  1  0
 22 21  1  1
 23 14  1  0
 24 22  1  0
 25 24  1  0
 27 26  1  0
 28 24  2  0
M  END
$$$$
