PNP.pdb
     RDKit          3D

 23 24  0  0  1  0  0  0  0  0999 V2000
   13.7957  -10.0586  -12.0171 N   0  0  0  0  0  0  0  0  0  0  0  0
   12.7629  -10.3040  -10.9972 C   0  0  0  0  0  0  0  0  0  0  0  0
   13.4057  -11.4747  -10.2479 C   0  0  0  0  0  0  0  0  0  0  0  0
   14.8953  -11.2164  -10.3111 C   0  0  0  0  0  0  0  0  0  0  0  0
   14.9739  -10.0095  -11.2120 C   0  0  1  0  0  0  0  0  0  0  0  0
   16.2257   -9.9585  -11.9954 C   0  0  0  0  0  0  0  0  0  0  0  0
   17.3271   -9.8365  -11.3877 O   0  0  0  0  0  0  0  0  0  0  0  0
   15.5476  -11.8370  -16.4243 N   0  0  0  0  0  0  0  0  0  0  0  0
   16.7576  -11.6435  -15.7004 C   0  0  0  0  0  0  0  0  0  0  0  0
   17.3270  -12.6119  -15.1692 O   0  0  0  0  0  0  0  0  0  0  0  0
   17.3644  -10.2823  -15.5651 C   0  0  0  0  0  0  0  0  0  0  0  0
   17.5212   -9.9171  -14.0816 C   0  0  2  0  0  0  0  0  0  0  0  0
   16.2837  -10.0378  -13.4072 N   0  0  0  0  0  0  0  0  0  0  0  0
   18.2255   -8.6418  -14.0316 C   0  0  0  0  0  0  0  0  0  0  0  0
   17.4186   -7.6564  -13.7906 O   0  0  0  0  0  0  0  0  0  0  0  0
   19.5935   -8.3722  -14.2033 N   0  0  0  0  0  0  0  0  0  0  0  0
   20.5493   -9.3383  -14.7125 C   0  0  0  0  0  0  0  0  0  0  0  0
   21.8569   -8.9593  -14.1114 C   0  0  0  0  0  0  0  0  0  0  0  0
   21.6139   -7.7064  -13.3001 C   0  0  0  0  0  0  0  0  0  0  0  0
   20.3384   -7.1717  -13.9590 C   0  0  1  0  0  0  0  0  0  0  0  0
   20.6633   -6.4436  -15.2201 C   0  0  0  0  0  0  0  0  0  0  0  0
   20.5086   -7.0062  -16.3337 O   0  0  0  0  0  0  0  0  0  0  0  0
   21.1415   -5.1404  -15.2401 O   0  0  0  0  0  0  0  0  0  0  0  0
  1  5  1  0
  2  3  1  0
  2  1  1  0
  3  4  1  0
  4  5  1  0
  5  6  1  6
  6  7  2  0
  8  9  1  0
  9 10  2  0
  9 11  1  0
 12 11  1  6
 12 14  1  0
 13 12  1  0
 13  6  1  0
 14 15  2  0
 14 16  1  0
 16 20  1  0
 16 17  1  0
 17 18  1  0
 19 18  1  0
 20 19  1  0
 21 23  1  0
 20 21  1  6
 22 21  2  0
M  END
$$$$
