PNP.pdb
     RDKit          3D

 23 24  0  0  1  0  0  0  0  0999 V2000
   21.0978  -11.2404  -16.9837 N   0  0  0  0  0  0  0  0  0  0  0  0
   20.9135  -12.4759  -17.7625 C   0  0  0  0  0  0  0  0  0  0  0  0
   19.5362  -12.9072  -17.2503 C   0  0  0  0  0  0  0  0  0  0  0  0
   18.7918  -11.6178  -16.9800 C   0  0  0  0  0  0  0  0  0  0  0  0
   19.8560  -10.5764  -17.2196 C   0  0  1  0  0  0  0  0  0  0  0  0
   19.6670   -9.3629  -16.3980 C   0  0  0  0  0  0  0  0  0  0  0  0
   18.6158   -8.6771  -16.5465 O   0  0  0  0  0  0  0  0  0  0  0  0
   18.4380   -8.5462  -12.8834 N   0  0  0  0  0  0  0  0  0  0  0  0
   19.7398   -8.2936  -12.3665 C   0  0  0  0  0  0  0  0  0  0  0  0
   19.9672   -8.4397  -11.1536 O   0  0  0  0  0  0  0  0  0  0  0  0
   20.8521   -7.8509  -13.2644 C   0  0  0  0  0  0  0  0  0  0  0  0
   20.3456   -7.7151  -14.7080 C   0  0  2  0  0  0  0  0  0  0  0  0
   20.5966   -8.9017  -15.4359 N   0  0  0  0  0  0  0  0  0  0  0  0
   20.8652   -6.4539  -15.2220 C   0  0  0  0  0  0  0  0  0  0  0  0
   22.0082   -6.6103  -15.8129 O   0  0  0  0  0  0  0  0  0  0  0  0
   20.3057   -5.1669  -15.1564 N   0  0  0  0  0  0  0  0  0  0  0  0
   19.0995   -4.8475  -14.4153 C   0  0  0  0  0  0  0  0  0  0  0  0
   18.4948   -3.6852  -15.1211 C   0  0  0  0  0  0  0  0  0  0  0  0
   19.4393   -3.3213  -16.2447 C   0  0  0  0  0  0  0  0  0  0  0  0
   20.7492   -3.9338  -15.7383 C   0  0  1  0  0  0  0  0  0  0  0  0
   21.3957   -3.0378  -14.7357 C   0  0  0  0  0  0  0  0  0  0  0  0
   21.2716   -3.2699  -13.5062 O   0  0  0  0  0  0  0  0  0  0  0  0
   22.1507   -1.9274  -15.0882 O   0  0  0  0  0  0  0  0  0  0  0  0
  1  5  1  0
  2  3  1  0
  2  1  1  0
  3  4  1  0
  4  5  1  0
  5  6  1  1
  6  7  2  0
  8  9  1  0
  9 10  2  0
  9 11  1  0
 12 11  1  1
 12 14  1  0
 13 12  1  0
 13  6  1  0
 14 15  2  0
 14 16  1  0
 16 20  1  0
 16 17  1  0
 17 18  1  0
 19 18  1  0
 20 19  1  0
 21 23  1  0
 20 21  1  1
 22 21  2  0
M  END
$$$$
