PNP.pdb
     RDKit          3D

 23 24  0  0  1  0  0  0  0  0999 V2000
   26.4965  -22.2082  -12.7098 N   0  0  0  0  0  0  0  0  0  0  0  0
   26.6536  -22.4254  -14.1573 C   0  0  0  0  0  0  0  0  0  0  0  0
   26.1439  -21.0801  -14.6824 C   0  0  0  0  0  0  0  0  0  0  0  0
   26.5562  -20.0649  -13.6388 C   0  0  0  0  0  0  0  0  0  0  0  0
   27.1284  -20.9378  -12.5501 C   0  0  1  0  0  0  0  0  0  0  0  0
   26.9610  -20.3576  -11.2016 C   0  0  0  0  0  0  0  0  0  0  0  0
   27.5446  -19.2720  -10.9222 O   0  0  0  0  0  0  0  0  0  0  0  0
   23.9227  -19.7298  -10.4956 N   0  0  0  0  0  0  0  0  0  0  0  0
   23.6369  -20.2879   -9.2179 C   0  0  0  0  0  0  0  0  0  0  0  0
   22.4611  -20.5164   -8.8872 O   0  0  0  0  0  0  0  0  0  0  0  0
   24.7363  -20.6084   -8.2546 C   0  0  0  0  0  0  0  0  0  0  0  0
   26.1030  -20.3361   -8.9004 C   0  0  2  0  0  0  0  0  0  0  0  0
   26.1780  -20.9406  -10.1770 N   0  0  0  0  0  0  0  0  0  0  0  0
   27.1152  -20.6696   -7.9059 C   0  0  0  0  0  0  0  0  0  0  0  0
   27.6336  -21.8379   -8.1212 O   0  0  0  0  0  0  0  0  0  0  0  0
   27.5674  -19.9184   -6.8083 N   0  0  0  0  0  0  0  0  0  0  0  0
   27.0035  -18.6395   -6.4178 C   0  0  0  0  0  0  0  0  0  0  0  0
   28.1107  -17.9040   -5.7485 C   0  0  0  0  0  0  0  0  0  0  0  0
   29.2971  -18.8413   -5.7176 C   0  0  0  0  0  0  0  0  0  0  0  0
   28.6027  -20.1999   -5.8571 C   0  0  1  0  0  0  0  0  0  0  0  0
   28.0546  -20.6477   -4.5437 C   0  0  0  0  0  0  0  0  0  0  0  0
   26.8143  -20.6353   -4.3379 O   0  0  0  0  0  0  0  0  0  0  0  0
   28.8560  -21.0920   -3.5008 O   0  0  0  0  0  0  0  0  0  0  0  0
  1  5  1  0
  2  3  1  0
  2  1  1  0
  3  4  1  0
  4  5  1  0
  5  6  1  1
  6  7  2  0
  8  9  1  0
  9 10  2  0
  9 11  1  0
 12 11  1  1
 12 14  1  0
 13 12  1  0
 13  6  1  0
 14 15  2  0
 14 16  1  0
 16 20  1  0
 16 17  1  0
 17 18  1  0
 19 18  1  0
 20 19  1  0
 21 23  1  0
 20 21  1  1
 22 21  2  0
M  END
$$$$
