PNP.pdb
     RDKit          3D

 23 24  0  0  1  0  0  0  0  0999 V2000
   27.6008  -19.4242  -14.1052 N   0  0  0  0  0  0  0  0  0  0  0  0
   28.9505  -19.1014  -14.5964 C   0  0  0  0  0  0  0  0  0  0  0  0
   29.6100  -20.4785  -14.4785 C   0  0  0  0  0  0  0  0  0  0  0  0
   28.5073  -21.4729  -14.7698 C   0  0  0  0  0  0  0  0  0  0  0  0
   27.2941  -20.5838  -14.8799 C   0  0  1  0  0  0  0  0  0  0  0  0
   26.0471  -21.2602  -14.4666 C   0  0  0  0  0  0  0  0  0  0  0  0
   25.4698  -22.0365  -15.2799 O   0  0  0  0  0  0  0  0  0  0  0  0
   25.1935  -19.8299  -11.1042 N   0  0  0  0  0  0  0  0  0  0  0  0
   24.5138  -20.9686  -10.5875 C   0  0  0  0  0  0  0  0  0  0  0  0
   24.3633  -21.1005   -9.3611 O   0  0  0  0  0  0  0  0  0  0  0  0
   23.9708  -22.0216  -11.5018 C   0  0  0  0  0  0  0  0  0  0  0  0
   24.1304  -21.5856  -12.9659 C   0  0  2  0  0  0  0  0  0  0  0  0
   25.4381  -21.0995  -13.1994 N   0  0  0  0  0  0  0  0  0  0  0  0
   22.9962  -20.7245  -13.2772 C   0  0  0  0  0  0  0  0  0  0  0  0
   23.2373  -19.4862  -12.9800 O   0  0  0  0  0  0  0  0  0  0  0  0
   21.7482  -21.0594  -13.8287 N   0  0  0  0  0  0  0  0  0  0  0  0
   21.2531  -22.4191  -13.9395 C   0  0  0  0  0  0  0  0  0  0  0  0
   20.3379  -22.4149  -15.1131 C   0  0  0  0  0  0  0  0  0  0  0  0
   20.2849  -20.9897  -15.6161 C   0  0  0  0  0  0  0  0  0  0  0  0
   20.7172  -20.2193  -14.3644 C   0  0  1  0  0  0  0  0  0  0  0  0
   19.5716  -20.0623  -13.4216 C   0  0  0  0  0  0  0  0  0  0  0  0
   19.4792  -20.8017  -12.4088 O   0  0  0  0  0  0  0  0  0  0  0  0
   18.5684  -19.1192  -13.5995 O   0  0  0  0  0  0  0  0  0  0  0  0
  1  5  1  0
  2  3  1  0
  2  1  1  0
  3  4  1  0
  4  5  1  0
  5  6  1  1
  6  7  2  0
  8  9  1  0
  9 10  2  0
  9 11  1  0
 12 11  1  1
 12 14  1  0
 13 12  1  0
 13  6  1  0
 14 15  2  0
 14 16  1  0
 16 20  1  0
 16 17  1  0
 17 18  1  0
 19 18  1  0
 20 19  1  0
 21 23  1  0
 20 21  1  1
 22 21  2  0
M  END
$$$$
