PNP.pdb
     RDKit          3D

 23 24  0  0  1  0  0  0  0  0999 V2000
   23.0086  -10.5596  -14.6406 N   0  0  0  0  0  0  0  0  0  0  0  0
   24.1451  -11.4874  -14.5193 C   0  0  0  0  0  0  0  0  0  0  0  0
   24.1591  -12.0732  -15.9342 C   0  0  0  0  0  0  0  0  0  0  0  0
   23.7114  -10.9434  -16.8358 C   0  0  0  0  0  0  0  0  0  0  0  0
   23.3427   -9.8683  -15.8445 C   0  0  1  0  0  0  0  0  0  0  0  0
   22.2695   -8.9789  -16.3348 C   0  0  0  0  0  0  0  0  0  0  0  0
   22.4705   -8.2869  -17.3731 O   0  0  0  0  0  0  0  0  0  0  0  0
   18.8787  -10.3364  -17.1386 N   0  0  0  0  0  0  0  0  0  0  0  0
   18.1761   -9.6217  -16.1281 C   0  0  0  0  0  0  0  0  0  0  0  0
   17.1564  -10.1114  -15.6138 O   0  0  0  0  0  0  0  0  0  0  0  0
   18.6463   -8.2776  -15.6676 C   0  0  0  0  0  0  0  0  0  0  0  0
   20.0313   -7.9706  -16.2560 C   0  0  2  0  0  0  0  0  0  0  0  0
   21.0052   -8.8417  -15.7140 N   0  0  0  0  0  0  0  0  0  0  0  0
   20.2329   -6.5319  -16.1359 C   0  0  0  0  0  0  0  0  0  0  0  0
   20.9161   -6.2292  -15.0768 O   0  0  0  0  0  0  0  0  0  0  0  0
   19.7999   -5.4978  -16.9826 N   0  0  0  0  0  0  0  0  0  0  0  0
   18.8787   -5.6910  -18.0873 C   0  0  0  0  0  0  0  0  0  0  0  0
   19.2152   -4.6308  -19.0760 C   0  0  0  0  0  0  0  0  0  0  0  0
   20.3129   -3.7943  -18.4578 C   0  0  0  0  0  0  0  0  0  0  0  0
   20.1122   -4.0985  -16.9697 C   0  0  1  0  0  0  0  0  0  0  0  0
   18.9989   -3.2778  -16.4104 C   0  0  0  0  0  0  0  0  0  0  0  0
   17.8410   -3.7593  -16.3198 O   0  0  0  0  0  0  0  0  0  0  0  0
   19.1682   -1.9723  -15.9694 O   0  0  0  0  0  0  0  0  0  0  0  0
  1  5  1  0
  2  3  1  0
  2  1  1  0
  3  4  1  0
  4  5  1  0
  5  6  1  6
  6  7  2  0
  8  9  1  0
  9 10  2  0
  9 11  1  0
 12 11  1  1
 12 14  1  0
 13 12  1  0
 13  6  1  0
 14 15  2  0
 14 16  1  0
 16 20  1  0
 16 17  1  0
 17 18  1  0
 19 18  1  0
 20 19  1  0
 21 23  1  0
 20 21  1  6
 22 21  2  0
M  END
$$$$
