PNP.pdb
     RDKit          3D

 23 24  0  0  1  0  0  0  0  0999 V2000
   27.4292  -21.6490  -13.0070 N   0  0  0  0  0  0  0  0  0  0  0  0
   27.7853  -21.6912  -14.4347 C   0  0  0  0  0  0  0  0  0  0  0  0
   27.1237  -20.3943  -14.9096 C   0  0  0  0  0  0  0  0  0  0  0  0
   27.2396  -19.4389  -13.7419 C   0  0  0  0  0  0  0  0  0  0  0  0
   27.8196  -20.3192  -12.6633 C   0  0  1  0  0  0  0  0  0  0  0  0
   27.4048  -19.9117  -11.3050 C   0  0  0  0  0  0  0  0  0  0  0  0
   27.6321  -18.7293  -10.9211 O   0  0  0  0  0  0  0  0  0  0  0  0
   23.8170  -21.4204  -10.8401 N   0  0  0  0  0  0  0  0  0  0  0  0
   24.0782  -20.4250   -9.8570 C   0  0  0  0  0  0  0  0  0  0  0  0
   23.5382  -19.3090   -9.9421 O   0  0  0  0  0  0  0  0  0  0  0  0
   25.0002  -20.6986   -8.7105 C   0  0  0  0  0  0  0  0  0  0  0  0
   26.4383  -20.3080   -9.0821 C   0  0  2  0  0  0  0  0  0  0  0  0
   26.7573  -20.7667  -10.3816 N   0  0  0  0  0  0  0  0  0  0  0  0
   27.2878  -20.7110   -7.9681 C   0  0  0  0  0  0  0  0  0  0  0  0
   27.6421  -21.9545   -8.0594 O   0  0  0  0  0  0  0  0  0  0  0  0
   27.7402  -19.9550   -6.8738 N   0  0  0  0  0  0  0  0  0  0  0  0
   27.3507  -18.5790   -6.6266 C   0  0  0  0  0  0  0  0  0  0  0  0
   28.4873  -17.9712   -5.8827 C   0  0  0  0  0  0  0  0  0  0  0  0
   29.4997  -19.0729   -5.6625 C   0  0  0  0  0  0  0  0  0  0  0  0
   28.6154  -20.3167   -5.7972 C   0  0  1  0  0  0  0  0  0  0  0  0
   27.8724  -20.5737   -4.5291 C   0  0  0  0  0  0  0  0  0  0  0  0
   26.6422  -20.3248   -4.4546 O   0  0  0  0  0  0  0  0  0  0  0  0
   28.4755  -21.0876   -3.3891 O   0  0  0  0  0  0  0  0  0  0  0  0
  1  5  1  0
  2  3  1  0
  2  1  1  0
  3  4  1  0
  4  5  1  0
  5  6  1  1
  6  7  2  0
  8  9  1  0
  9 10  2  0
  9 11  1  0
 12 11  1  1
 12 14  1  0
 13 12  1  0
 13  6  1  0
 14 15  2  0
 14 16  1  0
 16 20  1  0
 16 17  1  0
 17 18  1  0
 19 18  1  0
 20 19  1  0
 21 23  1  0
 20 21  1  1
 22 21  2  0
M  END
$$$$
