PKM.pdb
     RDKit          3D

 25 25  0  0  1  0  0  0  0  0999 V2000
    5.5446  -19.5218   22.3210 N   0  0  0  0  0  0  0  0  0  0  0  0
    6.5049  -20.5560   22.5421 C   0  0  0  0  0  0  0  0  0  0  0  0
    7.0549  -20.3361   23.9573 C   0  0  0  0  0  0  0  0  0  0  0  0
    5.8243  -19.6760   24.5954 C   0  0  0  0  0  0  0  0  0  0  0  0
    5.4791  -18.6889   23.4998 C   0  0  1  0  0  0  0  0  0  0  0  0
    6.5891  -17.6747   23.4159 C   0  0  0  0  0  0  0  0  0  0  0  0
    7.0726  -17.1319   24.4438 O   0  0  0  0  0  0  0  0  0  0  0  0
    7.1437  -17.2823   22.1676 N   0  0  0  0  0  0  0  0  0  0  0  0
    7.6626  -15.9582   21.9013 C   0  0  1  0  0  0  0  0  0  0  0  0
    6.6013  -15.0213   21.4243 C   0  0  0  0  0  0  0  0  0  0  0  0
    7.2016  -13.6617   21.0573 C   0  0  0  0  0  0  0  0  0  0  0  0
    7.5665  -13.7596   19.5891 C   0  0  0  0  0  0  0  0  0  0  0  0
    8.2740  -12.5264   19.0901 C   0  0  0  0  0  0  0  0  0  0  0  0
    8.6642  -12.8155   17.7033 N   0  0  0  0  0  0  0  0  0  0  0  0
    8.4437  -15.5192   23.0402 C   0  0  0  0  0  0  0  0  0  0  0  0
    8.4317  -14.2969   23.3401 O   0  0  0  0  0  0  0  0  0  0  0  0
    9.9798  -12.9448   29.4723 C   0  0  0  0  0  0  0  0  0  0  0  0
    8.9153  -13.9604   28.4375 S   0  0  0  0  0  0  0  0  0  0  0  0
    9.9080  -14.8832   27.2600 C   0  0  0  0  0  0  0  0  0  0  0  0
    9.0800  -15.3683   26.0931 C   0  0  0  0  0  0  0  0  0  0  0  0
    9.9745  -15.8172   24.9536 C   0  0  2  0  0  0  0  0  0  0  0  0
    9.2350  -16.3633   23.8610 N   0  0  0  0  0  0  0  0  0  0  0  0
   10.9331  -16.8514   25.4388 C   0  0  0  0  0  0  0  0  0  0  0  0
   11.9440  -16.5134   26.3036 O   0  0  0  0  0  0  0  0  0  0  0  0
   10.7812  -18.0444   25.0264 O   0  0  0  0  0  0  0  0  0  0  0  0
  1  5  1  0
  1  2  1  0
  2  3  1  0
  4  3  1  0
  5  4  1  0
  5  6  1  6
  7  6  2  0
  8  6  1  0
  9  8  1  0
  9 10  1  1
 10 11  1  0
 11 12  1  0
 12 13  1  0
 13 14  1  0
 15 22  1  0
 15  9  1  0
 16 15  2  0
 18 17  1  0
 19 18  1  0
 21 20  1  1
 20 19  1  0
 21 23  1  0
 21 22  1  0
 23 24  1  0
 25 23  2  0
M  END
$$$$
