PKM.pdb
     RDKit          3D

 25 25  0  0  1  0  0  0  0  0999 V2000
    8.4778  -15.1351   18.2331 N   0  0  0  0  0  0  0  0  0  0  0  0
    7.3305  -14.3955   17.8119 C   0  0  0  0  0  0  0  0  0  0  0  0
    7.1540  -13.2605   18.8289 C   0  0  0  0  0  0  0  0  0  0  0  0
    8.6206  -13.0785   19.2456 C   0  0  0  0  0  0  0  0  0  0  0  0
    9.0040  -14.5314   19.4356 C   0  0  1  0  0  0  0  0  0  0  0  0
    8.2269  -15.0720   20.6068 C   0  0  0  0  0  0  0  0  0  0  0  0
    7.3265  -14.3996   21.1744 O   0  0  0  0  0  0  0  0  0  0  0  0
    8.4755  -16.3709   21.1270 N   0  0  0  0  0  0  0  0  0  0  0  0
    7.8030  -16.9119   22.2883 C   0  0  1  0  0  0  0  0  0  0  0  0
    7.8885  -18.4021   22.3472 C   0  0  0  0  0  0  0  0  0  0  0  0
    7.1686  -18.9392   23.5868 C   0  0  0  0  0  0  0  0  0  0  0  0
    7.2545  -20.4495   23.4864 C   0  0  0  0  0  0  0  0  0  0  0  0
    6.4552  -21.1424   24.5594 C   0  0  0  0  0  0  0  0  0  0  0  0
    6.6755  -22.5819   24.3639 N   0  0  0  0  0  0  0  0  0  0  0  0
    8.2460  -16.1951   23.4672 C   0  0  0  0  0  0  0  0  0  0  0  0
    9.4824  -16.0425   23.6466 O   0  0  0  0  0  0  0  0  0  0  0  0
    6.9316  -10.0159   28.0193 C   0  0  0  0  0  0  0  0  0  0  0  0
    6.1561  -11.3424   27.0843 S   0  0  0  0  0  0  0  0  0  0  0  0
    7.3760  -12.5934   26.6720 C   0  0  0  0  0  0  0  0  0  0  0  0
    6.8288  -13.6024   25.6896 C   0  0  0  0  0  0  0  0  0  0  0  0
    7.8797  -14.6419   25.3506 C   0  0  2  0  0  0  0  0  0  0  0  0
    7.3913  -15.6405   24.4543 N   0  0  0  0  0  0  0  0  0  0  0  0
    8.3482  -15.3143   26.5965 C   0  0  0  0  0  0  0  0  0  0  0  0
    7.9242  -16.5827   26.9053 O   0  0  0  0  0  0  0  0  0  0  0  0
    9.1460  -14.6764   27.3535 O   0  0  0  0  0  0  0  0  0  0  0  0
  1  5  1  0
  1  2  1  0
  2  3  1  0
  4  3  1  0
  5  4  1  0
  5  6  1  1
  7  6  2  0
  8  6  1  0
  9  8  1  0
  9 10  1  1
 10 11  1  0
 11 12  1  0
 12 13  1  0
 13 14  1  0
 15 22  1  0
 15  9  1  0
 16 15  2  0
 18 17  1  0
 19 18  1  0
 21 20  1  1
 20 19  1  0
 21 23  1  0
 21 22  1  0
 23 24  1  0
 25 23  2  0
M  END
$$$$
