PKM.pdb
     RDKit          3D

 25 25  0  0  1  0  0  0  0  0999 V2000
    8.4188  -14.5373   17.8580 N   0  0  0  0  0  0  0  0  0  0  0  0
    7.1864  -13.8153   17.8748 C   0  0  0  0  0  0  0  0  0  0  0  0
    7.2217  -12.9342   19.1302 C   0  0  0  0  0  0  0  0  0  0  0  0
    8.7398  -12.7325   19.2416 C   0  0  0  0  0  0  0  0  0  0  0  0
    9.1943  -14.1597   19.0171 C   0  0  1  0  0  0  0  0  0  0  0  0
    8.7249  -14.9900   20.1824 C   0  0  0  0  0  0  0  0  0  0  0  0
    7.5831  -14.8372   20.6903 O   0  0  0  0  0  0  0  0  0  0  0  0
    9.5527  -15.9878   20.7645 N   0  0  0  0  0  0  0  0  0  0  0  0
    9.1734  -16.7699   21.9213 C   0  0  1  0  0  0  0  0  0  0  0  0
    9.8763  -18.0871   21.9675 C   0  0  0  0  0  0  0  0  0  0  0  0
    9.3065  -19.0443   20.9175 C   0  0  0  0  0  0  0  0  0  0  0  0
   10.1414  -20.3056   21.0190 C   0  0  0  0  0  0  0  0  0  0  0  0
    9.7353  -21.3457   20.0073 C   0  0  0  0  0  0  0  0  0  0  0  0
   10.6563  -22.4753   20.1944 N   0  0  0  0  0  0  0  0  0  0  0  0
    9.2792  -15.9423   23.1061 C   0  0  0  0  0  0  0  0  0  0  0  0
   10.2166  -15.1048   23.1706 O   0  0  0  0  0  0  0  0  0  0  0  0
    6.5057  -10.8091   27.8541 C   0  0  0  0  0  0  0  0  0  0  0  0
    6.0298  -12.3325   27.0247 S   0  0  0  0  0  0  0  0  0  0  0  0
    7.4793  -13.3543   26.7449 C   0  0  0  0  0  0  0  0  0  0  0  0
    7.2829  -14.2914   25.5762 C   0  0  0  0  0  0  0  0  0  0  0  0
    8.5526  -15.0732   25.2993 C   0  0  2  0  0  0  0  0  0  0  0  0
    8.4019  -15.9954   24.2196 N   0  0  0  0  0  0  0  0  0  0  0  0
    8.9555  -15.8338   26.5171 C   0  0  0  0  0  0  0  0  0  0  0  0
    8.9821  -17.2061   26.5044 O   0  0  0  0  0  0  0  0  0  0  0  0
    9.2700  -15.1717   27.5558 O   0  0  0  0  0  0  0  0  0  0  0  0
  1  5  1  0
  1  2  1  0
  2  3  1  0
  4  3  1  0
  5  4  1  0
  5  6  1  1
  7  6  2  0
  8  6  1  0
  9  8  1  0
  9 10  1  1
 10 11  1  0
 11 12  1  0
 12 13  1  0
 13 14  1  0
 15 22  1  0
 15  9  1  0
 16 15  2  0
 18 17  1  0
 19 18  1  0
 21 20  1  1
 20 19  1  0
 21 23  1  0
 21 22  1  0
 23 24  1  0
 25 23  2  0
M  END
$$$$
