PKM.pdb
     RDKit          3D

 25 25  0  0  1  0  0  0  0  0999 V2000
    9.1685  -14.4772   18.0591 N   0  0  0  0  0  0  0  0  0  0  0  0
    7.8217  -14.2904   17.6210 C   0  0  0  0  0  0  0  0  0  0  0  0
    7.1539  -13.3812   18.6607 C   0  0  0  0  0  0  0  0  0  0  0  0
    8.3899  -12.5994   19.1281 C   0  0  0  0  0  0  0  0  0  0  0  0
    9.3607  -13.7502   19.2929 C   0  0  1  0  0  0  0  0  0  0  0  0
    8.8735  -14.6161   20.4246 C   0  0  0  0  0  0  0  0  0  0  0  0
    7.9332  -14.2556   21.1801 O   0  0  0  0  0  0  0  0  0  0  0  0
    9.4553  -15.8847   20.6925 N   0  0  0  0  0  0  0  0  0  0  0  0
    9.1115  -16.6988   21.8383 C   0  0  1  0  0  0  0  0  0  0  0  0
    9.6990  -18.0696   21.7537 C   0  0  0  0  0  0  0  0  0  0  0  0
    9.0062  -18.8914   20.6636 C   0  0  0  0  0  0  0  0  0  0  0  0
    9.6958  -20.2415   20.6701 C   0  0  0  0  0  0  0  0  0  0  0  0
    9.1117  -21.1891   19.6545 C   0  0  0  0  0  0  0  0  0  0  0  0
    9.9175  -22.4153   19.7331 N   0  0  0  0  0  0  0  0  0  0  0  0
    9.3911  -15.9526   23.0486 C   0  0  0  0  0  0  0  0  0  0  0  0
   10.5165  -15.4016   23.1667 O   0  0  0  0  0  0  0  0  0  0  0  0
    5.2132  -12.5362   26.4462 C   0  0  0  0  0  0  0  0  0  0  0  0
    6.7048  -12.1578   27.3775 S   0  0  0  0  0  0  0  0  0  0  0  0
    8.0250  -13.2758   26.8973 C   0  0  0  0  0  0  0  0  0  0  0  0
    7.6926  -14.0149   25.6223 C   0  0  0  0  0  0  0  0  0  0  0  0
    8.8301  -14.9370   25.2275 C   0  0  2  0  0  0  0  0  0  0  0  0
    8.4897  -15.7865   24.1313 N   0  0  0  0  0  0  0  0  0  0  0  0
    9.2145  -15.7931   26.3865 C   0  0  0  0  0  0  0  0  0  0  0  0
    9.0421  -17.1539   26.3350 O   0  0  0  0  0  0  0  0  0  0  0  0
    9.7021  -15.2224   27.4126 O   0  0  0  0  0  0  0  0  0  0  0  0
  1  5  1  0
  1  2  1  0
  2  3  1  0
  4  3  1  0
  5  4  1  0
  5  6  1  1
  7  6  2  0
  8  6  1  0
  9  8  1  0
  9 10  1  1
 10 11  1  0
 11 12  1  0
 12 13  1  0
 13 14  1  0
 15 22  1  0
 15  9  1  0
 16 15  2  0
 18 17  1  0
 19 18  1  0
 21 20  1  1
 20 19  1  0
 21 23  1  0
 21 22  1  0
 23 24  1  0
 25 23  2  0
M  END
$$$$
