REI.pdb
     RDKit          3D

 29 28  0  0  1  0  0  0  0  0999 V2000
    5.9179  -17.2835   14.4789 N   0  0  0  0  0  0  0  0  0  0  0  0
    6.0408  -18.1408   15.5941 C   0  0  0  0  0  0  0  0  0  0  0  0
    5.4207  -19.2914   15.6503 N   0  0  0  0  0  0  0  0  0  0  0  0
    6.8444  -17.8133   16.7288 N   0  0  0  0  0  0  0  0  0  0  0  0
    7.0612  -16.4118   17.0929 C   0  0  0  0  0  0  0  0  0  0  0  0
    7.8068  -16.3508   18.4057 C   0  0  0  0  0  0  0  0  0  0  0  0
    7.9319  -14.9505   18.9077 C   0  0  0  0  0  0  0  0  0  0  0  0
    9.0894  -14.7055   19.8305 C   0  0  2  0  0  0  0  0  0  0  0  0
   10.3600  -15.1248   19.3390 N   0  0  0  0  0  0  0  0  0  0  0  0
    8.8253  -15.1705   21.2223 C   0  0  0  0  0  0  0  0  0  0  0  0
    7.8090  -14.7582   21.8009 O   0  0  0  0  0  0  0  0  0  0  0  0
    5.4779  -19.9316   16.4475 N   0  0  0  0  0  0  0  0  0  0  0  0
    9.6820  -16.0582   21.9070 C   0  0  1  0  0  0  0  0  0  0  0  0
    9.3981  -16.6014   23.2149 C   0  0  0  0  0  0  0  0  0  0  0  0
   10.2549  -17.8009   23.5389 C   0  0  0  0  0  0  0  0  0  0  0  0
    9.8298  -18.4062   24.8839 C   0  0  0  0  0  0  0  0  0  0  0  0
   10.7357  -19.5667   25.1147 O   0  0  0  0  0  0  0  0  0  0  0  0
   11.7996  -19.4973   25.7697 C   0  0  0  0  0  0  0  0  0  0  0  0
    9.5760  -15.6062   24.2915 O   0  0  0  0  0  0  0  0  0  0  0  0
   10.5477  -14.8080   24.3388 O   0  0  0  0  0  0  0  0  0  0  0  0
   10.3509  -20.7785   24.5597 C   0  0  0  0  0  0  0  0  0  0  0  0
    5.6861  -12.3596   25.3643 C   0  0  0  0  0  0  0  0  0  0  0  0
    7.0721  -12.9836   25.2544 C   0  0  2  0  0  0  0  0  0  0  0  0
    7.3850  -13.8017   26.4565 C   0  0  0  0  0  0  0  0  0  0  0  0
    7.4855  -12.8667   27.6705 C   0  0  2  0  0  0  0  0  0  0  0  0
    8.6412  -14.5933   26.4136 N   0  0  0  0  0  0  0  0  0  0  0  0
    8.6004  -15.5483   25.3238 C   0  0  0  0  0  0  0  0  0  0  0  0
    9.0854  -15.1890   27.6709 O   0  0  0  0  0  0  0  0  0  0  0  0
    9.5420  -14.5918   28.6498 O   0  0  0  0  0  0  0  0  0  0  0  0
  1  2  1  0
  2  3  2  0
  4  2  1  0
  4  5  1  0
  6  5  1  0
  7  6  1  0
  8 10  1  0
  8  7  1  0
  8  9  1  6
 10 11  2  0
 12 13  1  0
 12 10  1  0
 13 14  1  1
 15 14  1  0
 16 20  1  0
 16 15  1  0
 17 16  2  0
 18 19  2  0
 18 13  1  0
 21 22  1  0
 22 23  1  0
 23 25  1  0
 23 24  1  1
 25 26  1  6
 25 27  1  0
 26 18  1  0
 27 29  1  0
 28 27  2  0
M  END
$$$$
