REI.pdb
     RDKit          3D

 29 28  0  0  1  0  0  0  0  0999 V2000
   10.3014  -13.2655   19.4777 N   0  0  0  0  0  0  0  0  0  0  0  0
    9.1331  -12.4926   19.3007 C   0  0  0  0  0  0  0  0  0  0  0  0
    9.0896  -11.2258   19.6246 N   0  0  0  0  0  0  0  0  0  0  0  0
    7.9279  -13.0364   18.7601 N   0  0  0  0  0  0  0  0  0  0  0  0
    7.8590  -14.4552   18.4052 C   0  0  0  0  0  0  0  0  0  0  0  0
    6.7377  -15.1060   19.1812 C   0  0  0  0  0  0  0  0  0  0  0  0
    7.1555  -15.4560   20.5709 C   0  0  0  0  0  0  0  0  0  0  0  0
    7.8658  -16.7703   20.7107 C   0  0  2  0  0  0  0  0  0  0  0  0
    7.2030  -17.8869   20.1228 N   0  0  0  0  0  0  0  0  0  0  0  0
    8.3182  -17.0352   22.1065 C   0  0  0  0  0  0  0  0  0  0  0  0
    7.4854  -17.4389   22.9317 O   0  0  0  0  0  0  0  0  0  0  0  0
    8.2302  -10.6689   19.6339 N   0  0  0  0  0  0  0  0  0  0  0  0
    9.6519  -16.8461   22.5265 C   0  0  2  0  0  0  0  0  0  0  0  0
   10.1065  -17.0605   23.8806 C   0  0  0  0  0  0  0  0  0  0  0  0
   11.4710  -17.7032   23.9353 C   0  0  0  0  0  0  0  0  0  0  0  0
   11.4434  -19.0632   23.2242 C   0  0  0  0  0  0  0  0  0  0  0  0
   12.8344  -19.5926   23.3000 O   0  0  0  0  0  0  0  0  0  0  0  0
   13.2001  -20.4689   24.1147 C   0  0  0  0  0  0  0  0  0  0  0  0
   10.1565  -15.8101   24.6650 O   0  0  0  0  0  0  0  0  0  0  0  0
   10.8231  -14.8021   24.3138 O   0  0  0  0  0  0  0  0  0  0  0  0
   13.7525  -19.0646   22.4038 C   0  0  0  0  0  0  0  0  0  0  0  0
    6.3310  -12.7722   25.5962 C   0  0  0  0  0  0  0  0  0  0  0  0
    7.7122  -13.4041   25.4720 C   0  0  2  0  0  0  0  0  0  0  0  0
    8.2050  -13.8721   26.7951 C   0  0  0  0  0  0  0  0  0  0  0  0
    8.4047  -12.6492   27.7021 C   0  0  2  0  0  0  0  0  0  0  0  0
    9.4834  -14.6284   26.7990 N   0  0  0  0  0  0  0  0  0  0  0  0
    9.4144  -15.7438   25.8756 C   0  0  0  0  0  0  0  0  0  0  0  0
   10.0184  -15.0072   28.1041 O   0  0  0  0  0  0  0  0  0  0  0  0
   10.4965  -14.2503   28.9537 O   0  0  0  0  0  0  0  0  0  0  0  0
  1  2  1  0
  2  3  2  0
  4  2  1  0
  4  5  1  0
  6  5  1  0
  7  6  1  0
  8 10  1  0
  8  7  1  0
  8  9  1  1
 10 11  2  0
 12 13  1  0
 12 10  1  0
 13 14  1  6
 15 14  1  0
 16 20  1  0
 16 15  1  0
 17 16  2  0
 18 19  2  0
 18 13  1  0
 21 22  1  0
 22 23  1  0
 23 25  1  0
 23 24  1  1
 25 26  1  6
 25 27  1  0
 26 18  1  0
 27 29  1  0
 28 27  2  0
M  END
$$$$
