REI.pdb
     RDKit          3D

 29 28  0  0  1  0  0  0  0  0999 V2000
    8.8527  -11.5185   20.1398 N   0  0  0  0  0  0  0  0  0  0  0  0
    9.2892  -12.7684   19.6489 C   0  0  0  0  0  0  0  0  0  0  0  0
   10.5007  -12.9419   19.1865 N   0  0  0  0  0  0  0  0  0  0  0  0
    8.4448  -13.9203   19.6238 N   0  0  0  0  0  0  0  0  0  0  0  0
    7.1218  -13.8724   20.2490 C   0  0  0  0  0  0  0  0  0  0  0  0
    6.3948  -15.1672   19.9696 C   0  0  0  0  0  0  0  0  0  0  0  0
    7.3229  -16.3364   19.9744 C   0  0  0  0  0  0  0  0  0  0  0  0
    6.9449  -17.4462   20.9107 C   0  0  2  0  0  0  0  0  0  0  0  0
    5.5600  -17.7831   20.9289 N   0  0  0  0  0  0  0  0  0  0  0  0
    7.5146  -17.2667   22.2769 C   0  0  0  0  0  0  0  0  0  0  0  0
    6.7348  -17.0858   23.2239 O   0  0  0  0  0  0  0  0  0  0  0  0
   10.8333  -13.8181   18.7735 N   0  0  0  0  0  0  0  0  0  0  0  0
    8.9012  -17.2940   22.5364 C   0  0  2  0  0  0  0  0  0  0  0  0
    9.4711  -17.2868   23.8636 C   0  0  0  0  0  0  0  0  0  0  0  0
   10.8935  -17.7912   23.8825 C   0  0  0  0  0  0  0  0  0  0  0  0
   11.3963  -17.9004   25.3286 C   0  0  0  0  0  0  0  0  0  0  0  0
   12.8160  -18.3439   25.2356 O   0  0  0  0  0  0  0  0  0  0  0  0
   13.2361  -19.1515   24.3772 C   0  0  0  0  0  0  0  0  0  0  0  0
    9.4520  -15.9448   24.4800 O   0  0  0  0  0  0  0  0  0  0  0  0
    9.7893  -14.8993   23.8662 O   0  0  0  0  0  0  0  0  0  0  0  0
   13.6972  -17.8140   26.1669 C   0  0  0  0  0  0  0  0  0  0  0  0
    5.8226  -12.7300   25.8446 C   0  0  0  0  0  0  0  0  0  0  0  0
    7.2406  -13.2240   25.5843 C   0  0  2  0  0  0  0  0  0  0  0  0
    7.7563  -13.9989   26.7445 C   0  0  0  0  0  0  0  0  0  0  0  0
    7.8112  -13.0702   27.9662 C   0  0  2  0  0  0  0  0  0  0  0  0
    9.1065  -14.6000   26.5955 N   0  0  0  0  0  0  0  0  0  0  0  0
    9.0312  -15.8306   25.8330 C   0  0  0  0  0  0  0  0  0  0  0  0
    9.9024  -14.7367   27.8123 O   0  0  0  0  0  0  0  0  0  0  0  0
   10.3454  -13.8209   28.5112 O   0  0  0  0  0  0  0  0  0  0  0  0
  1  2  1  0
  2  3  2  0
  4  2  1  0
  4  5  1  0
  6  5  1  0
  7  6  1  0
  8 10  1  0
  8  7  1  0
  8  9  1  1
 10 11  2  0
 12 13  1  0
 12 10  1  0
 13 14  1  6
 15 14  1  0
 16 20  1  0
 16 15  1  0
 17 16  2  0
 18 19  2  0
 18 13  1  0
 21 22  1  0
 22 23  1  0
 23 25  1  0
 23 24  1  1
 25 26  1  6
 25 27  1  0
 26 18  1  0
 27 29  1  0
 28 27  2  0
M  END
$$$$
