REI.pdb
     RDKit          3D

 29 28  0  0  1  0  0  0  0  0999 V2000
    8.0073  -12.7481   17.5798 N   0  0  0  0  0  0  0  0  0  0  0  0
    8.2105  -14.0348   17.0350 C   0  0  0  0  0  0  0  0  0  0  0  0
    8.1417  -14.2564   15.7474 N   0  0  0  0  0  0  0  0  0  0  0  0
    8.5028  -15.1740   17.8457 N   0  0  0  0  0  0  0  0  0  0  0  0
    7.5847  -16.3144   17.8650 C   0  0  0  0  0  0  0  0  0  0  0  0
    6.2556  -15.8706   18.4306 C   0  0  0  0  0  0  0  0  0  0  0  0
    6.1324  -16.2009   19.8811 C   0  0  0  0  0  0  0  0  0  0  0  0
    6.8182  -15.2453   20.8127 C   0  0  2  0  0  0  0  0  0  0  0  0
    7.6668  -14.2867   20.1862 N   0  0  0  0  0  0  0  0  0  0  0  0
    7.4716  -15.9316   21.9639 C   0  0  0  0  0  0  0  0  0  0  0  0
    6.7692  -16.6230   22.7165 O   0  0  0  0  0  0  0  0  0  0  0  0
    8.2126  -15.1864   15.3244 N   0  0  0  0  0  0  0  0  0  0  0  0
    8.8529  -15.8272   22.2320 C   0  0  2  0  0  0  0  0  0  0  0  0
    9.4873  -16.3751   23.4083 C   0  0  0  0  0  0  0  0  0  0  0  0
   10.8546  -16.9424   23.1140 C   0  0  0  0  0  0  0  0  0  0  0  0
   11.4180  -17.6371   24.3613 C   0  0  0  0  0  0  0  0  0  0  0  0
   12.7610  -18.1521   23.9712 O   0  0  0  0  0  0  0  0  0  0  0  0
   13.0408  -19.3688   23.8888 C   0  0  0  0  0  0  0  0  0  0  0  0
    9.6265  -15.3803   24.4910 O   0  0  0  0  0  0  0  0  0  0  0  0
    9.9927  -14.1927   24.2932 O   0  0  0  0  0  0  0  0  0  0  0  0
   13.7346  -17.2047   23.6896 C   0  0  0  0  0  0  0  0  0  0  0  0
    6.6319  -12.3965   26.2221 C   0  0  0  0  0  0  0  0  0  0  0  0
    7.9471  -13.1310   25.9916 C   0  0  2  0  0  0  0  0  0  0  0  0
    8.2374  -14.0677   27.1099 C   0  0  0  0  0  0  0  0  0  0  0  0
    8.4038  -13.2513   28.3998 C   0  0  2  0  0  0  0  0  0  0  0  0
    9.4514  -14.9124   26.9717 N   0  0  0  0  0  0  0  0  0  0  0  0
    9.3316  -15.7861   25.8211 C   0  0  0  0  0  0  0  0  0  0  0  0
    9.9029  -15.6146   28.1700 O   0  0  0  0  0  0  0  0  0  0  0  0
   10.3712  -15.1046   29.1918 O   0  0  0  0  0  0  0  0  0  0  0  0
  1  2  1  0
  2  3  2  0
  4  2  1  0
  4  5  1  0
  6  5  1  0
  7  6  1  0
  8 10  1  0
  8  7  1  0
  8  9  1  6
 10 11  2  0
 12 13  1  0
 12 10  1  0
 13 14  1  6
 15 14  1  0
 16 20  1  0
 16 15  1  0
 17 16  2  0
 18 19  2  0
 18 13  1  0
 21 22  1  0
 22 23  1  0
 23 25  1  0
 23 24  1  1
 25 26  1  6
 25 27  1  0
 26 18  1  0
 27 29  1  0
 28 27  2  0
M  END
$$$$
