REI.pdb
     RDKit          3D

 29 28  0  0  1  0  0  0  0  0999 V2000
    8.7436  -13.8330   13.7188 N   0  0  0  0  0  0  0  0  0  0  0  0
    7.8479  -14.0633   14.7858 C   0  0  0  0  0  0  0  0  0  0  0  0
    7.0525  -15.1018   14.8055 N   0  0  0  0  0  0  0  0  0  0  0  0
    7.7494  -13.1851   15.9081 N   0  0  0  0  0  0  0  0  0  0  0  0
    8.1053  -13.6630   17.2455 C   0  0  0  0  0  0  0  0  0  0  0  0
    6.9427  -14.4386   17.8199 C   0  0  0  0  0  0  0  0  0  0  0  0
    6.9733  -14.4593   19.3122 C   0  0  0  0  0  0  0  0  0  0  0  0
    8.3426  -14.3945   19.9224 C   0  0  2  0  0  0  0  0  0  0  0  0
    9.4092  -14.8064   19.0713 N   0  0  0  0  0  0  0  0  0  0  0  0
    8.4026  -15.0257   21.2719 C   0  0  0  0  0  0  0  0  0  0  0  0
    7.5021  -14.7699   22.0852 O   0  0  0  0  0  0  0  0  0  0  0  0
    6.4187  -15.3199   15.5799 N   0  0  0  0  0  0  0  0  0  0  0  0
    9.4392  -15.9001   21.6612 C   0  0  1  0  0  0  0  0  0  0  0  0
    9.4887  -16.5694   22.9402 C   0  0  0  0  0  0  0  0  0  0  0  0
   10.4982  -17.6911   22.9648 C   0  0  0  0  0  0  0  0  0  0  0  0
   10.5325  -18.3408   24.3550 C   0  0  0  0  0  0  0  0  0  0  0  0
   11.5709  -19.4073   24.2826 O   0  0  0  0  0  0  0  0  0  0  0  0
   11.4791  -20.4167   23.5489 C   0  0  0  0  0  0  0  0  0  0  0  0
    9.8014  -15.6463   24.0499 O   0  0  0  0  0  0  0  0  0  0  0  0
   10.8709  -14.9865   24.1173 O   0  0  0  0  0  0  0  0  0  0  0  0
   12.6904  -19.2434   25.0853 C   0  0  0  0  0  0  0  0  0  0  0  0
    6.0890  -12.2191   25.3847 C   0  0  0  0  0  0  0  0  0  0  0  0
    7.4169  -12.9303   25.1536 C   0  0  2  0  0  0  0  0  0  0  0  0
    7.8147  -13.7183   26.3507 C   0  0  0  0  0  0  0  0  0  0  0  0
    8.1023  -12.7444   27.5026 C   0  0  2  0  0  0  0  0  0  0  0  0
    9.0115  -14.5865   26.2078 N   0  0  0  0  0  0  0  0  0  0  0  0
    8.8459  -15.4968   25.0918 C   0  0  0  0  0  0  0  0  0  0  0  0
    9.4865  -15.2545   27.4165 O   0  0  0  0  0  0  0  0  0  0  0  0
    9.3294  -16.4421   27.7135 O   0  0  0  0  0  0  0  0  0  0  0  0
  1  2  1  0
  2  3  2  0
  4  2  1  0
  4  5  1  0
  6  5  1  0
  7  6  1  0
  8 10  1  0
  8  7  1  0
  8  9  1  6
 10 11  2  0
 12 13  1  0
 12 10  1  0
 13 14  1  1
 15 14  1  0
 16 20  1  0
 16 15  1  0
 17 16  2  0
 18 19  2  0
 18 13  1  0
 21 22  1  0
 22 23  1  0
 23 25  1  0
 23 24  1  1
 25 26  1  6
 25 27  1  0
 26 18  1  0
 27 29  1  0
 28 27  2  0
M  END
$$$$
