REI.pdb
     RDKit          3D

 29 28  0  0  1  0  0  0  0  0999 V2000
    7.8515  -12.2153   17.2139 N   0  0  0  0  0  0  0  0  0  0  0  0
    8.2380  -13.5640   17.0544 C   0  0  0  0  0  0  0  0  0  0  0  0
    8.0437  -14.2082   15.9324 N   0  0  0  0  0  0  0  0  0  0  0  0
    8.8629  -14.3118   18.0988 N   0  0  0  0  0  0  0  0  0  0  0  0
    8.0457  -15.0846   19.0361 C   0  0  0  0  0  0  0  0  0  0  0  0
    7.7977  -14.2571   20.2758 C   0  0  0  0  0  0  0  0  0  0  0  0
    7.1235  -15.0499   21.3460 C   0  0  0  0  0  0  0  0  0  0  0  0
    7.5824  -16.4731   21.4694 C   0  0  2  0  0  0  0  0  0  0  0  0
    6.6902  -17.4495   20.9379 N   0  0  0  0  0  0  0  0  0  0  0  0
    8.0560  -16.8089   22.8428 C   0  0  0  0  0  0  0  0  0  0  0  0
    7.2204  -16.8765   23.7566 O   0  0  0  0  0  0  0  0  0  0  0  0
    8.3902  -15.1547   15.7510 N   0  0  0  0  0  0  0  0  0  0  0  0
    9.4125  -17.0522   23.1453 C   0  0  2  0  0  0  0  0  0  0  0  0
    9.8903  -17.4188   24.4581 C   0  0  0  0  0  0  0  0  0  0  0  0
   11.1143  -18.3000   24.4004 C   0  0  0  0  0  0  0  0  0  0  0  0
   11.5260  -18.7260   25.8164 C   0  0  0  0  0  0  0  0  0  0  0  0
   12.7783  -19.5179   25.6573 O   0  0  0  0  0  0  0  0  0  0  0  0
   13.9126  -19.0051   25.5312 C   0  0  0  0  0  0  0  0  0  0  0  0
   10.2104  -16.2428   25.2923 O   0  0  0  0  0  0  0  0  0  0  0  0
   11.0571  -15.3727   24.9612 O   0  0  0  0  0  0  0  0  0  0  0  0
   12.6467  -20.8990   25.6527 C   0  0  0  0  0  0  0  0  0  0  0  0
    7.0154  -12.6026   26.3639 C   0  0  0  0  0  0  0  0  0  0  0  0
    8.2677  -13.4563   26.2049 C   0  0  2  0  0  0  0  0  0  0  0  0
    8.6724  -14.0558   27.5046 C   0  0  0  0  0  0  0  0  0  0  0  0
    9.0781  -12.9236   28.4593 C   0  0  2  0  0  0  0  0  0  0  0  0
    9.8025  -15.0192   27.4694 N   0  0  0  0  0  0  0  0  0  0  0  0
    9.5272  -16.0878   26.5292 C   0  0  0  0  0  0  0  0  0  0  0  0
   10.2877  -15.5098   28.7565 O   0  0  0  0  0  0  0  0  0  0  0  0
   10.0237  -16.5963   29.2792 O   0  0  0  0  0  0  0  0  0  0  0  0
  1  2  1  0
  2  3  2  0
  4  2  1  0
  4  5  1  0
  6  5  1  0
  7  6  1  0
  8 10  1  0
  8  7  1  0
  8  9  1  1
 10 11  2  0
 12 13  1  0
 12 10  1  0
 13 14  1  6
 15 14  1  0
 16 20  1  0
 16 15  1  0
 17 16  2  0
 18 19  2  0
 18 13  1  0
 21 22  1  0
 22 23  1  0
 23 25  1  0
 23 24  1  1
 25 26  1  6
 25 27  1  0
 26 18  1  0
 27 29  1  0
 28 27  2  0
M  END
$$$$
