REI.pdb
     RDKit          3D

 29 28  0  0  1  0  0  0  0  0999 V2000
    7.4073  -14.0738   16.2533 N   0  0  0  0  0  0  0  0  0  0  0  0
    8.7130  -14.1315   16.7876 C   0  0  0  0  0  0  0  0  0  0  0  0
    9.6320  -14.9109   16.2781 N   0  0  0  0  0  0  0  0  0  0  0  0
    9.1171  -13.3492   17.9125 N   0  0  0  0  0  0  0  0  0  0  0  0
    8.1106  -12.6808   18.7393 C   0  0  0  0  0  0  0  0  0  0  0  0
    7.1424  -13.7117   19.2712 C   0  0  0  0  0  0  0  0  0  0  0  0
    7.5313  -14.1875   20.6317 C   0  0  0  0  0  0  0  0  0  0  0  0
    7.3221  -15.6527   20.8782 C   0  0  2  0  0  0  0  0  0  0  0  0
    6.0317  -16.1506   20.5338 N   0  0  0  0  0  0  0  0  0  0  0  0
    7.7618  -16.0768   22.2383 C   0  0  0  0  0  0  0  0  0  0  0  0
    6.9008  -16.2294   23.1175 O   0  0  0  0  0  0  0  0  0  0  0  0
    9.5273  -15.4112   15.3906 N   0  0  0  0  0  0  0  0  0  0  0  0
    9.1141  -16.3112   22.5658 C   0  0  2  0  0  0  0  0  0  0  0  0
    9.5563  -16.8077   23.8481 C   0  0  0  0  0  0  0  0  0  0  0  0
   10.7848  -17.6774   23.7366 C   0  0  0  0  0  0  0  0  0  0  0  0
   11.1154  -18.3020   25.0991 C   0  0  0  0  0  0  0  0  0  0  0  0
   12.3199  -19.1513   24.8782 O   0  0  0  0  0  0  0  0  0  0  0  0
   12.7569  -19.4551   23.7458 C   0  0  0  0  0  0  0  0  0  0  0  0
    9.8486  -15.7212   24.8050 O   0  0  0  0  0  0  0  0  0  0  0  0
   10.6322  -14.7702   24.5499 O   0  0  0  0  0  0  0  0  0  0  0  0
   12.9718  -19.6160   26.0113 C   0  0  0  0  0  0  0  0  0  0  0  0
    6.4064  -12.4811   26.4210 C   0  0  0  0  0  0  0  0  0  0  0  0
    7.7170  -13.1944   26.1115 C   0  0  2  0  0  0  0  0  0  0  0  0
    8.2162  -13.9326   27.3024 C   0  0  0  0  0  0  0  0  0  0  0  0
    8.5361  -12.9161   28.4080 C   0  0  2  0  0  0  0  0  0  0  0  0
    9.4340  -14.7608   27.1091 N   0  0  0  0  0  0  0  0  0  0  0  0
    9.2124  -15.7531   26.0758 C   0  0  0  0  0  0  0  0  0  0  0  0
   10.0435  -15.3231   28.3113 O   0  0  0  0  0  0  0  0  0  0  0  0
    9.9773  -16.4949   28.6933 O   0  0  0  0  0  0  0  0  0  0  0  0
  1  2  1  0
  2  3  2  0
  4  2  1  0
  4  5  1  0
  6  5  1  0
  7  6  1  0
  8 10  1  0
  8  7  1  0
  8  9  1  1
 10 11  2  0
 12 13  1  0
 12 10  1  0
 13 14  1  6
 15 14  1  0
 16 20  1  0
 16 15  1  0
 17 16  2  0
 18 19  2  0
 18 13  1  0
 21 22  1  0
 22 23  1  0
 23 25  1  0
 23 24  1  1
 25 26  1  6
 25 27  1  0
 26 18  1  0
 27 29  1  0
 28 27  2  0
M  END
$$$$
