DIK.pdb
     RDKit          3D

 26 25  0  0  1  0  0  0  0  0999 V2000
   22.6165  -20.5869   -8.2568 N   0  0  0  0  0  0  0  0  0  0  0  0
   22.9685  -21.4534   -9.3402 C   0  0  1  0  0  0  0  0  0  0  0  0
   21.7492  -21.8635  -10.1586 C   0  0  0  0  0  0  0  0  0  0  0  0
   20.8307  -22.6027   -9.2650 C   0  0  0  0  0  0  0  0  0  0  0  0
   19.5764  -22.3900   -9.3394 O   0  0  0  0  0  0  0  0  0  0  0  0
   23.9084  -20.7912  -10.3026 C   0  0  0  0  0  0  0  0  0  0  0  0
   23.6868  -19.5846  -10.5856 O   0  0  0  0  0  0  0  0  0  0  0  0
   21.2790  -23.5368   -8.3292 O   0  0  0  0  0  0  0  0  0  0  0  0
   29.0841  -21.3776   -9.6716 C   0  0  0  0  0  0  0  0  0  0  0  0
   27.6913  -20.8321  -10.0224 C   0  0  0  0  0  0  0  0  0  0  0  0
   27.3144  -21.2380  -11.4081 C   0  0  2  0  0  0  0  0  0  0  0  0
   28.3295  -20.5993  -12.3508 C   0  0  0  0  0  0  0  0  0  0  0  0
   25.9179  -20.8139  -11.7460 C   0  0  2  0  0  0  0  0  0  0  0  0
   24.9802  -21.5119  -10.8477 N   0  0  0  0  0  0  0  0  0  0  0  0
   25.5104  -21.0653  -13.1463 C   0  0  0  0  0  0  0  0  0  0  0  0
   25.5159  -22.2646  -13.6085 O   0  0  0  0  0  0  0  0  0  0  0  0
   25.0942  -20.0517  -14.0405 N   0  0  0  0  0  0  0  0  0  0  0  0
   24.6457  -20.4525  -15.3776 C   0  0  1  0  0  0  0  0  0  0  0  0
   23.1624  -20.0941  -15.5168 C   0  0  0  0  0  0  0  0  0  0  0  0
   22.6847  -20.5256  -16.8479 C   0  0  0  0  0  0  0  0  0  0  0  0
   21.2216  -20.2136  -17.0893 C   0  0  0  0  0  0  0  0  0  0  0  0
   20.7161  -20.7368  -18.3986 C   0  0  0  0  0  0  0  0  0  0  0  0
   19.3329  -20.4640  -18.6368 N   0  0  0  0  0  0  0  0  0  0  0  0
   25.4967  -19.7845  -16.3715 C   0  0  0  0  0  0  0  0  0  0  0  0
   25.6319  -20.3171  -17.6506 O   0  0  0  0  0  0  0  0  0  0  0  0
   26.1378  -18.7325  -16.1546 O   0  0  0  0  0  0  0  0  0  0  0  0
  2  1  1  1
  2  3  1  0
  3  4  1  0
  4  8  1  0
  5  4  2  0
  6  7  2  0
  6  2  1  0
  9 10  1  0
 10 11  1  0
 11 13  1  0
 11 12  1  6
 13 14  1  1
 14  6  1  0
 15 13  1  0
 16 15  2  0
 17 15  1  0
 18 17  1  0
 18 19  1  6
 20 19  1  0
 20 21  1  0
 22 21  1  0
 23 22  1  0
 24 25  1  0
 24 18  1  0
 26 24  2  0
M  END
$$$$
