DIK.pdb
     RDKit          3D

 26 25  0  0  1  0  0  0  0  0999 V2000
   17.1009  -11.1836  -15.0292 N   0  0  0  0  0  0  0  0  0  0  0  0
   17.7377  -10.2712  -15.9293 C   0  0  1  0  0  0  0  0  0  0  0  0
   16.7262   -9.5300  -16.7966 C   0  0  0  0  0  0  0  0  0  0  0  0
   16.0057  -10.5331  -17.6111 C   0  0  0  0  0  0  0  0  0  0  0  0
   16.6688  -11.3853  -18.2879 O   0  0  0  0  0  0  0  0  0  0  0  0
   18.5097   -9.2132  -15.1992 C   0  0  0  0  0  0  0  0  0  0  0  0
   18.0899   -8.8766  -14.0610 O   0  0  0  0  0  0  0  0  0  0  0  0
   14.6123  -10.5921  -17.6748 O   0  0  0  0  0  0  0  0  0  0  0  0
   23.3406   -9.9225  -14.0148 C   0  0  0  0  0  0  0  0  0  0  0  0
   21.8923   -9.4146  -14.0859 C   0  0  0  0  0  0  0  0  0  0  0  0
   21.8297   -8.1486  -14.8735 C   0  0  2  0  0  0  0  0  0  0  0  0
   22.7045   -7.1300  -14.1494 C   0  0  0  0  0  0  0  0  0  0  0  0
   20.4221   -7.6546  -15.0117 C   0  0  2  0  0  0  0  0  0  0  0  0
   19.6474   -8.6415  -15.7857 N   0  0  0  0  0  0  0  0  0  0  0  0
   20.2856   -6.3307  -15.6585 C   0  0  0  0  0  0  0  0  0  0  0  0
   20.8242   -6.1211  -16.8065 O   0  0  0  0  0  0  0  0  0  0  0  0
   19.5767   -5.2457  -15.0923 N   0  0  0  0  0  0  0  0  0  0  0  0
   19.5172   -3.9906  -15.8477 C   0  0  1  0  0  0  0  0  0  0  0  0
   18.0468   -3.6692  -16.1349 C   0  0  0  0  0  0  0  0  0  0  0  0
   17.3799   -3.2902  -14.8710 C   0  0  0  0  0  0  0  0  0  0  0  0
   15.9249   -2.9079  -15.0526 C   0  0  0  0  0  0  0  0  0  0  0  0
   15.2321   -2.5967  -13.7616 C   0  0  0  0  0  0  0  0  0  0  0  0
   13.8460   -2.2782  -13.9095 N   0  0  0  0  0  0  0  0  0  0  0  0
   20.1942   -2.9468  -15.0664 C   0  0  0  0  0  0  0  0  0  0  0  0
   20.4735   -1.7100  -15.6414 O   0  0  0  0  0  0  0  0  0  0  0  0
   20.5567   -3.0829  -13.8770 O   0  0  0  0  0  0  0  0  0  0  0  0
  2  1  1  1
  2  3  1  0
  3  4  1  0
  4  8  1  0
  5  4  2  0
  6  7  2  0
  6  2  1  0
  9 10  1  0
 10 11  1  0
 11 13  1  0
 11 12  1  1
 13 14  1  6
 14  6  1  0
 15 13  1  0
 16 15  2  0
 17 15  1  0
 18 17  1  0
 18 19  1  1
 20 19  1  0
 20 21  1  0
 22 21  1  0
 23 22  1  0
 24 25  1  0
 24 18  1  0
 26 24  2  0
M  END
$$$$
