DIK.pdb
     RDKit          3D

 26 25  0  0  1  0  0  0  0  0999 V2000
   23.3849  -20.9770   -9.2493 N   0  0  0  0  0  0  0  0  0  0  0  0
   23.2016  -21.0444  -10.6671 C   0  0  1  0  0  0  0  0  0  0  0  0
   21.8609  -20.4579  -11.0950 C   0  0  0  0  0  0  0  0  0  0  0  0
   21.0276  -21.5636  -11.6161 C   0  0  0  0  0  0  0  0  0  0  0  0
   21.5123  -22.7407  -11.6751 O   0  0  0  0  0  0  0  0  0  0  0  0
   24.2483  -20.2632  -11.4036 C   0  0  0  0  0  0  0  0  0  0  0  0
   24.3279  -19.0315  -11.1558 O   0  0  0  0  0  0  0  0  0  0  0  0
   19.7149  -21.3767  -12.0533 O   0  0  0  0  0  0  0  0  0  0  0  0
   29.1631  -21.1641  -10.8499 C   0  0  0  0  0  0  0  0  0  0  0  0
   27.7931  -20.5484  -11.1733 C   0  0  0  0  0  0  0  0  0  0  0  0
   27.4791  -20.7251  -12.6215 C   0  0  2  0  0  0  0  0  0  0  0  0
   28.6114  -20.0696  -13.4058 C   0  0  0  0  0  0  0  0  0  0  0  0
   26.1539  -20.1229  -12.9756 C   0  0  2  0  0  0  0  0  0  0  0  0
   25.0883  -20.9059  -12.3238 N   0  0  0  0  0  0  0  0  0  0  0  0
   25.8692  -20.0485  -14.4258 C   0  0  0  0  0  0  0  0  0  0  0  0
   25.5531  -21.1141  -15.0711 O   0  0  0  0  0  0  0  0  0  0  0  0
   25.9129  -18.8513  -15.1776 N   0  0  0  0  0  0  0  0  0  0  0  0
   25.5183  -18.9075  -16.5885 C   0  0  1  0  0  0  0  0  0  0  0  0
   24.5749  -17.7341  -16.8731 C   0  0  0  0  0  0  0  0  0  0  0  0
   24.2603  -17.7072  -18.3175 C   0  0  0  0  0  0  0  0  0  0  0  0
   23.3374  -16.5708  -18.7085 C   0  0  0  0  0  0  0  0  0  0  0  0
   23.0088  -16.5551  -20.1698 C   0  0  0  0  0  0  0  0  0  0  0  0
   22.0216  -15.5861  -20.5317 N   0  0  0  0  0  0  0  0  0  0  0  0
   26.7350  -18.8826  -17.4115 C   0  0  0  0  0  0  0  0  0  0  0  0
   26.7257  -19.4240  -18.6940 O   0  0  0  0  0  0  0  0  0  0  0  0
   27.8254  -18.3953  -17.0395 O   0  0  0  0  0  0  0  0  0  0  0  0
  2  1  1  1
  2  3  1  0
  3  4  1  0
  4  8  1  0
  5  4  2  0
  6  7  2  0
  6  2  1  0
  9 10  1  0
 10 11  1  0
 11 13  1  0
 11 12  1  6
 13 14  1  1
 14  6  1  0
 15 13  1  0
 16 15  2  0
 17 15  1  0
 18 17  1  0
 18 19  1  6
 20 19  1  0
 20 21  1  0
 22 21  1  0
 23 22  1  0
 24 25  1  0
 24 18  1  0
 26 24  2  0
M  END
$$$$
