DIK.pdb
     RDKit          3D

 26 25  0  0  1  0  0  0  0  0999 V2000
   30.7895   -9.3830  -20.0484 N   0  0  0  0  0  0  0  0  0  0  0  0
   29.4588   -9.8929  -20.1804 C   0  0  1  0  0  0  0  0  0  0  0  0
   29.1452  -10.2965  -21.6169 C   0  0  0  0  0  0  0  0  0  0  0  0
   29.1155   -9.0659  -22.4376 C   0  0  0  0  0  0  0  0  0  0  0  0
   28.2011   -8.2008  -22.2387 O   0  0  0  0  0  0  0  0  0  0  0  0
   29.2470  -11.1233  -19.3500 C   0  0  0  0  0  0  0  0  0  0  0  0
   30.2728  -11.7562  -18.9867 O   0  0  0  0  0  0  0  0  0  0  0  0
   30.0560   -8.8026  -23.4353 O   0  0  0  0  0  0  0  0  0  0  0  0
   27.0000  -10.3916  -14.9821 C   0  0  0  0  0  0  0  0  0  0  0  0
   27.8398  -11.0255  -16.1018 C   0  0  0  0  0  0  0  0  0  0  0  0
   27.0340  -12.0463  -16.8335 C   0  0  2  0  0  0  0  0  0  0  0  0
   26.6913  -13.1447  -15.8319 C   0  0  0  0  0  0  0  0  0  0  0  0
   27.7801  -12.5978  -18.0097 C   0  0  2  0  0  0  0  0  0  0  0  0
   27.9485  -11.5266  -19.0086 N   0  0  0  0  0  0  0  0  0  0  0  0
   27.1421  -13.7615  -18.6643 C   0  0  0  0  0  0  0  0  0  0  0  0
   25.9571  -13.6522  -19.1498 O   0  0  0  0  0  0  0  0  0  0  0  0
   27.7628  -15.0244  -18.8068 N   0  0  0  0  0  0  0  0  0  0  0  0
   27.0047  -16.0964  -19.4592 C   0  0  1  0  0  0  0  0  0  0  0  0
   27.9975  -17.1367  -19.9882 C   0  0  0  0  0  0  0  0  0  0  0  0
   27.2594  -18.1592  -20.7602 C   0  0  0  0  0  0  0  0  0  0  0  0
   28.1571  -19.2278  -21.3505 C   0  0  0  0  0  0  0  0  0  0  0  0
   27.4392  -20.1465  -22.2909 C   0  0  0  0  0  0  0  0  0  0  0  0
   28.2919  -21.0922  -22.9414 N   0  0  0  0  0  0  0  0  0  0  0  0
   26.0529  -16.6493  -18.4862 C   0  0  0  0  0  0  0  0  0  0  0  0
   24.8233  -17.1448  -18.9114 O   0  0  0  0  0  0  0  0  0  0  0  0
   26.2640  -16.7139  -17.2550 O   0  0  0  0  0  0  0  0  0  0  0  0
  2  1  1  6
  2  3  1  0
  3  4  1  0
  4  8  1  0
  5  4  2  0
  6  7  2  0
  6  2  1  0
  9 10  1  0
 10 11  1  0
 11 13  1  0
 11 12  1  1
 13 14  1  6
 14  6  1  0
 15 13  1  0
 16 15  2  0
 17 15  1  0
 18 17  1  0
 18 19  1  1
 20 19  1  0
 20 21  1  0
 22 21  1  0
 23 22  1  0
 24 25  1  0
 24 18  1  0
 26 24  2  0
M  END
$$$$
