DIK.pdb
     RDKit          3D

 26 25  0  0  1  0  0  0  0  0999 V2000
   18.2718  -12.6477  -17.9462 N   0  0  0  0  0  0  0  0  0  0  0  0
   17.6083  -12.3685  -16.7093 C   0  0  1  0  0  0  0  0  0  0  0  0
   17.4221  -13.6264  -15.8680 C   0  0  0  0  0  0  0  0  0  0  0  0
   16.2628  -14.3678  -16.4110 C   0  0  0  0  0  0  0  0  0  0  0  0
   16.0385  -14.3506  -17.6654 O   0  0  0  0  0  0  0  0  0  0  0  0
   18.3914  -11.4143  -15.8580 C   0  0  0  0  0  0  0  0  0  0  0  0
   17.9374  -11.1600  -14.7116 O   0  0  0  0  0  0  0  0  0  0  0  0
   15.3888  -15.0970  -15.6026 O   0  0  0  0  0  0  0  0  0  0  0  0
   24.0225  -10.3141  -14.3614 C   0  0  0  0  0  0  0  0  0  0  0  0
   22.6228   -9.6913  -14.4792 C   0  0  0  0  0  0  0  0  0  0  0  0
   21.7508  -10.5455  -15.3376 C   0  0  2  0  0  0  0  0  0  0  0  0
   22.4238  -10.6380  -16.7034 C   0  0  0  0  0  0  0  0  0  0  0  0
   20.3674   -9.9819  -15.4511 C   0  0  2  0  0  0  0  0  0  0  0  0
   19.5759  -10.8454  -16.3463 N   0  0  0  0  0  0  0  0  0  0  0  0
   20.2988   -8.5906  -15.9503 C   0  0  0  0  0  0  0  0  0  0  0  0
   20.5608   -8.3398  -17.1833 O   0  0  0  0  0  0  0  0  0  0  0  0
   19.9473   -7.4809  -15.1469 N   0  0  0  0  0  0  0  0  0  0  0  0
   19.8172   -6.1727  -15.7957 C   0  0  1  0  0  0  0  0  0  0  0  0
   18.3862   -5.6681  -15.5821 C   0  0  0  0  0  0  0  0  0  0  0  0
   18.2390   -4.3465  -16.2286 C   0  0  0  0  0  0  0  0  0  0  0  0
   16.8242   -3.8067  -16.1731 C   0  0  0  0  0  0  0  0  0  0  0  0
   16.6273   -2.5830  -17.0141 C   0  0  0  0  0  0  0  0  0  0  0  0
   15.2634   -2.1682  -17.1238 N   0  0  0  0  0  0  0  0  0  0  0  0
   20.8357   -5.2742  -15.2357 C   0  0  0  0  0  0  0  0  0  0  0  0
   21.3293   -5.4870  -13.9515 O   0  0  0  0  0  0  0  0  0  0  0  0
   21.3162   -4.2915  -15.8424 O   0  0  0  0  0  0  0  0  0  0  0  0
  2  1  1  6
  2  3  1  0
  3  4  1  0
  4  8  1  0
  5  4  2  0
  6  7  2  0
  6  2  1  0
  9 10  1  0
 10 11  1  0
 11 13  1  0
 11 12  1  6
 13 14  1  6
 14  6  1  0
 15 13  1  0
 16 15  2  0
 17 15  1  0
 18 17  1  0
 18 19  1  1
 20 19  1  0
 20 21  1  0
 22 21  1  0
 23 22  1  0
 24 25  1  0
 24 18  1  0
 26 24  2  0
M  END
$$$$
