DIK.pdb
     RDKit          3D

 26 25  0  0  1  0  0  0  0  0999 V2000
   22.9134  -15.1233  -18.8401 N   0  0  0  0  0  0  0  0  0  0  0  0
   23.1153  -13.7298  -19.0961 C   0  0  1  0  0  0  0  0  0  0  0  0
   21.9657  -13.1269  -19.8959 C   0  0  0  0  0  0  0  0  0  0  0  0
   21.9298  -13.7972  -21.2143 C   0  0  0  0  0  0  0  0  0  0  0  0
   20.8057  -14.0733  -21.7474 O   0  0  0  0  0  0  0  0  0  0  0  0
   23.1975  -12.9348  -17.8274 C   0  0  0  0  0  0  0  0  0  0  0  0
   22.3389  -13.1778  -16.9392 O   0  0  0  0  0  0  0  0  0  0  0  0
   23.0864  -14.1473  -21.9135 O   0  0  0  0  0  0  0  0  0  0  0  0
   27.9584  -11.9612  -15.6715 C   0  0  0  0  0  0  0  0  0  0  0  0
   26.4636  -12.2528  -15.8748 C   0  0  0  0  0  0  0  0  0  0  0  0
   25.7122  -10.9774  -16.0637 C   0  0  2  0  0  0  0  0  0  0  0  0
   25.8523  -10.1822  -14.7695 C   0  0  0  0  0  0  0  0  0  0  0  0
   24.2726  -11.2295  -16.3928 C   0  0  2  0  0  0  0  0  0  0  0  0
   24.2000  -11.9683  -17.6665 N   0  0  0  0  0  0  0  0  0  0  0  0
   23.4345  -10.0146  -16.5000 C   0  0  0  0  0  0  0  0  0  0  0  0
   23.7580   -9.0852  -17.3267 O   0  0  0  0  0  0  0  0  0  0  0  0
   22.2611   -9.7966  -15.7410 N   0  0  0  0  0  0  0  0  0  0  0  0
   21.5147   -8.5549  -15.9655 C   0  0  1  0  0  0  0  0  0  0  0  0
   20.0212   -8.8927  -16.0216 C   0  0  0  0  0  0  0  0  0  0  0  0
   19.2468   -7.6387  -16.1383 C   0  0  0  0  0  0  0  0  0  0  0  0
   17.7514   -7.8646  -16.2331 C   0  0  0  0  0  0  0  0  0  0  0  0
   16.9857   -6.6158  -16.5457 C   0  0  0  0  0  0  0  0  0  0  0  0
   17.4340   -5.9403  -17.7236 N   0  0  0  0  0  0  0  0  0  0  0  0
   21.8529   -7.6103  -14.8923 C   0  0  0  0  0  0  0  0  0  0  0  0
   21.8457   -6.2397  -15.1360 O   0  0  0  0  0  0  0  0  0  0  0  0
   22.1607   -7.9496  -13.7283 O   0  0  0  0  0  0  0  0  0  0  0  0
  2  1  1  1
  2  3  1  0
  3  4  1  0
  4  8  1  0
  5  4  2  0
  6  7  2  0
  6  2  1  0
  9 10  1  0
 10 11  1  0
 11 13  1  0
 11 12  1  1
 13 14  1  6
 14  6  1  0
 15 13  1  0
 16 15  2  0
 17 15  1  0
 18 17  1  0
 18 19  1  1
 20 19  1  0
 20 21  1  0
 22 21  1  0
 23 22  1  0
 24 25  1  0
 24 18  1  0
 26 24  2  0
M  END
$$$$
