DIK.pdb
     RDKit          3D

 26 25  0  0  1  0  0  0  0  0999 V2000
   20.8090  -20.7978  -11.6484 N   0  0  0  0  0  0  0  0  0  0  0  0
   21.6112  -21.2786  -12.7318 C   0  0  1  0  0  0  0  0  0  0  0  0
   20.8922  -21.1529  -14.0703 C   0  0  0  0  0  0  0  0  0  0  0  0
   19.7999  -22.1504  -14.0939 C   0  0  0  0  0  0  0  0  0  0  0  0
   19.5922  -22.8779  -13.0684 O   0  0  0  0  0  0  0  0  0  0  0  0
   22.8849  -20.4999  -12.8723 C   0  0  0  0  0  0  0  0  0  0  0  0
   22.8079  -19.2474  -12.7717 O   0  0  0  0  0  0  0  0  0  0  0  0
   18.9726  -22.3361  -15.2031 O   0  0  0  0  0  0  0  0  0  0  0  0
   27.1190  -22.0096  -10.1618 C   0  0  0  0  0  0  0  0  0  0  0  0
   26.0732  -21.1656  -10.9065 C   0  0  0  0  0  0  0  0  0  0  0  0
   26.3941  -21.1176  -12.3631 C   0  0  2  0  0  0  0  0  0  0  0  0
   27.7542  -20.4401  -12.4974 C   0  0  0  0  0  0  0  0  0  0  0  0
   25.3423  -20.3814  -13.1352 C   0  0  2  0  0  0  0  0  0  0  0  0
   24.0954  -21.1674  -13.1055 N   0  0  0  0  0  0  0  0  0  0  0  0
   25.6889  -20.0937  -14.5448 C   0  0  0  0  0  0  0  0  0  0  0  0
   25.6364  -21.0326  -15.4209 O   0  0  0  0  0  0  0  0  0  0  0  0
   26.0789  -18.8186  -15.0165 N   0  0  0  0  0  0  0  0  0  0  0  0
   26.3389  -18.6632  -16.4509 C   0  0  1  0  0  0  0  0  0  0  0  0
   25.6259  -17.3968  -16.9364 C   0  0  0  0  0  0  0  0  0  0  0  0
   25.7547  -17.3039  -18.4064 C   0  0  0  0  0  0  0  0  0  0  0  0
   25.1203  -16.0557  -18.9857 C   0  0  0  0  0  0  0  0  0  0  0  0
   25.1642  -16.0129  -20.4822 C   0  0  0  0  0  0  0  0  0  0  0  0
   24.4148  -14.9376  -21.0538 N   0  0  0  0  0  0  0  0  0  0  0  0
   27.7929  -18.6218  -16.6566 C   0  0  0  0  0  0  0  0  0  0  0  0
   28.3636  -19.2508  -17.7597 O   0  0  0  0  0  0  0  0  0  0  0  0
   28.5952  -18.0444  -15.8900 O   0  0  0  0  0  0  0  0  0  0  0  0
  2  1  1  1
  2  3  1  0
  3  4  1  0
  4  8  1  0
  5  4  2  0
  6  7  2  0
  6  2  1  0
  9 10  1  0
 10 11  1  0
 11 13  1  0
 11 12  1  1
 13 14  1  6
 14  6  1  0
 15 13  1  0
 16 15  2  0
 17 15  1  0
 18 17  1  0
 18 19  1  1
 20 19  1  0
 20 21  1  0
 22 21  1  0
 23 22  1  0
 24 25  1  0
 24 18  1  0
 26 24  2  0
M  END
$$$$
