DIK.pdb
     RDKit          3D

 26 25  0  0  1  0  0  0  0  0999 V2000
   28.1150  -21.7657  -16.5909 N   0  0  0  0  0  0  0  0  0  0  0  0
   27.7732  -20.6937  -15.7063 C   0  0  1  0  0  0  0  0  0  0  0  0
   26.9767  -19.6041  -16.4155 C   0  0  0  0  0  0  0  0  0  0  0  0
   27.9002  -18.8808  -17.3169 C   0  0  0  0  0  0  0  0  0  0  0  0
   29.1192  -19.2453  -17.3903 O   0  0  0  0  0  0  0  0  0  0  0  0
   26.9141  -21.1599  -14.5693 C   0  0  0  0  0  0  0  0  0  0  0  0
   26.1398  -22.1273  -14.7919 O   0  0  0  0  0  0  0  0  0  0  0  0
   27.4942  -17.8011  -18.1034 O   0  0  0  0  0  0  0  0  0  0  0  0
   28.9269  -20.9547   -9.6323 C   0  0  0  0  0  0  0  0  0  0  0  0
   28.1305  -21.4498  -10.8493 C   0  0  0  0  0  0  0  0  0  0  0  0
   26.8153  -20.7485  -10.9228 C   0  0  2  0  0  0  0  0  0  0  0  0
   25.9780  -21.2483   -9.7498 C   0  0  0  0  0  0  0  0  0  0  0  0
   26.1270  -21.0035  -12.2288 C   0  0  2  0  0  0  0  0  0  0  0  0
   26.9925  -20.5248  -13.3220 N   0  0  0  0  0  0  0  0  0  0  0  0
   24.7953  -20.3731  -12.3664 C   0  0  0  0  0  0  0  0  0  0  0  0
   24.6686  -19.1042  -12.2056 O   0  0  0  0  0  0  0  0  0  0  0  0
   23.6142  -21.0852  -12.6797 N   0  0  0  0  0  0  0  0  0  0  0  0
   22.3704  -20.3248  -12.8353 C   0  0  1  0  0  0  0  0  0  0  0  0
   22.0043  -20.2971  -14.3229 C   0  0  0  0  0  0  0  0  0  0  0  0
   20.6875  -19.6442  -14.4837 C   0  0  0  0  0  0  0  0  0  0  0  0
   20.2052  -19.6140  -15.9199 C   0  0  0  0  0  0  0  0  0  0  0  0
   18.8934  -18.9103  -16.0860 C   0  0  0  0  0  0  0  0  0  0  0  0
   18.3960  -18.9200  -17.4265 N   0  0  0  0  0  0  0  0  0  0  0  0
   21.3374  -20.9497  -11.9982 C   0  0  0  0  0  0  0  0  0  0  0  0
   20.2557  -20.2009  -11.5429 O   0  0  0  0  0  0  0  0  0  0  0  0
   21.3498  -22.1495  -11.6448 O   0  0  0  0  0  0  0  0  0  0  0  0
  2  1  1  6
  2  3  1  0
  3  4  1  0
  4  8  1  0
  5  4  2  0
  6  7  2  0
  6  2  1  0
  9 10  1  0
 10 11  1  0
 11 13  1  0
 11 12  1  1
 13 14  1  6
 14  6  1  0
 15 13  1  0
 16 15  2  0
 17 15  1  0
 18 17  1  0
 18 19  1  6
 20 19  1  0
 20 21  1  0
 22 21  1  0
 23 22  1  0
 24 25  1  0
 24 18  1  0
 26 24  2  0
M  END
$$$$
