DIK.pdb
     RDKit          3D

 26 25  0  0  1  0  0  0  0  0999 V2000
   17.6965  -12.2548  -14.9660 N   0  0  0  0  0  0  0  0  0  0  0  0
   17.2814  -10.8881  -14.8758 C   0  0  1  0  0  0  0  0  0  0  0  0
   15.7626  -10.7549  -14.8714 C   0  0  0  0  0  0  0  0  0  0  0  0
   15.3105  -10.6703  -16.2775 C   0  0  0  0  0  0  0  0  0  0  0  0
   16.1561  -10.8225  -17.2187 O   0  0  0  0  0  0  0  0  0  0  0  0
   17.7565  -10.2423  -13.6087 C   0  0  0  0  0  0  0  0  0  0  0  0
   17.5991  -10.8881  -12.5395 O   0  0  0  0  0  0  0  0  0  0  0  0
   13.9811  -10.4279  -16.6284 O   0  0  0  0  0  0  0  0  0  0  0  0
   22.5945   -8.1930  -13.0879 C   0  0  0  0  0  0  0  0  0  0  0  0
   21.2162   -8.8382  -12.8769 C   0  0  0  0  0  0  0  0  0  0  0  0
   20.1888   -7.7855  -12.6257 C   0  0  2  0  0  0  0  0  0  0  0  0
   20.6609   -6.9817  -11.4182 C   0  0  0  0  0  0  0  0  0  0  0  0
   18.8358   -8.3820  -12.3855 C   0  0  2  0  0  0  0  0  0  0  0  0
   18.3474   -8.9716  -13.6454 N   0  0  0  0  0  0  0  0  0  0  0  0
   17.8174   -7.4360  -11.8777 C   0  0  0  0  0  0  0  0  0  0  0  0
   17.3329   -6.5376  -12.6588 O   0  0  0  0  0  0  0  0  0  0  0  0
   17.3155   -7.4525  -10.5556 N   0  0  0  0  0  0  0  0  0  0  0  0
   16.2891   -6.4698  -10.1946 C   0  0  1  0  0  0  0  0  0  0  0  0
   15.4166   -7.0680   -9.0862 C   0  0  0  0  0  0  0  0  0  0  0  0
   14.4615   -6.0414   -8.6169 C   0  0  0  0  0  0  0  0  0  0  0  0
   13.5228   -6.5446   -7.5391 C   0  0  0  0  0  0  0  0  0  0  0  0
   12.5950   -5.4869   -7.0253 C   0  0  0  0  0  0  0  0  0  0  0  0
   11.6982   -5.9455   -6.0104 N   0  0  0  0  0  0  0  0  0  0  0  0
   16.9594   -5.2256   -9.7934 C   0  0  0  0  0  0  0  0  0  0  0  0
   16.3733   -3.9929  -10.0678 O   0  0  0  0  0  0  0  0  0  0  0  0
   18.0602   -5.1795   -9.2012 O   0  0  0  0  0  0  0  0  0  0  0  0
  2  1  1  1
  2  3  1  0
  3  4  1  0
  4  8  1  0
  5  4  2  0
  6  7  2  0
  6  2  1  0
  9 10  1  0
 10 11  1  0
 11 13  1  0
 11 12  1  1
 13 14  1  6
 14  6  1  0
 15 13  1  0
 16 15  2  0
 17 15  1  0
 18 17  1  0
 18 19  1  1
 20 19  1  0
 20 21  1  0
 22 21  1  0
 23 22  1  0
 24 25  1  0
 24 18  1  0
 26 24  2  0
M  END
$$$$
