DIK.pdb
     RDKit          3D

 26 25  0  0  1  0  0  0  0  0999 V2000
   18.6652  -11.5734  -15.8304 N   0  0  0  0  0  0  0  0  0  0  0  0
   17.7479  -10.5854  -15.3502 C   0  0  1  0  0  0  0  0  0  0  0  0
   16.3485  -11.1576  -15.1533 C   0  0  0  0  0  0  0  0  0  0  0  0
   15.7479  -11.3575  -16.4905 C   0  0  0  0  0  0  0  0  0  0  0  0
   14.8330  -12.2314  -16.6432 O   0  0  0  0  0  0  0  0  0  0  0  0
   18.1624  -10.0395  -14.0166 C   0  0  0  0  0  0  0  0  0  0  0  0
   18.4149  -10.8724  -13.1069 O   0  0  0  0  0  0  0  0  0  0  0  0
   16.1416  -10.6233  -17.6109 O   0  0  0  0  0  0  0  0  0  0  0  0
   21.8013   -5.9256  -11.8305 C   0  0  0  0  0  0  0  0  0  0  0  0
   20.5263   -6.7301  -11.5340 C   0  0  0  0  0  0  0  0  0  0  0  0
   20.0141   -7.3612  -12.7856 C   0  0  2  0  0  0  0  0  0  0  0  0
   19.7591   -6.2335  -13.7807 C   0  0  0  0  0  0  0  0  0  0  0  0
   18.7686   -8.1544  -12.5330 C   0  0  2  0  0  0  0  0  0  0  0  0
   18.2558   -8.6544  -13.8216 N   0  0  0  0  0  0  0  0  0  0  0  0
   17.6863   -7.4155  -11.8456 C   0  0  0  0  0  0  0  0  0  0  0  0
   16.9761   -6.5667  -12.4991 O   0  0  0  0  0  0  0  0  0  0  0  0
   17.3595   -7.5853  -10.4800 N   0  0  0  0  0  0  0  0  0  0  0  0
   16.1741   -6.8948   -9.9630 C   0  0  1  0  0  0  0  0  0  0  0  0
   15.2853   -7.9241   -9.2570 C   0  0  0  0  0  0  0  0  0  0  0  0
   14.0904   -7.2406   -8.7175 C   0  0  0  0  0  0  0  0  0  0  0  0
   13.1607   -8.1674   -7.9606 C   0  0  0  0  0  0  0  0  0  0  0  0
   11.9581   -7.4694   -7.4039 C   0  0  0  0  0  0  0  0  0  0  0  0
   10.9573   -8.3551   -6.8954 N   0  0  0  0  0  0  0  0  0  0  0  0
   16.6188   -5.8112   -9.0761 C   0  0  0  0  0  0  0  0  0  0  0  0
   17.8641   -5.8777   -8.4573 O   0  0  0  0  0  0  0  0  0  0  0  0
   15.9426   -4.7908   -8.8192 O   0  0  0  0  0  0  0  0  0  0  0  0
  2  1  1  1
  2  3  1  0
  3  4  1  0
  4  8  1  0
  5  4  2  0
  6  7  2  0
  6  2  1  0
  9 10  1  0
 10 11  1  0
 11 13  1  0
 11 12  1  6
 13 14  1  6
 14  6  1  0
 15 13  1  0
 16 15  2  0
 17 15  1  0
 18 17  1  0
 18 19  1  1
 20 19  1  0
 20 21  1  0
 22 21  1  0
 23 22  1  0
 24 25  1  0
 24 18  1  0
 26 24  2  0
M  END
$$$$
