DIK.pdb
     RDKit          3D

 26 25  0  0  1  0  0  0  0  0999 V2000
   17.9340  -12.5336  -17.2679 N   0  0  0  0  0  0  0  0  0  0  0  0
   18.8382  -11.5122  -17.7010 C   0  0  1  0  0  0  0  0  0  0  0  0
   18.1802  -10.5511  -18.6849 C   0  0  0  0  0  0  0  0  0  0  0  0
   17.8298  -11.3167  -19.9013 C   0  0  0  0  0  0  0  0  0  0  0  0
   16.6755  -11.1737  -20.4220 O   0  0  0  0  0  0  0  0  0  0  0  0
   19.3177  -10.6689  -16.5576 C   0  0  0  0  0  0  0  0  0  0  0  0
   18.4628  -10.3194  -15.7020 O   0  0  0  0  0  0  0  0  0  0  0  0
   18.7169  -12.2023  -20.5161 O   0  0  0  0  0  0  0  0  0  0  0  0
   23.6550  -10.5454  -12.5982 C   0  0  0  0  0  0  0  0  0  0  0  0
   22.6818   -9.6435  -13.3729 C   0  0  0  0  0  0  0  0  0  0  0  0
   22.1141  -10.3819  -14.5388 C   0  0  2  0  0  0  0  0  0  0  0  0
   23.2878  -10.7799  -15.4282 C   0  0  0  0  0  0  0  0  0  0  0  0
   21.1223   -9.5473  -15.2899 C   0  0  2  0  0  0  0  0  0  0  0  0
   20.6677  -10.3011  -16.4725 N   0  0  0  0  0  0  0  0  0  0  0  0
   21.6246   -8.2275  -15.7322 C   0  0  0  0  0  0  0  0  0  0  0  0
   22.5308   -8.1597  -16.6412 O   0  0  0  0  0  0  0  0  0  0  0  0
   21.1609   -6.9944  -15.2177 N   0  0  0  0  0  0  0  0  0  0  0  0
   21.7208   -5.7595  -15.7752 C   0  0  1  0  0  0  0  0  0  0  0  0
   20.6250   -5.0526  -16.5798 C   0  0  0  0  0  0  0  0  0  0  0  0
   21.1349   -3.7448  -17.0442 C   0  0  0  0  0  0  0  0  0  0  0  0
   20.0950   -2.9229  -17.7787 C   0  0  0  0  0  0  0  0  0  0  0  0
   20.6414   -1.6453  -18.3377 C   0  0  0  0  0  0  0  0  0  0  0  0
   19.6556   -0.8147  -18.9565 N   0  0  0  0  0  0  0  0  0  0  0  0
   22.2405   -4.9451  -14.6684 C   0  0  0  0  0  0  0  0  0  0  0  0
   23.2946   -4.0612  -14.8824 O   0  0  0  0  0  0  0  0  0  0  0  0
   21.7963   -4.9820  -13.4996 O   0  0  0  0  0  0  0  0  0  0  0  0
  2  1  1  1
  2  3  1  0
  3  4  1  0
  4  8  1  0
  5  4  2  0
  6  7  2  0
  6  2  1  0
  9 10  1  0
 10 11  1  0
 11 13  1  0
 11 12  1  6
 13 14  1  6
 14  6  1  0
 15 13  1  0
 16 15  2  0
 17 15  1  0
 18 17  1  0
 18 19  1  1
 20 19  1  0
 20 21  1  0
 22 21  1  0
 23 22  1  0
 24 25  1  0
 24 18  1  0
 26 24  2  0
M  END
$$$$
