GED.pdb
     RDKit          3D

 22 21  0  0  1  0  0  0  0  0999 V2000
   10.9451  -18.7080   15.4524 N   0  0  0  0  0  0  0  0  0  0  0  0
   11.7019  -19.3438   16.5056 C   0  0  0  0  0  0  0  0  0  0  0  0
   11.6344  -18.5317   17.7858 C   0  0  0  0  0  0  0  0  0  0  0  0
   11.8355  -17.3016   17.7196 O   0  0  0  0  0  0  0  0  0  0  0  0
   11.3555  -19.1687   19.0021 N   0  0  0  0  0  0  0  0  0  0  0  0
   11.3973  -18.6295   20.3123 C   0  0  1  0  0  0  0  0  0  0  0  0
   10.3985  -19.2386   21.3011 C   0  0  0  0  0  0  0  0  0  0  0  0
    9.0422  -19.1255   20.7061 C   0  0  0  0  0  0  0  0  0  0  0  0
    7.9789  -19.7205   21.5412 C   0  0  0  0  0  0  0  0  0  0  0  0
    6.9915  -19.1205   21.9661 O   0  0  0  0  0  0  0  0  0  0  0  0
   12.7318  -18.4200   20.8894 C   0  0  0  0  0  0  0  0  0  0  0  0
   13.5167  -19.3875   20.9228 O   0  0  0  0  0  0  0  0  0  0  0  0
    8.1343  -21.0822   21.8636 O   0  0  0  0  0  0  0  0  0  0  0  0
   13.1653  -17.1791   21.4051 N   0  0  0  0  0  0  0  0  0  0  0  0
   14.4822  -16.9063   21.9450 C   0  0  1  0  0  0  0  0  0  0  0  0
   14.7688  -15.4349   21.7385 C   0  0  0  0  0  0  0  0  0  0  0  0
   16.1304  -15.0513   22.1484 C   0  0  0  0  0  0  0  0  0  0  0  0
   16.2953  -14.5788   23.3060 O   0  0  0  0  0  0  0  0  0  0  0  0
   14.4516  -17.2125   23.4103 C   0  0  0  0  0  0  0  0  0  0  0  0
   15.4934  -17.3063   24.0626 O   0  0  0  0  0  0  0  0  0  0  0  0
   17.2070  -15.1920   21.3163 O   0  0  0  0  0  0  0  0  0  0  0  0
   13.1904  -17.3892   24.0205 O   0  0  0  0  0  0  0  0  0  0  0  0
  1  2  1  0
  2  3  1  0
  3  4  2  0
  5  6  1  0
  5  3  1  0
  6 11  1  0
  6  7  1  1
  8  7  1  0
  9  8  1  0
  9 10  2  0
 11 14  1  0
 11 12  2  0
 13  9  1  0
 14 15  1  0
 15 19  1  0
 15 16  1  1
 16 17  1  0
 17 21  1  0
 17 18  2  0
 19 22  1  0
 20 19  2  0
M  END
$$$$
