GED.pdb
     RDKit          3D

 22 21  0  0  1  0  0  0  0  0999 V2000
    7.9131  -15.3964   16.7610 N   0  0  0  0  0  0  0  0  0  0  0  0
    8.6228  -14.4256   17.5611 C   0  0  0  0  0  0  0  0  0  0  0  0
    9.8759  -15.0336   18.1634 C   0  0  0  0  0  0  0  0  0  0  0  0
    9.8915  -16.2616   18.3866 O   0  0  0  0  0  0  0  0  0  0  0  0
   10.9756  -14.2169   18.4575 N   0  0  0  0  0  0  0  0  0  0  0  0
   12.2290  -14.5859   19.0069 C   0  0  1  0  0  0  0  0  0  0  0  0
   13.4500  -13.9603   18.3258 C   0  0  0  0  0  0  0  0  0  0  0  0
   14.6560  -14.6915   18.7921 C   0  0  0  0  0  0  0  0  0  0  0  0
   15.9070  -14.2381   18.1507 C   0  0  0  0  0  0  0  0  0  0  0  0
   16.7390  -13.4923   18.6674 O   0  0  0  0  0  0  0  0  0  0  0  0
   12.3220  -14.5936   20.4729 C   0  0  0  0  0  0  0  0  0  0  0  0
   12.1515  -13.5179   21.0788 O   0  0  0  0  0  0  0  0  0  0  0  0
   16.1389  -14.7094   16.8445 O   0  0  0  0  0  0  0  0  0  0  0  0
   12.5935  -15.7577   21.2246 N   0  0  0  0  0  0  0  0  0  0  0  0
   12.6483  -15.8315   22.6708 C   0  0  1  0  0  0  0  0  0  0  0  0
   11.6848  -16.9109   23.1136 C   0  0  0  0  0  0  0  0  0  0  0  0
   11.7278  -17.1601   24.5646 C   0  0  0  0  0  0  0  0  0  0  0  0
   12.5611  -16.5150   25.2573 O   0  0  0  0  0  0  0  0  0  0  0  0
   14.0434  -16.2113   23.0599 C   0  0  0  0  0  0  0  0  0  0  0  0
   14.8369  -16.6566   22.2283 O   0  0  0  0  0  0  0  0  0  0  0  0
   10.8981  -18.0621   25.1723 O   0  0  0  0  0  0  0  0  0  0  0  0
   14.4204  -16.0417   24.4102 O   0  0  0  0  0  0  0  0  0  0  0  0
  1  2  1  0
  2  3  1  0
  3  4  2  0
  5  6  1  0
  5  3  1  0
  6 11  1  0
  6  7  1  6
  8  7  1  0
  9  8  1  0
  9 10  2  0
 11 14  1  0
 11 12  2  0
 13  9  1  0
 14 15  1  0
 15 19  1  0
 15 16  1  6
 16 17  1  0
 17 21  1  0
 17 18  2  0
 19 22  1  0
 20 19  2  0
M  END
$$$$
