GED.pdb
     RDKit          3D

 22 21  0  0  1  0  0  0  0  0999 V2000
   10.4232  -15.3540   20.3771 N   0  0  0  0  0  0  0  0  0  0  0  0
   11.3843  -15.6391   21.4169 C   0  0  0  0  0  0  0  0  0  0  0  0
   10.6919  -16.1434   22.6696 C   0  0  0  0  0  0  0  0  0  0  0  0
    9.4684  -15.9319   22.7975 O   0  0  0  0  0  0  0  0  0  0  0  0
   11.4286  -16.8240   23.6479 N   0  0  0  0  0  0  0  0  0  0  0  0
   11.0232  -17.2112   24.9497 C   0  0  1  0  0  0  0  0  0  0  0  0
   11.4481  -18.6204   25.3736 C   0  0  0  0  0  0  0  0  0  0  0  0
   10.9979  -19.5676   24.3217 C   0  0  0  0  0  0  0  0  0  0  0  0
   11.3621  -20.9726   24.5961 C   0  0  0  0  0  0  0  0  0  0  0  0
   12.4649  -21.4748   24.3790 O   0  0  0  0  0  0  0  0  0  0  0  0
   11.1925  -16.2095   26.0108 C   0  0  0  0  0  0  0  0  0  0  0  0
   12.2823  -15.6093   26.0847 O   0  0  0  0  0  0  0  0  0  0  0  0
   10.3476  -21.7786   25.1467 O   0  0  0  0  0  0  0  0  0  0  0  0
   10.1826  -15.8957   26.9464 N   0  0  0  0  0  0  0  0  0  0  0  0
   10.2970  -14.9207   28.0124 C   0  0  1  0  0  0  0  0  0  0  0  0
    8.9382  -14.2817   28.1997 C   0  0  0  0  0  0  0  0  0  0  0  0
    8.5868  -13.3493   27.1151 C   0  0  0  0  0  0  0  0  0  0  0  0
    9.4547  -13.1034   26.2338 O   0  0  0  0  0  0  0  0  0  0  0  0
   10.6880  -15.6479   29.2614 C   0  0  0  0  0  0  0  0  0  0  0  0
   10.6753  -16.8796   29.3109 O   0  0  0  0  0  0  0  0  0  0  0  0
    7.3592  -12.7504   27.0404 O   0  0  0  0  0  0  0  0  0  0  0  0
   11.0725  -14.8767   30.3802 O   0  0  0  0  0  0  0  0  0  0  0  0
  1  2  1  0
  2  3  1  0
  3  4  2  0
  5  6  1  0
  5  3  1  0
  6 11  1  0
  6  7  1  1
  8  7  1  0
  9  8  1  0
  9 10  2  0
 11 14  1  0
 11 12  2  0
 13  9  1  0
 14 15  1  0
 15 19  1  0
 15 16  1  1
 16 17  1  0
 17 21  1  0
 17 18  2  0
 19 22  1  0
 20 19  2  0
M  END
$$$$
