GED.pdb
     RDKit          3D

 22 21  0  0  1  0  0  0  0  0999 V2000
    1.4599  -25.9520   29.4689 N   0  0  0  0  0  0  0  0  0  0  0  0
    0.4025  -25.8689   30.4493 C   0  0  0  0  0  0  0  0  0  0  0  0
   -0.9587  -25.8783   29.7786 C   0  0  0  0  0  0  0  0  0  0  0  0
   -1.0132  -25.7025   28.5440 O   0  0  0  0  0  0  0  0  0  0  0  0
   -2.1135  -26.0774   30.5465 N   0  0  0  0  0  0  0  0  0  0  0  0
   -3.4616  -26.1461   30.1142 C   0  0  1  0  0  0  0  0  0  0  0  0
   -4.2808  -27.2946   30.7110 C   0  0  0  0  0  0  0  0  0  0  0  0
   -5.5971  -27.3204   30.0233 C   0  0  0  0  0  0  0  0  0  0  0  0
   -6.4606  -28.4436   30.4414 C   0  0  0  0  0  0  0  0  0  0  0  0
   -7.1479  -29.1296   29.6848 O   0  0  0  0  0  0  0  0  0  0  0  0
   -4.1957  -24.8749   30.0619 C   0  0  0  0  0  0  0  0  0  0  0  0
   -4.2902  -24.2066   31.1097 O   0  0  0  0  0  0  0  0  0  0  0  0
   -6.4820  -28.7278   31.8202 O   0  0  0  0  0  0  0  0  0  0  0  0
   -4.7961  -24.3763   28.8852 N   0  0  0  0  0  0  0  0  0  0  0  0
   -5.5750  -23.1580   28.7894 C   0  0  1  0  0  0  0  0  0  0  0  0
   -5.6491  -22.7725   27.3280 C   0  0  0  0  0  0  0  0  0  0  0  0
   -6.4127  -21.5343   27.0980 C   0  0  0  0  0  0  0  0  0  0  0  0
   -6.8880  -20.9307   28.0981 O   0  0  0  0  0  0  0  0  0  0  0  0
   -6.9507  -23.4494   29.3036 C   0  0  0  0  0  0  0  0  0  0  0  0
   -7.5682  -24.4512   28.9364 O   0  0  0  0  0  0  0  0  0  0  0  0
   -6.6177  -21.0290   25.8434 O   0  0  0  0  0  0  0  0  0  0  0  0
   -7.5170  -22.5399   30.2235 O   0  0  0  0  0  0  0  0  0  0  0  0
  1  2  1  0
  2  3  1  0
  3  4  2  0
  5  6  1  0
  5  3  1  0
  6 11  1  0
  6  7  1  1
  8  7  1  0
  9  8  1  0
  9 10  2  0
 11 14  1  0
 11 12  2  0
 13  9  1  0
 14 15  1  0
 15 19  1  0
 15 16  1  6
 16 17  1  0
 17 21  1  0
 17 18  2  0
 19 22  1  0
 20 19  2  0
M  END
$$$$
