GED.pdb
     RDKit          3D

 22 21  0  0  1  0  0  0  0  0999 V2000
    5.5517  -19.3774   22.0829 N   0  0  0  0  0  0  0  0  0  0  0  0
    5.5736  -17.9896   22.4826 C   0  0  0  0  0  0  0  0  0  0  0  0
    6.6354  -17.2229   21.7160 C   0  0  0  0  0  0  0  0  0  0  0  0
    7.5372  -17.8691   21.1440 O   0  0  0  0  0  0  0  0  0  0  0  0
    6.5873  -15.8235   21.6680 N   0  0  0  0  0  0  0  0  0  0  0  0
    7.5225  -14.9261   21.0946 C   0  0  1  0  0  0  0  0  0  0  0  0
    7.0421  -13.4774   20.9648 C   0  0  0  0  0  0  0  0  0  0  0  0
    8.0436  -12.7363   20.1559 C   0  0  0  0  0  0  0  0  0  0  0  0
    8.0184  -13.0841   18.7205 C   0  0  0  0  0  0  0  0  0  0  0  0
    7.2409  -13.8826   18.1977 O   0  0  0  0  0  0  0  0  0  0  0  0
    8.9088  -15.0382   21.5671 C   0  0  0  0  0  0  0  0  0  0  0  0
    9.8102  -14.5308   20.8718 O   0  0  0  0  0  0  0  0  0  0  0  0
    8.9720  -12.4385   17.9105 O   0  0  0  0  0  0  0  0  0  0  0  0
    9.2665  -15.6903   22.7674 N   0  0  0  0  0  0  0  0  0  0  0  0
   10.6174  -15.8540   23.2656 C   0  0  1  0  0  0  0  0  0  0  0  0
   10.5252  -16.3536   24.6909 C   0  0  0  0  0  0  0  0  0  0  0  0
   11.8411  -16.6480   25.2833 C   0  0  0  0  0  0  0  0  0  0  0  0
   12.8738  -16.3078   24.6442 O   0  0  0  0  0  0  0  0  0  0  0  0
   11.3004  -16.8801   22.4156 C   0  0  0  0  0  0  0  0  0  0  0  0
   10.7808  -17.9774   22.2019 O   0  0  0  0  0  0  0  0  0  0  0  0
   11.9705  -17.2734   26.4930 O   0  0  0  0  0  0  0  0  0  0  0  0
   12.5585  -16.5493   21.8661 O   0  0  0  0  0  0  0  0  0  0  0  0
  1  2  1  0
  2  3  1  0
  3  4  2  0
  5  6  1  0
  5  3  1  0
  6 11  1  0
  6  7  1  1
  8  7  1  0
  9  8  1  0
  9 10  2  0
 11 14  1  0
 11 12  2  0
 13  9  1  0
 14 15  1  0
 15 19  1  0
 15 16  1  1
 16 17  1  0
 17 21  1  0
 17 18  2  0
 19 22  1  0
 20 19  2  0
M  END
$$$$
