GED.pdb
     RDKit          3D

 22 21  0  0  1  0  0  0  0  0999 V2000
    6.2029  -12.9893   19.8091 N   0  0  0  0  0  0  0  0  0  0  0  0
    7.2566  -12.7271   18.8566 C   0  0  0  0  0  0  0  0  0  0  0  0
    8.3340  -13.7929   18.9351 C   0  0  0  0  0  0  0  0  0  0  0  0
    8.2447  -14.6625   19.8261 O   0  0  0  0  0  0  0  0  0  0  0  0
    9.3963  -13.7796   18.0218 N   0  0  0  0  0  0  0  0  0  0  0  0
   10.5142  -14.6483   17.9535 C   0  0  1  0  0  0  0  0  0  0  0  0
   11.1165  -14.8286   16.5567 C   0  0  0  0  0  0  0  0  0  0  0  0
   10.0479  -15.3443   15.6631 C   0  0  0  0  0  0  0  0  0  0  0  0
   10.5182  -15.6559   14.2980 C   0  0  0  0  0  0  0  0  0  0  0  0
   10.4873  -14.8800   13.3428 O   0  0  0  0  0  0  0  0  0  0  0  0
   11.5263  -14.4934   19.0069 C   0  0  0  0  0  0  0  0  0  0  0  0
   12.1229  -13.4026   19.0935 O   0  0  0  0  0  0  0  0  0  0  0  0
   11.0350  -16.9508   14.1020 O   0  0  0  0  0  0  0  0  0  0  0  0
   11.8528  -15.5176   19.9224 N   0  0  0  0  0  0  0  0  0  0  0  0
   12.8000  -15.4006   21.0129 C   0  0  1  0  0  0  0  0  0  0  0  0
   12.1818  -16.0508   22.2315 C   0  0  0  0  0  0  0  0  0  0  0  0
   13.0789  -16.0527   23.3995 C   0  0  0  0  0  0  0  0  0  0  0  0
   14.1879  -15.4600   23.3023 O   0  0  0  0  0  0  0  0  0  0  0  0
   14.0431  -16.1392   20.6242 C   0  0  0  0  0  0  0  0  0  0  0  0
   13.9915  -17.1328   19.8963 O   0  0  0  0  0  0  0  0  0  0  0  0
   12.7448  -16.6732   24.5719 O   0  0  0  0  0  0  0  0  0  0  0  0
   15.2762  -15.6597   21.1178 O   0  0  0  0  0  0  0  0  0  0  0  0
  1  2  1  0
  2  3  1  0
  3  4  2  0
  5  6  1  0
  5  3  1  0
  6 11  1  0
  6  7  1  6
  8  7  1  0
  9  8  1  0
  9 10  2  0
 11 14  1  0
 11 12  2  0
 13  9  1  0
 14 15  1  0
 15 19  1  0
 15 16  1  1
 16 17  1  0
 17 21  1  0
 17 18  2  0
 19 22  1  0
 20 19  2  0
M  END
$$$$
