GED.pdb
     RDKit          3D

 22 21  0  0  1  0  0  0  0  0999 V2000
   17.1782  -11.8863   15.4819 N   0  0  0  0  0  0  0  0  0  0  0  0
   16.4887  -13.0749   15.0369 C   0  0  0  0  0  0  0  0  0  0  0  0
   15.5270  -13.5722   16.1003 C   0  0  0  0  0  0  0  0  0  0  0  0
   15.6207  -13.1010   17.2523 O   0  0  0  0  0  0  0  0  0  0  0  0
   14.5676  -14.5401   15.7755 N   0  0  0  0  0  0  0  0  0  0  0  0
   13.6317  -15.1778   16.6278 C   0  0  1  0  0  0  0  0  0  0  0  0
   12.4767  -15.8872   15.9143 C   0  0  0  0  0  0  0  0  0  0  0  0
   11.5405  -16.3899   16.9521 C   0  0  0  0  0  0  0  0  0  0  0  0
   10.4081  -17.1628   16.4022 C   0  0  0  0  0  0  0  0  0  0  0  0
   10.5045  -18.2353   15.8056 O   0  0  0  0  0  0  0  0  0  0  0  0
   14.1884  -15.9531   17.7444 C   0  0  0  0  0  0  0  0  0  0  0  0
   14.8431  -16.9798   17.4789 O   0  0  0  0  0  0  0  0  0  0  0  0
    9.1293  -16.6035   16.5870 O   0  0  0  0  0  0  0  0  0  0  0  0
   14.0181  -15.5906   19.0984 N   0  0  0  0  0  0  0  0  0  0  0  0
   14.5859  -16.2892   20.2340 C   0  0  1  0  0  0  0  0  0  0  0  0
   15.2539  -15.2606   21.1203 C   0  0  0  0  0  0  0  0  0  0  0  0
   16.6377  -14.9626   20.7133 C   0  0  0  0  0  0  0  0  0  0  0  0
   17.1402  -15.6314   19.7695 O   0  0  0  0  0  0  0  0  0  0  0  0
   13.4646  -16.9439   20.9795 C   0  0  0  0  0  0  0  0  0  0  0  0
   13.6828  -17.6458   21.9692 O   0  0  0  0  0  0  0  0  0  0  0  0
   17.3825  -13.9920   21.3251 O   0  0  0  0  0  0  0  0  0  0  0  0
   12.1491  -16.7303   20.5124 O   0  0  0  0  0  0  0  0  0  0  0  0
  1  2  1  0
  2  3  1  0
  3  4  2  0
  5  6  1  0
  5  3  1  0
  6 11  1  0
  6  7  1  6
  8  7  1  0
  9  8  1  0
  9 10  2  0
 11 14  1  0
 11 12  2  0
 13  9  1  0
 14 15  1  0
 15 19  1  0
 15 16  1  1
 16 17  1  0
 17 21  1  0
 17 18  2  0
 19 22  1  0
 20 19  2  0
M  END
$$$$
