GED.pdb
     RDKit          3D

 22 21  0  0  1  0  0  0  0  0999 V2000
    7.9184  -18.3938   17.5712 N   0  0  0  0  0  0  0  0  0  0  0  0
    7.4094  -19.4332   18.4354 C   0  0  0  0  0  0  0  0  0  0  0  0
    7.1119  -18.8877   19.8198 C   0  0  0  0  0  0  0  0  0  0  0  0
    7.7316  -17.8748   20.2045 O   0  0  0  0  0  0  0  0  0  0  0  0
    6.1634  -19.5240   20.6313 N   0  0  0  0  0  0  0  0  0  0  0  0
    5.7923  -19.2172   21.9644 C   0  0  1  0  0  0  0  0  0  0  0  0
    4.3120  -19.4299   22.2955 C   0  0  0  0  0  0  0  0  0  0  0  0
    3.5120  -18.9209   21.1521 C   0  0  0  0  0  0  0  0  0  0  0  0
    2.0878  -19.3088   21.2080 C   0  0  0  0  0  0  0  0  0  0  0  0
    1.4697  -19.8705   20.3036 O   0  0  0  0  0  0  0  0  0  0  0  0
    6.6976  -19.6920   23.0194 C   0  0  0  0  0  0  0  0  0  0  0  0
    6.8872  -20.9194   23.1233 O   0  0  0  0  0  0  0  0  0  0  0  0
    1.4077  -18.9967   22.4006 O   0  0  0  0  0  0  0  0  0  0  0  0
    7.3608  -18.8267   23.9167 N   0  0  0  0  0  0  0  0  0  0  0  0
    8.2599  -19.2407   24.9751 C   0  0  1  0  0  0  0  0  0  0  0  0
    9.4790  -18.3459   24.9199 C   0  0  0  0  0  0  0  0  0  0  0  0
   10.4802  -18.7981   23.9389 C   0  0  0  0  0  0  0  0  0  0  0  0
   10.2521  -19.8603   23.2984 O   0  0  0  0  0  0  0  0  0  0  0  0
    7.5532  -19.0487   26.2810 C   0  0  0  0  0  0  0  0  0  0  0  0
    8.0260  -19.4888   27.3310 O   0  0  0  0  0  0  0  0  0  0  0  0
   11.6366  -18.1048   23.7080 O   0  0  0  0  0  0  0  0  0  0  0  0
    6.3282  -18.3463   26.2705 O   0  0  0  0  0  0  0  0  0  0  0  0
  1  2  1  0
  2  3  1  0
  3  4  2  0
  5  6  1  0
  5  3  1  0
  6 11  1  0
  6  7  1  1
  8  7  1  0
  9  8  1  0
  9 10  2  0
 11 14  1  0
 11 12  2  0
 13  9  1  0
 14 15  1  0
 15 19  1  0
 15 16  1  1
 16 17  1  0
 17 21  1  0
 17 18  2  0
 19 22  1  0
 20 19  2  0
M  END
$$$$
