EPN.pdb
     RDKit          3D

 25 25  0  0  1  0  0  0  0  0999 V2000
   27.5944  -22.1025  -16.0427 N   0  0  0  0  0  0  0  0  0  0  0  0
   27.2696  -21.0401  -15.1016 C   0  0  1  0  0  0  0  0  0  0  0  0
   27.1233  -19.7310  -15.8294 C   0  0  0  0  0  0  0  0  0  0  0  0
   28.2519  -19.3652  -16.7253 C   0  0  0  0  0  0  0  0  0  0  0  0
   28.1773  -18.0526  -17.3645 C   0  0  0  0  0  0  0  0  0  0  0  0
   27.1481  -17.7333  -18.0133 O   0  0  0  0  0  0  0  0  0  0  0  0
   26.0733  -21.3866  -14.2986 C   0  0  0  0  0  0  0  0  0  0  0  0
   25.0624  -21.9565  -14.8396 O   0  0  0  0  0  0  0  0  0  0  0  0
   29.1901  -17.0941  -17.3103 O   0  0  0  0  0  0  0  0  0  0  0  0
   25.9719  -21.1167  -12.9115 N   0  0  0  0  0  0  0  0  0  0  0  0
   27.0525  -20.5839  -12.1071 C   0  0  0  0  0  0  0  0  0  0  0  0
   26.7827  -21.2995  -10.7737 C   0  0  0  0  0  0  0  0  0  0  0  0
   25.2954  -21.0636  -10.6420 C   0  0  0  0  0  0  0  0  0  0  0  0
   24.8268  -21.3230  -12.0503 C   0  0  1  0  0  0  0  0  0  0  0  0
   23.7297  -20.3558  -12.3749 C   0  0  0  0  0  0  0  0  0  0  0  0
   23.9770  -19.2035  -12.8066 O   0  0  0  0  0  0  0  0  0  0  0  0
   19.0986  -18.9865  -14.3243 N   0  0  0  0  0  0  0  0  0  0  0  0
   20.1490  -19.6789  -14.9858 C   0  0  0  0  0  0  0  0  0  0  0  0
   20.1058  -19.7566  -16.2392 O   0  0  0  0  0  0  0  0  0  0  0  0
   21.2760  -20.3047  -14.2850 C   0  0  0  0  0  0  0  0  0  0  0  0
   21.2555  -20.0565  -12.7915 C   0  0  2  0  0  0  0  0  0  0  0  0
   22.3769  -20.7383  -12.1940 N   0  0  0  0  0  0  0  0  0  0  0  0
   20.0060  -20.6645  -12.2796 C   0  0  0  0  0  0  0  0  0  0  0  0
   18.9734  -19.9881  -12.0178 O   0  0  0  0  0  0  0  0  0  0  0  0
   19.9558  -22.0268  -12.0760 O   0  0  0  0  0  0  0  0  0  0  0  0
  2  7  1  0
  2  1  1  6
  3  4  1  0
  3  2  1  0
  5  4  1  0
  6  5  2  0
  7  8  2  0
  9  5  1  0
 10  7  1  0
 10 14  1  0
 11 10  1  0
 12 11  1  0
 12 13  1  0
 13 14  1  0
 14 15  1  6
 15 16  2  0
 17 18  1  0
 18 20  1  0
 19 18  2  0
 21 20  1  6
 21 23  1  0
 22 21  1  0
 22 15  1  0
 23 24  2  0
 23 25  1  0
M  END
$$$$
