EPN.pdb
     RDKit          3D

 25 25  0  0  1  0  0  0  0  0999 V2000
   27.2368  -21.5843  -15.1865 N   0  0  0  0  0  0  0  0  0  0  0  0
   26.0536  -21.3751  -16.0087 C   0  0  1  0  0  0  0  0  0  0  0  0
   25.8648  -22.5354  -16.9485 C   0  0  0  0  0  0  0  0  0  0  0  0
   26.5507  -22.4154  -18.2620 C   0  0  0  0  0  0  0  0  0  0  0  0
   27.5910  -23.4024  -18.5463 C   0  0  0  0  0  0  0  0  0  0  0  0
   28.6244  -23.0551  -19.1737 O   0  0  0  0  0  0  0  0  0  0  0  0
   24.8599  -21.1170  -15.1693 C   0  0  0  0  0  0  0  0  0  0  0  0
   24.6109  -21.8403  -14.1426 O   0  0  0  0  0  0  0  0  0  0  0  0
   27.5269  -24.7430  -18.1643 O   0  0  0  0  0  0  0  0  0  0  0  0
   23.9374  -20.0767  -15.4412 N   0  0  0  0  0  0  0  0  0  0  0  0
   23.9968  -19.2241  -16.6108 C   0  0  0  0  0  0  0  0  0  0  0  0
   23.4870  -17.9021  -16.0149 C   0  0  0  0  0  0  0  0  0  0  0  0
   22.2734  -18.4001  -15.2636 C   0  0  0  0  0  0  0  0  0  0  0  0
   22.8085  -19.6610  -14.6359 C   0  0  1  0  0  0  0  0  0  0  0  0
   21.7276  -20.6984  -14.6507 C   0  0  0  0  0  0  0  0  0  0  0  0
   21.5436  -21.4403  -15.6461 O   0  0  0  0  0  0  0  0  0  0  0  0
   18.9132  -24.4877  -11.2329 N   0  0  0  0  0  0  0  0  0  0  0  0
   18.6254  -23.1661  -11.6695 C   0  0  0  0  0  0  0  0  0  0  0  0
   17.4219  -22.8554  -11.8539 O   0  0  0  0  0  0  0  0  0  0  0  0
   19.6551  -22.1500  -11.9147 C   0  0  0  0  0  0  0  0  0  0  0  0
   19.8940  -21.8930  -13.3876 C   0  0  2  0  0  0  0  0  0  0  0  0
   20.8860  -20.8550  -13.5209 N   0  0  0  0  0  0  0  0  0  0  0  0
   18.6138  -21.3967  -13.9426 C   0  0  0  0  0  0  0  0  0  0  0  0
   17.7589  -22.1567  -14.4752 O   0  0  0  0  0  0  0  0  0  0  0  0
   18.3322  -20.0489  -13.8810 O   0  0  0  0  0  0  0  0  0  0  0  0
  2  7  1  0
  2  1  1  1
  3  4  1  0
  3  2  1  0
  5  4  1  0
  6  5  2  0
  7  8  2  0
  9  5  1  0
 10  7  1  0
 10 14  1  0
 11 10  1  0
 12 11  1  0
 12 13  1  0
 13 14  1  0
 14 15  1  6
 15 16  2  0
 17 18  1  0
 18 20  1  0
 19 18  2  0
 21 20  1  1
 21 23  1  0
 22 21  1  0
 22 15  1  0
 23 24  2  0
 23 25  1  0
M  END
$$$$
