EPN.pdb
     RDKit          3D

 25 25  0  0  1  0  0  0  0  0999 V2000
   21.2263  -20.3744  -11.2410 N   0  0  0  0  0  0  0  0  0  0  0  0
   22.2746  -21.1678  -11.8666 C   0  0  1  0  0  0  0  0  0  0  0  0
   21.6890  -22.0442  -12.9408 C   0  0  0  0  0  0  0  0  0  0  0  0
   20.2454  -21.8319  -13.2260 C   0  0  0  0  0  0  0  0  0  0  0  0
   19.9135  -21.3006  -14.5468 C   0  0  0  0  0  0  0  0  0  0  0  0
   20.1411  -21.9930  -15.5720 O   0  0  0  0  0  0  0  0  0  0  0  0
   23.3709  -20.3043  -12.3653 C   0  0  0  0  0  0  0  0  0  0  0  0
   23.1497  -19.0864  -12.6924 O   0  0  0  0  0  0  0  0  0  0  0  0
   19.3456  -20.0453  -14.7682 O   0  0  0  0  0  0  0  0  0  0  0  0
   24.7049  -20.7591  -12.5093 N   0  0  0  0  0  0  0  0  0  0  0  0
   25.1791  -22.0455  -12.0414 C   0  0  0  0  0  0  0  0  0  0  0  0
   26.6118  -21.6766  -11.6245 C   0  0  0  0  0  0  0  0  0  0  0  0
   27.0471  -20.8888  -12.8391 C   0  0  0  0  0  0  0  0  0  0  0  0
   25.8196  -20.0583  -13.1109 C   0  0  1  0  0  0  0  0  0  0  0  0
   25.6417  -19.9393  -14.5938 C   0  0  0  0  0  0  0  0  0  0  0  0
   24.6912  -20.5036  -15.1881 O   0  0  0  0  0  0  0  0  0  0  0  0
   23.9440  -16.5875  -17.9260 N   0  0  0  0  0  0  0  0  0  0  0  0
   24.8252  -16.2451  -16.8646 C   0  0  0  0  0  0  0  0  0  0  0  0
   25.2296  -15.0575  -16.7943 O   0  0  0  0  0  0  0  0  0  0  0  0
   25.2851  -17.2013  -15.8512 C   0  0  0  0  0  0  0  0  0  0  0  0
   26.1846  -18.2788  -16.4193 C   0  0  2  0  0  0  0  0  0  0  0  0
   26.5617  -19.1752  -15.3546 N   0  0  0  0  0  0  0  0  0  0  0  0
   27.4015  -17.5953  -16.9142 C   0  0  0  0  0  0  0  0  0  0  0  0
   27.6071  -17.3652  -18.1377 O   0  0  0  0  0  0  0  0  0  0  0  0
   28.3584  -17.1879  -16.0096 O   0  0  0  0  0  0  0  0  0  0  0  0
  2  7  1  0
  2  1  1  6
  3  4  1  0
  3  2  1  0
  5  4  1  0
  6  5  2  0
  7  8  2  0
  9  5  1  0
 10  7  1  0
 10 14  1  0
 11 10  1  0
 12 11  1  0
 12 13  1  0
 13 14  1  0
 14 15  1  6
 15 16  2  0
 17 18  1  0
 18 20  1  0
 19 18  2  0
 21 20  1  1
 21 23  1  0
 22 21  1  0
 22 15  1  0
 23 24  2  0
 23 25  1  0
M  END
$$$$
