EPN.pdb
     RDKit          3D

 25 25  0  0  1  0  0  0  0  0999 V2000
   24.0347  -20.8989  -14.4614 N   0  0  0  0  0  0  0  0  0  0  0  0
   22.5961  -20.6816  -14.4057 C   0  0  1  0  0  0  0  0  0  0  0  0
   21.9008  -21.5602  -15.4104 C   0  0  0  0  0  0  0  0  0  0  0  0
   21.9240  -21.0720  -16.8145 C   0  0  0  0  0  0  0  0  0  0  0  0
   21.1907  -19.8370  -17.0870 C   0  0  0  0  0  0  0  0  0  0  0  0
   21.8162  -18.7504  -17.1876 O   0  0  0  0  0  0  0  0  0  0  0  0
   22.0819  -20.8675  -13.0283 C   0  0  0  0  0  0  0  0  0  0  0  0
   22.6491  -21.6832  -12.2207 O   0  0  0  0  0  0  0  0  0  0  0  0
   19.8066  -19.7654  -17.2500 O   0  0  0  0  0  0  0  0  0  0  0  0
   20.9552  -20.1707  -12.5262 N   0  0  0  0  0  0  0  0  0  0  0  0
   20.1755  -19.2247  -13.2979 C   0  0  0  0  0  0  0  0  0  0  0  0
   19.7917  -18.2214  -12.1985 C   0  0  0  0  0  0  0  0  0  0  0  0
   19.3313  -19.1739  -11.1187 C   0  0  0  0  0  0  0  0  0  0  0  0
   20.3880  -20.2452  -11.1964 C   0  0  1  0  0  0  0  0  0  0  0  0
   19.7385  -21.5751  -10.9635 C   0  0  0  0  0  0  0  0  0  0  0  0
   19.3270  -22.2804  -11.9166 O   0  0  0  0  0  0  0  0  0  0  0  0
   18.6010  -25.3152   -6.0962 N   0  0  0  0  0  0  0  0  0  0  0  0
   18.9083  -24.9943   -7.4463 C   0  0  0  0  0  0  0  0  0  0  0  0
   18.7497  -25.8880   -8.3152 O   0  0  0  0  0  0  0  0  0  0  0  0
   19.3986  -23.6801   -7.8768 C   0  0  0  0  0  0  0  0  0  0  0  0
   19.0425  -23.3568   -9.3125 C   0  0  2  0  0  0  0  0  0  0  0  0
   19.5784  -22.0590   -9.6409 N   0  0  0  0  0  0  0  0  0  0  0  0
   17.5646  -23.2870   -9.3754 C   0  0  0  0  0  0  0  0  0  0  0  0
   16.9049  -22.3193   -8.9059 O   0  0  0  0  0  0  0  0  0  0  0  0
   16.8678  -24.3170   -9.9700 O   0  0  0  0  0  0  0  0  0  0  0  0
  2  7  1  0
  2  1  1  1
  3  4  1  0
  3  2  1  0
  5  4  1  0
  6  5  2  0
  7  8  2  0
  9  5  1  0
 10  7  1  0
 10 14  1  0
 11 10  1  0
 12 11  1  0
 12 13  1  0
 13 14  1  0
 14 15  1  6
 15 16  2  0
 17 18  1  0
 18 20  1  0
 19 18  2  0
 21 20  1  1
 21 23  1  0
 22 21  1  0
 22 15  1  0
 23 24  2  0
 23 25  1  0
M  END
$$$$
