EPN.pdb
     RDKit          3D

 25 25  0  0  1  0  0  0  0  0999 V2000
   18.8574   -9.5140  -16.2601 N   0  0  0  0  0  0  0  0  0  0  0  0
   19.2102   -8.3527  -15.4560 C   0  0  1  0  0  0  0  0  0  0  0  0
   18.5095   -7.1283  -15.9801 C   0  0  0  0  0  0  0  0  0  0  0  0
   18.9169   -6.6887  -17.3406 C   0  0  0  0  0  0  0  0  0  0  0  0
   18.3003   -5.4611  -17.8405 C   0  0  0  0  0  0  0  0  0  0  0  0
   18.4060   -5.1618  -19.0576 O   0  0  0  0  0  0  0  0  0  0  0  0
   18.9405   -8.5970  -14.0195 C   0  0  0  0  0  0  0  0  0  0  0  0
   18.0647   -9.4562  -13.6532 O   0  0  0  0  0  0  0  0  0  0  0  0
   17.5801   -4.5654  -17.0490 O   0  0  0  0  0  0  0  0  0  0  0  0
   19.6185   -7.9121  -12.9810 N   0  0  0  0  0  0  0  0  0  0  0  0
   20.7175   -6.9934  -13.1970 C   0  0  0  0  0  0  0  0  0  0  0  0
   21.5609   -7.2721  -11.9425 C   0  0  0  0  0  0  0  0  0  0  0  0
   20.4829   -7.2309  -10.8834 C   0  0  0  0  0  0  0  0  0  0  0  0
   19.3745   -7.9978  -11.5567 C   0  0  1  0  0  0  0  0  0  0  0  0
   18.0663   -7.3621  -11.1969 C   0  0  0  0  0  0  0  0  0  0  0  0
   17.6200   -6.3751  -11.8307 O   0  0  0  0  0  0  0  0  0  0  0  0
   13.4165   -6.7824   -8.6891 N   0  0  0  0  0  0  0  0  0  0  0  0
   13.9236   -8.1051   -8.5720 C   0  0  0  0  0  0  0  0  0  0  0  0
   13.1787   -8.9786   -8.0610 O   0  0  0  0  0  0  0  0  0  0  0  0
   15.2649   -8.5022   -9.0146 C   0  0  0  0  0  0  0  0  0  0  0  0
   15.9978   -7.3975   -9.7461 C   0  0  2  0  0  0  0  0  0  0  0  0
   17.3060   -7.8775  -10.1174 N   0  0  0  0  0  0  0  0  0  0  0  0
   16.1592   -6.2864   -8.7805 C   0  0  0  0  0  0  0  0  0  0  0  0
   17.0614   -6.2724   -7.8984 O   0  0  0  0  0  0  0  0  0  0  0  0
   15.2932   -5.2156   -8.8371 O   0  0  0  0  0  0  0  0  0  0  0  0
  2  7  1  0
  2  1  1  6
  3  4  1  0
  3  2  1  0
  5  4  1  0
  6  5  2  0
  7  8  2  0
  9  5  1  0
 10  7  1  0
 10 14  1  0
 11 10  1  0
 12 11  1  0
 12 13  1  0
 13 14  1  0
 14 15  1  6
 15 16  2  0
 17 18  1  0
 18 20  1  0
 19 18  2  0
 21 20  1  1
 21 23  1  0
 22 21  1  0
 22 15  1  0
 23 24  2  0
 23 25  1  0
M  END
$$$$
