EPN.pdb
     RDKit          3D

 25 25  0  0  1  0  0  0  0  0999 V2000
   27.8863  -22.0920  -15.8196 N   0  0  0  0  0  0  0  0  0  0  0  0
   27.6102  -21.0386  -14.8533 C   0  0  1  0  0  0  0  0  0  0  0  0
   27.7184  -19.6901  -15.5128 C   0  0  0  0  0  0  0  0  0  0  0  0
   26.7319  -19.4227  -16.5923 C   0  0  0  0  0  0  0  0  0  0  0  0
   26.8158  -18.1160  -17.2425 C   0  0  0  0  0  0  0  0  0  0  0  0
   25.7937  -17.6238  -17.7859 O   0  0  0  0  0  0  0  0  0  0  0  0
   26.3005  -21.2506  -14.1932 C   0  0  0  0  0  0  0  0  0  0  0  0
   25.3068  -21.7274  -14.8448 O   0  0  0  0  0  0  0  0  0  0  0  0
   27.9775  -17.3459  -17.3104 O   0  0  0  0  0  0  0  0  0  0  0  0
   26.0673  -20.9470  -12.8291 N   0  0  0  0  0  0  0  0  0  0  0  0
   27.0339  -20.3019  -11.9642 C   0  0  0  0  0  0  0  0  0  0  0  0
   26.7166  -20.9956  -10.6298 C   0  0  0  0  0  0  0  0  0  0  0  0
   25.2094  -20.8797  -10.6221 C   0  0  0  0  0  0  0  0  0  0  0  0
   24.8772  -21.2207  -12.0517 C   0  0  1  0  0  0  0  0  0  0  0  0
   23.7355  -20.3581  -12.4960 C   0  0  0  0  0  0  0  0  0  0  0  0
   23.9280  -19.2437  -13.0401 O   0  0  0  0  0  0  0  0  0  0  0  0
   18.9328  -19.3814  -14.3734 N   0  0  0  0  0  0  0  0  0  0  0  0
   19.8523  -20.2870  -14.9688 C   0  0  0  0  0  0  0  0  0  0  0  0
   19.6215  -20.6755  -16.1412 O   0  0  0  0  0  0  0  0  0  0  0  0
   21.0518  -20.7896  -14.2893 C   0  0  0  0  0  0  0  0  0  0  0  0
   21.2496  -20.1865  -12.9146 C   0  0  2  0  0  0  0  0  0  0  0  0
   22.4025  -20.7992  -12.3024 N   0  0  0  0  0  0  0  0  0  0  0  0
   20.0499  -20.5403  -12.1217 C   0  0  0  0  0  0  0  0  0  0  0  0
   19.0364  -19.7927  -12.0440 O   0  0  0  0  0  0  0  0  0  0  0  0
   20.0269  -21.7349  -11.4345 O   0  0  0  0  0  0  0  0  0  0  0  0
  2  7  1  0
  2  1  1  6
  3  4  1  0
  3  2  1  0
  5  4  1  0
  6  5  2  0
  7  8  2  0
  9  5  1  0
 10  7  1  0
 10 14  1  0
 11 10  1  0
 12 11  1  0
 12 13  1  0
 13 14  1  0
 14 15  1  6
 15 16  2  0
 17 18  1  0
 18 20  1  0
 19 18  2  0
 21 20  1  6
 21 23  1  0
 22 21  1  0
 22 15  1  0
 23 24  2  0
 23 25  1  0
M  END
$$$$
