EPN.pdb
     RDKit          3D

 25 25  0  0  1  0  0  0  0  0999 V2000
   21.2420  -19.6202  -13.9840 N   0  0  0  0  0  0  0  0  0  0  0  0
   22.0385  -20.5920  -13.2484 C   0  0  1  0  0  0  0  0  0  0  0  0
   21.7416  -21.9829  -13.7403 C   0  0  0  0  0  0  0  0  0  0  0  0
   20.4102  -22.5264  -13.3631 C   0  0  0  0  0  0  0  0  0  0  0  0
   19.2688  -21.6283  -13.5299 C   0  0  0  0  0  0  0  0  0  0  0  0
   18.7555  -21.4780  -14.6683 O   0  0  0  0  0  0  0  0  0  0  0  0
   23.4806  -20.2569  -13.3120 C   0  0  0  0  0  0  0  0  0  0  0  0
   23.9588  -19.6009  -14.3021 O   0  0  0  0  0  0  0  0  0  0  0  0
   18.6841  -20.9007  -12.4926 O   0  0  0  0  0  0  0  0  0  0  0  0
   24.4036  -20.6313  -12.3044 N   0  0  0  0  0  0  0  0  0  0  0  0
   24.0376  -21.3194  -11.0834 C   0  0  0  0  0  0  0  0  0  0  0  0
   25.0444  -20.6965  -10.1031 C   0  0  0  0  0  0  0  0  0  0  0  0
   26.3138  -20.8144  -10.9155 C   0  0  0  0  0  0  0  0  0  0  0  0
   25.8324  -20.3999  -12.2818 C   0  0  1  0  0  0  0  0  0  0  0  0
   26.5286  -21.2394  -13.3090 C   0  0  0  0  0  0  0  0  0  0  0  0
   26.3814  -22.4852  -13.3478 O   0  0  0  0  0  0  0  0  0  0  0  0
   28.3239  -22.5445  -17.9741 N   0  0  0  0  0  0  0  0  0  0  0  0
   27.0443  -22.6606  -17.3663 C   0  0  0  0  0  0  0  0  0  0  0  0
   26.1758  -23.3564  -17.9498 O   0  0  0  0  0  0  0  0  0  0  0  0
   26.6861  -22.0138  -16.0990 C   0  0  0  0  0  0  0  0  0  0  0  0
   27.8431  -21.2694  -15.4668 C   0  0  2  0  0  0  0  0  0  0  0  0
   27.3764  -20.6247  -14.2642 N   0  0  0  0  0  0  0  0  0  0  0  0
   28.2523  -20.2252  -16.4339 C   0  0  0  0  0  0  0  0  0  0  0  0
   29.0785  -20.4396  -17.3632 O   0  0  0  0  0  0  0  0  0  0  0  0
   27.7147  -18.9607  -16.3251 O   0  0  0  0  0  0  0  0  0  0  0  0
  2  7  1  0
  2  1  1  6
  3  4  1  0
  3  2  1  0
  5  4  1  0
  6  5  2  0
  7  8  2  0
  9  5  1  0
 10  7  1  0
 10 14  1  0
 11 10  1  0
 12 11  1  0
 12 13  1  0
 13 14  1  0
 14 15  1  6
 15 16  2  0
 17 18  1  0
 18 20  1  0
 19 18  2  0
 21 20  1  6
 21 23  1  0
 22 21  1  0
 22 15  1  0
 23 24  2  0
 23 25  1  0
M  END
$$$$
