LTH.pdb
     RDKit          3D

 26 26  0  0  1  0  0  0  0  0999 V2000
   16.8855  -16.4570  -17.1262 C   0  0  0  0  0  0  0  0  0  0  0  0
   16.8873  -15.3269  -16.1499 C   0  0  1  0  0  0  0  0  0  0  0  0
   17.9205  -15.6334  -15.0726 C   0  0  0  0  0  0  0  0  0  0  0  0
   17.1758  -13.9914  -16.7909 C   0  0  0  0  0  0  0  0  0  0  0  0
   17.0891  -12.9188  -15.7576 C   0  0  2  0  0  0  0  0  0  0  0  0
   15.7212  -12.8583  -15.2655 N   0  0  0  0  0  0  0  0  0  0  0  0
   17.3921  -11.5700  -16.3014 C   0  0  0  0  0  0  0  0  0  0  0  0
   17.9600  -11.4885  -17.4407 O   0  0  0  0  0  0  0  0  0  0  0  0
   15.1590   -9.2331  -17.5456 C   0  0  0  0  0  0  0  0  0  0  0  0
   15.9435   -8.4160  -16.5266 C   0  0  1  0  0  0  0  0  0  0  0  0
   15.2705   -8.2867  -15.3355 O   0  0  0  0  0  0  0  0  0  0  0  0
   17.3093   -9.0427  -16.3092 C   0  0  2  0  0  0  0  0  0  0  0  0
   17.0992  -10.3485  -15.6509 N   0  0  0  0  0  0  0  0  0  0  0  0
   18.2315   -8.2098  -15.5360 C   0  0  0  0  0  0  0  0  0  0  0  0
   18.2264   -8.2882  -14.2636 O   0  0  0  0  0  0  0  0  0  0  0  0
   19.1251   -7.3247  -16.1551 N   0  0  0  0  0  0  0  0  0  0  0  0
   20.1269   -6.5577  -15.3859 C   0  0  1  0  0  0  0  0  0  0  0  0
   21.4959   -6.7959  -15.9246 C   0  0  0  0  0  0  0  0  0  0  0  0
   21.9811   -8.1328  -15.5470 C   0  0  0  0  0  0  0  0  0  0  0  0
   21.3993   -9.0335  -14.6895 C   0  0  0  0  0  0  0  0  0  0  0  0
   22.1810  -10.1396  -14.5895 N   0  0  0  0  0  0  0  0  0  0  0  0
   23.2375   -9.9406  -15.3695 C   0  0  0  0  0  0  0  0  0  0  0  0
   23.1381   -8.7253  -15.9630 N   0  0  0  0  0  0  0  0  0  0  0  0
   19.7732   -5.1379  -15.5315 C   0  0  0  0  0  0  0  0  0  0  0  0
   20.3520   -4.0871  -14.8333 O   0  0  0  0  0  0  0  0  0  0  0  0
   18.8715   -4.8138  -16.3484 O   0  0  0  0  0  0  0  0  0  0  0  0
  2  1  1  6
  2  4  1  0
  3  2  1  0
  4  5  1  0
  5  7  1  0
  5  6  1  6
  7  8  2  0
 10 12  1  0
 10  9  1  6
 11 10  1  0
 13  7  1  0
 12 13  1  1
 14 12  1  0
 14 15  2  0
 16 14  1  0
 17 16  1  0
 17 24  1  0
 17 18  1  6
 19 23  1  0
 19 18  1  0
 20 19  2  0
 21 20  1  0
 21 22  1  0
 22 23  2  0
 24 25  1  0
 26 24  2  0
M  END
$$$$
