LTH.pdb
     RDKit          3D

 26 26  0  0  1  0  0  0  0  0999 V2000
   14.1873  -11.7682  -15.5532 C   0  0  0  0  0  0  0  0  0  0  0  0
   15.4755  -11.6989  -16.3056 C   0  0  1  0  0  0  0  0  0  0  0  0
   15.3423  -10.6213  -17.3747 C   0  0  0  0  0  0  0  0  0  0  0  0
   16.6641  -11.4169  -15.4194 C   0  0  0  0  0  0  0  0  0  0  0  0
   17.8977  -11.3470  -16.2555 C   0  0  2  0  0  0  0  0  0  0  0  0
   18.3221  -12.7026  -16.5704 N   0  0  0  0  0  0  0  0  0  0  0  0
   19.0382  -10.7116  -15.5467 C   0  0  0  0  0  0  0  0  0  0  0  0
   19.5466  -11.3201  -14.5475 O   0  0  0  0  0  0  0  0  0  0  0  0
   22.4348  -10.1095  -16.4107 C   0  0  0  0  0  0  0  0  0  0  0  0
   21.9134   -8.7298  -16.0286 C   0  0  1  0  0  0  0  0  0  0  0  0
   21.5938   -7.9721  -17.1294 O   0  0  0  0  0  0  0  0  0  0  0  0
   20.7161   -8.8720  -15.1056 C   0  0  2  0  0  0  0  0  0  0  0  0
   19.6169   -9.4680  -15.8924 N   0  0  0  0  0  0  0  0  0  0  0  0
   20.2920   -7.6181  -14.4814 C   0  0  0  0  0  0  0  0  0  0  0  0
   19.3375   -6.9527  -15.0024 O   0  0  0  0  0  0  0  0  0  0  0  0
   20.9058   -7.1244  -13.3218 N   0  0  0  0  0  0  0  0  0  0  0  0
   20.5236   -5.8279  -12.7247 C   0  0  1  0  0  0  0  0  0  0  0  0
   20.2671   -5.9787  -11.2644 C   0  0  0  0  0  0  0  0  0  0  0  0
   18.9149   -6.5066  -11.0227 C   0  0  0  0  0  0  0  0  0  0  0  0
   17.8927   -6.6611  -11.9262 C   0  0  0  0  0  0  0  0  0  0  0  0
   16.7959   -7.1543  -11.2950 N   0  0  0  0  0  0  0  0  0  0  0  0
   17.1198   -7.3079  -10.0160 C   0  0  0  0  0  0  0  0  0  0  0  0
   18.4053   -6.9199   -9.8260 N   0  0  0  0  0  0  0  0  0  0  0  0
   21.6554   -4.9144  -12.9409 C   0  0  0  0  0  0  0  0  0  0  0  0
   21.5805   -3.5285  -12.9616 O   0  0  0  0  0  0  0  0  0  0  0  0
   22.8030   -5.3975  -13.1286 O   0  0  0  0  0  0  0  0  0  0  0  0
  2  1  1  1
  2  4  1  0
  3  2  1  0
  4  5  1  0
  5  7  1  0
  5  6  1  1
  7  8  2  0
 10 12  1  0
 10  9  1  6
 11 10  1  0
 13  7  1  0
 12 13  1  6
 14 12  1  0
 14 15  2  0
 16 14  1  0
 17 16  1  0
 17 24  1  0
 17 18  1  1
 19 23  1  0
 19 18  1  0
 20 19  2  0
 21 20  1  0
 21 22  1  0
 22 23  2  0
 24 25  1  0
 26 24  2  0
M  END
$$$$
