LTH.pdb
     RDKit          3D

 26 26  0  0  1  0  0  0  0  0999 V2000
   11.1316  -12.1213  -14.5261 C   0  0  0  0  0  0  0  0  0  0  0  0
   12.4616  -12.6635  -14.9351 C   0  0  1  0  0  0  0  0  0  0  0  0
   12.4986  -12.7294  -16.4571 C   0  0  0  0  0  0  0  0  0  0  0  0
   13.6191  -11.8464  -14.4155 C   0  0  0  0  0  0  0  0  0  0  0  0
   14.9008  -12.4683  -14.8586 C   0  0  2  0  0  0  0  0  0  0  0  0
   15.1406  -13.6582  -14.0565 N   0  0  0  0  0  0  0  0  0  0  0  0
   16.0743  -11.5829  -14.6446 C   0  0  0  0  0  0  0  0  0  0  0  0
   16.4802  -11.3913  -13.4506 O   0  0  0  0  0  0  0  0  0  0  0  0
   19.5758  -11.8076  -15.5969 C   0  0  0  0  0  0  0  0  0  0  0  0
   19.1148  -10.4624  -16.1442 C   0  0  1  0  0  0  0  0  0  0  0  0
   18.8534  -10.5121  -17.4923 O   0  0  0  0  0  0  0  0  0  0  0  0
   17.8947   -9.9872  -15.3752 C   0  0  2  0  0  0  0  0  0  0  0  0
   16.7910  -10.9237  -15.6707 N   0  0  0  0  0  0  0  0  0  0  0  0
   17.5035   -8.6082  -15.6705 C   0  0  0  0  0  0  0  0  0  0  0  0
   16.6158   -8.3874  -16.5584 O   0  0  0  0  0  0  0  0  0  0  0  0
   18.0774   -7.5174  -15.0028 N   0  0  0  0  0  0  0  0  0  0  0  0
   17.7383   -6.1212  -15.3480 C   0  0  1  0  0  0  0  0  0  0  0  0
   16.8459   -5.5274  -14.3126 C   0  0  0  0  0  0  0  0  0  0  0  0
   16.5459   -4.1210  -14.6250 C   0  0  0  0  0  0  0  0  0  0  0  0
   16.3176   -3.5575  -15.8560 C   0  0  0  0  0  0  0  0  0  0  0  0
   16.1069   -2.2232  -15.7156 N   0  0  0  0  0  0  0  0  0  0  0  0
   16.2009   -1.9492  -14.4193 C   0  0  0  0  0  0  0  0  0  0  0  0
   16.4679   -3.0892  -13.7350 N   0  0  0  0  0  0  0  0  0  0  0  0
   19.0070   -5.3796  -15.3984 C   0  0  0  0  0  0  0  0  0  0  0  0
   19.1997   -4.1528  -16.0187 O   0  0  0  0  0  0  0  0  0  0  0  0
   20.0247   -5.8719  -14.8440 O   0  0  0  0  0  0  0  0  0  0  0  0
  2  1  1  6
  2  4  1  0
  3  2  1  0
  4  5  1  0
  5  7  1  0
  5  6  1  1
  7  8  2  0
 10 12  1  0
 10  9  1  1
 11 10  1  0
 13  7  1  0
 12 13  1  6
 14 12  1  0
 14 15  2  0
 16 14  1  0
 17 16  1  0
 17 24  1  0
 17 18  1  1
 19 23  1  0
 19 18  1  0
 20 19  2  0
 21 20  1  0
 21 22  1  0
 22 23  2  0
 24 25  1  0
 26 24  2  0
M  END
$$$$
