LTH.pdb
     RDKit          3D

 26 26  0  0  1  0  0  0  0  0999 V2000
   16.2089  -14.6858  -15.6354 C   0  0  0  0  0  0  0  0  0  0  0  0
   17.1954  -14.3197  -16.6951 C   0  0  1  0  0  0  0  0  0  0  0  0
   16.4219  -13.8331  -17.9145 C   0  0  0  0  0  0  0  0  0  0  0  0
   18.1843  -13.2716  -16.2465 C   0  0  0  0  0  0  0  0  0  0  0  0
   19.1631  -13.0151  -17.3428 C   0  0  2  0  0  0  0  0  0  0  0  0
   20.1105  -14.1185  -17.3863 N   0  0  0  0  0  0  0  0  0  0  0  0
   19.9692  -11.7875  -17.1190 C   0  0  0  0  0  0  0  0  0  0  0  0
   20.8521  -11.8008  -16.1984 O   0  0  0  0  0  0  0  0  0  0  0  0
   21.8183   -7.4640  -18.5889 C   0  0  0  0  0  0  0  0  0  0  0  0
   21.0697   -8.7642  -18.8541 C   0  0  1  0  0  0  0  0  0  0  0  0
   21.8156   -9.6520  -19.5915 O   0  0  0  0  0  0  0  0  0  0  0  0
   20.6389   -9.3853  -17.5371 C   0  0  2  0  0  0  0  0  0  0  0  0
   19.8376  -10.5856  -17.8531 N   0  0  0  0  0  0  0  0  0  0  0  0
   19.8960   -8.4759  -16.6636 C   0  0  0  0  0  0  0  0  0  0  0  0
   18.6731   -8.2234  -16.9202 O   0  0  0  0  0  0  0  0  0  0  0  0
   20.4911   -7.8716  -15.5474 N   0  0  0  0  0  0  0  0  0  0  0  0
   19.7679   -6.8945  -14.7073 C   0  0  1  0  0  0  0  0  0  0  0  0
   19.9969   -7.1753  -13.2617 C   0  0  0  0  0  0  0  0  0  0  0  0
   19.1020   -8.2432  -12.7883 C   0  0  0  0  0  0  0  0  0  0  0  0
   18.1475   -8.9257  -13.5011 C   0  0  0  0  0  0  0  0  0  0  0  0
   17.5176   -9.8127  -12.6882 N   0  0  0  0  0  0  0  0  0  0  0  0
   18.0642   -9.6920  -11.4836 C   0  0  0  0  0  0  0  0  0  0  0  0
   19.0315   -8.7421  -11.5199 N   0  0  0  0  0  0  0  0  0  0  0  0
   20.3025   -5.5679  -15.0489 C   0  0  0  0  0  0  0  0  0  0  0  0
   19.6846   -4.3551  -14.7768 O   0  0  0  0  0  0  0  0  0  0  0  0
   21.4112   -5.4901  -15.6408 O   0  0  0  0  0  0  0  0  0  0  0  0
  2  1  1  1
  2  4  1  0
  3  2  1  0
  4  5  1  0
  5  7  1  0
  5  6  1  1
  7  8  2  0
 10 12  1  0
 10  9  1  1
 11 10  1  0
 13  7  1  0
 12 13  1  6
 14 12  1  0
 14 15  2  0
 16 14  1  0
 17 16  1  0
 17 24  1  0
 17 18  1  1
 19 23  1  0
 19 18  1  0
 20 19  2  0
 21 20  1  0
 21 22  1  0
 22 23  2  0
 24 25  1  0
 26 24  2  0
M  END
$$$$
