LTH.pdb
     RDKit          3D

 26 26  0  0  1  0  0  0  0  0999 V2000
   20.3907  -23.0633  -16.7233 C   0  0  0  0  0  0  0  0  0  0  0  0
   20.8172  -24.3050  -17.4351 C   0  0  1  0  0  0  0  0  0  0  0  0
   21.3172  -23.9095  -18.8192 C   0  0  0  0  0  0  0  0  0  0  0  0
   21.8800  -25.0775  -16.6926 C   0  0  0  0  0  0  0  0  0  0  0  0
   22.2801  -26.2669  -17.4994 C   0  0  2  0  0  0  0  0  0  0  0  0
   21.2520  -27.2873  -17.3629 N   0  0  0  0  0  0  0  0  0  0  0  0
   23.5430  -26.8872  -17.0229 C   0  0  0  0  0  0  0  0  0  0  0  0
   23.4970  -27.6487  -16.0006 O   0  0  0  0  0  0  0  0  0  0  0  0
   24.8847  -29.6298  -17.5084 C   0  0  0  0  0  0  0  0  0  0  0  0
   26.0581  -28.7492  -17.9198 C   0  0  1  0  0  0  0  0  0  0  0  0
   26.0882  -28.5237  -19.2750 O   0  0  0  0  0  0  0  0  0  0  0  0
   26.0074  -27.4379  -17.1558 C   0  0  2  0  0  0  0  0  0  0  0  0
   24.8131  -26.7009  -17.6172 N   0  0  0  0  0  0  0  0  0  0  0  0
   27.2128  -26.6197  -17.2949 C   0  0  0  0  0  0  0  0  0  0  0  0
   27.1524  -25.5241  -17.9440 O   0  0  0  0  0  0  0  0  0  0  0  0
   28.4376  -27.0054  -16.7326 N   0  0  0  0  0  0  0  0  0  0  0  0
   29.6615  -26.1922  -16.8882 C   0  0  1  0  0  0  0  0  0  0  0  0
   30.7948  -26.8017  -16.1364 C   0  0  0  0  0  0  0  0  0  0  0  0
   32.0312  -26.0296  -16.3375 C   0  0  0  0  0  0  0  0  0  0  0  0
   32.1883  -24.8433  -17.0108 C   0  0  0  0  0  0  0  0  0  0  0  0
   33.4958  -24.4769  -16.9916 N   0  0  0  0  0  0  0  0  0  0  0  0
   34.1526  -25.4151  -16.3187 C   0  0  0  0  0  0  0  0  0  0  0  0
   33.2817  -26.3712  -15.9105 N   0  0  0  0  0  0  0  0  0  0  0  0
   29.9715  -26.1680  -18.3254 C   0  0  0  0  0  0  0  0  0  0  0  0
   29.5312  -27.0943  -19.2609 O   0  0  0  0  0  0  0  0  0  0  0  0
   30.6970  -25.2439  -18.7782 O   0  0  0  0  0  0  0  0  0  0  0  0
  2  1  1  1
  2  4  1  0
  3  2  1  0
  4  5  1  0
  5  7  1  0
  5  6  1  1
  7  8  2  0
 10 12  1  0
 10  9  1  6
 11 10  1  0
 13  7  1  0
 12 13  1  6
 14 12  1  0
 14 15  2  0
 16 14  1  0
 17 16  1  0
 17 24  1  0
 17 18  1  1
 19 23  1  0
 19 18  1  0
 20 19  2  0
 21 20  1  0
 21 22  1  0
 22 23  2  0
 24 25  1  0
 26 24  2  0
M  END
$$$$
