LTH.pdb
     RDKit          3D

 26 26  0  0  1  0  0  0  0  0999 V2000
   28.7036  -20.9848   -6.3155 C   0  0  0  0  0  0  0  0  0  0  0  0
   27.4013  -20.2791   -6.1249 C   0  0  1  0  0  0  0  0  0  0  0  0
   27.4412  -19.5666   -4.7785 C   0  0  0  0  0  0  0  0  0  0  0  0
   27.0920  -19.2989   -7.2300 C   0  0  0  0  0  0  0  0  0  0  0  0
   26.0351  -19.8698   -8.1147 C   0  0  2  0  0  0  0  0  0  0  0  0
   25.9976  -21.3114   -7.9221 N   0  0  0  0  0  0  0  0  0  0  0  0
   26.3137  -19.6533   -9.5578 C   0  0  0  0  0  0  0  0  0  0  0  0
   26.9639  -18.6108   -9.9005 O   0  0  0  0  0  0  0  0  0  0  0  0
   28.2962  -21.6228  -11.7392 C   0  0  0  0  0  0  0  0  0  0  0  0
   27.0139  -21.4436  -12.5422 C   0  0  1  0  0  0  0  0  0  0  0  0
   26.2317  -22.5734  -12.5308 O   0  0  0  0  0  0  0  0  0  0  0  0
   26.2416  -20.2475  -12.0145 C   0  0  2  0  0  0  0  0  0  0  0  0
   25.9117  -20.5204  -10.6006 N   0  0  0  0  0  0  0  0  0  0  0  0
   25.0357  -19.9308  -12.7810 C   0  0  0  0  0  0  0  0  0  0  0  0
   23.8914  -20.1406  -12.2598 O   0  0  0  0  0  0  0  0  0  0  0  0
   25.1011  -19.4004  -14.0770 N   0  0  0  0  0  0  0  0  0  0  0  0
   23.8883  -19.0101  -14.8255 C   0  0  1  0  0  0  0  0  0  0  0  0
   24.2487  -18.1889  -16.0158 C   0  0  0  0  0  0  0  0  0  0  0  0
   24.7726  -16.8762  -15.6063 C   0  0  0  0  0  0  0  0  0  0  0  0
   24.6217  -16.2445  -14.3966 C   0  0  0  0  0  0  0  0  0  0  0  0
   25.2343  -15.0330  -14.4345 N   0  0  0  0  0  0  0  0  0  0  0  0
   25.7620  -14.9019  -15.6464 C   0  0  0  0  0  0  0  0  0  0  0  0
   25.4938  -16.0119  -16.3780 N   0  0  0  0  0  0  0  0  0  0  0  0
   23.2400  -20.2572  -15.2573 C   0  0  0  0  0  0  0  0  0  0  0  0
   23.8291  -21.5141  -15.2572 O   0  0  0  0  0  0  0  0  0  0  0  0
   22.0510  -20.2164  -15.6699 O   0  0  0  0  0  0  0  0  0  0  0  0
  2  1  1  6
  2  4  1  0
  3  2  1  0
  4  5  1  0
  5  7  1  0
  5  6  1  6
  7  8  2  0
 10 12  1  0
 10  9  1  1
 11 10  1  0
 13  7  1  0
 12 13  1  1
 14 12  1  0
 14 15  2  0
 16 14  1  0
 17 16  1  0
 17 24  1  0
 17 18  1  6
 19 23  1  0
 19 18  1  0
 20 19  2  0
 21 20  1  0
 21 22  1  0
 22 23  2  0
 24 25  1  0
 26 24  2  0
M  END
$$$$
