LTH.pdb
     RDKit          3D

 26 26  0  0  1  0  0  0  0  0999 V2000
   31.3237  -20.5669  -11.2488 C   0  0  0  0  0  0  0  0  0  0  0  0
   30.1708  -21.0523  -12.0646 C   0  0  1  0  0  0  0  0  0  0  0  0
   29.6288  -22.3184  -11.4124 C   0  0  0  0  0  0  0  0  0  0  0  0
   29.0749  -20.0251  -12.2107 C   0  0  0  0  0  0  0  0  0  0  0  0
   27.9807  -20.5872  -13.0549 C   0  0  2  0  0  0  0  0  0  0  0  0
   28.5471  -21.0123  -14.3258 N   0  0  0  0  0  0  0  0  0  0  0  0
   26.9348  -19.5848  -13.3838 C   0  0  0  0  0  0  0  0  0  0  0  0
   27.1698  -18.3570  -13.1300 O   0  0  0  0  0  0  0  0  0  0  0  0
   26.6855  -17.2718  -14.3889 C   0  0  0  0  0  0  0  0  0  0  0  0
   25.5220  -17.8172  -15.2075 C   0  0  1  0  0  0  0  0  0  0  0  0
   25.9375  -18.3781  -16.3912 O   0  0  0  0  0  0  0  0  0  0  0  0
   24.7396  -18.8216  -14.3801 C   0  0  2  0  0  0  0  0  0  0  0  0
   25.6796  -19.8827  -13.9640 N   0  0  0  0  0  0  0  0  0  0  0  0
   23.5817  -19.3905  -15.0711 C   0  0  0  0  0  0  0  0  0  0  0  0
   23.7102  -20.4895  -15.7043 O   0  0  0  0  0  0  0  0  0  0  0  0
   22.3292  -18.7611  -15.0571 N   0  0  0  0  0  0  0  0  0  0  0  0
   21.1213  -19.4080  -15.6102 C   0  0  1  0  0  0  0  0  0  0  0  0
   20.8262  -20.6753  -14.8837 C   0  0  0  0  0  0  0  0  0  0  0  0
   19.6769  -21.3686  -15.4869 C   0  0  0  0  0  0  0  0  0  0  0  0
   18.8235  -20.9056  -16.4578 C   0  0  0  0  0  0  0  0  0  0  0  0
   17.8754  -21.8428  -16.7171 N   0  0  0  0  0  0  0  0  0  0  0  0
   18.1254  -22.8785  -15.9239 C   0  0  0  0  0  0  0  0  0  0  0  0
   19.2178  -22.6130  -15.1654 N   0  0  0  0  0  0  0  0  0  0  0  0
   20.0136  -18.4584  -15.4277 C   0  0  0  0  0  0  0  0  0  0  0  0
   20.1045  -17.2250  -14.7973 O   0  0  0  0  0  0  0  0  0  0  0  0
   18.8723  -18.7596  -15.8662 O   0  0  0  0  0  0  0  0  0  0  0  0
  2  1  1  1
  2  4  1  0
  3  2  1  0
  4  5  1  0
  5  7  1  0
  5  6  1  6
  7  8  2  0
 10 12  1  0
 10  9  1  1
 11 10  1  0
 13  7  1  0
 12 13  1  6
 14 12  1  0
 14 15  2  0
 16 14  1  0
 17 16  1  0
 17 24  1  0
 17 18  1  1
 19 23  1  0
 19 18  1  0
 20 19  2  0
 21 20  1  0
 21 22  1  0
 22 23  2  0
 24 25  1  0
 26 24  2  0
M  END
$$$$
