LTH.pdb
     RDKit          3D

 26 26  0  0  1  0  0  0  0  0999 V2000
   34.7402  -28.0671  -17.2071 C   0  0  0  0  0  0  0  0  0  0  0  0
   34.4782  -27.6286  -15.8038 C   0  0  1  0  0  0  0  0  0  0  0  0
   35.7458  -26.9748  -15.2673 C   0  0  0  0  0  0  0  0  0  0  0  0
   33.3084  -26.6821  -15.6881 C   0  0  0  0  0  0  0  0  0  0  0  0
   33.2378  -25.8326  -16.9125 C   0  0  2  0  0  0  0  0  0  0  0  0
   34.3980  -24.9550  -16.9358 N   0  0  0  0  0  0  0  0  0  0  0  0
   32.0476  -24.9438  -16.9284 C   0  0  0  0  0  0  0  0  0  0  0  0
   32.2090  -23.7086  -16.6538 O   0  0  0  0  0  0  0  0  0  0  0  0
   31.2744  -22.6342  -18.0453 C   0  0  0  0  0  0  0  0  0  0  0  0
   30.0557  -23.4235  -18.5069 C   0  0  1  0  0  0  0  0  0  0  0  0
   30.2839  -24.0878  -19.6880 O   0  0  0  0  0  0  0  0  0  0  0  0
   29.6290  -24.3913  -17.4174 C   0  0  2  0  0  0  0  0  0  0  0  0
   30.7289  -25.3591  -17.2273 N   0  0  0  0  0  0  0  0  0  0  0  0
   28.3677  -25.0807  -17.6926 C   0  0  0  0  0  0  0  0  0  0  0  0
   28.3799  -26.3325  -17.9333 O   0  0  0  0  0  0  0  0  0  0  0  0
   27.1405  -24.4032  -17.6987 N   0  0  0  0  0  0  0  0  0  0  0  0
   25.8542  -25.1141  -17.8526 C   0  0  1  0  0  0  0  0  0  0  0  0
   24.7166  -24.2251  -17.4831 C   0  0  0  0  0  0  0  0  0  0  0  0
   24.6672  -24.0167  -16.0272 C   0  0  0  0  0  0  0  0  0  0  0  0
   25.4658  -24.5814  -15.0637 C   0  0  0  0  0  0  0  0  0  0  0  0
   25.0751  -24.1506  -13.8365 N   0  0  0  0  0  0  0  0  0  0  0  0
   24.0479  -23.3291  -14.0218 C   0  0  0  0  0  0  0  0  0  0  0  0
   23.7810  -23.2319  -15.3478 N   0  0  0  0  0  0  0  0  0  0  0  0
   25.7502  -25.4953  -19.2689 C   0  0  0  0  0  0  0  0  0  0  0  0
   25.0598  -26.5951  -19.7593 O   0  0  0  0  0  0  0  0  0  0  0  0
   26.3265  -24.7870  -20.1359 O   0  0  0  0  0  0  0  0  0  0  0  0
  2  1  1  6
  2  4  1  0
  3  2  1  0
  4  5  1  0
  5  7  1  0
  5  6  1  1
  7  8  2  0
 10 12  1  0
 10  9  1  1
 11 10  1  0
 13  7  1  0
 12 13  1  6
 14 12  1  0
 14 15  2  0
 16 14  1  0
 17 16  1  0
 17 24  1  0
 17 18  1  6
 19 23  1  0
 19 18  1  0
 20 19  2  0
 21 20  1  0
 21 22  1  0
 22 23  2  0
 24 25  1  0
 26 24  2  0
M  END
$$$$
