LTH.pdb
     RDKit          3D

 26 26  0  0  1  0  0  0  0  0999 V2000
   28.9017  -20.2913   -8.4973 C   0  0  0  0  0  0  0  0  0  0  0  0
   27.4094  -20.3381   -8.5289 C   0  0  1  0  0  0  0  0  0  0  0  0
   26.8831  -18.9851   -8.0659 C   0  0  0  0  0  0  0  0  0  0  0  0
   26.8567  -20.6795   -9.8911 C   0  0  0  0  0  0  0  0  0  0  0  0
   25.3661  -20.6915   -9.8302 C   0  0  2  0  0  0  0  0  0  0  0  0
   24.9490  -21.7051   -8.8733 N   0  0  0  0  0  0  0  0  0  0  0  0
   24.7402  -21.0638  -11.1250 C   0  0  0  0  0  0  0  0  0  0  0  0
   24.8164  -22.2779  -11.5089 O   0  0  0  0  0  0  0  0  0  0  0  0
   21.2491  -21.0159  -14.3529 C   0  0  0  0  0  0  0  0  0  0  0  0
   21.9372  -20.6222  -13.0518 C   0  0  1  0  0  0  0  0  0  0  0  0
   21.5839  -21.4434  -12.0082 O   0  0  0  0  0  0  0  0  0  0  0  0
   23.4428  -20.6183  -13.2492 C   0  0  2  0  0  0  0  0  0  0  0  0
   24.0558  -20.1703  -11.9818 N   0  0  0  0  0  0  0  0  0  0  0  0
   23.8953  -19.7922  -14.3694 C   0  0  0  0  0  0  0  0  0  0  0  0
   23.9243  -18.5245  -14.2387 O   0  0  0  0  0  0  0  0  0  0  0  0
   24.3006  -20.3555  -15.5874 N   0  0  0  0  0  0  0  0  0  0  0  0
   24.7478  -19.5243  -16.7243 C   0  0  1  0  0  0  0  0  0  0  0  0
   25.6226  -20.3127  -17.6377 C   0  0  0  0  0  0  0  0  0  0  0  0
   26.9442  -20.5379  -17.0311 C   0  0  0  0  0  0  0  0  0  0  0  0
   27.4715  -19.9492  -15.9083 C   0  0  0  0  0  0  0  0  0  0  0  0
   28.7326  -20.4088  -15.7011 N   0  0  0  0  0  0  0  0  0  0  0  0
   28.9968  -21.2718  -16.6757 C   0  0  0  0  0  0  0  0  0  0  0  0
   27.9226  -21.3668  -17.4981 N   0  0  0  0  0  0  0  0  0  0  0  0
   23.5348  -19.0993  -17.4384 C   0  0  0  0  0  0  0  0  0  0  0  0
   23.4097  -17.9448  -18.1990 O   0  0  0  0  0  0  0  0  0  0  0  0
   22.5038  -19.8193  -17.3733 O   0  0  0  0  0  0  0  0  0  0  0  0
  2  1  1  6
  2  4  1  0
  3  2  1  0
  4  5  1  0
  5  7  1  0
  5  6  1  1
  7  8  2  0
 10 12  1  0
 10  9  1  6
 11 10  1  0
 13  7  1  0
 12 13  1  1
 14 12  1  0
 14 15  2  0
 16 14  1  0
 17 16  1  0
 17 24  1  0
 17 18  1  6
 19 23  1  0
 19 18  1  0
 20 19  2  0
 21 20  1  0
 21 22  1  0
 22 23  2  0
 24 25  1  0
 26 24  2  0
M  END
$$$$
