YKL.pdb
     RDKit          3D

 30 30  0  0  1  0  0  0  0  0999 V2000
    9.7939  -12.6551   19.3728 O   0  0  0  0  0  0  0  0  0  0  0  0
    8.7647  -13.4976   19.8001 C   0  0  0  0  0  0  0  0  0  0  0  0
    8.2695  -14.4858   18.9784 C   0  0  0  0  0  0  0  0  0  0  0  0
    7.2551  -15.3280   19.3786 C   0  0  0  0  0  0  0  0  0  0  0  0
    6.6880  -15.2123   20.6359 C   0  0  0  0  0  0  0  0  0  0  0  0
    5.5943  -16.1536   21.0112 C   0  0  0  0  0  0  0  0  0  0  0  0
    6.1654  -17.4901   21.5024 C   0  0  2  0  0  0  0  0  0  0  0  0
    5.0886  -18.4358   21.4957 N   0  0  0  0  0  0  0  0  0  0  0  0
    6.7145  -17.3880   22.8746 C   0  0  0  0  0  0  0  0  0  0  0  0
    5.9624  -17.2450   23.8901 O   0  0  0  0  0  0  0  0  0  0  0  0
    7.1654  -14.2322   21.4765 C   0  0  0  0  0  0  0  0  0  0  0  0
    8.1953  -13.3881   21.0507 C   0  0  0  0  0  0  0  0  0  0  0  0
    8.1124  -17.4423   23.1686 N   0  0  0  0  0  0  0  0  0  0  0  0
    8.6251  -17.5480   24.5078 C   0  0  1  0  0  0  0  0  0  0  0  0
    9.8485  -18.4444   24.5758 C   0  0  0  0  0  0  0  0  0  0  0  0
   10.2702  -18.7288   25.9919 C   0  0  0  0  0  0  0  0  0  0  0  0
   11.5315  -19.5943   25.8950 C   0  0  0  0  0  0  0  0  0  0  0  0
   12.0478  -19.9426   27.2743 C   0  0  0  0  0  0  0  0  0  0  0  0
   13.2161  -20.7862   27.0807 N   0  0  0  0  0  0  0  0  0  0  0  0
    9.0866  -16.2061   24.9839 C   0  0  0  0  0  0  0  0  0  0  0  0
   10.0513  -15.6576   24.3942 O   0  0  0  0  0  0  0  0  0  0  0  0
    6.2552  -12.1423   27.7511 C   0  0  0  0  0  0  0  0  0  0  0  0
    7.2237  -12.9228   26.8539 C   0  0  2  0  0  0  0  0  0  0  0  0
    6.4450  -13.7217   25.8640 C   0  0  0  0  0  0  0  0  0  0  0  0
    8.1609  -13.7512   27.6831 C   0  0  0  0  0  0  0  0  0  0  0  0
    9.1266  -14.4996   26.8508 C   0  0  2  0  0  0  0  0  0  0  0  0
    8.4486  -15.5590   26.0832 N   0  0  0  0  0  0  0  0  0  0  0  0
   10.2388  -15.0423   27.6193 C   0  0  0  0  0  0  0  0  0  0  0  0
   10.2138  -16.2957   27.8748 O   0  0  0  0  0  0  0  0  0  0  0  0
   11.3376  -14.3804   28.1160 O   0  0  0  0  0  0  0  0  0  0  0  0
  1  2  1  0
  2  3  2  0
  3  4  1  0
  5  4  2  0
  5  6  1  0
  7  6  1  0
  7  8  1  1
  9  7  1  0
 10  9  2  0
 11  5  1  0
 12  2  1  0
 12 11  2  0
 13  9  1  0
 14 13  1  0
 15 16  1  0
 14 15  1  6
 17 16  1  0
 18 17  1  0
 19 18  1  0
 20 21  2  0
 20 14  1  0
 23 22  1  1
 23 25  1  0
 24 23  1  0
 26 25  1  1
 26 27  1  0
 27 20  1  0
 28 30  1  0
 28 26  1  0
 29 28  2  0
M  END
$$$$
