YKL.pdb
     RDKit          3D

 30 30  0  0  1  0  0  0  0  0999 V2000
    9.4967  -12.1402   17.5468 O   0  0  0  0  0  0  0  0  0  0  0  0
    8.7575  -12.9461   18.4161 C   0  0  0  0  0  0  0  0  0  0  0  0
    7.6469  -12.4557   19.0665 C   0  0  0  0  0  0  0  0  0  0  0  0
    6.9030  -13.2322   19.9280 C   0  0  0  0  0  0  0  0  0  0  0  0
    7.2467  -14.5499   20.1760 C   0  0  0  0  0  0  0  0  0  0  0  0
    6.4020  -15.3392   21.1175 C   0  0  0  0  0  0  0  0  0  0  0  0
    6.9111  -16.7816   21.2335 C   0  0  2  0  0  0  0  0  0  0  0  0
    5.8295  -17.6416   20.8536 N   0  0  0  0  0  0  0  0  0  0  0  0
    7.3326  -17.1118   22.6150 C   0  0  0  0  0  0  0  0  0  0  0  0
    6.4906  -17.4002   23.5233 O   0  0  0  0  0  0  0  0  0  0  0  0
    8.3529  -15.0640   19.5379 C   0  0  0  0  0  0  0  0  0  0  0  0
    9.0940  -14.2590   18.6677 C   0  0  0  0  0  0  0  0  0  0  0  0
    8.6985  -17.1353   23.0363 N   0  0  0  0  0  0  0  0  0  0  0  0
    9.0950  -17.4482   24.3825 C   0  0  1  0  0  0  0  0  0  0  0  0
   10.3263  -18.3357   24.4174 C   0  0  0  0  0  0  0  0  0  0  0  0
   10.0492  -19.7179   23.8913 C   0  0  0  0  0  0  0  0  0  0  0  0
   11.3906  -20.4590   23.9135 C   0  0  0  0  0  0  0  0  0  0  0  0
   11.2446  -21.8460   23.3259 C   0  0  0  0  0  0  0  0  0  0  0  0
   12.5537  -22.4733   23.4090 N   0  0  0  0  0  0  0  0  0  0  0  0
    9.4856  -16.1955   25.1026 C   0  0  0  0  0  0  0  0  0  0  0  0
   10.6080  -15.6860   24.8582 O   0  0  0  0  0  0  0  0  0  0  0  0
    6.3506  -12.0388   26.7713 C   0  0  0  0  0  0  0  0  0  0  0  0
    7.7925  -12.5494   26.6591 C   0  0  2  0  0  0  0  0  0  0  0  0
    8.1218  -12.7878   25.2241 C   0  0  0  0  0  0  0  0  0  0  0  0
    7.9937  -13.7581   27.5255 C   0  0  0  0  0  0  0  0  0  0  0  0
    9.0960  -14.6144   27.0385 C   0  0  2  0  0  0  0  0  0  0  0  0
    8.6061  -15.5885   26.0473 N   0  0  0  0  0  0  0  0  0  0  0  0
    9.8157  -15.2820   28.1147 C   0  0  0  0  0  0  0  0  0  0  0  0
   10.3546  -14.5376   29.0048 O   0  0  0  0  0  0  0  0  0  0  0  0
    9.9972  -16.6311   28.3129 O   0  0  0  0  0  0  0  0  0  0  0  0
  1  2  1  0
  2  3  2  0
  3  4  1  0
  5  4  2  0
  5  6  1  0
  7  6  1  0
  7  8  1  1
  9  7  1  0
 10  9  2  0
 11  5  1  0
 12  2  1  0
 12 11  2  0
 13  9  1  0
 14 13  1  0
 15 16  1  0
 14 15  1  6
 17 16  1  0
 18 17  1  0
 19 18  1  0
 20 21  2  0
 20 14  1  0
 23 22  1  6
 23 25  1  0
 24 23  1  0
 26 25  1  1
 26 27  1  0
 27 20  1  0
 28 30  1  0
 28 26  1  0
 29 28  2  0
M  END
$$$$
