YKL.pdb
     RDKit          3D

 30 30  0  0  1  0  0  0  0  0999 V2000
    8.6533  -13.6950   15.9971 O   0  0  0  0  0  0  0  0  0  0  0  0
    8.3738  -13.9481   17.3423 C   0  0  0  0  0  0  0  0  0  0  0  0
    8.6443  -15.1761   17.9043 C   0  0  0  0  0  0  0  0  0  0  0  0
    8.3770  -15.4480   19.2283 C   0  0  0  0  0  0  0  0  0  0  0  0
    7.8200  -14.4869   20.0542 C   0  0  0  0  0  0  0  0  0  0  0  0
    7.5548  -14.8411   21.4780 C   0  0  0  0  0  0  0  0  0  0  0  0
    7.0102  -16.2704   21.5954 C   0  0  2  0  0  0  0  0  0  0  0  0
    5.6416  -16.2355   21.1716 N   0  0  0  0  0  0  0  0  0  0  0  0
    7.0758  -16.7768   22.9862 C   0  0  0  0  0  0  0  0  0  0  0  0
    6.1375  -16.5729   23.8201 O   0  0  0  0  0  0  0  0  0  0  0  0
    7.5402  -13.2510   19.5164 C   0  0  0  0  0  0  0  0  0  0  0  0
    7.8193  -12.9958   18.1705 C   0  0  0  0  0  0  0  0  0  0  0  0
    8.1798  -17.5259   23.4994 N   0  0  0  0  0  0  0  0  0  0  0  0
    8.3299  -17.8388   24.8948 C   0  0  1  0  0  0  0  0  0  0  0  0
    9.0671  -19.1494   25.1043 C   0  0  0  0  0  0  0  0  0  0  0  0
    9.2957  -19.4495   26.5609 C   0  0  0  0  0  0  0  0  0  0  0  0
   10.0391  -20.7891   26.6081 C   0  0  0  0  0  0  0  0  0  0  0  0
   10.2563  -21.2294   28.0397 C   0  0  0  0  0  0  0  0  0  0  0  0
   10.9772  -22.4909   27.9823 N   0  0  0  0  0  0  0  0  0  0  0  0
    9.1712  -16.7965   25.5628 C   0  0  0  0  0  0  0  0  0  0  0  0
   10.2532  -16.4584   25.0207 O   0  0  0  0  0  0  0  0  0  0  0  0
    8.7459  -12.9110   25.7594 C   0  0  0  0  0  0  0  0  0  0  0  0
    7.8914  -13.4919   26.8927 C   0  0  2  0  0  0  0  0  0  0  0  0
    6.9530  -12.4449   27.3903 C   0  0  0  0  0  0  0  0  0  0  0  0
    8.7634  -14.0705   27.9684 C   0  0  0  0  0  0  0  0  0  0  0  0
    9.5908  -15.1903   27.4716 C   0  0  2  0  0  0  0  0  0  0  0  0
    8.7582  -16.1965   26.7891 N   0  0  0  0  0  0  0  0  0  0  0  0
   10.4018  -15.8044   28.5142 C   0  0  0  0  0  0  0  0  0  0  0  0
   10.0489  -16.9657   28.9189 O   0  0  0  0  0  0  0  0  0  0  0  0
   11.5206  -15.2994   29.1350 O   0  0  0  0  0  0  0  0  0  0  0  0
  1  2  1  0
  2  3  2  0
  3  4  1  0
  5  4  2  0
  5  6  1  0
  7  6  1  0
  7  8  1  1
  9  7  1  0
 10  9  2  0
 11  5  1  0
 12  2  1  0
 12 11  2  0
 13  9  1  0
 14 13  1  0
 15 16  1  0
 14 15  1  6
 17 16  1  0
 18 17  1  0
 19 18  1  0
 20 21  2  0
 20 14  1  0
 23 22  1  6
 23 25  1  0
 24 23  1  0
 26 25  1  1
 26 27  1  0
 27 20  1  0
 28 30  1  0
 28 26  1  0
 29 28  2  0
M  END
$$$$
