YKL.pdb
     RDKit          3D

 30 30  0  0  1  0  0  0  0  0999 V2000
    9.0489  -12.7964   16.4233 O   0  0  0  0  0  0  0  0  0  0  0  0
    8.5508  -13.2112   17.6608 C   0  0  0  0  0  0  0  0  0  0  0  0
    7.2612  -12.9139   18.0422 C   0  0  0  0  0  0  0  0  0  0  0  0
    6.7489  -13.3127   19.2576 C   0  0  0  0  0  0  0  0  0  0  0  0
    7.5190  -14.0356   20.1522 C   0  0  0  0  0  0  0  0  0  0  0  0
    6.9080  -14.4390   21.4510 C   0  0  0  0  0  0  0  0  0  0  0  0
    7.9222  -15.1880   22.3251 C   0  0  2  0  0  0  0  0  0  0  0  0
    8.3868  -16.3097   21.5636 N   0  0  0  0  0  0  0  0  0  0  0  0
    7.3155  -15.6742   23.5863 C   0  0  0  0  0  0  0  0  0  0  0  0
    6.6440  -14.9081   24.3476 O   0  0  0  0  0  0  0  0  0  0  0  0
    8.8116  -14.3457   19.7944 C   0  0  0  0  0  0  0  0  0  0  0  0
    9.3119  -13.9314   18.5565 C   0  0  0  0  0  0  0  0  0  0  0  0
    7.4302  -17.0230   24.0456 N   0  0  0  0  0  0  0  0  0  0  0  0
    6.6245  -17.5564   25.1104 C   0  0  1  0  0  0  0  0  0  0  0  0
    6.1346  -18.9596   24.8004 C   0  0  0  0  0  0  0  0  0  0  0  0
    5.4487  -19.0427   23.4637 C   0  0  0  0  0  0  0  0  0  0  0  0
    5.1420  -20.5267   23.2339 C   0  0  0  0  0  0  0  0  0  0  0  0
    4.5730  -20.7466   21.8489 C   0  0  0  0  0  0  0  0  0  0  0  0
    4.5375  -22.1846   21.6369 N   0  0  0  0  0  0  0  0  0  0  0  0
    7.4462  -17.6865   26.3548 C   0  0  0  0  0  0  0  0  0  0  0  0
    6.8582  -17.7001   27.4653 O   0  0  0  0  0  0  0  0  0  0  0  0
    9.8809  -14.2666   29.5443 C   0  0  0  0  0  0  0  0  0  0  0  0
   10.2231  -14.8056   28.1499 C   0  0  2  0  0  0  0  0  0  0  0  0
   10.2504  -13.6757   27.1766 C   0  0  0  0  0  0  0  0  0  0  0  0
    9.2772  -15.9041   27.7614 C   0  0  0  0  0  0  0  0  0  0  0  0
    9.7388  -16.6381   26.5641 C   0  0  2  0  0  0  0  0  0  0  0  0
    8.8668  -17.7932   26.2872 N   0  0  0  0  0  0  0  0  0  0  0  0
   11.1344  -17.0465   26.6503 C   0  0  0  0  0  0  0  0  0  0  0  0
   11.8404  -16.9366   25.5889 O   0  0  0  0  0  0  0  0  0  0  0  0
   11.8140  -17.5415   27.7390 O   0  0  0  0  0  0  0  0  0  0  0  0
  1  2  1  0
  2  3  2  0
  3  4  1  0
  5  4  2  0
  5  6  1  0
  7  6  1  0
  7  8  1  6
  9  7  1  0
 10  9  2  0
 11  5  1  0
 12  2  1  0
 12 11  2  0
 13  9  1  0
 14 13  1  0
 15 16  1  0
 14 15  1  6
 17 16  1  0
 18 17  1  0
 19 18  1  0
 20 21  2  0
 20 14  1  0
 23 22  1  1
 23 25  1  0
 24 23  1  0
 26 25  1  1
 26 27  1  0
 27 20  1  0
 28 30  1  0
 28 26  1  0
 29 28  2  0
M  END
$$$$
