YKL.pdb
     RDKit          3D

 30 30  0  0  1  0  0  0  0  0999 V2000
    4.8464   -9.9295   26.6046 O   0  0  0  0  0  0  0  0  0  0  0  0
    5.5502  -11.1249   26.4389 C   0  0  0  0  0  0  0  0  0  0  0  0
    5.1390  -12.2824   27.0618 C   0  0  0  0  0  0  0  0  0  0  0  0
    5.8174  -13.4724   26.9129 C   0  0  0  0  0  0  0  0  0  0  0  0
    6.9511  -13.5517   26.1227 C   0  0  0  0  0  0  0  0  0  0  0  0
    7.6409  -14.8677   26.0002 C   0  0  0  0  0  0  0  0  0  0  0  0
    7.1116  -15.6543   24.7941 C   0  0  2  0  0  0  0  0  0  0  0  0
    5.8953  -16.2899   25.2069 N   0  0  0  0  0  0  0  0  0  0  0  0
    8.0713  -16.6883   24.3415 C   0  0  0  0  0  0  0  0  0  0  0  0
    8.2951  -17.7401   25.0204 O   0  0  0  0  0  0  0  0  0  0  0  0
    7.3827  -12.4083   25.4890 C   0  0  0  0  0  0  0  0  0  0  0  0
    6.6798  -11.2111   25.6535 C   0  0  0  0  0  0  0  0  0  0  0  0
    8.8132  -16.5936   23.1233 N   0  0  0  0  0  0  0  0  0  0  0  0
   10.0721  -17.2587   22.9220 C   0  0  1  0  0  0  0  0  0  0  0  0
   10.7127  -16.8691   21.6019 C   0  0  0  0  0  0  0  0  0  0  0  0
   11.9720  -17.6454   21.3271 C   0  0  0  0  0  0  0  0  0  0  0  0
   11.5320  -18.9393   20.6333 C   0  0  0  0  0  0  0  0  0  0  0  0
   12.7347  -19.7353   20.1747 C   0  0  0  0  0  0  0  0  0  0  0  0
   12.2200  -20.9270   19.5196 N   0  0  0  0  0  0  0  0  0  0  0  0
   11.0456  -16.8367   23.9778 C   0  0  0  0  0  0  0  0  0  0  0  0
   11.9334  -15.9996   23.6776 O   0  0  0  0  0  0  0  0  0  0  0  0
   11.6038  -14.2843   26.7403 C   0  0  0  0  0  0  0  0  0  0  0  0
   10.7453  -15.4014   27.3463 C   0  0  2  0  0  0  0  0  0  0  0  0
   10.1055  -14.9078   28.5999 C   0  0  0  0  0  0  0  0  0  0  0  0
   11.5604  -16.6461   27.5434 C   0  0  0  0  0  0  0  0  0  0  0  0
   12.0689  -17.1864   26.2647 C   0  0  2  0  0  0  0  0  0  0  0  0
   10.9716  -17.3702   25.2985 N   0  0  0  0  0  0  0  0  0  0  0  0
   12.8303  -18.4172   26.4300 C   0  0  0  0  0  0  0  0  0  0  0  0
   13.9075  -18.3481   27.1168 O   0  0  0  0  0  0  0  0  0  0  0  0
   12.5437  -19.6711   25.9425 O   0  0  0  0  0  0  0  0  0  0  0  0
  1  2  1  0
  2  3  2  0
  3  4  1  0
  5  4  2  0
  5  6  1  0
  7  6  1  0
  7  8  1  1
  9  7  1  0
 10  9  2  0
 11  5  1  0
 12  2  1  0
 12 11  2  0
 13  9  1  0
 14 13  1  0
 15 16  1  0
 14 15  1  6
 17 16  1  0
 18 17  1  0
 19 18  1  0
 20 21  2  0
 20 14  1  0
 23 22  1  1
 23 25  1  0
 24 23  1  0
 26 25  1  1
 26 27  1  0
 27 20  1  0
 28 30  1  0
 28 26  1  0
 29 28  2  0
M  END
$$$$
