YKL.pdb
     RDKit          3D

 30 30  0  0  1  0  0  0  0  0999 V2000
    8.2336  -12.9481   16.2156 O   0  0  0  0  0  0  0  0  0  0  0  0
    7.9225  -13.2959   17.5324 C   0  0  0  0  0  0  0  0  0  0  0  0
    7.9614  -14.6086   17.9474 C   0  0  0  0  0  0  0  0  0  0  0  0
    7.6587  -14.9748   19.2408 C   0  0  0  0  0  0  0  0  0  0  0  0
    7.2997  -14.0270   20.1837 C   0  0  0  0  0  0  0  0  0  0  0  0
    6.9844  -14.4852   21.5670 C   0  0  0  0  0  0  0  0  0  0  0  0
    7.2123  -15.9956   21.7098 C   0  0  2  0  0  0  0  0  0  0  0  0
    6.2104  -16.6490   20.9205 N   0  0  0  0  0  0  0  0  0  0  0  0
    7.0920  -16.4442   23.1167 C   0  0  0  0  0  0  0  0  0  0  0  0
    6.3435  -15.8440   23.9514 O   0  0  0  0  0  0  0  0  0  0  0  0
    7.2534  -12.7076   19.7938 C   0  0  0  0  0  0  0  0  0  0  0  0
    7.5643  -12.3575   18.4765 C   0  0  0  0  0  0  0  0  0  0  0  0
    7.7940  -17.5716   23.6456 N   0  0  0  0  0  0  0  0  0  0  0  0
    7.7532  -17.9345   25.0364 C   0  0  1  0  0  0  0  0  0  0  0  0
    7.8486  -19.4371   25.2316 C   0  0  0  0  0  0  0  0  0  0  0  0
    6.5915  -20.1487   24.8105 C   0  0  0  0  0  0  0  0  0  0  0  0
    6.8442  -21.6405   25.0550 C   0  0  0  0  0  0  0  0  0  0  0  0
    5.6589  -22.4648   24.6011 C   0  0  0  0  0  0  0  0  0  0  0  0
    5.9669  -23.8490   24.9222 N   0  0  0  0  0  0  0  0  0  0  0  0
    8.9406  -17.3637   25.7467 C   0  0  0  0  0  0  0  0  0  0  0  0
   10.0441  -17.3340   25.1462 O   0  0  0  0  0  0  0  0  0  0  0  0
    9.7213  -13.6370   26.5737 C   0  0  0  0  0  0  0  0  0  0  0  0
    8.8906  -14.1901   27.7382 C   0  0  2  0  0  0  0  0  0  0  0  0
    8.3327  -13.0556   28.5296 C   0  0  0  0  0  0  0  0  0  0  0  0
    9.7041  -15.1467   28.5600 C   0  0  0  0  0  0  0  0  0  0  0  0
   10.0075  -16.3929   27.8249 C   0  0  2  0  0  0  0  0  0  0  0  0
    8.8277  -16.8625   27.0773 N   0  0  0  0  0  0  0  0  0  0  0  0
   10.5344  -17.4455   28.6830 C   0  0  0  0  0  0  0  0  0  0  0  0
   11.6339  -17.2053   29.2916 O   0  0  0  0  0  0  0  0  0  0  0  0
   10.0005  -18.6873   28.9380 O   0  0  0  0  0  0  0  0  0  0  0  0
  1  2  1  0
  2  3  2  0
  3  4  1  0
  5  4  2  0
  5  6  1  0
  7  6  1  0
  7  8  1  6
  9  7  1  0
 10  9  2  0
 11  5  1  0
 12  2  1  0
 12 11  2  0
 13  9  1  0
 14 13  1  0
 15 16  1  0
 14 15  1  6
 17 16  1  0
 18 17  1  0
 19 18  1  0
 20 21  2  0
 20 14  1  0
 23 22  1  6
 23 25  1  0
 24 23  1  0
 26 25  1  1
 26 27  1  0
 27 20  1  0
 28 30  1  0
 28 26  1  0
 29 28  2  0
M  END
$$$$
