YKL.pdb
     RDKit          3D

 30 30  0  0  1  0  0  0  0  0999 V2000
    9.2465  -19.1402   28.8171 O   0  0  0  0  0  0  0  0  0  0  0  0
    8.3451  -18.8522   27.7894 C   0  0  0  0  0  0  0  0  0  0  0  0
    7.5671  -19.8416   27.2301 C   0  0  0  0  0  0  0  0  0  0  0  0
    6.6717  -19.5806   26.2158 C   0  0  0  0  0  0  0  0  0  0  0  0
    6.5177  -18.2998   25.7140 C   0  0  0  0  0  0  0  0  0  0  0  0
    5.5322  -18.0806   24.6169 C   0  0  0  0  0  0  0  0  0  0  0  0
    6.1106  -18.5169   23.2647 C   0  0  2  0  0  0  0  0  0  0  0  0
    6.5314  -19.8794   23.4068 N   0  0  0  0  0  0  0  0  0  0  0  0
    7.2719  -17.6884   22.8647 C   0  0  0  0  0  0  0  0  0  0  0  0
    8.4410  -18.1775   22.7585 O   0  0  0  0  0  0  0  0  0  0  0  0
    7.2840  -17.2929   26.2563 C   0  0  0  0  0  0  0  0  0  0  0  0
    8.1865  -17.5792   27.2849 C   0  0  0  0  0  0  0  0  0  0  0  0
    7.1780  -16.2933   22.5677 N   0  0  0  0  0  0  0  0  0  0  0  0
    8.2950  -15.5174   22.1010 C   0  0  1  0  0  0  0  0  0  0  0  0
    7.8477  -14.3062   21.3023 C   0  0  0  0  0  0  0  0  0  0  0  0
    7.7045  -14.6103   19.8357 C   0  0  0  0  0  0  0  0  0  0  0  0
    8.2226  -13.3744   19.0918 C   0  0  0  0  0  0  0  0  0  0  0  0
    8.0138  -13.5220   17.6001 C   0  0  0  0  0  0  0  0  0  0  0  0
    8.6159  -12.3539   16.9779 N   0  0  0  0  0  0  0  0  0  0  0  0
    9.0559  -14.9677   23.2669 C   0  0  0  0  0  0  0  0  0  0  0  0
   10.1639  -14.4139   23.0551 O   0  0  0  0  0  0  0  0  0  0  0  0
    8.0973  -11.8909   25.3970 C   0  0  0  0  0  0  0  0  0  0  0  0
    7.4055  -13.0567   26.1142 C   0  0  2  0  0  0  0  0  0  0  0  0
    6.4014  -12.5184   27.0768 C   0  0  0  0  0  0  0  0  0  0  0  0
    8.4193  -13.9600   26.7533 C   0  0  0  0  0  0  0  0  0  0  0  0
    9.3084  -14.5922   25.7558 C   0  0  2  0  0  0  0  0  0  0  0  0
    8.5390  -15.0676   24.5925 N   0  0  0  0  0  0  0  0  0  0  0  0
   10.1217  -15.6628   26.3164 C   0  0  0  0  0  0  0  0  0  0  0  0
    9.9446  -16.8381   25.8430 O   0  0  0  0  0  0  0  0  0  0  0  0
   11.0767  -15.5830   27.3033 O   0  0  0  0  0  0  0  0  0  0  0  0
  1  2  1  0
  2  3  2  0
  3  4  1  0
  5  4  2  0
  5  6  1  0
  7  6  1  0
  7  8  1  1
  9  7  1  0
 10  9  2  0
 11  5  1  0
 12  2  1  0
 12 11  2  0
 13  9  1  0
 14 13  1  0
 15 16  1  0
 14 15  1  6
 17 16  1  0
 18 17  1  0
 19 18  1  0
 20 21  2  0
 20 14  1  0
 23 22  1  1
 23 25  1  0
 24 23  1  0
 26 25  1  1
 26 27  1  0
 27 20  1  0
 28 30  1  0
 28 26  1  0
 29 28  2  0
M  END
$$$$
