HSM.pdb
     RDKit          3D

 25 25  0  0  1  0  0  0  0  0999 V2000
   10.6698  -17.4225   19.8584 N   0  0  0  0  0  0  0  0  0  0  0  0
   11.4531  -17.3526   21.0529 C   0  0  1  0  0  0  0  0  0  0  0  0
   12.5980  -16.3874   20.8361 C   0  0  0  0  0  0  0  0  0  0  0  0
   13.7357  -17.0960   20.2130 C   0  0  0  0  0  0  0  0  0  0  0  0
   14.1212  -18.4112   20.3398 C   0  0  0  0  0  0  0  0  0  0  0  0
   15.2227  -18.6362   19.5897 N   0  0  0  0  0  0  0  0  0  0  0  0
   15.5315  -17.4626   18.9899 C   0  0  0  0  0  0  0  0  0  0  0  0
   14.6206  -16.5371   19.3774 N   0  0  0  0  0  0  0  0  0  0  0  0
   10.6508  -16.9932   22.2508 C   0  0  0  0  0  0  0  0  0  0  0  0
    9.9047  -15.9798   22.2318 O   0  0  0  0  0  0  0  0  0  0  0  0
   10.2336  -19.5608   25.6746 O   0  0  0  0  0  0  0  0  0  0  0  0
    9.2486  -18.7324   25.1975 C   0  0  0  0  0  0  0  0  0  0  0  0
    9.8021  -17.4512   24.5739 C   0  0  2  0  0  0  0  0  0  0  0  0
   10.6720  -17.7459   23.4585 N   0  0  0  0  0  0  0  0  0  0  0  0
   10.4107  -16.5762   25.5802 C   0  0  0  0  0  0  0  0  0  0  0  0
   11.6477  -16.4185   25.7353 O   0  0  0  0  0  0  0  0  0  0  0  0
    5.5943  -13.1163   26.6264 C   0  0  0  0  0  0  0  0  0  0  0  0
    7.0048  -12.3207   27.4433 S   0  0  0  0  0  0  0  0  0  0  0  0
    8.5635  -13.1302   27.0909 C   0  0  0  0  0  0  0  0  0  0  0  0
    8.9737  -14.1770   28.0691 C   0  0  0  0  0  0  0  0  0  0  0  0
   10.0849  -15.0819   27.5907 C   0  0  2  0  0  0  0  0  0  0  0  0
    9.5649  -15.8430   26.4547 N   0  0  0  0  0  0  0  0  0  0  0  0
   10.5430  -15.9716   28.6657 C   0  0  0  0  0  0  0  0  0  0  0  0
   10.1627  -17.1843   28.6731 O   0  0  0  0  0  0  0  0  0  0  0  0
   11.3718  -15.5492   29.6707 O   0  0  0  0  0  0  0  0  0  0  0  0
  2  1  1  6
  3  4  1  0
  3  2  1  0
  4  5  2  0
  6  5  1  0
  7  6  1  0
  8  7  2  0
  8  4  1  0
  9 10  2  0
  9  2  1  0
 11 12  1  0
 13 12  1  1
 13 14  1  0
 13 15  1  0
 14  9  1  0
 15 22  1  0
 16 15  2  0
 18 17  1  0
 19 18  1  0
 20 19  1  0
 21 20  1  1
 21 23  1  0
 22 21  1  0
 23 24  2  0
 23 25  1  0
M  END
$$$$
