HSM.pdb
     RDKit          3D

 25 25  0  0  1  0  0  0  0  0999 V2000
    7.8113  -17.2193   20.0676 N   0  0  0  0  0  0  0  0  0  0  0  0
    8.4074  -16.2238   20.9038 C   0  0  1  0  0  0  0  0  0  0  0  0
    7.6427  -14.9275   20.7491 C   0  0  0  0  0  0  0  0  0  0  0  0
    7.9240  -14.3384   19.4230 C   0  0  0  0  0  0  0  0  0  0  0  0
    8.7888  -14.7674   18.4419 C   0  0  0  0  0  0  0  0  0  0  0  0
    8.7297  -13.9273   17.3849 N   0  0  0  0  0  0  0  0  0  0  0  0
    7.8274  -12.9686   17.6997 C   0  0  0  0  0  0  0  0  0  0  0  0
    7.3467  -13.2309   18.9393 N   0  0  0  0  0  0  0  0  0  0  0  0
    8.4980  -16.6420   22.3267 C   0  0  0  0  0  0  0  0  0  0  0  0
    7.4506  -16.8576   22.9906 O   0  0  0  0  0  0  0  0  0  0  0  0
   11.9416  -18.2768   24.0997 O   0  0  0  0  0  0  0  0  0  0  0  0
   10.6755  -18.4276   24.6082 C   0  0  0  0  0  0  0  0  0  0  0  0
    9.8039  -17.1882   24.4058 C   0  0  2  0  0  0  0  0  0  0  0  0
    9.7334  -16.8205   23.0103 N   0  0  0  0  0  0  0  0  0  0  0  0
   10.2115  -16.0881   25.2847 C   0  0  0  0  0  0  0  0  0  0  0  0
   11.0938  -15.2387   25.0035 O   0  0  0  0  0  0  0  0  0  0  0  0
    6.4533  -11.1860   25.8193 C   0  0  0  0  0  0  0  0  0  0  0  0
    6.9670  -12.2431   27.2008 S   0  0  0  0  0  0  0  0  0  0  0  0
    8.3817  -13.2689   26.8066 C   0  0  0  0  0  0  0  0  0  0  0  0
    8.8859  -14.1164   27.9241 C   0  0  0  0  0  0  0  0  0  0  0  0
   10.0531  -15.0042   27.5609 C   0  0  2  0  0  0  0  0  0  0  0  0
    9.5801  -15.9495   26.5495 N   0  0  0  0  0  0  0  0  0  0  0  0
   10.5751  -15.7024   28.7430 C   0  0  0  0  0  0  0  0  0  0  0  0
   10.3494  -16.9456   28.8803 O   0  0  0  0  0  0  0  0  0  0  0  0
   11.3032  -15.0677   29.7136 O   0  0  0  0  0  0  0  0  0  0  0  0
  2  1  1  6
  3  4  1  0
  3  2  1  0
  4  5  2  0
  6  5  1  0
  7  6  1  0
  8  7  2  0
  8  4  1  0
  9 10  2  0
  9  2  1  0
 11 12  1  0
 13 12  1  6
 13 14  1  0
 13 15  1  0
 14  9  1  0
 15 22  1  0
 16 15  2  0
 18 17  1  0
 19 18  1  0
 20 19  1  0
 21 20  1  1
 21 23  1  0
 22 21  1  0
 23 24  2  0
 23 25  1  0
M  END
$$$$
