HSM.pdb
     RDKit          3D

 25 25  0  0  1  0  0  0  0  0999 V2000
    7.7854  -16.8129   17.6962 N   0  0  0  0  0  0  0  0  0  0  0  0
    8.3639  -15.8692   18.6020 C   0  0  1  0  0  0  0  0  0  0  0  0
    7.9062  -14.4777   18.2232 C   0  0  0  0  0  0  0  0  0  0  0  0
    8.3011  -14.1856   16.8292 C   0  0  0  0  0  0  0  0  0  0  0  0
    7.5590  -13.6390   15.8070 C   0  0  0  0  0  0  0  0  0  0  0  0
    8.3185  -13.5470   14.6929 N   0  0  0  0  0  0  0  0  0  0  0  0
    9.5396  -14.0358   15.0129 C   0  0  0  0  0  0  0  0  0  0  0  0
    9.5143  -14.4195   16.3123 N   0  0  0  0  0  0  0  0  0  0  0  0
    8.0677  -16.1768   20.0252 C   0  0  0  0  0  0  0  0  0  0  0  0
    7.0638  -15.6663   20.5871 O   0  0  0  0  0  0  0  0  0  0  0  0
   10.5901  -18.6185   22.6120 O   0  0  0  0  0  0  0  0  0  0  0  0
    9.2226  -18.5606   22.7151 C   0  0  0  0  0  0  0  0  0  0  0  0
    8.6478  -17.2278   22.2355 C   0  0  2  0  0  0  0  0  0  0  0  0
    8.8724  -17.0401   20.8206 N   0  0  0  0  0  0  0  0  0  0  0  0
    9.1127  -16.1079   23.0592 C   0  0  0  0  0  0  0  0  0  0  0  0
   10.1551  -15.4423   22.8369 O   0  0  0  0  0  0  0  0  0  0  0  0
    6.3344  -11.1360   28.4508 C   0  0  0  0  0  0  0  0  0  0  0  0
    6.4248  -11.6508   26.7140 S   0  0  0  0  0  0  0  0  0  0  0  0
    7.8330  -12.7033   26.3699 C   0  0  0  0  0  0  0  0  0  0  0  0
    7.5875  -13.7952   25.3858 C   0  0  0  0  0  0  0  0  0  0  0  0
    8.7848  -14.6757   25.1140 C   0  0  2  0  0  0  0  0  0  0  0  0
    8.3493  -15.7274   24.1950 N   0  0  0  0  0  0  0  0  0  0  0  0
    9.3194  -15.2415   26.3595 C   0  0  0  0  0  0  0  0  0  0  0  0
    9.9692  -14.4917   27.1539 O   0  0  0  0  0  0  0  0  0  0  0  0
    9.1462  -16.5544   26.7080 O   0  0  0  0  0  0  0  0  0  0  0  0
  2  1  1  6
  3  4  1  0
  3  2  1  0
  4  5  2  0
  6  5  1  0
  7  6  1  0
  8  7  2  0
  8  4  1  0
  9 10  2  0
  9  2  1  0
 11 12  1  0
 13 12  1  1
 13 14  1  0
 13 15  1  0
 14  9  1  0
 15 22  1  0
 16 15  2  0
 18 17  1  0
 19 18  1  0
 20 19  1  0
 21 20  1  1
 21 23  1  0
 22 21  1  0
 23 24  2  0
 23 25  1  0
M  END
$$$$
