HSM.pdb
     RDKit          3D

 25 25  0  0  1  0  0  0  0  0999 V2000
    6.7593  -16.2110   20.3196 N   0  0  0  0  0  0  0  0  0  0  0  0
    8.0976  -15.9450   20.7485 C   0  0  1  0  0  0  0  0  0  0  0  0
    8.3957  -14.4749   20.5509 C   0  0  0  0  0  0  0  0  0  0  0  0
    8.3336  -14.1430   19.1119 C   0  0  0  0  0  0  0  0  0  0  0  0
    7.4366  -13.3469   18.4366 C   0  0  0  0  0  0  0  0  0  0  0  0
    7.7538  -13.3180   17.1232 N   0  0  0  0  0  0  0  0  0  0  0  0
    8.8510  -14.0961   16.9706 C   0  0  0  0  0  0  0  0  0  0  0  0
    9.1915  -14.5900   18.1856 N   0  0  0  0  0  0  0  0  0  0  0  0
    8.3528  -16.3743   22.1479 C   0  0  0  0  0  0  0  0  0  0  0  0
    7.5201  -16.1077   23.0533 O   0  0  0  0  0  0  0  0  0  0  0  0
   12.0564  -18.1670   23.5412 O   0  0  0  0  0  0  0  0  0  0  0  0
   10.8275  -18.5594   24.0102 C   0  0  0  0  0  0  0  0  0  0  0  0
    9.7771  -17.4527   23.9185 C   0  0  2  0  0  0  0  0  0  0  0  0
    9.5166  -17.0913   22.5441 N   0  0  0  0  0  0  0  0  0  0  0  0
   10.1148  -16.3110   24.7737 C   0  0  0  0  0  0  0  0  0  0  0  0
   10.7607  -15.3018   24.3954 O   0  0  0  0  0  0  0  0  0  0  0  0
    7.0365  -11.5535   26.5266 C   0  0  0  0  0  0  0  0  0  0  0  0
    7.5879  -12.0715   28.1751 S   0  0  0  0  0  0  0  0  0  0  0  0
    8.9638  -13.2175   28.1231 C   0  0  0  0  0  0  0  0  0  0  0  0
    8.8371  -14.3211   27.1296 C   0  0  0  0  0  0  0  0  0  0  0  0
   10.0309  -15.2446   27.0621 C   0  0  2  0  0  0  0  0  0  0  0  0
    9.6938  -16.3208   26.1303 N   0  0  0  0  0  0  0  0  0  0  0  0
   10.3672  -15.7730   28.3905 C   0  0  0  0  0  0  0  0  0  0  0  0
   10.0327  -16.9623   28.6891 O   0  0  0  0  0  0  0  0  0  0  0  0
   11.0335  -15.0346   29.3317 O   0  0  0  0  0  0  0  0  0  0  0  0
  2  1  1  1
  3  4  1  0
  3  2  1  0
  4  5  2  0
  6  5  1  0
  7  6  1  0
  8  7  2  0
  8  4  1  0
  9 10  2  0
  9  2  1  0
 11 12  1  0
 13 12  1  6
 13 14  1  0
 13 15  1  0
 14  9  1  0
 15 22  1  0
 16 15  2  0
 18 17  1  0
 19 18  1  0
 20 19  1  0
 21 20  1  1
 21 23  1  0
 22 21  1  0
 23 24  2  0
 23 25  1  0
M  END
$$$$
