HSM.pdb
     RDKit          3D

 25 25  0  0  1  0  0  0  0  0999 V2000
    9.9822  -17.2315   19.8397 N   0  0  0  0  0  0  0  0  0  0  0  0
    9.2520  -16.1862   20.4875 C   0  0  1  0  0  0  0  0  0  0  0  0
    8.0053  -15.8850   19.6850 C   0  0  0  0  0  0  0  0  0  0  0  0
    8.2924  -14.8222   18.6987 C   0  0  0  0  0  0  0  0  0  0  0  0
    9.4519  -14.1090   18.4952 C   0  0  0  0  0  0  0  0  0  0  0  0
    9.2741  -13.2320   17.4824 N   0  0  0  0  0  0  0  0  0  0  0  0
    8.0023  -13.3924   17.0473 C   0  0  0  0  0  0  0  0  0  0  0  0
    7.4187  -14.3606   17.7946 N   0  0  0  0  0  0  0  0  0  0  0  0
    8.9317  -16.4966   21.9048 C   0  0  0  0  0  0  0  0  0  0  0  0
    7.7445  -16.7367   22.2471 O   0  0  0  0  0  0  0  0  0  0  0  0
   11.2022  -18.7094   24.3698 O   0  0  0  0  0  0  0  0  0  0  0  0
    9.8823  -18.3827   24.5574 C   0  0  0  0  0  0  0  0  0  0  0  0
    9.5948  -16.9041   24.2966 C   0  0  2  0  0  0  0  0  0  0  0  0
    9.9130  -16.5416   22.9346 N   0  0  0  0  0  0  0  0  0  0  0  0
   10.2290  -16.0425   25.2987 C   0  0  0  0  0  0  0  0  0  0  0  0
   11.3847  -15.5598   25.1971 O   0  0  0  0  0  0  0  0  0  0  0  0
    5.7595  -11.8633   26.2195 C   0  0  0  0  0  0  0  0  0  0  0  0
    7.0035  -12.1386   27.5105 S   0  0  0  0  0  0  0  0  0  0  0  0
    8.3519  -13.1863   26.9690 C   0  0  0  0  0  0  0  0  0  0  0  0
    9.0213  -13.9709   28.0447 C   0  0  0  0  0  0  0  0  0  0  0  0
   10.0924  -14.9180   27.5566 C   0  0  2  0  0  0  0  0  0  0  0  0
    9.5077  -15.7142   26.4776 N   0  0  0  0  0  0  0  0  0  0  0  0
   10.5809  -15.7720   28.6471 C   0  0  0  0  0  0  0  0  0  0  0  0
   10.2388  -16.9957   28.6789 O   0  0  0  0  0  0  0  0  0  0  0  0
   11.3986  -15.3046   29.6411 O   0  0  0  0  0  0  0  0  0  0  0  0
  2  1  1  6
  3  4  1  0
  3  2  1  0
  4  5  2  0
  6  5  1  0
  7  6  1  0
  8  7  2  0
  8  4  1  0
  9 10  2  0
  9  2  1  0
 11 12  1  0
 13 12  1  1
 13 14  1  0
 13 15  1  0
 14  9  1  0
 15 22  1  0
 16 15  2  0
 18 17  1  0
 19 18  1  0
 20 19  1  0
 21 20  1  1
 21 23  1  0
 22 21  1  0
 23 24  2  0
 23 25  1  0
M  END
$$$$
