HSM.pdb
     RDKit          3D

 25 25  0  0  1  0  0  0  0  0999 V2000
    7.9281  -17.3804   19.3758 N   0  0  0  0  0  0  0  0  0  0  0  0
    8.5639  -16.4234   20.2276 C   0  0  1  0  0  0  0  0  0  0  0  0
    7.8336  -15.1029   20.1172 C   0  0  0  0  0  0  0  0  0  0  0  0
    8.0786  -14.5079   18.7866 C   0  0  0  0  0  0  0  0  0  0  0  0
    8.8428  -14.9821   17.7447 C   0  0  0  0  0  0  0  0  0  0  0  0
    8.7863  -14.1158   16.7088 N   0  0  0  0  0  0  0  0  0  0  0  0
    7.9863  -13.0955   17.0979 C   0  0  0  0  0  0  0  0  0  0  0  0
    7.5642  -13.3470   18.3608 N   0  0  0  0  0  0  0  0  0  0  0  0
    8.6633  -16.8802   21.6380 C   0  0  0  0  0  0  0  0  0  0  0  0
    7.6209  -17.1392   22.2941 O   0  0  0  0  0  0  0  0  0  0  0  0
   12.2399  -18.2298   23.5617 O   0  0  0  0  0  0  0  0  0  0  0  0
   10.9621  -18.5303   23.9633 C   0  0  0  0  0  0  0  0  0  0  0  0
    9.9798  -17.3843   23.7211 C   0  0  2  0  0  0  0  0  0  0  0  0
    9.9022  -17.0496   22.3177 N   0  0  0  0  0  0  0  0  0  0  0  0
   10.2622  -16.2349   24.5859 C   0  0  0  0  0  0  0  0  0  0  0  0
   11.0149  -15.2771   24.2776 O   0  0  0  0  0  0  0  0  0  0  0  0
    6.3261  -12.0107   26.2966 C   0  0  0  0  0  0  0  0  0  0  0  0
    7.2108  -12.0924   27.8778 S   0  0  0  0  0  0  0  0  0  0  0  0
    8.6962  -13.0904   27.7962 C   0  0  0  0  0  0  0  0  0  0  0  0
    8.6316  -14.2551   26.8687 C   0  0  0  0  0  0  0  0  0  0  0  0
    9.8998  -15.0733   26.7996 C   0  0  2  0  0  0  0  0  0  0  0  0
    9.6546  -16.1746   25.8684 N   0  0  0  0  0  0  0  0  0  0  0  0
   10.2818  -15.5707   28.1276 C   0  0  0  0  0  0  0  0  0  0  0  0
   10.0942  -16.7957   28.4099 O   0  0  0  0  0  0  0  0  0  0  0  0
   10.8387  -14.7659   29.0853 O   0  0  0  0  0  0  0  0  0  0  0  0
  2  1  1  6
  3  4  1  0
  3  2  1  0
  4  5  2  0
  6  5  1  0
  7  6  1  0
  8  7  2  0
  8  4  1  0
  9 10  2  0
  9  2  1  0
 11 12  1  0
 13 12  1  6
 13 14  1  0
 13 15  1  0
 14  9  1  0
 15 22  1  0
 16 15  2  0
 18 17  1  0
 19 18  1  0
 20 19  1  0
 21 20  1  1
 21 23  1  0
 22 21  1  0
 23 24  2  0
 23 25  1  0
M  END
$$$$
