HSM.pdb
     RDKit          3D

 25 25  0  0  1  0  0  0  0  0999 V2000
   10.2790  -19.4684   18.4755 N   0  0  0  0  0  0  0  0  0  0  0  0
   10.8011  -18.3031   19.1197 C   0  0  1  0  0  0  0  0  0  0  0  0
   11.0105  -17.2195   18.0847 C   0  0  0  0  0  0  0  0  0  0  0  0
   12.0678  -17.6324   17.1381 C   0  0  0  0  0  0  0  0  0  0  0  0
   13.3844  -17.9503   17.3829 C   0  0  0  0  0  0  0  0  0  0  0  0
   13.9967  -18.2754   16.2228 N   0  0  0  0  0  0  0  0  0  0  0  0
   13.0659  -18.1623   15.2464 C   0  0  0  0  0  0  0  0  0  0  0  0
   11.9004  -17.7715   15.8166 N   0  0  0  0  0  0  0  0  0  0  0  0
    9.9502  -17.8329   20.2433 C   0  0  0  0  0  0  0  0  0  0  0  0
    9.6389  -16.6168   20.3353 O   0  0  0  0  0  0  0  0  0  0  0  0
    8.0019  -20.4282   23.0733 O   0  0  0  0  0  0  0  0  0  0  0  0
    7.5509  -19.1757   22.7385 C   0  0  0  0  0  0  0  0  0  0  0  0
    8.6841  -18.2131   22.3831 C   0  0  2  0  0  0  0  0  0  0  0  0
    9.4476  -18.6972   21.2562 N   0  0  0  0  0  0  0  0  0  0  0  0
    9.5044  -17.8845   23.5527 C   0  0  0  0  0  0  0  0  0  0  0  0
   10.6415  -18.3659   23.7855 O   0  0  0  0  0  0  0  0  0  0  0  0
   10.6585  -13.1173   29.5764 C   0  0  0  0  0  0  0  0  0  0  0  0
    9.9938  -13.5282   27.9396 S   0  0  0  0  0  0  0  0  0  0  0  0
    9.4439  -15.2286   27.8159 C   0  0  0  0  0  0  0  0  0  0  0  0
    8.8894  -15.6246   26.4904 C   0  0  0  0  0  0  0  0  0  0  0  0
    9.7080  -16.6569   25.7510 C   0  0  2  0  0  0  0  0  0  0  0  0
    9.0020  -16.9587   24.5057 N   0  0  0  0  0  0  0  0  0  0  0  0
    9.8970  -17.8648   26.5649 C   0  0  0  0  0  0  0  0  0  0  0  0
    8.9352  -18.6860   26.6908 O   0  0  0  0  0  0  0  0  0  0  0  0
   11.0762  -18.1500   27.2000 O   0  0  0  0  0  0  0  0  0  0  0  0
  2  1  1  6
  3  4  1  0
  3  2  1  0
  4  5  2  0
  6  5  1  0
  7  6  1  0
  8  7  2  0
  8  4  1  0
  9 10  2  0
  9  2  1  0
 11 12  1  0
 13 12  1  1
 13 14  1  0
 13 15  1  0
 14  9  1  0
 15 22  1  0
 16 15  2  0
 18 17  1  0
 19 18  1  0
 20 19  1  0
 21 20  1  1
 21 23  1  0
 22 21  1  0
 23 24  2  0
 23 25  1  0
M  END
$$$$
