PDL.pdb
     RDKit          3D

 24 24  0  0  1  0  0  0  0  0999 V2000
    9.2359  -14.4458   18.9613 N   0  0  0  0  0  0  0  0  0  0  0  0
    9.2117  -13.5499   17.8072 C   0  0  0  0  0  0  0  0  0  0  0  0
    7.9079  -12.8292   17.8536 C   0  0  0  0  0  0  0  0  0  0  0  0
    7.2634  -13.3342   19.1288 C   0  0  0  0  0  0  0  0  0  0  0  0
    8.4869  -13.6874   19.9517 C   0  0  1  0  0  0  0  0  0  0  0  0
    8.1961  -14.4697   21.1564 C   0  0  0  0  0  0  0  0  0  0  0  0
    7.3601  -14.1309   22.0366 O   0  0  0  0  0  0  0  0  0  0  0  0
    8.8919  -15.6967   21.3633 N   0  0  0  0  0  0  0  0  0  0  0  0
    8.6464  -16.4879   22.5935 C   0  0  1  0  0  0  0  0  0  0  0  0
    9.3877  -17.7971   22.4793 C   0  0  0  0  0  0  0  0  0  0  0  0
    8.9543  -18.6255   21.3573 C   0  0  0  0  0  0  0  0  0  0  0  0
    7.7478  -18.8043   21.1040 O   0  0  0  0  0  0  0  0  0  0  0  0
    9.0194  -15.6715   23.7491 C   0  0  0  0  0  0  0  0  0  0  0  0
   10.1426  -15.1462   23.9366 O   0  0  0  0  0  0  0  0  0  0  0  0
    9.8787  -19.2652   20.5054 O   0  0  0  0  0  0  0  0  0  0  0  0
    7.3216  -12.2679   25.0393 C   0  0  0  0  0  0  0  0  0  0  0  0
    7.2008  -12.6272   26.4857 C   0  0  1  0  0  0  0  0  0  0  0  0
    5.8517  -12.1896   27.0751 C   0  0  0  0  0  0  0  0  0  0  0  0
    7.3026  -14.1039   26.7592 C   0  0  0  0  0  0  0  0  0  0  0  0
    8.3903  -14.8181   26.0313 C   0  0  2  0  0  0  0  0  0  0  0  0
    8.0352  -15.4263   24.7825 N   0  0  0  0  0  0  0  0  0  0  0  0
    9.1625  -15.7213   26.9305 C   0  0  0  0  0  0  0  0  0  0  0  0
    9.2183  -16.9461   26.7201 O   0  0  0  0  0  0  0  0  0  0  0  0
    9.8265  -15.1403   28.0282 O   0  0  0  0  0  0  0  0  0  0  0  0
  1  2  1  0
  2  3  1  0
  4  3  1  0
  5  4  1  0
  5  1  1  0
  5  6  1  1
  6  7  2  0
  8  6  1  0
  9  8  1  0
  9 13  1  0
  9 10  1  6
 11 10  1  0
 11 12  2  0
 13 14  2  0
 15 11  1  0
 17 18  1  6
 17 16  1  0
 19 17  1  0
 20 19  1  1
 21 13  1  0
 21 20  1  0
 22 24  1  0
 22 20  1  0
 23 22  2  0
M  END
$$$$
