PDL.pdb
     RDKit          3D

 24 24  0  0  1  0  0  0  0  0999 V2000
    9.1407  -14.5106   19.0365 N   0  0  0  0  0  0  0  0  0  0  0  0
    8.9614  -13.6112   17.8988 C   0  0  0  0  0  0  0  0  0  0  0  0
    7.6230  -12.9762   18.0638 C   0  0  0  0  0  0  0  0  0  0  0  0
    7.1230  -13.5292   19.3831 C   0  0  0  0  0  0  0  0  0  0  0  0
    8.4322  -13.8079   20.0954 C   0  0  1  0  0  0  0  0  0  0  0  0
    8.2955  -14.6144   21.3113 C   0  0  0  0  0  0  0  0  0  0  0  0
    7.4494  -14.3911   22.2183 O   0  0  0  0  0  0  0  0  0  0  0  0
    9.1650  -15.7287   21.4980 N   0  0  0  0  0  0  0  0  0  0  0  0
    8.9562  -16.6460   22.6445 C   0  0  1  0  0  0  0  0  0  0  0  0
    9.8264  -17.8634   22.4512 C   0  0  0  0  0  0  0  0  0  0  0  0
    9.5786  -18.5739   21.1995 C   0  0  0  0  0  0  0  0  0  0  0  0
   10.3879  -18.5339   20.2534 O   0  0  0  0  0  0  0  0  0  0  0  0
    9.2068  -15.9039   23.8805 C   0  0  0  0  0  0  0  0  0  0  0  0
   10.2832  -15.3357   24.1824 O   0  0  0  0  0  0  0  0  0  0  0  0
    8.4111  -19.3394   20.9983 O   0  0  0  0  0  0  0  0  0  0  0  0
    5.5281  -12.6283   26.2149 C   0  0  0  0  0  0  0  0  0  0  0  0
    6.8795  -13.1780   25.8876 C   0  0  1  0  0  0  0  0  0  0  0  0
    7.9914  -12.1438   26.1186 C   0  0  0  0  0  0  0  0  0  0  0  0
    7.2662  -14.3788   26.7088 C   0  0  0  0  0  0  0  0  0  0  0  0
    8.3711  -15.2097   26.1504 C   0  0  2  0  0  0  0  0  0  0  0  0
    8.1463  -15.7933   24.8602 N   0  0  0  0  0  0  0  0  0  0  0  0
    8.9023  -16.1763   27.1523 C   0  0  0  0  0  0  0  0  0  0  0  0
    8.8416  -17.4037   26.9587 O   0  0  0  0  0  0  0  0  0  0  0  0
    9.4750  -15.6522   28.3274 O   0  0  0  0  0  0  0  0  0  0  0  0
  1  2  1  0
  2  3  1  0
  4  3  1  0
  5  4  1  0
  5  1  1  0
  5  6  1  1
  6  7  2  0
  8  6  1  0
  9  8  1  0
  9 13  1  0
  9 10  1  6
 11 10  1  0
 11 12  2  0
 13 14  2  0
 15 11  1  0
 17 18  1  1
 17 16  1  0
 19 17  1  0
 20 19  1  1
 21 13  1  0
 21 20  1  0
 22 24  1  0
 22 20  1  0
 23 22  2  0
M  END
$$$$
