PDL.pdb
     RDKit          3D

 24 24  0  0  1  0  0  0  0  0999 V2000
    9.0719  -14.4809   19.0243 N   0  0  0  0  0  0  0  0  0  0  0  0
    9.0011  -13.5414   17.9075 C   0  0  0  0  0  0  0  0  0  0  0  0
    7.7491  -12.7537   18.0911 C   0  0  0  0  0  0  0  0  0  0  0  0
    7.1873  -13.2717   19.3997 C   0  0  0  0  0  0  0  0  0  0  0  0
    8.4541  -13.7218   20.1010 C   0  0  1  0  0  0  0  0  0  0  0  0
    8.2223  -14.5330   21.2993 C   0  0  0  0  0  0  0  0  0  0  0  0
    7.4122  -14.2282   22.2155 O   0  0  0  0  0  0  0  0  0  0  0  0
    8.9490  -15.7495   21.4567 N   0  0  0  0  0  0  0  0  0  0  0  0
    8.6991  -16.6131   22.6362 C   0  0  1  0  0  0  0  0  0  0  0  0
    9.3660  -17.9467   22.4058 C   0  0  0  0  0  0  0  0  0  0  0  0
    8.9153  -18.6315   21.1970 C   0  0  0  0  0  0  0  0  0  0  0  0
    9.6628  -18.7788   20.2115 O   0  0  0  0  0  0  0  0  0  0  0  0
    9.1498  -15.9014   23.8327 C   0  0  0  0  0  0  0  0  0  0  0  0
   10.2998  -15.4341   24.0112 O   0  0  0  0  0  0  0  0  0  0  0  0
    7.6121  -19.1590   21.0841 O   0  0  0  0  0  0  0  0  0  0  0  0
    5.9116  -12.4463   26.5686 C   0  0  0  0  0  0  0  0  0  0  0  0
    7.1648  -13.0696   26.0428 C   0  0  1  0  0  0  0  0  0  0  0  0
    8.3319  -12.0717   26.0089 C   0  0  0  0  0  0  0  0  0  0  0  0
    7.6542  -14.2379   26.8561 C   0  0  0  0  0  0  0  0  0  0  0  0
    8.6320  -15.1317   26.1719 C   0  0  2  0  0  0  0  0  0  0  0  0
    8.2176  -15.6990   24.9220 N   0  0  0  0  0  0  0  0  0  0  0  0
    9.2235  -16.1297   27.1071 C   0  0  0  0  0  0  0  0  0  0  0  0
    9.1151  -17.3513   26.8987 O   0  0  0  0  0  0  0  0  0  0  0  0
    9.9091  -15.6420   28.2365 O   0  0  0  0  0  0  0  0  0  0  0  0
  1  2  1  0
  2  3  1  0
  4  3  1  0
  5  4  1  0
  5  1  1  0
  5  6  1  1
  6  7  2  0
  8  6  1  0
  9  8  1  0
  9 13  1  0
  9 10  1  6
 11 10  1  0
 11 12  2  0
 13 14  2  0
 15 11  1  0
 17 18  1  1
 17 16  1  0
 19 17  1  0
 20 19  1  1
 21 13  1  0
 21 20  1  0
 22 24  1  0
 22 20  1  0
 23 22  2  0
M  END
$$$$
