PDL.pdb
     RDKit          3D

 24 24  0  0  1  0  0  0  0  0999 V2000
    9.2202  -14.2939   18.6119 N   0  0  0  0  0  0  0  0  0  0  0  0
    9.0206  -13.3502   17.5143 C   0  0  0  0  0  0  0  0  0  0  0  0
    7.5939  -12.9226   17.5733 C   0  0  0  0  0  0  0  0  0  0  0  0
    7.0564  -13.6326   18.7994 C   0  0  0  0  0  0  0  0  0  0  0  0
    8.3180  -13.7746   19.6284 C   0  0  1  0  0  0  0  0  0  0  0  0
    8.1853  -14.6767   20.7758 C   0  0  0  0  0  0  0  0  0  0  0  0
    7.2613  -14.6055   21.6300 O   0  0  0  0  0  0  0  0  0  0  0  0
    9.1526  -15.7088   20.9538 N   0  0  0  0  0  0  0  0  0  0  0  0
    9.1444  -16.5247   22.1922 C   0  0  1  0  0  0  0  0  0  0  0  0
   10.2746  -17.5216   22.1189 C   0  0  0  0  0  0  0  0  0  0  0  0
   10.4002  -18.3607   23.3076 C   0  0  0  0  0  0  0  0  0  0  0  0
    9.4879  -19.1302   23.6645 O   0  0  0  0  0  0  0  0  0  0  0  0
    9.1991  -15.6200   23.3410 C   0  0  0  0  0  0  0  0  0  0  0  0
    9.8463  -14.5469   23.3917 O   0  0  0  0  0  0  0  0  0  0  0  0
   11.5591  -18.3415   24.1115 O   0  0  0  0  0  0  0  0  0  0  0  0
    7.2564  -11.3521   26.0667 C   0  0  0  0  0  0  0  0  0  0  0  0
    7.4920  -12.7783   26.4488 C   0  0  1  0  0  0  0  0  0  0  0  0
    6.2878  -13.3811   27.1877 C   0  0  0  0  0  0  0  0  0  0  0  0
    7.7474  -13.6904   25.2789 C   0  0  0  0  0  0  0  0  0  0  0  0
    8.3085  -15.0292   25.6192 C   0  0  2  0  0  0  0  0  0  0  0  0
    8.4554  -15.9576   24.5366 N   0  0  0  0  0  0  0  0  0  0  0  0
    7.6520  -15.6195   26.8196 C   0  0  0  0  0  0  0  0  0  0  0  0
    7.8215  -15.1324   27.9517 O   0  0  0  0  0  0  0  0  0  0  0  0
    6.8333  -16.7494   26.6285 O   0  0  0  0  0  0  0  0  0  0  0  0
  1  2  1  0
  2  3  1  0
  4  3  1  0
  5  4  1  0
  5  1  1  0
  5  6  1  1
  6  7  2  0
  8  6  1  0
  9  8  1  0
  9 13  1  0
  9 10  1  6
 11 10  1  0
 11 12  2  0
 13 14  2  0
 15 11  1  0
 17 18  1  6
 17 16  1  0
 19 17  1  0
 20 19  1  6
 21 13  1  0
 21 20  1  0
 22 24  1  0
 22 20  1  0
 23 22  2  0
M  END
$$$$
