PDL.pdb
     RDKit          3D

 24 24  0  0  1  0  0  0  0  0999 V2000
    7.7955  -14.7326   18.4994 N   0  0  0  0  0  0  0  0  0  0  0  0
    7.9596  -13.5391   17.6724 C   0  0  0  0  0  0  0  0  0  0  0  0
    7.9424  -12.3720   18.5993 C   0  0  0  0  0  0  0  0  0  0  0  0
    7.8293  -13.0046   19.9716 C   0  0  0  0  0  0  0  0  0  0  0  0
    8.4812  -14.3511   19.7247 C   0  0  1  0  0  0  0  0  0  0  0  0
    8.2838  -15.3219   20.8047 C   0  0  0  0  0  0  0  0  0  0  0  0
    7.1703  -15.8290   21.1069 O   0  0  0  0  0  0  0  0  0  0  0  0
    9.4119  -15.7332   21.5734 N   0  0  0  0  0  0  0  0  0  0  0  0
    9.2266  -16.6411   22.7314 C   0  0  1  0  0  0  0  0  0  0  0  0
   10.1549  -17.8198   22.5717 C   0  0  0  0  0  0  0  0  0  0  0  0
    9.9877  -18.8465   23.5969 C   0  0  0  0  0  0  0  0  0  0  0  0
    9.0965  -18.7665   24.4636 O   0  0  0  0  0  0  0  0  0  0  0  0
    9.4224  -15.8690   23.9588 C   0  0  0  0  0  0  0  0  0  0  0  0
   10.4611  -15.2348   24.2615 O   0  0  0  0  0  0  0  0  0  0  0  0
   10.8267  -19.9787   23.6582 O   0  0  0  0  0  0  0  0  0  0  0  0
    5.9786  -12.2670   26.0368 C   0  0  0  0  0  0  0  0  0  0  0  0
    7.2606  -12.9967   25.7928 C   0  0  1  0  0  0  0  0  0  0  0  0
    8.4859  -12.1250   26.1058 C   0  0  0  0  0  0  0  0  0  0  0  0
    7.4244  -14.2398   26.6257 C   0  0  0  0  0  0  0  0  0  0  0  0
    8.5158  -15.1606   26.1969 C   0  0  2  0  0  0  0  0  0  0  0  0
    8.3486  -15.8074   24.9283 N   0  0  0  0  0  0  0  0  0  0  0  0
    8.9188  -16.0928   27.2874 C   0  0  0  0  0  0  0  0  0  0  0  0
    9.1622  -15.6761   28.4340 O   0  0  0  0  0  0  0  0  0  0  0  0
    9.0157  -17.4626   26.9748 O   0  0  0  0  0  0  0  0  0  0  0  0
  1  2  1  0
  2  3  1  0
  4  3  1  0
  5  4  1  0
  5  1  1  0
  5  6  1  1
  6  7  2  0
  8  6  1  0
  9  8  1  0
  9 13  1  0
  9 10  1  6
 11 10  1  0
 11 12  2  0
 13 14  2  0
 15 11  1  0
 17 18  1  1
 17 16  1  0
 19 17  1  0
 20 19  1  1
 21 13  1  0
 21 20  1  0
 22 24  1  0
 22 20  1  0
 23 22  2  0
M  END
$$$$
