PDL.pdb
     RDKit          3D

 24 24  0  0  1  0  0  0  0  0999 V2000
    7.2433  -14.5907   21.4336 N   0  0  0  0  0  0  0  0  0  0  0  0
    6.5577  -13.9136   20.3352 C   0  0  0  0  0  0  0  0  0  0  0  0
    7.4880  -13.9397   19.1708 C   0  0  0  0  0  0  0  0  0  0  0  0
    8.6795  -14.7251   19.6804 C   0  0  0  0  0  0  0  0  0  0  0  0
    8.0229  -15.5988   20.7313 C   0  0  1  0  0  0  0  0  0  0  0  0
    8.9667  -16.2932   21.6114 C   0  0  0  0  0  0  0  0  0  0  0  0
    9.1655  -17.5377   21.5963 O   0  0  0  0  0  0  0  0  0  0  0  0
    9.7192  -15.5294   22.5511 N   0  0  0  0  0  0  0  0  0  0  0  0
   10.7077  -16.2020   23.4287 C   0  0  1  0  0  0  0  0  0  0  0  0
   12.0313  -15.4901   23.2963 C   0  0  0  0  0  0  0  0  0  0  0  0
   12.9828  -16.1699   22.4212 C   0  0  0  0  0  0  0  0  0  0  0  0
   13.8048  -15.5370   21.7316 O   0  0  0  0  0  0  0  0  0  0  0  0
   10.1665  -16.2414   24.7876 C   0  0  0  0  0  0  0  0  0  0  0  0
   10.7856  -16.6309   25.8063 O   0  0  0  0  0  0  0  0  0  0  0  0
   13.0182  -17.5757   22.3118 O   0  0  0  0  0  0  0  0  0  0  0  0
    5.9776  -12.7624   25.8032 C   0  0  0  0  0  0  0  0  0  0  0  0
    7.2592  -13.5111   25.9835 C   0  0  1  0  0  0  0  0  0  0  0  0
    8.2222  -12.7809   26.9316 C   0  0  0  0  0  0  0  0  0  0  0  0
    7.0857  -14.8888   26.5646 C   0  0  0  0  0  0  0  0  0  0  0  0
    8.2108  -15.8358   26.3184 C   0  0  2  0  0  0  0  0  0  0  0  0
    8.8063  -15.7999   25.0146 N   0  0  0  0  0  0  0  0  0  0  0  0
    7.8906  -17.2144   26.7846 C   0  0  0  0  0  0  0  0  0  0  0  0
    7.8384  -18.1682   25.9876 O   0  0  0  0  0  0  0  0  0  0  0  0
    7.6479  -17.4004   28.1593 O   0  0  0  0  0  0  0  0  0  0  0  0
  1  2  1  0
  2  3  1  0
  4  3  1  0
  5  4  1  0
  5  1  1  0
  5  6  1  1
  6  7  2  0
  8  6  1  0
  9  8  1  0
  9 13  1  0
  9 10  1  1
 11 10  1  0
 11 12  2  0
 13 14  2  0
 15 11  1  0
 17 18  1  1
 17 16  1  0
 19 17  1  0
 20 19  1  6
 21 13  1  0
 21 20  1  0
 22 24  1  0
 22 20  1  0
 23 22  2  0
M  END
$$$$
