PDL.pdb
     RDKit          3D

 24 24  0  0  1  0  0  0  0  0999 V2000
    8.9267  -14.3801   18.7007 N   0  0  0  0  0  0  0  0  0  0  0  0
    8.6315  -13.5124   17.5627 C   0  0  0  0  0  0  0  0  0  0  0  0
    7.2861  -12.9220   17.8139 C   0  0  0  0  0  0  0  0  0  0  0  0
    6.9047  -13.4640   19.1767 C   0  0  0  0  0  0  0  0  0  0  0  0
    8.2719  -13.6805   19.7955 C   0  0  1  0  0  0  0  0  0  0  0  0
    8.2544  -14.4651   21.0332 C   0  0  0  0  0  0  0  0  0  0  0  0
    7.5618  -14.1759   22.0458 O   0  0  0  0  0  0  0  0  0  0  0  0
    9.0647  -15.6351   21.1165 N   0  0  0  0  0  0  0  0  0  0  0  0
    8.9741  -16.5145   22.3073 C   0  0  1  0  0  0  0  0  0  0  0  0
    9.7782  -17.7639   22.0448 C   0  0  0  0  0  0  0  0  0  0  0  0
    9.3543  -18.5005   20.8570 C   0  0  0  0  0  0  0  0  0  0  0  0
    8.1500  -18.6612   20.5822 O   0  0  0  0  0  0  0  0  0  0  0  0
    9.3978  -15.7484   23.4797 C   0  0  0  0  0  0  0  0  0  0  0  0
   10.0129  -14.6559   23.4515 O   0  0  0  0  0  0  0  0  0  0  0  0
   10.2861  -19.0676   19.9627 O   0  0  0  0  0  0  0  0  0  0  0  0
    8.6501  -12.4549   27.2086 C   0  0  0  0  0  0  0  0  0  0  0  0
    7.5597  -13.4163   26.8589 C   0  0  1  0  0  0  0  0  0  0  0  0
    6.2457  -12.6961   26.5217 C   0  0  0  0  0  0  0  0  0  0  0  0
    7.8662  -14.2802   25.6648 C   0  0  0  0  0  0  0  0  0  0  0  0
    8.8342  -15.3883   25.9057 C   0  0  2  0  0  0  0  0  0  0  0  0
    9.0979  -16.2620   24.7999 N   0  0  0  0  0  0  0  0  0  0  0  0
    8.5472  -16.1123   27.1761 C   0  0  0  0  0  0  0  0  0  0  0  0
    8.6888  -15.5570   28.2803 O   0  0  0  0  0  0  0  0  0  0  0  0
    8.1108  -17.4481   27.0837 O   0  0  0  0  0  0  0  0  0  0  0  0
  1  2  1  0
  2  3  1  0
  4  3  1  0
  5  4  1  0
  5  1  1  0
  5  6  1  1
  6  7  2  0
  8  6  1  0
  9  8  1  0
  9 13  1  0
  9 10  1  6
 11 10  1  0
 11 12  2  0
 13 14  2  0
 15 11  1  0
 17 18  1  6
 17 16  1  0
 19 17  1  0
 20 19  1  6
 21 13  1  0
 21 20  1  0
 22 24  1  0
 22 20  1  0
 23 22  2  0
M  END
$$$$
