YIH.pdb
     RDKit          3D

 31 32  0  0  1  0  0  0  0  0999 V2000
   14.3808  -13.4103  -21.4790 O   0  0  0  0  0  0  0  0  0  0  0  0
   15.1946  -12.8218  -20.5135 C   0  0  0  0  0  0  0  0  0  0  0  0
   16.5658  -12.7759  -20.6591 C   0  0  0  0  0  0  0  0  0  0  0  0
   17.3689  -12.1916  -19.6999 C   0  0  0  0  0  0  0  0  0  0  0  0
   16.8406  -11.6288  -18.5562 C   0  0  0  0  0  0  0  0  0  0  0  0
   17.7251  -11.0093  -17.5446 C   0  0  0  0  0  0  0  0  0  0  0  0
   18.6475  -11.9813  -16.8910 C   0  0  2  0  0  0  0  0  0  0  0  0
   17.9574  -13.0636  -16.2231 N   0  0  0  0  0  0  0  0  0  0  0  0
   19.4624  -11.1927  -15.8884 C   0  0  0  0  0  0  0  0  0  0  0  0
   18.9388  -11.1142  -14.7555 O   0  0  0  0  0  0  0  0  0  0  0  0
   15.4684  -11.6779  -18.4165 C   0  0  0  0  0  0  0  0  0  0  0  0
   14.6595  -12.2609  -19.3723 C   0  0  0  0  0  0  0  0  0  0  0  0
   24.5186  -12.1429  -15.0516 C   0  0  0  0  0  0  0  0  0  0  0  0
   23.0184  -11.8044  -14.9198 C   0  0  0  0  0  0  0  0  0  0  0  0
   22.8743  -10.3462  -15.2474 C   0  0  2  0  0  0  0  0  0  0  0  0
   23.8306   -9.5238  -14.4158 C   0  0  0  0  0  0  0  0  0  0  0  0
   21.5097   -9.8017  -15.3434 C   0  0  2  0  0  0  0  0  0  0  0  0
   20.6878  -10.6143  -16.2255 N   0  0  0  0  0  0  0  0  0  0  0  0
   21.2838   -8.3926  -15.5950 C   0  0  0  0  0  0  0  0  0  0  0  0
   21.6511   -7.5316  -14.7559 O   0  0  0  0  0  0  0  0  0  0  0  0
   20.6582   -7.8432  -16.7620 N   0  0  0  0  0  0  0  0  0  0  0  0
   20.5085   -6.4003  -16.8650 C   0  0  1  0  0  0  0  0  0  0  0  0
   20.0479   -5.9925  -18.2490 C   0  0  0  0  0  0  0  0  0  0  0  0
   19.9431   -4.5094  -18.3453 C   0  0  0  0  0  0  0  0  0  0  0  0
   20.3660   -3.6606  -17.3432 C   0  0  0  0  0  0  0  0  0  0  0  0
   20.1092   -2.4189  -17.7938 N   0  0  0  0  0  0  0  0  0  0  0  0
   19.5512   -2.4633  -19.0192 C   0  0  0  0  0  0  0  0  0  0  0  0
   19.4541   -3.7592  -19.3483 N   0  0  0  0  0  0  0  0  0  0  0  0
   19.5583   -5.9742  -15.8232 C   0  0  0  0  0  0  0  0  0  0  0  0
   19.9459   -4.9200  -14.9904 O   0  0  0  0  0  0  0  0  0  0  0  0
   18.4410   -6.5141  -15.6645 O   0  0  0  0  0  0  0  0  0  0  0  0
  2 12  2  0
  2  1  1  0
  3  2  1  0
  4  5  1  0
  4  3  2  0
  5 11  2  0
  6  5  1  0
  7  6  1  0
  7  8  1  1
  9  7  1  0
  9 10  2  0
 11 12  1  0
 13 14  1  0
 14 15  1  0
 15 17  1  0
 15 16  1  1
 17 18  1  6
 18  9  1  0
 19 17  1  0
 19 21  1  0
 20 19  2  0
 22 21  1  0
 22 29  1  0
 22 23  1  6
 24 23  1  0
 24 25  2  0
 26 25  1  0
 27 26  1  0
 28 27  2  0
 28 24  1  0
 29 31  2  0
 29 30  1  0
M  END
$$$$
