YIH.pdb
     RDKit          3D

 31 32  0  0  1  0  0  0  0  0999 V2000
   20.3038  -14.9609  -24.4381 O   0  0  0  0  0  0  0  0  0  0  0  0
   20.6386  -14.3626  -23.2254 C   0  0  0  0  0  0  0  0  0  0  0  0
   21.9168  -13.9069  -22.9765 C   0  0  0  0  0  0  0  0  0  0  0  0
   22.2447  -13.3145  -21.7732 C   0  0  0  0  0  0  0  0  0  0  0  0
   21.3139  -13.1512  -20.7677 C   0  0  0  0  0  0  0  0  0  0  0  0
   21.6930  -12.5127  -19.4878 C   0  0  0  0  0  0  0  0  0  0  0  0
   22.6884  -13.3007  -18.7061 C   0  0  2  0  0  0  0  0  0  0  0  0
   22.1968  -14.5994  -18.2993 N   0  0  0  0  0  0  0  0  0  0  0  0
   23.0288  -12.4726  -17.4856 C   0  0  0  0  0  0  0  0  0  0  0  0
   22.3022  -12.7037  -16.4944 O   0  0  0  0  0  0  0  0  0  0  0  0
   20.0371  -13.6091  -21.0228 C   0  0  0  0  0  0  0  0  0  0  0  0
   19.7028  -14.2025  -22.2244 C   0  0  0  0  0  0  0  0  0  0  0  0
   28.0371  -11.9985  -15.8850 C   0  0  0  0  0  0  0  0  0  0  0  0
   26.5087  -12.1819  -15.9988 C   0  0  0  0  0  0  0  0  0  0  0  0
   25.9177  -10.8081  -16.1325 C   0  0  2  0  0  0  0  0  0  0  0  0
   26.4490   -9.8997  -15.0486 C   0  0  0  0  0  0  0  0  0  0  0  0
   24.4675  -10.7110  -16.3676 C   0  0  2  0  0  0  0  0  0  0  0  0
   24.0678  -11.5398  -17.4933 N   0  0  0  0  0  0  0  0  0  0  0  0
   23.8048   -9.4236  -16.4250 C   0  0  0  0  0  0  0  0  0  0  0  0
   23.9516   -8.6788  -17.4270 O   0  0  0  0  0  0  0  0  0  0  0  0
   22.9492   -8.8796  -15.4114 N   0  0  0  0  0  0  0  0  0  0  0  0
   22.2631   -7.6240  -15.6715 C   0  0  1  0  0  0  0  0  0  0  0  0
   21.4582   -7.6920  -16.9527 C   0  0  0  0  0  0  0  0  0  0  0  0
   20.7637   -6.3971  -17.1990 C   0  0  0  0  0  0  0  0  0  0  0  0
   19.3898   -6.2714  -17.2027 C   0  0  0  0  0  0  0  0  0  0  0  0
   19.1499   -4.9719  -17.4569 N   0  0  0  0  0  0  0  0  0  0  0  0
   20.3052   -4.2958  -17.6090 C   0  0  0  0  0  0  0  0  0  0  0  0
   21.2938   -5.1867  -17.4474 N   0  0  0  0  0  0  0  0  0  0  0  0
   21.4132   -7.3293  -14.5051 C   0  0  0  0  0  0  0  0  0  0  0  0
   21.4015   -8.2630  -13.4644 O   0  0  0  0  0  0  0  0  0  0  0  0
   20.7176   -6.2930  -14.4192 O   0  0  0  0  0  0  0  0  0  0  0  0
  2 12  2  0
  2  1  1  0
  3  2  1  0
  4  5  1  0
  4  3  2  0
  5 11  2  0
  6  5  1  0
  7  6  1  0
  7  8  1  1
  9  7  1  0
  9 10  2  0
 11 12  1  0
 13 14  1  0
 14 15  1  0
 15 17  1  0
 15 16  1  1
 17 18  1  6
 18  9  1  0
 19 17  1  0
 19 21  1  0
 20 19  2  0
 22 21  1  0
 22 29  1  0
 22 23  1  6
 24 23  1  0
 24 25  2  0
 26 25  1  0
 27 26  1  0
 28 27  2  0
 28 24  1  0
 29 31  2  0
 29 30  1  0
M  END
$$$$
