YIH.pdb
     RDKit          3D

 31 32  0  0  1  0  0  0  0  0999 V2000
   16.4809  -23.7534  -15.8417 O   0  0  0  0  0  0  0  0  0  0  0  0
   17.6378  -23.1157  -15.3994 C   0  0  0  0  0  0  0  0  0  0  0  0
   18.6048  -23.7931  -14.6857 C   0  0  0  0  0  0  0  0  0  0  0  0
   19.7501  -23.1575  -14.2490 C   0  0  0  0  0  0  0  0  0  0  0  0
   19.9804  -21.8212  -14.5045 C   0  0  0  0  0  0  0  0  0  0  0  0
   21.2168  -21.1653  -14.0244 C   0  0  0  0  0  0  0  0  0  0  0  0
   21.2910  -21.0586  -12.5392 C   0  0  2  0  0  0  0  0  0  0  0  0
   20.2006  -20.2998  -11.9656 N   0  0  0  0  0  0  0  0  0  0  0  0
   22.6098  -20.3868  -12.2222 C   0  0  0  0  0  0  0  0  0  0  0  0
   22.6435  -19.1700  -12.5089 O   0  0  0  0  0  0  0  0  0  0  0  0
   19.0093  -21.1490  -15.2189 C   0  0  0  0  0  0  0  0  0  0  0  0
   17.8615  -21.7792  -15.6584 C   0  0  0  0  0  0  0  0  0  0  0  0
   24.6436  -20.2721   -7.5504 C   0  0  0  0  0  0  0  0  0  0  0  0
   24.1474  -20.0662   -8.9974 C   0  0  0  0  0  0  0  0  0  0  0  0
   25.2406  -20.5559   -9.9026 C   0  0  2  0  0  0  0  0  0  0  0  0
   26.5710  -19.9782   -9.4801 C   0  0  0  0  0  0  0  0  0  0  0  0
   24.9860  -20.5310  -11.3526 C   0  0  2  0  0  0  0  0  0  0  0  0
   23.6783  -21.0876  -11.6593 N   0  0  0  0  0  0  0  0  0  0  0  0
   25.9765  -21.0147  -12.2932 C   0  0  0  0  0  0  0  0  0  0  0  0
   26.7159  -21.9858  -11.9923 O   0  0  0  0  0  0  0  0  0  0  0  0
   26.2143  -20.4814  -13.6026 N   0  0  0  0  0  0  0  0  0  0  0  0
   26.5078  -21.3991  -14.6918 C   0  0  1  0  0  0  0  0  0  0  0  0
   25.5037  -22.5319  -14.7423 C   0  0  0  0  0  0  0  0  0  0  0  0
   25.8052  -23.4426  -15.8824 C   0  0  0  0  0  0  0  0  0  0  0  0
   26.5345  -24.6051  -15.7415 C   0  0  0  0  0  0  0  0  0  0  0  0
   26.5921  -25.1431  -16.9736 N   0  0  0  0  0  0  0  0  0  0  0  0
   25.9362  -24.3706  -17.8612 C   0  0  0  0  0  0  0  0  0  0  0  0
   25.4551  -23.3241  -17.1751 N   0  0  0  0  0  0  0  0  0  0  0  0
   26.5188  -20.6201  -15.9419 C   0  0  0  0  0  0  0  0  0  0  0  0
   27.2956  -21.1072  -16.9975 O   0  0  0  0  0  0  0  0  0  0  0  0
   25.8693  -19.5604  -16.0846 O   0  0  0  0  0  0  0  0  0  0  0  0
  2 12  2  0
  2  1  1  0
  3  2  1  0
  4  5  1  0
  4  3  2  0
  5 11  2  0
  6  5  1  0
  7  6  1  0
  7  8  1  6
  9  7  1  0
  9 10  2  0
 11 12  1  0
 13 14  1  0
 14 15  1  0
 15 17  1  0
 15 16  1  6
 17 18  1  1
 18  9  1  0
 19 17  1  0
 19 21  1  0
 20 19  2  0
 22 21  1  0
 22 29  1  0
 22 23  1  6
 24 23  1  0
 24 25  2  0
 26 25  1  0
 27 26  1  0
 28 27  2  0
 28 24  1  0
 29 31  2  0
 29 30  1  0
M  END
$$$$
