YIH.pdb
     RDKit          3D

 31 32  0  0  1  0  0  0  0  0999 V2000
   23.4144  -17.1291  -24.5873 O   0  0  0  0  0  0  0  0  0  0  0  0
   23.3893  -16.3738  -23.4170 C   0  0  0  0  0  0  0  0  0  0  0  0
   24.2778  -15.3389  -23.2094 C   0  0  0  0  0  0  0  0  0  0  0  0
   24.2497  -14.5926  -22.0481 C   0  0  0  0  0  0  0  0  0  0  0  0
   23.3361  -14.8453  -21.0453 C   0  0  0  0  0  0  0  0  0  0  0  0
   23.3287  -14.0294  -19.8109 C   0  0  0  0  0  0  0  0  0  0  0  0
   24.3171  -14.4879  -18.7932 C   0  0  2  0  0  0  0  0  0  0  0  0
   24.0582  -15.8261  -18.3075 N   0  0  0  0  0  0  0  0  0  0  0  0
   24.2442  -13.5004  -17.6484 C   0  0  0  0  0  0  0  0  0  0  0  0
   23.5430  -13.8857  -16.6873 O   0  0  0  0  0  0  0  0  0  0  0  0
   22.4500  -15.8818  -21.2590 C   0  0  0  0  0  0  0  0  0  0  0  0
   22.4730  -16.6320  -22.4185 C   0  0  0  0  0  0  0  0  0  0  0  0
   28.5735  -12.0822  -15.4607 C   0  0  0  0  0  0  0  0  0  0  0  0
   27.1046  -12.4691  -15.7345 C   0  0  0  0  0  0  0  0  0  0  0  0
   26.3881  -11.2048  -16.1119 C   0  0  2  0  0  0  0  0  0  0  0  0
   26.6090  -10.1419  -15.0613 C   0  0  0  0  0  0  0  0  0  0  0  0
   25.0008  -11.3253  -16.5901 C   0  0  2  0  0  0  0  0  0  0  0  0
   24.9111  -12.2743  -17.6880 N   0  0  0  0  0  0  0  0  0  0  0  0
   24.2024  -10.1489  -16.8701 C   0  0  0  0  0  0  0  0  0  0  0  0
   24.5579   -9.3389  -17.7633 O   0  0  0  0  0  0  0  0  0  0  0  0
   22.9823   -9.7914  -16.2076 N   0  0  0  0  0  0  0  0  0  0  0  0
   22.3405   -8.5321  -16.5497 C   0  0  1  0  0  0  0  0  0  0  0  0
   20.8657   -8.7261  -16.8350 C   0  0  0  0  0  0  0  0  0  0  0  0
   20.6783   -9.5367  -18.0711 C   0  0  0  0  0  0  0  0  0  0  0  0
   21.4258   -9.3449  -19.2147 C   0  0  0  0  0  0  0  0  0  0  0  0
   20.9698  -10.2530  -20.0969 N   0  0  0  0  0  0  0  0  0  0  0  0
   19.9822  -10.9904  -19.5530 C   0  0  0  0  0  0  0  0  0  0  0  0
   19.8118  -10.5385  -18.3025 N   0  0  0  0  0  0  0  0  0  0  0  0
   22.5646   -7.5984  -15.4328 C   0  0  0  0  0  0  0  0  0  0  0  0
   23.2648   -8.0792  -14.3220 O   0  0  0  0  0  0  0  0  0  0  0  0
   22.1572   -6.4156  -15.4473 O   0  0  0  0  0  0  0  0  0  0  0  0
  2 12  2  0
  2  1  1  0
  3  2  1  0
  4  5  1  0
  4  3  2  0
  5 11  2  0
  6  5  1  0
  7  6  1  0
  7  8  1  1
  9  7  1  0
  9 10  2  0
 11 12  1  0
 13 14  1  0
 14 15  1  0
 15 17  1  0
 15 16  1  1
 17 18  1  6
 18  9  1  0
 19 17  1  0
 19 21  1  0
 20 19  2  0
 22 21  1  0
 22 29  1  0
 22 23  1  1
 24 23  1  0
 24 25  2  0
 26 25  1  0
 27 26  1  0
 28 27  2  0
 28 24  1  0
 29 31  2  0
 29 30  1  0
M  END
$$$$
