YIH.pdb
     RDKit          3D

 31 32  0  0  1  0  0  0  0  0999 V2000
   18.5698  -16.7996  -22.4891 O   0  0  0  0  0  0  0  0  0  0  0  0
   18.9659  -15.8937  -21.5077 C   0  0  0  0  0  0  0  0  0  0  0  0
   18.1274  -15.5462  -20.4686 C   0  0  0  0  0  0  0  0  0  0  0  0
   18.5238  -14.6479  -19.4979 C   0  0  0  0  0  0  0  0  0  0  0  0
   19.7710  -14.0582  -19.5211 C   0  0  0  0  0  0  0  0  0  0  0  0
   20.1696  -13.0986  -18.4676 C   0  0  0  0  0  0  0  0  0  0  0  0
   21.1709  -13.6523  -17.5117 C   0  0  2  0  0  0  0  0  0  0  0  0
   20.6786  -14.7884  -16.7628 N   0  0  0  0  0  0  0  0  0  0  0  0
   21.5292  -12.5268  -16.5652 C   0  0  0  0  0  0  0  0  0  0  0  0
   20.9228  -12.5677  -15.4723 O   0  0  0  0  0  0  0  0  0  0  0  0
   20.6051  -14.4098  -20.5631 C   0  0  0  0  0  0  0  0  0  0  0  0
   20.2146  -15.3078  -21.5372 C   0  0  0  0  0  0  0  0  0  0  0  0
   26.4522  -11.6756  -15.1994 C   0  0  0  0  0  0  0  0  0  0  0  0
   24.9256  -11.8626  -15.3292 C   0  0  0  0  0  0  0  0  0  0  0  0
   24.3708  -10.5569  -15.8208 C   0  0  2  0  0  0  0  0  0  0  0  0
   24.9666   -9.4067  -15.0434 C   0  0  0  0  0  0  0  0  0  0  0  0
   22.9166  -10.4729  -16.0358 C   0  0  2  0  0  0  0  0  0  0  0  0
   22.4585  -11.5425  -16.9077 N   0  0  0  0  0  0  0  0  0  0  0  0
   22.2861   -9.2192  -16.3967 C   0  0  0  0  0  0  0  0  0  0  0  0
   22.7000   -8.5627  -17.3857 O   0  0  0  0  0  0  0  0  0  0  0  0
   21.1783   -8.6157  -15.7156 N   0  0  0  0  0  0  0  0  0  0  0  0
   20.6906   -7.3249  -16.1746 C   0  0  1  0  0  0  0  0  0  0  0  0
   19.1816   -7.2403  -16.0760 C   0  0  0  0  0  0  0  0  0  0  0  0
   18.7090   -5.8899  -16.4917 C   0  0  0  0  0  0  0  0  0  0  0  0
   19.0553   -5.3113  -17.6954 C   0  0  0  0  0  0  0  0  0  0  0  0
   18.4438   -4.1127  -17.7055 N   0  0  0  0  0  0  0  0  0  0  0  0
   17.7413   -3.9274  -16.5710 C   0  0  0  0  0  0  0  0  0  0  0  0
   17.9131   -5.0314  -15.8302 N   0  0  0  0  0  0  0  0  0  0  0  0
   21.3519   -6.2847  -15.3680 C   0  0  0  0  0  0  0  0  0  0  0  0
   21.5181   -5.0253  -15.9523 O   0  0  0  0  0  0  0  0  0  0  0  0
   21.7599   -6.4891  -14.2032 O   0  0  0  0  0  0  0  0  0  0  0  0
  2 12  2  0
  2  1  1  0
  3  2  1  0
  4  5  1  0
  4  3  2  0
  5 11  2  0
  6  5  1  0
  7  6  1  0
  7  8  1  1
  9  7  1  0
  9 10  2  0
 11 12  1  0
 13 14  1  0
 14 15  1  0
 15 17  1  0
 15 16  1  1
 17 18  1  6
 18  9  1  0
 19 17  1  0
 19 21  1  0
 20 19  2  0
 22 21  1  0
 22 29  1  0
 22 23  1  1
 24 23  1  0
 24 25  2  0
 26 25  1  0
 27 26  1  0
 28 27  2  0
 28 24  1  0
 29 31  2  0
 29 30  1  0
M  END
$$$$
