YIH.pdb
     RDKit          3D

 31 32  0  0  1  0  0  0  0  0999 V2000
   19.6667  -17.2587  -18.9889 O   0  0  0  0  0  0  0  0  0  0  0  0
   19.9531  -17.9613  -17.8207 C   0  0  0  0  0  0  0  0  0  0  0  0
   19.9447  -19.3406  -17.7902 C   0  0  0  0  0  0  0  0  0  0  0  0
   20.2292  -20.0334  -16.6302 C   0  0  0  0  0  0  0  0  0  0  0  0
   20.5338  -19.3821  -15.4525 C   0  0  0  0  0  0  0  0  0  0  0  0
   20.8347  -20.1499  -14.2240 C   0  0  0  0  0  0  0  0  0  0  0  0
   22.2879  -20.1908  -13.8934 C   0  0  2  0  0  0  0  0  0  0  0  0
   23.0896  -20.8231  -14.9187 N   0  0  0  0  0  0  0  0  0  0  0  0
   22.4116  -20.9590  -12.5950 C   0  0  0  0  0  0  0  0  0  0  0  0
   22.3800  -22.2014  -12.7333 O   0  0  0  0  0  0  0  0  0  0  0  0
   20.5406  -18.0023  -15.4895 C   0  0  0  0  0  0  0  0  0  0  0  0
   20.2569  -17.3036  -16.6466 C   0  0  0  0  0  0  0  0  0  0  0  0
   25.6359  -21.3531   -9.9215 C   0  0  0  0  0  0  0  0  0  0  0  0
   24.9542  -19.9833   -9.7180 C   0  0  0  0  0  0  0  0  0  0  0  0
   23.5776  -20.2608   -9.1865 C   0  0  2  0  0  0  0  0  0  0  0  0
   23.6572  -20.8022   -7.7783 C   0  0  0  0  0  0  0  0  0  0  0  0
   22.6363  -20.9681  -10.0706 C   0  0  2  0  0  0  0  0  0  0  0  0
   22.5478  -20.3120  -11.3651 N   0  0  0  0  0  0  0  0  0  0  0  0
   21.3186  -21.3512   -9.6051 C   0  0  0  0  0  0  0  0  0  0  0  0
   20.4169  -20.4857   -9.4706 O   0  0  0  0  0  0  0  0  0  0  0  0
   20.9072  -22.6825   -9.2680 N   0  0  0  0  0  0  0  0  0  0  0  0
   19.5489  -22.8993   -8.7960 C   0  0  1  0  0  0  0  0  0  0  0  0
   18.7848  -23.8213   -9.7233 C   0  0  0  0  0  0  0  0  0  0  0  0
   17.4173  -24.0773   -9.1902 C   0  0  0  0  0  0  0  0  0  0  0  0
   17.0075  -23.6557   -7.9421 C   0  0  0  0  0  0  0  0  0  0  0  0
   15.7321  -24.0687   -7.8257 N   0  0  0  0  0  0  0  0  0  0  0  0
   15.3399  -24.7210   -8.9373 C   0  0  0  0  0  0  0  0  0  0  0  0
   16.3891  -24.7195   -9.7717 N   0  0  0  0  0  0  0  0  0  0  0  0
   19.6321  -23.4422   -7.4292 C   0  0  0  0  0  0  0  0  0  0  0  0
   18.4399  -23.5545   -6.7072 O   0  0  0  0  0  0  0  0  0  0  0  0
   20.7118  -23.7977   -6.9068 O   0  0  0  0  0  0  0  0  0  0  0  0
  2 12  2  0
  2  1  1  0
  3  2  1  0
  4  5  1  0
  4  3  2  0
  5 11  2  0
  6  5  1  0
  7  6  1  0
  7  8  1  6
  9  7  1  0
  9 10  2  0
 11 12  1  0
 13 14  1  0
 14 15  1  0
 15 17  1  0
 15 16  1  1
 17 18  1  6
 18  9  1  0
 19 17  1  0
 19 21  1  0
 20 19  2  0
 22 21  1  0
 22 29  1  0
 22 23  1  6
 24 23  1  0
 24 25  2  0
 26 25  1  0
 27 26  1  0
 28 27  2  0
 28 24  1  0
 29 31  2  0
 29 30  1  0
M  END
$$$$
