YIH.pdb
     RDKit          3D

 31 32  0  0  1  0  0  0  0  0999 V2000
   20.0288  -11.2198  -26.0436 O   0  0  0  0  0  0  0  0  0  0  0  0
   20.1092  -11.1404  -24.6551 C   0  0  0  0  0  0  0  0  0  0  0  0
   19.8256  -12.2278  -23.8546 C   0  0  0  0  0  0  0  0  0  0  0  0
   19.9064  -12.1451  -22.4787 C   0  0  0  0  0  0  0  0  0  0  0  0
   20.2729  -10.9768  -21.8426 C   0  0  0  0  0  0  0  0  0  0  0  0
   20.3514  -10.9165  -20.3662 C   0  0  0  0  0  0  0  0  0  0  0  0
   21.7083  -11.2286  -19.8330 C   0  0  2  0  0  0  0  0  0  0  0  0
   22.1223  -12.5916  -20.0868 N   0  0  0  0  0  0  0  0  0  0  0  0
   21.6524  -10.9757  -18.3417 C   0  0  0  0  0  0  0  0  0  0  0  0
   21.6618  -12.0161  -17.6479 O   0  0  0  0  0  0  0  0  0  0  0  0
   20.5554   -9.8927  -22.6488 C   0  0  0  0  0  0  0  0  0  0  0  0
   20.4763   -9.9690  -24.0256 C   0  0  0  0  0  0  0  0  0  0  0  0
   24.2307  -10.5487  -13.8548 C   0  0  0  0  0  0  0  0  0  0  0  0
   22.9762   -9.7537  -14.2751 C   0  0  0  0  0  0  0  0  0  0  0  0
   22.8332   -9.9259  -15.7598 C   0  0  2  0  0  0  0  0  0  0  0  0
   24.1404   -9.6201  -16.4526 C   0  0  0  0  0  0  0  0  0  0  0  0
   21.6411   -9.3462  -16.4006 C   0  0  2  0  0  0  0  0  0  0  0  0
   21.5958   -9.6842  -17.8140 N   0  0  0  0  0  0  0  0  0  0  0  0
   21.2873   -7.9553  -16.2002 C   0  0  0  0  0  0  0  0  0  0  0  0
   21.9566   -7.0448  -16.7511 O   0  0  0  0  0  0  0  0  0  0  0  0
   20.1949   -7.4786  -15.4035 N   0  0  0  0  0  0  0  0  0  0  0  0
   19.9454   -6.0474  -15.3384 C   0  0  1  0  0  0  0  0  0  0  0  0
   19.7919   -5.4523  -16.7227 C   0  0  0  0  0  0  0  0  0  0  0  0
   18.6018   -6.0309  -17.4075 C   0  0  0  0  0  0  0  0  0  0  0  0
   17.8257   -7.0262  -16.8504 C   0  0  0  0  0  0  0  0  0  0  0  0
   16.8626   -7.2782  -17.7558 N   0  0  0  0  0  0  0  0  0  0  0  0
   17.0087   -6.4891  -18.8379 C   0  0  0  0  0  0  0  0  0  0  0  0
   18.0857   -5.7239  -18.6105 N   0  0  0  0  0  0  0  0  0  0  0  0
   18.7411   -5.8406  -14.5160 C   0  0  0  0  0  0  0  0  0  0  0  0
   18.3211   -4.5231  -14.3089 O   0  0  0  0  0  0  0  0  0  0  0  0
   18.0973   -6.7860  -14.0090 O   0  0  0  0  0  0  0  0  0  0  0  0
  2 12  2  0
  2  1  1  0
  3  2  1  0
  4  5  1  0
  4  3  2  0
  5 11  2  0
  6  5  1  0
  7  6  1  0
  7  8  1  1
  9  7  1  0
  9 10  2  0
 11 12  1  0
 13 14  1  0
 14 15  1  0
 15 17  1  0
 15 16  1  6
 17 18  1  6
 18  9  1  0
 19 17  1  0
 19 21  1  0
 20 19  2  0
 22 21  1  0
 22 29  1  0
 22 23  1  6
 24 23  1  0
 24 25  2  0
 26 25  1  0
 27 26  1  0
 28 27  2  0
 28 24  1  0
 29 31  2  0
 29 30  1  0
M  END
$$$$
