YIH.pdb
     RDKit          3D

 31 32  0  0  1  0  0  0  0  0999 V2000
   20.7620  -19.9401  -12.6182 O   0  0  0  0  0  0  0  0  0  0  0  0
   20.7006  -18.7828  -13.3911 C   0  0  0  0  0  0  0  0  0  0  0  0
   19.6562  -17.8898  -13.2679 C   0  0  0  0  0  0  0  0  0  0  0  0
   19.5989  -16.7438  -14.0359 C   0  0  0  0  0  0  0  0  0  0  0  0
   20.5788  -16.4390  -14.9583 C   0  0  0  0  0  0  0  0  0  0  0  0
   20.4921  -15.2037  -15.7681 C   0  0  0  0  0  0  0  0  0  0  0  0
   19.6360  -15.3500  -16.9800 C   0  0  2  0  0  0  0  0  0  0  0  0
   20.1445  -16.3206  -17.9250 N   0  0  0  0  0  0  0  0  0  0  0  0
   19.5718  -13.9836  -17.6281 C   0  0  0  0  0  0  0  0  0  0  0  0
   20.5281  -13.7386  -18.3958 O   0  0  0  0  0  0  0  0  0  0  0  0
   21.6210  -17.3362  -15.0769 C   0  0  0  0  0  0  0  0  0  0  0  0
   21.6840  -18.4843  -14.3116 C   0  0  0  0  0  0  0  0  0  0  0  0
   15.6123  -13.2542  -19.9024 C   0  0  0  0  0  0  0  0  0  0  0  0
   16.9643  -12.5137  -19.9814 C   0  0  0  0  0  0  0  0  0  0  0  0
   17.0888  -11.7063  -18.7217 C   0  0  2  0  0  0  0  0  0  0  0  0
   16.5674  -10.3055  -18.9416 C   0  0  0  0  0  0  0  0  0  0  0  0
   18.3612  -11.7859  -17.9850 C   0  0  2  0  0  0  0  0  0  0  0  0
   18.5255  -13.0947  -17.3735 N   0  0  0  0  0  0  0  0  0  0  0  0
   18.7562  -10.7414  -17.0615 C   0  0  0  0  0  0  0  0  0  0  0  0
   18.2721  -10.7036  -15.9020 O   0  0  0  0  0  0  0  0  0  0  0  0
   19.6937   -9.6929  -17.3390 N   0  0  0  0  0  0  0  0  0  0  0  0
   20.0035   -8.7327  -16.2917 C   0  0  1  0  0  0  0  0  0  0  0  0
   21.1477   -7.8269  -16.6969 C   0  0  0  0  0  0  0  0  0  0  0  0
   21.4204   -6.8251  -15.6283 C   0  0  0  0  0  0  0  0  0  0  0  0
   20.7791   -6.8376  -14.4068 C   0  0  0  0  0  0  0  0  0  0  0  0
   21.2863   -5.7938  -13.7256 N   0  0  0  0  0  0  0  0  0  0  0  0
   22.2045   -5.1432  -14.4662 C   0  0  0  0  0  0  0  0  0  0  0  0
   22.2780   -5.7896  -15.6384 N   0  0  0  0  0  0  0  0  0  0  0  0
   18.7756   -7.9707  -16.0066 C   0  0  0  0  0  0  0  0  0  0  0  0
   18.1470   -7.3361  -17.0824 O   0  0  0  0  0  0  0  0  0  0  0  0
   18.2892   -7.8762  -14.8579 O   0  0  0  0  0  0  0  0  0  0  0  0
  2 12  2  0
  2  1  1  0
  3  2  1  0
  4  5  1  0
  4  3  2  0
  5 11  2  0
  6  5  1  0
  7  6  1  0
  7  8  1  6
  9  7  1  0
  9 10  2  0
 11 12  1  0
 13 14  1  0
 14 15  1  0
 15 17  1  0
 15 16  1  6
 17 18  1  1
 18  9  1  0
 19 17  1  0
 19 21  1  0
 20 19  2  0
 22 21  1  0
 22 29  1  0
 22 23  1  6
 24 23  1  0
 24 25  2  0
 26 25  1  0
 27 26  1  0
 28 27  2  0
 28 24  1  0
 29 31  2  0
 29 30  1  0
M  END
$$$$
