YIH.pdb
     RDKit          3D

 31 32  0  0  1  0  0  0  0  0999 V2000
   25.7194  -16.2779  -21.2979 O   0  0  0  0  0  0  0  0  0  0  0  0
   24.7505  -15.3900  -20.8357 C   0  0  0  0  0  0  0  0  0  0  0  0
   24.0217  -14.6041  -21.7045 C   0  0  0  0  0  0  0  0  0  0  0  0
   23.0623  -13.7252  -21.2425 C   0  0  0  0  0  0  0  0  0  0  0  0
   22.7885  -13.5921  -19.8967 C   0  0  0  0  0  0  0  0  0  0  0  0
   21.7547  -12.6421  -19.4294 C   0  0  0  0  0  0  0  0  0  0  0  0
   20.5357  -13.3119  -18.8924 C   0  0  2  0  0  0  0  0  0  0  0  0
   19.8507  -14.1244  -19.8745 N   0  0  0  0  0  0  0  0  0  0  0  0
   19.6195  -12.2099  -18.4051 C   0  0  0  0  0  0  0  0  0  0  0  0
   18.8924  -11.7204  -19.2969 O   0  0  0  0  0  0  0  0  0  0  0  0
   23.5208  -14.3809  -19.0327 C   0  0  0  0  0  0  0  0  0  0  0  0
   24.4819  -15.2619  -19.4886 C   0  0  0  0  0  0  0  0  0  0  0  0
   16.5766  -13.5468  -15.4134 C   0  0  0  0  0  0  0  0  0  0  0  0
   16.7165  -12.3159  -16.3342 C   0  0  0  0  0  0  0  0  0  0  0  0
   17.6909  -11.3874  -15.6687 C   0  0  2  0  0  0  0  0  0  0  0  0
   16.9627  -10.4240  -14.7610 C   0  0  0  0  0  0  0  0  0  0  0  0
   18.7342  -10.7783  -16.5104 C   0  0  2  0  0  0  0  0  0  0  0  0
   19.6078  -11.7961  -17.0716 N   0  0  0  0  0  0  0  0  0  0  0  0
   19.5094   -9.6486  -16.0386 C   0  0  0  0  0  0  0  0  0  0  0  0
   20.3729   -9.8036  -15.1382 O   0  0  0  0  0  0  0  0  0  0  0  0
   19.3969   -8.3015  -16.5162 N   0  0  0  0  0  0  0  0  0  0  0  0
   20.2168   -7.2685  -15.9035 C   0  0  1  0  0  0  0  0  0  0  0  0
   20.2812   -6.0298  -16.7726 C   0  0  0  0  0  0  0  0  0  0  0  0
   21.0241   -4.9435  -16.0741 C   0  0  0  0  0  0  0  0  0  0  0  0
   22.2621   -4.4958  -16.4865 C   0  0  0  0  0  0  0  0  0  0  0  0
   22.5996   -3.5254  -15.6175 N   0  0  0  0  0  0  0  0  0  0  0  0
   21.6329   -3.3558  -14.6947 C   0  0  0  0  0  0  0  0  0  0  0  0
   20.6660   -4.2370  -14.9875 N   0  0  0  0  0  0  0  0  0  0  0  0
   19.6503   -6.9776  -14.5753 C   0  0  0  0  0  0  0  0  0  0  0  0
   18.2570   -6.9519  -14.4610 O   0  0  0  0  0  0  0  0  0  0  0  0
   20.3613   -6.7578  -13.5697 O   0  0  0  0  0  0  0  0  0  0  0  0
  2 12  2  0
  2  1  1  0
  3  2  1  0
  4  5  1  0
  4  3  2  0
  5 11  2  0
  6  5  1  0
  7  6  1  0
  7  8  1  6
  9  7  1  0
  9 10  2  0
 11 12  1  0
 13 14  1  0
 14 15  1  0
 15 17  1  0
 15 16  1  6
 17 18  1  1
 18  9  1  0
 19 17  1  0
 19 21  1  0
 20 19  2  0
 22 21  1  0
 22 29  1  0
 22 23  1  6
 24 23  1  0
 24 25  2  0
 26 25  1  0
 27 26  1  0
 28 27  2  0
 28 24  1  0
 29 31  2  0
 29 30  1  0
M  END
$$$$
