YIH.pdb
     RDKit          3D

 31 32  0  0  1  0  0  0  0  0999 V2000
   11.7312  -11.9357  -10.6383 O   0  0  0  0  0  0  0  0  0  0  0  0
   12.8436  -11.2267  -11.0863 C   0  0  0  0  0  0  0  0  0  0  0  0
   13.7765  -11.8048  -11.9223 C   0  0  0  0  0  0  0  0  0  0  0  0
   14.8777  -11.0987  -12.3642 C   0  0  0  0  0  0  0  0  0  0  0  0
   15.0960   -9.7880  -11.9922 C   0  0  0  0  0  0  0  0  0  0  0  0
   16.2849   -9.0551  -12.4808 C   0  0  0  0  0  0  0  0  0  0  0  0
   17.5223   -9.3506  -11.7034 C   0  0  2  0  0  0  0  0  0  0  0  0
   17.4395   -8.9382  -10.3189 N   0  0  0  0  0  0  0  0  0  0  0  0
   18.6499   -8.6141  -12.3944 C   0  0  0  0  0  0  0  0  0  0  0  0
   18.9313   -7.5116  -11.8758 O   0  0  0  0  0  0  0  0  0  0  0  0
   14.1592   -9.2154  -11.1558 C   0  0  0  0  0  0  0  0  0  0  0  0
   13.0556   -9.9164  -10.7104 C   0  0  0  0  0  0  0  0  0  0  0  0
   23.2606  -10.9020  -13.5223 C   0  0  0  0  0  0  0  0  0  0  0  0
   22.1366   -9.9305  -13.1035 C   0  0  0  0  0  0  0  0  0  0  0  0
   21.5394   -9.3892  -14.3703 C   0  0  2  0  0  0  0  0  0  0  0  0
   22.6271   -8.8933  -15.2941 C   0  0  0  0  0  0  0  0  0  0  0  0
   20.3756   -8.4958  -14.2468 C   0  0  2  0  0  0  0  0  0  0  0  0
   19.3011   -9.1424  -13.5109 N   0  0  0  0  0  0  0  0  0  0  0  0
   19.8492   -7.7913  -15.3984 C   0  0  0  0  0  0  0  0  0  0  0  0
   19.0755   -8.3743  -16.1995 O   0  0  0  0  0  0  0  0  0  0  0  0
   20.1250   -6.4264  -15.7395 N   0  0  0  0  0  0  0  0  0  0  0  0
   19.4634   -5.8442  -16.8963 C   0  0  1  0  0  0  0  0  0  0  0  0
   17.9570   -5.8785  -16.7433 C   0  0  0  0  0  0  0  0  0  0  0  0
   17.3012   -5.2360  -17.9168 C   0  0  0  0  0  0  0  0  0  0  0  0
   17.3824   -5.7481  -19.1953 C   0  0  0  0  0  0  0  0  0  0  0  0
   16.6736   -4.9023  -19.9654 N   0  0  0  0  0  0  0  0  0  0  0  0
   16.1629   -3.8993  -19.2251 C   0  0  0  0  0  0  0  0  0  0  0  0
   16.5574   -4.1168  -17.9625 N   0  0  0  0  0  0  0  0  0  0  0  0
   19.9673   -4.4692  -17.0543 C   0  0  0  0  0  0  0  0  0  0  0  0
   20.9572   -4.0398  -16.1649 O   0  0  0  0  0  0  0  0  0  0  0  0
   19.5463   -3.6917  -17.9394 O   0  0  0  0  0  0  0  0  0  0  0  0
  2 12  2  0
  2  1  1  0
  3  2  1  0
  4  5  1  0
  4  3  2  0
  5 11  2  0
  6  5  1  0
  7  6  1  0
  7  8  1  1
  9  7  1  0
  9 10  2  0
 11 12  1  0
 13 14  1  0
 14 15  1  0
 15 17  1  0
 15 16  1  1
 17 18  1  6
 18  9  1  0
 19 17  1  0
 19 21  1  0
 20 19  2  0
 22 21  1  0
 22 29  1  0
 22 23  1  1
 24 23  1  0
 24 25  2  0
 26 25  1  0
 27 26  1  0
 28 27  2  0
 28 24  1  0
 29 31  2  0
 29 30  1  0
M  END
$$$$
