NQQ.pdb
     RDKit          3D

 27 26  0  0  1  0  0  0  0  0999 V2000
    9.3953  -19.0439   17.7823 N   0  0  0  0  0  0  0  0  0  0  0  0
   10.2450  -18.7481   18.8726 C   0  0  0  0  0  0  0  0  0  0  0  0
   11.4906  -18.6698   18.7238 O   0  0  0  0  0  0  0  0  0  0  0  0
    9.6601  -18.5279   20.2033 C   0  0  0  0  0  0  0  0  0  0  0  0
    8.1761  -18.8946   20.2345 C   0  0  2  0  0  0  0  0  0  0  0  0
    7.5088  -17.9374   19.3832 N   0  0  0  0  0  0  0  0  0  0  0  0
    7.7355  -18.6465   21.6431 C   0  0  0  0  0  0  0  0  0  0  0  0
    7.1917  -17.5217   21.8750 O   0  0  0  0  0  0  0  0  0  0  0  0
    6.0636  -23.1302   25.3249 N   0  0  0  0  0  0  0  0  0  0  0  0
    5.9795  -22.0950   26.2927 C   0  0  0  0  0  0  0  0  0  0  0  0
    5.5185  -22.3715   27.4251 O   0  0  0  0  0  0  0  0  0  0  0  0
    6.4461  -20.7250   25.9108 C   0  0  0  0  0  0  0  0  0  0  0  0
    6.8547  -20.6143   24.4937 C   0  0  0  0  0  0  0  0  0  0  0  0
    7.3673  -19.3316   23.9825 C   0  0  2  0  0  0  0  0  0  0  0  0
    7.9151  -19.6125   22.6591 N   0  0  0  0  0  0  0  0  0  0  0  0
    8.3768  -18.6283   24.7941 C   0  0  0  0  0  0  0  0  0  0  0  0
    9.5930  -18.9054   24.6183 O   0  0  0  0  0  0  0  0  0  0  0  0
    8.9155  -13.1209   27.2781 N   0  0  0  0  0  0  0  0  0  0  0  0
    9.7278  -13.8166   28.2040 C   0  0  0  0  0  0  0  0  0  0  0  0
   10.4924  -13.1951   28.9554 O   0  0  0  0  0  0  0  0  0  0  0  0
    9.6355  -15.3208   28.2476 C   0  0  0  0  0  0  0  0  0  0  0  0
    8.6501  -15.8070   27.2218 C   0  0  0  0  0  0  0  0  0  0  0  0
    9.1391  -17.0505   26.5697 C   0  0  2  0  0  0  0  0  0  0  0  0
    8.0642  -17.6600   25.7568 N   0  0  0  0  0  0  0  0  0  0  0  0
    9.6157  -18.0547   27.5299 C   0  0  0  0  0  0  0  0  0  0  0  0
   10.8091  -18.2031   27.8821 O   0  0  0  0  0  0  0  0  0  0  0  0
    8.6635  -18.9223   28.1049 O   0  0  0  0  0  0  0  0  0  0  0  0
  2  1  1  0
  2  3  2  0
  4  2  1  0
  5  4  1  0
  5  6  1  6
  7  8  2  0
  7  5  1  0
  9 10  1  0
 10 12  1  0
 11 10  2  0
 12 13  1  0
 14 13  1  1
 14 15  1  0
 15  7  1  0
 16 24  1  0
 16 14  1  0
 17 16  2  0
 19 21  1  0
 19 18  1  0
 20 19  2  0
 23 22  1  1
 22 21  1  0
 23 24  1  0
 25 23  1  0
 26 25  2  0
 27 25  1  0
M  END
$$$$
