NQQ.pdb
     RDKit          3D

 27 26  0  0  1  0  0  0  0  0999 V2000
    7.4407  -12.2996   17.6343 N   0  0  0  0  0  0  0  0  0  0  0  0
    7.8022  -13.5480   18.1902 C   0  0  0  0  0  0  0  0  0  0  0  0
    7.6398  -14.6168   17.5492 O   0  0  0  0  0  0  0  0  0  0  0  0
    8.3787  -13.5954   19.5418 C   0  0  0  0  0  0  0  0  0  0  0  0
    7.7399  -14.6964   20.3888 C   0  0  2  0  0  0  0  0  0  0  0  0
    6.3791  -14.2772   20.6308 N   0  0  0  0  0  0  0  0  0  0  0  0
    8.4714  -14.6678   21.6941 C   0  0  0  0  0  0  0  0  0  0  0  0
    8.1826  -13.7141   22.4827 O   0  0  0  0  0  0  0  0  0  0  0  0
    8.2555  -16.9283   26.6172 N   0  0  0  0  0  0  0  0  0  0  0  0
    7.4778  -17.1978   25.4605 C   0  0  0  0  0  0  0  0  0  0  0  0
    6.5216  -18.0025   25.5574 O   0  0  0  0  0  0  0  0  0  0  0  0
    7.8400  -16.5066   24.1832 C   0  0  0  0  0  0  0  0  0  0  0  0
    8.9636  -15.5554   24.3249 C   0  0  0  0  0  0  0  0  0  0  0  0
   10.0623  -15.5759   23.3440 C   0  0  2  0  0  0  0  0  0  0  0  0
    9.4311  -15.6495   22.0300 N   0  0  0  0  0  0  0  0  0  0  0  0
   11.0675  -16.6466   23.4680 C   0  0  0  0  0  0  0  0  0  0  0  0
   10.7573  -17.8116   23.1025 O   0  0  0  0  0  0  0  0  0  0  0  0
   12.8958  -14.8420   19.2682 N   0  0  0  0  0  0  0  0  0  0  0  0
   14.1920  -14.6554   19.8030 C   0  0  0  0  0  0  0  0  0  0  0  0
   15.0152  -13.9416   19.2128 O   0  0  0  0  0  0  0  0  0  0  0  0
   14.5371  -15.3444   21.0990 C   0  0  0  0  0  0  0  0  0  0  0  0
   13.3186  -15.4364   21.9744 C   0  0  0  0  0  0  0  0  0  0  0  0
   13.5186  -16.4420   23.0513 C   0  0  2  0  0  0  0  0  0  0  0  0
   12.3597  -16.4464   23.9703 N   0  0  0  0  0  0  0  0  0  0  0  0
   14.7329  -16.2038   23.8427 C   0  0  0  0  0  0  0  0  0  0  0  0
   14.7927  -15.4892   24.8703 O   0  0  0  0  0  0  0  0  0  0  0  0
   15.9278  -16.8238   23.4208 O   0  0  0  0  0  0  0  0  0  0  0  0
  2  1  1  0
  2  3  2  0
  4  2  1  0
  5  4  1  0
  5  6  1  1
  7  8  2  0
  7  5  1  0
  9 10  1  0
 10 12  1  0
 11 10  2  0
 12 13  1  0
 14 13  1  1
 14 15  1  0
 15  7  1  0
 16 24  1  0
 16 14  1  0
 17 16  2  0
 19 21  1  0
 19 18  1  0
 20 19  2  0
 23 22  1  6
 22 21  1  0
 23 24  1  0
 25 23  1  0
 26 25  2  0
 27 25  1  0
M  END
$$$$
