NQQ.pdb
     RDKit          3D

 27 26  0  0  1  0  0  0  0  0999 V2000
   15.1601  -14.4946   13.6317 N   0  0  0  0  0  0  0  0  0  0  0  0
   15.6143  -14.5875   14.9671 C   0  0  0  0  0  0  0  0  0  0  0  0
   16.7963  -14.9244   15.2300 O   0  0  0  0  0  0  0  0  0  0  0  0
   14.6869  -14.2839   16.0667 C   0  0  0  0  0  0  0  0  0  0  0  0
   14.2058  -15.5556   16.7658 C   0  0  2  0  0  0  0  0  0  0  0  0
   13.5314  -16.3375   15.7558 N   0  0  0  0  0  0  0  0  0  0  0  0
   13.1820  -15.1002   17.7578 C   0  0  0  0  0  0  0  0  0  0  0  0
   13.6089  -14.4021   18.7300 O   0  0  0  0  0  0  0  0  0  0  0  0
    8.9586  -11.9992   18.4780 N   0  0  0  0  0  0  0  0  0  0  0  0
    8.1475  -12.9750   19.1144 C   0  0  0  0  0  0  0  0  0  0  0  0
    7.2279  -12.5859   19.8722 O   0  0  0  0  0  0  0  0  0  0  0  0
    8.4321  -14.4201   18.8476 C   0  0  0  0  0  0  0  0  0  0  0  0
    9.6460  -14.6418   18.0323 C   0  0  0  0  0  0  0  0  0  0  0  0
   10.9005  -15.0456   18.6902 C   0  0  2  0  0  0  0  0  0  0  0  0
   11.8146  -15.4296   17.6191 N   0  0  0  0  0  0  0  0  0  0  0  0
   10.8295  -16.1277   19.6884 C   0  0  0  0  0  0  0  0  0  0  0  0
   10.8090  -17.3209   19.2852 O   0  0  0  0  0  0  0  0  0  0  0  0
   11.9839  -15.7210   25.7112 N   0  0  0  0  0  0  0  0  0  0  0  0
   12.4604  -16.9906   25.3086 C   0  0  0  0  0  0  0  0  0  0  0  0
   13.2873  -17.5975   26.0040 O   0  0  0  0  0  0  0  0  0  0  0  0
   11.9370  -17.5760   24.0215 C   0  0  0  0  0  0  0  0  0  0  0  0
   10.9523  -16.6327   23.3889 C   0  0  0  0  0  0  0  0  0  0  0  0
   10.6397  -17.0529   21.9974 C   0  0  2  0  0  0  0  0  0  0  0  0
   10.7851  -15.9089   21.0714 N   0  0  0  0  0  0  0  0  0  0  0  0
    9.2820  -17.5941   21.8509 C   0  0  0  0  0  0  0  0  0  0  0  0
    8.9795  -18.8076   21.9288 O   0  0  0  0  0  0  0  0  0  0  0  0
    8.2321  -16.6847   21.6038 O   0  0  0  0  0  0  0  0  0  0  0  0
  2  1  1  0
  2  3  2  0
  4  2  1  0
  5  4  1  0
  5  6  1  6
  7  8  2  0
  7  5  1  0
  9 10  1  0
 10 12  1  0
 11 10  2  0
 12 13  1  0
 14 13  1  6
 14 15  1  0
 15  7  1  0
 16 24  1  0
 16 14  1  0
 17 16  2  0
 19 21  1  0
 19 18  1  0
 20 19  2  0
 23 22  1  1
 22 21  1  0
 23 24  1  0
 25 23  1  0
 26 25  2  0
 27 25  1  0
M  END
$$$$
