NQQ.pdb
     RDKit          3D

 27 26  0  0  1  0  0  0  0  0999 V2000
    8.4749  -11.7673   18.6755 N   0  0  0  0  0  0  0  0  0  0  0  0
    8.2800  -13.1664   18.6214 C   0  0  0  0  0  0  0  0  0  0  0  0
    8.5627  -13.8228   17.5874 O   0  0  0  0  0  0  0  0  0  0  0  0
    7.7376  -13.8647   19.7959 C   0  0  0  0  0  0  0  0  0  0  0  0
    8.0358  -15.3634   19.7481 C   0  0  2  0  0  0  0  0  0  0  0  0
    7.0517  -15.9398   18.8618 N   0  0  0  0  0  0  0  0  0  0  0  0
    7.7634  -15.8666   21.1310 C   0  0  0  0  0  0  0  0  0  0  0  0
    6.5986  -15.6514   21.5912 O   0  0  0  0  0  0  0  0  0  0  0  0
    6.8694  -20.5312   23.3957 N   0  0  0  0  0  0  0  0  0  0  0  0
    7.6730  -20.3037   24.5436 C   0  0  0  0  0  0  0  0  0  0  0  0
    7.4806  -21.0142   25.5582 O   0  0  0  0  0  0  0  0  0  0  0  0
    8.7099  -19.2259   24.4835 C   0  0  0  0  0  0  0  0  0  0  0  0
    8.7103  -18.4778   23.2077 C   0  0  0  0  0  0  0  0  0  0  0  0
    8.3875  -17.0407   23.2070 C   0  0  2  0  0  0  0  0  0  0  0  0
    8.7496  -16.5445   21.8830 N   0  0  0  0  0  0  0  0  0  0  0  0
    9.0202  -16.1990   24.2382 C   0  0  0  0  0  0  0  0  0  0  0  0
   10.2517  -15.9511   24.1435 O   0  0  0  0  0  0  0  0  0  0  0  0
    7.2418  -11.0910   26.6282 N   0  0  0  0  0  0  0  0  0  0  0  0
    6.3750  -12.1736   26.3496 C   0  0  0  0  0  0  0  0  0  0  0  0
    5.1642  -11.9762   26.1746 O   0  0  0  0  0  0  0  0  0  0  0  0
    6.9634  -13.5596   26.2730 C   0  0  0  0  0  0  0  0  0  0  0  0
    8.4543  -13.4977   26.4544 C   0  0  0  0  0  0  0  0  0  0  0  0
    9.0558  -14.8525   26.3380 C   0  0  2  0  0  0  0  0  0  0  0  0
    8.3295  -15.6507   25.3267 N   0  0  0  0  0  0  0  0  0  0  0  0
    9.0476  -15.5965   27.6045 C   0  0  0  0  0  0  0  0  0  0  0  0
    9.5527  -15.1938   28.6782 O   0  0  0  0  0  0  0  0  0  0  0  0
    8.4248  -16.8623   27.6223 O   0  0  0  0  0  0  0  0  0  0  0  0
  2  1  1  0
  2  3  2  0
  4  2  1  0
  5  4  1  0
  5  6  1  6
  7  8  2  0
  7  5  1  0
  9 10  1  0
 10 12  1  0
 11 10  2  0
 12 13  1  0
 14 13  1  6
 14 15  1  0
 15  7  1  0
 16 24  1  0
 16 14  1  0
 17 16  2  0
 19 21  1  0
 19 18  1  0
 20 19  2  0
 23 22  1  1
 22 21  1  0
 23 24  1  0
 25 23  1  0
 26 25  2  0
 27 25  1  0
M  END
$$$$
