NQQ.pdb
     RDKit          3D

 27 26  0  0  1  0  0  0  0  0999 V2000
   14.1802  -14.2235   13.3857 N   0  0  0  0  0  0  0  0  0  0  0  0
   14.5822  -14.6915   14.6576 C   0  0  0  0  0  0  0  0  0  0  0  0
   15.5175  -15.5223   14.7790 O   0  0  0  0  0  0  0  0  0  0  0  0
   13.8938  -14.1965   15.8586 C   0  0  0  0  0  0  0  0  0  0  0  0
   13.1978  -15.3277   16.6159 C   0  0  2  0  0  0  0  0  0  0  0  0
   12.1289  -15.7854   15.7590 N   0  0  0  0  0  0  0  0  0  0  0  0
   12.5824  -14.6813   17.8173 C   0  0  0  0  0  0  0  0  0  0  0  0
   13.3851  -14.2886   18.7208 O   0  0  0  0  0  0  0  0  0  0  0  0
    7.0602  -14.7769   19.2101 N   0  0  0  0  0  0  0  0  0  0  0  0
    7.2606  -13.6842   20.0939 C   0  0  0  0  0  0  0  0  0  0  0  0
    6.4007  -13.4662   20.9795 O   0  0  0  0  0  0  0  0  0  0  0  0
    8.4898  -12.8474   19.9227 C   0  0  0  0  0  0  0  0  0  0  0  0
    9.3813  -13.3223   18.8424 C   0  0  0  0  0  0  0  0  0  0  0  0
   10.6593  -13.9694   19.1855 C   0  0  2  0  0  0  0  0  0  0  0  0
   11.1839  -14.5170   17.9385 N   0  0  0  0  0  0  0  0  0  0  0  0
   10.6350  -15.0240   20.2148 C   0  0  0  0  0  0  0  0  0  0  0  0
   10.2600  -16.1807   19.8856 O   0  0  0  0  0  0  0  0  0  0  0  0
   14.9694  -18.3044   22.0886 N   0  0  0  0  0  0  0  0  0  0  0  0
   14.7013  -17.0780   21.4365 C   0  0  0  0  0  0  0  0  0  0  0  0
   15.3365  -16.7574   20.4220 O   0  0  0  0  0  0  0  0  0  0  0  0
   13.6308  -16.1831   22.0078 C   0  0  0  0  0  0  0  0  0  0  0  0
   12.2900  -16.8555   21.9095 C   0  0  0  0  0  0  0  0  0  0  0  0
   11.2187  -15.9750   22.4460 C   0  0  2  0  0  0  0  0  0  0  0  0
   11.0088  -14.8179   21.5490 N   0  0  0  0  0  0  0  0  0  0  0  0
   11.5122  -15.4665   23.7924 C   0  0  0  0  0  0  0  0  0  0  0  0
   11.7047  -16.1801   24.8043 O   0  0  0  0  0  0  0  0  0  0  0  0
   11.5853  -14.0687   23.9685 O   0  0  0  0  0  0  0  0  0  0  0  0
  2  1  1  0
  2  3  2  0
  4  2  1  0
  5  4  1  0
  5  6  1  6
  7  8  2  0
  7  5  1  0
  9 10  1  0
 10 12  1  0
 11 10  2  0
 12 13  1  0
 14 13  1  6
 14 15  1  0
 15  7  1  0
 16 24  1  0
 16 14  1  0
 17 16  2  0
 19 21  1  0
 19 18  1  0
 20 19  2  0
 23 22  1  6
 22 21  1  0
 23 24  1  0
 25 23  1  0
 26 25  2  0
 27 25  1  0
M  END
$$$$
