NQQ.pdb
     RDKit          3D

 27 26  0  0  1  0  0  0  0  0999 V2000
    7.7223  -12.3514   16.8550 N   0  0  0  0  0  0  0  0  0  0  0  0
    7.3185  -13.6634   16.5176 C   0  0  0  0  0  0  0  0  0  0  0  0
    6.8089  -13.9192   15.3975 O   0  0  0  0  0  0  0  0  0  0  0  0
    7.4987  -14.7468   17.4949 C   0  0  0  0  0  0  0  0  0  0  0  0
    8.0184  -14.2189   18.8324 C   0  0  2  0  0  0  0  0  0  0  0  0
    9.2954  -13.6049   18.5519 N   0  0  0  0  0  0  0  0  0  0  0  0
    8.2640  -15.4342   19.6704 C   0  0  0  0  0  0  0  0  0  0  0  0
    7.2339  -16.0499   20.0882 O   0  0  0  0  0  0  0  0  0  0  0  0
    9.4294  -21.0017   17.6413 N   0  0  0  0  0  0  0  0  0  0  0  0
   10.1670  -19.9606   18.2636 C   0  0  0  0  0  0  0  0  0  0  0  0
   11.4063  -19.9145   18.0811 O   0  0  0  0  0  0  0  0  0  0  0  0
    9.4262  -18.9701   19.1066 C   0  0  0  0  0  0  0  0  0  0  0  0
   10.3121  -18.0949   19.9046 C   0  0  0  0  0  0  0  0  0  0  0  0
    9.7224  -17.0763   20.7903 C   0  0  2  0  0  0  0  0  0  0  0  0
    9.5718  -15.8722   19.9793 N   0  0  0  0  0  0  0  0  0  0  0  0
   10.4488  -16.7474   22.0298 C   0  0  0  0  0  0  0  0  0  0  0  0
   11.2929  -15.8126   22.0053 O   0  0  0  0  0  0  0  0  0  0  0  0
    9.7499  -18.9570   27.9075 N   0  0  0  0  0  0  0  0  0  0  0  0
   10.8877  -18.1291   28.0525 C   0  0  0  0  0  0  0  0  0  0  0  0
   11.4429  -18.0169   29.1547 O   0  0  0  0  0  0  0  0  0  0  0  0
   11.3981  -17.3956   26.8382 C   0  0  0  0  0  0  0  0  0  0  0  0
   10.5564  -17.7341   25.6397 C   0  0  0  0  0  0  0  0  0  0  0  0
   11.0901  -17.0754   24.4182 C   0  0  2  0  0  0  0  0  0  0  0  0
   10.2550  -17.4153   23.2458 N   0  0  0  0  0  0  0  0  0  0  0  0
   12.4778  -17.4536   24.1202 C   0  0  0  0  0  0  0  0  0  0  0  0
   13.4884  -16.7781   24.4249 O   0  0  0  0  0  0  0  0  0  0  0  0
   12.6989  -18.6693   23.4394 O   0  0  0  0  0  0  0  0  0  0  0  0
  2  1  1  0
  2  3  2  0
  4  2  1  0
  5  4  1  0
  5  6  1  6
  7  8  2  0
  7  5  1  0
  9 10  1  0
 10 12  1  0
 11 10  2  0
 12 13  1  0
 14 13  1  6
 14 15  1  0
 15  7  1  0
 16 24  1  0
 16 14  1  0
 17 16  2  0
 19 21  1  0
 19 18  1  0
 20 19  2  0
 23 22  1  1
 22 21  1  0
 23 24  1  0
 25 23  1  0
 26 25  2  0
 27 25  1  0
M  END
$$$$
