NQQ.pdb
     RDKit          3D

 27 26  0  0  1  0  0  0  0  0999 V2000
    6.3338  -13.8030   17.2134 N   0  0  0  0  0  0  0  0  0  0  0  0
    7.6014  -13.7584   16.5891 C   0  0  0  0  0  0  0  0  0  0  0  0
    7.7931  -13.0702   15.5550 O   0  0  0  0  0  0  0  0  0  0  0  0
    8.7141  -14.5305   17.1609 C   0  0  0  0  0  0  0  0  0  0  0  0
    8.9117  -14.2201   18.6449 C   0  0  2  0  0  0  0  0  0  0  0  0
    9.1375  -12.7960   18.7299 N   0  0  0  0  0  0  0  0  0  0  0  0
   10.1811  -14.9132   19.0298 C   0  0  0  0  0  0  0  0  0  0  0  0
   10.2024  -16.1753   18.8835 O   0  0  0  0  0  0  0  0  0  0  0  0
   16.7501  -13.1579   18.9338 N   0  0  0  0  0  0  0  0  0  0  0  0
   15.9831  -14.2406   18.4294 C   0  0  0  0  0  0  0  0  0  0  0  0
   16.1831  -14.6167   17.2505 O   0  0  0  0  0  0  0  0  0  0  0  0
   14.9737  -14.8784   19.3321 C   0  0  0  0  0  0  0  0  0  0  0  0
   13.6017  -14.3591   19.1434 C   0  0  0  0  0  0  0  0  0  0  0  0
   12.4875  -14.9563   19.8993 C   0  0  2  0  0  0  0  0  0  0  0  0
   11.2951  -14.2007   19.5286 N   0  0  0  0  0  0  0  0  0  0  0  0
   12.6057  -15.0004   21.3678 C   0  0  0  0  0  0  0  0  0  0  0  0
   13.7306  -15.2517   21.8759 O   0  0  0  0  0  0  0  0  0  0  0  0
    8.3996  -18.2189   20.5991 N   0  0  0  0  0  0  0  0  0  0  0  0
    8.6929  -18.7481   21.8777 C   0  0  0  0  0  0  0  0  0  0  0  0
    8.1990  -19.8265   22.2364 O   0  0  0  0  0  0  0  0  0  0  0  0
    9.6147  -17.9681   22.7805 C   0  0  0  0  0  0  0  0  0  0  0  0
   10.0497  -16.6995   22.1014 C   0  0  0  0  0  0  0  0  0  0  0  0
   10.9397  -15.9054   22.9892 C   0  0  2  0  0  0  0  0  0  0  0  0
   11.5341  -14.7761   22.2418 N   0  0  0  0  0  0  0  0  0  0  0  0
   12.0312  -16.6993   23.5688 C   0  0  0  0  0  0  0  0  0  0  0  0
   12.7489  -17.5066   22.9337 O   0  0  0  0  0  0  0  0  0  0  0  0
   12.2991  -16.5469   24.9455 O   0  0  0  0  0  0  0  0  0  0  0  0
  2  1  1  0
  2  3  2  0
  4  2  1  0
  5  4  1  0
  5  6  1  6
  7  8  2  0
  7  5  1  0
  9 10  1  0
 10 12  1  0
 11 10  2  0
 12 13  1  0
 14 13  1  6
 14 15  1  0
 15  7  1  0
 16 24  1  0
 16 14  1  0
 17 16  2  0
 19 21  1  0
 19 18  1  0
 20 19  2  0
 23 22  1  6
 22 21  1  0
 23 24  1  0
 25 23  1  0
 26 25  2  0
 27 25  1  0
M  END
$$$$
