NQQ.pdb
     RDKit          3D

 27 26  0  0  1  0  0  0  0  0999 V2000
    7.3446  -12.1976   17.9567 N   0  0  0  0  0  0  0  0  0  0  0  0
    7.5555  -13.5859   18.1191 C   0  0  0  0  0  0  0  0  0  0  0  0
    7.8111  -14.3244   17.1347 O   0  0  0  0  0  0  0  0  0  0  0  0
    7.4749  -14.1748   19.4638 C   0  0  0  0  0  0  0  0  0  0  0  0
    8.8070  -14.0687   20.2065 C   0  0  2  0  0  0  0  0  0  0  0  0
    9.8052  -14.6200   19.3200 N   0  0  0  0  0  0  0  0  0  0  0  0
    8.6789  -14.9834   21.3841 C   0  0  0  0  0  0  0  0  0  0  0  0
    7.7087  -14.7564   22.1728 O   0  0  0  0  0  0  0  0  0  0  0  0
   11.3796  -20.4741   22.0015 N   0  0  0  0  0  0  0  0  0  0  0  0
   10.9926  -20.3021   23.3564 C   0  0  0  0  0  0  0  0  0  0  0  0
   11.1845  -21.2470   24.1574 O   0  0  0  0  0  0  0  0  0  0  0  0
   10.3744  -18.9999   23.7595 C   0  0  0  0  0  0  0  0  0  0  0  0
   10.1615  -18.0721   22.6275 C   0  0  0  0  0  0  0  0  0  0  0  0
    9.4980  -16.7782   22.8623 C   0  0  2  0  0  0  0  0  0  0  0  0
    9.5885  -16.0422   21.6052 N   0  0  0  0  0  0  0  0  0  0  0  0
   10.0083  -15.9396   23.9617 C   0  0  0  0  0  0  0  0  0  0  0  0
   10.6026  -14.8661   23.6766 O   0  0  0  0  0  0  0  0  0  0  0  0
    6.0149  -13.2146   25.7998 N   0  0  0  0  0  0  0  0  0  0  0  0
    6.8392  -12.7286   26.8415 C   0  0  0  0  0  0  0  0  0  0  0  0
    6.4911  -11.7420   27.5057 O   0  0  0  0  0  0  0  0  0  0  0  0
    8.1400  -13.4399   27.1155 C   0  0  0  0  0  0  0  0  0  0  0  0
    8.3874  -14.4854   26.0641 C   0  0  0  0  0  0  0  0  0  0  0  0
    9.6691  -15.1949   26.3183 C   0  0  2  0  0  0  0  0  0  0  0  0
    9.8701  -16.2649   25.3172 N   0  0  0  0  0  0  0  0  0  0  0  0
    9.7378  -15.7974   27.6562 C   0  0  0  0  0  0  0  0  0  0  0  0
    9.5766  -17.0148   27.9056 O   0  0  0  0  0  0  0  0  0  0  0  0
   10.0059  -14.9474   28.7498 O   0  0  0  0  0  0  0  0  0  0  0  0
  2  1  1  0
  2  3  2  0
  4  2  1  0
  5  4  1  0
  5  6  1  6
  7  8  2  0
  7  5  1  0
  9 10  1  0
 10 12  1  0
 11 10  2  0
 12 13  1  0
 14 13  1  6
 14 15  1  0
 15  7  1  0
 16 24  1  0
 16 14  1  0
 17 16  2  0
 19 21  1  0
 19 18  1  0
 20 19  2  0
 23 22  1  6
 22 21  1  0
 23 24  1  0
 25 23  1  0
 26 25  2  0
 27 25  1  0
M  END
$$$$
