EPH.pdb
     RDKit          3D

 27 28  0  0  1  0  0  0  0  0999 V2000
   10.4174  -15.4843   15.4444 N   0  0  0  0  0  0  0  0  0  0  0  0
    9.3795  -15.1672   16.3572 C   0  0  1  0  0  0  0  0  0  0  0  0
    8.2696  -16.2322   16.3370 C   0  0  0  0  0  0  0  0  0  0  0  0
    8.8335  -17.6062   16.6459 C   0  0  0  0  0  0  0  0  0  0  0  0
    7.7626  -18.6015   16.8137 C   0  0  0  0  0  0  0  0  0  0  0  0
    7.7018  -19.4003   17.7880 O   0  0  0  0  0  0  0  0  0  0  0  0
    9.7619  -15.0212   17.7676 C   0  0  0  0  0  0  0  0  0  0  0  0
   10.9754  -15.4032   18.0177 O   0  0  0  0  0  0  0  0  0  0  0  0
    6.7640  -18.6704   15.8539 O   0  0  0  0  0  0  0  0  0  0  0  0
    8.9397  -14.5242   18.7832 N   0  0  0  0  0  0  0  0  0  0  0  0
    7.5264  -14.2598   18.5806 C   0  0  0  0  0  0  0  0  0  0  0  0
    7.2463  -13.1023   19.4945 C   0  0  0  0  0  0  0  0  0  0  0  0
    8.4939  -12.8604   20.2954 C   0  0  0  0  0  0  0  0  0  0  0  0
    9.2274  -14.2055   20.1317 C   0  0  1  0  0  0  0  0  0  0  0  0
    8.6301  -15.2482   21.0113 C   0  0  0  0  0  0  0  0  0  0  0  0
    7.7015  -15.9880   20.6023 O   0  0  0  0  0  0  0  0  0  0  0  0
    9.0705  -15.4640   22.3469 N   0  0  0  0  0  0  0  0  0  0  0  0
   10.0328  -16.5018   22.7012 C   0  0  1  0  0  0  0  0  0  0  0  0
   11.2754  -16.4110   21.8873 C   0  0  0  0  0  0  0  0  0  0  0  0
   12.2286  -17.4653   22.2693 C   0  0  0  0  0  0  0  0  0  0  0  0
   12.2037  -18.1942   23.4537 C   0  0  0  0  0  0  0  0  0  0  0  0
   13.2240  -19.0711   23.4660 N   0  0  0  0  0  0  0  0  0  0  0  0
   13.8870  -18.9079   22.3162 C   0  0  0  0  0  0  0  0  0  0  0  0
   13.2873  -17.9442   21.6012 N   0  0  0  0  0  0  0  0  0  0  0  0
   10.3605  -16.3820   24.1375 C   0  0  0  0  0  0  0  0  0  0  0  0
   11.1891  -17.2357   24.6117 O   0  0  0  0  0  0  0  0  0  0  0  0
    9.8394  -15.4202   24.9922 O   0  0  0  0  0  0  0  0  0  0  0  0
  2  1  1  6
  2  7  1  0
  3  2  1  0
  4  3  1  0
  5  6  2  0
  5  4  1  0
  7  8  2  0
  7 10  1  0
  9  5  1  0
 10 14  1  0
 10 11  1  0
 11 12  1  0
 13 12  1  0
 14 13  1  0
 14 15  1  1
 16 15  2  0
 17 15  1  0
 18 19  1  6
 18 17  1  0
 20 19  1  0
 21 20  2  0
 22 23  1  0
 22 21  1  0
 23 24  2  0
 24 20  1  0
 25 18  1  0
 26 25  2  0
 27 25  1  0
M  END
$$$$
