EPH.pdb
     RDKit          3D

 27 28  0  0  1  0  0  0  0  0999 V2000
    8.0159  -14.5270   20.9906 N   0  0  0  0  0  0  0  0  0  0  0  0
    7.4174  -14.2411   22.2441 C   0  0  1  0  0  0  0  0  0  0  0  0
    6.3785  -15.3093   22.6265 C   0  0  0  0  0  0  0  0  0  0  0  0
    6.9402  -16.7045   22.4288 C   0  0  0  0  0  0  0  0  0  0  0  0
    7.1188  -17.3992   23.7138 C   0  0  0  0  0  0  0  0  0  0  0  0
    6.1786  -17.6079   24.5282 O   0  0  0  0  0  0  0  0  0  0  0  0
    8.3194  -14.1356   23.3982 C   0  0  0  0  0  0  0  0  0  0  0  0
    9.5628  -14.3580   23.1060 O   0  0  0  0  0  0  0  0  0  0  0  0
    8.3852  -17.8509   24.0538 O   0  0  0  0  0  0  0  0  0  0  0  0
    7.9308  -13.8273   24.7053 N   0  0  0  0  0  0  0  0  0  0  0  0
    6.5453  -13.5909   25.0698 C   0  0  0  0  0  0  0  0  0  0  0  0
    6.6368  -12.5938   26.1882 C   0  0  0  0  0  0  0  0  0  0  0  0
    8.0941  -12.4254   26.5113 C   0  0  0  0  0  0  0  0  0  0  0  0
    8.6939  -13.7018   25.8904 C   0  0  1  0  0  0  0  0  0  0  0  0
    8.4378  -14.8861   26.7563 C   0  0  0  0  0  0  0  0  0  0  0  0
    7.3157  -15.0697   27.2892 O   0  0  0  0  0  0  0  0  0  0  0  0
    9.4350  -15.8645   27.0260 N   0  0  0  0  0  0  0  0  0  0  0  0
    9.2094  -16.9929   27.9228 C   0  0  1  0  0  0  0  0  0  0  0  0
    8.8444  -18.2303   27.1809 C   0  0  0  0  0  0  0  0  0  0  0  0
    9.7849  -18.4733   26.0752 C   0  0  0  0  0  0  0  0  0  0  0  0
   10.8704  -17.6711   25.7394 C   0  0  0  0  0  0  0  0  0  0  0  0
   11.5081  -18.1953   24.6771 N   0  0  0  0  0  0  0  0  0  0  0  0
   10.8465  -19.3076   24.3402 C   0  0  0  0  0  0  0  0  0  0  0  0
    9.8139  -19.4711   25.1807 N   0  0  0  0  0  0  0  0  0  0  0  0
   10.4325  -17.2245   28.7196 C   0  0  0  0  0  0  0  0  0  0  0  0
   10.4120  -18.2159   29.5301 O   0  0  0  0  0  0  0  0  0  0  0  0
   11.5838  -16.4522   28.6477 O   0  0  0  0  0  0  0  0  0  0  0  0
  2  1  1  6
  2  7  1  0
  3  2  1  0
  4  3  1  0
  5  6  2  0
  5  4  1  0
  7  8  2  0
  7 10  1  0
  9  5  1  0
 10 14  1  0
 10 11  1  0
 11 12  1  0
 13 12  1  0
 14 13  1  0
 14 15  1  1
 16 15  2  0
 17 15  1  0
 18 19  1  6
 18 17  1  0
 20 19  1  0
 21 20  2  0
 22 23  1  0
 22 21  1  0
 23 24  2  0
 24 20  1  0
 25 18  1  0
 26 25  2  0
 27 25  1  0
M  END
$$$$
