EPH.pdb
     RDKit          3D

 27 28  0  0  1  0  0  0  0  0999 V2000
    9.8104  -15.8858   15.7915 N   0  0  0  0  0  0  0  0  0  0  0  0
    8.9405  -15.6231   16.8804 C   0  0  1  0  0  0  0  0  0  0  0  0
    8.1391  -16.8760   17.2732 C   0  0  0  0  0  0  0  0  0  0  0  0
    9.0675  -18.0259   17.6155 C   0  0  0  0  0  0  0  0  0  0  0  0
    8.3157  -19.2072   18.0683 C   0  0  0  0  0  0  0  0  0  0  0  0
    8.5104  -19.7719   19.1793 O   0  0  0  0  0  0  0  0  0  0  0  0
    9.5621  -15.1457   18.1223 C   0  0  0  0  0  0  0  0  0  0  0  0
   10.8522  -15.2740   18.1386 O   0  0  0  0  0  0  0  0  0  0  0  0
    7.3399  -19.7328   17.2346 O   0  0  0  0  0  0  0  0  0  0  0  0
    8.8792  -14.5967   19.2117 N   0  0  0  0  0  0  0  0  0  0  0  0
    7.4294  -14.5638   19.2846 C   0  0  0  0  0  0  0  0  0  0  0  0
    7.1407  -13.3147   20.0657 C   0  0  0  0  0  0  0  0  0  0  0  0
    8.4606  -12.7730   20.5356 C   0  0  0  0  0  0  0  0  0  0  0  0
    9.3635  -14.0152   20.4075 C   0  0  1  0  0  0  0  0  0  0  0  0
    9.1294  -14.9619   21.5330 C   0  0  0  0  0  0  0  0  0  0  0  0
    8.1123  -15.6978   21.5610 O   0  0  0  0  0  0  0  0  0  0  0  0
   10.0315  -15.0861   22.6262 N   0  0  0  0  0  0  0  0  0  0  0  0
    9.8506  -16.0689   23.6892 C   0  0  1  0  0  0  0  0  0  0  0  0
   11.1452  -16.4691   24.3045 C   0  0  0  0  0  0  0  0  0  0  0  0
   12.0046  -17.1461   23.3201 C   0  0  0  0  0  0  0  0  0  0  0  0
   11.6751  -17.4038   21.9935 C   0  0  0  0  0  0  0  0  0  0  0  0
   12.6967  -18.0371   21.3891 N   0  0  0  0  0  0  0  0  0  0  0  0
   13.6583  -18.1817   22.3071 C   0  0  0  0  0  0  0  0  0  0  0  0
   13.2398  -17.6463   23.4637 N   0  0  0  0  0  0  0  0  0  0  0  0
    8.9559  -15.5017   24.7199 C   0  0  0  0  0  0  0  0  0  0  0  0
    8.6599  -14.2609   24.6051 O   0  0  0  0  0  0  0  0  0  0  0  0
    8.4224  -16.2134   25.7857 O   0  0  0  0  0  0  0  0  0  0  0  0
  2  1  1  6
  2  7  1  0
  3  2  1  0
  4  3  1  0
  5  6  2  0
  5  4  1  0
  7  8  2  0
  7 10  1  0
  9  5  1  0
 10 14  1  0
 10 11  1  0
 11 12  1  0
 13 12  1  0
 14 13  1  0
 14 15  1  1
 16 15  2  0
 17 15  1  0
 18 19  1  1
 18 17  1  0
 20 19  1  0
 21 20  2  0
 22 23  1  0
 22 21  1  0
 23 24  2  0
 24 20  1  0
 25 18  1  0
 26 25  2  0
 27 25  1  0
M  END
$$$$
