EPH.pdb
     RDKit          3D

 27 28  0  0  1  0  0  0  0  0999 V2000
    7.7251  -14.4788   21.3943 N   0  0  0  0  0  0  0  0  0  0  0  0
    7.3403  -14.6157   22.7524 C   0  0  1  0  0  0  0  0  0  0  0  0
    6.9678  -16.0705   23.0861 C   0  0  0  0  0  0  0  0  0  0  0  0
    6.1625  -16.6936   21.9615 C   0  0  0  0  0  0  0  0  0  0  0  0
    5.8115  -18.0908   22.2620 C   0  0  0  0  0  0  0  0  0  0  0  0
    5.9756  -18.6211   23.3946 O   0  0  0  0  0  0  0  0  0  0  0  0
    8.3297  -14.2191   23.7625 C   0  0  0  0  0  0  0  0  0  0  0  0
    9.5376  -14.1337   23.2992 O   0  0  0  0  0  0  0  0  0  0  0  0
    5.2712  -18.8716   21.2512 O   0  0  0  0  0  0  0  0  0  0  0  0
    8.0526  -13.9468   25.1056 N   0  0  0  0  0  0  0  0  0  0  0  0
    6.7110  -14.0274   25.6550 C   0  0  0  0  0  0  0  0  0  0  0  0
    6.7045  -12.9825   26.7328 C   0  0  0  0  0  0  0  0  0  0  0  0
    8.1074  -12.4578   26.8473 C   0  0  0  0  0  0  0  0  0  0  0  0
    8.9111  -13.5852   26.1708 C   0  0  1  0  0  0  0  0  0  0  0  0
    9.0641  -14.7517   27.0839 C   0  0  0  0  0  0  0  0  0  0  0  0
    8.0718  -15.4383   27.4312 O   0  0  0  0  0  0  0  0  0  0  0  0
   10.3253  -15.1505   27.6081 N   0  0  0  0  0  0  0  0  0  0  0  0
   10.5434  -16.4510   28.2323 C   0  0  1  0  0  0  0  0  0  0  0  0
   11.8301  -17.0652   27.8059 C   0  0  0  0  0  0  0  0  0  0  0  0
   11.8667  -17.2405   26.3451 C   0  0  0  0  0  0  0  0  0  0  0  0
   10.9558  -17.9722   25.5905 C   0  0  0  0  0  0  0  0  0  0  0  0
   11.2973  -17.9156   24.2904 N   0  0  0  0  0  0  0  0  0  0  0  0
   12.4014  -17.1650   24.2139 C   0  0  0  0  0  0  0  0  0  0  0  0
   12.7399  -16.7620   25.4478 N   0  0  0  0  0  0  0  0  0  0  0  0
   10.5245  -16.2874   29.7011 C   0  0  0  0  0  0  0  0  0  0  0  0
   10.4805  -15.0872   30.1457 O   0  0  0  0  0  0  0  0  0  0  0  0
   10.5492  -17.3315   30.6157 O   0  0  0  0  0  0  0  0  0  0  0  0
  2  1  1  6
  2  7  1  0
  3  2  1  0
  4  3  1  0
  5  6  2  0
  5  4  1  0
  7  8  2  0
  7 10  1  0
  9  5  1  0
 10 14  1  0
 10 11  1  0
 11 12  1  0
 13 12  1  0
 14 13  1  0
 14 15  1  1
 16 15  2  0
 17 15  1  0
 18 19  1  6
 18 17  1  0
 20 19  1  0
 21 20  2  0
 22 23  1  0
 22 21  1  0
 23 24  2  0
 24 20  1  0
 25 18  1  0
 26 25  2  0
 27 25  1  0
M  END
$$$$
