EPH.pdb
     RDKit          3D

 27 28  0  0  1  0  0  0  0  0999 V2000
   10.0851  -17.2724   18.2607 N   0  0  0  0  0  0  0  0  0  0  0  0
    9.1312  -17.0716   19.2907 C   0  0  1  0  0  0  0  0  0  0  0  0
    8.5381  -18.4061   19.7740 C   0  0  0  0  0  0  0  0  0  0  0  0
    9.6364  -19.3678   20.1866 C   0  0  0  0  0  0  0  0  0  0  0  0
    9.0821  -20.5898   20.7906 C   0  0  0  0  0  0  0  0  0  0  0  0
    8.4073  -21.4394   20.1471 O   0  0  0  0  0  0  0  0  0  0  0  0
    9.6007  -16.3858   20.5014 C   0  0  0  0  0  0  0  0  0  0  0  0
   10.8913  -16.2851   20.5724 O   0  0  0  0  0  0  0  0  0  0  0  0
    9.3095  -20.8266   22.1380 O   0  0  0  0  0  0  0  0  0  0  0  0
    8.7816  -15.8708   21.5107 N   0  0  0  0  0  0  0  0  0  0  0  0
    7.3567  -16.1434   21.5710 C   0  0  0  0  0  0  0  0  0  0  0  0
    6.7828  -14.9018   22.1897 C   0  0  0  0  0  0  0  0  0  0  0  0
    7.9407  -14.0355   22.5961 C   0  0  0  0  0  0  0  0  0  0  0  0
    9.0918  -15.0595   22.6279 C   0  0  1  0  0  0  0  0  0  0  0  0
    9.0294  -15.8926   23.8607 C   0  0  0  0  0  0  0  0  0  0  0  0
    8.2863  -16.9029   23.9241 O   0  0  0  0  0  0  0  0  0  0  0  0
    9.7971  -15.5969   25.0215 N   0  0  0  0  0  0  0  0  0  0  0  0
   10.6427  -16.5868   25.6801 C   0  0  1  0  0  0  0  0  0  0  0  0
   11.6270  -15.9553   26.6004 C   0  0  0  0  0  0  0  0  0  0  0  0
   10.9418  -15.1656   27.6363 C   0  0  0  0  0  0  0  0  0  0  0  0
   10.4981  -13.8545   27.4991 C   0  0  0  0  0  0  0  0  0  0  0  0
    9.9184  -13.4516   28.6444 N   0  0  0  0  0  0  0  0  0  0  0  0
    9.9891  -14.4806   29.4955 C   0  0  0  0  0  0  0  0  0  0  0  0
   10.6034  -15.5066   28.8876 N   0  0  0  0  0  0  0  0  0  0  0  0
    9.7844  -17.5291   26.4285 C   0  0  0  0  0  0  0  0  0  0  0  0
   10.3729  -18.5100   27.0045 O   0  0  0  0  0  0  0  0  0  0  0  0
    8.4055  -17.4221   26.5479 O   0  0  0  0  0  0  0  0  0  0  0  0
  2  1  1  6
  2  7  1  0
  3  2  1  0
  4  3  1  0
  5  6  2  0
  5  4  1  0
  7  8  2  0
  7 10  1  0
  9  5  1  0
 10 14  1  0
 10 11  1  0
 11 12  1  0
 13 12  1  0
 14 13  1  0
 14 15  1  1
 16 15  2  0
 17 15  1  0
 18 19  1  1
 18 17  1  0
 20 19  1  0
 21 20  2  0
 22 23  1  0
 22 21  1  0
 23 24  2  0
 24 20  1  0
 25 18  1  0
 26 25  2  0
 27 25  1  0
M  END
$$$$
