EPH.pdb
     RDKit          3D

 27 28  0  0  1  0  0  0  0  0999 V2000
   10.3516  -15.5566   15.2576 N   0  0  0  0  0  0  0  0  0  0  0  0
    9.3375  -15.1790   16.1741 C   0  0  1  0  0  0  0  0  0  0  0  0
    8.1402  -16.1430   16.1146 C   0  0  0  0  0  0  0  0  0  0  0  0
    8.5928  -17.5789   16.3003 C   0  0  0  0  0  0  0  0  0  0  0  0
    7.4471  -18.5008   16.3551 C   0  0  0  0  0  0  0  0  0  0  0  0
    6.5421  -18.5387   15.4773 O   0  0  0  0  0  0  0  0  0  0  0  0
    9.7195  -15.1097   17.5904 C   0  0  0  0  0  0  0  0  0  0  0  0
   10.8668  -15.6573   17.8450 O   0  0  0  0  0  0  0  0  0  0  0  0
    7.3508  -19.3772   17.4257 O   0  0  0  0  0  0  0  0  0  0  0  0
    8.9605  -14.5222   18.6070 N   0  0  0  0  0  0  0  0  0  0  0  0
    7.6093  -14.0377   18.3881 C   0  0  0  0  0  0  0  0  0  0  0  0
    7.4894  -12.8783   19.3342 C   0  0  0  0  0  0  0  0  0  0  0  0
    8.7410  -12.8550   20.1645 C   0  0  0  0  0  0  0  0  0  0  0  0
    9.2633  -14.2916   19.9700 C   0  0  1  0  0  0  0  0  0  0  0  0
    8.4935  -15.2555   20.8045 C   0  0  0  0  0  0  0  0  0  0  0  0
    7.4858  -15.8489   20.3473 O   0  0  0  0  0  0  0  0  0  0  0  0
    8.8502  -15.5560   22.1487 N   0  0  0  0  0  0  0  0  0  0  0  0
    9.8957  -16.5142   22.4910 C   0  0  1  0  0  0  0  0  0  0  0  0
   11.2140  -16.1292   21.9177 C   0  0  0  0  0  0  0  0  0  0  0  0
   12.2535  -17.0981   22.3008 C   0  0  0  0  0  0  0  0  0  0  0  0
   12.1008  -18.1370   23.2129 C   0  0  0  0  0  0  0  0  0  0  0  0
   13.2550  -18.8203   23.3168 N   0  0  0  0  0  0  0  0  0  0  0  0
   14.1269  -18.2329   22.4905 C   0  0  0  0  0  0  0  0  0  0  0  0
   13.5229  -17.2006   21.8829 N   0  0  0  0  0  0  0  0  0  0  0  0
    9.9943  -16.6113   23.9625 C   0  0  0  0  0  0  0  0  0  0  0  0
   10.0300  -15.5074   24.6109 O   0  0  0  0  0  0  0  0  0  0  0  0
   10.0480  -17.8004   24.6769 O   0  0  0  0  0  0  0  0  0  0  0  0
  2  1  1  6
  2  7  1  0
  3  2  1  0
  4  3  1  0
  5  6  2  0
  5  4  1  0
  7  8  2  0
  7 10  1  0
  9  5  1  0
 10 14  1  0
 10 11  1  0
 11 12  1  0
 13 12  1  0
 14 13  1  0
 14 15  1  1
 16 15  2  0
 17 15  1  0
 18 19  1  1
 18 17  1  0
 20 19  1  0
 21 20  2  0
 22 23  1  0
 22 21  1  0
 23 24  2  0
 24 20  1  0
 25 18  1  0
 26 25  2  0
 27 25  1  0
M  END
$$$$
