EPH.pdb
     RDKit          3D

 27 28  0  0  1  0  0  0  0  0999 V2000
    9.6830  -15.1938   14.4056 N   0  0  0  0  0  0  0  0  0  0  0  0
    8.9049  -15.2347   15.5905 C   0  0  1  0  0  0  0  0  0  0  0  0
    8.2027  -16.5936   15.7540 C   0  0  0  0  0  0  0  0  0  0  0  0
    7.4028  -16.9413   14.5128 C   0  0  0  0  0  0  0  0  0  0  0  0
    8.1128  -17.9182   13.6718 C   0  0  0  0  0  0  0  0  0  0  0  0
    8.7123  -18.9275   14.1333 O   0  0  0  0  0  0  0  0  0  0  0  0
    9.6141  -15.0013   16.8550 C   0  0  0  0  0  0  0  0  0  0  0  0
   10.8592  -15.3617   16.8250 O   0  0  0  0  0  0  0  0  0  0  0  0
    8.1277  -17.7253   12.2986 O   0  0  0  0  0  0  0  0  0  0  0  0
    9.0525  -14.4470   18.0092 N   0  0  0  0  0  0  0  0  0  0  0  0
    7.6355  -14.1500   18.1194 C   0  0  0  0  0  0  0  0  0  0  0  0
    7.5921  -12.9546   19.0265 C   0  0  0  0  0  0  0  0  0  0  0  0
    8.9928  -12.7209   19.5161 C   0  0  0  0  0  0  0  0  0  0  0  0
    9.6436  -14.0911   19.2447 C   0  0  1  0  0  0  0  0  0  0  0  0
    9.2398  -15.0860   20.2766 C   0  0  0  0  0  0  0  0  0  0  0  0
    8.1019  -15.0463   20.8060 O   0  0  0  0  0  0  0  0  0  0  0  0
   10.1072  -16.1247   20.7162 N   0  0  0  0  0  0  0  0  0  0  0  0
   11.3468  -15.8626   21.4396 C   0  0  1  0  0  0  0  0  0  0  0  0
   11.9406  -14.5490   21.0702 C   0  0  0  0  0  0  0  0  0  0  0  0
   13.2668  -14.7287   20.4578 C   0  0  0  0  0  0  0  0  0  0  0  0
   13.9127  -15.9442   20.2581 C   0  0  0  0  0  0  0  0  0  0  0  0
   15.1061  -15.7312   19.6747 N   0  0  0  0  0  0  0  0  0  0  0  0
   15.2221  -14.4099   19.5045 C   0  0  0  0  0  0  0  0  0  0  0  0
   14.1174  -13.8120   19.9753 N   0  0  0  0  0  0  0  0  0  0  0  0
   11.0726  -15.9022   22.8914 C   0  0  0  0  0  0  0  0  0  0  0  0
   11.4576  -16.9487   23.5212 O   0  0  0  0  0  0  0  0  0  0  0  0
   10.4372  -14.8959   23.6061 O   0  0  0  0  0  0  0  0  0  0  0  0
  2  1  1  6
  2  7  1  0
  3  2  1  0
  4  3  1  0
  5  6  2  0
  5  4  1  0
  7  8  2  0
  7 10  1  0
  9  5  1  0
 10 14  1  0
 10 11  1  0
 11 12  1  0
 13 12  1  0
 14 13  1  0
 14 15  1  1
 16 15  2  0
 17 15  1  0
 18 19  1  6
 18 17  1  0
 20 19  1  0
 21 20  2  0
 22 23  1  0
 22 21  1  0
 23 24  2  0
 24 20  1  0
 25 18  1  0
 26 25  2  0
 27 25  1  0
M  END
$$$$
