EPH.pdb
     RDKit          3D

 27 28  0  0  1  0  0  0  0  0999 V2000
    9.3117  -19.5023   19.7950 N   0  0  0  0  0  0  0  0  0  0  0  0
    9.7533  -18.1605   19.9202 C   0  0  1  0  0  0  0  0  0  0  0  0
   10.6835  -17.7654   18.7605 C   0  0  0  0  0  0  0  0  0  0  0  0
    9.8849  -17.4581   17.5079 C   0  0  0  0  0  0  0  0  0  0  0  0
   10.7138  -17.5814   16.2982 C   0  0  0  0  0  0  0  0  0  0  0  0
   11.9505  -17.8284   16.3246 O   0  0  0  0  0  0  0  0  0  0  0  0
    8.7137  -17.1242   19.9641 C   0  0  0  0  0  0  0  0  0  0  0  0
    8.0550  -17.0038   18.8539 O   0  0  0  0  0  0  0  0  0  0  0  0
   10.1101  -17.4186   15.0603 O   0  0  0  0  0  0  0  0  0  0  0  0
    8.4188  -16.3179   21.0675 N   0  0  0  0  0  0  0  0  0  0  0  0
    7.0585  -15.9622   21.4297 C   0  0  0  0  0  0  0  0  0  0  0  0
    7.1982  -14.5987   22.0420 C   0  0  0  0  0  0  0  0  0  0  0  0
    8.6686  -14.3066   22.1380 C   0  0  0  0  0  0  0  0  0  0  0  0
    9.2687  -15.7217   22.0292 C   0  0  1  0  0  0  0  0  0  0  0  0
    9.1319  -16.4584   23.3161 C   0  0  0  0  0  0  0  0  0  0  0  0
    8.0064  -16.8173   23.7417 O   0  0  0  0  0  0  0  0  0  0  0  0
   10.2521  -16.7940   24.1265 N   0  0  0  0  0  0  0  0  0  0  0  0
   10.4364  -16.2655   25.4739 C   0  0  1  0  0  0  0  0  0  0  0  0
    9.5182  -15.1291   25.7572 C   0  0  0  0  0  0  0  0  0  0  0  0
    9.6428  -14.6933   27.1574 C   0  0  0  0  0  0  0  0  0  0  0  0
   10.5350  -15.2065   28.0929 C   0  0  0  0  0  0  0  0  0  0  0  0
   10.3706  -14.5736   29.2686 N   0  0  0  0  0  0  0  0  0  0  0  0
    9.3959  -13.6756   29.0906 C   0  0  0  0  0  0  0  0  0  0  0  0
    8.9618  -13.7502   27.8235 N   0  0  0  0  0  0  0  0  0  0  0  0
   10.2112  -17.3519   26.4503 C   0  0  0  0  0  0  0  0  0  0  0  0
    9.1393  -18.0386   26.3098 O   0  0  0  0  0  0  0  0  0  0  0  0
   11.0712  -17.6731   27.4916 O   0  0  0  0  0  0  0  0  0  0  0  0
  2  1  1  6
  2  7  1  0
  3  2  1  0
  4  3  1  0
  5  6  2  0
  5  4  1  0
  7  8  2  0
  7 10  1  0
  9  5  1  0
 10 14  1  0
 10 11  1  0
 11 12  1  0
 13 12  1  0
 14 13  1  0
 14 15  1  1
 16 15  2  0
 17 15  1  0
 18 19  1  1
 18 17  1  0
 20 19  1  0
 21 20  2  0
 22 23  1  0
 22 21  1  0
 23 24  2  0
 24 20  1  0
 25 18  1  0
 26 25  2  0
 27 25  1  0
M  END
$$$$
