EPH.pdb
     RDKit          3D

 27 28  0  0  1  0  0  0  0  0999 V2000
    8.5609  -16.7427   15.6510 N   0  0  0  0  0  0  0  0  0  0  0  0
    7.9906  -16.1649   16.8138 C   0  0  1  0  0  0  0  0  0  0  0  0
    7.1338  -17.1840   17.5843 C   0  0  0  0  0  0  0  0  0  0  0  0
    7.5573  -18.6033   17.2566 C   0  0  0  0  0  0  0  0  0  0  0  0
    7.8374  -19.3760   18.4774 C   0  0  0  0  0  0  0  0  0  0  0  0
    6.9624  -19.6493   19.3438 O   0  0  0  0  0  0  0  0  0  0  0  0
    8.9244  -15.6070   17.8003 C   0  0  0  0  0  0  0  0  0  0  0  0
   10.1711  -15.7780   17.4882 O   0  0  0  0  0  0  0  0  0  0  0  0
    9.1296  -19.8310   18.6931 O   0  0  0  0  0  0  0  0  0  0  0  0
    8.5609  -14.9455   18.9772 N   0  0  0  0  0  0  0  0  0  0  0  0
    7.2076  -14.9793   19.5023 C   0  0  0  0  0  0  0  0  0  0  0  0
    7.0560  -13.6489   20.1810 C   0  0  0  0  0  0  0  0  0  0  0  0
    8.3988  -12.9768   20.1398 C   0  0  0  0  0  0  0  0  0  0  0  0
    9.3320  -14.1751   19.8796 C   0  0  1  0  0  0  0  0  0  0  0  0
    9.5465  -14.9631   21.1249 C   0  0  0  0  0  0  0  0  0  0  0  0
    8.6566  -15.7298   21.5689 O   0  0  0  0  0  0  0  0  0  0  0  0
   10.7547  -14.8945   21.8731 N   0  0  0  0  0  0  0  0  0  0  0  0
   10.8699  -15.4111   23.2327 C   0  0  1  0  0  0  0  0  0  0  0  0
    9.5999  -15.2638   23.9944 C   0  0  0  0  0  0  0  0  0  0  0  0
    9.6985  -15.9218   25.3071 C   0  0  0  0  0  0  0  0  0  0  0  0
   10.4369  -15.4640   26.3932 C   0  0  0  0  0  0  0  0  0  0  0  0
   10.2965  -16.3147   27.4259 N   0  0  0  0  0  0  0  0  0  0  0  0
    9.4868  -17.2948   27.0111 C   0  0  0  0  0  0  0  0  0  0  0  0
    9.1302  -17.0559   25.7402 N   0  0  0  0  0  0  0  0  0  0  0  0
   11.2605  -16.8353   23.1733 C   0  0  0  0  0  0  0  0  0  0  0  0
   10.6634  -17.5597   22.3021 O   0  0  0  0  0  0  0  0  0  0  0  0
   12.2172  -17.4297   23.9849 O   0  0  0  0  0  0  0  0  0  0  0  0
  2  1  1  6
  2  7  1  0
  3  2  1  0
  4  3  1  0
  5  6  2  0
  5  4  1  0
  7  8  2  0
  7 10  1  0
  9  5  1  0
 10 14  1  0
 10 11  1  0
 11 12  1  0
 13 12  1  0
 14 13  1  0
 14 15  1  1
 16 15  2  0
 17 15  1  0
 18 19  1  6
 18 17  1  0
 20 19  1  0
 21 20  2  0
 22 23  1  0
 22 21  1  0
 23 24  2  0
 24 20  1  0
 25 18  1  0
 26 25  2  0
 27 25  1  0
M  END
$$$$
