KPE.pdb
     RDKit          3D

 26 26  0  0  1  0  0  0  0  0999 V2000
    9.4347  -16.2643   15.8950 N   0  0  0  0  0  0  0  0  0  0  0  0
    8.5473  -16.1920   17.0047 C   0  0  1  0  0  0  0  0  0  0  0  0
    8.0149  -17.5699   17.4075 C   0  0  0  0  0  0  0  0  0  0  0  0
    6.8752  -17.9878   16.5119 C   0  0  0  0  0  0  0  0  0  0  0  0
    6.2396  -19.2817   16.9311 C   0  0  0  0  0  0  0  0  0  0  0  0
    5.1747  -19.7428   15.9615 C   0  0  0  0  0  0  0  0  0  0  0  0
    4.6637  -21.0084   16.4747 N   0  0  0  0  0  0  0  0  0  0  0  0
    9.0830  -15.5356   18.2149 C   0  0  0  0  0  0  0  0  0  0  0  0
   10.3274  -15.8132   18.4406 O   0  0  0  0  0  0  0  0  0  0  0  0
    8.3871  -14.6808   19.0933 N   0  0  0  0  0  0  0  0  0  0  0  0
    7.0516  -14.1759   18.9915 C   0  0  0  0  0  0  0  0  0  0  0  0
    7.2022  -12.7689   19.6001 C   0  0  0  0  0  0  0  0  0  0  0  0
    8.0762  -13.0462   20.7895 C   0  0  0  0  0  0  0  0  0  0  0  0
    8.9781  -14.1422   20.3226 C   0  0  1  0  0  0  0  0  0  0  0  0
    9.1921  -15.1877   21.3349 C   0  0  0  0  0  0  0  0  0  0  0  0
    8.3905  -16.1408   21.4765 O   0  0  0  0  0  0  0  0  0  0  0  0
   10.3256  -15.1317   22.1778 N   0  0  0  0  0  0  0  0  0  0  0  0
   10.5519  -16.1706   23.2032 C   0  0  1  0  0  0  0  0  0  0  0  0
   12.0082  -16.1149   23.5548 C   0  0  0  0  0  0  0  0  0  0  0  0
   12.9450  -16.4315   22.4457 C   0  0  0  0  0  0  0  0  0  0  0  0
   14.3599  -16.2443   22.8269 C   0  0  0  0  0  0  0  0  0  0  0  0
   14.7384  -15.8246   23.9435 O   0  0  0  0  0  0  0  0  0  0  0  0
    9.7466  -15.8104   24.3913 C   0  0  0  0  0  0  0  0  0  0  0  0
    9.5655  -16.7210   25.4132 O   0  0  0  0  0  0  0  0  0  0  0  0
   15.3724  -16.5443   21.9086 O   0  0  0  0  0  0  0  0  0  0  0  0
    9.2091  -14.6836   24.5099 O   0  0  0  0  0  0  0  0  0  0  0  0
  2  1  1  6
  2  8  1  0
  2  3  1  0
  4  3  1  0
  4  5  1  0
  5  6  1  0
  6  7  1  0
  8 10  1  0
  9  8  2  0
 10 14  1  0
 10 11  1  0
 12 11  1  0
 12 13  1  0
 14 15  1  1
 14 13  1  0
 15 16  2  0
 15 17  1  0
 17 18  1  0
 18 23  1  0
 18 19  1  1
 20 19  1  0
 20 21  1  0
 21 22  2  0
 21 25  1  0
 23 26  2  0
 23 24  1  0
M  END
$$$$
