KPE.pdb
     RDKit          3D

 26 26  0  0  1  0  0  0  0  0999 V2000
    9.1058  -13.4569   18.6661 N   0  0  0  0  0  0  0  0  0  0  0  0
    8.1334  -13.6514   19.6862 C   0  0  1  0  0  0  0  0  0  0  0  0
    7.1351  -14.7556   19.3277 C   0  0  0  0  0  0  0  0  0  0  0  0
    7.8488  -16.0564   19.0546 C   0  0  0  0  0  0  0  0  0  0  0  0
    6.9143  -17.1830   18.7209 C   0  0  0  0  0  0  0  0  0  0  0  0
    7.6471  -18.4706   18.4179 C   0  0  0  0  0  0  0  0  0  0  0  0
    6.6271  -19.4762   18.1450 N   0  0  0  0  0  0  0  0  0  0  0  0
    8.6645  -13.9336   21.0355 C   0  0  0  0  0  0  0  0  0  0  0  0
    9.8980  -14.3270   21.0292 O   0  0  0  0  0  0  0  0  0  0  0  0
    7.9746  -13.8162   22.2590 N   0  0  0  0  0  0  0  0  0  0  0  0
    6.6244  -13.4050   22.4975 C   0  0  0  0  0  0  0  0  0  0  0  0
    6.7584  -12.6531   23.8352 C   0  0  0  0  0  0  0  0  0  0  0  0
    7.6749  -13.5625   24.6023 C   0  0  0  0  0  0  0  0  0  0  0  0
    8.5892  -14.1136   23.5568 C   0  0  1  0  0  0  0  0  0  0  0  0
    8.8599  -15.5498   23.7220 C   0  0  0  0  0  0  0  0  0  0  0  0
    8.0779  -16.4225   23.2772 O   0  0  0  0  0  0  0  0  0  0  0  0
   10.0273  -15.9743   24.3969 N   0  0  0  0  0  0  0  0  0  0  0  0
   10.2995  -17.4125   24.5959 C   0  0  1  0  0  0  0  0  0  0  0  0
   11.5019  -17.7398   23.7625 C   0  0  0  0  0  0  0  0  0  0  0  0
   12.7279  -16.9617   24.0779 C   0  0  0  0  0  0  0  0  0  0  0  0
   13.8822  -17.3595   23.2462 C   0  0  0  0  0  0  0  0  0  0  0  0
   13.8554  -18.2805   22.3993 O   0  0  0  0  0  0  0  0  0  0  0  0
   10.6245  -17.6133   26.0255 C   0  0  0  0  0  0  0  0  0  0  0  0
   10.7304  -16.5304   26.8754 O   0  0  0  0  0  0  0  0  0  0  0  0
   15.1022  -16.6879   23.3842 O   0  0  0  0  0  0  0  0  0  0  0  0
   10.8122  -18.7557   26.5077 O   0  0  0  0  0  0  0  0  0  0  0  0
  2  1  1  6
  2  8  1  0
  2  3  1  0
  4  3  1  0
  4  5  1  0
  5  6  1  0
  6  7  1  0
  8 10  1  0
  9  8  2  0
 10 14  1  0
 10 11  1  0
 12 11  1  0
 12 13  1  0
 14 15  1  1
 14 13  1  0
 15 16  2  0
 15 17  1  0
 17 18  1  0
 18 23  1  0
 18 19  1  6
 20 19  1  0
 20 21  1  0
 21 22  2  0
 21 25  1  0
 23 26  2  0
 23 24  1  0
M  END
$$$$
