KPE.pdb
     RDKit          3D

 26 26  0  0  1  0  0  0  0  0999 V2000
    7.9805  -12.9315   20.4765 N   0  0  0  0  0  0  0  0  0  0  0  0
    7.2176  -13.3039   21.6182 C   0  0  1  0  0  0  0  0  0  0  0  0
    6.4416  -14.6045   21.3936 C   0  0  0  0  0  0  0  0  0  0  0  0
    7.3754  -15.7290   21.0202 C   0  0  0  0  0  0  0  0  0  0  0  0
    6.6577  -17.0018   20.6758 C   0  0  0  0  0  0  0  0  0  0  0  0
    7.6032  -18.0975   20.2373 C   0  0  0  0  0  0  0  0  0  0  0  0
    6.8467  -19.3433   20.2818 N   0  0  0  0  0  0  0  0  0  0  0  0
    7.9721  -13.4323   22.8818 C   0  0  0  0  0  0  0  0  0  0  0  0
    9.2249  -13.7078   22.7054 O   0  0  0  0  0  0  0  0  0  0  0  0
    7.4657  -13.2879   24.1892 N   0  0  0  0  0  0  0  0  0  0  0  0
    6.1363  -12.9663   24.6113 C   0  0  0  0  0  0  0  0  0  0  0  0
    6.4042  -12.1202   25.8703 C   0  0  0  0  0  0  0  0  0  0  0  0
    7.4996  -12.9045   26.5339 C   0  0  0  0  0  0  0  0  0  0  0  0
    8.2908  -13.4516   25.3904 C   0  0  1  0  0  0  0  0  0  0  0  0
    8.7050  -14.8490   25.5880 C   0  0  0  0  0  0  0  0  0  0  0  0
    7.9882  -15.8071   25.2147 O   0  0  0  0  0  0  0  0  0  0  0  0
    9.9399  -15.1368   26.2129 N   0  0  0  0  0  0  0  0  0  0  0  0
   10.5398  -16.4827   26.1079 C   0  0  1  0  0  0  0  0  0  0  0  0
   11.9235  -16.2932   25.5630 C   0  0  0  0  0  0  0  0  0  0  0  0
   12.7649  -17.5171   25.5184 C   0  0  0  0  0  0  0  0  0  0  0  0
   14.1091  -17.2618   24.9614 C   0  0  0  0  0  0  0  0  0  0  0  0
   14.4386  -16.2076   24.3731 O   0  0  0  0  0  0  0  0  0  0  0  0
   10.6238  -17.0436   27.4748 C   0  0  0  0  0  0  0  0  0  0  0  0
   10.3221  -16.2592   28.5702 O   0  0  0  0  0  0  0  0  0  0  0  0
   15.1063  -18.2367   25.0785 O   0  0  0  0  0  0  0  0  0  0  0  0
   10.9664  -18.2318   27.6828 O   0  0  0  0  0  0  0  0  0  0  0  0
  2  1  1  6
  2  8  1  0
  2  3  1  0
  4  3  1  0
  4  5  1  0
  5  6  1  0
  6  7  1  0
  8 10  1  0
  9  8  2  0
 10 14  1  0
 10 11  1  0
 12 11  1  0
 12 13  1  0
 14 15  1  1
 14 13  1  0
 15 16  2  0
 15 17  1  0
 17 18  1  0
 18 23  1  0
 18 19  1  1
 20 19  1  0
 20 21  1  0
 21 22  2  0
 21 25  1  0
 23 26  2  0
 23 24  1  0
M  END
$$$$
