KPE.pdb
     RDKit          3D

 26 26  0  0  1  0  0  0  0  0999 V2000
    8.1866  -17.5508   17.1799 N   0  0  0  0  0  0  0  0  0  0  0  0
    7.5860  -17.2507   18.4342 C   0  0  1  0  0  0  0  0  0  0  0  0
    7.0455  -18.5036   19.1287 C   0  0  0  0  0  0  0  0  0  0  0  0
    7.0115  -19.6730   18.1761 C   0  0  0  0  0  0  0  0  0  0  0  0
    6.6042  -20.9588   18.8352 C   0  0  0  0  0  0  0  0  0  0  0  0
    6.5017  -22.1040   17.8530 C   0  0  0  0  0  0  0  0  0  0  0  0
    6.1321  -23.2840   18.6257 N   0  0  0  0  0  0  0  0  0  0  0  0
    8.4378  -16.5236   19.3976 C   0  0  0  0  0  0  0  0  0  0  0  0
    9.6991  -16.7850   19.2661 O   0  0  0  0  0  0  0  0  0  0  0  0
    8.0113  -15.6205   20.3921 N   0  0  0  0  0  0  0  0  0  0  0  0
    6.6807  -15.2220   20.7380 C   0  0  0  0  0  0  0  0  0  0  0  0
    6.8880  -13.7463   21.1284 C   0  0  0  0  0  0  0  0  0  0  0  0
    8.1495  -13.8229   21.9396 C   0  0  0  0  0  0  0  0  0  0  0  0
    8.9382  -14.9030   21.2733 C   0  0  1  0  0  0  0  0  0  0  0  0
    9.6041  -15.8057   22.2247 C   0  0  0  0  0  0  0  0  0  0  0  0
    9.0714  -16.8768   22.5989 O   0  0  0  0  0  0  0  0  0  0  0  0
   10.8776  -15.4724   22.7397 N   0  0  0  0  0  0  0  0  0  0  0  0
   11.6649  -16.4654   23.4988 C   0  0  1  0  0  0  0  0  0  0  0  0
   13.1073  -16.1028   23.3101 C   0  0  0  0  0  0  0  0  0  0  0  0
   14.0784  -16.9326   24.0693 C   0  0  0  0  0  0  0  0  0  0  0  0
   15.4780  -16.5169   23.8442 C   0  0  0  0  0  0  0  0  0  0  0  0
   15.8231  -15.5976   23.0683 O   0  0  0  0  0  0  0  0  0  0  0  0
   11.3067  -16.3237   24.9276 C   0  0  0  0  0  0  0  0  0  0  0  0
   11.6112  -17.3272   25.8257 O   0  0  0  0  0  0  0  0  0  0  0  0
   16.5139  -17.1682   24.5233 O   0  0  0  0  0  0  0  0  0  0  0  0
   10.7234  -15.3038   25.3659 O   0  0  0  0  0  0  0  0  0  0  0  0
  2  1  1  6
  2  8  1  0
  2  3  1  0
  4  3  1  0
  4  5  1  0
  5  6  1  0
  6  7  1  0
  8 10  1  0
  9  8  2  0
 10 14  1  0
 10 11  1  0
 12 11  1  0
 12 13  1  0
 14 15  1  1
 14 13  1  0
 15 16  2  0
 15 17  1  0
 17 18  1  0
 18 23  1  0
 18 19  1  1
 20 19  1  0
 20 21  1  0
 21 22  2  0
 21 25  1  0
 23 26  2  0
 23 24  1  0
M  END
$$$$
