KPE.pdb
     RDKit          3D

 26 26  0  0  1  0  0  0  0  0999 V2000
    8.5609  -14.0774   18.7230 N   0  0  0  0  0  0  0  0  0  0  0  0
    7.8545  -14.8186   19.7108 C   0  0  1  0  0  0  0  0  0  0  0  0
    7.5110  -16.2325   19.2342 C   0  0  0  0  0  0  0  0  0  0  0  0
    6.8820  -17.0356   20.3457 C   0  0  0  0  0  0  0  0  0  0  0  0
    6.5336  -18.4372   19.9362 C   0  0  0  0  0  0  0  0  0  0  0  0
    5.7644  -19.1775   21.0072 C   0  0  0  0  0  0  0  0  0  0  0  0
    5.5664  -20.5356   20.5147 N   0  0  0  0  0  0  0  0  0  0  0  0
    8.5145  -14.9263   21.0281 C   0  0  0  0  0  0  0  0  0  0  0  0
    9.7530  -15.2964   20.9525 O   0  0  0  0  0  0  0  0  0  0  0  0
    7.9363  -14.6735   22.2884 N   0  0  0  0  0  0  0  0  0  0  0  0
    6.5643  -14.4362   22.6203 C   0  0  0  0  0  0  0  0  0  0  0  0
    6.6923  -13.4195   23.7705 C   0  0  0  0  0  0  0  0  0  0  0  0
    7.8246  -14.0038   24.5654 C   0  0  0  0  0  0  0  0  0  0  0  0
    8.7163  -14.6058   23.5285 C   0  0  1  0  0  0  0  0  0  0  0  0
    9.2506  -15.9204   23.9156 C   0  0  0  0  0  0  0  0  0  0  0  0
    8.6408  -16.9829   23.6504 O   0  0  0  0  0  0  0  0  0  0  0  0
   10.4820  -16.0059   24.6047 N   0  0  0  0  0  0  0  0  0  0  0  0
   11.0562  -17.3204   24.9574 C   0  0  1  0  0  0  0  0  0  0  0  0
   12.5171  -17.2516   24.6279 C   0  0  0  0  0  0  0  0  0  0  0  0
   13.2897  -18.4933   24.8908 C   0  0  0  0  0  0  0  0  0  0  0  0
   14.7212  -18.3531   24.5541 C   0  0  0  0  0  0  0  0  0  0  0  0
   15.6368  -18.2511   25.4011 O   0  0  0  0  0  0  0  0  0  0  0  0
   10.8909  -17.5046   26.4164 C   0  0  0  0  0  0  0  0  0  0  0  0
   11.1355  -18.7335   26.9962 O   0  0  0  0  0  0  0  0  0  0  0  0
   15.1203  -18.3286   23.2129 O   0  0  0  0  0  0  0  0  0  0  0  0
   10.5288  -16.5662   27.1653 O   0  0  0  0  0  0  0  0  0  0  0  0
  2  1  1  6
  2  8  1  0
  2  3  1  0
  4  3  1  0
  4  5  1  0
  5  6  1  0
  6  7  1  0
  8 10  1  0
  9  8  2  0
 10 14  1  0
 10 11  1  0
 12 11  1  0
 12 13  1  0
 14 15  1  1
 14 13  1  0
 15 16  2  0
 15 17  1  0
 17 18  1  0
 18 23  1  0
 18 19  1  1
 20 19  1  0
 20 21  1  0
 21 22  2  0
 21 25  1  0
 23 26  2  0
 23 24  1  0
M  END
$$$$
