KPE.pdb
     RDKit          3D

 26 26  0  0  1  0  0  0  0  0999 V2000
    9.2713  -15.8821   15.1505 N   0  0  0  0  0  0  0  0  0  0  0  0
    8.4692  -15.5650   16.2820 C   0  0  1  0  0  0  0  0  0  0  0  0
    7.5675  -16.7317   16.6943 C   0  0  0  0  0  0  0  0  0  0  0  0
    8.3816  -17.9768   16.9452 C   0  0  0  0  0  0  0  0  0  0  0  0
    7.5399  -19.1755   17.2740 C   0  0  0  0  0  0  0  0  0  0  0  0
    8.3662  -20.4284   17.4585 C   0  0  0  0  0  0  0  0  0  0  0  0
    7.4451  -21.4767   17.8812 N   0  0  0  0  0  0  0  0  0  0  0  0
    9.2008  -15.1051   17.4802 C   0  0  0  0  0  0  0  0  0  0  0  0
   10.4502  -15.4449   17.4802 O   0  0  0  0  0  0  0  0  0  0  0  0
    8.6768  -14.3687   18.5617 N   0  0  0  0  0  0  0  0  0  0  0  0
    7.3184  -14.0098   18.8349 C   0  0  0  0  0  0  0  0  0  0  0  0
    7.4856  -12.6209   19.4797 C   0  0  0  0  0  0  0  0  0  0  0  0
    8.6595  -12.8490   20.3882 C   0  0  0  0  0  0  0  0  0  0  0  0
    9.5109  -13.8193   19.6356 C   0  0  1  0  0  0  0  0  0  0  0  0
   10.0780  -14.8755   20.4878 C   0  0  0  0  0  0  0  0  0  0  0  0
    9.5018  -15.9781   20.6409 O   0  0  0  0  0  0  0  0  0  0  0  0
   11.3034  -14.6585   21.1583 N   0  0  0  0  0  0  0  0  0  0  0  0
   11.9306  -15.7391   21.9464 C   0  0  1  0  0  0  0  0  0  0  0  0
   13.3577  -15.3355   22.1661 C   0  0  0  0  0  0  0  0  0  0  0  0
   14.1605  -16.2617   23.0061 C   0  0  0  0  0  0  0  0  0  0  0  0
   15.5808  -15.8642   23.0910 C   0  0  0  0  0  0  0  0  0  0  0  0
   16.0637  -14.8546   22.5310 O   0  0  0  0  0  0  0  0  0  0  0  0
   11.2336  -15.8054   23.2501 C   0  0  0  0  0  0  0  0  0  0  0  0
   10.4758  -14.7387   23.6907 O   0  0  0  0  0  0  0  0  0  0  0  0
   16.4761  -16.6401   23.8358 O   0  0  0  0  0  0  0  0  0  0  0  0
   11.3055  -16.8163   23.9886 O   0  0  0  0  0  0  0  0  0  0  0  0
  2  1  1  6
  2  8  1  0
  2  3  1  0
  4  3  1  0
  4  5  1  0
  5  6  1  0
  6  7  1  0
  8 10  1  0
  9  8  2  0
 10 14  1  0
 10 11  1  0
 12 11  1  0
 12 13  1  0
 14 15  1  1
 14 13  1  0
 15 16  2  0
 15 17  1  0
 17 18  1  0
 18 23  1  0
 18 19  1  1
 20 19  1  0
 20 21  1  0
 21 22  2  0
 21 25  1  0
 23 26  2  0
 23 24  1  0
M  END
$$$$
