KPE.pdb
     RDKit          3D

 26 26  0  0  1  0  0  0  0  0999 V2000
    9.3854  -14.4742   15.7697 N   0  0  0  0  0  0  0  0  0  0  0  0
    8.5371  -14.8258   16.8564 C   0  0  1  0  0  0  0  0  0  0  0  0
    8.0519  -16.2750   16.7632 C   0  0  0  0  0  0  0  0  0  0  0  0
    9.1826  -17.1959   16.3767 C   0  0  0  0  0  0  0  0  0  0  0  0
    8.7868  -18.6439   16.3668 C   0  0  0  0  0  0  0  0  0  0  0  0
    9.9200  -19.5495   15.9398 C   0  0  0  0  0  0  0  0  0  0  0  0
    9.4082  -20.9136   15.9987 N   0  0  0  0  0  0  0  0  0  0  0  0
    9.1007  -14.6167   18.2059 C   0  0  0  0  0  0  0  0  0  0  0  0
   10.3925  -14.6987   18.2405 O   0  0  0  0  0  0  0  0  0  0  0  0
    8.3852  -14.3510   19.3908 N   0  0  0  0  0  0  0  0  0  0  0  0
    6.9700  -14.2855   19.5946 C   0  0  0  0  0  0  0  0  0  0  0  0
    6.8581  -13.1745   20.6557 C   0  0  0  0  0  0  0  0  0  0  0  0
    7.9846  -13.5286   21.5837 C   0  0  0  0  0  0  0  0  0  0  0  0
    9.0370  -14.0770   20.6756 C   0  0  1  0  0  0  0  0  0  0  0  0
    9.7076  -15.2683   21.2183 C   0  0  0  0  0  0  0  0  0  0  0  0
    9.3364  -16.4270   20.9176 O   0  0  0  0  0  0  0  0  0  0  0  0
   10.8005  -15.1207   22.1028 N   0  0  0  0  0  0  0  0  0  0  0  0
   11.5464  -16.3032   22.5797 C   0  0  1  0  0  0  0  0  0  0  0  0
   12.9926  -15.9101   22.6180 C   0  0  0  0  0  0  0  0  0  0  0  0
   13.9076  -16.9036   23.2375 C   0  0  0  0  0  0  0  0  0  0  0  0
   15.3148  -16.4539   23.2417 C   0  0  0  0  0  0  0  0  0  0  0  0
   15.7257  -15.4223   22.6644 O   0  0  0  0  0  0  0  0  0  0  0  0
   11.0829  -16.6012   23.9532 C   0  0  0  0  0  0  0  0  0  0  0  0
   11.3615  -17.8227   24.5335 O   0  0  0  0  0  0  0  0  0  0  0  0
   16.2812  -17.2018   23.9236 O   0  0  0  0  0  0  0  0  0  0  0  0
   10.4314  -15.7684   24.6274 O   0  0  0  0  0  0  0  0  0  0  0  0
  2  1  1  6
  2  8  1  0
  2  3  1  0
  4  3  1  0
  4  5  1  0
  5  6  1  0
  6  7  1  0
  8 10  1  0
  9  8  2  0
 10 14  1  0
 10 11  1  0
 12 11  1  0
 12 13  1  0
 14 15  1  1
 14 13  1  0
 15 16  2  0
 15 17  1  0
 17 18  1  0
 18 23  1  0
 18 19  1  1
 20 19  1  0
 20 21  1  0
 21 22  2  0
 21 25  1  0
 23 26  2  0
 23 24  1  0
M  END
$$$$
