WKH.pdb
     RDKit          3D

 34 36  0  0  1  0  0  0  0  0999 V2000
   25.7570  -33.6011   -9.1226 N   0  0  0  0  0  0  0  0  0  0  0  0
   26.5349  -33.0436   -8.0451 C   0  0  1  0  0  0  0  0  0  0  0  0
   25.9578  -31.7304   -7.6346 C   0  0  0  0  0  0  0  0  0  0  0  0
   24.4841  -31.8428   -7.5760 C   0  0  0  0  0  0  0  0  0  0  0  0
   23.6185  -31.8259   -8.6698 C   0  0  0  0  0  0  0  0  0  0  0  0
   22.3603  -31.9855   -8.2507 N   0  0  0  0  0  0  0  0  0  0  0  0
   22.3491  -32.1080   -6.9191 C   0  0  0  0  0  0  0  0  0  0  0  0
   21.3225  -32.2821   -6.0125 C   0  0  0  0  0  0  0  0  0  0  0  0
   21.5450  -32.3753   -4.6537 C   0  0  0  0  0  0  0  0  0  0  0  0
   22.8550  -32.2862   -4.2265 C   0  0  0  0  0  0  0  0  0  0  0  0
   23.8914  -32.1120   -5.1274 C   0  0  0  0  0  0  0  0  0  0  0  0
   23.6598  -32.0211   -6.4837 C   0  0  0  0  0  0  0  0  0  0  0  0
   26.6080  -34.0212   -6.9398 C   0  0  0  0  0  0  0  0  0  0  0  0
   25.6912  -34.8686   -6.8307 O   0  0  0  0  0  0  0  0  0  0  0  0
   27.6536  -34.0664   -5.9858 N   0  0  0  0  0  0  0  0  0  0  0  0
   27.6167  -35.0003   -4.8856 C   0  0  1  0  0  0  0  0  0  0  0  0
   28.9414  -35.6771   -4.6607 C   0  0  0  0  0  0  0  0  0  0  0  0
   29.8205  -35.6950   -5.8754 C   0  0  0  0  0  0  0  0  0  0  0  0
   31.1081  -36.4243   -5.6904 C   0  0  0  0  0  0  0  0  0  0  0  0
   32.0218  -35.5252   -4.8642 C   0  0  0  0  0  0  0  0  0  0  0  0
   33.3882  -35.5911   -5.3225 N   0  0  0  0  0  0  0  0  0  0  0  0
   27.3157  -34.2338   -3.6228 C   0  0  0  0  0  0  0  0  0  0  0  0
   27.3437  -32.9778   -3.7290 O   0  0  0  0  0  0  0  0  0  0  0  0
   27.0226  -34.8933   -2.4057 N   0  0  0  0  0  0  0  0  0  0  0  0
   26.6929  -34.1261   -1.2301 C   0  0  1  0  0  0  0  0  0  0  0  0
   25.4266  -33.3314   -1.5467 C   0  0  0  0  0  0  0  0  0  0  0  0
   24.9652  -32.5884   -0.3565 C   0  0  0  0  0  0  0  0  0  0  0  0
   25.7454  -32.3135    0.7699 C   0  0  0  0  0  0  0  0  0  0  0  0
   24.9393  -31.6238    1.6019 N   0  0  0  0  0  0  0  0  0  0  0  0
   23.7287  -31.4676    1.0485 C   0  0  0  0  0  0  0  0  0  0  0  0
   23.7478  -32.0591   -0.1500 N   0  0  0  0  0  0  0  0  0  0  0  0
   26.4722  -35.0188   -0.0663 C   0  0  0  0  0  0  0  0  0  0  0  0
   25.7244  -36.2018   -0.1466 O   0  0  0  0  0  0  0  0  0  0  0  0
   26.9544  -34.7468    1.0574 O   0  0  0  0  0  0  0  0  0  0  0  0
  2  1  1  6
  2 13  1  0
  2  3  1  0
  3  4  1  0
  4  5  2  0
  6  5  1  0
  7  6  1  0
  8  7  2  0
  9  8  1  0
 10  9  2  0
 10 11  1  0
 11 12  2  0
 12  7  1  0
 12  4  1  0
 13 14  2  0
 15 13  1  0
 16 22  1  0
 16 15  1  0
 16 17  1  1
 18 17  1  0
 19 18  1  0
 20 19  1  0
 21 20  1  0
 22 23  2  0
 24 25  1  0
 24 22  1  0
 25 32  1  0
 25 26  1  6
 27 26  1  0
 27 28  2  0
 29 28  1  0
 30 31  2  0
 30 29  1  0
 31 27  1  0
 32 34  2  0
 32 33  1  0
M  END
$$$$
