WKH.pdb
     RDKit          3D

 34 36  0  0  1  0  0  0  0  0999 V2000
   24.8212  -15.7812  -20.6797 N   0  0  0  0  0  0  0  0  0  0  0  0
   23.9631  -15.8559  -19.5242 C   0  0  1  0  0  0  0  0  0  0  0  0
   22.5707  -15.4798  -19.9061 C   0  0  0  0  0  0  0  0  0  0  0  0
   22.5028  -14.0183  -20.1233 C   0  0  0  0  0  0  0  0  0  0  0  0
   23.1695  -13.3080  -21.1218 C   0  0  0  0  0  0  0  0  0  0  0  0
   22.8503  -12.0134  -21.0429 N   0  0  0  0  0  0  0  0  0  0  0  0
   21.9966  -11.8285  -20.0305 C   0  0  0  0  0  0  0  0  0  0  0  0
   21.3805  -10.6981  -19.5315 C   0  0  0  0  0  0  0  0  0  0  0  0
   20.5263  -10.7397  -18.4484 C   0  0  0  0  0  0  0  0  0  0  0  0
   20.3066  -11.9748  -17.8716 C   0  0  0  0  0  0  0  0  0  0  0  0
   20.9191  -13.1140  -18.3645 C   0  0  0  0  0  0  0  0  0  0  0  0
   21.7704  -13.0634  -19.4481 C   0  0  0  0  0  0  0  0  0  0  0  0
   24.0621  -17.2047  -18.9296 C   0  0  0  0  0  0  0  0  0  0  0  0
   23.8507  -18.1979  -19.6642 O   0  0  0  0  0  0  0  0  0  0  0  0
   24.3826  -17.4544  -17.5730 N   0  0  0  0  0  0  0  0  0  0  0  0
   24.4586  -18.8026  -17.0627 C   0  0  1  0  0  0  0  0  0  0  0  0
   25.7584  -19.0783  -16.3570 C   0  0  0  0  0  0  0  0  0  0  0  0
   25.8275  -20.4417  -15.7364 C   0  0  0  0  0  0  0  0  0  0  0  0
   27.1008  -20.7227  -15.0127 C   0  0  0  0  0  0  0  0  0  0  0  0
   27.8411  -21.7975  -15.8017 C   0  0  0  0  0  0  0  0  0  0  0  0
   29.1139  -22.1154  -15.2017 N   0  0  0  0  0  0  0  0  0  0  0  0
   23.3735  -18.9812  -16.0315 C   0  0  0  0  0  0  0  0  0  0  0  0
   23.3573  -18.1262  -15.1051 O   0  0  0  0  0  0  0  0  0  0  0  0
   22.4413  -20.0428  -16.1105 N   0  0  0  0  0  0  0  0  0  0  0  0
   21.3876  -20.1526  -15.1322 C   0  0  1  0  0  0  0  0  0  0  0  0
   20.1108  -20.5332  -15.8806 C   0  0  0  0  0  0  0  0  0  0  0  0
   19.0109  -20.8039  -14.9327 C   0  0  0  0  0  0  0  0  0  0  0  0
   19.1294  -20.7864  -13.5403 C   0  0  0  0  0  0  0  0  0  0  0  0
   17.8998  -21.0844  -13.0744 N   0  0  0  0  0  0  0  0  0  0  0  0
   17.0534  -21.2790  -14.0951 C   0  0  0  0  0  0  0  0  0  0  0  0
   17.7365  -21.1066  -15.2310 N   0  0  0  0  0  0  0  0  0  0  0  0
   21.7220  -21.1782  -14.1142 C   0  0  0  0  0  0  0  0  0  0  0  0
   21.1937  -21.1611  -12.8158 O   0  0  0  0  0  0  0  0  0  0  0  0
   22.5050  -22.1197  -14.3782 O   0  0  0  0  0  0  0  0  0  0  0  0
  2  1  1  6
  2 13  1  0
  2  3  1  0
  3  4  1  0
  4  5  2  0
  6  5  1  0
  7  6  1  0
  8  7  2  0
  9  8  1  0
 10  9  2  0
 10 11  1  0
 11 12  2  0
 12  7  1  0
 12  4  1  0
 13 14  2  0
 15 13  1  0
 16 22  1  0
 16 15  1  0
 16 17  1  1
 18 17  1  0
 19 18  1  0
 20 19  1  0
 21 20  1  0
 22 23  2  0
 24 25  1  0
 24 22  1  0
 25 32  1  0
 25 26  1  6
 27 26  1  0
 27 28  2  0
 29 28  1  0
 30 31  2  0
 30 29  1  0
 31 27  1  0
 32 34  2  0
 32 33  1  0
M  END
$$$$
