WKH.pdb
     RDKit          3D

 34 36  0  0  1  0  0  0  0  0999 V2000
   23.4081  -16.6294  -19.7976 N   0  0  0  0  0  0  0  0  0  0  0  0
   23.2015  -17.9605  -19.2851 C   0  0  1  0  0  0  0  0  0  0  0  0
   24.5193  -18.6087  -19.0219 C   0  0  0  0  0  0  0  0  0  0  0  0
   25.2259  -18.8147  -20.3050 C   0  0  0  0  0  0  0  0  0  0  0  0
   24.8518  -19.7060  -21.3107 C   0  0  0  0  0  0  0  0  0  0  0  0
   25.6959  -19.6026  -22.3407 N   0  0  0  0  0  0  0  0  0  0  0  0
   26.6211  -18.6775  -22.0641 C   0  0  0  0  0  0  0  0  0  0  0  0
   27.7036  -18.2058  -22.7794 C   0  0  0  0  0  0  0  0  0  0  0  0
   28.5489  -17.2337  -22.2846 C   0  0  0  0  0  0  0  0  0  0  0  0
   28.2676  -16.7415  -21.0255 C   0  0  0  0  0  0  0  0  0  0  0  0
   27.1846  -17.2076  -20.3004 C   0  0  0  0  0  0  0  0  0  0  0  0
   26.3444  -18.1784  -20.8034 C   0  0  0  0  0  0  0  0  0  0  0  0
   22.3339  -17.8940  -18.0911 C   0  0  0  0  0  0  0  0  0  0  0  0
   22.6341  -17.0884  -17.1792 O   0  0  0  0  0  0  0  0  0  0  0  0
   21.1751  -18.6863  -17.9049 N   0  0  0  0  0  0  0  0  0  0  0  0
   20.3180  -18.4928  -16.7595 C   0  0  1  0  0  0  0  0  0  0  0  0
   18.8824  -18.8360  -17.0506 C   0  0  0  0  0  0  0  0  0  0  0  0
   17.9690  -18.6435  -15.8770 C   0  0  0  0  0  0  0  0  0  0  0  0
   16.5584  -19.0611  -16.1222 C   0  0  0  0  0  0  0  0  0  0  0  0
   15.7550  -18.6896  -14.8803 C   0  0  0  0  0  0  0  0  0  0  0  0
   14.3559  -19.0036  -15.0389 N   0  0  0  0  0  0  0  0  0  0  0  0
   20.7633  -19.4344  -15.6695 C   0  0  0  0  0  0  0  0  0  0  0  0
   21.0691  -20.5978  -16.0470 O   0  0  0  0  0  0  0  0  0  0  0  0
   20.8292  -19.0260  -14.3164 N   0  0  0  0  0  0  0  0  0  0  0  0
   21.4151  -19.8964  -13.3273 C   0  0  1  0  0  0  0  0  0  0  0  0
   21.9399  -19.0116  -12.1973 C   0  0  0  0  0  0  0  0  0  0  0  0
   22.5315  -19.8336  -11.1222 C   0  0  0  0  0  0  0  0  0  0  0  0
   22.6154  -21.2287  -11.1329 C   0  0  0  0  0  0  0  0  0  0  0  0
   23.2181  -21.5582   -9.9728 N   0  0  0  0  0  0  0  0  0  0  0  0
   23.5005  -20.4535   -9.2685 C   0  0  0  0  0  0  0  0  0  0  0  0
   23.0790  -19.3997   -9.9747 N   0  0  0  0  0  0  0  0  0  0  0  0
   20.4096  -20.8583  -12.8137 C   0  0  0  0  0  0  0  0  0  0  0  0
   20.7137  -22.1972  -12.5305 O   0  0  0  0  0  0  0  0  0  0  0  0
   19.2250  -20.5068  -12.6079 O   0  0  0  0  0  0  0  0  0  0  0  0
  2  1  1  1
  2 13  1  0
  2  3  1  0
  3  4  1  0
  4  5  2  0
  6  5  1  0
  7  6  1  0
  8  7  2  0
  9  8  1  0
 10  9  2  0
 10 11  1  0
 11 12  2  0
 12  7  1  0
 12  4  1  0
 13 14  2  0
 15 13  1  0
 16 22  1  0
 16 15  1  0
 16 17  1  6
 18 17  1  0
 19 18  1  0
 20 19  1  0
 21 20  1  0
 22 23  2  0
 24 25  1  0
 24 22  1  0
 25 32  1  0
 25 26  1  1
 27 26  1  0
 27 28  2  0
 29 28  1  0
 30 31  2  0
 30 29  1  0
 31 27  1  0
 32 34  2  0
 32 33  1  0
M  END
$$$$
