WKH.pdb
     RDKit          3D

 34 36  0  0  1  0  0  0  0  0999 V2000
   28.3920  -22.2377  -16.4332 N   0  0  0  0  0  0  0  0  0  0  0  0
   27.6713  -21.0961  -15.9287 C   0  0  1  0  0  0  0  0  0  0  0  0
   26.9356  -20.4322  -17.0439 C   0  0  0  0  0  0  0  0  0  0  0  0
   27.5461  -19.1120  -17.3127 C   0  0  0  0  0  0  0  0  0  0  0  0
   28.3560  -18.7921  -18.4025 C   0  0  0  0  0  0  0  0  0  0  0  0
   28.7004  -17.5028  -18.3444 N   0  0  0  0  0  0  0  0  0  0  0  0
   28.1534  -16.9467  -17.2582 C   0  0  0  0  0  0  0  0  0  0  0  0
   28.2066  -15.6659  -16.7455 C   0  0  0  0  0  0  0  0  0  0  0  0
   27.5596  -15.3096  -15.5798 C   0  0  0  0  0  0  0  0  0  0  0  0
   26.8447  -16.2984  -14.9334 C   0  0  0  0  0  0  0  0  0  0  0  0
   26.7849  -17.5854  -15.4393 C   0  0  0  0  0  0  0  0  0  0  0  0
   27.4337  -17.9323  -16.6056 C   0  0  0  0  0  0  0  0  0  0  0  0
   26.7918  -21.5250  -14.8218 C   0  0  0  0  0  0  0  0  0  0  0  0
   26.0195  -22.4931  -15.0138 O   0  0  0  0  0  0  0  0  0  0  0  0
   26.7617  -20.9108  -13.5461 N   0  0  0  0  0  0  0  0  0  0  0  0
   25.7116  -21.2093  -12.6016 C   0  0  1  0  0  0  0  0  0  0  0  0
   25.9979  -20.6602  -11.2304 C   0  0  0  0  0  0  0  0  0  0  0  0
   24.9752  -21.0453  -10.2036 C   0  0  0  0  0  0  0  0  0  0  0  0
   25.1758  -20.4100   -8.8693 C   0  0  0  0  0  0  0  0  0  0  0  0
   24.1311  -20.9988   -7.9271 C   0  0  0  0  0  0  0  0  0  0  0  0
   22.8013  -20.5499   -8.2609 N   0  0  0  0  0  0  0  0  0  0  0  0
   24.4470  -20.5350  -13.0696 C   0  0  0  0  0  0  0  0  0  0  0  0
   24.6035  -19.6083  -13.9098 O   0  0  0  0  0  0  0  0  0  0  0  0
   23.1750  -20.9268  -12.5892 N   0  0  0  0  0  0  0  0  0  0  0  0
   22.0572  -21.0162  -13.4957 C   0  0  1  0  0  0  0  0  0  0  0  0
   22.4079  -22.0684  -14.5469 C   0  0  0  0  0  0  0  0  0  0  0  0
   21.3386  -22.1705  -15.5607 C   0  0  0  0  0  0  0  0  0  0  0  0
   20.1264  -21.4760  -15.5208 C   0  0  0  0  0  0  0  0  0  0  0  0
   19.4584  -21.8616  -16.6266 N   0  0  0  0  0  0  0  0  0  0  0  0
   20.1900  -22.7404  -17.3256 C   0  0  0  0  0  0  0  0  0  0  0  0
   21.3400  -22.9273  -16.6706 N   0  0  0  0  0  0  0  0  0  0  0  0
   20.8214  -21.3957  -12.7686 C   0  0  0  0  0  0  0  0  0  0  0  0
   20.8151  -22.3097  -11.7055 O   0  0  0  0  0  0  0  0  0  0  0  0
   19.7116  -20.9056  -13.0805 O   0  0  0  0  0  0  0  0  0  0  0  0
  2  1  1  6
  2 13  1  0
  2  3  1  0
  3  4  1  0
  4  5  2  0
  6  5  1  0
  7  6  1  0
  8  7  2  0
  9  8  1  0
 10  9  2  0
 10 11  1  0
 11 12  2  0
 12  7  1  0
 12  4  1  0
 13 14  2  0
 15 13  1  0
 16 22  1  0
 16 15  1  0
 16 17  1  1
 18 17  1  0
 19 18  1  0
 20 19  1  0
 21 20  1  0
 22 23  2  0
 24 25  1  0
 24 22  1  0
 25 32  1  0
 25 26  1  6
 27 26  1  0
 27 28  2  0
 29 28  1  0
 30 31  2  0
 30 29  1  0
 31 27  1  0
 32 34  2  0
 32 33  1  0
M  END
$$$$
