WKH.pdb
     RDKit          3D

 34 36  0  0  1  0  0  0  0  0999 V2000
   28.0422  -21.2833  -13.8722 N   0  0  0  0  0  0  0  0  0  0  0  0
   26.8567  -21.6710  -13.1503 C   0  0  1  0  0  0  0  0  0  0  0  0
   26.5936  -20.6947  -12.0532 C   0  0  0  0  0  0  0  0  0  0  0  0
   27.6567  -20.8118  -11.0314 C   0  0  0  0  0  0  0  0  0  0  0  0
   29.0301  -20.8006  -11.2751 C   0  0  0  0  0  0  0  0  0  0  0  0
   29.6932  -20.8910  -10.1192 N   0  0  0  0  0  0  0  0  0  0  0  0
   28.8180  -20.9629   -9.1108 C   0  0  0  0  0  0  0  0  0  0  0  0
   28.9841  -21.0744   -7.7447 C   0  0  0  0  0  0  0  0  0  0  0  0
   27.9157  -21.1441   -6.8740 C   0  0  0  0  0  0  0  0  0  0  0  0
   26.6521  -21.0978   -7.4288 C   0  0  0  0  0  0  0  0  0  0  0  0
   26.4749  -20.9859   -8.7970 C   0  0  0  0  0  0  0  0  0  0  0  0
   27.5484  -20.9156   -9.6596 C   0  0  0  0  0  0  0  0  0  0  0  0
   25.7305  -21.8036  -14.0973 C   0  0  0  0  0  0  0  0  0  0  0  0
   25.6169  -20.9547  -15.0123 O   0  0  0  0  0  0  0  0  0  0  0  0
   24.7611  -22.8344  -14.0411 N   0  0  0  0  0  0  0  0  0  0  0  0
   23.7146  -22.9259  -15.0313 C   0  0  1  0  0  0  0  0  0  0  0  0
   23.7773  -24.2069  -15.8179 C   0  0  0  0  0  0  0  0  0  0  0  0
   22.7601  -24.2873  -16.9167 C   0  0  0  0  0  0  0  0  0  0  0  0
   22.8319  -25.5358  -17.7293 C   0  0  0  0  0  0  0  0  0  0  0  0
   21.8105  -25.4021  -18.8539 C   0  0  0  0  0  0  0  0  0  0  0  0
   22.3289  -24.6246  -19.9530 N   0  0  0  0  0  0  0  0  0  0  0  0
   22.3864  -22.9343  -14.3181 C   0  0  0  0  0  0  0  0  0  0  0  0
   22.4021  -23.3942  -13.1443 O   0  0  0  0  0  0  0  0  0  0  0  0
   21.2080  -22.4546  -14.9373 N   0  0  0  0  0  0  0  0  0  0  0  0
   20.3577  -21.5189  -14.2438 C   0  0  1  0  0  0  0  0  0  0  0  0
   21.1971  -20.2773  -13.9454 C   0  0  0  0  0  0  0  0  0  0  0  0
   21.5458  -20.2149  -12.5115 C   0  0  0  0  0  0  0  0  0  0  0  0
   21.2066  -21.1814  -11.5606 C   0  0  0  0  0  0  0  0  0  0  0  0
   21.7163  -20.7304  -10.3968 N   0  0  0  0  0  0  0  0  0  0  0  0
   22.3379  -19.5585  -10.5877 C   0  0  0  0  0  0  0  0  0  0  0  0
   22.2317  -19.2458  -11.8829 N   0  0  0  0  0  0  0  0  0  0  0  0
   19.1798  -21.1663  -15.0733 C   0  0  0  0  0  0  0  0  0  0  0  0
   17.9156  -20.9054  -14.5266 O   0  0  0  0  0  0  0  0  0  0  0  0
   19.2683  -21.0856  -16.3203 O   0  0  0  0  0  0  0  0  0  0  0  0
  2  1  1  6
  2 13  1  0
  2  3  1  0
  3  4  1  0
  4  5  2  0
  6  5  1  0
  7  6  1  0
  8  7  2  0
  9  8  1  0
 10  9  2  0
 10 11  1  0
 11 12  2  0
 12  7  1  0
 12  4  1  0
 13 14  2  0
 15 13  1  0
 16 22  1  0
 16 15  1  0
 16 17  1  1
 18 17  1  0
 19 18  1  0
 20 19  1  0
 21 20  1  0
 22 23  2  0
 24 25  1  0
 24 22  1  0
 25 32  1  0
 25 26  1  6
 27 26  1  0
 27 28  2  0
 29 28  1  0
 30 31  2  0
 30 29  1  0
 31 27  1  0
 32 34  2  0
 32 33  1  0
M  END
$$$$
