WKH.pdb
     RDKit          3D

 34 36  0  0  1  0  0  0  0  0999 V2000
   26.6780  -22.1163  -18.0626 N   0  0  0  0  0  0  0  0  0  0  0  0
   26.4002  -20.9742  -17.2286 C   0  0  1  0  0  0  0  0  0  0  0  0
   24.9547  -20.6181  -17.3280 C   0  0  0  0  0  0  0  0  0  0  0  0
   24.7362  -19.8026  -18.5426 C   0  0  0  0  0  0  0  0  0  0  0  0
   25.6843  -18.9886  -19.1627 C   0  0  0  0  0  0  0  0  0  0  0  0
   25.1533  -18.4293  -20.2532 N   0  0  0  0  0  0  0  0  0  0  0  0
   23.8865  -18.8361  -20.3876 C   0  0  0  0  0  0  0  0  0  0  0  0
   22.9149  -18.5491  -21.3256 C   0  0  0  0  0  0  0  0  0  0  0  0
   21.6451  -19.0856  -21.2614 C   0  0  0  0  0  0  0  0  0  0  0  0
   21.3769  -19.9346  -20.2060 C   0  0  0  0  0  0  0  0  0  0  0  0
   22.3441  -20.2289  -19.2606 C   0  0  0  0  0  0  0  0  0  0  0  0
   23.6109  -19.6891  -19.3333 C   0  0  0  0  0  0  0  0  0  0  0  0
   26.8378  -21.2613  -15.8470 C   0  0  0  0  0  0  0  0  0  0  0  0
   26.3468  -22.2535  -15.2594 O   0  0  0  0  0  0  0  0  0  0  0  0
   27.7833  -20.4844  -15.1345 N   0  0  0  0  0  0  0  0  0  0  0  0
   28.0072  -20.6950  -13.7240 C   0  0  1  0  0  0  0  0  0  0  0  0
   29.1322  -19.8519  -13.1879 C   0  0  0  0  0  0  0  0  0  0  0  0
   29.5336  -20.2064  -11.7873 C   0  0  0  0  0  0  0  0  0  0  0  0
   30.5260  -21.3158  -11.6955 C   0  0  0  0  0  0  0  0  0  0  0  0
   30.9289  -21.4413  -10.2300 C   0  0  0  0  0  0  0  0  0  0  0  0
   31.8530  -22.5300  -10.0242 N   0  0  0  0  0  0  0  0  0  0  0  0
   26.7686  -20.2679  -12.9782 C   0  0  0  0  0  0  0  0  0  0  0  0
   25.9529  -19.5660  -13.6351 O   0  0  0  0  0  0  0  0  0  0  0  0
   26.5488  -20.6377  -11.6302 N   0  0  0  0  0  0  0  0  0  0  0  0
   25.2103  -20.6498  -11.0940 C   0  0  1  0  0  0  0  0  0  0  0  0
   24.4326  -21.7346  -11.8381 C   0  0  0  0  0  0  0  0  0  0  0  0
   23.2747  -21.1537  -12.5475 C   0  0  0  0  0  0  0  0  0  0  0  0
   22.9203  -19.8019  -12.5322 C   0  0  0  0  0  0  0  0  0  0  0  0
   21.8163  -19.7144  -13.3011 N   0  0  0  0  0  0  0  0  0  0  0  0
   21.4863  -20.9236  -13.7755 C   0  0  0  0  0  0  0  0  0  0  0  0
   22.3809  -21.8023  -13.3125 N   0  0  0  0  0  0  0  0  0  0  0  0
   25.2314  -20.9280   -9.6373 C   0  0  0  0  0  0  0  0  0  0  0  0
   24.3106  -20.3653   -8.7424 O   0  0  0  0  0  0  0  0  0  0  0  0
   26.0892  -21.6920   -9.1376 O   0  0  0  0  0  0  0  0  0  0  0  0
  2  1  1  6
  2 13  1  0
  2  3  1  0
  3  4  1  0
  4  5  2  0
  6  5  1  0
  7  6  1  0
  8  7  2  0
  9  8  1  0
 10  9  2  0
 10 11  1  0
 11 12  2  0
 12  7  1  0
 12  4  1  0
 13 14  2  0
 15 13  1  0
 16 22  1  0
 16 15  1  0
 16 17  1  1
 18 17  1  0
 19 18  1  0
 20 19  1  0
 21 20  1  0
 22 23  2  0
 24 25  1  0
 24 22  1  0
 25 32  1  0
 25 26  1  6
 27 26  1  0
 27 28  2  0
 29 28  1  0
 30 31  2  0
 30 29  1  0
 31 27  1  0
 32 34  2  0
 32 33  1  0
M  END
$$$$
