WKH.pdb
     RDKit          3D

 34 36  0  0  1  0  0  0  0  0999 V2000
   27.6496  -20.4183  -11.2599 N   0  0  0  0  0  0  0  0  0  0  0  0
   26.4934  -21.2704  -11.3789 C   0  0  1  0  0  0  0  0  0  0  0  0
   25.9908  -21.6295  -10.0208 C   0  0  0  0  0  0  0  0  0  0  0  0
   26.5229  -20.6651   -9.0336 C   0  0  0  0  0  0  0  0  0  0  0  0
   25.8139  -19.6128   -8.4540 C   0  0  0  0  0  0  0  0  0  0  0  0
   26.5953  -18.9697   -7.5822 N   0  0  0  0  0  0  0  0  0  0  0  0
   27.8000  -19.5493   -7.5557 C   0  0  0  0  0  0  0  0  0  0  0  0
   28.9485  -19.2691   -6.8425 C   0  0  0  0  0  0  0  0  0  0  0  0
   30.1047  -20.0092   -6.9836 C   0  0  0  0  0  0  0  0  0  0  0  0
   30.0704  -21.0586   -7.8803 C   0  0  0  0  0  0  0  0  0  0  0  0
   28.9240  -21.3480   -8.6000 C   0  0  0  0  0  0  0  0  0  0  0  0
   27.7727  -20.6037   -8.4516 C   0  0  0  0  0  0  0  0  0  0  0  0
   25.4792  -20.6016  -12.2196 C   0  0  0  0  0  0  0  0  0  0  0  0
   25.0217  -19.4986  -11.8392 O   0  0  0  0  0  0  0  0  0  0  0  0
   24.9839  -21.1270  -13.4378 N   0  0  0  0  0  0  0  0  0  0  0  0
   23.9852  -20.4181  -14.2021 C   0  0  1  0  0  0  0  0  0  0  0  0
   24.3857  -20.2329  -15.6404 C   0  0  0  0  0  0  0  0  0  0  0  0
   23.3460  -19.5391  -16.4688 C   0  0  0  0  0  0  0  0  0  0  0  0
   23.6491  -19.5015  -17.9285 C   0  0  0  0  0  0  0  0  0  0  0  0
   23.0418  -18.2171  -18.4830 C   0  0  0  0  0  0  0  0  0  0  0  0
   23.3234  -18.0600  -19.8892 N   0  0  0  0  0  0  0  0  0  0  0  0
   22.7252  -21.2458  -14.2191 C   0  0  0  0  0  0  0  0  0  0  0  0
   22.8863  -22.4775  -14.4342 O   0  0  0  0  0  0  0  0  0  0  0  0
   21.4524  -20.6653  -14.0060 N   0  0  0  0  0  0  0  0  0  0  0  0
   20.2631  -21.4732  -14.1158 C   0  0  1  0  0  0  0  0  0  0  0  0
   19.3709  -21.1328  -12.9228 C   0  0  0  0  0  0  0  0  0  0  0  0
   19.4669  -22.1781  -11.8838 C   0  0  0  0  0  0  0  0  0  0  0  0
   20.2322  -23.3430  -11.9862 C   0  0  0  0  0  0  0  0  0  0  0  0
   20.0315  -24.0040  -10.8284 N   0  0  0  0  0  0  0  0  0  0  0  0
   19.1971  -23.3124  -10.0400 C   0  0  0  0  0  0  0  0  0  0  0  0
   18.8534  -22.1955  -10.6888 N   0  0  0  0  0  0  0  0  0  0  0  0
   19.5578  -21.1974  -15.3912 C   0  0  0  0  0  0  0  0  0  0  0  0
   18.6132  -22.0743  -15.9426 O   0  0  0  0  0  0  0  0  0  0  0  0
   19.7816  -20.1495  -16.0400 O   0  0  0  0  0  0  0  0  0  0  0  0
  2  1  1  1
  2 13  1  0
  2  3  1  0
  3  4  1  0
  4  5  2  0
  6  5  1  0
  7  6  1  0
  8  7  2  0
  9  8  1  0
 10  9  2  0
 10 11  1  0
 11 12  2  0
 12  7  1  0
 12  4  1  0
 13 14  2  0
 15 13  1  0
 16 22  1  0
 16 15  1  0
 16 17  1  6
 18 17  1  0
 19 18  1  0
 20 19  1  0
 21 20  1  0
 22 23  2  0
 24 25  1  0
 24 22  1  0
 25 32  1  0
 25 26  1  1
 27 26  1  0
 27 28  2  0
 29 28  1  0
 30 31  2  0
 30 29  1  0
 31 27  1  0
 32 34  2  0
 32 33  1  0
M  END
$$$$
