WKH.pdb
     RDKit          3D

 34 36  0  0  1  0  0  0  0  0999 V2000
   24.0149  -15.2613  -19.1126 N   0  0  0  0  0  0  0  0  0  0  0  0
   23.6449  -15.4691  -17.7353 C   0  0  1  0  0  0  0  0  0  0  0  0
   22.1583  -15.5044  -17.6133 C   0  0  0  0  0  0  0  0  0  0  0  0
   21.6242  -14.1334  -17.7654 C   0  0  0  0  0  0  0  0  0  0  0  0
   21.3587  -13.4884  -18.9734 C   0  0  0  0  0  0  0  0  0  0  0  0
   20.8520  -12.2758  -18.7345 N   0  0  0  0  0  0  0  0  0  0  0  0
   20.7683  -12.0830  -17.4140 C   0  0  0  0  0  0  0  0  0  0  0  0
   20.3285  -11.0141  -16.6589 C   0  0  0  0  0  0  0  0  0  0  0  0
   20.3414  -11.0296  -15.2790 C   0  0  0  0  0  0  0  0  0  0  0  0
   20.8190  -12.1733  -14.6703 C   0  0  0  0  0  0  0  0  0  0  0  0
   21.2619  -13.2504  -15.4183 C   0  0  0  0  0  0  0  0  0  0  0  0
   21.2443  -13.2267  -16.7969 C   0  0  0  0  0  0  0  0  0  0  0  0
   24.3018  -16.6934  -17.2333 C   0  0  0  0  0  0  0  0  0  0  0  0
   24.2856  -17.7182  -17.9546 O   0  0  0  0  0  0  0  0  0  0  0  0
   24.9548  -16.7890  -15.9803 N   0  0  0  0  0  0  0  0  0  0  0  0
   25.4796  -18.0487  -15.5094 C   0  0  1  0  0  0  0  0  0  0  0  0
   26.4220  -17.8814  -14.3485 C   0  0  0  0  0  0  0  0  0  0  0  0
   27.1110  -19.1512  -13.9465 C   0  0  0  0  0  0  0  0  0  0  0  0
   27.8824  -19.8045  -15.0431 C   0  0  0  0  0  0  0  0  0  0  0  0
   28.6649  -20.9561  -14.4208 C   0  0  0  0  0  0  0  0  0  0  0  0
   29.5175  -21.6032  -15.3881 N   0  0  0  0  0  0  0  0  0  0  0  0
   24.3299  -18.8814  -15.0018 C   0  0  0  0  0  0  0  0  0  0  0  0
   23.4212  -18.2459  -14.4019 O   0  0  0  0  0  0  0  0  0  0  0  0
   24.2864  -20.2827  -15.1933 N   0  0  0  0  0  0  0  0  0  0  0  0
   23.1054  -21.0249  -14.8278 C   0  0  1  0  0  0  0  0  0  0  0  0
   22.3232  -20.1716  -13.8302 C   0  0  0  0  0  0  0  0  0  0  0  0
   21.0576  -20.8344  -13.4555 C   0  0  0  0  0  0  0  0  0  0  0  0
   20.7080  -22.1449  -13.7925 C   0  0  0  0  0  0  0  0  0  0  0  0
   19.4862  -22.3369  -13.2558 N   0  0  0  0  0  0  0  0  0  0  0  0
   19.0813  -21.2287  -12.6200 C   0  0  0  0  0  0  0  0  0  0  0  0
   20.0452  -20.3111  -12.7441 N   0  0  0  0  0  0  0  0  0  0  0  0
   22.2795  -21.3187  -16.0243 C   0  0  0  0  0  0  0  0  0  0  0  0
   22.3873  -22.5148  -16.7475 O   0  0  0  0  0  0  0  0  0  0  0  0
   21.4356  -20.4942  -16.4455 O   0  0  0  0  0  0  0  0  0  0  0  0
  2  1  1  6
  2 13  1  0
  2  3  1  0
  3  4  1  0
  4  5  2  0
  6  5  1  0
  7  6  1  0
  8  7  2  0
  9  8  1  0
 10  9  2  0
 10 11  1  0
 11 12  2  0
 12  7  1  0
 12  4  1  0
 13 14  2  0
 15 13  1  0
 16 22  1  0
 16 15  1  0
 16 17  1  1
 18 17  1  0
 19 18  1  0
 20 19  1  0
 21 20  1  0
 22 23  2  0
 24 25  1  0
 24 22  1  0
 25 32  1  0
 25 26  1  1
 27 26  1  0
 27 28  2  0
 29 28  1  0
 30 31  2  0
 30 29  1  0
 31 27  1  0
 32 34  2  0
 32 33  1  0
M  END
$$$$
