WKH.pdb
     RDKit          3D

 34 36  0  0  1  0  0  0  0  0999 V2000
   24.5816  -19.9933   -9.6185 N   0  0  0  0  0  0  0  0  0  0  0  0
   25.9694  -20.1498   -9.9742 C   0  0  1  0  0  0  0  0  0  0  0  0
   26.5397  -21.3337   -9.2676 C   0  0  0  0  0  0  0  0  0  0  0  0
   26.5821  -21.0601   -7.8146 C   0  0  0  0  0  0  0  0  0  0  0  0
   25.6065  -21.4217   -6.8854 C   0  0  0  0  0  0  0  0  0  0  0  0
   25.9893  -21.0472   -5.6618 N   0  0  0  0  0  0  0  0  0  0  0  0
   27.1827  -20.4484   -5.7349 C   0  0  0  0  0  0  0  0  0  0  0  0
   27.9971  -19.8833   -4.7738 C   0  0  0  0  0  0  0  0  0  0  0  0
   29.2087  -19.2994   -5.0829 C   0  0  0  0  0  0  0  0  0  0  0  0
   29.5832  -19.3007   -6.4119 C   0  0  0  0  0  0  0  0  0  0  0  0
   28.7740  -19.8648   -7.3830 C   0  0  0  0  0  0  0  0  0  0  0  0
   27.5653  -20.4473   -7.0648 C   0  0  0  0  0  0  0  0  0  0  0  0
   26.0896  -20.2328  -11.4444 C   0  0  0  0  0  0  0  0  0  0  0  0
   25.2084  -20.8563  -12.0811 O   0  0  0  0  0  0  0  0  0  0  0  0
   27.1428  -19.6501  -12.1904 N   0  0  0  0  0  0  0  0  0  0  0  0
   27.0744  -19.5617  -13.6297 C   0  0  1  0  0  0  0  0  0  0  0  0
   28.0807  -18.5968  -14.1953 C   0  0  0  0  0  0  0  0  0  0  0  0
   28.0360  -18.4901  -15.6904 C   0  0  0  0  0  0  0  0  0  0  0  0
   29.0352  -17.5458  -16.2684 C   0  0  0  0  0  0  0  0  0  0  0  0
   28.8366  -17.5480  -17.7805 C   0  0  0  0  0  0  0  0  0  0  0  0
   29.7986  -16.7021  -18.4440 N   0  0  0  0  0  0  0  0  0  0  0  0
   27.4168  -20.9126  -14.2047 C   0  0  0  0  0  0  0  0  0  0  0  0
   28.0963  -21.6660  -13.4562 O   0  0  0  0  0  0  0  0  0  0  0  0
   26.9968  -21.2965  -15.5002 N   0  0  0  0  0  0  0  0  0  0  0  0
   26.4717  -22.6203  -15.7261 C   0  0  1  0  0  0  0  0  0  0  0  0
   25.3427  -22.8391  -14.7197 C   0  0  0  0  0  0  0  0  0  0  0  0
   24.6843  -24.1413  -14.9484 C   0  0  0  0  0  0  0  0  0  0  0  0
   24.9976  -25.0279  -15.9823 C   0  0  0  0  0  0  0  0  0  0  0  0
   24.1653  -26.0757  -15.8174 N   0  0  0  0  0  0  0  0  0  0  0  0
   23.3749  -25.8753  -14.7538 C   0  0  0  0  0  0  0  0  0  0  0  0
   23.6951  -24.6905  -14.2242 N   0  0  0  0  0  0  0  0  0  0  0  0
   25.9673  -22.7545  -17.1144 C   0  0  0  0  0  0  0  0  0  0  0  0
   26.2880  -23.8428  -17.9380 O   0  0  0  0  0  0  0  0  0  0  0  0
   25.2197  -21.8843  -17.6175 O   0  0  0  0  0  0  0  0  0  0  0  0
  2  1  1  6
  2 13  1  0
  2  3  1  0
  3  4  1  0
  4  5  2  0
  6  5  1  0
  7  6  1  0
  8  7  2  0
  9  8  1  0
 10  9  2  0
 10 11  1  0
 11 12  2  0
 12  7  1  0
 12  4  1  0
 13 14  2  0
 15 13  1  0
 16 22  1  0
 16 15  1  0
 16 17  1  6
 18 17  1  0
 19 18  1  0
 20 19  1  0
 21 20  1  0
 22 23  2  0
 24 25  1  0
 24 22  1  0
 25 32  1  0
 25 26  1  1
 27 26  1  0
 27 28  2  0
 29 28  1  0
 30 31  2  0
 30 29  1  0
 31 27  1  0
 32 34  2  0
 32 33  1  0
M  END
$$$$
