WKH.pdb
     RDKit          3D

 34 36  0  0  1  0  0  0  0  0999 V2000
   28.4270  -21.6333  -10.7769 N   0  0  0  0  0  0  0  0  0  0  0  0
   27.1444  -21.1696  -10.3110 C   0  0  1  0  0  0  0  0  0  0  0  0
   27.3220  -19.9318   -9.4971 C   0  0  0  0  0  0  0  0  0  0  0  0
   28.2879  -20.1985   -8.4090 C   0  0  0  0  0  0  0  0  0  0  0  0
   29.6072  -20.6212   -8.5720 C   0  0  0  0  0  0  0  0  0  0  0  0
   30.1968  -20.7271   -7.3781 N   0  0  0  0  0  0  0  0  0  0  0  0
   29.3240  -20.3925   -6.4218 C   0  0  0  0  0  0  0  0  0  0  0  0
   29.4293  -20.3434   -5.0461 C   0  0  0  0  0  0  0  0  0  0  0  0
   28.3747  -19.9714   -4.2374 C   0  0  0  0  0  0  0  0  0  0  0  0
   27.1894  -19.6445   -4.8656 C   0  0  0  0  0  0  0  0  0  0  0  0
   27.0736  -19.6902   -6.2441 C   0  0  0  0  0  0  0  0  0  0  0  0
   28.1331  -20.0620   -7.0445 C   0  0  0  0  0  0  0  0  0  0  0  0
   26.2433  -20.9847  -11.4671 C   0  0  0  0  0  0  0  0  0  0  0  0
   26.5067  -20.0769  -12.2901 O   0  0  0  0  0  0  0  0  0  0  0  0
   25.0910  -21.7708  -11.7111 N   0  0  0  0  0  0  0  0  0  0  0  0
   24.3308  -21.6182  -12.9288 C   0  0  1  0  0  0  0  0  0  0  0  0
   23.9154  -22.9392  -13.5171 C   0  0  0  0  0  0  0  0  0  0  0  0
   24.9527  -23.5516  -14.4102 C   0  0  0  0  0  0  0  0  0  0  0  0
   24.5703  -24.8777  -14.9753 C   0  0  0  0  0  0  0  0  0  0  0  0
   25.7124  -25.3298  -15.8793 C   0  0  0  0  0  0  0  0  0  0  0  0
   26.0386  -24.3278  -16.8647 N   0  0  0  0  0  0  0  0  0  0  0  0
   23.0557  -20.8829  -12.6028 C   0  0  0  0  0  0  0  0  0  0  0  0
   22.5851  -21.0937  -11.4523 O   0  0  0  0  0  0  0  0  0  0  0  0
   22.4388  -20.0163  -13.5358 N   0  0  0  0  0  0  0  0  0  0  0  0
   21.2291  -19.3163  -13.1807 C   0  0  1  0  0  0  0  0  0  0  0  0
   21.2608  -17.9645  -13.8926 C   0  0  0  0  0  0  0  0  0  0  0  0
   20.0310  -17.1967  -13.6104 C   0  0  0  0  0  0  0  0  0  0  0  0
   19.8797  -16.2795  -12.5669 C   0  0  0  0  0  0  0  0  0  0  0  0
   18.6177  -15.8184  -12.6781 N   0  0  0  0  0  0  0  0  0  0  0  0
   18.0037  -16.3985  -13.7186 C   0  0  0  0  0  0  0  0  0  0  0  0
   18.8713  -17.2415  -14.2871 N   0  0  0  0  0  0  0  0  0  0  0  0
   20.0341  -20.0941  -13.5892 C   0  0  0  0  0  0  0  0  0  0  0  0
   18.8163  -20.0363  -12.8971 O   0  0  0  0  0  0  0  0  0  0  0  0
   20.0647  -20.8487  -14.5887 O   0  0  0  0  0  0  0  0  0  0  0  0
  2  1  1  6
  2 13  1  0
  2  3  1  0
  3  4  1  0
  4  5  2  0
  6  5  1  0
  7  6  1  0
  8  7  2  0
  9  8  1  0
 10  9  2  0
 10 11  1  0
 11 12  2  0
 12  7  1  0
 12  4  1  0
 13 14  2  0
 15 13  1  0
 16 22  1  0
 16 15  1  0
 16 17  1  1
 18 17  1  0
 19 18  1  0
 20 19  1  0
 21 20  1  0
 22 23  2  0
 24 25  1  0
 24 22  1  0
 25 32  1  0
 25 26  1  6
 27 26  1  0
 27 28  2  0
 29 28  1  0
 30 31  2  0
 30 29  1  0
 31 27  1  0
 32 34  2  0
 32 33  1  0
M  END
$$$$
