SNA.pdb
     RDKit          3D

 20 19  0  0  1  0  0  0  0  0999 V2000
   10.4436  -12.9675   20.3440 O   0  0  0  0  0  0  0  0  0  0  0  0
    9.9741  -14.0356   19.5869 C   0  0  0  0  0  0  0  0  0  0  0  0
    8.4886  -14.0148   19.6080 C   0  0  2  0  0  0  0  0  0  0  0  0
    7.9590  -12.8621   18.9336 N   0  0  0  0  0  0  0  0  0  0  0  0
    7.9152  -14.2104   20.9769 C   0  0  0  0  0  0  0  0  0  0  0  0
    7.3509  -13.2077   21.4770 O   0  0  0  0  0  0  0  0  0  0  0  0
    4.8062  -17.7726   22.8784 N   0  0  0  0  0  0  0  0  0  0  0  0
    6.1341  -17.6426   22.3460 C   0  0  0  0  0  0  0  0  0  0  0  0
    6.3157  -18.0039   21.1494 O   0  0  0  0  0  0  0  0  0  0  0  0
    7.2137  -17.1044   23.2080 C   0  0  0  0  0  0  0  0  0  0  0  0
    7.4177  -15.6320   22.9722 C   0  0  2  0  0  0  0  0  0  0  0  0
    8.0010  -15.4382   21.6626 N   0  0  0  0  0  0  0  0  0  0  0  0
    8.2595  -14.9962   24.0269 C   0  0  0  0  0  0  0  0  0  0  0  0
    9.4937  -15.1423   24.1208 O   0  0  0  0  0  0  0  0  0  0  0  0
    7.4248  -12.3820   26.5415 C   0  0  0  0  0  0  0  0  0  0  0  0
    8.3523  -13.4989   26.0718 C   0  0  2  0  0  0  0  0  0  0  0  0
    7.6353  -14.1683   24.9916 N   0  0  0  0  0  0  0  0  0  0  0  0
    8.6266  -14.3682   27.2013 C   0  0  0  0  0  0  0  0  0  0  0  0
    9.3010  -13.9990   28.1744 O   0  0  0  0  0  0  0  0  0  0  0  0
    8.1161  -15.6797   27.2100 O   0  0  0  0  0  0  0  0  0  0  0  0
  2  1  1  0
  3  2  1  0
  3  4  1  1
  5  3  1  0
  5  6  2  0
  8  7  1  0
  8 10  1  0
  9  8  2  0
 11 10  1  1
 11 12  1  0
 12  5  1  0
 13 11  1  0
 14 13  2  0
 16 15  1  1
 16 17  1  0
 17 13  1  0
 18 16  1  0
 18 20  1  0
 19 18  2  0
M  END
$$$$
