SNA.pdb
     RDKit          3D

 20 19  0  0  1  0  0  0  0  0999 V2000
    6.2047  -19.5960   18.4018 O   0  0  0  0  0  0  0  0  0  0  0  0
    6.1654  -19.3133   19.7629 C   0  0  0  0  0  0  0  0  0  0  0  0
    5.2640  -20.2919   20.4244 C   0  0  2  0  0  0  0  0  0  0  0  0
    3.9455  -20.2769   19.8540 N   0  0  0  0  0  0  0  0  0  0  0  0
    5.2604  -20.1755   21.9169 C   0  0  0  0  0  0  0  0  0  0  0  0
    4.3410  -19.4747   22.4041 O   0  0  0  0  0  0  0  0  0  0  0  0
    5.3602  -22.1285   27.1140 N   0  0  0  0  0  0  0  0  0  0  0  0
    6.4904  -22.0169   26.2344 C   0  0  0  0  0  0  0  0  0  0  0  0
    7.6257  -21.8662   26.7670 O   0  0  0  0  0  0  0  0  0  0  0  0
    6.2795  -22.0783   24.7681 C   0  0  0  0  0  0  0  0  0  0  0  0
    6.2132  -20.6996   24.1679 C   0  0  2  0  0  0  0  0  0  0  0  0
    6.2243  -20.8097   22.7255 N   0  0  0  0  0  0  0  0  0  0  0  0
    7.3191  -19.8173   24.6409 C   0  0  0  0  0  0  0  0  0  0  0  0
    8.5010  -19.9078   24.2557 O   0  0  0  0  0  0  0  0  0  0  0  0
    7.3512  -16.6010   26.4099 C   0  0  0  0  0  0  0  0  0  0  0  0
    8.0391  -17.9458   26.1937 C   0  0  2  0  0  0  0  0  0  0  0  0
    7.0275  -18.8044   25.5868 N   0  0  0  0  0  0  0  0  0  0  0  0
    8.5047  -18.4312   27.4800 C   0  0  0  0  0  0  0  0  0  0  0  0
    8.0134  -19.4281   28.0303 O   0  0  0  0  0  0  0  0  0  0  0  0
    9.5507  -17.7597   28.1399 O   0  0  0  0  0  0  0  0  0  0  0  0
  2  1  1  0
  3  2  1  0
  3  4  1  6
  5  3  1  0
  5  6  2  0
  8  7  1  0
  8 10  1  0
  9  8  2  0
 11 10  1  1
 11 12  1  0
 12  5  1  0
 13 11  1  0
 14 13  2  0
 16 15  1  1
 16 17  1  0
 17 13  1  0
 18 16  1  0
 18 20  1  0
 19 18  2  0
M  END
$$$$
