SNA.pdb
     RDKit          3D

 20 19  0  0  1  0  0  0  0  0999 V2000
   11.8908  -18.0804   18.9120 O   0  0  0  0  0  0  0  0  0  0  0  0
   10.8777  -18.0308   17.9605 C   0  0  0  0  0  0  0  0  0  0  0  0
   10.9608  -16.7302   17.2469 C   0  0  2  0  0  0  0  0  0  0  0  0
   12.1651  -16.6204   16.4713 N   0  0  0  0  0  0  0  0  0  0  0  0
   10.7265  -15.5515   18.1394 C   0  0  0  0  0  0  0  0  0  0  0  0
   11.7028  -14.7766   18.2822 O   0  0  0  0  0  0  0  0  0  0  0  0
    8.7345  -13.1021   17.2759 N   0  0  0  0  0  0  0  0  0  0  0  0
    7.6584  -13.1276   18.2273 C   0  0  0  0  0  0  0  0  0  0  0  0
    6.5533  -12.6356   17.8641 O   0  0  0  0  0  0  0  0  0  0  0  0
    7.8878  -13.7148   19.5692 C   0  0  0  0  0  0  0  0  0  0  0  0
    9.2954  -14.2300   19.7063 C   0  0  2  0  0  0  0  0  0  0  0  0
    9.4922  -15.3230   18.7793 N   0  0  0  0  0  0  0  0  0  0  0  0
    9.6151  -14.6531   21.1006 C   0  0  0  0  0  0  0  0  0  0  0  0
    8.8063  -14.6122   22.0480 O   0  0  0  0  0  0  0  0  0  0  0  0
   10.4632  -16.9180   22.8898 C   0  0  0  0  0  0  0  0  0  0  0  0
   11.3155  -15.6690   22.6844 C   0  0  2  0  0  0  0  0  0  0  0  0
   10.9151  -15.1369   21.3861 N   0  0  0  0  0  0  0  0  0  0  0  0
   12.7130  -16.0577   22.7371 C   0  0  0  0  0  0  0  0  0  0  0  0
   13.2625  -16.4170   23.7892 O   0  0  0  0  0  0  0  0  0  0  0  0
   13.4869  -16.0330   21.5618 O   0  0  0  0  0  0  0  0  0  0  0  0
  2  1  1  0
  3  2  1  0
  3  4  1  1
  5  3  1  0
  5  6  2  0
  8  7  1  0
  8 10  1  0
  9  8  2  0
 11 10  1  1
 11 12  1  0
 12  5  1  0
 13 11  1  0
 14 13  2  0
 16 15  1  6
 16 17  1  0
 17 13  1  0
 18 16  1  0
 18 20  1  0
 19 18  2  0
M  END
$$$$
