SNA.pdb
     RDKit          3D

 20 19  0  0  1  0  0  0  0  0999 V2000
    8.1722  -14.1676   20.5281 O   0  0  0  0  0  0  0  0  0  0  0  0
    7.0767  -14.7310   19.8825 C   0  0  0  0  0  0  0  0  0  0  0  0
    6.8982  -16.1207   20.3770 C   0  0  2  0  0  0  0  0  0  0  0  0
    5.9271  -16.8440   19.6040 N   0  0  0  0  0  0  0  0  0  0  0  0
    6.6499  -16.1949   21.8514 C   0  0  0  0  0  0  0  0  0  0  0  0
    5.4452  -16.1685   22.2006 O   0  0  0  0  0  0  0  0  0  0  0  0
    6.8037  -18.7697   26.6988 N   0  0  0  0  0  0  0  0  0  0  0  0
    7.8094  -17.9093   26.1403 C   0  0  0  0  0  0  0  0  0  0  0  0
    8.5628  -17.2987   26.9495 O   0  0  0  0  0  0  0  0  0  0  0  0
    7.9151  -17.7745   24.6676 C   0  0  0  0  0  0  0  0  0  0  0  0
    7.4512  -16.4182   24.2088 C   0  0  2  0  0  0  0  0  0  0  0  0
    7.6972  -16.2885   22.7892 N   0  0  0  0  0  0  0  0  0  0  0  0
    8.1008  -15.3073   24.9633 C   0  0  0  0  0  0  0  0  0  0  0  0
    9.2946  -14.9744   24.8304 O   0  0  0  0  0  0  0  0  0  0  0  0
    6.6096  -12.7201   27.1966 C   0  0  0  0  0  0  0  0  0  0  0  0
    7.8432  -13.4425   26.6627 C   0  0  2  0  0  0  0  0  0  0  0  0
    7.3282  -14.5703   25.8936 N   0  0  0  0  0  0  0  0  0  0  0  0
    8.6595  -13.8459   27.7930 C   0  0  0  0  0  0  0  0  0  0  0  0
    8.7812  -15.0321   28.1338 O   0  0  0  0  0  0  0  0  0  0  0  0
    9.3454  -12.8697   28.5396 O   0  0  0  0  0  0  0  0  0  0  0  0
  2  1  1  0
  3  2  1  0
  3  4  1  6
  5  3  1  0
  5  6  2  0
  8  7  1  0
  8 10  1  0
  9  8  2  0
 11 10  1  1
 11 12  1  0
 12  5  1  0
 13 11  1  0
 14 13  2  0
 16 15  1  1
 16 17  1  0
 17 13  1  0
 18 16  1  0
 18 20  1  0
 19 18  2  0
M  END
$$$$
