SNA.pdb
     RDKit          3D

 20 19  0  0  1  0  0  0  0  0999 V2000
    7.2869  -12.4849   18.0067 O   0  0  0  0  0  0  0  0  0  0  0  0
    7.7872  -13.7014   18.4585 C   0  0  0  0  0  0  0  0  0  0  0  0
    8.8193  -14.1748   17.5002 C   0  0  2  0  0  0  0  0  0  0  0  0
    8.2673  -14.4233   16.1973 N   0  0  0  0  0  0  0  0  0  0  0  0
    9.6297  -15.3194   18.0236 C   0  0  0  0  0  0  0  0  0  0  0  0
    9.7448  -16.3008   17.2507 O   0  0  0  0  0  0  0  0  0  0  0  0
   12.3123  -17.6378   16.5279 N   0  0  0  0  0  0  0  0  0  0  0  0
   12.0204  -17.7271   17.9316 C   0  0  0  0  0  0  0  0  0  0  0  0
   11.5935  -18.8342   18.3646 O   0  0  0  0  0  0  0  0  0  0  0  0
   12.2248  -16.5385   18.7940 C   0  0  0  0  0  0  0  0  0  0  0  0
   11.0872  -16.3659   19.7643 C   0  0  2  0  0  0  0  0  0  0  0  0
   10.2261  -15.3003   19.3000 N   0  0  0  0  0  0  0  0  0  0  0  0
   11.5581  -16.0996   21.1545 C   0  0  0  0  0  0  0  0  0  0  0  0
   12.4897  -15.3229   21.4419 O   0  0  0  0  0  0  0  0  0  0  0  0
    9.9207  -16.6876   24.3846 C   0  0  0  0  0  0  0  0  0  0  0  0
   11.2395  -16.5251   23.6343 C   0  0  2  0  0  0  0  0  0  0  0  0
   10.9174  -16.7603   22.2308 N   0  0  0  0  0  0  0  0  0  0  0  0
   12.1899  -17.4817   24.1713 C   0  0  0  0  0  0  0  0  0  0  0  0
   12.4988  -18.5202   23.5680 O   0  0  0  0  0  0  0  0  0  0  0  0
   12.7930  -17.2376   25.4193 O   0  0  0  0  0  0  0  0  0  0  0  0
  2  1  1  0
  3  2  1  0
  3  4  1  6
  5  3  1  0
  5  6  2  0
  8  7  1  0
  8 10  1  0
  9  8  2  0
 11 10  1  6
 11 12  1  0
 12  5  1  0
 13 11  1  0
 14 13  2  0
 16 15  1  1
 16 17  1  0
 17 13  1  0
 18 16  1  0
 18 20  1  0
 19 18  2  0
M  END
$$$$
