SNA.pdb
     RDKit          3D

 20 19  0  0  1  0  0  0  0  0999 V2000
    7.9462  -12.1140   18.3647 O   0  0  0  0  0  0  0  0  0  0  0  0
    8.5914  -13.1361   19.0526 C   0  0  0  0  0  0  0  0  0  0  0  0
    9.3746  -13.9413   18.0799 C   0  0  2  0  0  0  0  0  0  0  0  0
    8.5252  -14.6429   17.1579 N   0  0  0  0  0  0  0  0  0  0  0  0
   10.3931  -14.8247   18.7303 C   0  0  0  0  0  0  0  0  0  0  0  0
   10.0948  -16.0417   18.7931 O   0  0  0  0  0  0  0  0  0  0  0  0
   14.4158  -15.6537   17.6309 N   0  0  0  0  0  0  0  0  0  0  0  0
   14.4352  -14.4662   18.4390 C   0  0  0  0  0  0  0  0  0  0  0  0
   14.8927  -13.4141   17.9107 O   0  0  0  0  0  0  0  0  0  0  0  0
   13.9312  -14.5262   19.8321 C   0  0  0  0  0  0  0  0  0  0  0  0
   12.5766  -15.1793   19.8949 C   0  0  2  0  0  0  0  0  0  0  0  0
   11.6088  -14.3268   19.2398 N   0  0  0  0  0  0  0  0  0  0  0  0
   12.1543  -15.4845   21.2926 C   0  0  0  0  0  0  0  0  0  0  0  0
   12.2990  -14.7049   22.2543 O   0  0  0  0  0  0  0  0  0  0  0  0
   10.1505  -18.3420   22.6157 C   0  0  0  0  0  0  0  0  0  0  0  0
   11.0152  -17.1108   22.8705 C   0  0  2  0  0  0  0  0  0  0  0  0
   11.5463  -16.7343   21.5648 N   0  0  0  0  0  0  0  0  0  0  0  0
   12.0471  -17.4690   23.8263 C   0  0  0  0  0  0  0  0  0  0  0  0
   11.7913  -17.7354   25.0102 O   0  0  0  0  0  0  0  0  0  0  0  0
   13.3911  -17.5219   23.4121 O   0  0  0  0  0  0  0  0  0  0  0  0
  2  1  1  0
  3  2  1  0
  3  4  1  1
  5  3  1  0
  5  6  2  0
  8  7  1  0
  8 10  1  0
  9  8  2  0
 11 10  1  1
 11 12  1  0
 12  5  1  0
 13 11  1  0
 14 13  2  0
 16 15  1  6
 16 17  1  0
 17 13  1  0
 18 16  1  0
 18 20  1  0
 19 18  2  0
M  END
$$$$
