SNA.pdb
     RDKit          3D

 20 19  0  0  1  0  0  0  0  0999 V2000
    3.1061  -28.1217   33.0239 O   0  0  0  0  0  0  0  0  0  0  0  0
    4.0600  -27.4536   33.7842 C   0  0  0  0  0  0  0  0  0  0  0  0
    5.3532  -27.4811   33.0530 C   0  0  2  0  0  0  0  0  0  0  0  0
    5.4823  -28.6559   32.2362 N   0  0  0  0  0  0  0  0  0  0  0  0
    6.5370  -27.2478   33.9390 C   0  0  0  0  0  0  0  0  0  0  0  0
    7.0368  -28.2747   34.4581 O   0  0  0  0  0  0  0  0  0  0  0  0
    9.6593  -25.8822   32.7815 N   0  0  0  0  0  0  0  0  0  0  0  0
    9.6539  -24.6129   33.4541 C   0  0  0  0  0  0  0  0  0  0  0  0
   10.3438  -23.6853   32.9451 O   0  0  0  0  0  0  0  0  0  0  0  0
    8.8579  -24.4504   34.6943 C   0  0  0  0  0  0  0  0  0  0  0  0
    8.1713  -25.7347   35.0745 C   0  0  2  0  0  0  0  0  0  0  0  0
    7.0593  -25.9611   34.1773 N   0  0  0  0  0  0  0  0  0  0  0  0
    7.7160  -25.7398   36.4950 C   0  0  0  0  0  0  0  0  0  0  0  0
    6.8803  -24.9438   36.9657 O   0  0  0  0  0  0  0  0  0  0  0  0
    7.9842  -28.3631   39.0583 C   0  0  0  0  0  0  0  0  0  0  0  0
    7.8099  -26.8768   38.7601 C   0  0  2  0  0  0  0  0  0  0  0  0
    8.2546  -26.7044   37.3812 N   0  0  0  0  0  0  0  0  0  0  0  0
    8.6029  -26.1246   39.7153 C   0  0  0  0  0  0  0  0  0  0  0  0
    8.2508  -25.9704   40.8943 O   0  0  0  0  0  0  0  0  0  0  0  0
    9.8179  -25.5438   39.3065 O   0  0  0  0  0  0  0  0  0  0  0  0
  2  1  1  0
  3  2  1  0
  3  4  1  1
  5  3  1  0
  5  6  2  0
  8  7  1  0
  8 10  1  0
  9  8  2  0
 11 10  1  6
 11 12  1  0
 12  5  1  0
 13 11  1  0
 14 13  2  0
 16 15  1  1
 16 17  1  0
 17 13  1  0
 18 16  1  0
 18 20  1  0
 19 18  2  0
M  END
$$$$
