CPG.pdb
     RDKit          3D

 18 18  0  0  1  0  0  0  0  0999 V2000
   18.2223  -12.3446  -16.0446 N   0  0  0  0  0  0  0  0  0  0  0  0
   19.5598  -11.8350  -16.3482 C   0  0  1  0  0  0  0  0  0  0  0  0
   19.4475  -11.2098  -17.7422 C   0  0  0  0  0  0  0  0  0  0  0  0
   19.7323  -12.5816  -18.9205 S   0  0  0  0  0  0  0  0  0  0  0  0
   19.9852  -10.8535  -15.3358 C   0  0  0  0  0  0  0  0  0  0  0  0
   19.1172  -10.1870  -14.6784 O   0  0  0  0  0  0  0  0  0  0  0  0
   21.3588  -10.6464  -15.0879 N   0  0  0  0  0  0  0  0  0  0  0  0
   22.4806  -11.2890  -15.6975 C   0  0  0  0  0  0  0  0  0  0  0  0
   23.4996  -11.4416  -14.5817 C   0  0  0  0  0  0  0  0  0  0  0  0
   23.2523  -10.2197  -13.7154 C   0  0  0  0  0  0  0  0  0  0  0  0
   21.9119   -9.6983  -14.1236 C   0  0  1  0  0  0  0  0  0  0  0  0
   22.0986   -8.3774  -14.7556 C   0  0  0  0  0  0  0  0  0  0  0  0
   22.3697   -8.3201  -15.9732 O   0  0  0  0  0  0  0  0  0  0  0  0
   21.9812   -7.1706  -14.0305 N   0  0  0  0  0  0  0  0  0  0  0  0
   21.8242   -5.9063  -14.7105 C   0  0  0  0  0  0  0  0  0  0  0  0
   21.6717   -4.7784  -13.7561 C   0  0  0  0  0  0  0  0  0  0  0  0
   22.7907   -4.0270  -13.4403 O   0  0  0  0  0  0  0  0  0  0  0  0
   20.5632   -4.5058  -13.2445 O   0  0  0  0  0  0  0  0  0  0  0  0
  2  1  1  1
  2  3  1  0
  3  4  1  0
  5  6  2  0
  5  2  1  0
  7  5  1  0
  8  7  1  0
  9  8  1  0
 10  9  1  0
 10 11  1  0
 11 12  1  6
 11  7  1  0
 12 13  2  0
 14 12  1  0
 14 15  1  0
 15 16  1  0
 16 18  2  0
 16 17  1  0
M  END
$$$$
