CPG.pdb
     RDKit          3D

 18 18  0  0  1  0  0  0  0  0999 V2000
   25.7071  -21.4034  -11.4478 N   0  0  0  0  0  0  0  0  0  0  0  0
   25.9895  -21.0199  -12.8312 C   0  0  1  0  0  0  0  0  0  0  0  0
   25.6259  -22.2469  -13.6733 C   0  0  0  0  0  0  0  0  0  0  0  0
   26.9359  -22.3755  -14.9456 S   0  0  0  0  0  0  0  0  0  0  0  0
   25.2028  -19.8351  -13.2140 C   0  0  0  0  0  0  0  0  0  0  0  0
   24.0417  -19.6439  -12.7188 O   0  0  0  0  0  0  0  0  0  0  0  0
   25.7322  -18.9036  -14.1323 N   0  0  0  0  0  0  0  0  0  0  0  0
   26.9923  -18.9349  -14.8061 C   0  0  0  0  0  0  0  0  0  0  0  0
   27.4402  -17.4850  -14.8682 C   0  0  0  0  0  0  0  0  0  0  0  0
   26.1332  -16.7221  -14.9873 C   0  0  0  0  0  0  0  0  0  0  0  0
   25.0636  -17.6853  -14.5834 C   0  0  1  0  0  0  0  0  0  0  0  0
   24.2239  -17.9708  -15.7635 C   0  0  0  0  0  0  0  0  0  0  0  0
   24.7344  -18.5470  -16.7466 O   0  0  0  0  0  0  0  0  0  0  0  0
   22.8580  -17.6144  -15.8216 N   0  0  0  0  0  0  0  0  0  0  0  0
   22.4518  -16.2293  -15.8663 C   0  0  0  0  0  0  0  0  0  0  0  0
   22.3334  -15.7306  -17.2605 C   0  0  0  0  0  0  0  0  0  0  0  0
   23.4948  -15.4771  -17.9699 O   0  0  0  0  0  0  0  0  0  0  0  0
   21.2160  -15.5411  -17.7899 O   0  0  0  0  0  0  0  0  0  0  0  0
  2  1  1  1
  2  3  1  0
  3  4  1  0
  5  6  2  0
  5  2  1  0
  7  5  1  0
  8  7  1  0
  9  8  1  0
 10  9  1  0
 10 11  1  0
 11 12  1  6
 11  7  1  0
 12 13  2  0
 14 12  1  0
 14 15  1  0
 15 16  1  0
 16 18  2  0
 16 17  1  0
M  END
$$$$
