CPG.pdb
     RDKit          3D

 18 18  0  0  1  0  0  0  0  0999 V2000
   21.4756  -19.9022  -12.4136 N   0  0  0  0  0  0  0  0  0  0  0  0
   22.6310  -20.7816  -12.5936 C   0  0  1  0  0  0  0  0  0  0  0  0
   22.2440  -21.7297  -13.7330 C   0  0  0  0  0  0  0  0  0  0  0  0
   20.8524  -22.7297  -13.0888 S   0  0  0  0  0  0  0  0  0  0  0  0
   23.8367  -19.9983  -12.9130 C   0  0  0  0  0  0  0  0  0  0  0  0
   23.7325  -18.8309  -13.4192 O   0  0  0  0  0  0  0  0  0  0  0  0
   25.1157  -20.5375  -12.6590 N   0  0  0  0  0  0  0  0  0  0  0  0
   25.4516  -21.8213  -12.1280 C   0  0  0  0  0  0  0  0  0  0  0  0
   26.6660  -21.5770  -11.2492 C   0  0  0  0  0  0  0  0  0  0  0  0
   27.3849  -20.4427  -11.9571 C   0  0  0  0  0  0  0  0  0  0  0  0
   26.3854  -19.8567  -12.9018 C   0  0  1  0  0  0  0  0  0  0  0  0
   26.8447  -20.1094  -14.2818 C   0  0  0  0  0  0  0  0  0  0  0  0
   26.6491  -21.2330  -14.7902 O   0  0  0  0  0  0  0  0  0  0  0  0
   27.5001  -19.1226  -15.0516 N   0  0  0  0  0  0  0  0  0  0  0  0
   26.7593  -18.0494  -15.6720 C   0  0  0  0  0  0  0  0  0  0  0  0
   26.2575  -18.4275  -17.0180 C   0  0  0  0  0  0  0  0  0  0  0  0
   26.7703  -17.7671  -18.1213 O   0  0  0  0  0  0  0  0  0  0  0  0
   25.3927  -19.3198  -17.1618 O   0  0  0  0  0  0  0  0  0  0  0  0
  2  1  1  6
  2  3  1  0
  3  4  1  0
  5  6  2  0
  5  2  1  0
  7  5  1  0
  8  7  1  0
  9  8  1  0
 10  9  1  0
 10 11  1  0
 11 12  1  6
 11  7  1  0
 12 13  2  0
 14 12  1  0
 14 15  1  0
 15 16  1  0
 16 18  2  0
 16 17  1  0
M  END
$$$$
