CPG.pdb
     RDKit          3D

 18 18  0  0  1  0  0  0  0  0999 V2000
   18.4433  -12.4836  -16.6342 N   0  0  0  0  0  0  0  0  0  0  0  0
   19.5547  -11.5497  -16.8166 C   0  0  1  0  0  0  0  0  0  0  0  0
   19.1239  -10.6269  -17.9608 C   0  0  0  0  0  0  0  0  0  0  0  0
   19.6067  -11.4935  -19.4994 S   0  0  0  0  0  0  0  0  0  0  0  0
   19.8166  -10.8032  -15.5742 C   0  0  0  0  0  0  0  0  0  0  0  0
   18.8661  -10.5519  -14.7597 O   0  0  0  0  0  0  0  0  0  0  0  0
   21.1240  -10.3620  -15.2789 N   0  0  0  0  0  0  0  0  0  0  0  0
   22.3211  -10.5541  -16.0358 C   0  0  0  0  0  0  0  0  0  0  0  0
   23.4128  -10.7553  -14.9993 C   0  0  0  0  0  0  0  0  0  0  0  0
   22.9561   -9.8875  -13.8404 C   0  0  0  0  0  0  0  0  0  0  0  0
   21.5126   -9.5956  -14.0972 C   0  0  1  0  0  0  0  0  0  0  0  0
   21.3686   -8.1495  -14.3563 C   0  0  0  0  0  0  0  0  0  0  0  0
   21.4255   -7.7352  -15.5329 O   0  0  0  0  0  0  0  0  0  0  0  0
   21.1679   -7.2131  -13.3176 N   0  0  0  0  0  0  0  0  0  0  0  0
   20.8736   -5.8298  -13.6097 C   0  0  0  0  0  0  0  0  0  0  0  0
   22.0669   -5.1035  -14.1149 C   0  0  0  0  0  0  0  0  0  0  0  0
   23.2480   -5.1994  -13.3992 O   0  0  0  0  0  0  0  0  0  0  0  0
   22.0161   -4.4192  -15.1607 O   0  0  0  0  0  0  0  0  0  0  0  0
  2  1  1  1
  2  3  1  0
  3  4  1  0
  5  6  2  0
  5  2  1  0
  7  5  1  0
  8  7  1  0
  9  8  1  0
 10  9  1  0
 10 11  1  0
 11 12  1  6
 11  7  1  0
 12 13  2  0
 14 12  1  0
 14 15  1  0
 15 16  1  0
 16 18  2  0
 16 17  1  0
M  END
$$$$
