CPG.pdb
     RDKit          3D

 18 18  0  0  1  0  0  0  0  0999 V2000
   15.9356   -9.4272  -10.1305 N   0  0  0  0  0  0  0  0  0  0  0  0
   16.1869   -8.1470  -10.7928 C   0  0  1  0  0  0  0  0  0  0  0  0
   16.5839   -7.1824   -9.6709 C   0  0  0  0  0  0  0  0  0  0  0  0
   15.0875   -6.9924   -8.6337 S   0  0  0  0  0  0  0  0  0  0  0  0
   17.2486   -8.2838  -11.8044 C   0  0  0  0  0  0  0  0  0  0  0  0
   18.0716   -9.2582  -11.7485 O   0  0  0  0  0  0  0  0  0  0  0  0
   17.3595   -7.3350  -12.8430 N   0  0  0  0  0  0  0  0  0  0  0  0
   16.5586   -6.1749  -13.0787 C   0  0  0  0  0  0  0  0  0  0  0  0
   16.4384   -6.0814  -14.5898 C   0  0  0  0  0  0  0  0  0  0  0  0
   17.7636   -6.6370  -15.0792 C   0  0  0  0  0  0  0  0  0  0  0  0
   18.3538   -7.3630  -13.9131 C   0  0  1  0  0  0  0  0  0  0  0  0
   19.5772   -6.6520  -13.4923 C   0  0  0  0  0  0  0  0  0  0  0  0
   19.4894   -5.7487  -12.6347 O   0  0  0  0  0  0  0  0  0  0  0  0
   20.8489   -6.9573  -14.0266 N   0  0  0  0  0  0  0  0  0  0  0  0
   22.0349   -6.2792  -13.5584 C   0  0  0  0  0  0  0  0  0  0  0  0
   22.0825   -4.8664  -14.0145 C   0  0  0  0  0  0  0  0  0  0  0  0
   22.5153   -3.9005  -13.1222 O   0  0  0  0  0  0  0  0  0  0  0  0
   21.7419   -4.5467  -15.1749 O   0  0  0  0  0  0  0  0  0  0  0  0
  2  1  1  1
  2  3  1  0
  3  4  1  0
  5  6  2  0
  5  2  1  0
  7  5  1  0
  8  7  1  0
  9  8  1  0
 10  9  1  0
 10 11  1  0
 11 12  1  1
 11  7  1  0
 12 13  2  0
 14 12  1  0
 14 15  1  0
 15 16  1  0
 16 18  2  0
 16 17  1  0
M  END
$$$$
