CPG.pdb
     RDKit          3D

 18 18  0  0  1  0  0  0  0  0999 V2000
   28.5805  -17.8995   -5.8541 N   0  0  0  0  0  0  0  0  0  0  0  0
   28.3680  -19.2972   -6.2309 C   0  0  1  0  0  0  0  0  0  0  0  0
   27.5300  -19.8985   -5.0982 C   0  0  0  0  0  0  0  0  0  0  0  0
   28.0735  -21.6409   -4.9567 S   0  0  0  0  0  0  0  0  0  0  0  0
   27.6832  -19.3873   -7.5318 C   0  0  0  0  0  0  0  0  0  0  0  0
   26.7597  -18.5591   -7.8337 O   0  0  0  0  0  0  0  0  0  0  0  0
   28.0474  -20.3929   -8.4522 N   0  0  0  0  0  0  0  0  0  0  0  0
   29.0501  -21.4025   -8.3178 C   0  0  0  0  0  0  0  0  0  0  0  0
   29.6465  -21.5507   -9.7067 C   0  0  0  0  0  0  0  0  0  0  0  0
   28.4700  -21.2658  -10.6226 C   0  0  0  0  0  0  0  0  0  0  0  0
   27.4427  -20.5974   -9.7665 C   0  0  1  0  0  0  0  0  0  0  0  0
   26.2737  -21.4922   -9.6571 C   0  0  0  0  0  0  0  0  0  0  0  0
   26.3065  -22.4364   -8.8406 O   0  0  0  0  0  0  0  0  0  0  0  0
   25.1142  -21.3186  -10.4455 N   0  0  0  0  0  0  0  0  0  0  0  0
   25.2084  -21.1118  -11.8715 C   0  0  0  0  0  0  0  0  0  0  0  0
   23.9235  -20.6413  -12.4498 C   0  0  0  0  0  0  0  0  0  0  0  0
   23.1596  -21.5397  -13.1749 O   0  0  0  0  0  0  0  0  0  0  0  0
   23.5323  -19.4638  -12.2911 O   0  0  0  0  0  0  0  0  0  0  0  0
  2  1  1  1
  2  3  1  0
  3  4  1  0
  5  6  2  0
  5  2  1  0
  7  5  1  0
  8  7  1  0
  9  8  1  0
 10  9  1  0
 10 11  1  0
 11 12  1  1
 11  7  1  0
 12 13  2  0
 14 12  1  0
 14 15  1  0
 15 16  1  0
 16 18  2  0
 16 17  1  0
M  END
$$$$
