CPG.pdb
     RDKit          3D

 18 18  0  0  1  0  0  0  0  0999 V2000
   19.9597  -10.7873  -18.4520 N   0  0  0  0  0  0  0  0  0  0  0  0
   21.2197  -10.4118  -17.8101 C   0  0  1  0  0  0  0  0  0  0  0  0
   22.0870   -9.8303  -18.9310 C   0  0  0  0  0  0  0  0  0  0  0  0
   22.6441  -11.2683  -19.9175 S   0  0  0  0  0  0  0  0  0  0  0  0
   20.9842   -9.4363  -16.7320 C   0  0  0  0  0  0  0  0  0  0  0  0
   20.0064   -8.6185  -16.8039 O   0  0  0  0  0  0  0  0  0  0  0  0
   21.8415   -9.4028  -15.6118 N   0  0  0  0  0  0  0  0  0  0  0  0
   23.0313  -10.1593  -15.3778 C   0  0  0  0  0  0  0  0  0  0  0  0
   23.0171  -10.4630  -13.8898 C   0  0  0  0  0  0  0  0  0  0  0  0
   22.3383   -9.2436  -13.2925 C   0  0  0  0  0  0  0  0  0  0  0  0
   21.6654   -8.5540  -14.4356 C   0  0  1  0  0  0  0  0  0  0  0  0
   22.3228   -7.2489  -14.6446 C   0  0  0  0  0  0  0  0  0  0  0  0
   23.3739   -7.1996  -15.3169 O   0  0  0  0  0  0  0  0  0  0  0  0
   21.8043   -6.0485  -14.1096 N   0  0  0  0  0  0  0  0  0  0  0  0
   22.3357   -4.7661  -14.5073 C   0  0  0  0  0  0  0  0  0  0  0  0
   21.5369   -4.1483  -15.5967 C   0  0  0  0  0  0  0  0  0  0  0  0
   20.4816   -3.3214  -15.2519 O   0  0  0  0  0  0  0  0  0  0  0  0
   21.8031   -4.3638  -16.7998 O   0  0  0  0  0  0  0  0  0  0  0  0
  2  1  1  6
  2  3  1  0
  3  4  1  0
  5  6  2  0
  5  2  1  0
  7  5  1  0
  8  7  1  0
  9  8  1  0
 10  9  1  0
 10 11  1  0
 11 12  1  6
 11  7  1  0
 12 13  2  0
 14 12  1  0
 14 15  1  0
 15 16  1  0
 16 18  2  0
 16 17  1  0
M  END
$$$$
