CPG.pdb
     RDKit          3D

 18 18  0  0  1  0  0  0  0  0999 V2000
   23.7521  -19.7623  -10.8821 N   0  0  0  0  0  0  0  0  0  0  0  0
   25.1785  -20.0873  -10.9082 C   0  0  1  0  0  0  0  0  0  0  0  0
   25.2772  -21.5180  -10.3696 C   0  0  0  0  0  0  0  0  0  0  0  0
   25.1434  -21.3683   -8.5500 S   0  0  0  0  0  0  0  0  0  0  0  0
   25.7131  -19.9744  -12.2760 C   0  0  0  0  0  0  0  0  0  0  0  0
   24.9717  -19.5528  -13.2260 O   0  0  0  0  0  0  0  0  0  0  0  0
   27.0518  -20.3328  -12.5416 N   0  0  0  0  0  0  0  0  0  0  0  0
   27.9858  -20.9884  -11.6810 C   0  0  0  0  0  0  0  0  0  0  0  0
   29.3253  -20.3436  -11.9918 C   0  0  0  0  0  0  0  0  0  0  0  0
   29.2169  -20.0112  -13.4690 C   0  0  0  0  0  0  0  0  0  0  0  0
   27.7604  -20.0910  -13.7963 C   0  0  1  0  0  0  0  0  0  0  0  0
   27.5528  -21.2190  -14.7256 C   0  0  0  0  0  0  0  0  0  0  0  0
   27.2313  -22.3340  -14.2644 O   0  0  0  0  0  0  0  0  0  0  0  0
   27.7051  -21.0828  -16.1236 N   0  0  0  0  0  0  0  0  0  0  0  0
   27.2416  -19.9003  -16.8107 C   0  0  0  0  0  0  0  0  0  0  0  0
   25.9206  -20.1153  -17.4553 C   0  0  0  0  0  0  0  0  0  0  0  0
   25.8918  -20.5137  -18.7808 O   0  0  0  0  0  0  0  0  0  0  0  0
   24.8543  -19.9432  -16.8244 O   0  0  0  0  0  0  0  0  0  0  0  0
  2  1  1  6
  2  3  1  0
  3  4  1  0
  5  6  2  0
  5  2  1  0
  7  5  1  0
  8  7  1  0
  9  8  1  0
 10  9  1  0
 10 11  1  0
 11 12  1  6
 11  7  1  0
 12 13  2  0
 14 12  1  0
 14 15  1  0
 15 16  1  0
 16 18  2  0
 16 17  1  0
M  END
$$$$
