YLE.pdb
     RDKit          3D

 30 30  0  0  1  0  0  0  0  0999 V2000
   19.6411  -17.2581  -14.1559 O   0  0  0  0  0  0  0  0  0  0  0  0
   18.9757  -16.0360  -13.9941 C   0  0  0  0  0  0  0  0  0  0  0  0
   18.8824  -15.1489  -15.0384 C   0  0  0  0  0  0  0  0  0  0  0  0
   18.2145  -13.9192  -14.8844 C   0  0  0  0  0  0  0  0  0  0  0  0
   17.6334  -13.5639  -13.6896 C   0  0  0  0  0  0  0  0  0  0  0  0
   16.9088  -12.2816  -13.4799 C   0  0  0  0  0  0  0  0  0  0  0  0
   15.4083  -12.4355  -13.5087 C   0  0  2  0  0  0  0  0  0  0  0  0
   14.9334  -13.0143  -14.7320 N   0  0  0  0  0  0  0  0  0  0  0  0
   14.7969  -11.0626  -13.2516 C   0  0  0  0  0  0  0  0  0  0  0  0
   14.6162  -10.3164  -14.2312 O   0  0  0  0  0  0  0  0  0  0  0  0
   17.7458  -14.4905  -12.6429 C   0  0  0  0  0  0  0  0  0  0  0  0
   18.4002  -15.6947  -12.7907 C   0  0  0  0  0  0  0  0  0  0  0  0
   11.6619   -8.5528   -8.3615 C   0  0  0  0  0  0  0  0  0  0  0  0
   12.3798   -8.4302   -9.6569 C   0  0  2  0  0  0  0  0  0  0  0  0
   11.4924   -7.8121  -10.7259 C   0  0  0  0  0  0  0  0  0  0  0  0
   13.1146   -9.6295  -10.1364 C   0  0  0  0  0  0  0  0  0  0  0  0
   13.9164   -9.5483  -11.3673 C   0  0  2  0  0  0  0  0  0  0  0  0
   14.4640  -10.6984  -11.9356 N   0  0  0  0  0  0  0  0  0  0  0  0
   14.6803   -8.2733  -11.4126 C   0  0  0  0  0  0  0  0  0  0  0  0
   15.7164   -8.0690  -10.7539 O   0  0  0  0  0  0  0  0  0  0  0  0
   14.2455   -7.1885  -12.2433 N   0  0  0  0  0  0  0  0  0  0  0  0
   15.0544   -6.0049  -12.4615 C   0  0  1  0  0  0  0  0  0  0  0  0
   16.1158   -6.1459  -13.4829 C   0  0  0  0  0  0  0  0  0  0  0  0
   16.9398   -4.9368  -13.7932 C   0  0  0  0  0  0  0  0  0  0  0  0
   18.0294   -5.2203  -14.7405 C   0  0  0  0  0  0  0  0  0  0  0  0
   18.2769   -6.3523  -15.2194 O   0  0  0  0  0  0  0  0  0  0  0  0
   14.1845   -4.8519  -12.7422 C   0  0  0  0  0  0  0  0  0  0  0  0
   14.7189   -3.5519  -12.7155 O   0  0  0  0  0  0  0  0  0  0  0  0
   18.8730   -4.1789  -15.1650 O   0  0  0  0  0  0  0  0  0  0  0  0
   12.9687   -4.9719  -13.0133 O   0  0  0  0  0  0  0  0  0  0  0  0
  2  1  1  0
  3  2  2  0
  4  3  1  0
  5  4  2  0
  5 11  1  0
  6  5  1  0
  7  8  1  6
  7  6  1  0
  9 10  2  0
  9  7  1  0
 11 12  2  0
 12  2  1  0
 14 16  1  0
 14 13  1  1
 15 14  1  0
 17 16  1  1
 17 19  1  0
 17 18  1  0
 18  9  1  0
 19 21  1  0
 20 19  2  0
 21 22  1  0
 22 27  1  0
 23 24  1  0
 22 23  1  6
 24 25  1  0
 25 26  2  0
 27 30  2  0
 27 28  1  0
 29 25  1  0
M  END
$$$$
