YLE.pdb
     RDKit          3D

 30 30  0  0  1  0  0  0  0  0999 V2000
   29.7963  -15.8375  -19.0587 O   0  0  0  0  0  0  0  0  0  0  0  0
   28.8945  -16.6193  -18.3253 C   0  0  0  0  0  0  0  0  0  0  0  0
   28.6235  -16.3243  -17.0115 C   0  0  0  0  0  0  0  0  0  0  0  0
   27.7177  -17.1043  -16.2678 C   0  0  0  0  0  0  0  0  0  0  0  0
   27.0740  -18.1834  -16.8269 C   0  0  0  0  0  0  0  0  0  0  0  0
   26.1019  -19.0317  -16.0862 C   0  0  0  0  0  0  0  0  0  0  0  0
   26.7634  -20.0653  -15.2086 C   0  0  2  0  0  0  0  0  0  0  0  0
   27.5763  -20.9848  -15.9507 N   0  0  0  0  0  0  0  0  0  0  0  0
   25.6665  -20.7774  -14.4245 C   0  0  0  0  0  0  0  0  0  0  0  0
   25.0575  -21.7032  -14.9910 O   0  0  0  0  0  0  0  0  0  0  0  0
   27.3717  -18.4588  -18.1694 C   0  0  0  0  0  0  0  0  0  0  0  0
   28.2591  -17.6974  -18.8994 C   0  0  0  0  0  0  0  0  0  0  0  0
   26.4648  -22.1692  -10.4684 C   0  0  0  0  0  0  0  0  0  0  0  0
   25.9044  -20.8297  -10.1517 C   0  0  2  0  0  0  0  0  0  0  0  0
   25.9646  -20.5425   -8.6597 C   0  0  0  0  0  0  0  0  0  0  0  0
   24.5894  -20.4896  -10.7544 C   0  0  0  0  0  0  0  0  0  0  0  0
   24.3802  -20.6767  -12.1987 C   0  0  2  0  0  0  0  0  0  0  0  0
   25.3908  -20.3669  -13.1088 N   0  0  0  0  0  0  0  0  0  0  0  0
   22.9619  -20.4160  -12.5615 C   0  0  0  0  0  0  0  0  0  0  0  0
   22.4337  -19.2903  -12.5050 O   0  0  0  0  0  0  0  0  0  0  0  0
   22.1125  -21.4815  -13.0075 N   0  0  0  0  0  0  0  0  0  0  0  0
   20.7714  -21.2483  -13.5075 C   0  0  1  0  0  0  0  0  0  0  0  0
   20.2744  -22.2539  -14.4726 C   0  0  0  0  0  0  0  0  0  0  0  0
   18.9818  -22.9358  -14.1543 C   0  0  0  0  0  0  0  0  0  0  0  0
   18.5982  -23.9283  -15.1706 C   0  0  0  0  0  0  0  0  0  0  0  0
   19.3220  -24.2725  -16.1349 O   0  0  0  0  0  0  0  0  0  0  0  0
   19.8422  -21.0766  -12.3796 C   0  0  0  0  0  0  0  0  0  0  0  0
   18.5579  -20.5522  -12.6074 O   0  0  0  0  0  0  0  0  0  0  0  0
   17.3443  -24.5588  -15.0913 O   0  0  0  0  0  0  0  0  0  0  0  0
   20.1412  -21.3839  -11.2039 O   0  0  0  0  0  0  0  0  0  0  0  0
  2  1  1  0
  3  2  2  0
  4  3  1  0
  5  4  2  0
  5 11  1  0
  6  5  1  0
  7  8  1  6
  7  6  1  0
  9 10  2  0
  9  7  1  0
 11 12  2  0
 12  2  1  0
 14 16  1  0
 14 13  1  1
 15 14  1  0
 17 16  1  1
 17 19  1  0
 17 18  1  0
 18  9  1  0
 19 21  1  0
 20 19  2  0
 21 22  1  0
 22 27  1  0
 23 24  1  0
 22 23  1  1
 24 25  1  0
 25 26  2  0
 27 30  2  0
 27 28  1  0
 29 25  1  0
M  END
$$$$
