YLE.pdb
     RDKit          3D

 30 30  0  0  1  0  0  0  0  0999 V2000
   19.7057  -23.2230   -9.4969 O   0  0  0  0  0  0  0  0  0  0  0  0
   20.6870  -22.4439  -10.1234 C   0  0  0  0  0  0  0  0  0  0  0  0
   21.2473  -21.3720   -9.4727 C   0  0  0  0  0  0  0  0  0  0  0  0
   22.2347  -20.5847  -10.0948 C   0  0  0  0  0  0  0  0  0  0  0  0
   22.6727  -20.8594  -11.3692 C   0  0  0  0  0  0  0  0  0  0  0  0
   23.7196  -20.0639  -12.0653 C   0  0  0  0  0  0  0  0  0  0  0  0
   25.0893  -20.6924  -11.9930 C   0  0  2  0  0  0  0  0  0  0  0  0
   25.5420  -20.8824  -10.6454 N   0  0  0  0  0  0  0  0  0  0  0  0
   26.0435  -19.8168  -12.7977 C   0  0  0  0  0  0  0  0  0  0  0  0
   26.4556  -18.7693  -12.2667 O   0  0  0  0  0  0  0  0  0  0  0  0
   22.0816  -21.9597  -12.0070 C   0  0  0  0  0  0  0  0  0  0  0  0
   21.1136  -22.7314  -11.4006 C   0  0  0  0  0  0  0  0  0  0  0  0
   29.2982  -19.1214  -18.0513 C   0  0  0  0  0  0  0  0  0  0  0  0
   28.0636  -18.8566  -17.2678 C   0  0  2  0  0  0  0  0  0  0  0  0
   27.9291  -17.3808  -16.9274 C   0  0  0  0  0  0  0  0  0  0  0  0
   27.7985  -19.7454  -16.1068 C   0  0  0  0  0  0  0  0  0  0  0  0
   26.5861  -19.5444  -15.2978 C   0  0  2  0  0  0  0  0  0  0  0  0
   26.4172  -20.2223  -14.0905 N   0  0  0  0  0  0  0  0  0  0  0  0
   25.4079  -19.2974  -16.1708 C   0  0  0  0  0  0  0  0  0  0  0  0
   24.7676  -20.2040  -16.7339 O   0  0  0  0  0  0  0  0  0  0  0  0
   24.9410  -17.9630  -16.4101 N   0  0  0  0  0  0  0  0  0  0  0  0
   23.6973  -17.6880  -17.1031 C   0  0  1  0  0  0  0  0  0  0  0  0
   22.6552  -17.0236  -16.2892 C   0  0  0  0  0  0  0  0  0  0  0  0
   21.3520  -17.7379  -16.1201 C   0  0  0  0  0  0  0  0  0  0  0  0
   20.1914  -16.8649  -16.3559 C   0  0  0  0  0  0  0  0  0  0  0  0
   19.7548  -16.5557  -17.4899 O   0  0  0  0  0  0  0  0  0  0  0  0
   23.9715  -16.9431  -18.3420 C   0  0  0  0  0  0  0  0  0  0  0  0
   23.2433  -17.2364  -19.5082 O   0  0  0  0  0  0  0  0  0  0  0  0
   19.4945  -16.3207  -15.2629 O   0  0  0  0  0  0  0  0  0  0  0  0
   24.8350  -16.0399  -18.4112 O   0  0  0  0  0  0  0  0  0  0  0  0
  2  1  1  0
  3  2  2  0
  4  3  1  0
  5  4  2  0
  5 11  1  0
  6  5  1  0
  7  8  1  1
  7  6  1  0
  9 10  2  0
  9  7  1  0
 11 12  2  0
 12  2  1  0
 14 16  1  0
 14 13  1  1
 15 14  1  0
 17 16  1  6
 17 19  1  0
 17 18  1  0
 18  9  1  0
 19 21  1  0
 20 19  2  0
 21 22  1  0
 22 27  1  0
 23 24  1  0
 22 23  1  1
 24 25  1  0
 25 26  2  0
 27 30  2  0
 27 28  1  0
 29 25  1  0
M  END
$$$$
