YLE.pdb
     RDKit          3D

 30 30  0  0  1  0  0  0  0  0999 V2000
   29.0666  -43.2955  -11.1147 O   0  0  0  0  0  0  0  0  0  0  0  0
   29.4103  -42.6192   -9.9370 C   0  0  0  0  0  0  0  0  0  0  0  0
   30.2051  -43.2220   -8.9929 C   0  0  0  0  0  0  0  0  0  0  0  0
   30.5559  -42.5488   -7.8073 C   0  0  0  0  0  0  0  0  0  0  0  0
   30.1192  -41.2698   -7.5532 C   0  0  0  0  0  0  0  0  0  0  0  0
   30.4703  -40.5134   -6.3211 C   0  0  0  0  0  0  0  0  0  0  0  0
   31.5738  -39.5074   -6.5360 C   0  0  2  0  0  0  0  0  0  0  0  0
   32.8314  -40.1218   -6.8492 N   0  0  0  0  0  0  0  0  0  0  0  0
   31.6585  -38.6389   -5.2856 C   0  0  0  0  0  0  0  0  0  0  0  0
   32.2973  -39.0830   -4.3141 O   0  0  0  0  0  0  0  0  0  0  0  0
   29.3097  -40.6817   -8.5359 C   0  0  0  0  0  0  0  0  0  0  0  0
   28.9636  -41.3391   -9.6971 C   0  0  0  0  0  0  0  0  0  0  0  0
   33.0986  -34.3794   -5.2790 C   0  0  0  0  0  0  0  0  0  0  0  0
   31.6641  -34.3314   -5.6642 C   0  0  2  0  0  0  0  0  0  0  0  0
   31.2470  -32.9277   -6.0737 C   0  0  0  0  0  0  0  0  0  0  0  0
   30.6960  -34.9770   -4.7400 C   0  0  0  0  0  0  0  0  0  0  0  0
   30.9040  -36.3737   -4.3271 C   0  0  2  0  0  0  0  0  0  0  0  0
   31.0215  -37.3860   -5.2794 N   0  0  0  0  0  0  0  0  0  0  0  0
   30.2042  -36.6514   -3.0447 C   0  0  0  0  0  0  0  0  0  0  0  0
   29.0620  -37.1412   -2.9770 O   0  0  0  0  0  0  0  0  0  0  0  0
   30.8330  -36.3599   -1.7895 N   0  0  0  0  0  0  0  0  0  0  0  0
   30.2179  -36.6881   -0.5180 C   0  0  1  0  0  0  0  0  0  0  0  0
   31.0612  -37.4798    0.4048 C   0  0  0  0  0  0  0  0  0  0  0  0
   30.4655  -37.8713    1.7198 C   0  0  0  0  0  0  0  0  0  0  0  0
   30.9300  -37.0227    2.8285 C   0  0  0  0  0  0  0  0  0  0  0  0
   30.1914  -36.5765    3.7381 O   0  0  0  0  0  0  0  0  0  0  0  0
   29.7176  -35.4626    0.1244 C   0  0  0  0  0  0  0  0  0  0  0  0
   30.0974  -34.2061   -0.3789 O   0  0  0  0  0  0  0  0  0  0  0  0
   32.2872  -36.6660    2.9124 O   0  0  0  0  0  0  0  0  0  0  0  0
   28.9520  -35.4818    1.1141 O   0  0  0  0  0  0  0  0  0  0  0  0
  2  1  1  0
  3  2  2  0
  4  3  1  0
  5  4  2  0
  5 11  1  0
  6  5  1  0
  7  8  1  1
  7  6  1  0
  9 10  2  0
  9  7  1  0
 11 12  2  0
 12  2  1  0
 14 16  1  0
 14 13  1  1
 15 14  1  0
 17 16  1  6
 17 19  1  0
 17 18  1  0
 18  9  1  0
 19 21  1  0
 20 19  2  0
 21 22  1  0
 22 27  1  0
 23 24  1  0
 22 23  1  1
 24 25  1  0
 25 26  2  0
 27 30  2  0
 27 28  1  0
 29 25  1  0
M  END
$$$$
