YLE.pdb
     RDKit          3D

 30 30  0  0  1  0  0  0  0  0999 V2000
   28.9599  -16.6899  -18.6136 O   0  0  0  0  0  0  0  0  0  0  0  0
   28.3014  -17.3656  -17.5781 C   0  0  0  0  0  0  0  0  0  0  0  0
   27.0531  -17.9022  -17.7784 C   0  0  0  0  0  0  0  0  0  0  0  0
   26.3851  -18.5837  -16.7433 C   0  0  0  0  0  0  0  0  0  0  0  0
   26.9554  -18.7371  -15.5013 C   0  0  0  0  0  0  0  0  0  0  0  0
   26.2947  -19.4567  -14.3793 C   0  0  0  0  0  0  0  0  0  0  0  0
   27.0911  -20.6364  -13.8792 C   0  0  2  0  0  0  0  0  0  0  0  0
   27.2345  -21.6673  -14.8658 N   0  0  0  0  0  0  0  0  0  0  0  0
   26.4143  -21.1485  -12.6125 C   0  0  0  0  0  0  0  0  0  0  0  0
   25.6314  -22.1099  -12.7223 O   0  0  0  0  0  0  0  0  0  0  0  0
   28.2300  -18.1783  -15.3283 C   0  0  0  0  0  0  0  0  0  0  0  0
   28.8857  -17.5094  -16.3397 C   0  0  0  0  0  0  0  0  0  0  0  0
   25.1664  -20.0245   -7.2554 C   0  0  0  0  0  0  0  0  0  0  0  0
   26.4286  -20.7446   -7.5665 C   0  0  2  0  0  0  0  0  0  0  0  0
   27.4463  -20.5876   -6.4477 C   0  0  0  0  0  0  0  0  0  0  0  0
   27.0129  -20.5285   -8.9156 C   0  0  0  0  0  0  0  0  0  0  0  0
   26.1541  -20.6307  -10.1059 C   0  0  2  0  0  0  0  0  0  0  0  0
   26.6984  -20.5242  -11.3858 N   0  0  0  0  0  0  0  0  0  0  0  0
   24.8081  -20.0612   -9.8321 C   0  0  0  0  0  0  0  0  0  0  0  0
   24.6268  -18.9561   -9.2888 O   0  0  0  0  0  0  0  0  0  0  0  0
   23.6215  -20.7804  -10.1935 N   0  0  0  0  0  0  0  0  0  0  0  0
   22.3561  -20.1167  -10.4406 C   0  0  1  0  0  0  0  0  0  0  0  0
   22.0192  -19.9121  -11.8669 C   0  0  0  0  0  0  0  0  0  0  0  0
   21.7926  -21.1307  -12.7041 C   0  0  0  0  0  0  0  0  0  0  0  0
   20.9145  -20.8726  -13.8563 C   0  0  0  0  0  0  0  0  0  0  0  0
   20.3599  -19.7735  -14.0936 O   0  0  0  0  0  0  0  0  0  0  0  0
   21.2779  -20.8182   -9.7262 C   0  0  0  0  0  0  0  0  0  0  0  0
   19.9947  -20.2472   -9.6653 O   0  0  0  0  0  0  0  0  0  0  0  0
   20.6549  -21.9007  -14.7793 O   0  0  0  0  0  0  0  0  0  0  0  0
   21.4469  -21.9222   -9.1618 O   0  0  0  0  0  0  0  0  0  0  0  0
  2  1  1  0
  3  2  2  0
  4  3  1  0
  5  4  2  0
  5 11  1  0
  6  5  1  0
  7  8  1  6
  7  6  1  0
  9 10  2  0
  9  7  1  0
 11 12  2  0
 12  2  1  0
 14 16  1  0
 14 13  1  1
 15 14  1  0
 17 16  1  1
 17 19  1  0
 17 18  1  0
 18  9  1  0
 19 21  1  0
 20 19  2  0
 21 22  1  0
 22 27  1  0
 23 24  1  0
 22 23  1  6
 24 25  1  0
 25 26  2  0
 27 30  2  0
 27 28  1  0
 29 25  1  0
M  END
$$$$
