YLE.pdb
     RDKit          3D

 30 30  0  0  1  0  0  0  0  0999 V2000
   27.5658  -17.1125  -19.7023 O   0  0  0  0  0  0  0  0  0  0  0  0
   27.5051  -17.9992  -18.6194 C   0  0  0  0  0  0  0  0  0  0  0  0
   28.6476  -18.3589  -17.9473 C   0  0  0  0  0  0  0  0  0  0  0  0
   28.5950  -19.2484  -16.8574 C   0  0  0  0  0  0  0  0  0  0  0  0
   27.4043  -19.7858  -16.4276 C   0  0  0  0  0  0  0  0  0  0  0  0
   27.2956  -20.7214  -15.2761 C   0  0  0  0  0  0  0  0  0  0  0  0
   26.4730  -20.1697  -14.1380 C   0  0  2  0  0  0  0  0  0  0  0  0
   27.0128  -18.9539  -13.6019 N   0  0  0  0  0  0  0  0  0  0  0  0
   26.3590  -21.2599  -13.0781 C   0  0  0  0  0  0  0  0  0  0  0  0
   26.3375  -22.4430  -13.4641 O   0  0  0  0  0  0  0  0  0  0  0  0
   26.2560  -19.3994  -17.1340 C   0  0  0  0  0  0  0  0  0  0  0  0
   26.3049  -18.5296  -18.2023 C   0  0  0  0  0  0  0  0  0  0  0  0
   27.6531  -21.5058   -8.8131 C   0  0  0  0  0  0  0  0  0  0  0  0
   26.8502  -20.2571   -8.8819 C   0  0  2  0  0  0  0  0  0  0  0  0
   26.9064  -19.4893   -7.5707 C   0  0  0  0  0  0  0  0  0  0  0  0
   25.4730  -20.3706   -9.4282 C   0  0  0  0  0  0  0  0  0  0  0  0
   25.2667  -20.9339  -10.7717 C   0  0  2  0  0  0  0  0  0  0  0  0
   26.2851  -20.8912  -11.7239 N   0  0  0  0  0  0  0  0  0  0  0  0
   23.8537  -20.7615  -11.2015 C   0  0  0  0  0  0  0  0  0  0  0  0
   22.8779  -20.9928  -10.4644 O   0  0  0  0  0  0  0  0  0  0  0  0
   23.5414  -20.3060  -12.5247 N   0  0  0  0  0  0  0  0  0  0  0  0
   22.1823  -20.0366  -12.9527 C   0  0  1  0  0  0  0  0  0  0  0  0
   22.0569  -19.3340  -14.2490 C   0  0  0  0  0  0  0  0  0  0  0  0
   20.6778  -19.0022  -14.7235 C   0  0  0  0  0  0  0  0  0  0  0  0
   20.6764  -18.2891  -16.0105 C   0  0  0  0  0  0  0  0  0  0  0  0
   19.6554  -17.8009  -16.5501 O   0  0  0  0  0  0  0  0  0  0  0  0
   21.3985  -21.2817  -12.9351 C   0  0  0  0  0  0  0  0  0  0  0  0
   20.0693  -21.2629  -12.4778 O   0  0  0  0  0  0  0  0  0  0  0  0
   21.8810  -18.1197  -16.7152 O   0  0  0  0  0  0  0  0  0  0  0  0
   21.8627  -22.3788  -13.3184 O   0  0  0  0  0  0  0  0  0  0  0  0
  2  1  1  0
  3  2  2  0
  4  3  1  0
  5  4  2  0
  5 11  1  0
  6  5  1  0
  7  8  1  1
  7  6  1  0
  9 10  2  0
  9  7  1  0
 11 12  2  0
 12  2  1  0
 14 16  1  0
 14 13  1  1
 15 14  1  0
 17 16  1  1
 17 19  1  0
 17 18  1  0
 18  9  1  0
 19 21  1  0
 20 19  2  0
 21 22  1  0
 22 27  1  0
 23 24  1  0
 22 23  1  6
 24 25  1  0
 25 26  2  0
 27 30  2  0
 27 28  1  0
 29 25  1  0
M  END
$$$$
