YLE.pdb
     RDKit          3D

 30 30  0  0  1  0  0  0  0  0999 V2000
   28.9774  -15.3953  -19.4865 O   0  0  0  0  0  0  0  0  0  0  0  0
   28.3922  -16.2384  -18.5331 C   0  0  0  0  0  0  0  0  0  0  0  0
   28.7872  -16.1854  -17.2187 C   0  0  0  0  0  0  0  0  0  0  0  0
   28.2033  -17.0285  -16.2542 C   0  0  0  0  0  0  0  0  0  0  0  0
   27.2208  -17.9300  -16.5908 C   0  0  0  0  0  0  0  0  0  0  0  0
   26.5667  -18.8345  -15.6073 C   0  0  0  0  0  0  0  0  0  0  0  0
   27.4734  -19.9376  -15.1202 C   0  0  2  0  0  0  0  0  0  0  0  0
   27.9754  -20.7547  -16.1867 N   0  0  0  0  0  0  0  0  0  0  0  0
   26.6982  -20.7541  -14.0919 C   0  0  0  0  0  0  0  0  0  0  0  0
   26.0773  -21.7544  -14.4955 O   0  0  0  0  0  0  0  0  0  0  0  0
   26.8394  -17.9601  -17.9400 C   0  0  0  0  0  0  0  0  0  0  0  0
   27.4103  -17.1367  -18.8867 C   0  0  0  0  0  0  0  0  0  0  0  0
   24.3739  -21.5126   -9.3521 C   0  0  0  0  0  0  0  0  0  0  0  0
   25.7606  -21.0439   -9.0953 C   0  0  2  0  0  0  0  0  0  0  0  0
   25.8044  -20.0433   -7.9512 C   0  0  0  0  0  0  0  0  0  0  0  0
   26.5549  -20.6109  -10.2742 C   0  0  0  0  0  0  0  0  0  0  0  0
   25.9769  -20.7231  -11.6226 C   0  0  2  0  0  0  0  0  0  0  0  0
   26.7162  -20.3513  -12.7455 N   0  0  0  0  0  0  0  0  0  0  0  0
   24.5133  -20.4623  -11.5893 C   0  0  0  0  0  0  0  0  0  0  0  0
   23.8346  -20.4852  -10.5463 O   0  0  0  0  0  0  0  0  0  0  0  0
   23.7956  -20.1624  -12.7938 N   0  0  0  0  0  0  0  0  0  0  0  0
   22.6700  -20.9572  -13.2455 C   0  0  1  0  0  0  0  0  0  0  0  0
   21.3915  -20.6932  -12.5488 C   0  0  0  0  0  0  0  0  0  0  0  0
   20.1721  -21.3965  -13.0544 C   0  0  0  0  0  0  0  0  0  0  0  0
   18.9711  -21.0920  -12.2608 C   0  0  0  0  0  0  0  0  0  0  0  0
   18.1853  -20.1442  -12.4980 O   0  0  0  0  0  0  0  0  0  0  0  0
   22.5258  -20.8327  -14.7045 C   0  0  0  0  0  0  0  0  0  0  0  0
   21.6562  -21.6942  -15.3957 O   0  0  0  0  0  0  0  0  0  0  0  0
   18.6446  -21.8947  -11.1538 O   0  0  0  0  0  0  0  0  0  0  0  0
   23.1475  -19.9784  -15.3752 O   0  0  0  0  0  0  0  0  0  0  0  0
  2  1  1  0
  3  2  2  0
  4  3  1  0
  5  4  2  0
  5 11  1  0
  6  5  1  0
  7  8  1  6
  7  6  1  0
  9 10  2  0
  9  7  1  0
 11 12  2  0
 12  2  1  0
 14 16  1  0
 14 13  1  6
 15 14  1  0
 17 16  1  1
 17 19  1  0
 17 18  1  0
 18  9  1  0
 19 21  1  0
 20 19  2  0
 21 22  1  0
 22 27  1  0
 23 24  1  0
 22 23  1  1
 24 25  1  0
 25 26  2  0
 27 30  2  0
 27 28  1  0
 29 25  1  0
M  END
$$$$
