TKY.pdb
     RDKit          3D

 29 29  0  0  1  0  0  0  0  0999 V2000
   12.9688  -10.5091  -20.0006 C   0  0  0  0  0  0  0  0  0  0  0  0
   14.3046  -10.9216  -19.4068 C   0  0  1  0  0  0  0  0  0  0  0  0
   14.5207  -12.2859  -19.5052 O   0  0  0  0  0  0  0  0  0  0  0  0
   15.4087  -10.1995  -20.0904 C   0  0  2  0  0  0  0  0  0  0  0  0
   15.7786  -10.7811  -21.3556 N   0  0  0  0  0  0  0  0  0  0  0  0
   16.6046  -10.1598  -19.2217 C   0  0  0  0  0  0  0  0  0  0  0  0
   16.5375   -9.6600  -18.0490 O   0  0  0  0  0  0  0  0  0  0  0  0
   17.8654  -10.6659  -19.6251 N   0  0  0  0  0  0  0  0  0  0  0  0
   19.0023  -10.7482  -18.7777 C   0  0  1  0  0  0  0  0  0  0  0  0
   20.0064  -11.7976  -19.0378 C   0  0  0  0  0  0  0  0  0  0  0  0
   19.5715  -13.2149  -18.9390 C   0  0  0  0  0  0  0  0  0  0  0  0
   20.5926  -14.2606  -19.1870 C   0  0  0  0  0  0  0  0  0  0  0  0
   19.8624  -15.6132  -19.0978 C   0  0  0  0  0  0  0  0  0  0  0  0
   20.8005  -16.6985  -19.3295 N   0  0  0  0  0  0  0  0  0  0  0  0
   19.6675   -9.3890  -18.6964 C   0  0  0  0  0  0  0  0  0  0  0  0
   19.9615   -8.7869  -19.7634 O   0  0  0  0  0  0  0  0  0  0  0  0
   20.7347   -8.0977  -11.2044 O   0  0  0  0  0  0  0  0  0  0  0  0
   20.6017   -7.6697  -12.5233 C   0  0  0  0  0  0  0  0  0  0  0  0
   19.5255   -8.1749  -13.2426 C   0  0  0  0  0  0  0  0  0  0  0  0
   19.3407   -7.7895  -14.5566 C   0  0  0  0  0  0  0  0  0  0  0  0
   20.2165   -6.9005  -15.1724 C   0  0  0  0  0  0  0  0  0  0  0  0
   19.9819   -6.5111  -16.5696 C   0  0  0  0  0  0  0  0  0  0  0  0
   20.6440   -7.4711  -17.5012 C   0  0  2  0  0  0  0  0  0  0  0  0
   19.9772   -8.7599  -17.4884 N   0  0  0  0  0  0  0  0  0  0  0  0
   22.1009   -7.6700  -17.2323 C   0  0  0  0  0  0  0  0  0  0  0  0
   22.9885   -6.6160  -17.4149 O   0  0  0  0  0  0  0  0  0  0  0  0
   21.2650   -6.4289  -14.4155 C   0  0  0  0  0  0  0  0  0  0  0  0
   21.4712   -6.7961  -13.1097 C   0  0  0  0  0  0  0  0  0  0  0  0
   22.6017   -8.7512  -16.8442 O   0  0  0  0  0  0  0  0  0  0  0  0
  2  3  1  0
  2  1  1  6
  4  2  1  0
  4  5  1  6
  6  7  2  0
  6  4  1  0
  8  6  1  0
  9  8  1  0
  9 10  1  6
 11 12  1  0
 11 10  1  0
 12 13  1  0
 14 13  1  0
 15 24  1  0
 15  9  1  0
 16 15  2  0
 18 17  1  0
 19 18  2  0
 20 19  1  0
 21 27  1  0
 21 20  2  0
 23 22  1  1
 22 21  1  0
 23 24  1  0
 23 25  1  0
 25 26  1  0
 27 28  2  0
 28 18  1  0
 29 25  2  0
M  END
$$$$
