TKY.pdb
     RDKit          3D

 29 29  0  0  1  0  0  0  0  0999 V2000
   22.4228  -33.9887  -10.4003 C   0  0  0  0  0  0  0  0  0  0  0  0
   22.5433  -32.4945  -10.6453 C   0  0  1  0  0  0  0  0  0  0  0  0
   22.6977  -32.1966  -11.9888 O   0  0  0  0  0  0  0  0  0  0  0  0
   21.3406  -31.7958  -10.1230 C   0  0  2  0  0  0  0  0  0  0  0  0
   21.2785  -30.4047  -10.4930 N   0  0  0  0  0  0  0  0  0  0  0  0
   21.2959  -31.8942   -8.6483 C   0  0  0  0  0  0  0  0  0  0  0  0
   21.4951  -30.8624   -7.9236 O   0  0  0  0  0  0  0  0  0  0  0  0
   21.0308  -33.1079   -7.9660 N   0  0  0  0  0  0  0  0  0  0  0  0
   20.9006  -33.2206   -6.5562 C   0  0  1  0  0  0  0  0  0  0  0  0
   19.7034  -33.8842   -6.0054 C   0  0  0  0  0  0  0  0  0  0  0  0
   19.5460  -33.9187   -4.5282 C   0  0  0  0  0  0  0  0  0  0  0  0
   18.3428  -34.5938   -3.9860 C   0  0  0  0  0  0  0  0  0  0  0  0
   18.4475  -34.5065   -2.4524 C   0  0  0  0  0  0  0  0  0  0  0  0
   17.2728  -35.1050   -1.8410 N   0  0  0  0  0  0  0  0  0  0  0  0
   22.1591  -33.8410   -5.9836 C   0  0  0  0  0  0  0  0  0  0  0  0
   22.8989  -34.5294   -6.7361 O   0  0  0  0  0  0  0  0  0  0  0  0
   30.2421  -34.4356   -3.9338 O   0  0  0  0  0  0  0  0  0  0  0  0
   28.9082  -34.0961   -4.1474 C   0  0  0  0  0  0  0  0  0  0  0  0
   28.4477  -34.1506   -5.4573 C   0  0  0  0  0  0  0  0  0  0  0  0
   27.1340  -33.8234   -5.7339 C   0  0  0  0  0  0  0  0  0  0  0  0
   26.2622  -33.4404   -4.7191 C   0  0  0  0  0  0  0  0  0  0  0  0
   24.8711  -33.1059   -5.0538 C   0  0  0  0  0  0  0  0  0  0  0  0
   23.9237  -33.9527   -4.2708 C   0  0  2  0  0  0  0  0  0  0  0  0
   22.5480  -33.6902   -4.6506 N   0  0  0  0  0  0  0  0  0  0  0  0
   24.0604  -33.8047   -2.7896 C   0  0  0  0  0  0  0  0  0  0  0  0
   24.9449  -34.6186   -2.0916 O   0  0  0  0  0  0  0  0  0  0  0  0
   26.7681  -33.4042   -3.4394 C   0  0  0  0  0  0  0  0  0  0  0  0
   28.0680  -33.7234   -3.1382 C   0  0  0  0  0  0  0  0  0  0  0  0
   23.4152  -32.9772   -2.1045 O   0  0  0  0  0  0  0  0  0  0  0  0
  2  3  1  0
  2  1  1  6
  4  2  1  0
  4  5  1  1
  6  7  2  0
  6  4  1  0
  8  6  1  0
  9  8  1  0
  9 10  1  6
 11 12  1  0
 11 10  1  0
 12 13  1  0
 14 13  1  0
 15 24  1  0
 15  9  1  0
 16 15  2  0
 18 17  1  0
 19 18  2  0
 20 19  1  0
 21 27  1  0
 21 20  2  0
 23 22  1  6
 22 21  1  0
 23 24  1  0
 23 25  1  0
 25 26  1  0
 27 28  2  0
 28 18  1  0
 29 25  2  0
M  END
$$$$
