TKY.pdb
     RDKit          3D

 29 29  0  0  1  0  0  0  0  0999 V2000
   25.1989  -12.7144  -16.4217 C   0  0  0  0  0  0  0  0  0  0  0  0
   24.8349  -11.3046  -16.8544 C   0  0  1  0  0  0  0  0  0  0  0  0
   24.8786  -11.1532  -18.2302 O   0  0  0  0  0  0  0  0  0  0  0  0
   23.4750  -10.9587  -16.3657 C   0  0  2  0  0  0  0  0  0  0  0  0
   22.4248  -11.6978  -17.0189 N   0  0  0  0  0  0  0  0  0  0  0  0
   23.2207   -9.5139  -16.5508 C   0  0  0  0  0  0  0  0  0  0  0  0
   23.9512   -8.6469  -15.9641 O   0  0  0  0  0  0  0  0  0  0  0  0
   22.1803   -9.0153  -17.3739 N   0  0  0  0  0  0  0  0  0  0  0  0
   21.8976   -7.6356  -17.5574 C   0  0  1  0  0  0  0  0  0  0  0  0
   21.1801   -7.2145  -18.7760 C   0  0  0  0  0  0  0  0  0  0  0  0
   21.8680   -7.3868  -20.0817 C   0  0  0  0  0  0  0  0  0  0  0  0
   21.1048   -7.0436  -21.3054 C   0  0  0  0  0  0  0  0  0  0  0  0
   22.0445   -7.3119  -22.4952 C   0  0  0  0  0  0  0  0  0  0  0  0
   21.3344   -7.0983  -23.7449 N   0  0  0  0  0  0  0  0  0  0  0  0
   21.2034   -7.0966  -16.3228 C   0  0  0  0  0  0  0  0  0  0  0  0
   20.1982   -7.7068  -15.8706 O   0  0  0  0  0  0  0  0  0  0  0  0
   18.4097   -4.3821   -8.7894 O   0  0  0  0  0  0  0  0  0  0  0  0
   19.1662   -4.8395   -9.8659 C   0  0  0  0  0  0  0  0  0  0  0  0
   19.6875   -3.8770  -10.7219 C   0  0  0  0  0  0  0  0  0  0  0  0
   20.4450   -4.2681  -11.8094 C   0  0  0  0  0  0  0  0  0  0  0  0
   20.6959   -5.6136  -12.0610 C   0  0  0  0  0  0  0  0  0  0  0  0
   21.5111   -5.9879  -13.2248 C   0  0  0  0  0  0  0  0  0  0  0  0
   20.8878   -5.4886  -14.4858 C   0  0  2  0  0  0  0  0  0  0  0  0
   21.6218   -5.9456  -15.6512 N   0  0  0  0  0  0  0  0  0  0  0  0
   20.7487   -4.0014  -14.5459 C   0  0  0  0  0  0  0  0  0  0  0  0
   19.6100   -3.3917  -14.0326 O   0  0  0  0  0  0  0  0  0  0  0  0
   20.1578   -6.5260  -11.1821 C   0  0  0  0  0  0  0  0  0  0  0  0
   19.4020   -6.1642  -10.0958 C   0  0  0  0  0  0  0  0  0  0  0  0
   21.6074   -3.2358  -15.0426 O   0  0  0  0  0  0  0  0  0  0  0  0
  2  3  1  0
  2  1  1  6
  4  2  1  0
  4  5  1  6
  6  7  2  0
  6  4  1  0
  8  6  1  0
  9  8  1  0
  9 10  1  6
 11 12  1  0
 11 10  1  0
 12 13  1  0
 14 13  1  0
 15 24  1  0
 15  9  1  0
 16 15  2  0
 18 17  1  0
 19 18  2  0
 20 19  1  0
 21 27  1  0
 21 20  2  0
 23 22  1  1
 22 21  1  0
 23 24  1  0
 23 25  1  0
 25 26  1  0
 27 28  2  0
 28 18  1  0
 29 25  2  0
M  END
$$$$
