TKY.pdb
     RDKit          3D

 29 29  0  0  1  0  0  0  0  0999 V2000
   27.1573  -25.6665  -17.7967 C   0  0  0  0  0  0  0  0  0  0  0  0
   28.4551  -26.2827  -17.3034 C   0  0  1  0  0  0  0  0  0  0  0  0
   28.6324  -27.5728  -17.7743 O   0  0  0  0  0  0  0  0  0  0  0  0
   29.6073  -25.4442  -17.7242 C   0  0  2  0  0  0  0  0  0  0  0  0
   30.8767  -25.9320  -17.2483 N   0  0  0  0  0  0  0  0  0  0  0  0
   29.4266  -24.0562  -17.2478 C   0  0  0  0  0  0  0  0  0  0  0  0
   29.8491  -23.7064  -16.0951 O   0  0  0  0  0  0  0  0  0  0  0  0
   28.7942  -23.0528  -18.0236 N   0  0  0  0  0  0  0  0  0  0  0  0
   28.6478  -21.7002  -17.6158 C   0  0  1  0  0  0  0  0  0  0  0  0
   28.3287  -20.6825  -18.6353 C   0  0  0  0  0  0  0  0  0  0  0  0
   29.4600  -20.0358  -19.3492 C   0  0  0  0  0  0  0  0  0  0  0  0
   29.6850  -20.4225  -20.7626 C   0  0  0  0  0  0  0  0  0  0  0  0
   30.8513  -19.5557  -21.2716 C   0  0  0  0  0  0  0  0  0  0  0  0
   31.2311  -19.9735  -22.6105 N   0  0  0  0  0  0  0  0  0  0  0  0
   27.6610  -21.6258  -16.4680 C   0  0  0  0  0  0  0  0  0  0  0  0
   26.6970  -22.4363  -16.4364 O   0  0  0  0  0  0  0  0  0  0  0  0
   23.5079  -20.3554   -8.9819 O   0  0  0  0  0  0  0  0  0  0  0  0
   24.4944  -20.3317   -9.9651 C   0  0  0  0  0  0  0  0  0  0  0  0
   24.6442  -21.4801  -10.7330 C   0  0  0  0  0  0  0  0  0  0  0  0
   25.6072  -21.5191  -11.7232 C   0  0  0  0  0  0  0  0  0  0  0  0
   26.4307  -20.4237  -11.9651 C   0  0  0  0  0  0  0  0  0  0  0  0
   27.4388  -20.5031  -13.0312 C   0  0  0  0  0  0  0  0  0  0  0  0
   26.7861  -20.7086  -14.3577 C   0  0  2  0  0  0  0  0  0  0  0  0
   27.7626  -20.6956  -15.4310 N   0  0  0  0  0  0  0  0  0  0  0  0
   25.7084  -19.7187  -14.6630 C   0  0  0  0  0  0  0  0  0  0  0  0
   26.0021  -18.5848  -15.4113 O   0  0  0  0  0  0  0  0  0  0  0  0
   26.2403  -19.3110  -11.1775 C   0  0  0  0  0  0  0  0  0  0  0  0
   25.2922  -19.2468  -10.1878 C   0  0  0  0  0  0  0  0  0  0  0  0
   24.5205  -19.8346  -14.2812 O   0  0  0  0  0  0  0  0  0  0  0  0
  2  3  1  0
  2  1  1  6
  4  2  1  0
  4  5  1  1
  6  7  2  0
  6  4  1  0
  8  6  1  0
  9  8  1  0
  9 10  1  6
 11 12  1  0
 11 10  1  0
 12 13  1  0
 14 13  1  0
 15 24  1  0
 15  9  1  0
 16 15  2  0
 18 17  1  0
 19 18  2  0
 20 19  1  0
 21 27  1  0
 21 20  2  0
 23 22  1  1
 22 21  1  0
 23 24  1  0
 23 25  1  0
 25 26  1  0
 27 28  2  0
 28 18  1  0
 29 25  2  0
M  END
$$$$
