TKY.pdb
     RDKit          3D

 29 29  0  0  1  0  0  0  0  0999 V2000
   19.9314  -13.1965  -16.3803 C   0  0  0  0  0  0  0  0  0  0  0  0
   20.0960  -11.6896  -16.4765 C   0  0  1  0  0  0  0  0  0  0  0  0
   20.7685  -11.1671  -15.3846 O   0  0  0  0  0  0  0  0  0  0  0  0
   20.8301  -11.3373  -17.7193 C   0  0  2  0  0  0  0  0  0  0  0  0
   22.1363  -11.9392  -17.8049 N   0  0  0  0  0  0  0  0  0  0  0  0
   20.9791   -9.8699  -17.8231 C   0  0  0  0  0  0  0  0  0  0  0  0
   22.0925   -9.3548  -18.1760 O   0  0  0  0  0  0  0  0  0  0  0  0
   19.9206   -8.9680  -17.5494 N   0  0  0  0  0  0  0  0  0  0  0  0
   19.9759   -7.5709  -17.7986 C   0  0  1  0  0  0  0  0  0  0  0  0
   18.9085   -6.9519  -18.6076 C   0  0  0  0  0  0  0  0  0  0  0  0
   19.0416   -5.5117  -18.9482 C   0  0  0  0  0  0  0  0  0  0  0  0
   17.9553   -4.8966  -19.7478 C   0  0  0  0  0  0  0  0  0  0  0  0
   18.3970   -3.4520  -20.0455 C   0  0  0  0  0  0  0  0  0  0  0  0
   17.3606   -2.7617  -20.7945 N   0  0  0  0  0  0  0  0  0  0  0  0
   20.1390   -6.8325  -16.4853 C   0  0  0  0  0  0  0  0  0  0  0  0
   19.3730   -7.1145  -15.5256 O   0  0  0  0  0  0  0  0  0  0  0  0
   24.1906  -10.6779  -14.3061 O   0  0  0  0  0  0  0  0  0  0  0  0
   23.7421   -9.3594  -14.2738 C   0  0  0  0  0  0  0  0  0  0  0  0
   24.2320   -8.5047  -15.2538 C   0  0  0  0  0  0  0  0  0  0  0  0
   23.8259   -7.1840  -15.2736 C   0  0  0  0  0  0  0  0  0  0  0  0
   22.9313   -6.6953  -14.3264 C   0  0  0  0  0  0  0  0  0  0  0  0
   22.5198   -5.2860  -14.3853 C   0  0  0  0  0  0  0  0  0  0  0  0
   21.1658   -5.1589  -15.0005 C   0  0  2  0  0  0  0  0  0  0  0  0
   21.1034   -5.8435  -16.2784 N   0  0  0  0  0  0  0  0  0  0  0  0
   20.7108   -3.7461  -15.1781 C   0  0  0  0  0  0  0  0  0  0  0  0
   20.5882   -2.9143  -14.0713 O   0  0  0  0  0  0  0  0  0  0  0  0
   22.4754   -7.5834  -13.3787 C   0  0  0  0  0  0  0  0  0  0  0  0
   22.8632   -8.8988  -13.3365 C   0  0  0  0  0  0  0  0  0  0  0  0
   20.4185   -3.2370  -16.2852 O   0  0  0  0  0  0  0  0  0  0  0  0
  2  3  1  0
  2  1  1  1
  4  2  1  0
  4  5  1  1
  6  7  2  0
  6  4  1  0
  8  6  1  0
  9  8  1  0
  9 10  1  1
 11 12  1  0
 11 10  1  0
 12 13  1  0
 14 13  1  0
 15 24  1  0
 15  9  1  0
 16 15  2  0
 18 17  1  0
 19 18  2  0
 20 19  1  0
 21 27  1  0
 21 20  2  0
 23 22  1  6
 22 21  1  0
 23 24  1  0
 23 25  1  0
 25 26  1  0
 27 28  2  0
 28 18  1  0
 29 25  2  0
M  END
$$$$
