TKY.pdb
     RDKit          3D

 29 29  0  0  1  0  0  0  0  0999 V2000
   28.8717  -25.6127    9.0546 C   0  0  0  0  0  0  0  0  0  0  0  0
   30.1606  -26.0671    9.7175 C   0  0  1  0  0  0  0  0  0  0  0  0
   31.0942  -25.0476    9.7973 O   0  0  0  0  0  0  0  0  0  0  0  0
   29.8760  -26.5796   11.0829 C   0  0  2  0  0  0  0  0  0  0  0  0
   31.0588  -26.9642   11.8101 N   0  0  0  0  0  0  0  0  0  0  0  0
   28.9676  -27.7439   11.0096 C   0  0  0  0  0  0  0  0  0  0  0  0
   29.4095  -28.8898   10.6614 O   0  0  0  0  0  0  0  0  0  0  0  0
   27.5868  -27.6630   11.3187 N   0  0  0  0  0  0  0  0  0  0  0  0
   26.6836  -28.7560   11.2365 C   0  0  1  0  0  0  0  0  0  0  0  0
   25.4206  -28.6911   11.9966 C   0  0  0  0  0  0  0  0  0  0  0  0
   25.4956  -28.7830   13.4777 C   0  0  0  0  0  0  0  0  0  0  0  0
   24.2213  -28.7068   14.2313 C   0  0  0  0  0  0  0  0  0  0  0  0
   24.5873  -28.8367   15.7213 C   0  0  0  0  0  0  0  0  0  0  0  0
   23.3874  -28.7439   16.5357 N   0  0  0  0  0  0  0  0  0  0  0  0
   26.4081  -29.0715    9.7801 C   0  0  0  0  0  0  0  0  0  0  0  0
   26.4867  -28.1466    8.9282 O   0  0  0  0  0  0  0  0  0  0  0  0
   26.5532  -31.7404    1.7182 O   0  0  0  0  0  0  0  0  0  0  0  0
   26.6612  -31.3127    3.0395 C   0  0  0  0  0  0  0  0  0  0  0  0
   27.2448  -32.1953    3.9402 C   0  0  0  0  0  0  0  0  0  0  0  0
   27.3784  -31.8295    5.2660 C   0  0  0  0  0  0  0  0  0  0  0  0
   26.9379  -30.5880    5.7146 C   0  0  0  0  0  0  0  0  0  0  0  0
   27.1035  -30.2347    7.1312 C   0  0  0  0  0  0  0  0  0  0  0  0
   25.8731  -30.5741    7.9050 C   0  0  2  0  0  0  0  0  0  0  0  0
   26.0666  -30.3472    9.3251 N   0  0  0  0  0  0  0  0  0  0  0  0
   25.3901  -31.9728    7.6931 C   0  0  0  0  0  0  0  0  0  0  0  0
   25.5262  -32.9130    8.7077 O   0  0  0  0  0  0  0  0  0  0  0  0
   26.3686  -29.7510    4.7818 C   0  0  0  0  0  0  0  0  0  0  0  0
   26.2235  -30.0901    3.4603 C   0  0  0  0  0  0  0  0  0  0  0  0
   24.8562  -32.3779    6.6343 O   0  0  0  0  0  0  0  0  0  0  0  0
  2  3  1  0
  2  1  1  1
  4  2  1  0
  4  5  1  6
  6  7  2  0
  6  4  1  0
  8  6  1  0
  9  8  1  0
  9 10  1  1
 11 12  1  0
 11 10  1  0
 12 13  1  0
 14 13  1  0
 15 24  1  0
 15  9  1  0
 16 15  2  0
 18 17  1  0
 19 18  2  0
 20 19  1  0
 21 27  1  0
 21 20  2  0
 23 22  1  6
 22 21  1  0
 23 24  1  0
 23 25  1  0
 25 26  1  0
 27 28  2  0
 28 18  1  0
 29 25  2  0
M  END
$$$$
