TKY.pdb
     RDKit          3D

 29 29  0  0  1  0  0  0  0  0999 V2000
   28.5426  -28.2337  -19.7503 C   0  0  0  0  0  0  0  0  0  0  0  0
   27.9878  -27.0945  -18.9127 C   0  0  1  0  0  0  0  0  0  0  0  0
   26.7792  -27.4219  -18.3214 O   0  0  0  0  0  0  0  0  0  0  0  0
   28.9639  -26.7179  -17.8577 C   0  0  2  0  0  0  0  0  0  0  0  0
   29.2248  -27.7740  -16.9131 N   0  0  0  0  0  0  0  0  0  0  0  0
   28.4808  -25.5321  -17.1182 C   0  0  0  0  0  0  0  0  0  0  0  0
   28.1842  -25.6173  -15.8795 O   0  0  0  0  0  0  0  0  0  0  0  0
   28.3262  -24.2593  -17.7221 N   0  0  0  0  0  0  0  0  0  0  0  0
   27.8740  -23.0994  -17.0383 C   0  0  1  0  0  0  0  0  0  0  0  0
   28.0655  -21.7816  -17.6737 C   0  0  0  0  0  0  0  0  0  0  0  0
   27.4034  -20.6068  -17.0497 C   0  0  0  0  0  0  0  0  0  0  0  0
   27.6563  -19.2786  -17.6578 C   0  0  0  0  0  0  0  0  0  0  0  0
   26.8767  -18.2558  -16.8112 C   0  0  0  0  0  0  0  0  0  0  0  0
   27.5824  -18.0031  -15.5662 N   0  0  0  0  0  0  0  0  0  0  0  0
   26.4250  -23.2865  -16.6360 C   0  0  0  0  0  0  0  0  0  0  0  0
   25.5927  -23.6623  -17.5040 O   0  0  0  0  0  0  0  0  0  0  0  0
   23.5672  -19.4949  -10.1439 O   0  0  0  0  0  0  0  0  0  0  0  0
   23.8469  -20.5802  -10.9709 C   0  0  0  0  0  0  0  0  0  0  0  0
   22.8490  -20.9699  -11.8559 C   0  0  0  0  0  0  0  0  0  0  0  0
   23.0657  -22.0412  -12.7013 C   0  0  0  0  0  0  0  0  0  0  0  0
   24.2705  -22.7372  -12.6814 C   0  0  0  0  0  0  0  0  0  0  0  0
   24.4637  -23.8673  -13.6005 C   0  0  0  0  0  0  0  0  0  0  0  0
   24.5808  -23.3859  -15.0085 C   0  0  2  0  0  0  0  0  0  0  0  0
   25.9557  -23.0613  -15.3399 N   0  0  0  0  0  0  0  0  0  0  0  0
   23.7103  -22.2117  -15.3221 C   0  0  0  0  0  0  0  0  0  0  0  0
   22.3939  -22.4130  -15.7201 O   0  0  0  0  0  0  0  0  0  0  0  0
   25.2259  -22.3100  -11.7874 C   0  0  0  0  0  0  0  0  0  0  0  0
   25.0358  -21.2501  -10.9371 C   0  0  0  0  0  0  0  0  0  0  0  0
   24.0894  -21.0192  -15.2542 O   0  0  0  0  0  0  0  0  0  0  0  0
  2  3  1  0
  2  1  1  1
  4  2  1  0
  4  5  1  1
  6  7  2  0
  6  4  1  0
  8  6  1  0
  9  8  1  0
  9 10  1  6
 11 12  1  0
 11 10  1  0
 12 13  1  0
 14 13  1  0
 15 24  1  0
 15  9  1  0
 16 15  2  0
 18 17  1  0
 19 18  2  0
 20 19  1  0
 21 27  1  0
 21 20  2  0
 23 22  1  1
 22 21  1  0
 23 24  1  0
 23 25  1  0
 25 26  1  0
 27 28  2  0
 28 18  1  0
 29 25  2  0
M  END
$$$$
