TKY.pdb
     RDKit          3D

 29 29  0  0  1  0  0  0  0  0999 V2000
   15.8571  -24.1125   -5.8450 C   0  0  0  0  0  0  0  0  0  0  0  0
   16.4234  -24.6877   -4.5583 C   0  0  1  0  0  0  0  0  0  0  0  0
   15.4476  -24.8655   -3.5920 O   0  0  0  0  0  0  0  0  0  0  0  0
   17.0853  -25.9895   -4.8323 C   0  0  2  0  0  0  0  0  0  0  0  0
   17.7570  -26.5449   -3.6851 N   0  0  0  0  0  0  0  0  0  0  0  0
   18.0675  -25.8397   -5.9274 C   0  0  0  0  0  0  0  0  0  0  0  0
   19.2636  -25.4694   -5.6791 O   0  0  0  0  0  0  0  0  0  0  0  0
   17.7511  -26.0965   -7.2848 N   0  0  0  0  0  0  0  0  0  0  0  0
   18.6851  -26.0190   -8.3520 C   0  0  1  0  0  0  0  0  0  0  0  0
   18.6820  -27.0814   -9.3759 C   0  0  0  0  0  0  0  0  0  0  0  0
   19.6981  -27.0068  -10.4575 C   0  0  0  0  0  0  0  0  0  0  0  0
   19.7618  -28.1386  -11.4128 C   0  0  0  0  0  0  0  0  0  0  0  0
   20.9295  -27.8365  -12.3698 C   0  0  0  0  0  0  0  0  0  0  0  0
   21.0257  -28.8785  -13.3780 N   0  0  0  0  0  0  0  0  0  0  0  0
   18.5889  -24.6552   -9.0056 C   0  0  0  0  0  0  0  0  0  0  0  0
   17.4510  -24.1612   -9.2261 O   0  0  0  0  0  0  0  0  0  0  0  0
   20.1267  -17.2906  -13.3781 O   0  0  0  0  0  0  0  0  0  0  0  0
   20.3168  -18.4643  -12.6524 C   0  0  0  0  0  0  0  0  0  0  0  0
   20.0565  -18.4093  -11.2886 C   0  0  0  0  0  0  0  0  0  0  0  0
   20.2283  -19.5406  -10.5140 C   0  0  0  0  0  0  0  0  0  0  0  0
   20.6578  -20.7374  -11.0793 C   0  0  0  0  0  0  0  0  0  0  0  0
   20.8227  -21.9195  -10.2223 C   0  0  0  0  0  0  0  0  0  0  0  0
   19.5241  -22.6376  -10.0615 C   0  0  2  0  0  0  0  0  0  0  0  0
   19.7066  -23.9069   -9.3824 N   0  0  0  0  0  0  0  0  0  0  0  0
   18.7961  -22.8690  -11.3465 C   0  0  0  0  0  0  0  0  0  0  0  0
   19.1915  -23.9008  -12.1897 O   0  0  0  0  0  0  0  0  0  0  0  0
   20.9004  -20.7385  -12.4342 C   0  0  0  0  0  0  0  0  0  0  0  0
   20.7383  -19.6294  -13.2254 C   0  0  0  0  0  0  0  0  0  0  0  0
   17.8254  -22.1794  -11.7370 O   0  0  0  0  0  0  0  0  0  0  0  0
  2  3  1  0
  2  1  1  6
  4  2  1  0
  4  5  1  1
  6  7  2  0
  6  4  1  0
  8  6  1  0
  9  8  1  0
  9 10  1  6
 11 12  1  0
 11 10  1  0
 12 13  1  0
 14 13  1  0
 15 24  1  0
 15  9  1  0
 16 15  2  0
 18 17  1  0
 19 18  2  0
 20 19  1  0
 21 27  1  0
 21 20  2  0
 23 22  1  6
 22 21  1  0
 23 24  1  0
 23 25  1  0
 25 26  1  0
 27 28  2  0
 28 18  1  0
 29 25  2  0
M  END
$$$$
