VCL.pdb
     RDKit          3D

 22 21  0  0  1  0  0  0  0  0999 V2000
   26.3270  -26.1879  -16.4017 C   0  0  0  0  0  0  0  0  0  0  0  0
   25.1130  -26.2298  -17.3044 C   0  0  2  0  0  0  0  0  0  0  0  0
   25.0388  -27.5767  -17.9771 C   0  0  0  0  0  0  0  0  0  0  0  0
   25.1830  -25.1036  -18.3193 C   0  0  2  0  0  0  0  0  0  0  0  0
   26.3453  -25.3203  -19.1292 N   0  0  0  0  0  0  0  0  0  0  0  0
   25.2192  -23.7790  -17.6360 C   0  0  0  0  0  0  0  0  0  0  0  0
   26.3487  -23.2074  -17.5577 O   0  0  0  0  0  0  0  0  0  0  0  0
   24.0677  -23.1845  -17.1022 N   0  0  0  0  0  0  0  0  0  0  0  0
   24.1395  -21.8486  -16.4790 C   0  0  1  0  0  0  0  0  0  0  0  0
   23.0603  -21.0109  -17.0780 C   0  0  0  0  0  0  0  0  0  0  0  0
   22.5750  -19.5592  -16.1651 S   0  0  0  0  0  0  0  0  0  0  0  0
   24.0254  -21.9848  -15.0364 C   0  0  0  0  0  0  0  0  0  0  0  0
   23.1785  -22.7932  -14.5005 O   0  0  0  0  0  0  0  0  0  0  0  0
   24.0783  -20.3583   -9.9273 C   0  0  0  0  0  0  0  0  0  0  0  0
   25.4144  -20.9897  -10.3125 C   0  0  2  0  0  0  0  0  0  0  0  0
   26.4895  -20.5326   -9.4091 C   0  0  0  0  0  0  0  0  0  0  0  0
   25.6451  -20.9154  -11.7829 C   0  0  0  0  0  0  0  0  0  0  0  0
   24.5562  -21.3567  -12.6881 C   0  0  2  0  0  0  0  0  0  0  0  0
   24.8190  -21.2654  -14.1164 N   0  0  0  0  0  0  0  0  0  0  0  0
   23.2923  -20.5726  -12.3913 C   0  0  0  0  0  0  0  0  0  0  0  0
   22.3514  -21.2301  -11.9016 O   0  0  0  0  0  0  0  0  0  0  0  0
   23.1226  -19.2364  -12.6208 O   0  0  0  0  0  0  0  0  0  0  0  0
  2  1  1  1
  2  3  1  0
  4  2  1  0
  4  5  1  1
  6  4  1  0
  6  8  1  0
  7  6  2  0
  9  8  1  0
  9 12  1  0
  9 10  1  6
 11 10  1  0
 12 19  1  0
 12 13  2  0
 15 17  1  0
 15 14  1  6
 16 15  1  0
 18 20  1  0
 18 17  1  1
 19 18  1  0
 20 22  1  0
 21 20  2  0
M  END
$$$$
