VCL.pdb
     RDKit          3D

 22 21  0  0  1  0  0  0  0  0999 V2000
   40.6042  -26.8570    2.5711 C   0  0  0  0  0  0  0  0  0  0  0  0
   39.2273  -26.6508    3.1646 C   0  0  2  0  0  0  0  0  0  0  0  0
   39.1004  -25.2280    3.6459 C   0  0  0  0  0  0  0  0  0  0  0  0
   38.9944  -27.6422    4.2899 C   0  0  2  0  0  0  0  0  0  0  0  0
   39.2356  -28.9553    3.7688 N   0  0  0  0  0  0  0  0  0  0  0  0
   37.6143  -27.5048    4.8369 C   0  0  0  0  0  0  0  0  0  0  0  0
   36.8798  -28.5381    4.8002 O   0  0  0  0  0  0  0  0  0  0  0  0
   37.1406  -26.2976    5.3685 N   0  0  0  0  0  0  0  0  0  0  0  0
   35.9141  -26.2752    6.1891 C   0  0  1  0  0  0  0  0  0  0  0  0
   36.1544  -27.1325    7.3860 C   0  0  0  0  0  0  0  0  0  0  0  0
   34.8489  -27.1986    8.5975 S   0  0  0  0  0  0  0  0  0  0  0  0
   35.5863  -24.8998    6.5256 C   0  0  0  0  0  0  0  0  0  0  0  0
   36.4736  -24.0889    6.9872 O   0  0  0  0  0  0  0  0  0  0  0  0
   31.7743  -21.0078    4.3124 C   0  0  0  0  0  0  0  0  0  0  0  0
   33.0897  -21.5507    4.8666 C   0  0  2  0  0  0  0  0  0  0  0  0
   33.8831  -22.1918    3.7987 C   0  0  0  0  0  0  0  0  0  0  0  0
   32.8744  -22.3003    6.1365 C   0  0  0  0  0  0  0  0  0  0  0  0
   34.0412  -22.9644    6.7669 C   0  0  2  0  0  0  0  0  0  0  0  0
   34.2983  -24.3416    6.3733 N   0  0  0  0  0  0  0  0  0  0  0  0
   33.9008  -22.9251    8.2765 C   0  0  0  0  0  0  0  0  0  0  0  0
   33.5100  -23.9833    8.8102 O   0  0  0  0  0  0  0  0  0  0  0  0
   34.1636  -21.8396    9.0637 O   0  0  0  0  0  0  0  0  0  0  0  0
  2  1  1  1
  2  3  1  0
  4  2  1  0
  4  5  1  6
  6  4  1  0
  6  8  1  0
  7  6  2  0
  9  8  1  0
  9 12  1  0
  9 10  1  1
 11 10  1  0
 12 19  1  0
 12 13  2  0
 15 17  1  0
 15 14  1  6
 16 15  1  0
 18 20  1  0
 18 17  1  6
 19 18  1  0
 20 22  1  0
 21 20  2  0
M  END
$$$$
