VCL.pdb
     RDKit          3D

 22 21  0  0  1  0  0  0  0  0999 V2000
   16.3881  -13.9102  -15.2514 C   0  0  0  0  0  0  0  0  0  0  0  0
   15.0847  -13.2589  -15.6606 C   0  0  2  0  0  0  0  0  0  0  0  0
   13.9394  -14.1752  -15.3131 C   0  0  0  0  0  0  0  0  0  0  0  0
   15.1097  -12.9365  -17.1434 C   0  0  2  0  0  0  0  0  0  0  0  0
   15.1804  -14.1776  -17.8566 N   0  0  0  0  0  0  0  0  0  0  0  0
   16.2560  -12.0407  -17.4694 C   0  0  0  0  0  0  0  0  0  0  0  0
   17.2136  -12.5536  -18.1240 O   0  0  0  0  0  0  0  0  0  0  0  0
   16.2851  -10.6956  -17.0768 N   0  0  0  0  0  0  0  0  0  0  0  0
   17.3588   -9.8029  -17.5551 C   0  0  1  0  0  0  0  0  0  0  0  0
   16.7130   -8.6228  -18.1996 C   0  0  0  0  0  0  0  0  0  0  0  0
   17.7402   -7.1888  -18.4541 S   0  0  0  0  0  0  0  0  0  0  0  0
   18.2200   -9.4470  -16.4396 C   0  0  0  0  0  0  0  0  0  0  0  0
   17.7586   -9.3254  -15.2438 O   0  0  0  0  0  0  0  0  0  0  0  0
   23.6678   -8.2910  -14.5950 C   0  0  0  0  0  0  0  0  0  0  0  0
   22.5309   -9.1514  -14.0479 C   0  0  2  0  0  0  0  0  0  0  0  0
   23.0459  -10.1564  -13.0963 C   0  0  0  0  0  0  0  0  0  0  0  0
   21.6235   -9.6078  -15.1384 C   0  0  0  0  0  0  0  0  0  0  0  0
   20.3948   -8.8211  -15.4055 C   0  0  2  0  0  0  0  0  0  0  0  0
   19.6074   -9.2156  -16.5639 N   0  0  0  0  0  0  0  0  0  0  0  0
   20.7470   -7.3534  -15.5539 C   0  0  0  0  0  0  0  0  0  0  0  0
   20.8863   -6.9474  -16.7257 O   0  0  0  0  0  0  0  0  0  0  0  0
   20.9186   -6.4764  -14.5203 O   0  0  0  0  0  0  0  0  0  0  0  0
  2  1  1  6
  2  3  1  0
  4  2  1  0
  4  5  1  6
  6  4  1  0
  6  8  1  0
  7  6  2  0
  9  8  1  0
  9 12  1  0
  9 10  1  1
 11 10  1  0
 12 19  1  0
 12 13  2  0
 15 17  1  0
 15 14  1  6
 16 15  1  0
 18 20  1  0
 18 17  1  6
 19 18  1  0
 20 22  1  0
 21 20  2  0
M  END
$$$$
