VCL.pdb
     RDKit          3D

 22 21  0  0  1  0  0  0  0  0999 V2000
   22.5824  -19.9076  -17.3542 C   0  0  0  0  0  0  0  0  0  0  0  0
   23.0678  -18.7696  -16.4824 C   0  0  2  0  0  0  0  0  0  0  0  0
   23.5907  -17.6596  -17.3579 C   0  0  0  0  0  0  0  0  0  0  0  0
   24.1317  -19.2698  -15.5225 C   0  0  2  0  0  0  0  0  0  0  0  0
   25.2561  -19.6945  -16.3031 N   0  0  0  0  0  0  0  0  0  0  0  0
   23.5977  -20.3703  -14.6700 C   0  0  0  0  0  0  0  0  0  0  0  0
   24.0543  -21.5336  -14.8868 O   0  0  0  0  0  0  0  0  0  0  0  0
   22.6379  -20.1425  -13.6745 N   0  0  0  0  0  0  0  0  0  0  0  0
   22.1310  -21.2626  -12.8580 C   0  0  1  0  0  0  0  0  0  0  0  0
   22.2680  -20.8758  -11.4238 C   0  0  0  0  0  0  0  0  0  0  0  0
   21.4045  -19.4052  -10.9062 S   0  0  0  0  0  0  0  0  0  0  0  0
   20.7610  -21.5570  -13.2440 C   0  0  0  0  0  0  0  0  0  0  0  0
   19.9856  -20.6477  -13.7235 O   0  0  0  0  0  0  0  0  0  0  0  0
   16.5903  -26.1092  -14.2700 C   0  0  0  0  0  0  0  0  0  0  0  0
   16.9485  -24.6246  -14.2693 C   0  0  2  0  0  0  0  0  0  0  0  0
   16.4995  -23.9770  -15.5182 C   0  0  0  0  0  0  0  0  0  0  0  0
   18.3536  -24.4063  -13.8234 C   0  0  0  0  0  0  0  0  0  0  0  0
   18.7675  -23.0312  -13.4524 C   0  0  2  0  0  0  0  0  0  0  0  0
   20.1747  -22.8370  -13.1369 N   0  0  0  0  0  0  0  0  0  0  0  0
   17.9495  -22.5504  -12.2693 C   0  0  0  0  0  0  0  0  0  0  0  0
   18.3843  -22.8737  -11.1451 O   0  0  0  0  0  0  0  0  0  0  0  0
   16.8028  -21.8121  -12.3528 O   0  0  0  0  0  0  0  0  0  0  0  0
  2  1  1  6
  2  3  1  0
  4  2  1  0
  4  5  1  6
  6  4  1  0
  6  8  1  0
  7  6  2  0
  9  8  1  0
  9 12  1  0
  9 10  1  1
 11 10  1  0
 12 19  1  0
 12 13  2  0
 15 17  1  0
 15 14  1  6
 16 15  1  0
 18 20  1  0
 18 17  1  1
 19 18  1  0
 20 22  1  0
 21 20  2  0
M  END
$$$$
