VCL.pdb
     RDKit          3D

 22 21  0  0  1  0  0  0  0  0999 V2000
   17.5941  -14.5908  -20.2269 C   0  0  0  0  0  0  0  0  0  0  0  0
   16.9966  -13.2568  -19.8345 C   0  0  2  0  0  0  0  0  0  0  0  0
   16.2234  -12.6952  -21.0002 C   0  0  0  0  0  0  0  0  0  0  0  0
   18.0941  -12.3094  -19.3860 C   0  0  2  0  0  0  0  0  0  0  0  0
   19.2259  -13.1034  -19.0083 N   0  0  0  0  0  0  0  0  0  0  0  0
   17.6209  -11.4460  -18.2664 C   0  0  0  0  0  0  0  0  0  0  0  0
   16.6388  -10.6814  -18.5105 O   0  0  0  0  0  0  0  0  0  0  0  0
   18.2240  -11.4695  -17.0015 N   0  0  0  0  0  0  0  0  0  0  0  0
   17.6873  -10.6404  -15.9047 C   0  0  1  0  0  0  0  0  0  0  0  0
   18.0840  -11.2808  -14.6172 C   0  0  0  0  0  0  0  0  0  0  0  0
   16.8744  -12.3363  -13.8431 S   0  0  0  0  0  0  0  0  0  0  0  0
   18.1812   -9.2805  -16.0447 C   0  0  0  0  0  0  0  0  0  0  0  0
   19.2082   -9.0079  -16.7719 O   0  0  0  0  0  0  0  0  0  0  0  0
   17.5732   -4.0101  -16.9520 C   0  0  0  0  0  0  0  0  0  0  0  0
   18.3577   -5.1153  -17.6559 C   0  0  2  0  0  0  0  0  0  0  0  0
   18.4686   -4.8390  -19.1023 C   0  0  0  0  0  0  0  0  0  0  0  0
   17.8964   -6.4655  -17.2257 C   0  0  0  0  0  0  0  0  0  0  0  0
   17.9866   -6.8135  -15.7868 C   0  0  2  0  0  0  0  0  0  0  0  0
   17.5887   -8.1633  -15.4166 N   0  0  0  0  0  0  0  0  0  0  0  0
   17.1602   -5.8387  -14.9700 C   0  0  0  0  0  0  0  0  0  0  0  0
   15.9721   -6.1681  -14.7766 O   0  0  0  0  0  0  0  0  0  0  0  0
   17.6176   -4.6603  -14.4515 O   0  0  0  0  0  0  0  0  0  0  0  0
  2  1  1  6
  2  3  1  0
  4  2  1  0
  4  5  1  1
  6  4  1  0
  6  8  1  0
  7  6  2  0
  9  8  1  0
  9 12  1  0
  9 10  1  1
 11 10  1  0
 12 19  1  0
 12 13  2  0
 15 17  1  0
 15 14  1  6
 16 15  1  0
 18 20  1  0
 18 17  1  6
 19 18  1  0
 20 22  1  0
 21 20  2  0
M  END
$$$$
