VCL.pdb
     RDKit          3D

 22 21  0  0  1  0  0  0  0  0999 V2000
   20.1357  -14.0949  -16.0828 C   0  0  0  0  0  0  0  0  0  0  0  0
   18.8016  -13.3803  -16.0710 C   0  0  2  0  0  0  0  0  0  0  0  0
   17.7168  -14.3438  -16.4793 C   0  0  0  0  0  0  0  0  0  0  0  0
   18.8514  -12.1750  -16.9919 C   0  0  2  0  0  0  0  0  0  0  0  0
   19.7459  -12.4867  -18.0674 N   0  0  0  0  0  0  0  0  0  0  0  0
   19.2805  -10.9579  -16.2454 C   0  0  0  0  0  0  0  0  0  0  0  0
   18.4908  -10.5285  -15.3506 O   0  0  0  0  0  0  0  0  0  0  0  0
   20.4952  -10.3111  -16.5107 N   0  0  0  0  0  0  0  0  0  0  0  0
   20.9007   -9.1333  -15.7190 C   0  0  1  0  0  0  0  0  0  0  0  0
   22.3916   -9.1062  -15.6788 C   0  0  0  0  0  0  0  0  0  0  0  0
   23.1722  -10.0036  -14.3515 S   0  0  0  0  0  0  0  0  0  0  0  0
   20.3211   -7.9369  -16.3066 C   0  0  0  0  0  0  0  0  0  0  0  0
   20.0553   -7.8645  -17.5644 O   0  0  0  0  0  0  0  0  0  0  0  0
   16.8630   -3.7891  -16.4947 C   0  0  0  0  0  0  0  0  0  0  0  0
   17.1461   -4.9637  -17.4288 C   0  0  2  0  0  0  0  0  0  0  0  0
   15.9292   -5.3459  -18.1730 C   0  0  0  0  0  0  0  0  0  0  0  0
   17.9182   -6.0334  -16.7357 C   0  0  0  0  0  0  0  0  0  0  0  0
   19.2532   -5.6928  -16.1864 C   0  0  2  0  0  0  0  0  0  0  0  0
   19.9991   -6.7780  -15.5671 N   0  0  0  0  0  0  0  0  0  0  0  0
   19.1205   -4.5739  -15.1713 C   0  0  0  0  0  0  0  0  0  0  0  0
   18.8734   -4.9324  -14.0017 O   0  0  0  0  0  0  0  0  0  0  0  0
   19.2472   -3.2416  -15.4468 O   0  0  0  0  0  0  0  0  0  0  0  0
  2  1  1  6
  2  3  1  0
  4  2  1  0
  4  5  1  6
  6  4  1  0
  6  8  1  0
  7  6  2  0
  9  8  1  0
  9 12  1  0
  9 10  1  6
 11 10  1  0
 12 19  1  0
 12 13  2  0
 15 17  1  0
 15 14  1  1
 16 15  1  0
 18 20  1  0
 18 17  1  1
 19 18  1  0
 20 22  1  0
 21 20  2  0
M  END
$$$$
