VCL.pdb
     RDKit          3D

 22 21  0  0  1  0  0  0  0  0999 V2000
   16.1060  -14.8318  -17.2210 C   0  0  0  0  0  0  0  0  0  0  0  0
   16.8166  -15.3227  -18.4638 C   0  0  2  0  0  0  0  0  0  0  0  0
   16.8510  -16.8296  -18.4554 C   0  0  0  0  0  0  0  0  0  0  0  0
   18.2140  -14.7342  -18.5282 C   0  0  2  0  0  0  0  0  0  0  0  0
   19.0081  -15.3904  -17.5317 N   0  0  0  0  0  0  0  0  0  0  0  0
   18.1745  -13.2576  -18.3256 C   0  0  0  0  0  0  0  0  0  0  0  0
   17.5665  -12.5763  -19.2057 O   0  0  0  0  0  0  0  0  0  0  0  0
   18.7764  -12.6412  -17.2201 N   0  0  0  0  0  0  0  0  0  0  0  0
   18.7520  -11.1720  -17.0815 C   0  0  1  0  0  0  0  0  0  0  0  0
   17.3235  -10.7462  -17.0237 C   0  0  0  0  0  0  0  0  0  0  0  0
   16.3743  -11.3189  -15.6281 S   0  0  0  0  0  0  0  0  0  0  0  0
   19.5128  -10.7879  -15.9041 C   0  0  0  0  0  0  0  0  0  0  0  0
   19.8338  -11.6461  -14.9995 O   0  0  0  0  0  0  0  0  0  0  0  0
   24.8931   -9.9520  -15.7758 C   0  0  0  0  0  0  0  0  0  0  0  0
   23.7161   -9.7926  -14.8159 C   0  0  2  0  0  0  0  0  0  0  0  0
   23.9390  -10.5700  -13.5803 C   0  0  0  0  0  0  0  0  0  0  0  0
   22.4141   -9.9463  -15.5245 C   0  0  0  0  0  0  0  0  0  0  0  0
   21.2287   -9.2430  -14.9767 C   0  0  2  0  0  0  0  0  0  0  0  0
   19.9629   -9.4726  -15.6569 N   0  0  0  0  0  0  0  0  0  0  0  0
   21.4847   -7.7484  -14.9512 C   0  0  0  0  0  0  0  0  0  0  0  0
   21.2723   -7.1459  -16.0233 O   0  0  0  0  0  0  0  0  0  0  0  0
   21.9214   -7.0427  -13.8658 O   0  0  0  0  0  0  0  0  0  0  0  0
  2  1  1  1
  2  3  1  0
  4  2  1  0
  4  5  1  1
  6  4  1  0
  6  8  1  0
  7  6  2  0
  9  8  1  0
  9 12  1  0
  9 10  1  1
 11 10  1  0
 12 19  1  0
 12 13  2  0
 15 17  1  0
 15 14  1  6
 16 15  1  0
 18 20  1  0
 18 17  1  6
 19 18  1  0
 20 22  1  0
 21 20  2  0
M  END
$$$$
