VCL.pdb
     RDKit          3D

 22 21  0  0  1  0  0  0  0  0999 V2000
   19.6005  -26.1783  -13.1119 C   0  0  0  0  0  0  0  0  0  0  0  0
   20.6253  -27.0417  -12.4085 C   0  0  2  0  0  0  0  0  0  0  0  0
   20.9951  -28.2007  -13.2983 C   0  0  0  0  0  0  0  0  0  0  0  0
   20.0758  -27.5160  -11.0757 C   0  0  2  0  0  0  0  0  0  0  0  0
   18.9200  -28.3200  -11.3436 N   0  0  0  0  0  0  0  0  0  0  0  0
   19.7559  -26.3569  -10.1942 C   0  0  0  0  0  0  0  0  0  0  0  0
   20.6973  -25.5396   -9.9610 O   0  0  0  0  0  0  0  0  0  0  0  0
   18.4805  -26.1691   -9.6442 N   0  0  0  0  0  0  0  0  0  0  0  0
   18.2445  -25.0954   -8.6594 C   0  0  1  0  0  0  0  0  0  0  0  0
   17.4970  -24.0044   -9.3494 C   0  0  0  0  0  0  0  0  0  0  0  0
   16.9749  -24.3270  -11.0227 S   0  0  0  0  0  0  0  0  0  0  0  0
   17.5350  -25.6413   -7.5144 C   0  0  0  0  0  0  0  0  0  0  0  0
   16.6574  -26.5740   -7.6472 O   0  0  0  0  0  0  0  0  0  0  0  0
   16.9091  -28.3619   -3.5526 C   0  0  0  0  0  0  0  0  0  0  0  0
   18.1078  -27.4219   -3.4438 C   0  0  2  0  0  0  0  0  0  0  0  0
   18.8286  -27.6374   -2.1731 C   0  0  0  0  0  0  0  0  0  0  0  0
   17.7398  -26.0283   -3.8223 C   0  0  0  0  0  0  0  0  0  0  0  0
   17.0007  -25.8166   -5.0906 C   0  0  2  0  0  0  0  0  0  0  0  0
   17.7450  -25.2126   -6.1855 N   0  0  0  0  0  0  0  0  0  0  0  0
   15.7711  -24.9669   -4.8327 C   0  0  0  0  0  0  0  0  0  0  0  0
   15.8329  -23.7895   -5.2417 O   0  0  0  0  0  0  0  0  0  0  0  0
   14.6380  -25.3934   -4.1994 O   0  0  0  0  0  0  0  0  0  0  0  0
  2  1  1  6
  2  3  1  0
  4  2  1  0
  4  5  1  6
  6  4  1  0
  6  8  1  0
  7  6  2  0
  9  8  1  0
  9 12  1  0
  9 10  1  6
 11 10  1  0
 12 19  1  0
 12 13  2  0
 15 17  1  0
 15 14  1  1
 16 15  1  0
 18 20  1  0
 18 17  1  1
 19 18  1  0
 20 22  1  0
 21 20  2  0
M  END
$$$$
