VCL.pdb
     RDKit          3D

 22 21  0  0  1  0  0  0  0  0999 V2000
   15.9091  -10.3915  -19.1703 C   0  0  0  0  0  0  0  0  0  0  0  0
   17.0273  -11.1515  -19.8503 C   0  0  2  0  0  0  0  0  0  0  0  0
   16.6198  -12.5929  -20.0181 C   0  0  0  0  0  0  0  0  0  0  0  0
   18.3059  -11.0247  -19.0425 C   0  0  2  0  0  0  0  0  0  0  0  0
   18.1432  -11.7989  -17.8475 N   0  0  0  0  0  0  0  0  0  0  0  0
   18.6015   -9.5943  -18.7436 C   0  0  0  0  0  0  0  0  0  0  0  0
   18.8598   -8.8453  -19.7340 O   0  0  0  0  0  0  0  0  0  0  0  0
   18.5973   -9.0904  -17.4358 N   0  0  0  0  0  0  0  0  0  0  0  0
   18.8824   -7.6639  -17.1860 C   0  0  1  0  0  0  0  0  0  0  0  0
   17.6009   -6.9141  -17.3300 C   0  0  0  0  0  0  0  0  0  0  0  0
   16.4418   -7.0454  -15.9825 S   0  0  0  0  0  0  0  0  0  0  0  0
   19.4876   -7.5179  -15.8726 C   0  0  0  0  0  0  0  0  0  0  0  0
   19.3093   -8.3950  -14.9470 O   0  0  0  0  0  0  0  0  0  0  0  0
   22.0137   -9.0185  -12.9130 C   0  0  0  0  0  0  0  0  0  0  0  0
   22.3281   -8.9791  -14.4069 C   0  0  2  0  0  0  0  0  0  0  0  0
   23.4030   -9.9349  -14.7412 C   0  0  0  0  0  0  0  0  0  0  0  0
   22.4481   -7.5774  -14.8987 C   0  0  0  0  0  0  0  0  0  0  0  0
   21.3816   -6.6122  -14.5371 C   0  0  2  0  0  0  0  0  0  0  0  0
   20.3110   -6.4310  -15.5060 N   0  0  0  0  0  0  0  0  0  0  0  0
   21.9933   -5.2539  -14.2525 C   0  0  0  0  0  0  0  0  0  0  0  0
   22.7036   -5.1854  -13.2287 O   0  0  0  0  0  0  0  0  0  0  0  0
   21.8199   -4.1361  -15.0189 O   0  0  0  0  0  0  0  0  0  0  0  0
  2  1  1  1
  2  3  1  0
  4  2  1  0
  4  5  1  1
  6  4  1  0
  6  8  1  0
  7  6  2  0
  9  8  1  0
  9 12  1  0
  9 10  1  1
 11 10  1  0
 12 19  1  0
 12 13  2  0
 15 17  1  0
 15 14  1  1
 16 15  1  0
 18 20  1  0
 18 17  1  6
 19 18  1  0
 20 22  1  0
 21 20  2  0
M  END
$$$$
