NVN.pdb
     RDKit          3D

 24 23  0  0  1  0  0  0  0  0999 V2000
    8.3321  -18.3661   19.6958 N   0  0  0  0  0  0  0  0  0  0  0  0
    7.5710  -17.8190   20.7641 C   0  0  0  0  0  0  0  0  0  0  0  0
    6.3185  -17.9480   20.7189 O   0  0  0  0  0  0  0  0  0  0  0  0
    8.1913  -17.1210   21.9072 C   0  0  0  0  0  0  0  0  0  0  0  0
    7.8094  -15.6428   21.8695 C   0  0  2  0  0  0  0  0  0  0  0  0
    8.3619  -15.0198   20.6697 N   0  0  0  0  0  0  0  0  0  0  0  0
    8.3553  -14.9565   23.0523 C   0  0  0  0  0  0  0  0  0  0  0  0
    9.5907  -14.6287   23.0279 O   0  0  0  0  0  0  0  0  0  0  0  0
    7.4444  -12.6160   27.2947 C   0  0  0  0  0  0  0  0  0  0  0  0
    6.9947  -13.2352   26.0043 C   0  0  1  0  0  0  0  0  0  0  0  0
    6.4242  -12.1319   25.1346 C   0  0  0  0  0  0  0  0  0  0  0  0
    8.1816  -13.9020   25.3246 C   0  0  2  0  0  0  0  0  0  0  0  0
    7.5953  -14.6494   24.1867 N   0  0  0  0  0  0  0  0  0  0  0  0
    8.7241  -14.9155   26.2513 C   0  0  0  0  0  0  0  0  0  0  0  0
    8.0358  -15.9942   26.3936 O   0  0  0  0  0  0  0  0  0  0  0  0
   12.3648  -17.4540   25.0807 N   0  0  0  0  0  0  0  0  0  0  0  0
   11.8923  -17.3897   26.3990 C   0  0  0  0  0  0  0  0  0  0  0  0
   11.3722  -18.4408   26.9037 O   0  0  0  0  0  0  0  0  0  0  0  0
   11.9405  -16.1987   27.2827 C   0  0  0  0  0  0  0  0  0  0  0  0
   10.4925  -15.9227   27.6962 C   0  0  2  0  0  0  0  0  0  0  0  0
    9.9312  -14.7978   26.9896 N   0  0  0  0  0  0  0  0  0  0  0  0
   10.5786  -15.6385   29.1675 C   0  0  0  0  0  0  0  0  0  0  0  0
   10.5717  -14.4660   29.6198 O   0  0  0  0  0  0  0  0  0  0  0  0
   10.6701  -16.6701   30.0897 O   0  0  0  0  0  0  0  0  0  0  0  0
  1  2  1  0
  2  3  2  0
  4  2  1  0
  5  4  1  0
  5  6  1  6
  7  5  1  0
  7  8  2  0
 10  9  1  1
 10 11  1  0
 10 12  1  0
 12 13  1  6
 13  7  1  0
 14 12  1  0
 15 14  2  0
 16 17  1  0
 17 19  1  0
 17 18  2  0
 20 19  1  6
 20 21  1  0
 20 22  1  0
 21 14  1  0
 22 24  1  0
 23 22  2  0
M  END
$$$$
