NVN.pdb
     RDKit          3D

 24 23  0  0  1  0  0  0  0  0999 V2000
    9.3792  -19.7642   14.2198 N   0  0  0  0  0  0  0  0  0  0  0  0
    8.6732  -18.6858   14.8184 C   0  0  0  0  0  0  0  0  0  0  0  0
    7.6084  -18.3019   14.2650 O   0  0  0  0  0  0  0  0  0  0  0  0
    9.1374  -18.0164   16.0493 C   0  0  0  0  0  0  0  0  0  0  0  0
    8.8644  -16.5173   15.9478 C   0  0  2  0  0  0  0  0  0  0  0  0
    9.6123  -15.9532   14.8273 N   0  0  0  0  0  0  0  0  0  0  0  0
    9.2932  -15.8474   17.1870 C   0  0  0  0  0  0  0  0  0  0  0  0
   10.5489  -15.7709   17.4137 O   0  0  0  0  0  0  0  0  0  0  0  0
    8.0634  -13.2941   21.2356 C   0  0  0  0  0  0  0  0  0  0  0  0
    7.6907  -13.9285   19.9281 C   0  0  1  0  0  0  0  0  0  0  0  0
    7.2734  -12.8226   18.9784 C   0  0  0  0  0  0  0  0  0  0  0  0
    8.8871  -14.6918   19.3790 C   0  0  2  0  0  0  0  0  0  0  0  0
    8.4025  -15.2969   18.1156 N   0  0  0  0  0  0  0  0  0  0  0  0
    9.1681  -15.8146   20.2958 C   0  0  0  0  0  0  0  0  0  0  0  0
    9.1105  -16.9983   19.7929 O   0  0  0  0  0  0  0  0  0  0  0  0
   11.8091  -18.8234   21.5197 N   0  0  0  0  0  0  0  0  0  0  0  0
   12.4305  -17.5852   21.3051 C   0  0  0  0  0  0  0  0  0  0  0  0
   13.5586  -17.5737   20.7074 O   0  0  0  0  0  0  0  0  0  0  0  0
   11.8948  -16.2619   21.7096 C   0  0  0  0  0  0  0  0  0  0  0  0
   10.5002  -16.5296   22.2817 C   0  0  2  0  0  0  0  0  0  0  0  0
    9.4941  -15.6951   21.6726 N   0  0  0  0  0  0  0  0  0  0  0  0
   10.6371  -16.2181   23.7436 C   0  0  0  0  0  0  0  0  0  0  0  0
   10.8315  -15.0481   24.1588 O   0  0  0  0  0  0  0  0  0  0  0  0
   10.5534  -17.2207   24.6980 O   0  0  0  0  0  0  0  0  0  0  0  0
  1  2  1  0
  2  3  2  0
  4  2  1  0
  5  4  1  0
  5  6  1  6
  7  5  1  0
  7  8  2  0
 10  9  1  1
 10 11  1  0
 10 12  1  0
 12 13  1  6
 13  7  1  0
 14 12  1  0
 15 14  2  0
 16 17  1  0
 17 19  1  0
 17 18  2  0
 20 19  1  6
 20 21  1  0
 20 22  1  0
 21 14  1  0
 22 24  1  0
 23 22  2  0
M  END
$$$$
