NVN.pdb
     RDKit          3D

 24 23  0  0  1  0  0  0  0  0999 V2000
    7.2647  -12.7567   17.7939 N   0  0  0  0  0  0  0  0  0  0  0  0
    7.9473  -13.6987   18.6101 C   0  0  0  0  0  0  0  0  0  0  0  0
    8.2078  -14.8266   18.1128 O   0  0  0  0  0  0  0  0  0  0  0  0
    8.3580  -13.4005   19.9962 C   0  0  0  0  0  0  0  0  0  0  0  0
    8.1651  -14.6430   20.8630 C   0  0  2  0  0  0  0  0  0  0  0  0
    6.7568  -15.0297   20.8663 N   0  0  0  0  0  0  0  0  0  0  0  0
    8.5792  -14.3550   22.2463 C   0  0  0  0  0  0  0  0  0  0  0  0
    9.7861  -13.9786   22.4360 O   0  0  0  0  0  0  0  0  0  0  0  0
    7.3607  -13.4984   26.9218 C   0  0  0  0  0  0  0  0  0  0  0  0
    7.0108  -13.6710   25.4731 C   0  0  1  0  0  0  0  0  0  0  0  0
    6.6205  -12.3121   24.9253 C   0  0  0  0  0  0  0  0  0  0  0  0
    8.2131  -14.2311   24.7274 C   0  0  2  0  0  0  0  0  0  0  0  0
    7.7249  -14.4716   23.3487 N   0  0  0  0  0  0  0  0  0  0  0  0
    8.5213  -15.5584   25.2961 C   0  0  0  0  0  0  0  0  0  0  0  0
    7.5376  -16.3819   25.4047 O   0  0  0  0  0  0  0  0  0  0  0  0
   11.1872  -20.4121   25.3359 N   0  0  0  0  0  0  0  0  0  0  0  0
   11.6330  -19.2139   25.9113 C   0  0  0  0  0  0  0  0  0  0  0  0
   12.3133  -19.2808   26.9896 O   0  0  0  0  0  0  0  0  0  0  0  0
   11.3897  -17.8505   25.3787 C   0  0  0  0  0  0  0  0  0  0  0  0
   10.0689  -17.3863   25.9981 C   0  0  2  0  0  0  0  0  0  0  0  0
    9.8015  -15.9954   25.7275 N   0  0  0  0  0  0  0  0  0  0  0  0
   10.2525  -17.6169   27.4699 C   0  0  0  0  0  0  0  0  0  0  0  0
   10.1052  -18.7521   27.9886 O   0  0  0  0  0  0  0  0  0  0  0  0
   10.5942  -16.5748   28.3186 O   0  0  0  0  0  0  0  0  0  0  0  0
  1  2  1  0
  2  3  2  0
  4  2  1  0
  5  4  1  0
  5  6  1  1
  7  5  1  0
  7  8  2  0
 10  9  1  1
 10 11  1  0
 10 12  1  0
 12 13  1  6
 13  7  1  0
 14 12  1  0
 15 14  2  0
 16 17  1  0
 17 19  1  0
 17 18  2  0
 20 19  1  6
 20 21  1  0
 20 22  1  0
 21 14  1  0
 22 24  1  0
 23 22  2  0
M  END
$$$$
