NVN.pdb
     RDKit          3D

 24 23  0  0  1  0  0  0  0  0999 V2000
   10.2719  -18.7707   14.1668 N   0  0  0  0  0  0  0  0  0  0  0  0
    9.2586  -17.9416   14.7197 C   0  0  0  0  0  0  0  0  0  0  0  0
    8.0873  -18.0690   14.2734 O   0  0  0  0  0  0  0  0  0  0  0  0
    9.5298  -16.9568   15.7852 C   0  0  0  0  0  0  0  0  0  0  0  0
    8.9581  -17.4657   17.1067 C   0  0  2  0  0  0  0  0  0  0  0  0
    7.4997  -17.4978   17.0347 N   0  0  0  0  0  0  0  0  0  0  0  0
    9.3573  -16.5662   18.2020 C   0  0  0  0  0  0  0  0  0  0  0  0
   10.6085  -16.4073   18.4103 O   0  0  0  0  0  0  0  0  0  0  0  0
    7.9828  -13.3632   21.7097 C   0  0  0  0  0  0  0  0  0  0  0  0
    7.6716  -14.1929   20.4991 C   0  0  1  0  0  0  0  0  0  0  0  0
    7.2680  -13.2502   19.3821 C   0  0  0  0  0  0  0  0  0  0  0  0
    8.9024  -14.9987   20.1101 C   0  0  2  0  0  0  0  0  0  0  0  0
    8.4436  -15.8852   19.0144 N   0  0  0  0  0  0  0  0  0  0  0  0
    9.2429  -15.8817   21.2435 C   0  0  0  0  0  0  0  0  0  0  0  0
    8.3875  -16.7975   21.5385 O   0  0  0  0  0  0  0  0  0  0  0  0
   13.1265  -18.1472   25.2176 N   0  0  0  0  0  0  0  0  0  0  0  0
   12.2840  -18.2572   24.1026 C   0  0  0  0  0  0  0  0  0  0  0  0
   11.5525  -19.2987   24.0015 O   0  0  0  0  0  0  0  0  0  0  0  0
   12.1544  -17.2623   23.0094 C   0  0  0  0  0  0  0  0  0  0  0  0
   10.7067  -16.7668   23.0609 C   0  0  2  0  0  0  0  0  0  0  0  0
   10.4255  -15.8034   22.0254 N   0  0  0  0  0  0  0  0  0  0  0  0
   10.5810  -16.1408   24.4193 C   0  0  0  0  0  0  0  0  0  0  0  0
   10.0753  -16.7566   25.3911 O   0  0  0  0  0  0  0  0  0  0  0  0
   11.0226  -14.8471   24.6528 O   0  0  0  0  0  0  0  0  0  0  0  0
  1  2  1  0
  2  3  2  0
  4  2  1  0
  5  4  1  0
  5  6  1  6
  7  5  1  0
  7  8  2  0
 10  9  1  1
 10 11  1  0
 10 12  1  0
 12 13  1  6
 13  7  1  0
 14 12  1  0
 15 14  2  0
 16 17  1  0
 17 19  1  0
 17 18  2  0
 20 19  1  6
 20 21  1  0
 20 22  1  0
 21 14  1  0
 22 24  1  0
 23 22  2  0
M  END
$$$$
