NVN.pdb
     RDKit          3D

 24 23  0  0  1  0  0  0  0  0999 V2000
    7.3398  -20.9868   17.0050 N   0  0  0  0  0  0  0  0  0  0  0  0
    7.1470  -19.6084   17.2921 C   0  0  0  0  0  0  0  0  0  0  0  0
    6.0635  -19.0787   16.9277 O   0  0  0  0  0  0  0  0  0  0  0  0
    8.1566  -18.7933   17.9958 C   0  0  0  0  0  0  0  0  0  0  0  0
    8.1487  -17.3742   17.4318 C   0  0  2  0  0  0  0  0  0  0  0  0
    8.9346  -17.3266   16.2017 N   0  0  0  0  0  0  0  0  0  0  0  0
    8.7431  -16.4462   18.4083 C   0  0  0  0  0  0  0  0  0  0  0  0
   10.0185  -16.4067   18.4859 O   0  0  0  0  0  0  0  0  0  0  0  0
    8.0358  -12.9469   21.8283 C   0  0  0  0  0  0  0  0  0  0  0  0
    7.5672  -13.7356   20.6412 C   0  0  1  0  0  0  0  0  0  0  0  0
    7.3075  -12.7601   19.5097 C   0  0  0  0  0  0  0  0  0  0  0  0
    8.6374  -14.7447   20.2519 C   0  0  2  0  0  0  0  0  0  0  0  0
    7.9876  -15.6157   19.2440 N   0  0  0  0  0  0  0  0  0  0  0  0
    8.9049  -15.5978   21.4270 C   0  0  0  0  0  0  0  0  0  0  0  0
    7.9376  -16.3467   21.8284 O   0  0  0  0  0  0  0  0  0  0  0  0
   12.9892  -17.0122   21.3970 N   0  0  0  0  0  0  0  0  0  0  0  0
   12.2090  -17.5505   22.4299 C   0  0  0  0  0  0  0  0  0  0  0  0
   11.8771  -18.7810   22.3546 O   0  0  0  0  0  0  0  0  0  0  0  0
   11.7242  -16.8177   23.6256 C   0  0  0  0  0  0  0  0  0  0  0  0
   10.2650  -16.4572   23.3352 C   0  0  2  0  0  0  0  0  0  0  0  0
   10.1302  -15.6587   22.1419 N   0  0  0  0  0  0  0  0  0  0  0  0
    9.8299  -15.6837   24.5457 C   0  0  0  0  0  0  0  0  0  0  0  0
    9.5755  -14.4542   24.4932 O   0  0  0  0  0  0  0  0  0  0  0  0
    9.6922  -16.3046   25.7780 O   0  0  0  0  0  0  0  0  0  0  0  0
  1  2  1  0
  2  3  2  0
  4  2  1  0
  5  4  1  0
  5  6  1  6
  7  5  1  0
  7  8  2  0
 10  9  1  1
 10 11  1  0
 10 12  1  0
 12 13  1  6
 13  7  1  0
 14 12  1  0
 15 14  2  0
 16 17  1  0
 17 19  1  0
 17 18  2  0
 20 19  1  1
 20 21  1  0
 20 22  1  0
 21 14  1  0
 22 24  1  0
 23 22  2  0
M  END
$$$$
