NVN.pdb
     RDKit          3D

 24 23  0  0  1  0  0  0  0  0999 V2000
    8.7958  -18.4278   19.3767 N   0  0  0  0  0  0  0  0  0  0  0  0
    7.9391  -17.9077   20.3842 C   0  0  0  0  0  0  0  0  0  0  0  0
    6.6958  -17.9884   20.1968 O   0  0  0  0  0  0  0  0  0  0  0  0
    8.4510  -17.2913   21.6239 C   0  0  0  0  0  0  0  0  0  0  0  0
    8.2238  -15.7820   21.5737 C   0  0  2  0  0  0  0  0  0  0  0  0
    8.9987  -15.2015   20.4803 N   0  0  0  0  0  0  0  0  0  0  0  0
    8.6607  -15.1696   22.8394 C   0  0  0  0  0  0  0  0  0  0  0  0
    9.9157  -14.9965   23.0103 O   0  0  0  0  0  0  0  0  0  0  0  0
    7.5651  -12.6787   26.9189 C   0  0  0  0  0  0  0  0  0  0  0  0
    7.1231  -13.3926   25.6756 C   0  0  1  0  0  0  0  0  0  0  0  0
    6.6904  -12.3450   24.6684 C   0  0  0  0  0  0  0  0  0  0  0  0
    8.2778  -14.2219   25.1330 C   0  0  2  0  0  0  0  0  0  0  0  0
    7.7784  -14.7726   23.8507 N   0  0  0  0  0  0  0  0  0  0  0  0
    8.4696  -15.3760   26.0337 C   0  0  0  0  0  0  0  0  0  0  0  0
    8.1464  -16.5317   25.5673 O   0  0  0  0  0  0  0  0  0  0  0  0
   11.7059  -18.6996   27.1647 N   0  0  0  0  0  0  0  0  0  0  0  0
   11.4352  -17.5475   26.4132 C   0  0  0  0  0  0  0  0  0  0  0  0
   11.3305  -17.6662   25.1464 O   0  0  0  0  0  0  0  0  0  0  0  0
   11.2523  -16.1786   26.9559 C   0  0  0  0  0  0  0  0  0  0  0  0
    9.9888  -16.2333   27.8187 C   0  0  2  0  0  0  0  0  0  0  0  0
    8.9769  -15.3147   27.3584 N   0  0  0  0  0  0  0  0  0  0  0  0
   10.4650  -15.8572   29.1915 C   0  0  0  0  0  0  0  0  0  0  0  0
   10.7758  -14.6759   29.4871 O   0  0  0  0  0  0  0  0  0  0  0  0
   10.5807  -16.8095   30.1929 O   0  0  0  0  0  0  0  0  0  0  0  0
  1  2  1  0
  2  3  2  0
  4  2  1  0
  5  4  1  0
  5  6  1  6
  7  5  1  0
  7  8  2  0
 10  9  1  1
 10 11  1  0
 10 12  1  0
 12 13  1  6
 13  7  1  0
 14 12  1  0
 15 14  2  0
 16 17  1  0
 17 19  1  0
 17 18  2  0
 20 19  1  6
 20 21  1  0
 20 22  1  0
 21 14  1  0
 22 24  1  0
 23 22  2  0
M  END
$$$$
