NVN.pdb
     RDKit          3D

 24 23  0  0  1  0  0  0  0  0999 V2000
    7.5305  -20.8229   16.1519 N   0  0  0  0  0  0  0  0  0  0  0  0
    7.1524  -19.5150   16.5595 C   0  0  0  0  0  0  0  0  0  0  0  0
    6.1532  -18.9911   15.9986 O   0  0  0  0  0  0  0  0  0  0  0  0
    7.8778  -18.7662   17.6044 C   0  0  0  0  0  0  0  0  0  0  0  0
    8.1347  -17.3398   17.1234 C   0  0  2  0  0  0  0  0  0  0  0  0
    9.0625  -17.3578   15.9957 N   0  0  0  0  0  0  0  0  0  0  0  0
    8.7294  -16.5461   18.2118 C   0  0  0  0  0  0  0  0  0  0  0  0
   10.0021  -16.5659   18.3307 O   0  0  0  0  0  0  0  0  0  0  0  0
    8.0564  -13.2335   21.8209 C   0  0  0  0  0  0  0  0  0  0  0  0
    7.5340  -14.0337   20.6643 C   0  0  1  0  0  0  0  0  0  0  0  0
    7.0949  -13.0604   19.5877 C   0  0  0  0  0  0  0  0  0  0  0  0
    8.6326  -14.9520   20.1495 C   0  0  2  0  0  0  0  0  0  0  0  0
    7.9770  -15.7805   19.1098 N   0  0  0  0  0  0  0  0  0  0  0  0
    9.0024  -15.8735   21.2423 C   0  0  0  0  0  0  0  0  0  0  0  0
    8.1398  -16.7783   21.5506 O   0  0  0  0  0  0  0  0  0  0  0  0
   13.1855  -19.1162   24.1457 N   0  0  0  0  0  0  0  0  0  0  0  0
   11.9701  -18.6878   23.5939 C   0  0  0  0  0  0  0  0  0  0  0  0
   10.8944  -19.2367   24.0082 O   0  0  0  0  0  0  0  0  0  0  0  0
   11.8077  -17.6377   22.5582 C   0  0  0  0  0  0  0  0  0  0  0  0
   10.5425  -16.8639   22.9383 C   0  0  2  0  0  0  0  0  0  0  0  0
   10.2198  -15.8430   21.9723 N   0  0  0  0  0  0  0  0  0  0  0  0
   10.8717  -16.2530   24.2692 C   0  0  0  0  0  0  0  0  0  0  0  0
   11.6447  -15.2680   24.3759 O   0  0  0  0  0  0  0  0  0  0  0  0
   10.3293  -16.7594   25.4408 O   0  0  0  0  0  0  0  0  0  0  0  0
  1  2  1  0
  2  3  2  0
  4  2  1  0
  5  4  1  0
  5  6  1  6
  7  5  1  0
  7  8  2  0
 10  9  1  1
 10 11  1  0
 10 12  1  0
 12 13  1  6
 13  7  1  0
 14 12  1  0
 15 14  2  0
 16 17  1  0
 17 19  1  0
 17 18  2  0
 20 19  1  6
 20 21  1  0
 20 22  1  0
 21 14  1  0
 22 24  1  0
 23 22  2  0
M  END
$$$$
