NVN.pdb
     RDKit          3D

 24 23  0  0  1  0  0  0  0  0999 V2000
   10.9925  -18.2647   13.2218 N   0  0  0  0  0  0  0  0  0  0  0  0
   10.1798  -18.1594   14.3829 C   0  0  0  0  0  0  0  0  0  0  0  0
    9.0848  -18.7823   14.3915 O   0  0  0  0  0  0  0  0  0  0  0  0
   10.5739  -17.3611   15.5603 C   0  0  0  0  0  0  0  0  0  0  0  0
    9.5825  -16.2159   15.7542 C   0  0  2  0  0  0  0  0  0  0  0  0
    9.7821  -15.2080   14.7162 N   0  0  0  0  0  0  0  0  0  0  0  0
    9.7963  -15.5886   17.0691 C   0  0  0  0  0  0  0  0  0  0  0  0
   10.9851  -15.2220   17.3630 O   0  0  0  0  0  0  0  0  0  0  0  0
    7.8972  -13.4825   21.0825 C   0  0  0  0  0  0  0  0  0  0  0  0
    7.7435  -14.0980   19.7229 C   0  0  1  0  0  0  0  0  0  0  0  0
    7.3813  -12.9916   18.7513 C   0  0  0  0  0  0  0  0  0  0  0  0
    9.0505  -14.7657   19.3212 C   0  0  2  0  0  0  0  0  0  0  0  0
    8.7726  -15.3769   17.9997 N   0  0  0  0  0  0  0  0  0  0  0  0
    9.2930  -15.8848   20.2533 C   0  0  0  0  0  0  0  0  0  0  0  0
    8.8807  -17.0460   19.8802 O   0  0  0  0  0  0  0  0  0  0  0  0
   12.8440  -18.7719   19.5158 N   0  0  0  0  0  0  0  0  0  0  0  0
   12.3644  -18.2435   20.7224 C   0  0  0  0  0  0  0  0  0  0  0  0
   12.1063  -19.0545   21.6741 O   0  0  0  0  0  0  0  0  0  0  0  0
   12.1255  -16.8073   21.0085 C   0  0  0  0  0  0  0  0  0  0  0  0
   10.9113  -16.7601   21.9398 C   0  0  2  0  0  0  0  0  0  0  0  0
    9.9382  -15.7847   21.5142 N   0  0  0  0  0  0  0  0  0  0  0  0
   11.4873  -16.3901   23.2756 C   0  0  0  0  0  0  0  0  0  0  0  0
   11.4619  -17.1802   24.2526 O   0  0  0  0  0  0  0  0  0  0  0  0
   12.0735  -15.1504   23.4816 O   0  0  0  0  0  0  0  0  0  0  0  0
  1  2  1  0
  2  3  2  0
  4  2  1  0
  5  4  1  0
  5  6  1  6
  7  5  1  0
  7  8  2  0
 10  9  1  1
 10 11  1  0
 10 12  1  0
 12 13  1  6
 13  7  1  0
 14 12  1  0
 15 14  2  0
 16 17  1  0
 17 19  1  0
 17 18  2  0
 20 19  1  6
 20 21  1  0
 20 22  1  0
 21 14  1  0
 22 24  1  0
 23 22  2  0
M  END
$$$$
