NVN.pdb
     RDKit          3D

 24 23  0  0  1  0  0  0  0  0999 V2000
    8.3910  -12.4198   17.1502 N   0  0  0  0  0  0  0  0  0  0  0  0
    7.7966  -13.3063   18.0886 C   0  0  0  0  0  0  0  0  0  0  0  0
    7.1775  -14.3076   17.6398 O   0  0  0  0  0  0  0  0  0  0  0  0
    7.8847  -13.0972   19.5471 C   0  0  0  0  0  0  0  0  0  0  0  0
    8.7236  -14.2101   20.1716 C   0  0  2  0  0  0  0  0  0  0  0  0
    8.0665  -15.4983   19.9675 N   0  0  0  0  0  0  0  0  0  0  0  0
    8.8650  -13.9759   21.6184 C   0  0  0  0  0  0  0  0  0  0  0  0
    9.2692  -12.8227   21.9939 O   0  0  0  0  0  0  0  0  0  0  0  0
    7.1407  -13.5835   25.7252 C   0  0  0  0  0  0  0  0  0  0  0  0
    7.3950  -13.7232   24.2532 C   0  0  1  0  0  0  0  0  0  0  0  0
    7.6331  -12.3356   23.6901 C   0  0  0  0  0  0  0  0  0  0  0  0
    8.6097  -14.6130   24.0337 C   0  0  2  0  0  0  0  0  0  0  0  0
    8.5807  -14.9432   22.5890 N   0  0  0  0  0  0  0  0  0  0  0  0
    8.3787  -15.8811   24.7540 C   0  0  0  0  0  0  0  0  0  0  0  0
    7.3328  -16.5528   24.4186 O   0  0  0  0  0  0  0  0  0  0  0  0
   11.3907  -19.9147   23.3473 N   0  0  0  0  0  0  0  0  0  0  0  0
   11.4898  -19.0079   24.4118 C   0  0  0  0  0  0  0  0  0  0  0  0
   12.1566  -19.3599   25.4421 O   0  0  0  0  0  0  0  0  0  0  0  0
   10.8871  -17.6528   24.4584 C   0  0  0  0  0  0  0  0  0  0  0  0
    9.8819  -17.6789   25.6128 C   0  0  2  0  0  0  0  0  0  0  0  0
    9.2088  -16.4140   25.7753 N   0  0  0  0  0  0  0  0  0  0  0  0
   10.7163  -17.9972   26.8192 C   0  0  0  0  0  0  0  0  0  0  0  0
   11.5426  -17.1766   27.2915 O   0  0  0  0  0  0  0  0  0  0  0  0
   10.6045  -19.2209   27.4620 O   0  0  0  0  0  0  0  0  0  0  0  0
  1  2  1  0
  2  3  2  0
  4  2  1  0
  5  4  1  0
  5  6  1  1
  7  5  1  0
  7  8  2  0
 10  9  1  1
 10 11  1  0
 10 12  1  0
 12 13  1  6
 13  7  1  0
 14 12  1  0
 15 14  2  0
 16 17  1  0
 17 19  1  0
 17 18  2  0
 20 19  1  6
 20 21  1  0
 20 22  1  0
 21 14  1  0
 22 24  1  0
 23 22  2  0
M  END
$$$$
