FFV.pdb
     RDKit          3D

 30 31  0  0  1  0  0  0  0  0999 V2000
    7.6790  -16.2234   21.5270 N   0  0  0  0  0  0  0  0  0  0  0  0
    8.9120  -15.5018   21.7787 C   0  0  1  0  0  0  0  0  0  0  0  0
    8.6389  -14.0172   21.5103 C   0  0  0  0  0  0  0  0  0  0  0  0
    8.1248  -13.7895   20.1588 C   0  0  0  0  0  0  0  0  0  0  0  0
    7.6978  -12.5431   19.7852 C   0  0  0  0  0  0  0  0  0  0  0  0
    7.2220  -12.3479   18.5239 C   0  0  0  0  0  0  0  0  0  0  0  0
    7.1555  -13.3654   17.6083 C   0  0  0  0  0  0  0  0  0  0  0  0
    7.5807  -14.6210   17.9702 C   0  0  0  0  0  0  0  0  0  0  0  0
    8.0609  -14.8104   19.2484 C   0  0  0  0  0  0  0  0  0  0  0  0
    9.1961  -15.5850   23.2546 C   0  0  0  0  0  0  0  0  0  0  0  0
   10.2754  -15.1339   23.7412 O   0  0  0  0  0  0  0  0  0  0  0  0
    8.2832  -16.1650   24.1679 N   0  0  0  0  0  0  0  0  0  0  0  0
    8.5995  -16.3335   25.5473 C   0  0  1  0  0  0  0  0  0  0  0  0
    7.5225  -15.8634   26.4853 C   0  0  0  0  0  0  0  0  0  0  0  0
    7.3490  -14.4138   26.5443 C   0  0  0  0  0  0  0  0  0  0  0  0
    6.2337  -13.8000   26.0059 C   0  0  0  0  0  0  0  0  0  0  0  0
    6.0576  -12.4293   26.0544 C   0  0  0  0  0  0  0  0  0  0  0  0
    6.9922  -11.6074   26.6457 C   0  0  0  0  0  0  0  0  0  0  0  0
    8.1098  -12.2053   27.1869 C   0  0  0  0  0  0  0  0  0  0  0  0
    8.2860  -13.5912   27.1368 C   0  0  0  0  0  0  0  0  0  0  0  0
    8.9939  -17.7348   25.8661 C   0  0  0  0  0  0  0  0  0  0  0  0
    8.1750  -18.6618   25.6425 O   0  0  0  0  0  0  0  0  0  0  0  0
   13.0723  -18.8363   26.6389 C   0  0  0  0  0  0  0  0  0  0  0  0
   12.0301  -19.7050   25.9773 C   0  0  2  0  0  0  0  0  0  0  0  0
   11.9976  -19.5697   24.4890 C   0  0  0  0  0  0  0  0  0  0  0  0
   10.6971  -19.4332   26.6368 C   0  0  2  0  0  0  0  0  0  0  0  0
   10.2513  -18.0730   26.4107 N   0  0  0  0  0  0  0  0  0  0  0  0
   10.8035  -19.7100   28.0912 C   0  0  0  0  0  0  0  0  0  0  0  0
   10.9458  -21.0216   28.5102 O   0  0  0  0  0  0  0  0  0  0  0  0
   10.7724  -18.8278   28.9645 O   0  0  0  0  0  0  0  0  0  0  0  0
  2  1  1  1
  3  4  1  0
  3  2  1  0
  4  9  2  0
  5  6  2  0
  5  4  1  0
  6  7  1  0
  7  8  2  0
  9  8  1  0
 10  2  1  0
 10 11  2  0
 12 10  1  0
 13 12  1  0
 13 21  1  0
 13 14  1  1
 15 14  1  0
 15 16  2  0
 17 16  1  0
 18 17  2  0
 19 20  2  0
 19 18  1  0
 20 15  1  0
 21 22  2  0
 21 27  1  0
 24 23  1  1
 24 25  1  0
 24 26  1  0
 26 28  1  0
 26 27  1  1
 28 30  2  0
 28 29  1  0
M  END
$$$$
