FFV.pdb
     RDKit          3D

 30 31  0  0  1  0  0  0  0  0999 V2000
    9.8802  -17.4277   19.9794 N   0  0  0  0  0  0  0  0  0  0  0  0
    8.8691  -17.6763   20.9895 C   0  0  1  0  0  0  0  0  0  0  0  0
    9.2094  -19.0114   21.6619 C   0  0  0  0  0  0  0  0  0  0  0  0
    8.0145  -19.6970   22.1566 C   0  0  0  0  0  0  0  0  0  0  0  0
    8.1271  -20.9037   22.7943 C   0  0  0  0  0  0  0  0  0  0  0  0
    7.0053  -21.5287   23.2486 C   0  0  0  0  0  0  0  0  0  0  0  0
    5.7572  -20.9862   23.0876 C   0  0  0  0  0  0  0  0  0  0  0  0
    5.6301  -19.7759   22.4495 C   0  0  0  0  0  0  0  0  0  0  0  0
    6.7700  -19.1497   21.9927 C   0  0  0  0  0  0  0  0  0  0  0  0
    9.0392  -16.6417   22.0695 C   0  0  0  0  0  0  0  0  0  0  0  0
   10.1901  -16.2567   22.4336 O   0  0  0  0  0  0  0  0  0  0  0  0
    7.9352  -16.0499   22.7291 N   0  0  0  0  0  0  0  0  0  0  0  0
    8.1012  -15.1717   23.8393 C   0  0  1  0  0  0  0  0  0  0  0  0
    6.9743  -14.1929   24.0208 C   0  0  0  0  0  0  0  0  0  0  0  0
    7.0661  -13.3664   25.2220 C   0  0  0  0  0  0  0  0  0  0  0  0
    7.9443  -12.3016   25.2977 C   0  0  0  0  0  0  0  0  0  0  0  0
    8.0416  -11.5119   26.4286 C   0  0  0  0  0  0  0  0  0  0  0  0
    7.2622  -11.7520   27.5392 C   0  0  0  0  0  0  0  0  0  0  0  0
    6.3816  -12.8106   27.4785 C   0  0  0  0  0  0  0  0  0  0  0  0
    6.2848  -13.6077   26.3343 C   0  0  0  0  0  0  0  0  0  0  0  0
    8.3589  -15.9115   25.1070 C   0  0  0  0  0  0  0  0  0  0  0  0
    7.4219  -16.5669   25.6288 O   0  0  0  0  0  0  0  0  0  0  0  0
   12.3107  -16.9608   26.2885 C   0  0  0  0  0  0  0  0  0  0  0  0
   11.0435  -17.7397   26.5458 C   0  0  2  0  0  0  0  0  0  0  0  0
   10.6863  -18.6803   25.4403 C   0  0  0  0  0  0  0  0  0  0  0  0
    9.9433  -16.7589   26.8822 C   0  0  2  0  0  0  0  0  0  0  0  0
    9.6133  -15.9113   25.7540 N   0  0  0  0  0  0  0  0  0  0  0  0
   10.3579  -15.9363   28.0461 C   0  0  0  0  0  0  0  0  0  0  0  0
   10.5355  -16.5575   29.2703 O   0  0  0  0  0  0  0  0  0  0  0  0
   10.5575  -14.7122   27.9885 O   0  0  0  0  0  0  0  0  0  0  0  0
  2  1  1  6
  3  4  1  0
  3  2  1  0
  4  9  2  0
  5  6  2  0
  5  4  1  0
  6  7  1  0
  7  8  2  0
  9  8  1  0
 10  2  1  0
 10 11  2  0
 12 10  1  0
 13 12  1  0
 13 21  1  0
 13 14  1  1
 15 14  1  0
 15 16  2  0
 17 16  1  0
 18 17  2  0
 19 20  2  0
 19 18  1  0
 20 15  1  0
 21 22  2  0
 21 27  1  0
 24 23  1  6
 24 25  1  0
 24 26  1  0
 26 28  1  0
 26 27  1  6
 28 30  2  0
 28 29  1  0
M  END
$$$$
