FFV.pdb
     RDKit          3D

 30 31  0  0  1  0  0  0  0  0999 V2000
   11.3355  -16.8614   20.1232 N   0  0  0  0  0  0  0  0  0  0  0  0
   10.3069  -17.4026   20.9914 C   0  0  1  0  0  0  0  0  0  0  0  0
   10.8716  -18.6737   21.6363 C   0  0  0  0  0  0  0  0  0  0  0  0
   10.7292  -19.8410   20.7647 C   0  0  0  0  0  0  0  0  0  0  0  0
   10.2291  -19.6978   19.4978 C   0  0  0  0  0  0  0  0  0  0  0  0
   10.1027  -20.7941   18.6994 C   0  0  0  0  0  0  0  0  0  0  0  0
   10.4622  -22.0463   19.1246 C   0  0  0  0  0  0  0  0  0  0  0  0
   10.9654  -22.2040   20.3935 C   0  0  0  0  0  0  0  0  0  0  0  0
   11.0902  -21.0897   21.1954 C   0  0  0  0  0  0  0  0  0  0  0  0
   10.1184  -16.4380   22.1315 C   0  0  0  0  0  0  0  0  0  0  0  0
   11.0934  -15.7797   22.6017 O   0  0  0  0  0  0  0  0  0  0  0  0
    8.8561  -16.2171   22.7330 N   0  0  0  0  0  0  0  0  0  0  0  0
    8.6736  -15.2640   23.7767 C   0  0  1  0  0  0  0  0  0  0  0  0
    7.3248  -14.5994   23.7714 C   0  0  0  0  0  0  0  0  0  0  0  0
    7.0954  -13.6665   24.8722 C   0  0  0  0  0  0  0  0  0  0  0  0
    6.2832  -13.9991   25.9401 C   0  0  0  0  0  0  0  0  0  0  0  0
    6.0573  -13.1254   26.9878 C   0  0  0  0  0  0  0  0  0  0  0  0
    6.6354  -11.8749   27.0153 C   0  0  0  0  0  0  0  0  0  0  0  0
    7.4479  -11.5291   25.9570 C   0  0  0  0  0  0  0  0  0  0  0  0
    7.6750  -12.4138   24.8988 C   0  0  0  0  0  0  0  0  0  0  0  0
    8.9666  -15.8389   25.1200 C   0  0  0  0  0  0  0  0  0  0  0  0
    8.3658  -16.8834   25.4776 O   0  0  0  0  0  0  0  0  0  0  0  0
   11.5320  -13.9995   28.1663 C   0  0  0  0  0  0  0  0  0  0  0  0
   11.7768  -15.3697   27.5824 C   0  0  2  0  0  0  0  0  0  0  0  0
   12.8009  -15.3802   26.4935 C   0  0  0  0  0  0  0  0  0  0  0  0
   10.4459  -15.9523   27.1641 C   0  0  2  0  0  0  0  0  0  0  0  0
    9.8927  -15.2628   26.0158 N   0  0  0  0  0  0  0  0  0  0  0  0
    9.5029  -15.8939   28.3090 C   0  0  0  0  0  0  0  0  0  0  0  0
    8.3689  -15.1080   28.1975 O   0  0  0  0  0  0  0  0  0  0  0  0
    9.6707  -16.5133   29.3720 O   0  0  0  0  0  0  0  0  0  0  0  0
  2  1  1  6
  3  4  1  0
  3  2  1  0
  4  9  2  0
  5  6  2  0
  5  4  1  0
  6  7  1  0
  7  8  2  0
  9  8  1  0
 10  2  1  0
 10 11  2  0
 12 10  1  0
 13 12  1  0
 13 21  1  0
 13 14  1  1
 15 14  1  0
 15 16  2  0
 17 16  1  0
 18 17  2  0
 19 20  2  0
 19 18  1  0
 20 15  1  0
 21 22  2  0
 21 27  1  0
 24 23  1  6
 24 25  1  0
 24 26  1  0
 26 28  1  0
 26 27  1  6
 28 30  2  0
 28 29  1  0
M  END
$$$$
