FFV.pdb
     RDKit          3D

 30 31  0  0  1  0  0  0  0  0999 V2000
   10.4489  -14.8416   21.0253 N   0  0  0  0  0  0  0  0  0  0  0  0
    9.1863  -14.7171   21.7289 C   0  0  1  0  0  0  0  0  0  0  0  0
    8.1344  -15.4916   20.9263 C   0  0  0  0  0  0  0  0  0  0  0  0
    7.6809  -14.7447   19.7519 C   0  0  0  0  0  0  0  0  0  0  0  0
    7.9023  -15.2385   18.4938 C   0  0  0  0  0  0  0  0  0  0  0  0
    7.4741  -14.5311   17.4114 C   0  0  0  0  0  0  0  0  0  0  0  0
    6.8236  -13.3318   17.5399 C   0  0  0  0  0  0  0  0  0  0  0  0
    6.5949  -12.8250   18.7965 C   0  0  0  0  0  0  0  0  0  0  0  0
    7.0314  -13.5468   19.8868 C   0  0  0  0  0  0  0  0  0  0  0  0
    9.3129  -15.4651   23.0290 C   0  0  0  0  0  0  0  0  0  0  0  0
   10.4117  -15.9890   23.3800 O   0  0  0  0  0  0  0  0  0  0  0  0
    8.2235  -15.6217   23.9193 N   0  0  0  0  0  0  0  0  0  0  0  0
    8.4132  -15.9309   25.2975 C   0  0  1  0  0  0  0  0  0  0  0  0
    7.2699  -15.5170   26.1820 C   0  0  0  0  0  0  0  0  0  0  0  0
    7.1564  -14.0776   26.4059 C   0  0  0  0  0  0  0  0  0  0  0  0
    5.9907  -13.3938   26.1159 C   0  0  0  0  0  0  0  0  0  0  0  0
    5.8703  -12.0319   26.3224 C   0  0  0  0  0  0  0  0  0  0  0  0
    6.9140  -11.2893   26.8303 C   0  0  0  0  0  0  0  0  0  0  0  0
    8.0830  -11.9576   27.1242 C   0  0  0  0  0  0  0  0  0  0  0  0
    8.2027  -13.3344   26.9147 C   0  0  0  0  0  0  0  0  0  0  0  0
    8.7436  -17.3684   25.5104 C   0  0  0  0  0  0  0  0  0  0  0  0
    7.8612  -18.2343   25.2833 O   0  0  0  0  0  0  0  0  0  0  0  0
   12.7801  -18.8150   26.1095 C   0  0  0  0  0  0  0  0  0  0  0  0
   11.6478  -19.5562   25.4410 C   0  0  2  0  0  0  0  0  0  0  0  0
   11.5899  -19.3489   23.9617 C   0  0  0  0  0  0  0  0  0  0  0  0
   10.3617  -19.1990   26.1508 C   0  0  2  0  0  0  0  0  0  0  0  0
   10.0083  -17.8069   25.9578 N   0  0  0  0  0  0  0  0  0  0  0  0
   10.4980  -19.5046   27.5969 C   0  0  0  0  0  0  0  0  0  0  0  0
   10.4649  -18.4594   28.5039 O   0  0  0  0  0  0  0  0  0  0  0  0
   10.6414  -20.6526   28.0480 O   0  0  0  0  0  0  0  0  0  0  0  0
  2  1  1  6
  3  4  1  0
  3  2  1  0
  4  9  2  0
  5  6  2  0
  5  4  1  0
  6  7  1  0
  7  8  2  0
  9  8  1  0
 10  2  1  0
 10 11  2  0
 12 10  1  0
 13 12  1  0
 13 21  1  0
 13 14  1  1
 15 14  1  0
 15 16  2  0
 17 16  1  0
 18 17  2  0
 19 20  2  0
 19 18  1  0
 20 15  1  0
 21 22  2  0
 21 27  1  0
 24 23  1  1
 24 25  1  0
 24 26  1  0
 26 28  1  0
 26 27  1  1
 28 30  2  0
 28 29  1  0
M  END
$$$$
