FFV.pdb
     RDKit          3D

 30 31  0  0  1  0  0  0  0  0999 V2000
    5.4752  -19.7964   21.7050 N   0  0  0  0  0  0  0  0  0  0  0  0
    5.5494  -19.6458   23.1460 C   0  0  1  0  0  0  0  0  0  0  0  0
    6.4387  -20.7743   23.6810 C   0  0  0  0  0  0  0  0  0  0  0  0
    5.6524  -21.8672   24.2553 C   0  0  0  0  0  0  0  0  0  0  0  0
    5.5345  -21.9908   25.6141 C   0  0  0  0  0  0  0  0  0  0  0  0
    4.7992  -23.0135   26.1326 C   0  0  0  0  0  0  0  0  0  0  0  0
    4.1681  -23.9308   25.3336 C   0  0  0  0  0  0  0  0  0  0  0  0
    4.2782  -23.8183   23.9686 C   0  0  0  0  0  0  0  0  0  0  0  0
    5.0241  -22.7806   23.4516 C   0  0  0  0  0  0  0  0  0  0  0  0
    6.3112  -18.3798   23.4338 C   0  0  0  0  0  0  0  0  0  0  0  0
    7.2020  -17.9554   22.6391 O   0  0  0  0  0  0  0  0  0  0  0  0
    6.0761  -17.6042   24.5944 N   0  0  0  0  0  0  0  0  0  0  0  0
    6.7607  -16.3774   24.8340 C   0  0  1  0  0  0  0  0  0  0  0  0
    6.0568  -15.4599   25.7950 C   0  0  0  0  0  0  0  0  0  0  0  0
    6.7796  -14.2301   26.1114 C   0  0  0  0  0  0  0  0  0  0  0  0
    6.5284  -13.0527   25.4324 C   0  0  0  0  0  0  0  0  0  0  0  0
    7.2056  -11.8822   25.7215 C   0  0  0  0  0  0  0  0  0  0  0  0
    8.1682  -11.8361   26.7063 C   0  0  0  0  0  0  0  0  0  0  0  0
    8.4296  -13.0027   27.3920 C   0  0  0  0  0  0  0  0  0  0  0  0
    7.7439  -14.1849   27.0983 C   0  0  0  0  0  0  0  0  0  0  0  0
    8.1721  -16.5954   25.2596 C   0  0  0  0  0  0  0  0  0  0  0  0
    8.3964  -17.2710   26.2955 O   0  0  0  0  0  0  0  0  0  0  0  0
   12.7037  -17.0780   23.3914 C   0  0  0  0  0  0  0  0  0  0  0  0
   11.3308  -16.4629   23.2679 C   0  0  2  0  0  0  0  0  0  0  0  0
   11.3529  -15.0423   22.8030 C   0  0  0  0  0  0  0  0  0  0  0  0
   10.6036  -16.6571   24.5790 C   0  0  2  0  0  0  0  0  0  0  0  0
    9.2763  -16.0762   24.5504 N   0  0  0  0  0  0  0  0  0  0  0  0
   11.4064  -16.0645   25.6780 C   0  0  0  0  0  0  0  0  0  0  0  0
   10.9787  -14.8786   26.2496 O   0  0  0  0  0  0  0  0  0  0  0  0
   12.4492  -16.5726   26.1207 O   0  0  0  0  0  0  0  0  0  0  0  0
  2  1  1  6
  3  4  1  0
  3  2  1  0
  4  9  2  0
  5  6  2  0
  5  4  1  0
  6  7  1  0
  7  8  2  0
  9  8  1  0
 10  2  1  0
 10 11  2  0
 12 10  1  0
 13 12  1  0
 13 21  1  0
 13 14  1  1
 15 14  1  0
 15 16  2  0
 17 16  1  0
 18 17  2  0
 19 20  2  0
 19 18  1  0
 20 15  1  0
 21 22  2  0
 21 27  1  0
 24 23  1  1
 24 25  1  0
 24 26  1  0
 26 28  1  0
 26 27  1  6
 28 30  2  0
 28 29  1  0
M  END
$$$$
