FFV.pdb
     RDKit          3D

 30 31  0  0  1  0  0  0  0  0999 V2000
    8.9989  -14.5977   20.4392 N   0  0  0  0  0  0  0  0  0  0  0  0
    8.3034  -15.6271   21.1882 C   0  0  1  0  0  0  0  0  0  0  0  0
    8.8013  -16.9839   20.6764 C   0  0  0  0  0  0  0  0  0  0  0  0
    8.1009  -17.4025   19.4612 C   0  0  0  0  0  0  0  0  0  0  0  0
    8.6929  -17.2455   18.2362 C   0  0  0  0  0  0  0  0  0  0  0  0
    8.0276  -17.6401   17.1151 C   0  0  0  0  0  0  0  0  0  0  0  0
    6.7752  -18.1936   17.1718 C   0  0  0  0  0  0  0  0  0  0  0  0
    6.1698  -18.3567   18.3945 C   0  0  0  0  0  0  0  0  0  0  0  0
    6.8495  -17.9549   19.5245 C   0  0  0  0  0  0  0  0  0  0  0  0
    8.7767  -15.5515   22.6152 C   0  0  0  0  0  0  0  0  0  0  0  0
    9.9300  -15.1119   22.9011 O   0  0  0  0  0  0  0  0  0  0  0  0
    7.9681  -15.9627   23.7018 N   0  0  0  0  0  0  0  0  0  0  0  0
    8.4172  -15.8776   25.0517 C   0  0  1  0  0  0  0  0  0  0  0  0
    7.3597  -15.4313   26.0229 C   0  0  0  0  0  0  0  0  0  0  0  0
    7.1201  -13.9903   26.0507 C   0  0  0  0  0  0  0  0  0  0  0  0
    5.8977  -13.4568   25.6875 C   0  0  0  0  0  0  0  0  0  0  0  0
    5.6579  -12.0952   25.7087 C   0  0  0  0  0  0  0  0  0  0  0  0
    6.6332  -11.2019   26.0955 C   0  0  0  0  0  0  0  0  0  0  0  0
    7.8575  -11.7192   26.4604 C   0  0  0  0  0  0  0  0  0  0  0  0
    8.0979  -13.0961   26.4383 C   0  0  0  0  0  0  0  0  0  0  0  0
    9.0490  -17.1454   25.5146 C   0  0  0  0  0  0  0  0  0  0  0  0
    8.3617  -18.1978   25.5249 O   0  0  0  0  0  0  0  0  0  0  0  0
   13.3068  -17.5614   26.2278 C   0  0  0  0  0  0  0  0  0  0  0  0
   12.3757  -18.6494   25.7504 C   0  0  2  0  0  0  0  0  0  0  0  0
   12.3069  -18.7654   24.2617 C   0  0  0  0  0  0  0  0  0  0  0  0
   11.0276  -18.4405   26.4020 C   0  0  2  0  0  0  0  0  0  0  0  0
   10.3911  -17.2216   25.9447 N   0  0  0  0  0  0  0  0  0  0  0  0
   11.1935  -18.4181   27.8769 C   0  0  0  0  0  0  0  0  0  0  0  0
   11.6352  -19.5648   28.5142 O   0  0  0  0  0  0  0  0  0  0  0  0
   10.9579  -17.4234   28.5817 O   0  0  0  0  0  0  0  0  0  0  0  0
  2  1  1  6
  3  4  1  0
  3  2  1  0
  4  9  2  0
  5  6  2  0
  5  4  1  0
  6  7  1  0
  7  8  2  0
  9  8  1  0
 10  2  1  0
 10 11  2  0
 12 10  1  0
 13 12  1  0
 13 21  1  0
 13 14  1  1
 15 14  1  0
 15 16  2  0
 17 16  1  0
 18 17  2  0
 19 20  2  0
 19 18  1  0
 20 15  1  0
 21 22  2  0
 21 27  1  0
 24 23  1  6
 24 25  1  0
 24 26  1  0
 26 28  1  0
 26 27  1  6
 28 30  2  0
 28 29  1  0
M  END
$$$$
