FFV.pdb
     RDKit          3D

 30 31  0  0  1  0  0  0  0  0999 V2000
   10.1534  -17.1211   19.7881 N   0  0  0  0  0  0  0  0  0  0  0  0
    9.4567  -17.7390   20.9006 C   0  0  1  0  0  0  0  0  0  0  0  0
   10.3099  -18.9198   21.3785 C   0  0  0  0  0  0  0  0  0  0  0  0
    9.6962  -19.6180   22.5092 C   0  0  0  0  0  0  0  0  0  0  0  0
    8.6163  -20.4362   22.3095 C   0  0  0  0  0  0  0  0  0  0  0  0
    8.0567  -21.0786   23.3723 C   0  0  0  0  0  0  0  0  0  0  0  0
    8.5420  -20.9325   24.6456 C   0  0  0  0  0  0  0  0  0  0  0  0
    9.6250  -20.1145   24.8599 C   0  0  0  0  0  0  0  0  0  0  0  0
   10.1857  -19.4680   23.7792 C   0  0  0  0  0  0  0  0  0  0  0  0
    9.4680  -16.7617   22.0453 C   0  0  0  0  0  0  0  0  0  0  0  0
   10.4832  -16.0420   22.2833 O   0  0  0  0  0  0  0  0  0  0  0  0
    8.3577  -16.5959   22.9078 N   0  0  0  0  0  0  0  0  0  0  0  0
    8.3197  -15.5754   23.9019 C   0  0  1  0  0  0  0  0  0  0  0  0
    6.9926  -14.8775   24.0139 C   0  0  0  0  0  0  0  0  0  0  0  0
    6.9225  -13.8543   25.0545 C   0  0  0  0  0  0  0  0  0  0  0  0
    6.2938  -14.0970   26.2613 C   0  0  0  0  0  0  0  0  0  0  0  0
    6.2199  -13.1374   27.2542 C   0  0  0  0  0  0  0  0  0  0  0  0
    6.7734  -11.8870   27.0846 C   0  0  0  0  0  0  0  0  0  0  0  0
    7.4038  -11.6303   25.8861 C   0  0  0  0  0  0  0  0  0  0  0  0
    7.4774  -12.6018   24.8837 C   0  0  0  0  0  0  0  0  0  0  0  0
    8.7616  -16.0731   25.2351 C   0  0  0  0  0  0  0  0  0  0  0  0
    8.2011  -17.0880   25.7207 O   0  0  0  0  0  0  0  0  0  0  0  0
   12.6701  -16.2409   28.2529 C   0  0  0  0  0  0  0  0  0  0  0  0
   11.8721  -15.4150   27.2733 C   0  0  2  0  0  0  0  0  0  0  0  0
   11.6910  -13.9937   27.6995 C   0  0  0  0  0  0  0  0  0  0  0  0
   10.5704  -16.1324   26.9971 C   0  0  2  0  0  0  0  0  0  0  0  0
    9.7863  -15.4554   25.9838 N   0  0  0  0  0  0  0  0  0  0  0  0
    9.7977  -16.2504   28.2590 C   0  0  0  0  0  0  0  0  0  0  0  0
   10.2589  -17.1067   29.2440 O   0  0  0  0  0  0  0  0  0  0  0  0
    8.7518  -15.6215   28.4878 O   0  0  0  0  0  0  0  0  0  0  0  0
  2  1  1  6
  3  4  1  0
  3  2  1  0
  4  9  2  0
  5  6  2  0
  5  4  1  0
  6  7  1  0
  7  8  2  0
  9  8  1  0
 10  2  1  0
 10 11  2  0
 12 10  1  0
 13 12  1  0
 13 21  1  0
 13 14  1  1
 15 14  1  0
 15 16  2  0
 17 16  1  0
 18 17  2  0
 19 20  2  0
 19 18  1  0
 20 15  1  0
 21 22  2  0
 21 27  1  0
 24 23  1  1
 24 25  1  0
 24 26  1  0
 26 28  1  0
 26 27  1  6
 28 30  2  0
 28 29  1  0
M  END
$$$$
