FFV.pdb
     RDKit          3D

 30 31  0  0  1  0  0  0  0  0999 V2000
   10.2472  -17.1974   20.0859 N   0  0  0  0  0  0  0  0  0  0  0  0
    9.2506  -17.5606   21.0756 C   0  0  1  0  0  0  0  0  0  0  0  0
    9.7144  -18.8627   21.7388 C   0  0  0  0  0  0  0  0  0  0  0  0
    9.1912  -20.0448   21.0521 C   0  0  0  0  0  0  0  0  0  0  0  0
    9.4860  -21.2986   21.5177 C   0  0  0  0  0  0  0  0  0  0  0  0
    8.9914  -22.3883   20.8671 C   0  0  0  0  0  0  0  0  0  0  0  0
    8.2020  -22.2715   19.7530 C   0  0  0  0  0  0  0  0  0  0  0  0
    7.8985  -21.0193   19.2754 C   0  0  0  0  0  0  0  0  0  0  0  0
    8.4029  -19.9215   19.9393 C   0  0  0  0  0  0  0  0  0  0  0  0
    9.2970  -16.5280   22.1699 C   0  0  0  0  0  0  0  0  0  0  0  0
   10.3837  -15.9614   22.4913 O   0  0  0  0  0  0  0  0  0  0  0  0
    8.1424  -16.1388   22.8905 N   0  0  0  0  0  0  0  0  0  0  0  0
    8.1930  -15.1622   23.9272 C   0  0  1  0  0  0  0  0  0  0  0  0
    6.9355  -14.3497   24.0663 C   0  0  0  0  0  0  0  0  0  0  0  0
    6.9428  -13.3902   25.1681 C   0  0  0  0  0  0  0  0  0  0  0  0
    6.1815  -13.5926   26.3039 C   0  0  0  0  0  0  0  0  0  0  0  0
    6.1789  -12.6923   27.3534 C   0  0  0  0  0  0  0  0  0  0  0  0
    6.9403  -11.5445   27.3145 C   0  0  0  0  0  0  0  0  0  0  0  0
    7.7047  -11.3290   26.1881 C   0  0  0  0  0  0  0  0  0  0  0  0
    7.7059  -12.2404   25.1282 C   0  0  0  0  0  0  0  0  0  0  0  0
    8.5790  -15.7548   25.2389 C   0  0  0  0  0  0  0  0  0  0  0  0
    7.7954  -16.5668   25.7925 O   0  0  0  0  0  0  0  0  0  0  0  0
   12.5380  -15.2313   26.8398 C   0  0  0  0  0  0  0  0  0  0  0  0
   11.7358  -16.5056   26.9462 C   0  0  2  0  0  0  0  0  0  0  0  0
   12.0138  -17.4794   25.8467 C   0  0  0  0  0  0  0  0  0  0  0  0
   10.2747  -16.1379   27.0712 C   0  0  2  0  0  0  0  0  0  0  0  0
    9.7905  -15.4457   25.8937 N   0  0  0  0  0  0  0  0  0  0  0  0
   10.0809  -15.3013   28.2819 C   0  0  0  0  0  0  0  0  0  0  0  0
   10.3045  -15.8680   29.5249 O   0  0  0  0  0  0  0  0  0  0  0  0
    9.7267  -14.1117   28.2479 O   0  0  0  0  0  0  0  0  0  0  0  0
  2  1  1  6
  3  4  1  0
  3  2  1  0
  4  9  2  0
  5  6  2  0
  5  4  1  0
  6  7  1  0
  7  8  2  0
  9  8  1  0
 10  2  1  0
 10 11  2  0
 12 10  1  0
 13 12  1  0
 13 21  1  0
 13 14  1  1
 15 14  1  0
 15 16  2  0
 17 16  1  0
 18 17  2  0
 19 20  2  0
 19 18  1  0
 20 15  1  0
 21 22  2  0
 21 27  1  0
 24 23  1  6
 24 25  1  0
 24 26  1  0
 26 28  1  0
 26 27  1  6
 28 30  2  0
 28 29  1  0
M  END
$$$$
