FFV.pdb
     RDKit          3D

 30 31  0  0  1  0  0  0  0  0999 V2000
    9.5406  -17.0167   19.9182 N   0  0  0  0  0  0  0  0  0  0  0  0
    9.2980  -17.7145   21.1667 C   0  0  1  0  0  0  0  0  0  0  0  0
   10.4890  -18.6488   21.4100 C   0  0  0  0  0  0  0  0  0  0  0  0
   10.2644  -19.5384   22.5506 C   0  0  0  0  0  0  0  0  0  0  0  0
    9.1242  -19.4228   23.3002 C   0  0  0  0  0  0  0  0  0  0  0  0
    8.9305  -20.2583   24.3584 C   0  0  0  0  0  0  0  0  0  0  0  0
    9.8458  -21.2188   24.7012 C   0  0  0  0  0  0  0  0  0  0  0  0
   10.9942  -21.3456   23.9573 C   0  0  0  0  0  0  0  0  0  0  0  0
   11.1829  -20.4963   22.8880 C   0  0  0  0  0  0  0  0  0  0  0  0
    9.3654  -16.7002   22.2768 C   0  0  0  0  0  0  0  0  0  0  0  0
   10.4228  -16.0376   22.4965 O   0  0  0  0  0  0  0  0  0  0  0  0
    8.2639  -16.4349   23.1254 N   0  0  0  0  0  0  0  0  0  0  0  0
    8.2945  -15.3951   24.0996 C   0  0  1  0  0  0  0  0  0  0  0  0
    7.0105  -14.6206   24.2105 C   0  0  0  0  0  0  0  0  0  0  0  0
    6.9943  -13.6055   25.2612 C   0  0  0  0  0  0  0  0  0  0  0  0
    7.6912  -12.4194   25.1268 C   0  0  0  0  0  0  0  0  0  0  0  0
    7.6848  -11.4508   26.1136 C   0  0  0  0  0  0  0  0  0  0  0  0
    6.9785  -11.6250   27.2839 C   0  0  0  0  0  0  0  0  0  0  0  0
    6.2786  -12.8031   27.4322 C   0  0  0  0  0  0  0  0  0  0  0  0
    6.2864  -13.7810   26.4334 C   0  0  0  0  0  0  0  0  0  0  0  0
    8.7215  -15.8918   25.4381 C   0  0  0  0  0  0  0  0  0  0  0  0
    7.9671  -16.6801   26.0622 O   0  0  0  0  0  0  0  0  0  0  0  0
   12.7079  -15.1796   26.8400 C   0  0  0  0  0  0  0  0  0  0  0  0
   11.9650  -16.4785   27.0389 C   0  0  2  0  0  0  0  0  0  0  0  0
   12.2349  -17.4898   25.9717 C   0  0  0  0  0  0  0  0  0  0  0  0
   10.4968  -16.1638   27.2141 C   0  0  2  0  0  0  0  0  0  0  0  0
    9.9406  -15.5170   26.0426 N   0  0  0  0  0  0  0  0  0  0  0  0
   10.3179  -15.3082   28.4138 C   0  0  0  0  0  0  0  0  0  0  0  0
    9.8089  -14.0313   28.2506 O   0  0  0  0  0  0  0  0  0  0  0  0
   10.5999  -15.6714   29.5672 O   0  0  0  0  0  0  0  0  0  0  0  0
  2  1  1  6
  3  4  1  0
  3  2  1  0
  4  9  2  0
  5  6  2  0
  5  4  1  0
  6  7  1  0
  7  8  2  0
  9  8  1  0
 10  2  1  0
 10 11  2  0
 12 10  1  0
 13 12  1  0
 13 21  1  0
 13 14  1  1
 15 14  1  0
 15 16  2  0
 17 16  1  0
 18 17  2  0
 19 20  2  0
 19 18  1  0
 20 15  1  0
 21 22  2  0
 21 27  1  0
 24 23  1  6
 24 25  1  0
 24 26  1  0
 26 28  1  0
 26 27  1  6
 28 30  2  0
 28 29  1  0
M  END
$$$$
