FFV.pdb
     RDKit          3D

 30 31  0  0  1  0  0  0  0  0999 V2000
   11.6649  -17.0638   20.4205 N   0  0  0  0  0  0  0  0  0  0  0  0
   10.4757  -17.5177   21.1164 C   0  0  1  0  0  0  0  0  0  0  0  0
   10.8213  -18.8464   21.7988 C   0  0  0  0  0  0  0  0  0  0  0  0
   10.8566  -19.9587   20.8479 C   0  0  0  0  0  0  0  0  0  0  0  0
   12.0513  -20.5337   20.5045 C   0  0  0  0  0  0  0  0  0  0  0  0
   12.0669  -21.5678   19.6182 C   0  0  0  0  0  0  0  0  0  0  0  0
   10.9178  -22.0566   19.0536 C   0  0  0  0  0  0  0  0  0  0  0  0
    9.7124  -21.4888   19.3895 C   0  0  0  0  0  0  0  0  0  0  0  0
    9.7050  -20.4426   20.2872 C   0  0  0  0  0  0  0  0  0  0  0  0
   10.2128  -16.5569   22.2450 C   0  0  0  0  0  0  0  0  0  0  0  0
   11.1498  -15.8757   22.7580 O   0  0  0  0  0  0  0  0  0  0  0  0
    8.9195  -16.3650   22.7876 N   0  0  0  0  0  0  0  0  0  0  0  0
    8.6639  -15.4029   23.8075 C   0  0  1  0  0  0  0  0  0  0  0  0
    7.2773  -14.8226   23.7695 C   0  0  0  0  0  0  0  0  0  0  0  0
    7.0066  -13.8113   24.7888 C   0  0  0  0  0  0  0  0  0  0  0  0
    6.2497  -14.1024   25.9082 C   0  0  0  0  0  0  0  0  0  0  0  0
    5.9855  -13.1547   26.8798 C   0  0  0  0  0  0  0  0  0  0  0  0
    6.4680  -11.8682   26.7757 C   0  0  0  0  0  0  0  0  0  0  0  0
    7.2244  -11.5631   25.6647 C   0  0  0  0  0  0  0  0  0  0  0  0
    7.4903  -12.5227   24.6836 C   0  0  0  0  0  0  0  0  0  0  0  0
    8.9718  -15.9300   25.1669 C   0  0  0  0  0  0  0  0  0  0  0  0
    8.6313  -17.1055   25.4538 O   0  0  0  0  0  0  0  0  0  0  0  0
    9.7130  -13.8934   28.8714 C   0  0  0  0  0  0  0  0  0  0  0  0
   10.8402  -14.6644   28.2284 C   0  0  2  0  0  0  0  0  0  0  0  0
   11.8333  -13.7953   27.5263 C   0  0  0  0  0  0  0  0  0  0  0  0
   10.2403  -15.7321   27.3421 C   0  0  2  0  0  0  0  0  0  0  0  0
    9.6318  -15.1674   26.1543 N   0  0  0  0  0  0  0  0  0  0  0  0
    9.2417  -16.5098   28.1176 C   0  0  0  0  0  0  0  0  0  0  0  0
    9.6822  -17.3019   29.1639 O   0  0  0  0  0  0  0  0  0  0  0  0
    8.0225  -16.4933   27.8831 O   0  0  0  0  0  0  0  0  0  0  0  0
  2  1  1  1
  3  4  1  0
  3  2  1  0
  4  9  2  0
  5  6  2  0
  5  4  1  0
  6  7  1  0
  7  8  2  0
  9  8  1  0
 10  2  1  0
 10 11  2  0
 12 10  1  0
 13 12  1  0
 13 21  1  0
 13 14  1  1
 15 14  1  0
 15 16  2  0
 17 16  1  0
 18 17  2  0
 19 20  2  0
 19 18  1  0
 20 15  1  0
 21 22  2  0
 21 27  1  0
 24 23  1  6
 24 25  1  0
 24 26  1  0
 26 28  1  0
 26 27  1  6
 28 30  2  0
 28 29  1  0
M  END
$$$$
