FFV.pdb
     RDKit          3D

 30 31  0  0  1  0  0  0  0  0999 V2000
    8.9289  -16.7012   20.0373 N   0  0  0  0  0  0  0  0  0  0  0  0
    9.9025  -15.6385   20.2023 C   0  0  1  0  0  0  0  0  0  0  0  0
    9.4152  -14.4374   19.3836 C   0  0  0  0  0  0  0  0  0  0  0  0
    8.9165  -14.8370   18.0666 C   0  0  0  0  0  0  0  0  0  0  0  0
    8.9158  -16.1570   17.7018 C   0  0  0  0  0  0  0  0  0  0  0  0
    8.4486  -16.5122   16.4727 C   0  0  0  0  0  0  0  0  0  0  0  0
    7.9751  -15.5854   15.5811 C   0  0  0  0  0  0  0  0  0  0  0  0
    7.9701  -14.2575   15.9345 C   0  0  0  0  0  0  0  0  0  0  0  0
    8.4446  -13.9061   17.1801 C   0  0  0  0  0  0  0  0  0  0  0  0
    9.8421  -15.1831   21.6358 C   0  0  0  0  0  0  0  0  0  0  0  0
   10.6347  -14.2986   22.0769 O   0  0  0  0  0  0  0  0  0  0  0  0
    8.9073  -15.7125   22.5576 N   0  0  0  0  0  0  0  0  0  0  0  0
    8.6639  -15.1007   23.8216 C   0  0  1  0  0  0  0  0  0  0  0  0
    7.2211  -14.7575   24.0691 C   0  0  0  0  0  0  0  0  0  0  0  0
    6.9846  -13.8927   25.2228 C   0  0  0  0  0  0  0  0  0  0  0  0
    7.2948  -12.5462   25.1885 C   0  0  0  0  0  0  0  0  0  0  0  0
    7.0767  -11.7169   26.2733 C   0  0  0  0  0  0  0  0  0  0  0  0
    6.5364  -12.1984   27.4459 C   0  0  0  0  0  0  0  0  0  0  0  0
    6.2219  -13.5394   27.4950 C   0  0  0  0  0  0  0  0  0  0  0  0
    6.4433  -14.3760   26.3972 C   0  0  0  0  0  0  0  0  0  0  0  0
    9.2096  -15.9064   24.9501 C   0  0  0  0  0  0  0  0  0  0  0  0
    9.2490  -17.1579   24.8393 O   0  0  0  0  0  0  0  0  0  0  0  0
    9.7985  -14.7192   29.1502 C   0  0  0  0  0  0  0  0  0  0  0  0
   10.9316  -15.1522   28.2518 C   0  0  2  0  0  0  0  0  0  0  0  0
   11.7248  -14.0118   27.6997 C   0  0  0  0  0  0  0  0  0  0  0  0
   10.3706  -16.0677   27.1875 C   0  0  2  0  0  0  0  0  0  0  0  0
    9.6874  -15.3277   26.1455 N   0  0  0  0  0  0  0  0  0  0  0  0
    9.4503  -17.0470   27.8178 C   0  0  0  0  0  0  0  0  0  0  0  0
    9.9839  -18.0389   28.6225 O   0  0  0  0  0  0  0  0  0  0  0  0
    8.2180  -17.0310   27.6660 O   0  0  0  0  0  0  0  0  0  0  0  0
  2  1  1  1
  3  4  1  0
  3  2  1  0
  4  9  2  0
  5  6  2  0
  5  4  1  0
  6  7  1  0
  7  8  2  0
  9  8  1  0
 10  2  1  0
 10 11  2  0
 12 10  1  0
 13 12  1  0
 13 21  1  0
 13 14  1  1
 15 14  1  0
 15 16  2  0
 17 16  1  0
 18 17  2  0
 19 20  2  0
 19 18  1  0
 20 15  1  0
 21 22  2  0
 21 27  1  0
 24 23  1  6
 24 25  1  0
 24 26  1  0
 26 28  1  0
 26 27  1  6
 28 30  2  0
 28 29  1  0
M  END
$$$$
