QHV.pdb
     RDKit          3D

 27 27  0  0  1  0  0  0  0  0999 V2000
   43.2587  -10.1125   -1.9807 N   0  0  0  0  0  0  0  0  0  0  0  0
   43.8201   -9.0198   -2.6645 C   0  0  0  0  0  0  0  0  0  0  0  0
   43.2805   -7.9022   -2.5991 O   0  0  0  0  0  0  0  0  0  0  0  0
   45.0459   -9.1967   -3.4578 C   0  0  0  0  0  0  0  0  0  0  0  0
   44.8508   -8.8632   -4.9159 C   0  0  0  0  0  0  0  0  0  0  0  0
   44.5320  -10.1871   -5.6228 C   0  0  2  0  0  0  0  0  0  0  0  0
   45.7230  -10.9199   -5.9282 N   0  0  0  0  0  0  0  0  0  0  0  0
   43.7826   -9.9401   -6.8793 C   0  0  0  0  0  0  0  0  0  0  0  0
   44.4883   -9.7558   -7.9167 O   0  0  0  0  0  0  0  0  0  0  0  0
   42.3669   -9.9220   -6.8636 N   0  0  0  0  0  0  0  0  0  0  0  0
   41.6462   -9.6693   -8.0816 C   0  0  1  0  0  0  0  0  0  0  0  0
   40.8214  -10.8451   -8.4738 C   0  0  0  0  0  0  0  0  0  0  0  0
   39.9866  -10.5858   -9.6727 C   0  0  0  0  0  0  0  0  0  0  0  0
   39.8072   -9.4097  -10.3695 C   0  0  0  0  0  0  0  0  0  0  0  0
   38.9474   -9.6632  -11.4001 N   0  0  0  0  0  0  0  0  0  0  0  0
   38.6009  -10.9534  -11.3499 C   0  0  0  0  0  0  0  0  0  0  0  0
   39.2304  -11.4957  -10.3100 N   0  0  0  0  0  0  0  0  0  0  0  0
   40.8191   -8.4319   -7.8888 C   0  0  0  0  0  0  0  0  0  0  0  0
   40.1431   -8.3531   -6.8555 O   0  0  0  0  0  0  0  0  0  0  0  0
   41.2450   -4.8324  -10.5716 C   0  0  0  0  0  0  0  0  0  0  0  0
   40.9547   -4.9407   -9.0946 C   0  0  2  0  0  0  0  0  0  0  0  0
   42.2709   -4.9414   -8.3491 C   0  0  0  0  0  0  0  0  0  0  0  0
   40.1267   -6.1533   -8.8087 C   0  0  2  0  0  0  0  0  0  0  0  0
   40.8044   -7.3963   -8.8374 N   0  0  0  0  0  0  0  0  0  0  0  0
   38.7935   -6.1695   -9.3941 C   0  0  0  0  0  0  0  0  0  0  0  0
   38.4878   -6.9669  -10.3000 O   0  0  0  0  0  0  0  0  0  0  0  0
   37.8287   -5.2815   -8.9431 O   0  0  0  0  0  0  0  0  0  0  0  0
  2  1  1  0
  3  2  2  0
  4  2  1  0
  5  4  1  0
  6  5  1  0
  6  8  1  0
  6  7  1  6
  8  9  2  0
 10  8  1  0
 10 11  1  0
 11 12  1  1
 12 13  1  0
 13 17  1  0
 14 13  2  0
 14 15  1  0
 15 16  1  0
 17 16  2  0
 18 19  2  0
 18 11  1  0
 21 20  1  6
 21 23  1  0
 22 21  1  0
 23 24  1  6
 24 18  1  0
 25 23  1  0
 25 27  1  0
 26 25  2  0
M  END
$$$$
