QHV.pdb
     RDKit          3D

 27 27  0  0  1  0  0  0  0  0999 V2000
   22.3532  -18.1292  -12.3328 N   0  0  0  0  0  0  0  0  0  0  0  0
   21.1518  -18.8523  -12.4359 C   0  0  0  0  0  0  0  0  0  0  0  0
   20.3011  -18.5264  -13.2812 O   0  0  0  0  0  0  0  0  0  0  0  0
   20.8995  -19.9947  -11.5447 C   0  0  0  0  0  0  0  0  0  0  0  0
   22.0877  -20.3333  -10.6791 C   0  0  0  0  0  0  0  0  0  0  0  0
   23.2368  -20.6734  -11.6372 C   0  0  2  0  0  0  0  0  0  0  0  0
   22.8671  -21.7072  -12.5555 N   0  0  0  0  0  0  0  0  0  0  0  0
   24.4361  -21.1082  -10.8794 C   0  0  0  0  0  0  0  0  0  0  0  0
   24.3349  -22.2176  -10.2735 O   0  0  0  0  0  0  0  0  0  0  0  0
   25.5954  -20.2954  -10.8678 N   0  0  0  0  0  0  0  0  0  0  0  0
   26.7729  -20.7473  -10.1778 C   0  0  1  0  0  0  0  0  0  0  0  0
   27.9881  -20.5861  -11.0227 C   0  0  0  0  0  0  0  0  0  0  0  0
   29.2177  -21.0866  -10.3602 C   0  0  0  0  0  0  0  0  0  0  0  0
   29.3514  -21.7348   -9.1507 C   0  0  0  0  0  0  0  0  0  0  0  0
   30.6785  -21.9990   -8.9642 N   0  0  0  0  0  0  0  0  0  0  0  0
   31.3519  -21.5321  -10.0205 C   0  0  0  0  0  0  0  0  0  0  0  0
   30.4650  -20.9874  -10.8503 N   0  0  0  0  0  0  0  0  0  0  0  0
   26.8752  -19.9952   -8.8831 C   0  0  0  0  0  0  0  0  0  0  0  0
   26.3326  -18.8849   -8.8242 O   0  0  0  0  0  0  0  0  0  0  0  0
   27.4454  -20.2522   -4.0403 C   0  0  0  0  0  0  0  0  0  0  0  0
   27.7384  -20.9521   -5.3449 C   0  0  2  0  0  0  0  0  0  0  0  0
   29.0556  -21.6830   -5.2080 C   0  0  0  0  0  0  0  0  0  0  0  0
   27.7327  -19.9761   -6.4785 C   0  0  2  0  0  0  0  0  0  0  0  0
   27.5577  -20.5208   -7.7739 N   0  0  0  0  0  0  0  0  0  0  0  0
   28.7039  -18.8944   -6.3955 C   0  0  0  0  0  0  0  0  0  0  0  0
   29.6731  -18.8259   -7.1739 O   0  0  0  0  0  0  0  0  0  0  0  0
   28.5605  -17.9079   -5.4316 O   0  0  0  0  0  0  0  0  0  0  0  0
  2  1  1  0
  3  2  2  0
  4  2  1  0
  5  4  1  0
  6  5  1  0
  6  8  1  0
  6  7  1  6
  8  9  2  0
 10  8  1  0
 10 11  1  0
 11 12  1  6
 12 13  1  0
 13 17  1  0
 14 13  2  0
 14 15  1  0
 15 16  1  0
 17 16  2  0
 18 19  2  0
 18 11  1  0
 21 20  1  1
 21 23  1  0
 22 21  1  0
 23 24  1  6
 24 18  1  0
 25 23  1  0
 25 27  1  0
 26 25  2  0
M  END
$$$$
