QHV.pdb
     RDKit          3D

 27 27  0  0  1  0  0  0  0  0999 V2000
   26.8706  -22.3225  -15.5636 N   0  0  0  0  0  0  0  0  0  0  0  0
   28.0016  -21.7934  -16.2102 C   0  0  0  0  0  0  0  0  0  0  0  0
   28.7389  -22.5368  -16.8796 O   0  0  0  0  0  0  0  0  0  0  0  0
   28.3140  -20.3609  -16.0957 C   0  0  0  0  0  0  0  0  0  0  0  0
   27.2947  -19.6043  -15.2808 C   0  0  0  0  0  0  0  0  0  0  0  0
   26.0489  -19.4686  -16.1661 C   0  0  2  0  0  0  0  0  0  0  0  0
   26.2230  -18.4608  -17.1675 N   0  0  0  0  0  0  0  0  0  0  0  0
   24.8599  -19.1317  -15.3449 C   0  0  0  0  0  0  0  0  0  0  0  0
   24.8340  -17.9582  -14.8650 O   0  0  0  0  0  0  0  0  0  0  0  0
   23.8463  -20.0994  -15.1421 N   0  0  0  0  0  0  0  0  0  0  0  0
   22.8043  -19.8467  -14.1844 C   0  0  1  0  0  0  0  0  0  0  0  0
   21.4692  -20.2152  -14.7305 C   0  0  0  0  0  0  0  0  0  0  0  0
   20.9184  -19.1835  -15.6435 C   0  0  0  0  0  0  0  0  0  0  0  0
   21.4248  -17.9401  -15.9571 C   0  0  0  0  0  0  0  0  0  0  0  0
   20.5671  -17.3523  -16.8429 N   0  0  0  0  0  0  0  0  0  0  0  0
   19.5589  -18.1988  -17.0755 C   0  0  0  0  0  0  0  0  0  0  0  0
   19.7809  -19.2930  -16.3507 N   0  0  0  0  0  0  0  0  0  0  0  0
   23.1322  -20.5963  -12.9263 C   0  0  0  0  0  0  0  0  0  0  0  0
   23.2807  -21.8215  -13.0147 O   0  0  0  0  0  0  0  0  0  0  0  0
   26.0124  -20.1941  -10.6778 C   0  0  0  0  0  0  0  0  0  0  0  0
   24.8266  -19.9783   -9.7697 C   0  0  2  0  0  0  0  0  0  0  0  0
   25.1121  -20.6507   -8.4452 C   0  0  0  0  0  0  0  0  0  0  0  0
   23.5725  -20.4777  -10.4143 C   0  0  2  0  0  0  0  0  0  0  0  0
   23.2677  -19.9438  -11.6900 N   0  0  0  0  0  0  0  0  0  0  0  0
   22.4260  -20.6504   -9.5334 C   0  0  0  0  0  0  0  0  0  0  0  0
   21.4382  -19.8949   -9.5915 O   0  0  0  0  0  0  0  0  0  0  0  0
   22.4180  -21.6768   -8.6010 O   0  0  0  0  0  0  0  0  0  0  0  0
  2  1  1  0
  3  2  2  0
  4  2  1  0
  5  4  1  0
  6  5  1  0
  6  8  1  0
  6  7  1  6
  8  9  2  0
 10  8  1  0
 10 11  1  0
 11 12  1  6
 12 13  1  0
 13 17  1  0
 14 13  2  0
 14 15  1  0
 15 16  1  0
 17 16  2  0
 18 19  2  0
 18 11  1  0
 21 20  1  6
 21 23  1  0
 22 21  1  0
 23 24  1  6
 24 18  1  0
 25 23  1  0
 25 27  1  0
 26 25  2  0
M  END
$$$$
