QHV.pdb
     RDKit          3D

 27 27  0  0  1  0  0  0  0  0999 V2000
   15.7579   -6.8122   -7.8903 N   0  0  0  0  0  0  0  0  0  0  0  0
   14.4366   -6.8215   -8.3707 C   0  0  0  0  0  0  0  0  0  0  0  0
   13.5729   -6.1126   -7.8270 O   0  0  0  0  0  0  0  0  0  0  0  0
   14.0741   -7.6694   -9.5166 C   0  0  0  0  0  0  0  0  0  0  0  0
   15.2115   -8.5473   -9.9760 C   0  0  0  0  0  0  0  0  0  0  0  0
   14.7291   -9.2449  -11.2546 C   0  0  2  0  0  0  0  0  0  0  0  0
   14.3353  -10.5971  -10.9989 N   0  0  0  0  0  0  0  0  0  0  0  0
   15.7963   -9.2404  -12.2855 C   0  0  0  0  0  0  0  0  0  0  0  0
   16.2930  -10.3715  -12.5717 O   0  0  0  0  0  0  0  0  0  0  0  0
   16.1964   -8.0195  -12.8802 N   0  0  0  0  0  0  0  0  0  0  0  0
   17.1913   -8.0274  -13.9181 C   0  0  1  0  0  0  0  0  0  0  0  0
   16.6774   -7.3917  -15.1624 C   0  0  0  0  0  0  0  0  0  0  0  0
   15.6848   -8.2372  -15.8704 C   0  0  0  0  0  0  0  0  0  0  0  0
   15.8919   -9.3635  -16.6381 C   0  0  0  0  0  0  0  0  0  0  0  0
   14.6742   -9.7953  -17.0813 N   0  0  0  0  0  0  0  0  0  0  0  0
   13.7374   -8.9676  -16.6073 C   0  0  0  0  0  0  0  0  0  0  0  0
   14.3558   -8.0377  -15.8829 N   0  0  0  0  0  0  0  0  0  0  0  0
   18.4203   -7.3434  -13.3945 C   0  0  0  0  0  0  0  0  0  0  0  0
   18.2602   -6.4387  -12.5657 O   0  0  0  0  0  0  0  0  0  0  0  0
   22.4346   -8.8756  -14.5190 C   0  0  0  0  0  0  0  0  0  0  0  0
   22.0298   -8.2831  -13.1913 C   0  0  2  0  0  0  0  0  0  0  0  0
   21.5894   -9.4087  -12.2818 C   0  0  0  0  0  0  0  0  0  0  0  0
   20.9713   -7.2431  -13.3800 C   0  0  2  0  0  0  0  0  0  0  0  0
   19.7081   -7.7071  -13.8209 N   0  0  0  0  0  0  0  0  0  0  0  0
   21.4064   -5.9898  -13.9800 C   0  0  0  0  0  0  0  0  0  0  0  0
   22.2773   -5.2780  -13.4463 O   0  0  0  0  0  0  0  0  0  0  0  0
   20.8472   -5.5637  -15.1752 O   0  0  0  0  0  0  0  0  0  0  0  0
  2  1  1  0
  3  2  2  0
  4  2  1  0
  5  4  1  0
  6  5  1  0
  6  8  1  0
  6  7  1  1
  8  9  2  0
 10  8  1  0
 10 11  1  0
 11 12  1  6
 12 13  1  0
 13 17  1  0
 14 13  2  0
 14 15  1  0
 15 16  1  0
 17 16  2  0
 18 19  2  0
 18 11  1  0
 21 20  1  6
 21 23  1  0
 22 21  1  0
 23 24  1  6
 24 18  1  0
 25 23  1  0
 25 27  1  0
 26 25  2  0
M  END
$$$$
