QHV.pdb
     RDKit          3D

 27 27  0  0  1  0  0  0  0  0999 V2000
   24.0814  -24.7860  -19.6882 N   0  0  0  0  0  0  0  0  0  0  0  0
   24.6599  -26.0669  -19.7274 C   0  0  0  0  0  0  0  0  0  0  0  0
   24.8053  -26.6498  -20.8152 O   0  0  0  0  0  0  0  0  0  0  0  0
   25.0935  -26.7189  -18.4825 C   0  0  0  0  0  0  0  0  0  0  0  0
   24.8149  -25.8831  -17.2580 C   0  0  0  0  0  0  0  0  0  0  0  0
   25.8890  -24.7878  -17.2294 C   0  0  2  0  0  0  0  0  0  0  0  0
   27.1454  -25.2956  -16.7688 N   0  0  0  0  0  0  0  0  0  0  0  0
   25.4696  -23.6691  -16.3496 C   0  0  0  0  0  0  0  0  0  0  0  0
   25.5885  -23.8715  -15.1034 O   0  0  0  0  0  0  0  0  0  0  0  0
   24.9743  -22.4716  -16.9199 N   0  0  0  0  0  0  0  0  0  0  0  0
   24.5791  -21.3870  -16.0629 C   0  0  1  0  0  0  0  0  0  0  0  0
   25.1592  -20.0960  -16.5248 C   0  0  0  0  0  0  0  0  0  0  0  0
   26.6378  -20.0574  -16.4081 C   0  0  0  0  0  0  0  0  0  0  0  0
   27.4986  -21.0263  -15.9378 C   0  0  0  0  0  0  0  0  0  0  0  0
   28.7691  -20.5325  -16.0245 N   0  0  0  0  0  0  0  0  0  0  0  0
   28.7055  -19.2972  -16.5316 C   0  0  0  0  0  0  0  0  0  0  0  0
   27.4225  -19.0239  -16.7574 N   0  0  0  0  0  0  0  0  0  0  0  0
   23.0795  -21.3521  -16.0122 C   0  0  0  0  0  0  0  0  0  0  0  0
   22.4691  -21.5094  -17.0768 O   0  0  0  0  0  0  0  0  0  0  0  0
   20.6525  -23.4530  -14.5788 C   0  0  0  0  0  0  0  0  0  0  0  0
   20.3136  -22.1498  -13.8974 C   0  0  2  0  0  0  0  0  0  0  0  0
   18.8083  -22.0038  -13.8700 C   0  0  0  0  0  0  0  0  0  0  0  0
   20.9940  -21.0063  -14.5807 C   0  0  2  0  0  0  0  0  0  0  0  0
   22.3843  -21.1497  -14.8088 N   0  0  0  0  0  0  0  0  0  0  0  0
   20.5759  -19.6742  -14.1672 C   0  0  0  0  0  0  0  0  0  0  0  0
   21.1728  -19.0519  -13.2692 O   0  0  0  0  0  0  0  0  0  0  0  0
   19.4880  -19.0694  -14.7783 O   0  0  0  0  0  0  0  0  0  0  0  0
  2  1  1  0
  3  2  2  0
  4  2  1  0
  5  4  1  0
  6  5  1  0
  6  8  1  0
  6  7  1  1
  8  9  2  0
 10  8  1  0
 10 11  1  0
 11 12  1  6
 12 13  1  0
 13 17  1  0
 14 13  2  0
 14 15  1  0
 15 16  1  0
 17 16  2  0
 18 19  2  0
 18 11  1  0
 21 20  1  6
 21 23  1  0
 22 21  1  0
 23 24  1  1
 24 18  1  0
 25 23  1  0
 25 27  1  0
 26 25  2  0
M  END
$$$$
