QHV.pdb
     RDKit          3D

 27 27  0  0  1  0  0  0  0  0999 V2000
   14.3432   -7.4118  -20.2442 N   0  0  0  0  0  0  0  0  0  0  0  0
   15.1065   -8.0008  -21.2676 C   0  0  0  0  0  0  0  0  0  0  0  0
   14.6867   -7.9957  -22.4372 O   0  0  0  0  0  0  0  0  0  0  0  0
   16.4021   -8.6235  -20.9564 C   0  0  0  0  0  0  0  0  0  0  0  0
   16.7313   -8.5821  -19.4849 C   0  0  0  0  0  0  0  0  0  0  0  0
   18.0808   -9.2942  -19.3242 C   0  0  2  0  0  0  0  0  0  0  0  0
   17.9737  -10.6933  -19.6069 N   0  0  0  0  0  0  0  0  0  0  0  0
   18.6016   -9.1196  -17.9459 C   0  0  0  0  0  0  0  0  0  0  0  0
   18.3087  -10.0394  -17.1236 O   0  0  0  0  0  0  0  0  0  0  0  0
   19.3729   -7.9768  -17.6235 N   0  0  0  0  0  0  0  0  0  0  0  0
   19.9998   -7.8838  -16.3330 C   0  0  1  0  0  0  0  0  0  0  0  0
   20.8954   -9.0467  -16.0837 C   0  0  0  0  0  0  0  0  0  0  0  0
   21.6233   -8.9439  -14.7948 C   0  0  0  0  0  0  0  0  0  0  0  0
   21.4859   -8.0091  -13.7908 C   0  0  0  0  0  0  0  0  0  0  0  0
   22.3721   -8.3273  -12.8013 N   0  0  0  0  0  0  0  0  0  0  0  0
   23.0408   -9.4234  -13.1734 C   0  0  0  0  0  0  0  0  0  0  0  0
   22.5829   -9.7834  -14.3703 N   0  0  0  0  0  0  0  0  0  0  0  0
   20.7312   -6.5754  -16.2605 C   0  0  0  0  0  0  0  0  0  0  0  0
   21.4397   -6.2638  -17.2258 O   0  0  0  0  0  0  0  0  0  0  0  0
   19.2994   -3.2482  -13.8772 C   0  0  0  0  0  0  0  0  0  0  0  0
   20.2559   -3.2844  -15.0440 C   0  0  2  0  0  0  0  0  0  0  0  0
   19.4475   -3.3105  -16.3222 C   0  0  0  0  0  0  0  0  0  0  0  0
   21.1879   -4.4483  -14.9243 C   0  0  2  0  0  0  0  0  0  0  0  0
   20.6239   -5.7284  -15.1453 N   0  0  0  0  0  0  0  0  0  0  0  0
   22.1537   -4.3847  -13.8366 C   0  0  0  0  0  0  0  0  0  0  0  0
   23.0188   -3.4910  -13.7829 O   0  0  0  0  0  0  0  0  0  0  0  0
   22.1232   -5.3351  -12.8273 O   0  0  0  0  0  0  0  0  0  0  0  0
  2  1  1  0
  3  2  2  0
  4  2  1  0
  5  4  1  0
  6  5  1  0
  6  8  1  0
  6  7  1  1
  8  9  2  0
 10  8  1  0
 10 11  1  0
 11 12  1  6
 12 13  1  0
 13 17  1  0
 14 13  2  0
 14 15  1  0
 15 16  1  0
 17 16  2  0
 18 19  2  0
 18 11  1  0
 21 20  1  1
 21 23  1  0
 22 21  1  0
 23 24  1  1
 24 18  1  0
 25 23  1  0
 25 27  1  0
 26 25  2  0
M  END
$$$$
