QHV.pdb
     RDKit          3D

 27 27  0  0  1  0  0  0  0  0999 V2000
   21.8759  -14.3231  -18.8066 N   0  0  0  0  0  0  0  0  0  0  0  0
   22.7459  -15.0238  -17.9526 C   0  0  0  0  0  0  0  0  0  0  0  0
   22.7109  -16.2654  -17.9129 O   0  0  0  0  0  0  0  0  0  0  0  0
   23.6980  -14.2896  -17.1056 C   0  0  0  0  0  0  0  0  0  0  0  0
   23.7303  -12.8123  -17.4087 C   0  0  0  0  0  0  0  0  0  0  0  0
   22.8305  -12.1377  -16.3649 C   0  0  2  0  0  0  0  0  0  0  0  0
   21.6591  -12.9160  -16.0991 N   0  0  0  0  0  0  0  0  0  0  0  0
   22.4185  -10.7887  -16.8254 C   0  0  0  0  0  0  0  0  0  0  0  0
   23.3608   -9.9993  -17.1370 O   0  0  0  0  0  0  0  0  0  0  0  0
   21.0438  -10.4566  -16.8934 N   0  0  0  0  0  0  0  0  0  0  0  0
   20.6522   -9.1284  -17.2800 C   0  0  1  0  0  0  0  0  0  0  0  0
   19.5623   -9.1613  -18.2938 C   0  0  0  0  0  0  0  0  0  0  0  0
   20.0655   -9.3992  -19.6692 C   0  0  0  0  0  0  0  0  0  0  0  0
   21.3655   -9.5334  -20.1084 C   0  0  0  0  0  0  0  0  0  0  0  0
   21.3299   -9.7397  -21.4582 N   0  0  0  0  0  0  0  0  0  0  0  0
   20.0518   -9.7347  -21.8499 C   0  0  0  0  0  0  0  0  0  0  0  0
   19.3034   -9.5296  -20.7683 N   0  0  0  0  0  0  0  0  0  0  0  0
   20.2566   -8.3774  -16.0423 C   0  0  0  0  0  0  0  0  0  0  0  0
   19.4635   -8.9292  -15.2695 O   0  0  0  0  0  0  0  0  0  0  0  0
   22.8208   -5.6766  -13.9082 C   0  0  0  0  0  0  0  0  0  0  0  0
   21.5317   -6.3631  -13.5280 C   0  0  2  0  0  0  0  0  0  0  0  0
   21.8470   -7.7938  -13.1513 C   0  0  0  0  0  0  0  0  0  0  0  0
   20.5349   -6.2630  -14.6389 C   0  0  2  0  0  0  0  0  0  0  0  0
   20.7605   -7.0970  -15.7608 N   0  0  0  0  0  0  0  0  0  0  0  0
   20.0657   -4.9219  -14.9577 C   0  0  0  0  0  0  0  0  0  0  0  0
   20.2629   -4.4096  -16.0751 O   0  0  0  0  0  0  0  0  0  0  0  0
   19.3806   -4.1835  -14.0047 O   0  0  0  0  0  0  0  0  0  0  0  0
  2  1  1  0
  3  2  2  0
  4  2  1  0
  5  4  1  0
  6  5  1  0
  6  8  1  0
  6  7  1  6
  8  9  2  0
 10  8  1  0
 10 11  1  0
 11 12  1  6
 12 13  1  0
 13 17  1  0
 14 13  2  0
 14 15  1  0
 15 16  1  0
 17 16  2  0
 18 19  2  0
 18 11  1  0
 21 20  1  6
 21 23  1  0
 22 21  1  0
 23 24  1  6
 24 18  1  0
 25 23  1  0
 25 27  1  0
 26 25  2  0
M  END
$$$$
