YCR.pdb
     RDKit          3D

 30 30  0  0  1  0  0  0  0  0999 V2000
   12.9959  -17.2492   32.5842 O   0  0  0  0  0  0  0  0  0  0  0  0
   12.3856  -17.0021   31.3740 C   0  0  0  0  0  0  0  0  0  0  0  0
   11.7263  -15.7903   31.1817 C   0  0  0  0  0  0  0  0  0  0  0  0
   11.1198  -15.5330   29.9934 C   0  0  0  0  0  0  0  0  0  0  0  0
   11.1170  -16.4211   28.9390 C   0  0  0  0  0  0  0  0  0  0  0  0
   10.4651  -16.1550   27.6625 C   0  0  0  0  0  0  0  0  0  0  0  0
    9.0349  -16.5819   27.5530 C   0  0  2  0  0  0  0  0  0  0  0  0
    9.0662  -18.0214   27.2384 N   0  0  0  0  0  0  0  0  0  0  0  0
    8.3214  -15.9419   26.4018 C   0  0  0  0  0  0  0  0  0  0  0  0
    8.1075  -16.6642   25.3726 O   0  0  0  0  0  0  0  0  0  0  0  0
   11.7669  -17.6158   29.1278 C   0  0  0  0  0  0  0  0  0  0  0  0
   12.3966  -17.9099   30.3297 C   0  0  0  0  0  0  0  0  0  0  0  0
    7.8832  -14.6119   26.3959 N   0  0  0  0  0  0  0  0  0  0  0  0
    6.9673  -14.1349   25.3365 C   0  0  1  0  0  0  0  0  0  0  0  0
    6.7226  -12.6645   25.6285 C   0  0  0  0  0  0  0  0  0  0  0  0
    5.1988  -12.1055   24.8713 S   0  0  0  0  0  0  0  0  0  0  0  0
    7.5687  -14.3805   24.0229 C   0  0  0  0  0  0  0  0  0  0  0  0
    7.9557  -13.3661   23.3466 O   0  0  0  0  0  0  0  0  0  0  0  0
    8.4670  -14.0697   17.4273 N   0  0  0  0  0  0  0  0  0  0  0  0
    8.9297  -12.9193   18.1444 C   0  0  0  0  0  0  0  0  0  0  0  0
    8.5558  -11.7494   17.7737 N   0  0  0  0  0  0  0  0  0  0  0  0
    9.7952  -13.0355   19.2575 N   0  0  0  0  0  0  0  0  0  0  0  0
   10.4311  -14.3386   19.5896 C   0  0  0  0  0  0  0  0  0  0  0  0
    9.3424  -15.1937   20.0979 C   0  0  0  0  0  0  0  0  0  0  0  0
    8.7460  -15.0355   21.4083 C   0  0  0  0  0  0  0  0  0  0  0  0
    7.6508  -15.8565   21.9520 C   0  0  2  0  0  0  0  0  0  0  0  0
    7.7583  -15.6377   23.4423 N   0  0  0  0  0  0  0  0  0  0  0  0
    7.8678  -17.2967   21.8170 C   0  0  0  0  0  0  0  0  0  0  0  0
    7.8283  -17.8967   20.7375 O   0  0  0  0  0  0  0  0  0  0  0  0
    8.1386  -18.0784   22.9413 O   0  0  0  0  0  0  0  0  0  0  0  0
  2 12  2  0
  2  1  1  0
  3  2  1  0
  4  5  1  0
  4  3  2  0
  5 11  2  0
  6  5  1  0
  7  8  1  6
  7  6  1  0
  9  7  1  0
 10  9  2  0
 11 12  1  0
 13  9  1  0
 14 17  1  0
 14 13  1  0
 14 15  1  1
 16 15  1  0
 17 18  2  0
 20 22  1  0
 20 19  1  0
 21 20  2  0
 23 24  1  0
 23 22  1  0
 26 25  1  6
 25 24  1  0
 27 26  1  0
 27 17  1  0
 28 30  1  0
 28 26  1  0
 29 28  2  0
M  END
$$$$
