YCR.pdb
     RDKit          3D

 30 30  0  0  1  0  0  0  0  0999 V2000
    5.9327  -10.7322   28.1710 O   0  0  0  0  0  0  0  0  0  0  0  0
    6.3595  -11.7744   27.3775 C   0  0  0  0  0  0  0  0  0  0  0  0
    7.7263  -11.9958   27.2256 C   0  0  0  0  0  0  0  0  0  0  0  0
    8.1616  -13.0198   26.4458 C   0  0  0  0  0  0  0  0  0  0  0  0
    7.3112  -13.8754   25.7785 C   0  0  0  0  0  0  0  0  0  0  0  0
    7.7697  -14.9736   24.9365 C   0  0  0  0  0  0  0  0  0  0  0  0
    7.4083  -16.3507   25.3978 C   0  0  2  0  0  0  0  0  0  0  0  0
    8.1563  -16.5667   26.6492 N   0  0  0  0  0  0  0  0  0  0  0  0
    7.8831  -17.4220   24.4645 C   0  0  0  0  0  0  0  0  0  0  0  0
    9.0896  -17.8156   24.5924 O   0  0  0  0  0  0  0  0  0  0  0  0
    5.9636  -13.6578   25.9280 C   0  0  0  0  0  0  0  0  0  0  0  0
    5.4858  -12.6205   26.7173 C   0  0  0  0  0  0  0  0  0  0  0  0
    7.0841  -18.0056   23.4735 N   0  0  0  0  0  0  0  0  0  0  0  0
    7.6718  -18.9660   22.5138 C   0  0  1  0  0  0  0  0  0  0  0  0
    6.5047  -19.7567   21.9485 C   0  0  0  0  0  0  0  0  0  0  0  0
    5.6193  -20.6116   23.2498 S   0  0  0  0  0  0  0  0  0  0  0  0
    8.4345  -18.2366   21.4969 C   0  0  0  0  0  0  0  0  0  0  0  0
    7.8078  -17.8379   20.4555 O   0  0  0  0  0  0  0  0  0  0  0  0
    8.6336  -12.7670   16.8327 N   0  0  0  0  0  0  0  0  0  0  0  0
    8.2445  -14.0977   17.1928 C   0  0  0  0  0  0  0  0  0  0  0  0
    8.0567  -14.9731   16.2739 N   0  0  0  0  0  0  0  0  0  0  0  0
    8.0580  -14.4782   18.5426 N   0  0  0  0  0  0  0  0  0  0  0  0
    8.6585  -13.6795   19.6445 C   0  0  0  0  0  0  0  0  0  0  0  0
    9.8043  -14.4709   20.1300 C   0  0  0  0  0  0  0  0  0  0  0  0
    9.6660  -15.7050   20.8754 C   0  0  0  0  0  0  0  0  0  0  0  0
   10.4467  -16.9326   20.6456 C   0  0  2  0  0  0  0  0  0  0  0  0
    9.7975  -17.9360   21.5690 N   0  0  0  0  0  0  0  0  0  0  0  0
   11.8181  -16.8647   21.1498 C   0  0  0  0  0  0  0  0  0  0  0  0
   12.1248  -17.0708   22.3289 O   0  0  0  0  0  0  0  0  0  0  0  0
   12.8723  -16.5545   20.2891 O   0  0  0  0  0  0  0  0  0  0  0  0
  2 12  2  0
  2  1  1  0
  3  2  1  0
  4  5  1  0
  4  3  2  0
  5 11  2  0
  6  5  1  0
  7  8  1  1
  7  6  1  0
  9  7  1  0
 10  9  2  0
 11 12  1  0
 13  9  1  0
 14 17  1  0
 14 13  1  0
 14 15  1  6
 16 15  1  0
 17 18  2  0
 20 22  1  0
 20 19  1  0
 21 20  2  0
 23 24  1  0
 23 22  1  0
 26 25  1  1
 25 24  1  0
 27 26  1  0
 27 17  1  0
 28 30  1  0
 28 26  1  0
 29 28  2  0
M  END
$$$$
