YCR.pdb
     RDKit          3D

 30 30  0  0  1  0  0  0  0  0999 V2000
    5.3443  -27.7011   25.0899 O   0  0  0  0  0  0  0  0  0  0  0  0
    5.3137  -26.3291   24.9678 C   0  0  0  0  0  0  0  0  0  0  0  0
    4.1447  -25.6451   25.2930 C   0  0  0  0  0  0  0  0  0  0  0  0
    4.1000  -24.2921   25.1773 C   0  0  0  0  0  0  0  0  0  0  0  0
    5.1686  -23.5351   24.7465 C   0  0  0  0  0  0  0  0  0  0  0  0
    5.1279  -22.0839   24.6152 C   0  0  0  0  0  0  0  0  0  0  0  0
    6.4259  -21.4171   24.2829 C   0  0  2  0  0  0  0  0  0  0  0  0
    7.3610  -21.7959   25.3572 N   0  0  0  0  0  0  0  0  0  0  0  0
    6.3452  -19.9223   24.3391 C   0  0  0  0  0  0  0  0  0  0  0  0
    5.4202  -19.3614   23.6634 O   0  0  0  0  0  0  0  0  0  0  0  0
    6.3214  -24.2088   24.4259 C   0  0  0  0  0  0  0  0  0  0  0  0
    6.4003  -25.5907   24.5330 C   0  0  0  0  0  0  0  0  0  0  0  0
    7.2188  -19.1199   25.0834 N   0  0  0  0  0  0  0  0  0  0  0  0
    7.0521  -17.6499   25.0944 C   0  0  1  0  0  0  0  0  0  0  0  0
    7.4584  -17.1952   26.4855 C   0  0  0  0  0  0  0  0  0  0  0  0
    9.2083  -17.4594   26.7608 S   0  0  0  0  0  0  0  0  0  0  0  0
    7.8594  -17.0581   24.0240 C   0  0  0  0  0  0  0  0  0  0  0  0
    8.8398  -17.7429   23.5702 O   0  0  0  0  0  0  0  0  0  0  0  0
    8.8134  -14.6804   17.4986 N   0  0  0  0  0  0  0  0  0  0  0  0
    8.2550  -13.3689   17.3572 C   0  0  0  0  0  0  0  0  0  0  0  0
    8.4339  -12.7188   16.2658 N   0  0  0  0  0  0  0  0  0  0  0  0
    7.5074  -12.7634   18.3945 N   0  0  0  0  0  0  0  0  0  0  0  0
    6.9754  -13.5781   19.5196 C   0  0  0  0  0  0  0  0  0  0  0  0
    7.9080  -13.3630   20.6416 C   0  0  0  0  0  0  0  0  0  0  0  0
    7.7957  -14.0407   21.9168 C   0  0  0  0  0  0  0  0  0  0  0  0
    8.4467  -15.3149   22.2661 C   0  0  2  0  0  0  0  0  0  0  0  0
    7.6471  -15.8009   23.4515 N   0  0  0  0  0  0  0  0  0  0  0  0
    9.7912  -15.1598   22.8208 C   0  0  0  0  0  0  0  0  0  0  0  0
   10.8231  -15.2329   22.1449 O   0  0  0  0  0  0  0  0  0  0  0  0
    9.9689  -14.9135   24.1832 O   0  0  0  0  0  0  0  0  0  0  0  0
  2 12  2  0
  2  1  1  0
  3  2  1  0
  4  5  1  0
  4  3  2  0
  5 11  2  0
  6  5  1  0
  7  8  1  1
  7  6  1  0
  9  7  1  0
 10  9  2  0
 11 12  1  0
 13  9  1  0
 14 17  1  0
 14 13  1  0
 14 15  1  1
 16 15  1  0
 17 18  2  0
 20 22  1  0
 20 19  1  0
 21 20  2  0
 23 24  1  0
 23 22  1  0
 26 25  1  1
 25 24  1  0
 27 26  1  0
 27 17  1  0
 28 30  1  0
 28 26  1  0
 29 28  2  0
M  END
$$$$
