YCR.pdb
     RDKit          3D

 30 30  0  0  1  0  0  0  0  0999 V2000
    6.7086  -15.4568   14.5126 O   0  0  0  0  0  0  0  0  0  0  0  0
    7.2865  -15.4586   15.7632 C   0  0  0  0  0  0  0  0  0  0  0  0
    7.9062  -14.3000   16.2258 C   0  0  0  0  0  0  0  0  0  0  0  0
    8.4805  -14.2873   17.4571 C   0  0  0  0  0  0  0  0  0  0  0  0
    8.4876  -15.3794   18.2985 C   0  0  0  0  0  0  0  0  0  0  0  0
    9.1051  -15.3757   19.6190 C   0  0  0  0  0  0  0  0  0  0  0  0
    8.7666  -14.2141   20.4999 C   0  0  2  0  0  0  0  0  0  0  0  0
    9.5099  -13.0641   19.9550 N   0  0  0  0  0  0  0  0  0  0  0  0
    9.2679  -14.3794   21.9018 C   0  0  0  0  0  0  0  0  0  0  0  0
   10.4507  -13.9723   22.1511 O   0  0  0  0  0  0  0  0  0  0  0  0
    7.8767  -16.5217   17.8432 C   0  0  0  0  0  0  0  0  0  0  0  0
    7.2806  -16.5681   16.5902 C   0  0  0  0  0  0  0  0  0  0  0  0
    8.5177  -14.9489   22.9381 N   0  0  0  0  0  0  0  0  0  0  0  0
    9.1015  -15.0872   24.2904 C   0  0  1  0  0  0  0  0  0  0  0  0
    8.2860  -14.1759   25.1913 C   0  0  0  0  0  0  0  0  0  0  0  0
    6.5309  -14.4285   24.9388 S   0  0  0  0  0  0  0  0  0  0  0  0
    9.0693  -16.4953   24.6954 C   0  0  0  0  0  0  0  0  0  0  0  0
    7.9713  -17.1333   24.5425 O   0  0  0  0  0  0  0  0  0  0  0  0
   15.9274  -19.3101   23.9595 N   0  0  0  0  0  0  0  0  0  0  0  0
   14.7213  -19.4015   23.1922 C   0  0  0  0  0  0  0  0  0  0  0  0
   14.6913  -18.9270   22.0006 N   0  0  0  0  0  0  0  0  0  0  0  0
   13.5518  -20.0028   23.7141 N   0  0  0  0  0  0  0  0  0  0  0  0
   12.3084  -20.0727   22.9006 C   0  0  0  0  0  0  0  0  0  0  0  0
   11.3225  -19.2355   23.6090 C   0  0  0  0  0  0  0  0  0  0  0  0
   11.0384  -19.3579   25.0240 C   0  0  0  0  0  0  0  0  0  0  0  0
    9.9931  -18.6179   25.7515 C   0  0  2  0  0  0  0  0  0  0  0  0
   10.1440  -17.2060   25.2370 N   0  0  0  0  0  0  0  0  0  0  0  0
   10.2577  -18.4736   27.1828 C   0  0  0  0  0  0  0  0  0  0  0  0
   10.7895  -17.4770   27.6835 O   0  0  0  0  0  0  0  0  0  0  0  0
    9.9071  -19.4912   28.0717 O   0  0  0  0  0  0  0  0  0  0  0  0
  2 12  2  0
  2  1  1  0
  3  2  1  0
  4  5  1  0
  4  3  2  0
  5 11  2  0
  6  5  1  0
  7  8  1  6
  7  6  1  0
  9  7  1  0
 10  9  2  0
 11 12  1  0
 13  9  1  0
 14 17  1  0
 14 13  1  0
 14 15  1  1
 16 15  1  0
 17 18  2  0
 20 22  1  0
 20 19  1  0
 21 20  2  0
 23 24  1  0
 23 22  1  0
 26 25  1  6
 25 24  1  0
 27 26  1  0
 27 17  1  0
 28 30  1  0
 28 26  1  0
 29 28  2  0
M  END
$$$$
