YCR.pdb
     RDKit          3D

 30 30  0  0  1  0  0  0  0  0999 V2000
    5.5238  -11.1817   29.0234 O   0  0  0  0  0  0  0  0  0  0  0  0
    6.0572  -11.9516   28.0130 C   0  0  0  0  0  0  0  0  0  0  0  0
    7.1866  -12.7243   28.2731 C   0  0  0  0  0  0  0  0  0  0  0  0
    7.7236  -13.4883   27.2862 C   0  0  0  0  0  0  0  0  0  0  0  0
    7.2056  -13.5470   26.0099 C   0  0  0  0  0  0  0  0  0  0  0  0
    7.7779  -14.3604   24.9441 C   0  0  0  0  0  0  0  0  0  0  0  0
    6.8573  -15.3555   24.3099 C   0  0  2  0  0  0  0  0  0  0  0  0
    6.6336  -16.4018   25.3235 N   0  0  0  0  0  0  0  0  0  0  0  0
    7.4764  -16.0623   23.1433 C   0  0  0  0  0  0  0  0  0  0  0  0
    7.8296  -17.2757   23.3158 O   0  0  0  0  0  0  0  0  0  0  0  0
    6.0921  -12.7857   25.7529 C   0  0  0  0  0  0  0  0  0  0  0  0
    5.5188  -11.9942   26.7389 C   0  0  0  0  0  0  0  0  0  0  0  0
    7.6848  -15.4700   21.8916 N   0  0  0  0  0  0  0  0  0  0  0  0
    8.2687  -16.2577   20.7836 C   0  0  1  0  0  0  0  0  0  0  0  0
    7.9406  -15.4944   19.5121 C   0  0  0  0  0  0  0  0  0  0  0  0
    8.5660  -13.8180   19.5912 S   0  0  0  0  0  0  0  0  0  0  0  0
    9.7062  -16.4301   21.0106 C   0  0  0  0  0  0  0  0  0  0  0  0
   10.3842  -15.3976   21.3426 O   0  0  0  0  0  0  0  0  0  0  0  0
   12.0770  -21.5477   26.5103 N   0  0  0  0  0  0  0  0  0  0  0  0
   13.1378  -21.1100   25.6531 C   0  0  0  0  0  0  0  0  0  0  0  0
   14.2765  -21.6987   25.7035 N   0  0  0  0  0  0  0  0  0  0  0  0
   12.9663  -20.0377   24.7463 N   0  0  0  0  0  0  0  0  0  0  0  0
   11.6886  -19.2770   24.7057 C   0  0  0  0  0  0  0  0  0  0  0  0
   11.8514  -18.2842   23.6273 C   0  0  0  0  0  0  0  0  0  0  0  0
   12.0401  -18.6382   22.2356 C   0  0  0  0  0  0  0  0  0  0  0  0
   11.8992  -17.7177   21.0945 C   0  0  2  0  0  0  0  0  0  0  0  0
   10.4044  -17.6355   20.8960 N   0  0  0  0  0  0  0  0  0  0  0  0
   12.3670  -18.2733   19.8249 C   0  0  0  0  0  0  0  0  0  0  0  0
   11.7550  -19.1385   19.1894 O   0  0  0  0  0  0  0  0  0  0  0  0
   13.5650  -17.8326   19.2599 O   0  0  0  0  0  0  0  0  0  0  0  0
  2 12  2  0
  2  1  1  0
  3  2  1  0
  4  5  1  0
  4  3  2  0
  5 11  2  0
  6  5  1  0
  7  8  1  1
  7  6  1  0
  9  7  1  0
 10  9  2  0
 11 12  1  0
 13  9  1  0
 14 17  1  0
 14 13  1  0
 14 15  1  6
 16 15  1  0
 17 18  2  0
 20 22  1  0
 20 19  1  0
 21 20  2  0
 23 24  1  0
 23 22  1  0
 26 25  1  1
 25 24  1  0
 27 26  1  0
 27 17  1  0
 28 30  1  0
 28 26  1  0
 29 28  2  0
M  END
$$$$
