YCR.pdb
     RDKit          3D

 30 30  0  0  1  0  0  0  0  0999 V2000
    7.2933  -14.3921   15.6448 O   0  0  0  0  0  0  0  0  0  0  0  0
    7.5644  -14.1927   16.9808 C   0  0  0  0  0  0  0  0  0  0  0  0
    7.3065  -12.9462   17.5466 C   0  0  0  0  0  0  0  0  0  0  0  0
    7.5692  -12.7351   18.8629 C   0  0  0  0  0  0  0  0  0  0  0  0
    8.0889  -13.7043   19.6943 C   0  0  0  0  0  0  0  0  0  0  0  0
    8.3777  -13.4850   21.1062 C   0  0  0  0  0  0  0  0  0  0  0  0
    8.0123  -14.6017   22.0332 C   0  0  2  0  0  0  0  0  0  0  0  0
    6.5412  -14.5882   22.1215 N   0  0  0  0  0  0  0  0  0  0  0  0
    8.4937  -14.3784   23.4341 C   0  0  0  0  0  0  0  0  0  0  0  0
    8.6124  -13.1703   23.8253 O   0  0  0  0  0  0  0  0  0  0  0  0
    8.3432  -14.9333   19.1371 C   0  0  0  0  0  0  0  0  0  0  0  0
    8.0863  -15.1819   17.7957 C   0  0  0  0  0  0  0  0  0  0  0  0
    8.8155  -15.4108   24.3237 N   0  0  0  0  0  0  0  0  0  0  0  0
    9.3667  -15.0965   25.6602 C   0  0  1  0  0  0  0  0  0  0  0  0
    8.4247  -14.0722   26.2688 C   0  0  0  0  0  0  0  0  0  0  0  0
    8.9339  -13.6407   27.9309 S   0  0  0  0  0  0  0  0  0  0  0  0
    9.4800  -16.3292   26.4448 C   0  0  0  0  0  0  0  0  0  0  0  0
    8.3973  -16.9176   26.7880 O   0  0  0  0  0  0  0  0  0  0  0  0
   12.5257  -18.1593   22.4359 N   0  0  0  0  0  0  0  0  0  0  0  0
   13.2113  -19.4012   22.6346 C   0  0  0  0  0  0  0  0  0  0  0  0
   13.3901  -20.1919   21.6403 N   0  0  0  0  0  0  0  0  0  0  0  0
   13.6997  -19.7858   23.9055 N   0  0  0  0  0  0  0  0  0  0  0  0
   13.6400  -18.8449   25.0562 C   0  0  0  0  0  0  0  0  0  0  0  0
   12.2508  -18.9056   25.5473 C   0  0  0  0  0  0  0  0  0  0  0  0
   11.8984  -18.9162   26.9522 C   0  0  0  0  0  0  0  0  0  0  0  0
   10.7149  -18.2656   27.5399 C   0  0  2  0  0  0  0  0  0  0  0  0
   10.6786  -16.9218   26.8517 N   0  0  0  0  0  0  0  0  0  0  0  0
   10.8755  -17.9066   28.9487 C   0  0  0  0  0  0  0  0  0  0  0  0
   11.0602  -16.7504   29.3436 O   0  0  0  0  0  0  0  0  0  0  0  0
   10.8240  -18.8898   29.9382 O   0  0  0  0  0  0  0  0  0  0  0  0
  2 12  2  0
  2  1  1  0
  3  2  1  0
  4  5  1  0
  4  3  2  0
  5 11  2  0
  6  5  1  0
  7  8  1  1
  7  6  1  0
  9  7  1  0
 10  9  2  0
 11 12  1  0
 13  9  1  0
 14 17  1  0
 14 13  1  0
 14 15  1  1
 16 15  1  0
 17 18  2  0
 20 22  1  0
 20 19  1  0
 21 20  2  0
 23 24  1  0
 23 22  1  0
 26 25  1  6
 25 24  1  0
 27 26  1  0
 27 17  1  0
 28 30  1  0
 28 26  1  0
 29 28  2  0
M  END
$$$$
