IKH.pdb
     RDKit          3D

 28 28  0  0  1  0  0  0  0  0999 V2000
    6.3143  -11.5998   27.9911 C   0  0  0  0  0  0  0  0  0  0  0  0
    5.9611  -12.9019   27.3571 C   0  0  0  0  0  0  0  0  0  0  0  0
    7.0085  -13.3522   26.3262 C   0  0  2  0  0  0  0  0  0  0  0  0
    7.2021  -12.1639   25.4137 C   0  0  0  0  0  0  0  0  0  0  0  0
    6.3303  -14.4513   25.5321 C   0  0  2  0  0  0  0  0  0  0  0  0
    6.1817  -15.5767   26.4717 N   0  0  0  0  0  0  0  0  0  0  0  0
    7.1414  -14.9538   24.4072 C   0  0  0  0  0  0  0  0  0  0  0  0
    8.0813  -15.7986   24.6041 O   0  0  0  0  0  0  0  0  0  0  0  0
    6.9881  -14.5855   23.0499 N   0  0  0  0  0  0  0  0  0  0  0  0
    7.8890  -14.9822   21.9934 C   0  0  1  0  0  0  0  0  0  0  0  0
    7.6235  -14.1678   20.7230 C   0  0  0  0  0  0  0  0  0  0  0  0
    8.3140  -14.7436   19.5401 C   0  0  0  0  0  0  0  0  0  0  0  0
    8.0054  -13.9834   18.2841 C   0  0  0  0  0  0  0  0  0  0  0  0
    8.5560  -14.7267   17.0935 C   0  0  0  0  0  0  0  0  0  0  0  0
    8.3846  -13.9559   15.8657 N   0  0  0  0  0  0  0  0  0  0  0  0
    9.2984  -14.9383   22.3878 C   0  0  0  0  0  0  0  0  0  0  0  0
    9.6336  -14.4673   23.5097 O   0  0  0  0  0  0  0  0  0  0  0  0
   10.3557  -15.4067   21.5637 N   0  0  0  0  0  0  0  0  0  0  0  0
   11.3752  -16.3271   22.0492 C   0  0  1  0  0  0  0  0  0  0  0  0
   10.7855  -17.6100   22.5302 C   0  0  0  0  0  0  0  0  0  0  0  0
   10.6601  -17.5881   24.0027 C   0  0  0  0  0  0  0  0  0  0  0  0
   10.9114  -16.5289   24.8500 C   0  0  0  0  0  0  0  0  0  0  0  0
   10.6809  -16.9754   26.0932 N   0  0  0  0  0  0  0  0  0  0  0  0
   10.2956  -18.2784   26.0282 C   0  0  0  0  0  0  0  0  0  0  0  0
   10.2807  -18.6609   24.7483 N   0  0  0  0  0  0  0  0  0  0  0  0
   12.4746  -16.4826   21.0746 C   0  0  0  0  0  0  0  0  0  0  0  0
   13.7874  -16.4487   21.5906 O   0  0  0  0  0  0  0  0  0  0  0  0
   12.3732  -16.6396   19.8540 O   0  0  0  0  0  0  0  0  0  0  0  0
  2  1  1  0
  3  2  1  0
  3  5  1  0
  3  4  1  6
  5  6  1  1
  7  8  2  0
  7  5  1  0
  9  7  1  0
 10  9  1  0
 11 12  1  0
 10 11  1  6
 12 13  1  0
 13 14  1  0
 14 15  1  0
 16 17  2  0
 16 10  1  0
 18 16  1  0
 19 20  1  6
 19 18  1  0
 20 21  1  0
 21 25  1  0
 21 22  2  0
 22 23  1  0
 24 23  1  0
 25 24  2  0
 26 19  1  0
 27 26  1  0
 28 26  2  0
M  END
$$$$
