IKH.pdb
     RDKit          3D

 28 28  0  0  1  0  0  0  0  0999 V2000
    8.2856  -12.2589   20.7910 C   0  0  0  0  0  0  0  0  0  0  0  0
    7.4985  -13.5248   20.7961 C   0  0  0  0  0  0  0  0  0  0  0  0
    8.2635  -14.6903   20.1486 C   0  0  2  0  0  0  0  0  0  0  0  0
    8.2411  -14.4030   18.6656 C   0  0  0  0  0  0  0  0  0  0  0  0
    7.4054  -15.9135   20.4052 C   0  0  2  0  0  0  0  0  0  0  0  0
    6.0567  -15.5494   19.9360 N   0  0  0  0  0  0  0  0  0  0  0  0
    7.2707  -16.2512   21.8347 C   0  0  0  0  0  0  0  0  0  0  0  0
    6.3543  -15.7176   22.5498 O   0  0  0  0  0  0  0  0  0  0  0  0
    8.0905  -17.1556   22.5499 N   0  0  0  0  0  0  0  0  0  0  0  0
    7.9671  -17.4206   23.9640 C   0  0  1  0  0  0  0  0  0  0  0  0
    7.6655  -18.9023   24.2114 C   0  0  0  0  0  0  0  0  0  0  0  0
    7.4764  -19.1966   25.6555 C   0  0  0  0  0  0  0  0  0  0  0  0
    7.3101  -20.6652   25.9126 C   0  0  0  0  0  0  0  0  0  0  0  0
    7.1309  -20.9039   27.3905 C   0  0  0  0  0  0  0  0  0  0  0  0
    5.7485  -21.2525   27.7041 N   0  0  0  0  0  0  0  0  0  0  0  0
    9.1182  -16.9584   24.7420 C   0  0  0  0  0  0  0  0  0  0  0  0
   10.1313  -17.6974   24.8847 O   0  0  0  0  0  0  0  0  0  0  0  0
    9.1763  -15.6870   25.3718 N   0  0  0  0  0  0  0  0  0  0  0  0
    9.4162  -15.5336   26.8005 C   0  0  1  0  0  0  0  0  0  0  0  0
    8.1535  -15.2858   27.5551 C   0  0  0  0  0  0  0  0  0  0  0  0
    7.5177  -14.0387   27.0808 C   0  0  0  0  0  0  0  0  0  0  0  0
    8.0152  -13.1421   26.1580 C   0  0  0  0  0  0  0  0  0  0  0  0
    7.1080  -12.1599   26.0568 N   0  0  0  0  0  0  0  0  0  0  0  0
    6.0698  -12.4324   26.8927 C   0  0  0  0  0  0  0  0  0  0  0  0
    6.3147  -13.5838   27.5242 N   0  0  0  0  0  0  0  0  0  0  0  0
   10.2451  -16.6345   27.3330 C   0  0  0  0  0  0  0  0  0  0  0  0
   10.6106  -16.5506   28.6932 O   0  0  0  0  0  0  0  0  0  0  0  0
   10.6556  -17.6240   26.7189 O   0  0  0  0  0  0  0  0  0  0  0  0
  2  1  1  0
  3  2  1  0
  3  5  1  0
  3  4  1  6
  5  6  1  1
  7  8  2  0
  7  5  1  0
  9  7  1  0
 10  9  1  0
 11 12  1  0
 10 11  1  6
 12 13  1  0
 13 14  1  0
 14 15  1  0
 16 17  2  0
 16 10  1  0
 18 16  1  0
 19 20  1  1
 19 18  1  0
 20 21  1  0
 21 25  1  0
 21 22  2  0
 22 23  1  0
 24 23  1  0
 25 24  2  0
 26 19  1  0
 27 26  1  0
 28 26  2  0
M  END
$$$$
