IKH.pdb
     RDKit          3D

 28 28  0  0  1  0  0  0  0  0999 V2000
    5.7586  -10.9220   26.8994 C   0  0  0  0  0  0  0  0  0  0  0  0
    5.4193  -12.2272   26.2643 C   0  0  0  0  0  0  0  0  0  0  0  0
    6.6695  -13.0601   25.9386 C   0  0  2  0  0  0  0  0  0  0  0  0
    7.4785  -12.2057   24.9911 C   0  0  0  0  0  0  0  0  0  0  0  0
    6.1523  -14.2590   25.1680 C   0  0  2  0  0  0  0  0  0  0  0  0
    5.2980  -14.9941   26.1174 N   0  0  0  0  0  0  0  0  0  0  0  0
    7.2129  -15.1961   24.7522 C   0  0  0  0  0  0  0  0  0  0  0  0
    7.7340  -16.0089   25.5911 O   0  0  0  0  0  0  0  0  0  0  0  0
    7.7528  -15.3060   23.4491 N   0  0  0  0  0  0  0  0  0  0  0  0
    8.7452  -16.2801   23.0601 C   0  0  1  0  0  0  0  0  0  0  0  0
    8.8692  -16.3450   21.5343 C   0  0  0  0  0  0  0  0  0  0  0  0
    9.7788  -17.4355   21.0972 C   0  0  0  0  0  0  0  0  0  0  0  0
    9.9247  -17.4812   19.6048 C   0  0  0  0  0  0  0  0  0  0  0  0
   10.8375  -18.6177   19.2194 C   0  0  0  0  0  0  0  0  0  0  0  0
   10.9330  -18.7479   17.7685 N   0  0  0  0  0  0  0  0  0  0  0  0
   10.0426  -16.0746   23.7070 C   0  0  0  0  0  0  0  0  0  0  0  0
   10.7001  -15.0176   23.4988 O   0  0  0  0  0  0  0  0  0  0  0  0
   10.6358  -17.0185   24.5865 N   0  0  0  0  0  0  0  0  0  0  0  0
   12.0001  -16.8784   25.0776 C   0  0  1  0  0  0  0  0  0  0  0  0
   12.1291  -17.3120   26.4990 C   0  0  0  0  0  0  0  0  0  0  0  0
   11.5551  -16.2857   27.3945 C   0  0  0  0  0  0  0  0  0  0  0  0
   11.0226  -15.0643   27.0376 C   0  0  0  0  0  0  0  0  0  0  0  0
   10.6438  -14.4685   28.1775 N   0  0  0  0  0  0  0  0  0  0  0  0
   10.9306  -15.2928   29.2210 C   0  0  0  0  0  0  0  0  0  0  0  0
   11.4900  -16.4099   28.7478 N   0  0  0  0  0  0  0  0  0  0  0  0
   12.9750  -17.4960   24.1552 C   0  0  0  0  0  0  0  0  0  0  0  0
   14.3364  -17.3936   24.5119 O   0  0  0  0  0  0  0  0  0  0  0  0
   12.7314  -18.0943   23.1028 O   0  0  0  0  0  0  0  0  0  0  0  0
  2  1  1  0
  3  2  1  0
  3  5  1  0
  3  4  1  6
  5  6  1  1
  7  8  2  0
  7  5  1  0
  9  7  1  0
 10  9  1  0
 11 12  1  0
 10 11  1  6
 12 13  1  0
 13 14  1  0
 14 15  1  0
 16 17  2  0
 16 10  1  0
 18 16  1  0
 19 20  1  1
 19 18  1  0
 20 21  1  0
 21 25  1  0
 21 22  2  0
 22 23  1  0
 24 23  1  0
 25 24  2  0
 26 19  1  0
 27 26  1  0
 28 26  2  0
M  END
$$$$
