ATS.pdb
     RDKit          3D

 19 18  0  0  1  0  0  0  0  0999 V2000
   -8.4860  -25.3821   26.1547 C   0  0  0  0  0  0  0  0  0  0  0  0
   -7.4961  -24.2849   25.8933 C   0  0  2  0  0  0  0  0  0  0  0  0
   -7.1047  -24.3309   24.4978 N   0  0  0  0  0  0  0  0  0  0  0  0
   -6.2964  -24.4706   26.7684 C   0  0  0  0  0  0  0  0  0  0  0  0
   -5.4450  -25.3359   26.4620 O   0  0  0  0  0  0  0  0  0  0  0  0
   -3.9331  -21.6890   27.8424 C   0  0  0  0  0  0  0  0  0  0  0  0
   -4.4018  -22.4476   29.0624 C   0  0  1  0  0  0  0  0  0  0  0  0
   -5.3588  -21.7290   29.7776 O   0  0  0  0  0  0  0  0  0  0  0  0
   -4.8677  -23.8391   28.7260 C   0  0  2  0  0  0  0  0  0  0  0  0
   -6.0677  -23.7121   27.9394 N   0  0  0  0  0  0  0  0  0  0  0  0
   -5.1200  -24.6845   29.8838 C   0  0  0  0  0  0  0  0  0  0  0  0
   -6.3051  -25.0095   30.1475 O   0  0  0  0  0  0  0  0  0  0  0  0
   -4.2397  -28.1422   30.4786 O   0  0  0  0  0  0  0  0  0  0  0  0
   -5.1430  -27.3646   31.1987 C   0  0  0  0  0  0  0  0  0  0  0  0
   -4.4570  -26.1501   31.7925 C   0  0  2  0  0  0  0  0  0  0  0  0
   -4.1227  -25.1874   30.7639 N   0  0  0  0  0  0  0  0  0  0  0  0
   -3.2687  -26.5501   32.5860 C   0  0  0  0  0  0  0  0  0  0  0  0
   -3.4601  -27.3573   33.6988 O   0  0  0  0  0  0  0  0  0  0  0  0
   -2.1202  -26.1896   32.2896 O   0  0  0  0  0  0  0  0  0  0  0  0
  2  3  1  0
  2  1  1  6
  4  2  1  0
  5  4  2  0
  7  6  1  6
  7  8  1  0
  7  9  1  0
  9 11  1  0
  9 10  1  1
 10  4  1  0
 11 12  2  0
 15 14  1  6
 14 13  1  0
 16 15  1  0
 16 11  1  0
 17 18  1  0
 17 15  1  0
 19 17  2  0
M  END
$$$$
