ATS.pdb
     RDKit          3D

 19 18  0  0  1  0  0  0  0  0999 V2000
    8.2973  -21.4500   24.0391 C   0  0  0  0  0  0  0  0  0  0  0  0
    7.8069  -20.6953   22.8382 C   0  0  2  0  0  0  0  0  0  0  0  0
    7.4954  -21.6427   21.7856 N   0  0  0  0  0  0  0  0  0  0  0  0
    8.8652  -19.7441   22.3750 C   0  0  0  0  0  0  0  0  0  0  0  0
    9.7340  -20.1436   21.5666 O   0  0  0  0  0  0  0  0  0  0  0  0
   10.3197  -15.0394   21.9780 C   0  0  0  0  0  0  0  0  0  0  0  0
    9.3075  -16.1485   22.1483 C   0  0  1  0  0  0  0  0  0  0  0  0
    8.3789  -16.1602   21.1085 O   0  0  0  0  0  0  0  0  0  0  0  0
    9.9589  -17.4913   22.3459 C   0  0  2  0  0  0  0  0  0  0  0  0
    8.9400  -18.3996   22.8057 N   0  0  0  0  0  0  0  0  0  0  0  0
   11.0765  -17.4854   23.2784 C   0  0  0  0  0  0  0  0  0  0  0  0
   10.8578  -17.1945   24.4814 O   0  0  0  0  0  0  0  0  0  0  0  0
   14.5069  -19.6136   22.8717 O   0  0  0  0  0  0  0  0  0  0  0  0
   14.1279  -19.0956   24.1075 C   0  0  0  0  0  0  0  0  0  0  0  0
   13.4682  -17.7403   23.9459 C   0  0  2  0  0  0  0  0  0  0  0  0
   12.4252  -17.7863   22.9427 N   0  0  0  0  0  0  0  0  0  0  0  0
   14.4776  -16.6936   23.6499 C   0  0  0  0  0  0  0  0  0  0  0  0
   15.4772  -16.4587   24.5837 O   0  0  0  0  0  0  0  0  0  0  0  0
   14.4569  -16.0280   22.6044 O   0  0  0  0  0  0  0  0  0  0  0  0
  2  3  1  0
  2  1  1  1
  4  2  1  0
  5  4  2  0
  7  6  1  6
  7  8  1  0
  7  9  1  0
  9 11  1  0
  9 10  1  1
 10  4  1  0
 11 12  2  0
 15 14  1  6
 14 13  1  0
 16 15  1  0
 16 11  1  0
 17 18  1  0
 17 15  1  0
 19 17  2  0
M  END
$$$$
