ATS.pdb
     RDKit          3D

 19 18  0  0  1  0  0  0  0  0999 V2000
    8.6154  -12.0821   19.6672 C   0  0  0  0  0  0  0  0  0  0  0  0
    8.6627  -13.3347   18.8420 C   0  0  2  0  0  0  0  0  0  0  0  0
    7.5522  -13.3228   17.9097 N   0  0  0  0  0  0  0  0  0  0  0  0
    8.5680  -14.5305   19.7368 C   0  0  0  0  0  0  0  0  0  0  0  0
    7.4386  -14.9535   20.0733 O   0  0  0  0  0  0  0  0  0  0  0  0
    8.5545  -17.6979   19.2076 C   0  0  0  0  0  0  0  0  0  0  0  0
    9.7073  -17.5927   20.1788 C   0  0  1  0  0  0  0  0  0  0  0  0
   10.9370  -17.6532   19.5246 O   0  0  0  0  0  0  0  0  0  0  0  0
    9.5949  -16.3849   21.0705 C   0  0  2  0  0  0  0  0  0  0  0  0
    9.6995  -15.2194   20.2306 N   0  0  0  0  0  0  0  0  0  0  0  0
   10.5919  -16.3250   22.1294 C   0  0  0  0  0  0  0  0  0  0  0  0
   11.6757  -15.7292   21.9055 O   0  0  0  0  0  0  0  0  0  0  0  0
    9.9167  -17.6716   25.9852 O   0  0  0  0  0  0  0  0  0  0  0  0
   10.8703  -16.6702   25.8207 C   0  0  0  0  0  0  0  0  0  0  0  0
   11.4734  -16.7214   24.4308 C   0  0  2  0  0  0  0  0  0  0  0  0
   10.4464  -16.8934   23.4247 N   0  0  0  0  0  0  0  0  0  0  0  0
   12.5158  -17.7741   24.3459 C   0  0  0  0  0  0  0  0  0  0  0  0
   13.6767  -17.6140   25.0895 O   0  0  0  0  0  0  0  0  0  0  0  0
   12.3842  -18.7833   23.6381 O   0  0  0  0  0  0  0  0  0  0  0  0
  2  3  1  0
  2  1  1  1
  4  2  1  0
  5  4  2  0
  7  6  1  6
  7  8  1  0
  7  9  1  0
  9 11  1  0
  9 10  1  6
 10  4  1  0
 11 12  2  0
 15 14  1  1
 14 13  1  0
 16 15  1  0
 16 11  1  0
 17 18  1  0
 17 15  1  0
 19 17  2  0
M  END
$$$$
