ATS.pdb
     RDKit          3D

 19 18  0  0  1  0  0  0  0  0999 V2000
   16.2081  -18.6563   19.3458 C   0  0  0  0  0  0  0  0  0  0  0  0
   15.0139  -18.8122   18.4504 C   0  0  2  0  0  0  0  0  0  0  0  0
   15.3341  -18.2686   17.1449 N   0  0  0  0  0  0  0  0  0  0  0  0
   13.8464  -18.0826   19.0371 C   0  0  0  0  0  0  0  0  0  0  0  0
   13.6859  -16.8704   18.7680 O   0  0  0  0  0  0  0  0  0  0  0  0
   10.2645  -19.1938   18.8087 C   0  0  0  0  0  0  0  0  0  0  0  0
   10.5636  -18.8911   20.2586 C   0  0  1  0  0  0  0  0  0  0  0  0
   10.6744  -20.0573   21.0144 O   0  0  0  0  0  0  0  0  0  0  0  0
   11.7601  -17.9917   20.4196 C   0  0  2  0  0  0  0  0  0  0  0  0
   12.9006  -18.6950   19.8910 N   0  0  0  0  0  0  0  0  0  0  0  0
   12.0223  -17.5803   21.7910 C   0  0  0  0  0  0  0  0  0  0  0  0
   13.0578  -18.0062   22.3619 O   0  0  0  0  0  0  0  0  0  0  0  0
    9.3358  -15.4479   24.2473 O   0  0  0  0  0  0  0  0  0  0  0  0
   10.6994  -15.2550   24.4536 C   0  0  0  0  0  0  0  0  0  0  0  0
   11.4955  -16.4425   23.9495 C   0  0  2  0  0  0  0  0  0  0  0  0
   11.1925  -16.7195   22.5609 N   0  0  0  0  0  0  0  0  0  0  0  0
   11.2774  -17.6295   24.8129 C   0  0  0  0  0  0  0  0  0  0  0  0
   11.7406  -17.5877   26.1206 O   0  0  0  0  0  0  0  0  0  0  0  0
   10.6998  -18.6486   24.4072 O   0  0  0  0  0  0  0  0  0  0  0  0
  2  3  1  0
  2  1  1  1
  4  2  1  0
  5  4  2  0
  7  6  1  6
  7  8  1  0
  7  9  1  0
  9 11  1  0
  9 10  1  1
 10  4  1  0
 11 12  2  0
 15 14  1  1
 14 13  1  0
 16 15  1  0
 16 11  1  0
 17 18  1  0
 17 15  1  0
 19 17  2  0
M  END
$$$$
