ATS.pdb
     RDKit          3D

 19 18  0  0  1  0  0  0  0  0999 V2000
    8.4692  -17.4014   15.9765 C   0  0  0  0  0  0  0  0  0  0  0  0
    8.5334  -15.9028   15.9294 C   0  0  2  0  0  0  0  0  0  0  0  0
    9.3145  -15.5043   14.7746 N   0  0  0  0  0  0  0  0  0  0  0  0
    9.1701  -15.3869   17.1816 C   0  0  0  0  0  0  0  0  0  0  0  0
   10.4010  -15.1576   17.1911 O   0  0  0  0  0  0  0  0  0  0  0  0
    7.6850  -12.5393   19.4636 C   0  0  0  0  0  0  0  0  0  0  0  0
    8.0510  -13.7661   20.2664 C   0  0  1  0  0  0  0  0  0  0  0  0
    6.9203  -14.4893   20.6433 O   0  0  0  0  0  0  0  0  0  0  0  0
    9.0694  -14.6250   19.5652 C   0  0  2  0  0  0  0  0  0  0  0  0
    8.4485  -15.1405   18.3721 N   0  0  0  0  0  0  0  0  0  0  0  0
    9.5862  -15.7223   20.3699 C   0  0  0  0  0  0  0  0  0  0  0  0
    9.0900  -16.8672   20.2197 O   0  0  0  0  0  0  0  0  0  0  0  0
   13.3263  -15.9432   22.1963 O   0  0  0  0  0  0  0  0  0  0  0  0
   12.5529  -17.0365   21.8146 C   0  0  0  0  0  0  0  0  0  0  0  0
   11.0819  -16.7732   22.0698 C   0  0  2  0  0  0  0  0  0  0  0  0
   10.6264  -15.6127   21.3334 N   0  0  0  0  0  0  0  0  0  0  0  0
   10.8120  -16.6494   23.5236 C   0  0  0  0  0  0  0  0  0  0  0  0
   10.1605  -15.5115   23.9788 O   0  0  0  0  0  0  0  0  0  0  0  0
   11.1468  -17.5222   24.3378 O   0  0  0  0  0  0  0  0  0  0  0  0
  2  3  1  0
  2  1  1  1
  4  2  1  0
  5  4  2  0
  7  6  1  6
  7  8  1  0
  7  9  1  0
  9 11  1  0
  9 10  1  6
 10  4  1  0
 11 12  2  0
 15 14  1  1
 14 13  1  0
 16 15  1  0
 16 11  1  0
 17 18  1  0
 17 15  1  0
 19 17  2  0
M  END
$$$$
