ATS.pdb
     RDKit          3D

 19 18  0  0  1  0  0  0  0  0999 V2000
   -2.1204  -27.7326   29.1571 C   0  0  0  0  0  0  0  0  0  0  0  0
   -1.8065  -26.7485   28.0684 C   0  0  2  0  0  0  0  0  0  0  0  0
   -0.3667  -26.6502   27.9277 N   0  0  0  0  0  0  0  0  0  0  0  0
   -2.3797  -25.4112   28.4184 C   0  0  0  0  0  0  0  0  0  0  0  0
   -1.8691  -24.7537   29.3537 O   0  0  0  0  0  0  0  0  0  0  0  0
   -2.3617  -22.2654   26.6921 C   0  0  0  0  0  0  0  0  0  0  0  0
   -3.8101  -22.6533   26.8793 C   0  0  1  0  0  0  0  0  0  0  0  0
   -4.3494  -23.2010   25.7162 O   0  0  0  0  0  0  0  0  0  0  0  0
   -4.0131  -23.5438   28.0760 C   0  0  2  0  0  0  0  0  0  0  0  0
   -3.4821  -24.8404   27.7419 N   0  0  0  0  0  0  0  0  0  0  0  0
   -5.3990  -23.6698   28.5030 C   0  0  0  0  0  0  0  0  0  0  0  0
   -6.1817  -24.3716   27.8143 O   0  0  0  0  0  0  0  0  0  0  0  0
   -7.0354  -23.8226   32.1594 O   0  0  0  0  0  0  0  0  0  0  0  0
   -7.7214  -24.1092   30.9820 C   0  0  0  0  0  0  0  0  0  0  0  0
   -7.3862  -23.0997   29.9018 C   0  0  2  0  0  0  0  0  0  0  0  0
   -5.9599  -23.0557   29.6564 N   0  0  0  0  0  0  0  0  0  0  0  0
   -7.9329  -21.7625   30.2408 C   0  0  0  0  0  0  0  0  0  0  0  0
   -9.3090  -21.6223   30.3550 O   0  0  0  0  0  0  0  0  0  0  0  0
   -7.2062  -20.7749   30.4237 O   0  0  0  0  0  0  0  0  0  0  0  0
  2  3  1  0
  2  1  1  1
  4  2  1  0
  5  4  2  0
  7  6  1  6
  7  8  1  0
  7  9  1  0
  9 11  1  0
  9 10  1  6
 10  4  1  0
 11 12  2  0
 15 14  1  1
 14 13  1  0
 16 15  1  0
 16 11  1  0
 17 18  1  0
 17 15  1  0
 19 17  2  0
M  END
$$$$
