RTM.pdb
     RDKit          3D

 27 26  0  0  1  0  0  0  0  0999 V2000
    8.6458  -11.2290   20.1314 N   0  0  0  0  0  0  0  0  0  0  0  0
    8.9420  -12.3708   19.3432 C   0  0  0  0  0  0  0  0  0  0  0  0
   10.1410  -12.8626   19.2979 N   0  0  0  0  0  0  0  0  0  0  0  0
    7.9642  -13.0446   18.5802 N   0  0  0  0  0  0  0  0  0  0  0  0
    8.2261  -14.1521   17.7028 C   0  0  0  0  0  0  0  0  0  0  0  0
    7.7675  -15.4651   18.2249 C   0  0  0  0  0  0  0  0  0  0  0  0
    8.0233  -15.7710   19.6489 C   0  0  0  0  0  0  0  0  0  0  0  0
    8.7171  -17.0613   19.9423 C   0  0  2  0  0  0  0  0  0  0  0  0
    8.0973  -18.0850   19.1442 N   0  0  0  0  0  0  0  0  0  0  0  0
    8.6982  -17.3923   21.3957 C   0  0  0  0  0  0  0  0  0  0  0  0
    7.6193  -17.7249   21.9381 O   0  0  0  0  0  0  0  0  0  0  0  0
   10.3988  -13.6439   18.6795 C   0  0  0  0  0  0  0  0  0  0  0  0
   10.4395  -19.9438   23.1758 C   0  0  2  0  0  0  0  0  0  0  0  0
   10.7527  -18.7285   24.0067 O   0  0  0  0  0  0  0  0  0  0  0  0
   12.0438  -18.2568   23.7809 C   0  0  2  0  0  0  0  0  0  0  0  0
    9.7554  -17.6287   23.6077 N   0  0  0  0  0  0  0  0  0  0  0  0
    9.8560  -17.3500   22.2119 C   0  0  0  0  0  0  0  0  0  0  0  0
   10.0386  -16.4183   24.4468 O   0  0  0  0  0  0  0  0  0  0  0  0
   10.4674  -15.3519   23.9249 C   0  0  0  0  0  0  0  0  0  0  0  0
    6.5327  -10.8214   26.9914 S   0  0  0  0  0  0  0  0  0  0  0  0
    7.1900  -12.1348   25.8838 C   0  0  0  0  0  0  0  0  0  0  0  0
    7.7457  -13.4920   26.8781 C   0  0  0  0  0  0  0  0  0  0  0  0
    8.4426  -14.5888   26.2429 C   0  0  1  0  0  0  0  0  0  0  0  0
    9.7967  -15.0774   26.5965 N   0  0  0  0  0  0  0  0  0  0  0  0
    9.8466  -16.3995   25.8356 C   0  0  0  0  0  0  0  0  0  0  0  0
    9.9517  -15.5183   28.0208 O   0  0  0  0  0  0  0  0  0  0  0  0
   10.1477  -14.6134   28.9384 O   0  0  0  0  0  0  0  0  0  0  0  0
  2  3  2  0
  2  1  1  0
  4  2  1  0
  5  4  1  0
  6  5  1  0
  7  6  1  0
  8 10  1  0
  8  7  1  0
  8  9  1  6
 10 16  1  0
 10 11  2  0
 13 12  1  1
 13 14  1  0
 15 13  1  0
 15 16  1  1
 17 18  2  0
 17 15  1  0
 19 20  1  0
 21 20  1  0
 23 22  1  6
 22 21  1  0
 23 24  1  0
 24 17  1  0
 25 23  1  0
 26 25  2  0
 27 25  1  0
M  END
$$$$
