RTM.pdb
     RDKit          3D

 27 26  0  0  1  0  0  0  0  0999 V2000
    7.5693  -14.4141   14.0047 N   0  0  0  0  0  0  0  0  0  0  0  0
    8.1106  -15.1462   15.0927 C   0  0  0  0  0  0  0  0  0  0  0  0
    8.0473  -16.4410   15.1282 N   0  0  0  0  0  0  0  0  0  0  0  0
    8.7561  -14.5251   16.1834 N   0  0  0  0  0  0  0  0  0  0  0  0
    8.4498  -13.2119   16.6800 C   0  0  0  0  0  0  0  0  0  0  0  0
    7.5231  -13.2001   17.8410 C   0  0  0  0  0  0  0  0  0  0  0  0
    7.6244  -14.3054   18.8183 C   0  0  0  0  0  0  0  0  0  0  0  0
    8.8437  -14.3262   19.6814 C   0  0  2  0  0  0  0  0  0  0  0  0
    9.8959  -14.9687   18.9403 N   0  0  0  0  0  0  0  0  0  0  0  0
    8.5933  -14.9892   20.9929 C   0  0  0  0  0  0  0  0  0  0  0  0
    7.7228  -14.5225   21.7632 O   0  0  0  0  0  0  0  0  0  0  0  0
    8.3814  -16.9924   15.9305 C   0  0  0  0  0  0  0  0  0  0  0  0
    9.1077  -18.9453   21.5354 C   0  0  2  0  0  0  0  0  0  0  0  0
    9.5819  -18.1706   22.7356 O   0  0  0  0  0  0  0  0  0  0  0  0
   10.9679  -18.0330   22.7574 C   0  0  2  0  0  0  0  0  0  0  0  0
    8.9544  -16.7694   22.6562 N   0  0  0  0  0  0  0  0  0  0  0  0
    9.2999  -16.1399   21.4232 C   0  0  0  0  0  0  0  0  0  0  0  0
    9.4244  -15.9822   23.8431 O   0  0  0  0  0  0  0  0  0  0  0  0
   10.5752  -15.4639   23.8644 C   0  0  0  0  0  0  0  0  0  0  0  0
    6.6534  -11.3540   25.4969 S   0  0  0  0  0  0  0  0  0  0  0  0
    7.1182  -11.5519   27.2656 C   0  0  0  0  0  0  0  0  0  0  0  0
    8.1384  -12.9914   27.4282 C   0  0  0  0  0  0  0  0  0  0  0  0
    8.1995  -13.9360   26.3345 C   0  0  1  0  0  0  0  0  0  0  0  0
    9.1798  -15.0390   26.1944 N   0  0  0  0  0  0  0  0  0  0  0  0
    8.6276  -15.7783   24.9787 C   0  0  0  0  0  0  0  0  0  0  0  0
    9.1065  -16.0826   27.2679 O   0  0  0  0  0  0  0  0  0  0  0  0
    9.6551  -15.8315   28.4235 O   0  0  0  0  0  0  0  0  0  0  0  0
  2  3  2  0
  2  1  1  0
  4  2  1  0
  5  4  1  0
  6  5  1  0
  7  6  1  0
  8 10  1  0
  8  7  1  0
  8  9  1  6
 10 16  1  0
 10 11  2  0
 13 12  1  1
 13 14  1  0
 15 13  1  0
 15 16  1  1
 17 18  2  0
 17 15  1  0
 19 20  1  0
 21 20  1  0
 23 22  1  6
 22 21  1  0
 23 24  1  0
 24 17  1  0
 25 23  1  0
 26 25  2  0
 27 25  1  0
M  END
$$$$
