RTM.pdb
     RDKit          3D

 27 26  0  0  1  0  0  0  0  0999 V2000
    8.4064  -11.7664   19.5711 N   0  0  0  0  0  0  0  0  0  0  0  0
    8.4537  -12.9606   18.8066 C   0  0  0  0  0  0  0  0  0  0  0  0
    8.6950  -12.9330   17.5328 N   0  0  0  0  0  0  0  0  0  0  0  0
    8.2588  -14.2377   19.3752 N   0  0  0  0  0  0  0  0  0  0  0  0
    7.9782  -14.4852   20.7626 C   0  0  0  0  0  0  0  0  0  0  0  0
    6.5574  -14.8118   21.0483 C   0  0  0  0  0  0  0  0  0  0  0  0
    6.0241  -16.0906   20.5315 C   0  0  0  0  0  0  0  0  0  0  0  0
    6.6503  -17.3397   21.0606 C   0  0  2  0  0  0  0  0  0  0  0  0
    5.9311  -18.4583   20.5122 N   0  0  0  0  0  0  0  0  0  0  0  0
    6.6805  -17.3662   22.5508 C   0  0  0  0  0  0  0  0  0  0  0  0
    5.6304  -17.1339   23.1928 O   0  0  0  0  0  0  0  0  0  0  0  0
    8.8314  -13.7865   16.9740 C   0  0  0  0  0  0  0  0  0  0  0  0
    7.4130  -19.9410   24.9952 C   0  0  2  0  0  0  0  0  0  0  0  0
    8.3714  -18.8368   25.3526 O   0  0  0  0  0  0  0  0  0  0  0  0
    9.6532  -19.0751   24.8620 C   0  0  2  0  0  0  0  0  0  0  0  0
    7.8393  -17.5421   24.7171 N   0  0  0  0  0  0  0  0  0  0  0  0
    7.8546  -17.6449   23.2940 C   0  0  0  0  0  0  0  0  0  0  0  0
    8.6812  -16.4029   25.2098 O   0  0  0  0  0  0  0  0  0  0  0  0
    9.0416  -15.4771   24.4310 C   0  0  0  0  0  0  0  0  0  0  0  0
    7.4780  -11.4216   24.7999 S   0  0  0  0  0  0  0  0  0  0  0  0
    7.4692  -11.5447   26.6352 C   0  0  0  0  0  0  0  0  0  0  0  0
    8.7850  -12.6187   27.1397 C   0  0  0  0  0  0  0  0  0  0  0  0
    8.7412  -14.0120   26.7539 C   0  0  1  0  0  0  0  0  0  0  0  0
    9.7822  -15.0263   27.0458 N   0  0  0  0  0  0  0  0  0  0  0  0
    9.1096  -16.3000   26.5410 C   0  0  0  0  0  0  0  0  0  0  0  0
    9.9793  -15.3206   28.5023 O   0  0  0  0  0  0  0  0  0  0  0  0
    9.2469  -16.2442   29.0590 O   0  0  0  0  0  0  0  0  0  0  0  0
  2  3  2  0
  2  1  1  0
  4  2  1  0
  5  4  1  0
  6  5  1  0
  7  6  1  0
  8 10  1  0
  8  7  1  0
  8  9  1  1
 10 16  1  0
 10 11  2  0
 13 12  1  1
 13 14  1  0
 15 13  1  0
 15 16  1  1
 17 18  2  0
 17 15  1  0
 19 20  1  0
 21 20  1  0
 23 22  1  6
 22 21  1  0
 23 24  1  0
 24 17  1  0
 25 23  1  0
 26 25  2  0
 27 25  1  0
M  END
$$$$
