RTM.pdb
     RDKit          3D

 27 26  0  0  1  0  0  0  0  0999 V2000
   10.5206  -13.5084   18.6202 N   0  0  0  0  0  0  0  0  0  0  0  0
    9.2879  -12.8066   18.6440 C   0  0  0  0  0  0  0  0  0  0  0  0
    9.2198  -11.5838   19.0703 N   0  0  0  0  0  0  0  0  0  0  0  0
    8.0766  -13.3784   18.1990 N   0  0  0  0  0  0  0  0  0  0  0  0
    7.4368  -14.5171   18.7980 C   0  0  0  0  0  0  0  0  0  0  0  0
    6.9821  -14.2960   20.1949 C   0  0  0  0  0  0  0  0  0  0  0  0
    6.3926  -15.4419   20.9202 C   0  0  0  0  0  0  0  0  0  0  0  0
    7.2436  -16.6633   21.0472 C   0  0  2  0  0  0  0  0  0  0  0  0
    6.4883  -17.7796   20.5446 N   0  0  0  0  0  0  0  0  0  0  0  0
    7.7078  -16.8824   22.4468 C   0  0  0  0  0  0  0  0  0  0  0  0
    6.8739  -16.8732   23.3813 O   0  0  0  0  0  0  0  0  0  0  0  0
    8.3504  -11.0335   19.0449 C   0  0  0  0  0  0  0  0  0  0  0  0
   10.3207  -19.5808   23.4356 C   0  0  2  0  0  0  0  0  0  0  0  0
   10.6703  -18.3097   24.1620 O   0  0  0  0  0  0  0  0  0  0  0  0
   11.7254  -17.6319   23.5557 C   0  0  2  0  0  0  0  0  0  0  0  0
    9.4277  -17.4051   24.1306 N   0  0  0  0  0  0  0  0  0  0  0  0
    9.0665  -17.1045   22.7833 C   0  0  0  0  0  0  0  0  0  0  0  0
    9.7335  -16.1685   24.9223 O   0  0  0  0  0  0  0  0  0  0  0  0
   10.1731  -15.1283   24.3583 C   0  0  0  0  0  0  0  0  0  0  0  0
    5.7263  -13.1053   27.3493 S   0  0  0  0  0  0  0  0  0  0  0  0
    7.0482  -12.1856   28.2383 C   0  0  0  0  0  0  0  0  0  0  0  0
    8.4244  -13.2721   28.4932 C   0  0  0  0  0  0  0  0  0  0  0  0
    8.6394  -14.3622   27.5672 C   0  0  1  0  0  0  0  0  0  0  0  0
    9.9556  -14.8431   27.0837 N   0  0  0  0  0  0  0  0  0  0  0  0
    9.5516  -16.0956   26.3107 C   0  0  0  0  0  0  0  0  0  0  0  0
   10.8509  -15.3969   28.1508 O   0  0  0  0  0  0  0  0  0  0  0  0
   11.4706  -14.5660   28.9414 O   0  0  0  0  0  0  0  0  0  0  0  0
  2  3  2  0
  2  1  1  0
  4  2  1  0
  5  4  1  0
  6  5  1  0
  7  6  1  0
  8 10  1  0
  8  7  1  0
  8  9  1  1
 10 16  1  0
 10 11  2  0
 13 12  1  1
 13 14  1  0
 15 13  1  0
 15 16  1  1
 17 18  2  0
 17 15  1  0
 19 20  1  0
 21 20  1  0
 23 22  1  6
 22 21  1  0
 23 24  1  0
 24 17  1  0
 25 23  1  0
 26 25  2  0
 27 25  1  0
M  END
$$$$
