QQA.pdb
     RDKit          3D

 24 23  0  0  1  0  0  0  0  0999 V2000
   11.0540  -24.8659   19.1048 N   0  0  0  0  0  0  0  0  0  0  0  0
   11.8464  -24.1412   18.1919 C   0  0  0  0  0  0  0  0  0  0  0  0
   12.0444  -24.6899   17.0604 O   0  0  0  0  0  0  0  0  0  0  0  0
   12.4253  -22.7995   18.5305 C   0  0  0  0  0  0  0  0  0  0  0  0
   12.0477  -22.4950   19.9392 C   0  0  0  0  0  0  0  0  0  0  0  0
   11.6174  -21.0923   20.2058 C   0  0  2  0  0  0  0  0  0  0  0  0
   11.8583  -20.3248   18.9975 N   0  0  0  0  0  0  0  0  0  0  0  0
   12.2720  -20.4702   21.3834 C   0  0  0  0  0  0  0  0  0  0  0  0
   13.5247  -20.4137   21.4609 O   0  0  0  0  0  0  0  0  0  0  0  0
   13.8085  -16.3074   21.0290 N   0  0  0  0  0  0  0  0  0  0  0  0
   13.3884  -16.4591   22.3772 C   0  0  0  0  0  0  0  0  0  0  0  0
   14.2501  -16.2171   23.2519 O   0  0  0  0  0  0  0  0  0  0  0  0
   11.9964  -16.8768   22.6387 C   0  0  0  0  0  0  0  0  0  0  0  0
   11.8205  -17.8242   23.7477 C   0  0  0  0  0  0  0  0  0  0  0  0
   12.1819  -19.2479   23.5648 C   0  0  2  0  0  0  0  0  0  0  0  0
   11.5414  -19.9152   22.4661 N   0  0  0  0  0  0  0  0  0  0  0  0
   12.0340  -20.0525   24.8179 C   0  0  0  0  0  0  0  0  0  0  0  0
   10.9530  -20.6046   25.1201 O   0  0  0  0  0  0  0  0  0  0  0  0
   14.2878  -21.3214   27.5438 C   0  0  0  0  0  0  0  0  0  0  0  0
   12.9520  -20.9879   26.9130 C   0  0  2  0  0  0  0  0  0  0  0  0
   13.1278  -20.2095   25.7015 N   0  0  0  0  0  0  0  0  0  0  0  0
   12.2264  -20.1207   27.8831 C   0  0  0  0  0  0  0  0  0  0  0  0
   11.9375  -18.9134   27.6046 O   0  0  0  0  0  0  0  0  0  0  0  0
   11.8237  -20.5691   29.1383 O   0  0  0  0  0  0  0  0  0  0  0  0
  1  2  1  0
  2  4  1  0
  2  3  2  0
  4  5  1  0
  6  8  1  0
  6  5  1  0
  6  7  1  6
  8 16  1  0
  9  8  2  0
 11 10  1  0
 11 13  1  0
 12 11  2  0
 14 13  1  0
 15 14  1  1
 15 17  1  0
 16 15  1  0
 17 18  2  0
 20 19  1  1
 20 22  1  0
 21 20  1  0
 21 17  1  0
 22 23  2  0
 22 24  1  0
M  END
$$$$
