QQA.pdb
     RDKit          3D

 24 23  0  0  1  0  0  0  0  0999 V2000
    9.3972  -13.8032   17.3416 N   0  0  0  0  0  0  0  0  0  0  0  0
    8.0339  -14.1603   17.3260 C   0  0  0  0  0  0  0  0  0  0  0  0
    7.6149  -14.7330   16.2691 O   0  0  0  0  0  0  0  0  0  0  0  0
    7.1250  -13.8831   18.4867 C   0  0  0  0  0  0  0  0  0  0  0  0
    7.8895  -13.0566   19.4626 C   0  0  0  0  0  0  0  0  0  0  0  0
    8.7263  -13.8140   20.4373 C   0  0  2  0  0  0  0  0  0  0  0  0
    9.1792  -15.0242   19.7759 N   0  0  0  0  0  0  0  0  0  0  0  0
    8.0403  -14.1193   21.7173 C   0  0  0  0  0  0  0  0  0  0  0  0
    7.3767  -13.2337   22.3123 O   0  0  0  0  0  0  0  0  0  0  0  0
    6.4875  -19.8305   24.4493 N   0  0  0  0  0  0  0  0  0  0  0  0
    6.7417  -18.9383   25.5247 C   0  0  0  0  0  0  0  0  0  0  0  0
    6.9322  -19.4661   26.6434 O   0  0  0  0  0  0  0  0  0  0  0  0
    6.7661  -17.4883   25.2465 C   0  0  0  0  0  0  0  0  0  0  0  0
    7.3584  -17.1037   23.9582 C   0  0  0  0  0  0  0  0  0  0  0  0
    7.4505  -15.6737   23.5873 C   0  0  2  0  0  0  0  0  0  0  0  0
    8.0909  -15.3976   22.3317 N   0  0  0  0  0  0  0  0  0  0  0  0
    8.0443  -14.8278   24.6695 C   0  0  0  0  0  0  0  0  0  0  0  0
    9.2797  -14.6570   24.7664 O   0  0  0  0  0  0  0  0  0  0  0  0
    6.7516  -12.3436   27.1518 C   0  0  0  0  0  0  0  0  0  0  0  0
    7.8002  -13.2700   26.5724 C   0  0  2  0  0  0  0  0  0  0  0  0
    7.2112  -14.1932   25.6209 N   0  0  0  0  0  0  0  0  0  0  0  0
    8.3197  -14.0878   27.7042 C   0  0  0  0  0  0  0  0  0  0  0  0
    8.0728  -15.3329   27.7893 O   0  0  0  0  0  0  0  0  0  0  0  0
    9.0972  -13.5499   28.7264 O   0  0  0  0  0  0  0  0  0  0  0  0
  1  2  1  0
  2  4  1  0
  2  3  2  0
  4  5  1  0
  6  8  1  0
  6  5  1  0
  6  7  1  6
  8 16  1  0
  9  8  2  0
 11 10  1  0
 11 13  1  0
 12 11  2  0
 14 13  1  0
 15 14  1  1
 15 17  1  0
 16 15  1  0
 17 18  2  0
 20 19  1  1
 20 22  1  0
 21 20  1  0
 21 17  1  0
 22 23  2  0
 22 24  1  0
M  END
$$$$
