QQA.pdb
     RDKit          3D

 24 23  0  0  1  0  0  0  0  0999 V2000
    7.8929  -12.4666   17.7116 N   0  0  0  0  0  0  0  0  0  0  0  0
    7.9164  -13.7990   17.2525 C   0  0  0  0  0  0  0  0  0  0  0  0
    8.0642  -13.9587   15.9982 O   0  0  0  0  0  0  0  0  0  0  0  0
    7.7757  -14.9651   18.1855 C   0  0  0  0  0  0  0  0  0  0  0  0
    7.5671  -14.4162   19.5548 C   0  0  0  0  0  0  0  0  0  0  0  0
    8.4793  -14.9440   20.6100 C   0  0  2  0  0  0  0  0  0  0  0  0
    8.9670  -16.2348   20.1596 N   0  0  0  0  0  0  0  0  0  0  0  0
    7.8608  -15.0370   21.9557 C   0  0  0  0  0  0  0  0  0  0  0  0
    7.2384  -14.0592   22.4406 O   0  0  0  0  0  0  0  0  0  0  0  0
    6.5086  -19.3483   27.9661 N   0  0  0  0  0  0  0  0  0  0  0  0
    6.8225  -19.1326   26.5979 C   0  0  0  0  0  0  0  0  0  0  0  0
    6.9725  -20.1605   25.8998 O   0  0  0  0  0  0  0  0  0  0  0  0
    6.9407  -17.7430   26.1127 C   0  0  0  0  0  0  0  0  0  0  0  0
    7.3218  -17.5986   24.7012 C   0  0  0  0  0  0  0  0  0  0  0  0
    7.4321  -16.2496   24.1021 C   0  0  2  0  0  0  0  0  0  0  0  0
    7.9327  -16.2064   22.7565 N   0  0  0  0  0  0  0  0  0  0  0  0
    8.1847  -15.2875   24.9666 C   0  0  0  0  0  0  0  0  0  0  0  0
    9.4349  -15.2816   25.0087 O   0  0  0  0  0  0  0  0  0  0  0  0
    7.4555  -12.2477   27.0143 C   0  0  0  0  0  0  0  0  0  0  0  0
    8.2417  -13.4944   26.6662 C   0  0  2  0  0  0  0  0  0  0  0  0
    7.4905  -14.3499   25.7671 N   0  0  0  0  0  0  0  0  0  0  0  0
    8.4226  -14.2533   27.9355 C   0  0  0  0  0  0  0  0  0  0  0  0
    9.0665  -13.7601   28.9157 O   0  0  0  0  0  0  0  0  0  0  0  0
    7.9063  -15.5320   28.1277 O   0  0  0  0  0  0  0  0  0  0  0  0
  1  2  1  0
  2  4  1  0
  2  3  2  0
  4  5  1  0
  6  8  1  0
  6  5  1  0
  6  7  1  6
  8 16  1  0
  9  8  2  0
 11 10  1  0
 11 13  1  0
 12 11  2  0
 14 13  1  0
 15 14  1  1
 15 17  1  0
 16 15  1  0
 17 18  2  0
 20 19  1  1
 20 22  1  0
 21 20  1  0
 21 17  1  0
 22 23  2  0
 22 24  1  0
M  END
$$$$
