QQA.pdb
     RDKit          3D

 24 23  0  0  1  0  0  0  0  0999 V2000
    9.4429  -12.7817   17.5816 N   0  0  0  0  0  0  0  0  0  0  0  0
    8.6323  -13.9288   17.4649 C   0  0  0  0  0  0  0  0  0  0  0  0
    8.3903  -14.3279   16.2805 O   0  0  0  0  0  0  0  0  0  0  0  0
    8.0840  -14.6416   18.6655 C   0  0  0  0  0  0  0  0  0  0  0  0
    8.4765  -13.8541   19.8678 C   0  0  0  0  0  0  0  0  0  0  0  0
    9.1305  -14.6267   20.9630 C   0  0  2  0  0  0  0  0  0  0  0  0
    8.7952  -16.0259   20.7703 N   0  0  0  0  0  0  0  0  0  0  0  0
    8.7732  -14.1660   22.3276 C   0  0  0  0  0  0  0  0  0  0  0  0
    8.9023  -12.9578   22.6471 O   0  0  0  0  0  0  0  0  0  0  0  0
    5.9698  -12.0583   25.2645 N   0  0  0  0  0  0  0  0  0  0  0  0
    6.0125  -12.7761   26.4893 C   0  0  0  0  0  0  0  0  0  0  0  0
    5.8730  -12.0954   27.5303 O   0  0  0  0  0  0  0  0  0  0  0  0
    6.2091  -14.2388   26.4423 C   0  0  0  0  0  0  0  0  0  0  0  0
    6.6173  -14.7782   25.1382 C   0  0  0  0  0  0  0  0  0  0  0  0
    8.0104  -14.6006   24.6708 C   0  0  2  0  0  0  0  0  0  0  0  0
    8.2765  -15.0399   23.3294 N   0  0  0  0  0  0  0  0  0  0  0  0
    9.0197  -15.1750   25.6146 C   0  0  0  0  0  0  0  0  0  0  0  0
    9.6477  -16.2231   25.3466 O   0  0  0  0  0  0  0  0  0  0  0  0
   10.5649  -14.1624   28.9006 C   0  0  0  0  0  0  0  0  0  0  0  0
   10.3645  -15.0413   27.6836 C   0  0  2  0  0  0  0  0  0  0  0  0
    9.2908  -14.5376   26.8483 N   0  0  0  0  0  0  0  0  0  0  0  0
    9.9319  -16.3752   28.1870 C   0  0  0  0  0  0  0  0  0  0  0  0
    8.7689  -16.8296   27.9428 O   0  0  0  0  0  0  0  0  0  0  0  0
   10.7603  -17.1979   28.9456 O   0  0  0  0  0  0  0  0  0  0  0  0
  1  2  1  0
  2  4  1  0
  2  3  2  0
  4  5  1  0
  6  8  1  0
  6  5  1  0
  6  7  1  1
  8 16  1  0
  9  8  2  0
 11 10  1  0
 11 13  1  0
 12 11  2  0
 14 13  1  0
 15 14  1  1
 15 17  1  0
 16 15  1  0
 17 18  2  0
 20 19  1  1
 20 22  1  0
 21 20  1  0
 21 17  1  0
 22 23  2  0
 22 24  1  0
M  END
$$$$
