QQA.pdb
     RDKit          3D

 24 23  0  0  1  0  0  0  0  0999 V2000
    9.0757  -15.2604   11.2835 N   0  0  0  0  0  0  0  0  0  0  0  0
    8.1529  -15.8558   12.1670 C   0  0  0  0  0  0  0  0  0  0  0  0
    6.9229  -15.6233   11.9356 O   0  0  0  0  0  0  0  0  0  0  0  0
    8.5912  -16.7150   13.3157 C   0  0  0  0  0  0  0  0  0  0  0  0
   10.0790  -16.7850   13.2763 C   0  0  0  0  0  0  0  0  0  0  0  0
   10.6556  -18.1115   12.9132 C   0  0  2  0  0  0  0  0  0  0  0  0
    9.7070  -18.7748   12.0372 N   0  0  0  0  0  0  0  0  0  0  0  0
   11.0039  -18.9613   14.0788 C   0  0  0  0  0  0  0  0  0  0  0  0
   10.1013  -19.4838   14.7795 O   0  0  0  0  0  0  0  0  0  0  0  0
   16.6460  -21.6339   15.4178 N   0  0  0  0  0  0  0  0  0  0  0  0
   15.8284  -22.1250   16.4700 C   0  0  0  0  0  0  0  0  0  0  0  0
   16.3741  -22.9259   17.2620 O   0  0  0  0  0  0  0  0  0  0  0  0
   14.4291  -21.6601   16.5508 C   0  0  0  0  0  0  0  0  0  0  0  0
   14.0255  -20.6943   15.5200 C   0  0  0  0  0  0  0  0  0  0  0  0
   12.6707  -20.0993   15.5579 C   0  0  2  0  0  0  0  0  0  0  0  0
   12.3435  -19.2289   14.4633 N   0  0  0  0  0  0  0  0  0  0  0  0
   12.3637  -19.4313   16.8614 C   0  0  0  0  0  0  0  0  0  0  0  0
   12.6480  -18.2307   17.0672 O   0  0  0  0  0  0  0  0  0  0  0  0
   10.1713  -20.0794   19.7816 C   0  0  0  0  0  0  0  0  0  0  0  0
   11.3928  -19.4614   19.1338 C   0  0  2  0  0  0  0  0  0  0  0  0
   11.7363  -20.1518   17.9051 N   0  0  0  0  0  0  0  0  0  0  0  0
   12.5269  -19.6673   20.0777 C   0  0  0  0  0  0  0  0  0  0  0  0
   13.5008  -20.4320   19.7856 O   0  0  0  0  0  0  0  0  0  0  0  0
   12.5928  -19.0454   21.3217 O   0  0  0  0  0  0  0  0  0  0  0  0
  1  2  1  0
  2  4  1  0
  2  3  2  0
  4  5  1  0
  6  8  1  0
  6  5  1  0
  6  7  1  6
  8 16  1  0
  9  8  2  0
 11 10  1  0
 11 13  1  0
 12 11  2  0
 14 13  1  0
 15 14  1  1
 15 17  1  0
 16 15  1  0
 17 18  2  0
 20 19  1  1
 20 22  1  0
 21 20  1  0
 21 17  1  0
 22 23  2  0
 22 24  1  0
M  END
$$$$
