QQA.pdb
     RDKit          3D

 24 23  0  0  1  0  0  0  0  0999 V2000
    4.7606  -23.5441   18.2917 N   0  0  0  0  0  0  0  0  0  0  0  0
    5.2104  -22.7690   19.3796 C   0  0  0  0  0  0  0  0  0  0  0  0
    5.9932  -23.3501   20.1981 O   0  0  0  0  0  0  0  0  0  0  0  0
    4.7927  -21.3404   19.5658 C   0  0  0  0  0  0  0  0  0  0  0  0
    5.9988  -20.5765   19.9921 C   0  0  0  0  0  0  0  0  0  0  0  0
    6.2450  -19.2970   19.2668 C   0  0  2  0  0  0  0  0  0  0  0  0
    6.4165  -19.6179   17.8616 N   0  0  0  0  0  0  0  0  0  0  0  0
    7.3928  -18.5146   19.7889 C   0  0  0  0  0  0  0  0  0  0  0  0
    8.5179  -19.0541   19.9365 O   0  0  0  0  0  0  0  0  0  0  0  0
    7.2610  -12.2441   19.8867 N   0  0  0  0  0  0  0  0  0  0  0  0
    7.9670  -12.9545   18.8797 C   0  0  0  0  0  0  0  0  0  0  0  0
    8.4496  -12.2628   17.9550 O   0  0  0  0  0  0  0  0  0  0  0  0
    8.0797  -14.4219   19.0002 C   0  0  0  0  0  0  0  0  0  0  0  0
    8.3503  -14.9241   20.3540 C   0  0  0  0  0  0  0  0  0  0  0  0
    8.4218  -16.3822   20.5983 C   0  0  2  0  0  0  0  0  0  0  0  0
    7.2922  -17.1443   20.1441 N   0  0  0  0  0  0  0  0  0  0  0  0
    8.7370  -16.7202   22.0216 C   0  0  0  0  0  0  0  0  0  0  0  0
    7.9102  -16.5294   22.9406 O   0  0  0  0  0  0  0  0  0  0  0  0
   10.8770  -18.9967   23.8545 C   0  0  0  0  0  0  0  0  0  0  0  0
   10.2598  -17.6177   23.7487 C   0  0  2  0  0  0  0  0  0  0  0  0
    9.9943  -17.2706   22.3654 N   0  0  0  0  0  0  0  0  0  0  0  0
   11.2798  -16.6539   24.2488 C   0  0  0  0  0  0  0  0  0  0  0  0
   11.8684  -15.8454   23.4623 O   0  0  0  0  0  0  0  0  0  0  0  0
   11.6490  -16.5770   25.5891 O   0  0  0  0  0  0  0  0  0  0  0  0
  1  2  1  0
  2  4  1  0
  2  3  2  0
  4  5  1  0
  6  8  1  0
  6  5  1  0
  6  7  1  6
  8 16  1  0
  9  8  2  0
 11 10  1  0
 11 13  1  0
 12 11  2  0
 14 13  1  0
 15 14  1  1
 15 17  1  0
 16 15  1  0
 17 18  2  0
 20 19  1  6
 20 22  1  0
 21 20  1  0
 21 17  1  0
 22 23  2  0
 22 24  1  0
M  END
$$$$
