QQA.pdb
     RDKit          3D

 24 23  0  0  1  0  0  0  0  0999 V2000
    7.9927  -12.4501   18.7933 N   0  0  0  0  0  0  0  0  0  0  0  0
    8.2873  -13.4723   17.8688 C   0  0  0  0  0  0  0  0  0  0  0  0
    8.3011  -13.1336   16.6418 O   0  0  0  0  0  0  0  0  0  0  0  0
    8.5690  -14.8805   18.3020 C   0  0  0  0  0  0  0  0  0  0  0  0
    7.9316  -15.0716   19.6351 C   0  0  0  0  0  0  0  0  0  0  0  0
    8.0745  -16.4304   20.2326 C   0  0  2  0  0  0  0  0  0  0  0  0
    7.1689  -17.3163   19.5239 N   0  0  0  0  0  0  0  0  0  0  0  0
    7.8429  -16.4765   21.6976 C   0  0  0  0  0  0  0  0  0  0  0  0
    6.6858  -16.6508   22.1552 O   0  0  0  0  0  0  0  0  0  0  0  0
   11.2465  -18.8764   26.2713 N   0  0  0  0  0  0  0  0  0  0  0  0
   10.3191  -18.1213   27.0373 C   0  0  0  0  0  0  0  0  0  0  0  0
   10.4094  -18.2375   28.2802 O   0  0  0  0  0  0  0  0  0  0  0  0
    9.3436  -17.2717   26.3252 C   0  0  0  0  0  0  0  0  0  0  0  0
    9.4898  -17.2334   24.8638 C   0  0  0  0  0  0  0  0  0  0  0  0
    8.6451  -16.3194   24.0626 C   0  0  2  0  0  0  0  0  0  0  0  0
    8.8876  -16.3302   22.6469 N   0  0  0  0  0  0  0  0  0  0  0  0
    8.6526  -14.9151   24.5795 C   0  0  0  0  0  0  0  0  0  0  0  0
    9.6380  -14.1615   24.4192 O   0  0  0  0  0  0  0  0  0  0  0  0
    6.1503  -12.5110   25.9788 C   0  0  0  0  0  0  0  0  0  0  0  0
    7.5532  -13.0246   25.7304 C   0  0  2  0  0  0  0  0  0  0  0  0
    7.5305  -14.4004   25.2707 N   0  0  0  0  0  0  0  0  0  0  0  0
    8.2491  -13.0198   27.0477 C   0  0  0  0  0  0  0  0  0  0  0  0
    8.5007  -14.1020   27.6675 O   0  0  0  0  0  0  0  0  0  0  0  0
    8.6627  -11.8481   27.6759 O   0  0  0  0  0  0  0  0  0  0  0  0
  1  2  1  0
  2  4  1  0
  2  3  2  0
  4  5  1  0
  6  8  1  0
  6  5  1  0
  6  7  1  6
  8 16  1  0
  9  8  2  0
 11 10  1  0
 11 13  1  0
 12 11  2  0
 14 13  1  0
 15 14  1  1
 15 17  1  0
 16 15  1  0
 17 18  2  0
 20 19  1  1
 20 22  1  0
 21 20  1  0
 21 17  1  0
 22 23  2  0
 22 24  1  0
M  END
$$$$
