QQA.pdb
     RDKit          3D

 24 23  0  0  1  0  0  0  0  0999 V2000
    8.5605  -12.2915   18.0713 N   0  0  0  0  0  0  0  0  0  0  0  0
    8.2040  -13.5174   17.4741 C   0  0  0  0  0  0  0  0  0  0  0  0
    7.7318  -13.4513   16.2938 O   0  0  0  0  0  0  0  0  0  0  0  0
    8.3700  -14.8275   18.1856 C   0  0  0  0  0  0  0  0  0  0  0  0
    7.6488  -14.7223   19.4851 C   0  0  0  0  0  0  0  0  0  0  0  0
    8.0642  -15.6943   20.5369 C   0  0  2  0  0  0  0  0  0  0  0  0
    6.9271  -16.5543   20.8100 N   0  0  0  0  0  0  0  0  0  0  0  0
    8.5775  -15.0630   21.7779 C   0  0  0  0  0  0  0  0  0  0  0  0
    9.6932  -14.4853   21.7852 O   0  0  0  0  0  0  0  0  0  0  0  0
    7.0395  -11.5959   26.6895 N   0  0  0  0  0  0  0  0  0  0  0  0
    6.1346  -12.6699   26.4780 C   0  0  0  0  0  0  0  0  0  0  0  0
    5.0089  -12.5535   27.0126 O   0  0  0  0  0  0  0  0  0  0  0  0
    6.5790  -13.8147   25.6579 C   0  0  0  0  0  0  0  0  0  0  0  0
    7.8973  -13.6640   25.0273 C   0  0  0  0  0  0  0  0  0  0  0  0
    8.4814  -14.7891   24.2632 C   0  0  2  0  0  0  0  0  0  0  0  0
    7.8577  -15.0730   23.0010 N   0  0  0  0  0  0  0  0  0  0  0  0
    8.6065  -16.0412   25.0732 C   0  0  0  0  0  0  0  0  0  0  0  0
    7.6511  -16.8381   25.2025 O   0  0  0  0  0  0  0  0  0  0  0  0
   11.0676  -18.4570   25.8641 C   0  0  0  0  0  0  0  0  0  0  0  0
    9.9423  -17.6164   26.4304 C   0  0  2  0  0  0  0  0  0  0  0  0
    9.8246  -16.3569   25.7201 N   0  0  0  0  0  0  0  0  0  0  0  0
   10.3192  -17.2882   27.8339 C   0  0  0  0  0  0  0  0  0  0  0  0
   10.5458  -16.0897   28.1956 O   0  0  0  0  0  0  0  0  0  0  0  0
   10.4457  -18.2577   28.8252 O   0  0  0  0  0  0  0  0  0  0  0  0
  1  2  1  0
  2  4  1  0
  2  3  2  0
  4  5  1  0
  6  8  1  0
  6  5  1  0
  6  7  1  1
  8 16  1  0
  9  8  2  0
 11 10  1  0
 11 13  1  0
 12 11  2  0
 14 13  1  0
 15 14  1  1
 15 17  1  0
 16 15  1  0
 17 18  2  0
 20 19  1  6
 20 22  1  0
 21 20  1  0
 21 17  1  0
 22 23  2  0
 22 24  1  0
M  END
$$$$
