QQA.pdb
     RDKit          3D

 24 23  0  0  1  0  0  0  0  0999 V2000
   10.7917  -12.7263   19.7919 N   0  0  0  0  0  0  0  0  0  0  0  0
   10.1427  -13.3518   18.7083 C   0  0  0  0  0  0  0  0  0  0  0  0
   10.8892  -13.9907   17.8989 O   0  0  0  0  0  0  0  0  0  0  0  0
    8.6572  -13.2716   18.5162 C   0  0  0  0  0  0  0  0  0  0  0  0
    8.0204  -13.6688   19.8032 C   0  0  0  0  0  0  0  0  0  0  0  0
    8.1199  -15.1143   20.1560 C   0  0  2  0  0  0  0  0  0  0  0  0
    7.2381  -15.8434   19.2626 N   0  0  0  0  0  0  0  0  0  0  0  0
    7.8199  -15.4139   21.5781 C   0  0  0  0  0  0  0  0  0  0  0  0
    6.6318  -15.5445   21.9655 O   0  0  0  0  0  0  0  0  0  0  0  0
   10.9215  -18.8586   25.7227 N   0  0  0  0  0  0  0  0  0  0  0  0
   10.0381  -18.1735   26.5986 C   0  0  0  0  0  0  0  0  0  0  0  0
   10.0769  -18.5207   27.8004 O   0  0  0  0  0  0  0  0  0  0  0  0
    9.1639  -17.1235   26.0383 C   0  0  0  0  0  0  0  0  0  0  0  0
    9.3339  -16.8618   24.6027 C   0  0  0  0  0  0  0  0  0  0  0  0
    8.5282  -15.8084   23.9453 C   0  0  2  0  0  0  0  0  0  0  0  0
    8.8309  -15.5671   22.5622 N   0  0  0  0  0  0  0  0  0  0  0  0
    8.5200  -14.5203   24.7069 C   0  0  0  0  0  0  0  0  0  0  0  0
    9.5189  -13.7680   24.7360 O   0  0  0  0  0  0  0  0  0  0  0  0
    5.9474  -12.4217   26.4623 C   0  0  0  0  0  0  0  0  0  0  0  0
    7.3552  -12.8222   26.0734 C   0  0  2  0  0  0  0  0  0  0  0  0
    7.3668  -14.1180   25.4213 N   0  0  0  0  0  0  0  0  0  0  0  0
    8.1231  -12.9690   27.3416 C   0  0  0  0  0  0  0  0  0  0  0  0
    8.4810  -14.1121   27.7703 O   0  0  0  0  0  0  0  0  0  0  0  0
    8.4929  -11.8807   28.1275 O   0  0  0  0  0  0  0  0  0  0  0  0
  1  2  1  0
  2  4  1  0
  2  3  2  0
  4  5  1  0
  6  8  1  0
  6  5  1  0
  6  7  1  6
  8 16  1  0
  9  8  2  0
 11 10  1  0
 11 13  1  0
 12 11  2  0
 14 13  1  0
 15 14  1  1
 15 17  1  0
 16 15  1  0
 17 18  2  0
 20 19  1  1
 20 22  1  0
 21 20  1  0
 21 17  1  0
 22 23  2  0
 22 24  1  0
M  END
$$$$
