QQA.pdb
     RDKit          3D

 24 23  0  0  1  0  0  0  0  0999 V2000
    8.6454  -12.0986   19.4090 N   0  0  0  0  0  0  0  0  0  0  0  0
    8.2302  -13.2829   18.7675 C   0  0  0  0  0  0  0  0  0  0  0  0
    8.4917  -13.3703   17.5247 O   0  0  0  0  0  0  0  0  0  0  0  0
    7.5203  -14.3802   19.5037 C   0  0  0  0  0  0  0  0  0  0  0  0
    8.4780  -15.5128   19.6450 C   0  0  0  0  0  0  0  0  0  0  0  0
    7.9825  -16.6873   20.4189 C   0  0  2  0  0  0  0  0  0  0  0  0
    6.7872  -17.1747   19.7550 N   0  0  0  0  0  0  0  0  0  0  0  0
    7.7296  -16.4055   21.8538 C   0  0  0  0  0  0  0  0  0  0  0  0
    6.5730  -16.1212   22.2537 O   0  0  0  0  0  0  0  0  0  0  0  0
    9.6898  -19.3252   27.7788 N   0  0  0  0  0  0  0  0  0  0  0  0
   10.1115  -18.0500   27.3173 C   0  0  0  0  0  0  0  0  0  0  0  0
   11.2881  -17.7264   27.5952 O   0  0  0  0  0  0  0  0  0  0  0  0
    9.1527  -17.2233   26.5572 C   0  0  0  0  0  0  0  0  0  0  0  0
    9.3032  -17.2660   25.0964 C   0  0  0  0  0  0  0  0  0  0  0  0
    8.4700  -16.3887   24.2439 C   0  0  2  0  0  0  0  0  0  0  0  0
    8.7528  -16.4393   22.8366 N   0  0  0  0  0  0  0  0  0  0  0  0
    8.4448  -14.9692   24.7171 C   0  0  0  0  0  0  0  0  0  0  0  0
    9.3657  -14.1687   24.4420 O   0  0  0  0  0  0  0  0  0  0  0  0
    5.9902  -12.6523   26.3326 C   0  0  0  0  0  0  0  0  0  0  0  0
    7.3835  -13.1219   25.9696 C   0  0  2  0  0  0  0  0  0  0  0  0
    7.3644  -14.4934   25.4971 N   0  0  0  0  0  0  0  0  0  0  0  0
    8.1800  -13.1089   27.2286 C   0  0  0  0  0  0  0  0  0  0  0  0
    8.5673  -14.1890   27.7782 O   0  0  0  0  0  0  0  0  0  0  0  0
    8.5462  -11.9314   27.8751 O   0  0  0  0  0  0  0  0  0  0  0  0
  1  2  1  0
  2  4  1  0
  2  3  2  0
  4  5  1  0
  6  8  1  0
  6  5  1  0
  6  7  1  6
  8 16  1  0
  9  8  2  0
 11 10  1  0
 11 13  1  0
 12 11  2  0
 14 13  1  0
 15 14  1  1
 15 17  1  0
 16 15  1  0
 17 18  2  0
 20 19  1  1
 20 22  1  0
 21 20  1  0
 21 17  1  0
 22 23  2  0
 22 24  1  0
M  END
$$$$
