QQA.pdb
     RDKit          3D

 24 23  0  0  1  0  0  0  0  0999 V2000
    8.6059  -12.4990   17.6539 N   0  0  0  0  0  0  0  0  0  0  0  0
    7.9303  -13.6754   17.2716 C   0  0  0  0  0  0  0  0  0  0  0  0
    7.6686  -13.7955   16.0315 O   0  0  0  0  0  0  0  0  0  0  0  0
    7.5400  -14.7283   18.2661 C   0  0  0  0  0  0  0  0  0  0  0  0
    8.0111  -14.2726   19.6041 C   0  0  0  0  0  0  0  0  0  0  0  0
    8.6198  -15.3238   20.4691 C   0  0  2  0  0  0  0  0  0  0  0  0
    7.7126  -16.4569   20.4828 N   0  0  0  0  0  0  0  0  0  0  0  0
    8.9392  -14.8677   21.8447 C   0  0  0  0  0  0  0  0  0  0  0  0
    9.7687  -13.9432   22.0336 O   0  0  0  0  0  0  0  0  0  0  0  0
    5.7885  -12.4417   26.1322 N   0  0  0  0  0  0  0  0  0  0  0  0
    6.9908  -12.6389   26.8621 C   0  0  0  0  0  0  0  0  0  0  0  0
    7.1068  -11.9786   27.9189 O   0  0  0  0  0  0  0  0  0  0  0  0
    7.9883  -13.5905   26.3329 C   0  0  0  0  0  0  0  0  0  0  0  0
    7.7120  -14.1094   24.9865 C   0  0  0  0  0  0  0  0  0  0  0  0
    8.6857  -15.0103   24.3299 C   0  0  2  0  0  0  0  0  0  0  0  0
    8.3423  -15.4338   23.0011 N   0  0  0  0  0  0  0  0  0  0  0  0
    9.0475  -16.1920   25.1737 C   0  0  0  0  0  0  0  0  0  0  0  0
    8.2401  -17.1254   25.3775 O   0  0  0  0  0  0  0  0  0  0  0  0
   12.1418  -17.7831   26.4273 C   0  0  0  0  0  0  0  0  0  0  0  0
   10.6665  -17.4611   26.5433 C   0  0  2  0  0  0  0  0  0  0  0  0
   10.3281  -16.2822   25.7685 N   0  0  0  0  0  0  0  0  0  0  0  0
   10.4135  -17.1267   27.9729 C   0  0  0  0  0  0  0  0  0  0  0  0
   10.0092  -15.9718   28.3212 O   0  0  0  0  0  0  0  0  0  0  0  0
   10.6005  -18.0432   29.0044 O   0  0  0  0  0  0  0  0  0  0  0  0
  1  2  1  0
  2  4  1  0
  2  3  2  0
  4  5  1  0
  6  8  1  0
  6  5  1  0
  6  7  1  1
  8 16  1  0
  9  8  2  0
 11 10  1  0
 11 13  1  0
 12 11  2  0
 14 13  1  0
 15 14  1  1
 15 17  1  0
 16 15  1  0
 17 18  2  0
 20 19  1  1
 20 22  1  0
 21 20  1  0
 21 17  1  0
 22 23  2  0
 22 24  1  0
M  END
$$$$
