KDK.pdb
     RDKit          3D

 27 26  0  0  1  0  0  0  0  0999 V2000
    7.7803  -17.8721   20.4507 N   0  0  0  0  0  0  0  0  0  0  0  0
    8.8678  -16.9684   20.8124 C   0  0  1  0  0  0  0  0  0  0  0  0
    8.3894  -15.5446   20.6573 C   0  0  0  0  0  0  0  0  0  0  0  0
    8.3806  -15.1609   19.2152 C   0  0  0  0  0  0  0  0  0  0  0  0
    8.1109  -13.6854   18.9717 C   0  0  0  0  0  0  0  0  0  0  0  0
    8.2192  -13.4004   17.4935 C   0  0  0  0  0  0  0  0  0  0  0  0
    7.9554  -11.9782   17.2567 N   0  0  0  0  0  0  0  0  0  0  0  0
    9.4377  -17.2511   22.1360 C   0  0  0  0  0  0  0  0  0  0  0  0
    8.6633  -17.5504   23.0741 O   0  0  0  0  0  0  0  0  0  0  0  0
   10.8406  -17.2062   22.4410 N   0  0  0  0  0  0  0  0  0  0  0  0
   11.3494  -17.4557   23.7595 C   0  0  1  0  0  0  0  0  0  0  0  0
   12.7938  -17.8133   23.8487 C   0  0  0  0  0  0  0  0  0  0  0  0
   13.1796  -19.0322   23.1150 C   0  0  0  0  0  0  0  0  0  0  0  0
   12.5830  -20.1345   23.1956 O   0  0  0  0  0  0  0  0  0  0  0  0
   11.0589  -16.2195   24.5838 C   0  0  0  0  0  0  0  0  0  0  0  0
   11.6445  -15.1379   24.3492 O   0  0  0  0  0  0  0  0  0  0  0  0
   14.2890  -19.0321   22.2459 O   0  0  0  0  0  0  0  0  0  0  0  0
   10.1219  -16.2369   25.6446 N   0  0  0  0  0  0  0  0  0  0  0  0
    9.8370  -15.0014   26.3740 C   0  0  1  0  0  0  0  0  0  0  0  0
    8.4207  -14.5435   26.1000 C   0  0  0  0  0  0  0  0  0  0  0  0
    8.0294  -13.2922   26.8323 C   0  0  0  0  0  0  0  0  0  0  0  0
    6.5906  -12.9297   26.5347 C   0  0  0  0  0  0  0  0  0  0  0  0
    6.1995  -11.5999   27.1182 C   0  0  0  0  0  0  0  0  0  0  0  0
    4.7999  -11.2694   26.8918 N   0  0  0  0  0  0  0  0  0  0  0  0
    9.9628  -15.3032   27.8101 C   0  0  0  0  0  0  0  0  0  0  0  0
    9.9218  -14.4565   28.7256 O   0  0  0  0  0  0  0  0  0  0  0  0
   10.1419  -16.6231   28.2071 O   0  0  0  0  0  0  0  0  0  0  0  0
  2  8  1  0
  2  1  1  1
  3  2  1  0
  4  3  1  0
  5  6  1  0
  5  4  1  0
  7  6  1  0
  8  9  2  0
 10 11  1  0
 10  8  1  0
 12 13  1  0
 11 12  1  6
 13 14  2  0
 15 16  2  0
 15 11  1  0
 17 13  1  0
 18 15  1  0
 19 25  1  0
 19 18  1  0
 19 20  1  1
 21 20  1  0
 22 21  1  0
 23 22  1  0
 23 24  1  0
 25 27  1  0
 26 25  2  0
M  END
$$$$
