KDK.pdb
     RDKit          3D

 27 26  0  0  1  0  0  0  0  0999 V2000
   10.6128  -14.1225   18.4272 N   0  0  0  0  0  0  0  0  0  0  0  0
    9.4443  -13.8647   19.2629 C   0  0  1  0  0  0  0  0  0  0  0  0
    8.2418  -13.6683   18.3709 C   0  0  0  0  0  0  0  0  0  0  0  0
    8.5436  -14.1482   16.9904 C   0  0  0  0  0  0  0  0  0  0  0  0
    7.4644  -13.8173   15.9732 C   0  0  0  0  0  0  0  0  0  0  0  0
    7.7866  -14.5053   14.6690 C   0  0  0  0  0  0  0  0  0  0  0  0
    6.7637  -14.1610   13.6774 N   0  0  0  0  0  0  0  0  0  0  0  0
    9.2403  -14.8834   20.3007 C   0  0  0  0  0  0  0  0  0  0  0  0
    8.1654  -14.8815   20.9440 O   0  0  0  0  0  0  0  0  0  0  0  0
   10.1992  -15.8973   20.6411 N   0  0  0  0  0  0  0  0  0  0  0  0
   10.0032  -16.8049   21.7353 C   0  0  1  0  0  0  0  0  0  0  0  0
   10.9553  -17.9489   21.8175 C   0  0  0  0  0  0  0  0  0  0  0  0
   10.8756  -18.9066   20.6998 C   0  0  0  0  0  0  0  0  0  0  0  0
    9.8333  -19.5157   20.3528 O   0  0  0  0  0  0  0  0  0  0  0  0
   10.0556  -15.9811   23.0044 C   0  0  0  0  0  0  0  0  0  0  0  0
   11.0921  -15.3544   23.3219 O   0  0  0  0  0  0  0  0  0  0  0  0
   12.0129  -19.2092   19.9246 O   0  0  0  0  0  0  0  0  0  0  0  0
    8.9444  -15.8877   23.8762 N   0  0  0  0  0  0  0  0  0  0  0  0
    9.0339  -15.0459   25.0691 C   0  0  1  0  0  0  0  0  0  0  0  0
    7.7721  -14.2258   25.2300 C   0  0  0  0  0  0  0  0  0  0  0  0
    7.7655  -13.3448   26.4461 C   0  0  0  0  0  0  0  0  0  0  0  0
    6.4713  -12.5651   26.5311 C   0  0  0  0  0  0  0  0  0  0  0  0
    6.4400  -11.6280   27.7068 C   0  0  0  0  0  0  0  0  0  0  0  0
    5.1737  -10.9215   27.8370 N   0  0  0  0  0  0  0  0  0  0  0  0
    9.1603  -15.9446   26.2292 C   0  0  0  0  0  0  0  0  0  0  0  0
    8.8802  -17.1604   26.2265 O   0  0  0  0  0  0  0  0  0  0  0  0
    9.6245  -15.4279   27.4332 O   0  0  0  0  0  0  0  0  0  0  0  0
  2  8  1  0
  2  1  1  6
  3  2  1  0
  4  3  1  0
  5  6  1  0
  5  4  1  0
  7  6  1  0
  8  9  2  0
 10 11  1  0
 10  8  1  0
 12 13  1  0
 11 12  1  1
 13 14  2  0
 15 16  2  0
 15 11  1  0
 17 13  1  0
 18 15  1  0
 19 25  1  0
 19 18  1  0
 19 20  1  1
 21 20  1  0
 22 21  1  0
 23 22  1  0
 23 24  1  0
 25 27  1  0
 26 25  2  0
M  END
$$$$
