KDK.pdb
     RDKit          3D

 27 26  0  0  1  0  0  0  0  0999 V2000
   10.1768  -18.8249   18.0322 N   0  0  0  0  0  0  0  0  0  0  0  0
    9.9299  -17.6517   18.8644 C   0  0  1  0  0  0  0  0  0  0  0  0
    8.5387  -17.1376   18.5803 C   0  0  0  0  0  0  0  0  0  0  0  0
    7.7501  -18.1708   17.8473 C   0  0  0  0  0  0  0  0  0  0  0  0
    6.3383  -17.7330   17.4946 C   0  0  0  0  0  0  0  0  0  0  0  0
    5.6934  -18.7910   16.6326 C   0  0  0  0  0  0  0  0  0  0  0  0
    4.3174  -18.3898   16.3265 N   0  0  0  0  0  0  0  0  0  0  0  0
   10.1827  -17.8919   20.2910 C   0  0  0  0  0  0  0  0  0  0  0  0
    9.4443  -18.6947   20.9070 O   0  0  0  0  0  0  0  0  0  0  0  0
   11.2295  -17.2617   21.0461 N   0  0  0  0  0  0  0  0  0  0  0  0
   11.4001  -17.4794   22.4543 C   0  0  1  0  0  0  0  0  0  0  0  0
   12.7810  -17.8152   22.9039 C   0  0  0  0  0  0  0  0  0  0  0  0
   12.9202  -18.0709   24.3490 C   0  0  0  0  0  0  0  0  0  0  0  0
   13.5881  -17.3598   25.1400 O   0  0  0  0  0  0  0  0  0  0  0  0
   10.9046  -16.2321   23.1549 C   0  0  0  0  0  0  0  0  0  0  0  0
   11.4870  -15.1343   23.0021 O   0  0  0  0  0  0  0  0  0  0  0  0
   12.2875  -19.1765   24.9517 O   0  0  0  0  0  0  0  0  0  0  0  0
    9.7727  -16.2570   24.0045 N   0  0  0  0  0  0  0  0  0  0  0  0
    9.5694  -15.1726   24.9651 C   0  0  1  0  0  0  0  0  0  0  0  0
    8.1998  -14.5557   24.7797 C   0  0  0  0  0  0  0  0  0  0  0  0
    7.8870  -13.4558   25.7532 C   0  0  0  0  0  0  0  0  0  0  0  0
    6.4862  -12.9293   25.5287 C   0  0  0  0  0  0  0  0  0  0  0  0
    6.1650  -11.7537   26.4099 C   0  0  0  0  0  0  0  0  0  0  0  0
    4.7754  -11.3314   26.3099 N   0  0  0  0  0  0  0  0  0  0  0  0
    9.6392  -15.7638   26.3122 C   0  0  0  0  0  0  0  0  0  0  0  0
    9.7159  -16.9852   26.5547 O   0  0  0  0  0  0  0  0  0  0  0  0
    9.6203  -14.9221   27.4182 O   0  0  0  0  0  0  0  0  0  0  0  0
  2  8  1  0
  2  1  1  6
  3  2  1  0
  4  3  1  0
  5  6  1  0
  5  4  1  0
  7  6  1  0
  8  9  2  0
 10 11  1  0
 10  8  1  0
 12 13  1  0
 11 12  1  6
 13 14  2  0
 15 16  2  0
 15 11  1  0
 17 13  1  0
 18 15  1  0
 19 25  1  0
 19 18  1  0
 19 20  1  6
 21 20  1  0
 22 21  1  0
 23 22  1  0
 23 24  1  0
 25 27  1  0
 26 25  2  0
M  END
$$$$
