KDK.pdb
     RDKit          3D

 27 26  0  0  1  0  0  0  0  0999 V2000
    5.0665  -22.9437   19.8679 N   0  0  0  0  0  0  0  0  0  0  0  0
    5.4203  -21.5732   20.2237 C   0  0  1  0  0  0  0  0  0  0  0  0
    4.3181  -20.6503   19.7612 C   0  0  0  0  0  0  0  0  0  0  0  0
    3.5251  -21.3015   18.6777 C   0  0  0  0  0  0  0  0  0  0  0  0
    2.4606  -20.4042   18.0687 C   0  0  0  0  0  0  0  0  0  0  0  0
    1.7279  -21.1669   16.9919 C   0  0  0  0  0  0  0  0  0  0  0  0
    0.6858  -20.3101   16.4192 N   0  0  0  0  0  0  0  0  0  0  0  0
    5.7566  -21.4136   21.6443 C   0  0  0  0  0  0  0  0  0  0  0  0
    6.1027  -20.2831   22.0583 O   0  0  0  0  0  0  0  0  0  0  0  0
    5.7207  -22.4762   22.6101 N   0  0  0  0  0  0  0  0  0  0  0  0
    6.0834  -22.2788   23.9846 C   0  0  1  0  0  0  0  0  0  0  0  0
    5.2889  -23.0418   24.9890 C   0  0  0  0  0  0  0  0  0  0  0  0
    5.6728  -22.8091   26.3930 C   0  0  0  0  0  0  0  0  0  0  0  0
    6.3510  -21.8320   26.7966 O   0  0  0  0  0  0  0  0  0  0  0  0
    7.5536  -22.6192   24.1042 C   0  0  0  0  0  0  0  0  0  0  0  0
    7.9732  -23.7655   23.8253 O   0  0  0  0  0  0  0  0  0  0  0  0
    5.2871  -23.7091   27.4065 O   0  0  0  0  0  0  0  0  0  0  0  0
    8.5052  -21.6632   24.5335 N   0  0  0  0  0  0  0  0  0  0  0  0
    9.9191  -22.0328   24.5967 C   0  0  1  0  0  0  0  0  0  0  0  0
   10.7745  -20.9483   23.9780 C   0  0  0  0  0  0  0  0  0  0  0  0
   11.8648  -21.4642   23.0835 C   0  0  0  0  0  0  0  0  0  0  0  0
   12.6381  -20.3166   22.4711 C   0  0  0  0  0  0  0  0  0  0  0  0
   13.6715  -20.7814   21.4825 C   0  0  0  0  0  0  0  0  0  0  0  0
   14.3893  -19.6830   20.8518 N   0  0  0  0  0  0  0  0  0  0  0  0
   10.2750  -22.1559   26.0206 C   0  0  0  0  0  0  0  0  0  0  0  0
    9.6112  -21.6872   26.9673 O   0  0  0  0  0  0  0  0  0  0  0  0
   11.4335  -22.8409   26.3679 O   0  0  0  0  0  0  0  0  0  0  0  0
  2  8  1  0
  2  1  1  1
  3  2  1  0
  4  3  1  0
  5  6  1  0
  5  4  1  0
  7  6  1  0
  8  9  2  0
 10 11  1  0
 10  8  1  0
 12 13  1  0
 11 12  1  1
 13 14  2  0
 15 16  2  0
 15 11  1  0
 17 13  1  0
 18 15  1  0
 19 25  1  0
 19 18  1  0
 19 20  1  1
 21 20  1  0
 22 21  1  0
 23 22  1  0
 23 24  1  0
 25 27  1  0
 26 25  2  0
M  END
$$$$
