KDK.pdb
     RDKit          3D

 27 26  0  0  1  0  0  0  0  0999 V2000
    8.8387  -15.6882   17.8784 N   0  0  0  0  0  0  0  0  0  0  0  0
    8.3627  -16.5485   18.9571 C   0  0  1  0  0  0  0  0  0  0  0  0
    7.2279  -17.3982   18.4372 C   0  0  0  0  0  0  0  0  0  0  0  0
    7.6258  -18.0593   17.1598 C   0  0  0  0  0  0  0  0  0  0  0  0
    6.5587  -18.9727   16.5801 C   0  0  0  0  0  0  0  0  0  0  0  0
    7.0160  -19.4736   15.2317 C   0  0  0  0  0  0  0  0  0  0  0  0
    5.9362  -20.2491   14.6146 N   0  0  0  0  0  0  0  0  0  0  0  0
    9.4342  -17.3296   19.5884 C   0  0  0  0  0  0  0  0  0  0  0  0
    9.1269  -18.1970   20.4384 O   0  0  0  0  0  0  0  0  0  0  0  0
   10.8322  -17.1681   19.3013 N   0  0  0  0  0  0  0  0  0  0  0  0
   11.8434  -17.9743   19.9235 C   0  0  1  0  0  0  0  0  0  0  0  0
   13.0535  -18.2594   19.1011 C   0  0  0  0  0  0  0  0  0  0  0  0
   12.8294  -19.1586   17.9548 C   0  0  0  0  0  0  0  0  0  0  0  0
   11.8902  -19.9882   17.8695 O   0  0  0  0  0  0  0  0  0  0  0  0
   12.2308  -17.2775   21.2104 C   0  0  0  0  0  0  0  0  0  0  0  0
   12.9130  -16.2277   21.1932 O   0  0  0  0  0  0  0  0  0  0  0  0
   13.6940  -19.1407   16.8421 O   0  0  0  0  0  0  0  0  0  0  0  0
   11.8412  -17.7811   22.4746 N   0  0  0  0  0  0  0  0  0  0  0  0
   12.2265  -17.0593   23.6872 C   0  0  1  0  0  0  0  0  0  0  0  0
   11.3797  -17.5087   24.8583 C   0  0  0  0  0  0  0  0  0  0  0  0
   11.7594  -16.8766   26.1666 C   0  0  0  0  0  0  0  0  0  0  0  0
   10.9755  -17.4953   27.3036 C   0  0  0  0  0  0  0  0  0  0  0  0
   11.3252  -16.8952   28.6374 C   0  0  0  0  0  0  0  0  0  0  0  0
   10.6443  -17.5439   29.7486 N   0  0  0  0  0  0  0  0  0  0  0  0
   13.6324  -17.3967   23.9681 C   0  0  0  0  0  0  0  0  0  0  0  0
   14.1618  -18.5035   23.7415 O   0  0  0  0  0  0  0  0  0  0  0  0
   14.4577  -16.4289   24.5285 O   0  0  0  0  0  0  0  0  0  0  0  0
  2  8  1  0
  2  1  1  6
  3  2  1  0
  4  3  1  0
  5  6  1  0
  5  4  1  0
  7  6  1  0
  8  9  2  0
 10 11  1  0
 10  8  1  0
 12 13  1  0
 11 12  1  6
 13 14  2  0
 15 16  2  0
 15 11  1  0
 17 13  1  0
 18 15  1  0
 19 25  1  0
 19 18  1  0
 19 20  1  1
 21 20  1  0
 22 21  1  0
 23 22  1  0
 23 24  1  0
 25 27  1  0
 26 25  2  0
M  END
$$$$
