KDK.pdb
     RDKit          3D

 27 26  0  0  1  0  0  0  0  0999 V2000
    7.3010  -16.5968   18.7553 N   0  0  0  0  0  0  0  0  0  0  0  0
    8.2954  -15.7381   19.3908 C   0  0  1  0  0  0  0  0  0  0  0  0
    7.7329  -14.3410   19.5011 C   0  0  0  0  0  0  0  0  0  0  0  0
    8.1947  -13.5101   18.3508 C   0  0  0  0  0  0  0  0  0  0  0  0
    7.6359  -13.9513   17.0084 C   0  0  0  0  0  0  0  0  0  0  0  0
    8.5034  -13.3959   15.9051 C   0  0  0  0  0  0  0  0  0  0  0  0
    8.0727  -13.9611   14.6232 N   0  0  0  0  0  0  0  0  0  0  0  0
    8.7873  -16.2711   20.6678 C   0  0  0  0  0  0  0  0  0  0  0  0
    7.9568  -16.7014   21.5011 O   0  0  0  0  0  0  0  0  0  0  0  0
   10.1732  -16.3340   21.0400 N   0  0  0  0  0  0  0  0  0  0  0  0
   10.6134  -16.9321   22.2680 C   0  0  1  0  0  0  0  0  0  0  0  0
   12.0059  -17.4640   22.2767 C   0  0  0  0  0  0  0  0  0  0  0  0
   12.4171  -18.1113   23.5356 C   0  0  0  0  0  0  0  0  0  0  0  0
   13.5682  -18.0411   24.0332 O   0  0  0  0  0  0  0  0  0  0  0  0
   10.4388  -15.8897   23.3519 C   0  0  0  0  0  0  0  0  0  0  0  0
   11.1416  -14.8535   23.3669 O   0  0  0  0  0  0  0  0  0  0  0  0
   11.5045  -18.8813   24.2841 O   0  0  0  0  0  0  0  0  0  0  0  0
    9.4822  -16.0436   24.3839 N   0  0  0  0  0  0  0  0  0  0  0  0
    9.3896  -15.0322   25.4366 C   0  0  1  0  0  0  0  0  0  0  0  0
    8.0605  -14.3124   25.3589 C   0  0  0  0  0  0  0  0  0  0  0  0
    7.8557  -13.2871   26.4369 C   0  0  0  0  0  0  0  0  0  0  0  0
    6.5052  -12.6207   26.2875 C   0  0  0  0  0  0  0  0  0  0  0  0
    6.2624  -11.5705   27.3361 C   0  0  0  0  0  0  0  0  0  0  0  0
    4.9284  -10.9921   27.2629 N   0  0  0  0  0  0  0  0  0  0  0  0
    9.4666  -15.7371   26.7274 C   0  0  0  0  0  0  0  0  0  0  0  0
    9.4646  -15.1843   27.8459 O   0  0  0  0  0  0  0  0  0  0  0  0
    9.5485  -17.1246   26.7326 O   0  0  0  0  0  0  0  0  0  0  0  0
  2  8  1  0
  2  1  1  1
  3  2  1  0
  4  3  1  0
  5  6  1  0
  5  4  1  0
  7  6  1  0
  8  9  2  0
 10 11  1  0
 10  8  1  0
 12 13  1  0
 11 12  1  6
 13 14  2  0
 15 16  2  0
 15 11  1  0
 17 13  1  0
 18 15  1  0
 19 25  1  0
 19 18  1  0
 19 20  1  1
 21 20  1  0
 22 21  1  0
 23 22  1  0
 23 24  1  0
 25 27  1  0
 26 25  2  0
M  END
$$$$
