KDK.pdb
     RDKit          3D

 27 26  0  0  1  0  0  0  0  0999 V2000
    9.1362  -12.7416   18.8624 N   0  0  0  0  0  0  0  0  0  0  0  0
    8.8256  -14.1664   18.9223 C   0  0  1  0  0  0  0  0  0  0  0  0
   10.0746  -14.9508   18.5983 C   0  0  0  0  0  0  0  0  0  0  0  0
   11.2384  -14.0272   18.4589 C   0  0  0  0  0  0  0  0  0  0  0  0
   12.5278  -14.7182   18.0478 C   0  0  0  0  0  0  0  0  0  0  0  0
   13.6484  -13.7071   18.0355 C   0  0  0  0  0  0  0  0  0  0  0  0
   14.3411  -13.7403   19.3267 N   0  0  0  0  0  0  0  0  0  0  0  0
    8.1966  -14.5678   20.1871 C   0  0  0  0  0  0  0  0  0  0  0  0
    8.1263  -13.7316   21.1171 O   0  0  0  0  0  0  0  0  0  0  0  0
    7.6496  -15.8711   20.4427 N   0  0  0  0  0  0  0  0  0  0  0  0
    6.9275  -16.1802   21.6438 C   0  0  1  0  0  0  0  0  0  0  0  0
    5.9728  -17.3219   21.5602 C   0  0  0  0  0  0  0  0  0  0  0  0
    5.3382  -17.6974   22.8366 C   0  0  0  0  0  0  0  0  0  0  0  0
    5.5511  -17.1282   23.9358 O   0  0  0  0  0  0  0  0  0  0  0  0
    7.9582  -16.4309   22.7239 C   0  0  0  0  0  0  0  0  0  0  0  0
    9.0092  -17.0644   22.4754 O   0  0  0  0  0  0  0  0  0  0  0  0
    4.4190  -18.7636   22.9007 O   0  0  0  0  0  0  0  0  0  0  0  0
    7.7763  -15.9636   24.0476 N   0  0  0  0  0  0  0  0  0  0  0  0
    8.8901  -16.0285   24.9937 C   0  0  1  0  0  0  0  0  0  0  0  0
    8.5479  -15.2759   26.2614 C   0  0  0  0  0  0  0  0  0  0  0  0
    9.5917  -15.3805   27.3361 C   0  0  0  0  0  0  0  0  0  0  0  0
    9.1666  -14.6099   28.5672 C   0  0  0  0  0  0  0  0  0  0  0  0
   10.1952  -14.6627   29.6630 C   0  0  0  0  0  0  0  0  0  0  0  0
    9.8093  -13.9008   30.8419 N   0  0  0  0  0  0  0  0  0  0  0  0
    9.0942  -17.4475   25.3312 C   0  0  0  0  0  0  0  0  0  0  0  0
   10.1712  -17.9428   25.7202 O   0  0  0  0  0  0  0  0  0  0  0  0
    8.0238  -18.3269   25.2177 O   0  0  0  0  0  0  0  0  0  0  0  0
  2  8  1  0
  2  1  1  1
  3  2  1  0
  4  3  1  0
  5  6  1  0
  5  4  1  0
  7  6  1  0
  8  9  2  0
 10 11  1  0
 10  8  1  0
 12 13  1  0
 11 12  1  6
 13 14  2  0
 15 16  2  0
 15 11  1  0
 17 13  1  0
 18 15  1  0
 19 25  1  0
 19 18  1  0
 19 20  1  1
 21 20  1  0
 22 21  1  0
 23 22  1  0
 23 24  1  0
 25 27  1  0
 26 25  2  0
M  END
$$$$
