KDK.pdb
     RDKit          3D

 27 26  0  0  1  0  0  0  0  0999 V2000
    6.8556  -21.4427   17.6471 N   0  0  0  0  0  0  0  0  0  0  0  0
    7.1700  -20.3728   18.5888 C   0  0  1  0  0  0  0  0  0  0  0  0
    5.9669  -20.1296   19.4684 C   0  0  0  0  0  0  0  0  0  0  0  0
    5.3716  -21.4302   19.8940 C   0  0  0  0  0  0  0  0  0  0  0  0
    4.1109  -21.2867   20.7300 C   0  0  0  0  0  0  0  0  0  0  0  0
    3.6038  -22.6594   21.0996 C   0  0  0  0  0  0  0  0  0  0  0  0
    2.3297  -22.5266   21.8118 N   0  0  0  0  0  0  0  0  0  0  0  0
    8.4059  -20.6132   19.3446 C   0  0  0  0  0  0  0  0  0  0  0  0
    8.8543  -21.7810   19.4107 O   0  0  0  0  0  0  0  0  0  0  0  0
    9.1498  -19.5921   20.0281 N   0  0  0  0  0  0  0  0  0  0  0  0
   10.3990  -19.8582   20.6825 C   0  0  1  0  0  0  0  0  0  0  0  0
   11.4649  -18.8316   20.5044 C   0  0  0  0  0  0  0  0  0  0  0  0
   12.8029  -19.2359   20.9725 C   0  0  0  0  0  0  0  0  0  0  0  0
   13.8471  -19.1947   20.2757 O   0  0  0  0  0  0  0  0  0  0  0  0
   10.0924  -20.0526   22.1522 C   0  0  0  0  0  0  0  0  0  0  0  0
    9.4319  -19.2009   22.7895 O   0  0  0  0  0  0  0  0  0  0  0  0
   12.9958  -19.7148   22.2838 O   0  0  0  0  0  0  0  0  0  0  0  0
   10.5371  -21.1953   22.8594 N   0  0  0  0  0  0  0  0  0  0  0  0
   10.2280  -21.3265   24.2831 C   0  0  1  0  0  0  0  0  0  0  0  0
   10.2797  -22.7803   24.7008 C   0  0  0  0  0  0  0  0  0  0  0  0
    9.1246  -23.6013   24.2037 C   0  0  0  0  0  0  0  0  0  0  0  0
    9.3248  -25.0621   24.5446 C   0  0  0  0  0  0  0  0  0  0  0  0
    8.2022  -25.9289   24.0446 C   0  0  0  0  0  0  0  0  0  0  0  0
    8.3400  -27.3226   24.4420 N   0  0  0  0  0  0  0  0  0  0  0  0
   11.2645  -20.5883   25.0248 C   0  0  0  0  0  0  0  0  0  0  0  0
   12.2136  -19.9689   24.5032 O   0  0  0  0  0  0  0  0  0  0  0  0
   11.2078  -20.5613   26.4134 O   0  0  0  0  0  0  0  0  0  0  0  0
  2  8  1  0
  2  1  1  1
  3  2  1  0
  4  3  1  0
  5  6  1  0
  5  4  1  0
  7  6  1  0
  8  9  2  0
 10 11  1  0
 10  8  1  0
 12 13  1  0
 11 12  1  1
 13 14  2  0
 15 16  2  0
 15 11  1  0
 17 13  1  0
 18 15  1  0
 19 25  1  0
 19 18  1  0
 19 20  1  1
 21 20  1  0
 22 21  1  0
 23 22  1  0
 23 24  1  0
 25 27  1  0
 26 25  2  0
M  END
$$$$
