KDK.pdb
     RDKit          3D

 27 26  0  0  1  0  0  0  0  0999 V2000
    8.5928  -16.7128   18.8398 N   0  0  0  0  0  0  0  0  0  0  0  0
    8.8749  -17.8810   19.6680 C   0  0  1  0  0  0  0  0  0  0  0  0
    8.5152  -19.1257   18.8925 C   0  0  0  0  0  0  0  0  0  0  0  0
    7.1615  -18.9764   18.2824 C   0  0  0  0  0  0  0  0  0  0  0  0
    6.7308  -20.1653   17.4397 C   0  0  0  0  0  0  0  0  0  0  0  0
    5.3264  -19.9327   16.9379 C   0  0  0  0  0  0  0  0  0  0  0  0
    4.9235  -21.0612   16.0939 N   0  0  0  0  0  0  0  0  0  0  0  0
   10.2456  -17.8980   20.1949 C   0  0  0  0  0  0  0  0  0  0  0  0
   10.6472  -18.9208   20.7965 O   0  0  0  0  0  0  0  0  0  0  0  0
   11.1748  -16.8096   20.0726 N   0  0  0  0  0  0  0  0  0  0  0  0
   12.5105  -16.8763   20.5930 C   0  0  1  0  0  0  0  0  0  0  0  0
   13.5753  -16.2640   19.7485 C   0  0  0  0  0  0  0  0  0  0  0  0
   14.9500  -16.4538   20.2454 C   0  0  0  0  0  0  0  0  0  0  0  0
   15.6945  -15.5309   20.6596 O   0  0  0  0  0  0  0  0  0  0  0  0
   12.4821  -16.2278   21.9607 C   0  0  0  0  0  0  0  0  0  0  0  0
   12.2483  -15.0043   22.0875 O   0  0  0  0  0  0  0  0  0  0  0  0
   15.5343  -17.7356   20.2837 O   0  0  0  0  0  0  0  0  0  0  0  0
   12.7177  -16.9723   23.1413 N   0  0  0  0  0  0  0  0  0  0  0  0
   12.7045  -16.2921   24.4362 C   0  0  1  0  0  0  0  0  0  0  0  0
   12.1467  -17.2069   25.5052 C   0  0  0  0  0  0  0  0  0  0  0  0
   12.1505  -16.6112   26.8837 C   0  0  0  0  0  0  0  0  0  0  0  0
   11.6078  -17.6005   27.8921 C   0  0  0  0  0  0  0  0  0  0  0  0
   11.4524  -16.9995   29.2619 C   0  0  0  0  0  0  0  0  0  0  0  0
   10.7910  -17.8923   30.2025 N   0  0  0  0  0  0  0  0  0  0  0  0
   14.1015  -15.9717   24.7754 C   0  0  0  0  0  0  0  0  0  0  0  0
   14.4604  -15.0435   25.5280 O   0  0  0  0  0  0  0  0  0  0  0  0
   15.1205  -16.7444   24.2309 O   0  0  0  0  0  0  0  0  0  0  0  0
  2  8  1  0
  2  1  1  6
  3  2  1  0
  4  3  1  0
  5  6  1  0
  5  4  1  0
  7  6  1  0
  8  9  2  0
 10 11  1  0
 10  8  1  0
 12 13  1  0
 11 12  1  6
 13 14  2  0
 15 16  2  0
 15 11  1  0
 17 13  1  0
 18 15  1  0
 19 25  1  0
 19 18  1  0
 19 20  1  1
 21 20  1  0
 22 21  1  0
 23 22  1  0
 23 24  1  0
 25 27  1  0
 26 25  2  0
M  END
$$$$
