KDK.pdb
     RDKit          3D

 27 26  0  0  1  0  0  0  0  0999 V2000
    9.3893  -15.0519   16.3949 N   0  0  0  0  0  0  0  0  0  0  0  0
    9.6417  -14.3225   17.6336 C   0  0  1  0  0  0  0  0  0  0  0  0
    8.3179  -13.9542   18.2599 C   0  0  0  0  0  0  0  0  0  0  0  0
    8.5428  -13.2089   19.5331 C   0  0  0  0  0  0  0  0  0  0  0  0
    7.2625  -12.7934   20.2383 C   0  0  0  0  0  0  0  0  0  0  0  0
    7.6140  -12.0274   21.4904 C   0  0  0  0  0  0  0  0  0  0  0  0
    6.3913  -11.4633   22.0691 N   0  0  0  0  0  0  0  0  0  0  0  0
   10.5422  -15.0342   18.5497 C   0  0  0  0  0  0  0  0  0  0  0  0
   10.3438  -16.2524   18.7644 O   0  0  0  0  0  0  0  0  0  0  0  0
   11.6505  -14.4266   19.2320 N   0  0  0  0  0  0  0  0  0  0  0  0
   12.4932  -15.1583   20.1342 C   0  0  1  0  0  0  0  0  0  0  0  0
   13.7982  -14.5232   20.4743 C   0  0  0  0  0  0  0  0  0  0  0  0
   14.7011  -15.3547   21.2905 C   0  0  0  0  0  0  0  0  0  0  0  0
   14.4587  -16.5338   21.6491 O   0  0  0  0  0  0  0  0  0  0  0  0
   11.6829  -15.4063   21.3887 C   0  0  0  0  0  0  0  0  0  0  0  0
   11.1082  -14.4640   21.9799 O   0  0  0  0  0  0  0  0  0  0  0  0
   15.9398  -14.8528   21.7370 O   0  0  0  0  0  0  0  0  0  0  0  0
   11.5443  -16.7027   21.9397 N   0  0  0  0  0  0  0  0  0  0  0  0
   10.6856  -16.9009   23.1072 C   0  0  1  0  0  0  0  0  0  0  0  0
    9.5453  -17.8368   22.7687 C   0  0  0  0  0  0  0  0  0  0  0  0
    8.7025  -18.2268   23.9489 C   0  0  0  0  0  0  0  0  0  0  0  0
    7.7333  -19.3256   23.5704 C   0  0  0  0  0  0  0  0  0  0  0  0
    6.8588  -19.7431   24.7203 C   0  0  0  0  0  0  0  0  0  0  0  0
    6.0301  -20.9000   24.4134 N   0  0  0  0  0  0  0  0  0  0  0  0
   11.5105  -17.5263   24.1549 C   0  0  0  0  0  0  0  0  0  0  0  0
   12.5908  -18.1183   23.9570 O   0  0  0  0  0  0  0  0  0  0  0  0
   11.0787  -17.4693   25.4749 O   0  0  0  0  0  0  0  0  0  0  0  0
  2  8  1  0
  2  1  1  6
  3  2  1  0
  4  3  1  0
  5  6  1  0
  5  4  1  0
  7  6  1  0
  8  9  2  0
 10 11  1  0
 10  8  1  0
 12 13  1  0
 11 12  1  1
 13 14  2  0
 15 16  2  0
 15 11  1  0
 17 13  1  0
 18 15  1  0
 19 25  1  0
 19 18  1  0
 19 20  1  6
 21 20  1  0
 22 21  1  0
 23 22  1  0
 23 24  1  0
 25 27  1  0
 26 25  2  0
M  END
$$$$
