KDK.pdb
     RDKit          3D

 27 26  0  0  1  0  0  0  0  0999 V2000
    6.9575  -17.4869   20.3051 N   0  0  0  0  0  0  0  0  0  0  0  0
    8.0635  -16.5919   20.6306 C   0  0  1  0  0  0  0  0  0  0  0  0
    7.5070  -15.2216   20.9357 C   0  0  0  0  0  0  0  0  0  0  0  0
    7.2110  -14.4944   19.6666 C   0  0  0  0  0  0  0  0  0  0  0  0
    8.3105  -13.5395   19.2326 C   0  0  0  0  0  0  0  0  0  0  0  0
    7.9374  -12.9265   17.9048 C   0  0  0  0  0  0  0  0  0  0  0  0
    9.0514  -12.1045   17.4239 N   0  0  0  0  0  0  0  0  0  0  0  0
    8.9376  -17.1149   21.6884 C   0  0  0  0  0  0  0  0  0  0  0  0
    8.4229  -17.7566   22.6331 O   0  0  0  0  0  0  0  0  0  0  0  0
   10.3629  -16.9398   21.7226 N   0  0  0  0  0  0  0  0  0  0  0  0
   11.1641  -17.3689   22.8333 C   0  0  1  0  0  0  0  0  0  0  0  0
   12.6133  -17.5791   22.5546 C   0  0  0  0  0  0  0  0  0  0  0  0
   12.9055  -18.4579   21.4078 C   0  0  0  0  0  0  0  0  0  0  0  0
   12.5884  -19.6713   21.3376 O   0  0  0  0  0  0  0  0  0  0  0  0
   10.9802  -16.3420   23.9304 C   0  0  0  0  0  0  0  0  0  0  0  0
   11.6159  -15.2634   23.9149 O   0  0  0  0  0  0  0  0  0  0  0  0
   13.5888  -17.9677   20.2770 O   0  0  0  0  0  0  0  0  0  0  0  0
   10.0899  -16.5586   25.0093 N   0  0  0  0  0  0  0  0  0  0  0  0
    9.9265  -15.5210   26.0274 C   0  0  1  0  0  0  0  0  0  0  0  0
    8.5492  -14.9010   25.9301 C   0  0  0  0  0  0  0  0  0  0  0  0
    8.2646  -13.8730   26.9872 C   0  0  0  0  0  0  0  0  0  0  0  0
    6.8715  -13.3071   26.8174 C   0  0  0  0  0  0  0  0  0  0  0  0
    6.5969  -12.1628   27.7538 C   0  0  0  0  0  0  0  0  0  0  0  0
    5.2719  -11.5869   27.5742 N   0  0  0  0  0  0  0  0  0  0  0  0
   10.0550  -16.1743   27.3412 C   0  0  0  0  0  0  0  0  0  0  0  0
    9.9853  -17.4042   27.5388 O   0  0  0  0  0  0  0  0  0  0  0  0
   10.2710  -15.3868   28.4660 O   0  0  0  0  0  0  0  0  0  0  0  0
  2  8  1  0
  2  1  1  1
  3  2  1  0
  4  3  1  0
  5  6  1  0
  5  4  1  0
  7  6  1  0
  8  9  2  0
 10 11  1  0
 10  8  1  0
 12 13  1  0
 11 12  1  6
 13 14  2  0
 15 16  2  0
 15 11  1  0
 17 13  1  0
 18 15  1  0
 19 25  1  0
 19 18  1  0
 19 20  1  1
 21 20  1  0
 22 21  1  0
 23 22  1  0
 23 24  1  0
 25 27  1  0
 26 25  2  0
M  END
$$$$
