DMW.pdb
     RDKit          3D

 31 32  0  0  1  0  0  0  0  0999 V2000
   10.8248  -18.3652   18.8906 N   0  0  0  0  0  0  0  0  0  0  0  0
   11.7259  -17.4384   19.4990 C   0  0  1  0  0  0  0  0  0  0  0  0
   12.2994  -16.5085   18.4346 C   0  0  0  0  0  0  0  0  0  0  0  0
   13.1074  -17.2253   17.4238 C   0  0  0  0  0  0  0  0  0  0  0  0
   12.7662  -17.3350   16.2212 O   0  0  0  0  0  0  0  0  0  0  0  0
   11.1354  -16.5935   20.5613 C   0  0  0  0  0  0  0  0  0  0  0  0
   11.8894  -15.6727   21.0173 O   0  0  0  0  0  0  0  0  0  0  0  0
   14.3065  -17.8172   17.7894 O   0  0  0  0  0  0  0  0  0  0  0  0
    7.0840  -12.3868   19.9732 C   0  0  0  0  0  0  0  0  0  0  0  0
    7.9004  -13.5508   21.0273 S   0  0  0  0  0  0  0  0  0  0  0  0
    7.2097  -15.1846   21.1310 C   0  0  0  0  0  0  0  0  0  0  0  0
    7.8165  -16.0656   22.1758 C   0  0  0  0  0  0  0  0  0  0  0  0
    9.3049  -15.9695   22.2049 C   0  0  2  0  0  0  0  0  0  0  0  0
    9.8287  -16.7348   21.0890 N   0  0  0  0  0  0  0  0  0  0  0  0
    9.7385  -16.6277   23.5120 C   0  0  0  0  0  0  0  0  0  0  0  0
   10.1646  -17.7961   23.4908 O   0  0  0  0  0  0  0  0  0  0  0  0
    9.6610  -15.9228   24.7254 N   0  0  0  0  0  0  0  0  0  0  0  0
   10.1131  -16.4795   26.0204 C   0  0  1  0  0  0  0  0  0  0  0  0
    9.6159  -15.4892   27.0973 C   0  0  0  0  0  0  0  0  0  0  0  0
    8.2600  -15.0244   26.7844 C   0  0  0  0  0  0  0  0  0  0  0  0
    7.1189  -15.7500   26.5346 C   0  0  0  0  0  0  0  0  0  0  0  0
    6.0990  -14.9017   26.3211 N   0  0  0  0  0  0  0  0  0  0  0  0
    6.5442  -13.6462   26.4247 C   0  0  0  0  0  0  0  0  0  0  0  0
    5.8286  -12.4628   26.2873 C   0  0  0  0  0  0  0  0  0  0  0  0
    6.5222  -11.2856   26.4521 C   0  0  0  0  0  0  0  0  0  0  0  0
    7.8735  -11.3203   26.7416 C   0  0  0  0  0  0  0  0  0  0  0  0
    8.5672  -12.5042   26.8746 C   0  0  0  0  0  0  0  0  0  0  0  0
    7.8826  -13.6866   26.7120 C   0  0  0  0  0  0  0  0  0  0  0  0
    9.3250  -17.7052   26.2194 C   0  0  0  0  0  0  0  0  0  0  0  0
    9.5793  -18.6440   27.1705 O   0  0  0  0  0  0  0  0  0  0  0  0
    8.3205  -17.9373   25.4628 O   0  0  0  0  0  0  0  0  0  0  0  0
  2  1  1  6
  2  6  1  0
  2  3  1  0
  3  4  1  0
  4  8  1  0
  5  4  2  0
  6  7  2  0
  9 10  1  0
 11 10  1  0
 11 12  1  0
 13 14  1  0
 13 12  1  6
 14  6  1  0
 15 13  1  0
 16 15  2  0
 17 15  1  0
 18 17  1  0
 18 19  1  1
 19 20  1  0
 20 21  2  0
 21 22  1  0
 23 24  2  0
 23 22  1  0
 25 24  1  0
 26 25  2  0
 27 26  1  0
 27 28  2  0
 28 20  1  0
 28 23  1  0
 29 18  1  0
 29 30  1  0
 31 29  2  0
M  END
$$$$
