DMW.pdb
     RDKit          3D

 31 32  0  0  1  0  0  0  0  0999 V2000
   10.9183  -19.1700   19.0941 N   0  0  0  0  0  0  0  0  0  0  0  0
   11.8555  -18.3155   19.7518 C   0  0  1  0  0  0  0  0  0  0  0  0
   12.5761  -17.4552   18.7187 C   0  0  0  0  0  0  0  0  0  0  0  0
   13.3143  -18.2586   17.7198 C   0  0  0  0  0  0  0  0  0  0  0  0
   13.3425  -19.5132   17.7298 O   0  0  0  0  0  0  0  0  0  0  0  0
   11.2735  -17.4065   20.7646 C   0  0  0  0  0  0  0  0  0  0  0  0
   12.1112  -16.7229   21.4393 O   0  0  0  0  0  0  0  0  0  0  0  0
   14.0210  -17.6261   16.7086 O   0  0  0  0  0  0  0  0  0  0  0  0
    7.6831  -12.1499   22.7513 C   0  0  0  0  0  0  0  0  0  0  0  0
    7.4384  -13.5661   21.7183 S   0  0  0  0  0  0  0  0  0  0  0  0
    7.2240  -15.1366   22.5213 C   0  0  0  0  0  0  0  0  0  0  0  0
    7.8566  -16.2982   21.8238 C   0  0  0  0  0  0  0  0  0  0  0  0
    9.3372  -16.3306   22.0034 C   0  0  2  0  0  0  0  0  0  0  0  0
    9.8905  -17.2497   21.0265 N   0  0  0  0  0  0  0  0  0  0  0  0
    9.5737  -16.8864   23.4052 C   0  0  0  0  0  0  0  0  0  0  0  0
    9.4181  -18.1034   23.6096 O   0  0  0  0  0  0  0  0  0  0  0  0
    9.9657  -16.0355   24.4528 N   0  0  0  0  0  0  0  0  0  0  0  0
   10.3620  -16.5237   25.7929 C   0  0  1  0  0  0  0  0  0  0  0  0
    9.8446  -15.4655   26.7930 C   0  0  0  0  0  0  0  0  0  0  0  0
    8.4385  -15.1451   26.5239 C   0  0  0  0  0  0  0  0  0  0  0  0
    7.3853  -15.9835   26.2428 C   0  0  0  0  0  0  0  0  0  0  0  0
    6.2698  -15.2494   26.0927 N   0  0  0  0  0  0  0  0  0  0  0  0
    6.5677  -13.9588   26.2680 C   0  0  0  0  0  0  0  0  0  0  0  0
    5.7168  -12.8614   26.2111 C   0  0  0  0  0  0  0  0  0  0  0  0
    6.2715  -11.6228   26.4399 C   0  0  0  0  0  0  0  0  0  0  0  0
    7.6227  -11.5161   26.7120 C   0  0  0  0  0  0  0  0  0  0  0  0
    8.4517  -12.6161   26.7647 C   0  0  0  0  0  0  0  0  0  0  0  0
    7.9066  -13.8589   26.5376 C   0  0  0  0  0  0  0  0  0  0  0  0
    9.5460  -17.7235   26.0328 C   0  0  0  0  0  0  0  0  0  0  0  0
    8.5687  -18.1750   25.2012 O   0  0  0  0  0  0  0  0  0  0  0  0
    9.7428  -18.4175   27.0888 O   0  0  0  0  0  0  0  0  0  0  0  0
  2  1  1  6
  2  6  1  0
  2  3  1  0
  3  4  1  0
  4  8  1  0
  5  4  2  0
  6  7  2  0
  9 10  1  0
 11 10  1  0
 11 12  1  0
 13 14  1  0
 13 12  1  6
 14  6  1  0
 15 13  1  0
 16 15  2  0
 17 15  1  0
 18 17  1  0
 18 19  1  1
 19 20  1  0
 20 21  2  0
 21 22  1  0
 23 24  2  0
 23 22  1  0
 25 24  1  0
 26 25  2  0
 27 26  1  0
 27 28  2  0
 28 20  1  0
 28 23  1  0
 29 18  1  0
 29 30  1  0
 31 29  2  0
M  END
$$$$
