DMW.pdb
     RDKit          3D

 31 32  0  0  1  0  0  0  0  0999 V2000
    7.9176  -19.7090   21.5212 N   0  0  0  0  0  0  0  0  0  0  0  0
    9.1840  -19.6265   20.8651 C   0  0  1  0  0  0  0  0  0  0  0  0
    9.0028  -19.8713   19.3705 C   0  0  0  0  0  0  0  0  0  0  0  0
    8.9665  -21.3095   19.0264 C   0  0  0  0  0  0  0  0  0  0  0  0
    8.9816  -22.2238   19.8859 O   0  0  0  0  0  0  0  0  0  0  0  0
    9.8917  -18.3364   21.0255 C   0  0  0  0  0  0  0  0  0  0  0  0
   11.1559  -18.3772   20.8696 O   0  0  0  0  0  0  0  0  0  0  0  0
    8.9133  -21.7021   17.6979 O   0  0  0  0  0  0  0  0  0  0  0  0
    7.5334  -11.8326   20.6703 C   0  0  0  0  0  0  0  0  0  0  0  0
    7.0235  -13.0256   21.8740 S   0  0  0  0  0  0  0  0  0  0  0  0
    8.1401  -14.3627   22.2241 C   0  0  0  0  0  0  0  0  0  0  0  0
    9.0555  -14.7360   21.1022 C   0  0  0  0  0  0  0  0  0  0  0  0
    9.9875  -15.8401   21.4735 C   0  0  2  0  0  0  0  0  0  0  0  0
    9.2775  -17.0975   21.3310 N   0  0  0  0  0  0  0  0  0  0  0  0
   10.3274  -15.6200   22.9452 C   0  0  0  0  0  0  0  0  0  0  0  0
   10.9603  -14.6016   23.2760 O   0  0  0  0  0  0  0  0  0  0  0  0
    9.9283  -16.5540   23.9165 N   0  0  0  0  0  0  0  0  0  0  0  0
   10.2774  -16.4367   25.3503 C   0  0  1  0  0  0  0  0  0  0  0  0
    9.0488  -16.9651   26.1242 C   0  0  0  0  0  0  0  0  0  0  0  0
    7.8588  -16.1665   25.8105 C   0  0  0  0  0  0  0  0  0  0  0  0
    6.6650  -16.5534   25.2482 C   0  0  0  0  0  0  0  0  0  0  0  0
    5.8512  -15.4868   25.1721 N   0  0  0  0  0  0  0  0  0  0  0  0
    6.4815  -14.4184   25.6686 C   0  0  0  0  0  0  0  0  0  0  0  0
    6.0087  -13.1174   25.7910 C   0  0  0  0  0  0  0  0  0  0  0  0
    6.8575  -12.1897   26.3505 C   0  0  0  0  0  0  0  0  0  0  0  0
    8.1200  -12.5750   26.7612 C   0  0  0  0  0  0  0  0  0  0  0  0
    8.5722  -13.8708   26.6320 C   0  0  0  0  0  0  0  0  0  0  0  0
    7.7308  -14.8058   26.0741 C   0  0  0  0  0  0  0  0  0  0  0  0
   11.3415  -17.4259   25.5792 C   0  0  0  0  0  0  0  0  0  0  0  0
   11.8038  -18.2976   24.6427 O   0  0  0  0  0  0  0  0  0  0  0  0
   11.8956  -17.4992   26.7294 O   0  0  0  0  0  0  0  0  0  0  0  0
  2  1  1  1
  2  6  1  0
  2  3  1  0
  3  4  1  0
  4  8  1  0
  5  4  2  0
  6  7  2  0
  9 10  1  0
 11 10  1  0
 11 12  1  0
 13 14  1  0
 13 12  1  1
 14  6  1  0
 15 13  1  0
 16 15  2  0
 17 15  1  0
 18 17  1  0
 18 19  1  1
 19 20  1  0
 20 21  2  0
 21 22  1  0
 23 24  2  0
 23 22  1  0
 25 24  1  0
 26 25  2  0
 27 26  1  0
 27 28  2  0
 28 20  1  0
 28 23  1  0
 29 18  1  0
 29 30  1  0
 31 29  2  0
M  END
$$$$
