DMW.pdb
     RDKit          3D

 31 32  0  0  1  0  0  0  0  0999 V2000
    9.3627  -18.7890   20.3546 N   0  0  0  0  0  0  0  0  0  0  0  0
   10.5831  -18.1043   20.0669 C   0  0  1  0  0  0  0  0  0  0  0  0
   10.7111  -17.8975   18.5611 C   0  0  0  0  0  0  0  0  0  0  0  0
   10.9645  -19.1582   17.8299 C   0  0  0  0  0  0  0  0  0  0  0  0
   10.0969  -20.0518   17.6767 O   0  0  0  0  0  0  0  0  0  0  0  0
   10.7291  -16.7816   20.7149 C   0  0  0  0  0  0  0  0  0  0  0  0
   11.8515  -16.2032   20.5424 O   0  0  0  0  0  0  0  0  0  0  0  0
   12.2118  -19.3968   17.2737 O   0  0  0  0  0  0  0  0  0  0  0  0
    6.9286  -12.1014   19.4891 C   0  0  0  0  0  0  0  0  0  0  0  0
    6.4415  -13.6364   20.2232 S   0  0  0  0  0  0  0  0  0  0  0  0
    7.7233  -14.6576   20.9098 C   0  0  0  0  0  0  0  0  0  0  0  0
    8.8707  -13.9148   21.5161 C   0  0  0  0  0  0  0  0  0  0  0  0
    9.8918  -14.8296   22.1043 C   0  0  2  0  0  0  0  0  0  0  0  0
    9.7358  -16.1349   21.4902 N   0  0  0  0  0  0  0  0  0  0  0  0
    9.5535  -14.9303   23.5893 C   0  0  0  0  0  0  0  0  0  0  0  0
    9.2188  -13.9034   24.2063 O   0  0  0  0  0  0  0  0  0  0  0  0
    9.6158  -16.1678   24.2525 N   0  0  0  0  0  0  0  0  0  0  0  0
   10.1201  -16.3257   25.6352 C   0  0  1  0  0  0  0  0  0  0  0  0
    8.9047  -16.7811   26.4738 C   0  0  0  0  0  0  0  0  0  0  0  0
    7.7489  -15.9137   26.2207 C   0  0  0  0  0  0  0  0  0  0  0  0
    6.5237  -16.2201   25.6767 C   0  0  0  0  0  0  0  0  0  0  0  0
    5.7629  -15.1126   25.6606 N   0  0  0  0  0  0  0  0  0  0  0  0
    6.4581  -14.0958   26.1781 C   0  0  0  0  0  0  0  0  0  0  0  0
    6.0544  -12.7784   26.3597 C   0  0  0  0  0  0  0  0  0  0  0  0
    6.9624  -11.9151   26.9294 C   0  0  0  0  0  0  0  0  0  0  0  0
    8.2137  -12.3772   27.2924 C   0  0  0  0  0  0  0  0  0  0  0  0
    8.5968  -13.6881   27.1048 C   0  0  0  0  0  0  0  0  0  0  0  0
    7.6960  -14.5590   26.5363 C   0  0  0  0  0  0  0  0  0  0  0  0
   11.0260  -17.4836   25.5949 C   0  0  0  0  0  0  0  0  0  0  0  0
   11.7767  -17.9171   26.6433 O   0  0  0  0  0  0  0  0  0  0  0  0
   11.1405  -18.1555   24.5128 O   0  0  0  0  0  0  0  0  0  0  0  0
  2  1  1  6
  2  6  1  0
  2  3  1  0
  3  4  1  0
  4  8  1  0
  5  4  2  0
  6  7  2  0
  9 10  1  0
 11 10  1  0
 11 12  1  0
 13 14  1  0
 13 12  1  6
 14  6  1  0
 15 13  1  0
 16 15  2  0
 17 15  1  0
 18 17  1  0
 18 19  1  1
 19 20  1  0
 20 21  2  0
 21 22  1  0
 23 24  2  0
 23 22  1  0
 25 24  1  0
 26 25  2  0
 27 26  1  0
 27 28  2  0
 28 20  1  0
 28 23  1  0
 29 18  1  0
 29 30  1  0
 31 29  2  0
M  END
$$$$
