DMW.pdb
     RDKit          3D

 31 32  0  0  1  0  0  0  0  0999 V2000
    8.4178  -18.1691   18.6115 N   0  0  0  0  0  0  0  0  0  0  0  0
    8.4626  -18.1781   20.0394 C   0  0  1  0  0  0  0  0  0  0  0  0
    9.4879  -19.2035   20.5127 C   0  0  0  0  0  0  0  0  0  0  0  0
    9.1471  -20.5839   20.1045 C   0  0  0  0  0  0  0  0  0  0  0  0
    8.0182  -21.0987   20.2926 O   0  0  0  0  0  0  0  0  0  0  0  0
    8.8041  -16.8810   20.6653 C   0  0  0  0  0  0  0  0  0  0  0  0
    9.7980  -16.2670   20.1559 O   0  0  0  0  0  0  0  0  0  0  0  0
   10.0988  -21.3760   19.4809 O   0  0  0  0  0  0  0  0  0  0  0  0
    6.8280  -11.2819   25.9504 C   0  0  0  0  0  0  0  0  0  0  0  0
    6.7364  -12.9113   25.2653 S   0  0  0  0  0  0  0  0  0  0  0  0
    7.3852  -13.1476   23.6281 C   0  0  0  0  0  0  0  0  0  0  0  0
    7.2124  -14.5235   23.0689 C   0  0  0  0  0  0  0  0  0  0  0  0
    8.4031  -14.9739   22.2912 C   0  0  2  0  0  0  0  0  0  0  0  0
    8.1217  -16.2939   21.7586 N   0  0  0  0  0  0  0  0  0  0  0  0
    9.5449  -15.0727   23.2993 C   0  0  0  0  0  0  0  0  0  0  0  0
    9.9957  -14.0318   23.8094 O   0  0  0  0  0  0  0  0  0  0  0  0
   10.0798  -16.3241   23.6504 N   0  0  0  0  0  0  0  0  0  0  0  0
   11.2223  -16.4899   24.5769 C   0  0  1  0  0  0  0  0  0  0  0  0
   10.7222  -17.4353   25.6921 C   0  0  0  0  0  0  0  0  0  0  0  0
    9.6360  -16.8073   26.4524 C   0  0  0  0  0  0  0  0  0  0  0  0
    8.2887  -17.0828   26.4493 C   0  0  0  0  0  0  0  0  0  0  0  0
    7.6742  -16.2709   27.3261 N   0  0  0  0  0  0  0  0  0  0  0  0
    8.5829  -15.4761   27.8986 C   0  0  0  0  0  0  0  0  0  0  0  0
    8.3862  -14.4968   28.8649 C   0  0  0  0  0  0  0  0  0  0  0  0
    9.4978  -13.8147   29.3046 C   0  0  0  0  0  0  0  0  0  0  0  0
   10.7409  -14.1202   28.7826 C   0  0  0  0  0  0  0  0  0  0  0  0
   10.9171  -15.0954   27.8244 C   0  0  0  0  0  0  0  0  0  0  0  0
    9.8119  -15.7831   27.3785 C   0  0  0  0  0  0  0  0  0  0  0  0
   12.2275  -17.2606   23.8295 C   0  0  0  0  0  0  0  0  0  0  0  0
   12.0169  -17.8365   22.6151 O   0  0  0  0  0  0  0  0  0  0  0  0
   13.3950  -17.4203   24.3262 O   0  0  0  0  0  0  0  0  0  0  0  0
  2  1  1  6
  2  6  1  0
  2  3  1  0
  3  4  1  0
  4  8  1  0
  5  4  2  0
  6  7  2  0
  9 10  1  0
 11 10  1  0
 11 12  1  0
 13 14  1  0
 13 12  1  1
 14  6  1  0
 15 13  1  0
 16 15  2  0
 17 15  1  0
 18 17  1  0
 18 19  1  1
 19 20  1  0
 20 21  2  0
 21 22  1  0
 23 24  2  0
 23 22  1  0
 25 24  1  0
 26 25  2  0
 27 26  1  0
 27 28  2  0
 28 20  1  0
 28 23  1  0
 29 18  1  0
 29 30  1  0
 31 29  2  0
M  END
$$$$
