DLA.pdb
     RDKit          3D

 22 21  0  0  1  0  0  0  0  0999 V2000
   19.3479  -12.6726  -17.7843 N   0  0  0  0  0  0  0  0  0  0  0  0
   19.6902  -11.3305  -18.1801 C   0  0  1  0  0  0  0  0  0  0  0  0
   18.7666  -10.9220  -19.3173 C   0  0  0  0  0  0  0  0  0  0  0  0
   19.2573  -11.5889  -20.5444 C   0  0  0  0  0  0  0  0  0  0  0  0
   18.5014  -11.7996  -21.5189 O   0  0  0  0  0  0  0  0  0  0  0  0
   19.5645  -10.4248  -17.0256 C   0  0  0  0  0  0  0  0  0  0  0  0
   18.5804  -10.5545  -16.2548 O   0  0  0  0  0  0  0  0  0  0  0  0
   20.5807  -11.9847  -20.6069 O   0  0  0  0  0  0  0  0  0  0  0  0
   23.4226   -9.5293  -13.5252 C   0  0  0  0  0  0  0  0  0  0  0  0
   22.0370   -9.6145  -14.1128 C   0  0  1  0  0  0  0  0  0  0  0  0
   21.0700   -9.6650  -12.9222 C   0  0  0  0  0  0  0  0  0  0  0  0
   21.6598   -8.4209  -14.9158 C   0  0  0  0  0  0  0  0  0  0  0  0
   20.3065   -8.4983  -15.5723 C   0  0  2  0  0  0  0  0  0  0  0  0
   20.4860   -9.4042  -16.7180 N   0  0  0  0  0  0  0  0  0  0  0  0
   19.9080   -7.1680  -16.0967 C   0  0  0  0  0  0  0  0  0  0  0  0
   20.6596   -6.5659  -16.9116 O   0  0  0  0  0  0  0  0  0  0  0  0
   16.9134   -4.8475  -15.9149 C   0  0  0  0  0  0  0  0  0  0  0  0
   18.3840   -5.1687  -16.1743 C   0  0  2  0  0  0  0  0  0  0  0  0
   18.6903   -6.5187  -15.7186 N   0  0  0  0  0  0  0  0  0  0  0  0
   19.2493   -4.2033  -15.4743 C   0  0  0  0  0  0  0  0  0  0  0  0
   19.7429   -4.4887  -14.3325 O   0  0  0  0  0  0  0  0  0  0  0  0
   19.5536   -2.9716  -16.0213 O   0  0  0  0  0  0  0  0  0  0  0  0
  2  1  1  1
  3  2  1  0
  3  4  1  0
  4  5  2  0
  6  2  1  0
  6  7  2  0
  8  4  1  0
 10  9  1  1
 10 12  1  0
 10 11  1  0
 13 12  1  6
 13 14  1  0
 14  6  1  0
 15 13  1  0
 16 15  2  0
 18 19  1  0
 18 17  1  1
 19 15  1  0
 20 18  1  0
 21 20  2  0
 22 20  1  0
M  END
$$$$
