DLA.pdb
     RDKit          3D

 22 21  0  0  1  0  0  0  0  0999 V2000
   17.2641  -10.0202  -14.1676 N   0  0  0  0  0  0  0  0  0  0  0  0
   17.7221   -9.2352  -13.0499 C   0  0  1  0  0  0  0  0  0  0  0  0
   18.7648   -8.2513  -13.5578 C   0  0  0  0  0  0  0  0  0  0  0  0
   19.9187   -9.0429  -14.0409 C   0  0  0  0  0  0  0  0  0  0  0  0
   20.4618   -9.9102  -13.3211 O   0  0  0  0  0  0  0  0  0  0  0  0
   16.5803   -8.5441  -12.4272 C   0  0  0  0  0  0  0  0  0  0  0  0
   15.6746   -8.0797  -13.1643 O   0  0  0  0  0  0  0  0  0  0  0  0
   20.4006   -8.8125  -15.3163 O   0  0  0  0  0  0  0  0  0  0  0  0
   12.3192   -8.0484   -9.5804 C   0  0  0  0  0  0  0  0  0  0  0  0
   13.5210   -8.2159   -8.6859 C   0  0  1  0  0  0  0  0  0  0  0  0
   13.1641   -9.3318   -7.6947 C   0  0  0  0  0  0  0  0  0  0  0  0
   14.7401   -8.6648   -9.4098 C   0  0  0  0  0  0  0  0  0  0  0  0
   15.2495   -7.7050  -10.4527 C   0  0  2  0  0  0  0  0  0  0  0  0
   16.4283   -8.3631  -11.0381 N   0  0  0  0  0  0  0  0  0  0  0  0
   15.6977   -6.4401   -9.8181 C   0  0  0  0  0  0  0  0  0  0  0  0
   16.5210   -6.4767   -8.8630 O   0  0  0  0  0  0  0  0  0  0  0  0
   15.7509   -2.8129  -10.7339 C   0  0  0  0  0  0  0  0  0  0  0  0
   15.8071   -3.9304   -9.6941 C   0  0  2  0  0  0  0  0  0  0  0  0
   15.2352   -5.1540  -10.2417 N   0  0  0  0  0  0  0  0  0  0  0  0
   15.0663   -3.5388   -8.4822 C   0  0  0  0  0  0  0  0  0  0  0  0
   15.5118   -2.6138   -7.7240 O   0  0  0  0  0  0  0  0  0  0  0  0
   13.8790   -4.1502   -8.1279 O   0  0  0  0  0  0  0  0  0  0  0  0
  2  1  1  6
  3  2  1  0
  3  4  1  0
  4  5  2  0
  6  2  1  0
  6  7  2  0
  8  4  1  0
 10  9  1  6
 10 12  1  0
 10 11  1  0
 13 12  1  1
 13 14  1  0
 14  6  1  0
 15 13  1  0
 16 15  2  0
 18 19  1  0
 18 17  1  6
 19 15  1  0
 20 18  1  0
 21 20  2  0
 22 20  1  0
M  END
$$$$
