DLA.pdb
     RDKit          3D

 22 21  0  0  1  0  0  0  0  0999 V2000
   26.2667  -17.6462  -19.0353 N   0  0  0  0  0  0  0  0  0  0  0  0
   25.4095  -17.3162  -17.9256 C   0  0  1  0  0  0  0  0  0  0  0  0
   24.1235  -16.7234  -18.4805 C   0  0  0  0  0  0  0  0  0  0  0  0
   24.4311  -15.3466  -18.9295 C   0  0  0  0  0  0  0  0  0  0  0  0
   23.7509  -14.7823  -19.8150 O   0  0  0  0  0  0  0  0  0  0  0  0
   25.1496  -18.5231  -17.1226 C   0  0  0  0  0  0  0  0  0  0  0  0
   24.8186  -19.5843  -17.7087 O   0  0  0  0  0  0  0  0  0  0  0  0
   25.4946  -14.6770  -18.3528 O   0  0  0  0  0  0  0  0  0  0  0  0
   28.4274  -20.0619  -13.1807 C   0  0  0  0  0  0  0  0  0  0  0  0
   27.4223  -20.0752  -14.3041 C   0  0  1  0  0  0  0  0  0  0  0  0
   27.4314  -21.5019  -14.8694 C   0  0  0  0  0  0  0  0  0  0  0  0
   26.0302  -19.8046  -13.8565 C   0  0  0  0  0  0  0  0  0  0  0  0
   24.9982  -19.8062  -14.9536 C   0  0  2  0  0  0  0  0  0  0  0  0
   25.2474  -18.5736  -15.7179 N   0  0  0  0  0  0  0  0  0  0  0  0
   23.6318  -19.7224  -14.3798 C   0  0  0  0  0  0  0  0  0  0  0  0
   23.3902  -18.8969  -13.4569 O   0  0  0  0  0  0  0  0  0  0  0  0
   20.1492  -20.7055  -15.2695 C   0  0  0  0  0  0  0  0  0  0  0  0
   21.2296  -20.4507  -14.2203 C   0  0  2  0  0  0  0  0  0  0  0  0
   22.5509  -20.5460  -14.8280 N   0  0  0  0  0  0  0  0  0  0  0  0
   21.1188  -21.4291  -13.1242 C   0  0  0  0  0  0  0  0  0  0  0  0
   21.8740  -22.4576  -13.0984 O   0  0  0  0  0  0  0  0  0  0  0  0
   20.2062  -21.2703  -12.0992 O   0  0  0  0  0  0  0  0  0  0  0  0
  2  1  1  6
  3  2  1  0
  3  4  1  0
  4  5  2  0
  6  2  1  0
  6  7  2  0
  8  4  1  0
 10  9  1  1
 10 12  1  0
 10 11  1  0
 13 12  1  1
 13 14  1  0
 14  6  1  0
 15 13  1  0
 16 15  2  0
 18 19  1  0
 18 17  1  6
 19 15  1  0
 20 18  1  0
 21 20  2  0
 22 20  1  0
M  END
$$$$
