DLA.pdb
     RDKit          3D

 22 21  0  0  1  0  0  0  0  0999 V2000
   17.5089  -11.7547  -17.8782 N   0  0  0  0  0  0  0  0  0  0  0  0
   18.1925  -10.5137  -18.1386 C   0  0  1  0  0  0  0  0  0  0  0  0
   17.1679   -9.5025  -18.6295 C   0  0  0  0  0  0  0  0  0  0  0  0
   16.7604   -9.9144  -19.9918 C   0  0  0  0  0  0  0  0  0  0  0  0
   17.5535  -10.5034  -20.7596 O   0  0  0  0  0  0  0  0  0  0  0  0
   18.8681  -10.0523  -16.9140 C   0  0  0  0  0  0  0  0  0  0  0  0
   18.2692  -10.1533  -15.8138 O   0  0  0  0  0  0  0  0  0  0  0  0
   15.4741   -9.6383  -20.4173 O   0  0  0  0  0  0  0  0  0  0  0  0
   22.3772   -9.8830  -13.0779 C   0  0  0  0  0  0  0  0  0  0  0  0
   22.9691   -9.5121  -14.4138 C   0  0  1  0  0  0  0  0  0  0  0  0
   24.2392  -10.3593  -14.5689 C   0  0  0  0  0  0  0  0  0  0  0  0
   22.0903   -9.8496  -15.5651 C   0  0  0  0  0  0  0  0  0  0  0  0
   20.8088   -9.0616  -15.6389 C   0  0  2  0  0  0  0  0  0  0  0  0
   20.1620   -9.4952  -16.8876 N   0  0  0  0  0  0  0  0  0  0  0  0
   21.0988   -7.6102  -15.7519 C   0  0  0  0  0  0  0  0  0  0  0  0
   21.8337   -7.1899  -16.6872 O   0  0  0  0  0  0  0  0  0  0  0  0
   19.6450   -4.4069  -14.4838 C   0  0  0  0  0  0  0  0  0  0  0  0
   20.8195   -5.2176  -15.0284 C   0  0  2  0  0  0  0  0  0  0  0  0
   20.5773   -6.6419  -14.8365 N   0  0  0  0  0  0  0  0  0  0  0  0
   22.0669   -4.8327  -14.3453 C   0  0  0  0  0  0  0  0  0  0  0  0
   22.4080   -5.4021  -13.2552 O   0  0  0  0  0  0  0  0  0  0  0  0
   22.9007   -3.8551  -14.8532 O   0  0  0  0  0  0  0  0  0  0  0  0
  2  1  1  1
  3  2  1  0
  3  4  1  0
  4  5  2  0
  6  2  1  0
  6  7  2  0
  8  4  1  0
 10  9  1  1
 10 12  1  0
 10 11  1  0
 13 12  1  6
 13 14  1  0
 14  6  1  0
 15 13  1  0
 16 15  2  0
 18 19  1  0
 18 17  1  1
 19 15  1  0
 20 18  1  0
 21 20  2  0
 22 20  1  0
M  END
$$$$
