DLA.pdb
     RDKit          3D

 22 21  0  0  1  0  0  0  0  0999 V2000
   20.2109  -20.2428  -13.0631 N   0  0  0  0  0  0  0  0  0  0  0  0
   21.1904  -20.9959  -13.8039 C   0  0  1  0  0  0  0  0  0  0  0  0
   20.7870  -20.9839  -15.2703 C   0  0  0  0  0  0  0  0  0  0  0  0
   19.6596  -21.9308  -15.4247 C   0  0  0  0  0  0  0  0  0  0  0  0
   19.1326  -22.4844  -14.4341 O   0  0  0  0  0  0  0  0  0  0  0  0
   22.5255  -20.4078  -13.6026 C   0  0  0  0  0  0  0  0  0  0  0  0
   22.6725  -19.1681  -13.7477 O   0  0  0  0  0  0  0  0  0  0  0  0
   19.1847  -22.2041  -16.6943 O   0  0  0  0  0  0  0  0  0  0  0  0
   25.4566  -21.4772   -9.3306 C   0  0  0  0  0  0  0  0  0  0  0  0
   24.8634  -20.8105  -10.5455 C   0  0  1  0  0  0  0  0  0  0  0  0
   25.0730  -19.3027  -10.3512 C   0  0  0  0  0  0  0  0  0  0  0  0
   25.5483  -21.1744  -11.8144 C   0  0  0  0  0  0  0  0  0  0  0  0
   24.9863  -20.5215  -13.0499 C   0  0  2  0  0  0  0  0  0  0  0  0
   23.6710  -21.1497  -13.2525 N   0  0  0  0  0  0  0  0  0  0  0  0
   25.8306  -20.8331  -14.2304 C   0  0  0  0  0  0  0  0  0  0  0  0
   25.7906  -21.9857  -14.7417 O   0  0  0  0  0  0  0  0  0  0  0  0
   28.3426  -19.0131  -16.4347 C   0  0  0  0  0  0  0  0  0  0  0  0
   27.4852  -20.2066  -16.0181 C   0  0  2  0  0  0  0  0  0  0  0  0
   26.7061  -19.8744  -14.8320 N   0  0  0  0  0  0  0  0  0  0  0  0
   28.3375  -21.3752  -15.7373 C   0  0  0  0  0  0  0  0  0  0  0  0
   28.8534  -22.0428  -16.6950 O   0  0  0  0  0  0  0  0  0  0  0  0
   28.6053  -21.7846  -14.4453 O   0  0  0  0  0  0  0  0  0  0  0  0
  2  1  1  1
  3  2  1  0
  3  4  1  0
  4  5  2  0
  6  2  1  0
  6  7  2  0
  8  4  1  0
 10  9  1  1
 10 12  1  0
 10 11  1  0
 13 12  1  1
 13 14  1  0
 14  6  1  0
 15 13  1  0
 16 15  2  0
 18 19  1  0
 18 17  1  1
 19 15  1  0
 20 18  1  0
 21 20  2  0
 22 20  1  0
M  END
$$$$
