WWR.pdb
     RDKit          3D

 40 43  0  0  1  0  0  0  0  0999 V2000
   26.4060  -24.0255  -14.8762 N   0  0  0  0  0  0  0  0  0  0  0  0
   25.2206  -23.2084  -14.6915 C   0  0  1  0  0  0  0  0  0  0  0  0
   23.9446  -23.7953  -15.0905 C   0  0  0  0  0  0  0  0  0  0  0  0
   23.5806  -23.8461  -16.5038 C   0  0  0  0  0  0  0  0  0  0  0  0
   23.8020  -25.0262  -17.2482 C   0  0  0  0  0  0  0  0  0  0  0  0
   23.3884  -24.8329  -18.5015 N   0  0  0  0  0  0  0  0  0  0  0  0
   22.9101  -23.5849  -18.6036 C   0  0  0  0  0  0  0  0  0  0  0  0
   22.3722  -22.8898  -19.6686 C   0  0  0  0  0  0  0  0  0  0  0  0
   21.9546  -21.5901  -19.4970 C   0  0  0  0  0  0  0  0  0  0  0  0
   22.0578  -20.9559  -18.2824 C   0  0  0  0  0  0  0  0  0  0  0  0
   22.5937  -21.6420  -17.2125 C   0  0  0  0  0  0  0  0  0  0  0  0
   23.0156  -22.9396  -17.3681 C   0  0  0  0  0  0  0  0  0  0  0  0
   25.2166  -22.9456  -13.1971 C   0  0  0  0  0  0  0  0  0  0  0  0
   25.2860  -23.9307  -12.4032 O   0  0  0  0  0  0  0  0  0  0  0  0
   25.1307  -21.6147  -12.7554 N   0  0  0  0  0  0  0  0  0  0  0  0
   25.1820  -21.3542  -11.3089 C   0  0  1  0  0  0  0  0  0  0  0  0
   26.0738  -20.1863  -11.0677 C   0  0  0  0  0  0  0  0  0  0  0  0
   27.2819  -20.5794  -10.3406 C   0  0  0  0  0  0  0  0  0  0  0  0
   28.3823  -21.2925  -10.8239 C   0  0  0  0  0  0  0  0  0  0  0  0
   29.2774  -21.4316   -9.8396 N   0  0  0  0  0  0  0  0  0  0  0  0
   28.8134  -20.8322   -8.7049 C   0  0  0  0  0  0  0  0  0  0  0  0
   29.3371  -20.6868   -7.4385 C   0  0  0  0  0  0  0  0  0  0  0  0
   28.6116  -20.0035   -6.4683 C   0  0  0  0  0  0  0  0  0  0  0  0
   27.3753  -19.4918   -6.8220 C   0  0  0  0  0  0  0  0  0  0  0  0
   26.8299  -19.6232   -8.0811 C   0  0  0  0  0  0  0  0  0  0  0  0
   27.5874  -20.3140   -9.0256 C   0  0  0  0  0  0  0  0  0  0  0  0
   23.7603  -21.0330  -10.9108 C   0  0  0  0  0  0  0  0  0  0  0  0
   22.9969  -20.4397  -11.6958 O   0  0  0  0  0  0  0  0  0  0  0  0
   17.9599  -24.7598   -8.5342 N   0  0  0  0  0  0  0  0  0  0  0  0
   17.5677  -24.0415   -7.3777 C   0  0  0  0  0  0  0  0  0  0  0  0
   16.3787  -24.0643   -6.9717 N   0  0  0  0  0  0  0  0  0  0  0  0
   18.5252  -23.2715   -6.6517 N   0  0  0  0  0  0  0  0  0  0  0  0
   19.9112  -23.1528   -6.9917 C   0  0  0  0  0  0  0  0  0  0  0  0
   20.2939  -21.7360   -7.3737 C   0  0  0  0  0  0  0  0  0  0  0  0
   21.7302  -21.7505   -7.8336 C   0  0  0  0  0  0  0  0  0  0  0  0
   21.8526  -21.2883   -9.2781 C   0  0  2  0  0  0  0  0  0  0  0  0
   23.2721  -21.4078   -9.6270 N   0  0  0  0  0  0  0  0  0  0  0  0
   21.4274  -19.8881   -9.3916 C   0  0  0  0  0  0  0  0  0  0  0  0
   22.3482  -18.8729   -9.3755 O   0  0  0  0  0  0  0  0  0  0  0  0
   20.2093  -19.6297   -9.4978 O   0  0  0  0  0  0  0  0  0  0  0  0
  2  3  1  0
  2  1  1  1
  4  5  2  0
  4  3  1  0
  6  5  1  0
  7 12  2  0
  7  6  1  0
  8  7  1  0
  9 10  1  0
  9  8  2  0
 10 11  2  0
 11 12  1  0
 12  4  1  0
 13  2  1  0
 14 13  2  0
 15 13  1  0
 16 15  1  0
 16 17  1  6
 17 18  1  0
 18 26  1  0
 18 19  2  0
 19 20  1  0
 21 22  2  0
 21 20  1  0
 23 22  1  0
 24 23  2  0
 25 24  1  0
 25 26  2  0
 26 21  1  0
 27 28  2  0
 27 16  1  0
 30 32  1  0
 30 29  1  0
 31 30  2  0
 33 32  1  0
 34 35  1  0
 34 33  1  0
 36 35  1  1
 36 38  1  0
 36 37  1  0
 37 27  1  0
 38 39  1  0
 40 38  2  0
M  END
$$$$
