WWR.pdb
     RDKit          3D

 40 43  0  0  1  0  0  0  0  0999 V2000
   27.5559  -21.9450  -12.9078 N   0  0  0  0  0  0  0  0  0  0  0  0
   26.7785  -20.7934  -12.4880 C   0  0  1  0  0  0  0  0  0  0  0  0
   25.7299  -20.3373  -13.3960 C   0  0  0  0  0  0  0  0  0  0  0  0
   26.0852  -19.5681  -14.5854 C   0  0  0  0  0  0  0  0  0  0  0  0
   25.8423  -20.1022  -15.8704 C   0  0  0  0  0  0  0  0  0  0  0  0
   26.2427  -19.2220  -16.7892 N   0  0  0  0  0  0  0  0  0  0  0  0
   26.7326  -18.1444  -16.1604 C   0  0  0  0  0  0  0  0  0  0  0  0
   27.2732  -16.9669  -16.6379 C   0  0  0  0  0  0  0  0  0  0  0  0
   27.7134  -16.0081  -15.7548 C   0  0  0  0  0  0  0  0  0  0  0  0
   27.6295  -16.1896  -14.3953 C   0  0  0  0  0  0  0  0  0  0  0  0
   27.0910  -17.3625  -13.9087 C   0  0  0  0  0  0  0  0  0  0  0  0
   26.6478  -18.3293  -14.7775 C   0  0  0  0  0  0  0  0  0  0  0  0
   26.1579  -21.2575  -11.1835 C   0  0  0  0  0  0  0  0  0  0  0  0
   26.1276  -22.4984  -10.9286 O   0  0  0  0  0  0  0  0  0  0  0  0
   25.6364  -20.2869  -10.3119 N   0  0  0  0  0  0  0  0  0  0  0  0
   25.0455  -20.7342   -9.0416 C   0  0  1  0  0  0  0  0  0  0  0  0
   25.1391  -19.6217   -8.0562 C   0  0  0  0  0  0  0  0  0  0  0  0
   26.5076  -19.4613   -7.5620 C   0  0  0  0  0  0  0  0  0  0  0  0
   27.5581  -18.7550   -8.1541 C   0  0  0  0  0  0  0  0  0  0  0  0
   28.6401  -18.8479   -7.3730 N   0  0  0  0  0  0  0  0  0  0  0  0
   28.3505  -19.5967   -6.2696 C   0  0  0  0  0  0  0  0  0  0  0  0
   29.0943  -19.9832   -5.1757 C   0  0  0  0  0  0  0  0  0  0  0  0
   28.5066  -20.7628   -4.1849 C   0  0  0  0  0  0  0  0  0  0  0  0
   27.1797  -21.1229   -4.3435 C   0  0  0  0  0  0  0  0  0  0  0  0
   26.4146  -20.7489   -5.4272 C   0  0  0  0  0  0  0  0  0  0  0  0
   27.0390  -19.9678   -6.3984 C   0  0  0  0  0  0  0  0  0  0  0  0
   23.6019  -21.0458   -9.3611 C   0  0  0  0  0  0  0  0  0  0  0  0
   23.1057  -20.7173  -10.4551 O   0  0  0  0  0  0  0  0  0  0  0  0
   18.4092  -25.2984   -3.8576 N   0  0  0  0  0  0  0  0  0  0  0  0
   18.6381  -25.8815   -5.1284 C   0  0  0  0  0  0  0  0  0  0  0  0
   18.5714  -27.1255   -5.2931 N   0  0  0  0  0  0  0  0  0  0  0  0
   18.9541  -25.0576   -6.2501 N   0  0  0  0  0  0  0  0  0  0  0  0
   18.8999  -23.6266   -6.2587 C   0  0  0  0  0  0  0  0  0  0  0  0
   19.3771  -23.0376   -7.5722 C   0  0  0  0  0  0  0  0  0  0  0  0
   20.8163  -22.6214   -7.3994 C   0  0  0  0  0  0  0  0  0  0  0  0
   21.3768  -22.0244   -8.6817 C   0  0  2  0  0  0  0  0  0  0  0  0
   22.7866  -21.7238   -8.4112 N   0  0  0  0  0  0  0  0  0  0  0  0
   20.6581  -20.7882   -9.0122 C   0  0  0  0  0  0  0  0  0  0  0  0
   19.4361  -20.8324   -9.6316 O   0  0  0  0  0  0  0  0  0  0  0  0
   21.1779  -19.6882   -8.7265 O   0  0  0  0  0  0  0  0  0  0  0  0
  2  3  1  0
  2  1  1  6
  4  5  2  0
  4  3  1  0
  6  5  1  0
  7 12  2  0
  7  6  1  0
  8  7  1  0
  9 10  1  0
  9  8  2  0
 10 11  2  0
 11 12  1  0
 12  4  1  0
 13  2  1  0
 14 13  2  0
 15 13  1  0
 16 15  1  0
 16 17  1  1
 17 18  1  0
 18 26  1  0
 18 19  2  0
 19 20  1  0
 21 22  2  0
 21 20  1  0
 23 22  1  0
 24 23  2  0
 25 24  1  0
 25 26  2  0
 26 21  1  0
 27 28  2  0
 27 16  1  0
 30 32  1  0
 30 29  1  0
 31 30  2  0
 33 32  1  0
 34 35  1  0
 34 33  1  0
 36 35  1  1
 36 38  1  0
 36 37  1  0
 37 27  1  0
 38 39  1  0
 40 38  2  0
M  END
$$$$
