WWR.pdb
     RDKit          3D

 40 43  0  0  1  0  0  0  0  0999 V2000
   27.8758  -21.6636  -15.3619 N   0  0  0  0  0  0  0  0  0  0  0  0
   27.4597  -20.5152  -14.5778 C   0  0  1  0  0  0  0  0  0  0  0  0
   26.7065  -19.4767  -15.2752 C   0  0  0  0  0  0  0  0  0  0  0  0
   27.3248  -18.7528  -16.3825 C   0  0  0  0  0  0  0  0  0  0  0  0
   26.6209  -18.5821  -17.5953 C   0  0  0  0  0  0  0  0  0  0  0  0
   27.3821  -17.8915  -18.4456 N   0  0  0  0  0  0  0  0  0  0  0  0
   28.5442  -17.6072  -17.8412 C   0  0  0  0  0  0  0  0  0  0  0  0
   29.6649  -16.9272  -18.2750 C   0  0  0  0  0  0  0  0  0  0  0  0
   30.7446  -16.7805  -17.4349 C   0  0  0  0  0  0  0  0  0  0  0  0
   30.7404  -17.2965  -16.1614 C   0  0  0  0  0  0  0  0  0  0  0  0
   29.6255  -17.9776  -15.7190 C   0  0  0  0  0  0  0  0  0  0  0  0
   28.5401  -18.1328  -16.5459 C   0  0  0  0  0  0  0  0  0  0  0  0
   26.5937  -21.1353  -13.4971 C   0  0  0  0  0  0  0  0  0  0  0  0
   25.9723  -22.2094  -13.7534 O   0  0  0  0  0  0  0  0  0  0  0  0
   26.5138  -20.4860  -12.2538 N   0  0  0  0  0  0  0  0  0  0  0  0
   25.5496  -20.9891  -11.2639 C   0  0  1  0  0  0  0  0  0  0  0  0
   25.8078  -20.3127   -9.9627 C   0  0  0  0  0  0  0  0  0  0  0  0
   27.1539  -20.6055   -9.4677 C   0  0  0  0  0  0  0  0  0  0  0  0
   28.1834  -21.2835  -10.1262 C   0  0  0  0  0  0  0  0  0  0  0  0
   29.2563  -21.3265   -9.3286 N   0  0  0  0  0  0  0  0  0  0  0  0
   28.9815  -20.6962   -8.1499 C   0  0  0  0  0  0  0  0  0  0  0  0
   29.7271  -20.4607   -7.0151 C   0  0  0  0  0  0  0  0  0  0  0  0
   29.1597  -19.7685   -5.9504 C   0  0  0  0  0  0  0  0  0  0  0  0
   27.8498  -19.3403   -6.0785 C   0  0  0  0  0  0  0  0  0  0  0  0
   27.0836  -19.5626   -7.2024 C   0  0  0  0  0  0  0  0  0  0  0  0
   27.6878  -20.2593   -8.2478 C   0  0  0  0  0  0  0  0  0  0  0  0
   24.1899  -20.6104  -11.8032 C   0  0  0  0  0  0  0  0  0  0  0  0
   24.0350  -19.5682  -12.4671 O   0  0  0  0  0  0  0  0  0  0  0  0
   19.6111  -26.5152  -15.5973 N   0  0  0  0  0  0  0  0  0  0  0  0
   19.5171  -26.2001  -14.2192 C   0  0  0  0  0  0  0  0  0  0  0  0
   19.2236  -27.0796  -13.3710 N   0  0  0  0  0  0  0  0  0  0  0  0
   19.7531  -24.8663  -13.7698 N   0  0  0  0  0  0  0  0  0  0  0  0
   20.1241  -23.7696  -14.6127 C   0  0  0  0  0  0  0  0  0  0  0  0
   20.2714  -22.4718  -13.8422 C   0  0  0  0  0  0  0  0  0  0  0  0
   21.5754  -22.5254  -13.0864 C   0  0  0  0  0  0  0  0  0  0  0  0
   21.7964  -21.2576  -12.2748 C   0  0  2  0  0  0  0  0  0  0  0  0
   23.0629  -21.4452  -11.5592 N   0  0  0  0  0  0  0  0  0  0  0  0
   20.7014  -21.0839  -11.3130 C   0  0  0  0  0  0  0  0  0  0  0  0
   19.4744  -20.6308  -11.7226 O   0  0  0  0  0  0  0  0  0  0  0  0
   20.9029  -21.3494  -10.1085 O   0  0  0  0  0  0  0  0  0  0  0  0
  2  3  1  0
  2  1  1  6
  4  5  2  0
  4  3  1  0
  6  5  1  0
  7 12  2  0
  7  6  1  0
  8  7  1  0
  9 10  1  0
  9  8  2  0
 10 11  2  0
 11 12  1  0
 12  4  1  0
 13  2  1  0
 14 13  2  0
 15 13  1  0
 16 15  1  0
 16 17  1  1
 17 18  1  0
 18 26  1  0
 18 19  2  0
 19 20  1  0
 21 22  2  0
 21 20  1  0
 23 22  1  0
 24 23  2  0
 25 24  1  0
 25 26  2  0
 26 21  1  0
 27 28  2  0
 27 16  1  0
 30 32  1  0
 30 29  1  0
 31 30  2  0
 33 32  1  0
 34 35  1  0
 34 33  1  0
 36 35  1  1
 36 38  1  0
 36 37  1  0
 37 27  1  0
 38 39  1  0
 40 38  2  0
M  END
$$$$
