WWR.pdb
     RDKit          3D

 40 43  0  0  1  0  0  0  0  0999 V2000
   26.9161  -21.2757   -9.1169 N   0  0  0  0  0  0  0  0  0  0  0  0
   26.0184  -20.2807   -8.5592 C   0  0  1  0  0  0  0  0  0  0  0  0
   26.6119  -19.0113   -8.1486 C   0  0  0  0  0  0  0  0  0  0  0  0
   27.4953  -18.9664   -6.9868 C   0  0  0  0  0  0  0  0  0  0  0  0
   28.4595  -17.9403   -6.8720 C   0  0  0  0  0  0  0  0  0  0  0  0
   29.1367  -18.1062   -5.7348 N   0  0  0  0  0  0  0  0  0  0  0  0
   28.6570  -19.1899   -5.1086 C   0  0  0  0  0  0  0  0  0  0  0  0
   29.0052  -19.7933   -3.9164 C   0  0  0  0  0  0  0  0  0  0  0  0
   28.3394  -20.9235   -3.5011 C   0  0  0  0  0  0  0  0  0  0  0  0
   27.3258  -21.4759   -4.2465 C   0  0  0  0  0  0  0  0  0  0  0  0
   26.9708  -20.8804   -5.4390 C   0  0  0  0  0  0  0  0  0  0  0  0
   27.6263  -19.7521   -5.8672 C   0  0  0  0  0  0  0  0  0  0  0  0
   25.0309  -20.0418   -9.6861 C   0  0  0  0  0  0  0  0  0  0  0  0
   24.5155  -18.8913   -9.8134 O   0  0  0  0  0  0  0  0  0  0  0  0
   24.7250  -21.1134  -10.5416 N   0  0  0  0  0  0  0  0  0  0  0  0
   23.9820  -20.8295  -11.7786 C   0  0  1  0  0  0  0  0  0  0  0  0
   24.6643  -21.5150  -12.9108 C   0  0  0  0  0  0  0  0  0  0  0  0
   25.5536  -20.6009  -13.6292 C   0  0  0  0  0  0  0  0  0  0  0  0
   25.2007  -19.5366  -14.4634 C   0  0  0  0  0  0  0  0  0  0  0  0
   26.3145  -18.9472  -14.9121 N   0  0  0  0  0  0  0  0  0  0  0  0
   27.4102  -19.5826  -14.4046 C   0  0  0  0  0  0  0  0  0  0  0  0
   28.7653  -19.3754  -14.5464 C   0  0  0  0  0  0  0  0  0  0  0  0
   29.6616  -20.2072  -13.8834 C   0  0  0  0  0  0  0  0  0  0  0  0
   29.1456  -21.2234  -13.0982 C   0  0  0  0  0  0  0  0  0  0  0  0
   27.7955  -21.4510  -12.9396 C   0  0  0  0  0  0  0  0  0  0  0  0
   26.9294  -20.5962  -13.6198 C   0  0  0  0  0  0  0  0  0  0  0  0
   22.6031  -21.4061  -11.5568 C   0  0  0  0  0  0  0  0  0  0  0  0
   22.4205  -22.3248  -10.7360 O   0  0  0  0  0  0  0  0  0  0  0  0
   20.6749  -20.8890  -17.0264 N   0  0  0  0  0  0  0  0  0  0  0  0
   19.4077  -21.3598  -17.4506 C   0  0  0  0  0  0  0  0  0  0  0  0
   19.2716  -21.9586  -18.5470 N   0  0  0  0  0  0  0  0  0  0  0  0
   18.2556  -21.1562  -16.6333 N   0  0  0  0  0  0  0  0  0  0  0  0
   18.2760  -20.6250  -15.3035 C   0  0  0  0  0  0  0  0  0  0  0  0
   19.2840  -21.3280  -14.4151 C   0  0  0  0  0  0  0  0  0  0  0  0
   19.2369  -20.6789  -13.0546 C   0  0  0  0  0  0  0  0  0  0  0  0
   20.1303  -21.4089  -12.0627 C   0  0  2  0  0  0  0  0  0  0  0  0
   21.4887  -20.9030  -12.2861 N   0  0  0  0  0  0  0  0  0  0  0  0
   20.0873  -22.8530  -12.3214 C   0  0  0  0  0  0  0  0  0  0  0  0
   19.2891  -23.6759  -11.5702 O   0  0  0  0  0  0  0  0  0  0  0  0
   20.7949  -23.3278  -13.2357 O   0  0  0  0  0  0  0  0  0  0  0  0
  2  3  1  0
  2  1  1  6
  4  5  2  0
  4  3  1  0
  6  5  1  0
  7 12  2  0
  7  6  1  0
  8  7  1  0
  9 10  1  0
  9  8  2  0
 10 11  2  0
 11 12  1  0
 12  4  1  0
 13  2  1  0
 14 13  2  0
 15 13  1  0
 16 15  1  0
 16 17  1  6
 17 18  1  0
 18 26  1  0
 18 19  2  0
 19 20  1  0
 21 22  2  0
 21 20  1  0
 23 22  1  0
 24 23  2  0
 25 24  1  0
 25 26  2  0
 26 21  1  0
 27 28  2  0
 27 16  1  0
 30 32  1  0
 30 29  1  0
 31 30  2  0
 33 32  1  0
 34 35  1  0
 34 33  1  0
 36 35  1  6
 36 38  1  0
 36 37  1  0
 37 27  1  0
 38 39  1  0
 40 38  2  0
M  END
$$$$
