WWR.pdb
     RDKit          3D

 40 43  0  0  1  0  0  0  0  0999 V2000
   22.4085  -20.8778   -4.6471 N   0  0  0  0  0  0  0  0  0  0  0  0
   23.1712  -20.8100   -3.4140 C   0  0  1  0  0  0  0  0  0  0  0  0
   24.1706  -19.7503   -3.3125 C   0  0  0  0  0  0  0  0  0  0  0  0
   25.3066  -19.7351   -4.2299 C   0  0  0  0  0  0  0  0  0  0  0  0
   25.1283  -20.1066   -5.5811 C   0  0  0  0  0  0  0  0  0  0  0  0
   26.2974  -20.0095   -6.2160 N   0  0  0  0  0  0  0  0  0  0  0  0
   27.2232  -19.5931   -5.3406 C   0  0  0  0  0  0  0  0  0  0  0  0
   28.5733  -19.3397   -5.4800 C   0  0  0  0  0  0  0  0  0  0  0  0
   29.3063  -18.9175   -4.3947 C   0  0  0  0  0  0  0  0  0  0  0  0
   28.7272  -18.7380   -3.1616 C   0  0  0  0  0  0  0  0  0  0  0  0
   27.3790  -18.9887   -3.0124 C   0  0  0  0  0  0  0  0  0  0  0  0
   26.6342  -19.4111   -4.0860 C   0  0  0  0  0  0  0  0  0  0  0  0
   22.0991  -20.6034   -2.3604 C   0  0  0  0  0  0  0  0  0  0  0  0
   21.1584  -19.7882   -2.5974 O   0  0  0  0  0  0  0  0  0  0  0  0
   22.1986  -21.3248   -1.1590 N   0  0  0  0  0  0  0  0  0  0  0  0
   21.0541  -21.3050   -0.2356 C   0  0  1  0  0  0  0  0  0  0  0  0
   20.9456  -22.6399    0.4153 C   0  0  0  0  0  0  0  0  0  0  0  0
   19.8072  -22.6939    1.3340 C   0  0  0  0  0  0  0  0  0  0  0  0
   18.8284  -21.7197    1.5480 C   0  0  0  0  0  0  0  0  0  0  0  0
   17.9603  -22.1681    2.4617 N   0  0  0  0  0  0  0  0  0  0  0  0
   18.3244  -23.4178    2.8709 C   0  0  0  0  0  0  0  0  0  0  0  0
   17.7796  -24.3064    3.7725 C   0  0  0  0  0  0  0  0  0  0  0  0
   18.3904  -25.5390    3.9784 C   0  0  0  0  0  0  0  0  0  0  0  0
   19.5373  -25.8239    3.2581 C   0  0  0  0  0  0  0  0  0  0  0  0
   20.1013  -24.9531    2.3506 C   0  0  0  0  0  0  0  0  0  0  0  0
   19.4600  -23.7283    2.1720 C   0  0  0  0  0  0  0  0  0  0  0  0
   21.3819  -20.2383    0.7830 C   0  0  0  0  0  0  0  0  0  0  0  0
   22.5613  -20.0132    1.1137 O   0  0  0  0  0  0  0  0  0  0  0  0
   17.5634  -12.4700    2.4514 N   0  0  0  0  0  0  0  0  0  0  0  0
   18.6191  -12.5981    3.3875 C   0  0  0  0  0  0  0  0  0  0  0  0
   18.9696  -11.6293    4.1070 N   0  0  0  0  0  0  0  0  0  0  0  0
   19.3090  -13.8397    3.5263 N   0  0  0  0  0  0  0  0  0  0  0  0
   19.1955  -14.9470    2.6254 C   0  0  0  0  0  0  0  0  0  0  0  0
   20.0405  -16.1309    3.0546 C   0  0  0  0  0  0  0  0  0  0  0  0
   19.8851  -17.2137    2.0163 C   0  0  0  0  0  0  0  0  0  0  0  0
   20.6172  -18.4826    2.4272 C   0  0  2  0  0  0  0  0  0  0  0  0
   20.3413  -19.4716    1.3799 N   0  0  0  0  0  0  0  0  0  0  0  0
   20.1002  -18.9622    3.7144 C   0  0  0  0  0  0  0  0  0  0  0  0
   20.5107  -18.3911    4.8909 O   0  0  0  0  0  0  0  0  0  0  0  0
   19.2814  -19.9063    3.7266 O   0  0  0  0  0  0  0  0  0  0  0  0
  2  3  1  0
  2  1  1  6
  4  5  2  0
  4  3  1  0
  6  5  1  0
  7 12  2  0
  7  6  1  0
  8  7  1  0
  9 10  1  0
  9  8  2  0
 10 11  2  0
 11 12  1  0
 12  4  1  0
 13  2  1  0
 14 13  2  0
 15 13  1  0
 16 15  1  0
 16 17  1  1
 17 18  1  0
 18 26  1  0
 18 19  2  0
 19 20  1  0
 21 22  2  0
 21 20  1  0
 23 22  1  0
 24 23  2  0
 25 24  1  0
 25 26  2  0
 26 21  1  0
 27 28  2  0
 27 16  1  0
 30 32  1  0
 30 29  1  0
 31 30  2  0
 33 32  1  0
 34 35  1  0
 34 33  1  0
 36 35  1  6
 36 38  1  0
 36 37  1  0
 37 27  1  0
 38 39  1  0
 40 38  2  0
M  END
$$$$
