WWR.pdb
     RDKit          3D

 40 43  0  0  1  0  0  0  0  0999 V2000
   27.7026  -18.1293  -18.6368 N   0  0  0  0  0  0  0  0  0  0  0  0
   26.2612  -18.2555  -18.5215 C   0  0  1  0  0  0  0  0  0  0  0  0
   25.5497  -18.7881  -19.6799 C   0  0  0  0  0  0  0  0  0  0  0  0
   25.0410  -17.8760  -20.7005 C   0  0  0  0  0  0  0  0  0  0  0  0
   25.7408  -17.7166  -21.9173 C   0  0  0  0  0  0  0  0  0  0  0  0
   25.0853  -16.8437  -22.6840 N   0  0  0  0  0  0  0  0  0  0  0  0
   23.9955  -16.4310  -22.0218 C   0  0  0  0  0  0  0  0  0  0  0  0
   22.9963  -15.5397  -22.3592 C   0  0  0  0  0  0  0  0  0  0  0  0
   21.9741  -15.2895  -21.4728 C   0  0  0  0  0  0  0  0  0  0  0  0
   21.9172  -15.9082  -20.2472 C   0  0  0  0  0  0  0  0  0  0  0  0
   22.9108  -16.8001  -19.9011 C   0  0  0  0  0  0  0  0  0  0  0  0
   23.9380  -17.0599  -20.7748 C   0  0  0  0  0  0  0  0  0  0  0  0
   26.0941  -19.1961  -17.3428 C   0  0  0  0  0  0  0  0  0  0  0  0
   26.8974  -20.1681  -17.2179 O   0  0  0  0  0  0  0  0  0  0  0  0
   25.0473  -18.9508  -16.4384 N   0  0  0  0  0  0  0  0  0  0  0  0
   24.9414  -19.8035  -15.2448 C   0  0  1  0  0  0  0  0  0  0  0  0
   25.2460  -18.9786  -14.0430 C   0  0  0  0  0  0  0  0  0  0  0  0
   26.3799  -19.5245  -13.2954 C   0  0  0  0  0  0  0  0  0  0  0  0
   27.7262  -19.5459  -13.6698 C   0  0  0  0  0  0  0  0  0  0  0  0
   28.4393  -20.1251  -12.6975 N   0  0  0  0  0  0  0  0  0  0  0  0
   27.6134  -20.4952  -11.6764 C   0  0  0  0  0  0  0  0  0  0  0  0
   27.8372  -21.1114  -10.4642 C   0  0  0  0  0  0  0  0  0  0  0  0
   26.7673  -21.3596   -9.6107 C   0  0  0  0  0  0  0  0  0  0  0  0
   25.5043  -20.9718  -10.0227 C   0  0  0  0  0  0  0  0  0  0  0  0
   25.2544  -20.3537  -11.2291 C   0  0  0  0  0  0  0  0  0  0  0  0
   26.3522  -20.1219  -12.0563 C   0  0  0  0  0  0  0  0  0  0  0  0
   23.5068  -20.2770  -15.2190 C   0  0  0  0  0  0  0  0  0  0  0  0
   22.5853  -19.5417  -15.6204 O   0  0  0  0  0  0  0  0  0  0  0  0
   25.7108  -27.1210  -15.6267 N   0  0  0  0  0  0  0  0  0  0  0  0
   24.4389  -26.9246  -16.2192 C   0  0  0  0  0  0  0  0  0  0  0  0
   23.9329  -27.7936  -16.9729 N   0  0  0  0  0  0  0  0  0  0  0  0
   23.7080  -25.7246  -15.9695 N   0  0  0  0  0  0  0  0  0  0  0  0
   23.9183  -24.8525  -14.8531 C   0  0  0  0  0  0  0  0  0  0  0  0
   22.6169  -24.3970  -14.2217 C   0  0  0  0  0  0  0  0  0  0  0  0
   21.8952  -23.5273  -15.2203 C   0  0  0  0  0  0  0  0  0  0  0  0
   21.8129  -22.0859  -14.7402 C   0  0  2  0  0  0  0  0  0  0  0  0
   23.1886  -21.5773  -14.7344 N   0  0  0  0  0  0  0  0  0  0  0  0
   21.2600  -22.0435  -13.3813 C   0  0  0  0  0  0  0  0  0  0  0  0
   22.0590  -21.7430  -12.3089 O   0  0  0  0  0  0  0  0  0  0  0  0
   20.0470  -22.2916  -13.2109 O   0  0  0  0  0  0  0  0  0  0  0  0
  2  3  1  0
  2  1  1  6
  4  5  2  0
  4  3  1  0
  6  5  1  0
  7 12  2  0
  7  6  1  0
  8  7  1  0
  9 10  1  0
  9  8  2  0
 10 11  2  0
 11 12  1  0
 12  4  1  0
 13  2  1  0
 14 13  2  0
 15 13  1  0
 16 15  1  0
 16 17  1  1
 17 18  1  0
 18 26  1  0
 18 19  2  0
 19 20  1  0
 21 22  2  0
 21 20  1  0
 23 22  1  0
 24 23  2  0
 25 24  1  0
 25 26  2  0
 26 21  1  0
 27 28  2  0
 27 16  1  0
 30 32  1  0
 30 29  1  0
 31 30  2  0
 33 32  1  0
 34 35  1  0
 34 33  1  0
 36 35  1  1
 36 38  1  0
 36 37  1  0
 37 27  1  0
 38 39  1  0
 40 38  2  0
M  END
$$$$
