RKE.pdb
     RDKit          3D

 30 29  0  0  1  0  0  0  0  0999 V2000
   28.7843  -25.9891  -16.2138 N   0  0  0  0  0  0  0  0  0  0  0  0
   28.2457  -27.0887  -16.9631 C   0  0  0  0  0  0  0  0  0  0  0  0
   28.7804  -28.2399  -16.8476 N   0  0  0  0  0  0  0  0  0  0  0  0
   27.1412  -26.9178  -17.8203 N   0  0  0  0  0  0  0  0  0  0  0  0
   26.2575  -25.7491  -17.6452 C   0  0  0  0  0  0  0  0  0  0  0  0
   25.8404  -25.7430  -16.2141 C   0  0  0  0  0  0  0  0  0  0  0  0
   24.3857  -25.8264  -15.9965 C   0  0  0  0  0  0  0  0  0  0  0  0
   23.9312  -27.0704  -15.3410 C   0  0  2  0  0  0  0  0  0  0  0  0
   24.1606  -28.2189  -16.1589 N   0  0  0  0  0  0  0  0  0  0  0  0
   22.4661  -26.9831  -14.9728 C   0  0  0  0  0  0  0  0  0  0  0  0
   21.6018  -27.5095  -15.7438 O   0  0  0  0  0  0  0  0  0  0  0  0
   28.5209  -29.0675  -17.4046 N   0  0  0  0  0  0  0  0  0  0  0  0
   22.1409  -26.3156  -13.7831 C   0  0  1  0  0  0  0  0  0  0  0  0
   20.7492  -26.2540  -13.3402 C   0  0  0  0  0  0  0  0  0  0  0  0
   20.6495  -26.7344  -11.9341 C   0  0  0  0  0  0  0  0  0  0  0  0
   20.2048  -28.1424  -11.8087 C   0  0  0  0  0  0  0  0  0  0  0  0
   21.0542  -28.9063  -10.8013 C   0  0  0  0  0  0  0  0  0  0  0  0
   20.6227  -30.3354  -10.6209 N   0  0  0  0  0  0  0  0  0  0  0  0
   21.5784  -30.9750   -9.6952 C   0  0  0  0  0  0  0  0  0  0  0  0
   20.2033  -24.9087  -13.4993 O   0  0  0  0  0  0  0  0  0  0  0  0
   20.8776  -23.8976  -13.2538 N   0  0  0  0  0  0  0  0  0  0  0  0
   18.8629  -24.6553  -13.9458 C   0  0  2  0  0  0  0  0  0  0  0  0
   18.3364  -23.3039  -14.0894 C   0  0  0  0  0  0  0  0  0  0  0  0
   17.0976  -23.4491  -14.9478 C   0  0  0  0  0  0  0  0  0  0  0  0
   16.3388  -22.1893  -15.1693 C   0  0  0  0  0  0  0  0  0  0  0  0
   15.0784  -22.3219  -15.8939 O   0  0  0  0  0  0  0  0  0  0  0  0
   13.9876  -22.2085  -15.3014 C   0  0  0  0  0  0  0  0  0  0  0  0
   17.9885  -22.7435  -12.7617 O   0  0  0  0  0  0  0  0  0  0  0  0
   17.6862  -23.5380  -11.8368 O   0  0  0  0  0  0  0  0  0  0  0  0
   15.0748  -22.5753  -17.2487 O   0  0  0  0  0  0  0  0  0  0  0  0
  2  1  1  0
  2  4  1  0
  3  2  2  0
  5  4  1  0
  6  5  1  0
  7  6  1  0
  8  7  1  0
  8  9  1  6
 10  8  1  0
 10 11  2  0
 12 10  1  0
 13 12  1  0
 13 14  1  6
 15 14  1  0
 16 15  1  0
 17 16  1  0
 18 17  1  0
 19 13  1  0
 20 19  2  0
 21 19  1  0
 22 23  1  1
 22 21  1  0
 23 24  1  0
 24 25  1  0
 25 26  2  0
 25 29  1  0
 27 22  1  0
 28 27  2  0
 30 27  1  0
M  END
$$$$
