RKE.pdb
     RDKit          3D

 30 29  0  0  1  0  0  0  0  0999 V2000
   22.3477  -16.4266  -17.4355 N   0  0  0  0  0  0  0  0  0  0  0  0
   20.9229  -16.5430  -17.3054 C   0  0  0  0  0  0  0  0  0  0  0  0
   20.3799  -17.6897  -17.4272 N   0  0  0  0  0  0  0  0  0  0  0  0
   20.1180  -15.4164  -17.0469 N   0  0  0  0  0  0  0  0  0  0  0  0
   20.5032  -14.1038  -17.6002 C   0  0  0  0  0  0  0  0  0  0  0  0
   20.9435  -13.2694  -16.4461 C   0  0  0  0  0  0  0  0  0  0  0  0
   19.9730  -12.2455  -16.0211 C   0  0  0  0  0  0  0  0  0  0  0  0
   20.1862  -10.9100  -16.6167 C   0  0  2  0  0  0  0  0  0  0  0  0
   20.5224  -10.9913  -18.0027 N   0  0  0  0  0  0  0  0  0  0  0  0
   21.2598  -10.1498  -15.8688 C   0  0  0  0  0  0  0  0  0  0  0  0
   21.0930   -9.8982  -14.6329 O   0  0  0  0  0  0  0  0  0  0  0  0
   19.3655  -17.8678  -17.3835 N   0  0  0  0  0  0  0  0  0  0  0  0
   22.3953   -9.7604  -16.5939 C   0  0  1  0  0  0  0  0  0  0  0  0
   23.4501   -8.9909  -15.9365 C   0  0  0  0  0  0  0  0  0  0  0  0
   24.7761   -9.3882  -16.4857 C   0  0  0  0  0  0  0  0  0  0  0  0
   25.2154  -10.7435  -16.0780 C   0  0  0  0  0  0  0  0  0  0  0  0
   26.4819  -11.1623  -16.8131 C   0  0  0  0  0  0  0  0  0  0  0  0
   26.9578  -12.5396  -16.4422 N   0  0  0  0  0  0  0  0  0  0  0  0
   28.1670  -12.8222  -17.2405 C   0  0  0  0  0  0  0  0  0  0  0  0
   23.2131   -7.5553  -16.0623 O   0  0  0  0  0  0  0  0  0  0  0  0
   23.2468   -6.9821  -17.1613 N   0  0  0  0  0  0  0  0  0  0  0  0
   22.9268   -6.7075  -14.9400 C   0  0  1  0  0  0  0  0  0  0  0  0
   22.4731   -5.3322  -15.1034 C   0  0  0  0  0  0  0  0  0  0  0  0
   21.1504   -5.4341  -15.8331 C   0  0  0  0  0  0  0  0  0  0  0  0
   20.4662   -4.1354  -16.0725 C   0  0  0  0  0  0  0  0  0  0  0  0
   19.1995   -4.2044  -16.7948 O   0  0  0  0  0  0  0  0  0  0  0  0
   18.1521   -4.5484  -16.2131 C   0  0  0  0  0  0  0  0  0  0  0  0
   22.2906   -4.6899  -13.7798 O   0  0  0  0  0  0  0  0  0  0  0  0
   22.1645   -3.4410  -13.7324 O   0  0  0  0  0  0  0  0  0  0  0  0
   19.1415   -3.8892  -18.1353 O   0  0  0  0  0  0  0  0  0  0  0  0
  2  1  1  0
  2  4  1  0
  3  2  2  0
  5  4  1  0
  6  5  1  0
  7  6  1  0
  8  7  1  0
  8  9  1  6
 10  8  1  0
 10 11  2  0
 12 10  1  0
 13 12  1  0
 13 14  1  1
 15 14  1  0
 16 15  1  0
 17 16  1  0
 18 17  1  0
 19 13  1  0
 20 19  2  0
 21 19  1  0
 22 23  1  6
 22 21  1  0
 23 24  1  0
 24 25  1  0
 25 26  2  0
 25 29  1  0
 27 22  1  0
 28 27  2  0
 30 27  1  0
M  END
$$$$
