RKE.pdb
     RDKit          3D

 30 29  0  0  1  0  0  0  0  0999 V2000
   27.4248  -18.4639   -4.3597 N   0  0  0  0  0  0  0  0  0  0  0  0
   28.2342  -19.6346   -4.5467 C   0  0  0  0  0  0  0  0  0  0  0  0
   28.6992  -20.2376   -3.5246 N   0  0  0  0  0  0  0  0  0  0  0  0
   28.5221  -20.1262   -5.8349 N   0  0  0  0  0  0  0  0  0  0  0  0
   27.9456  -19.4553   -7.0159 C   0  0  0  0  0  0  0  0  0  0  0  0
   27.7441  -20.5118   -8.0481 C   0  0  0  0  0  0  0  0  0  0  0  0
   27.3968  -20.0057   -9.3874 C   0  0  0  0  0  0  0  0  0  0  0  0
   27.2646  -21.0495  -10.4251 C   0  0  2  0  0  0  0  0  0  0  0  0
   28.4400  -21.1531  -11.2304 N   0  0  0  0  0  0  0  0  0  0  0  0
   26.0591  -20.7900  -11.3022 C   0  0  0  0  0  0  0  0  0  0  0  0
   25.8715  -19.6203  -11.7660 O   0  0  0  0  0  0  0  0  0  0  0  0
   29.2945  -21.0785   -3.5581 N   0  0  0  0  0  0  0  0  0  0  0  0
   25.2045  -21.8723  -11.5570 C   0  0  2  0  0  0  0  0  0  0  0  0
   24.2764  -21.8170  -12.6850 C   0  0  0  0  0  0  0  0  0  0  0  0
   24.2953  -23.1160  -13.4130 C   0  0  0  0  0  0  0  0  0  0  0  0
   23.3880  -23.1636  -14.5837 C   0  0  0  0  0  0  0  0  0  0  0  0
   23.4426  -24.5198  -15.2750 C   0  0  0  0  0  0  0  0  0  0  0  0
   22.6901  -24.5556  -16.5763 N   0  0  0  0  0  0  0  0  0  0  0  0
   22.9376  -25.8719  -17.1970 C   0  0  0  0  0  0  0  0  0  0  0  0
   22.9315  -21.4552  -12.2452 O   0  0  0  0  0  0  0  0  0  0  0  0
   22.4070  -21.9788  -11.2512 N   0  0  0  0  0  0  0  0  0  0  0  0
   22.1232  -20.4793  -12.9194 C   0  0  1  0  0  0  0  0  0  0  0  0
   20.8091  -20.0871  -12.4261 C   0  0  0  0  0  0  0  0  0  0  0  0
   20.3848  -18.9283  -13.3033 C   0  0  0  0  0  0  0  0  0  0  0  0
   18.9997  -18.4402  -13.0687 C   0  0  0  0  0  0  0  0  0  0  0  0
   18.5340  -17.3851  -13.9635 O   0  0  0  0  0  0  0  0  0  0  0  0
   19.2727  -16.9410  -14.8641 C   0  0  0  0  0  0  0  0  0  0  0  0
   19.8545  -21.2142  -12.5528 O   0  0  0  0  0  0  0  0  0  0  0  0
   20.0066  -22.0243  -13.5008 O   0  0  0  0  0  0  0  0  0  0  0  0
   17.2663  -16.8616  -13.8264 O   0  0  0  0  0  0  0  0  0  0  0  0
  2  1  1  0
  2  4  1  0
  3  2  2  0
  5  4  1  0
  6  5  1  0
  7  6  1  0
  8  7  1  0
  8  9  1  6
 10  8  1  0
 10 11  2  0
 12 10  1  0
 13 12  1  0
 13 14  1  6
 15 14  1  0
 16 15  1  0
 17 16  1  0
 18 17  1  0
 19 13  1  0
 20 19  2  0
 21 19  1  0
 22 23  1  6
 22 21  1  0
 23 24  1  0
 24 25  1  0
 25 26  2  0
 25 29  1  0
 27 22  1  0
 28 27  2  0
 30 27  1  0
M  END
$$$$
