RKE.pdb
     RDKit          3D

 30 29  0  0  1  0  0  0  0  0999 V2000
   24.7919  -20.0845  -12.3000 N   0  0  0  0  0  0  0  0  0  0  0  0
   25.9690  -20.8544  -12.0132 C   0  0  0  0  0  0  0  0  0  0  0  0
   26.7254  -20.4972  -11.0515 N   0  0  0  0  0  0  0  0  0  0  0  0
   26.3011  -21.9928  -12.7732 N   0  0  0  0  0  0  0  0  0  0  0  0
   25.6779  -22.1926  -14.0957 C   0  0  0  0  0  0  0  0  0  0  0  0
   26.3197  -21.2144  -15.0195 C   0  0  0  0  0  0  0  0  0  0  0  0
   25.5220  -20.8789  -16.2118 C   0  0  0  0  0  0  0  0  0  0  0  0
   24.5418  -19.7915  -16.0110 C   0  0  2  0  0  0  0  0  0  0  0  0
   25.0807  -18.7251  -15.2279 N   0  0  0  0  0  0  0  0  0  0  0  0
   23.2767  -20.3162  -15.3675 C   0  0  0  0  0  0  0  0  0  0  0  0
   22.6064  -21.2174  -15.9650 O   0  0  0  0  0  0  0  0  0  0  0  0
   27.6169  -20.9519  -10.8043 N   0  0  0  0  0  0  0  0  0  0  0  0
   22.9108  -19.7692  -14.1291 C   0  0  1  0  0  0  0  0  0  0  0  0
   21.7391  -20.2849  -13.4233 C   0  0  0  0  0  0  0  0  0  0  0  0
   21.8001  -19.8823  -11.9909 C   0  0  0  0  0  0  0  0  0  0  0  0
   21.1019  -20.8131  -11.0733 C   0  0  0  0  0  0  0  0  0  0  0  0
   21.2505  -20.3785   -9.6211 C   0  0  0  0  0  0  0  0  0  0  0  0
   20.6325  -21.3412   -8.6452 N   0  0  0  0  0  0  0  0  0  0  0  0
   19.1786  -21.3611   -8.9003 C   0  0  0  0  0  0  0  0  0  0  0  0
   20.5017  -19.8465  -14.0633 O   0  0  0  0  0  0  0  0  0  0  0  0
   20.3439  -18.6780  -14.4468 N   0  0  0  0  0  0  0  0  0  0  0  0
   19.3874  -20.7210  -14.2950 C   0  0  1  0  0  0  0  0  0  0  0  0
   18.1507  -20.2546  -14.9091 C   0  0  0  0  0  0  0  0  0  0  0  0
   17.7229  -21.3706  -15.8386 C   0  0  0  0  0  0  0  0  0  0  0  0
   16.5311  -21.0664  -16.6745 C   0  0  0  0  0  0  0  0  0  0  0  0
   16.0780  -22.1388  -17.5553 O   0  0  0  0  0  0  0  0  0  0  0  0
   15.1416  -21.9526  -18.3567 C   0  0  0  0  0  0  0  0  0  0  0  0
   17.1193  -20.0155  -13.8716 O   0  0  0  0  0  0  0  0  0  0  0  0
   17.1165  -20.7465  -12.8500 O   0  0  0  0  0  0  0  0  0  0  0  0
   16.6804  -23.3779  -17.5145 O   0  0  0  0  0  0  0  0  0  0  0  0
  2  1  1  0
  2  4  1  0
  3  2  2  0
  5  4  1  0
  6  5  1  0
  7  6  1  0
  8  7  1  0
  8  9  1  1
 10  8  1  0
 10 11  2  0
 12 10  1  0
 13 12  1  0
 13 14  1  6
 15 14  1  0
 16 15  1  0
 17 16  1  0
 18 17  1  0
 19 13  1  0
 20 19  2  0
 21 19  1  0
 22 23  1  1
 22 21  1  0
 23 24  1  0
 24 25  1  0
 25 26  2  0
 25 29  1  0
 27 22  1  0
 28 27  2  0
 30 27  1  0
M  END
$$$$
