RKE.pdb
     RDKit          3D

 30 29  0  0  1  0  0  0  0  0999 V2000
   23.0325  -33.1170   -9.6456 N   0  0  0  0  0  0  0  0  0  0  0  0
   23.6584  -32.2667  -10.6181 C   0  0  0  0  0  0  0  0  0  0  0  0
   24.9104  -32.3807  -10.8284 N   0  0  0  0  0  0  0  0  0  0  0  0
   22.9160  -31.3126  -11.3408 N   0  0  0  0  0  0  0  0  0  0  0  0
   21.4767  -31.1460  -11.0613 C   0  0  0  0  0  0  0  0  0  0  0  0
   20.8015  -31.0024  -12.3826 C   0  0  0  0  0  0  0  0  0  0  0  0
   19.7895  -29.9335  -12.4438 C   0  0  0  0  0  0  0  0  0  0  0  0
   20.2452  -28.6907  -13.1006 C   0  0  2  0  0  0  0  0  0  0  0  0
   21.4992  -28.8657  -13.7622 N   0  0  0  0  0  0  0  0  0  0  0  0
   20.3415  -27.5565  -12.1035 C   0  0  0  0  0  0  0  0  0  0  0  0
   21.4841  -27.0690  -11.8292 O   0  0  0  0  0  0  0  0  0  0  0  0
   25.4548  -31.7883  -11.4728 N   0  0  0  0  0  0  0  0  0  0  0  0
   19.1453  -27.1012  -11.5303 C   0  0  1  0  0  0  0  0  0  0  0  0
   19.1316  -25.8526  -10.7702 C   0  0  0  0  0  0  0  0  0  0  0  0
   18.8448  -24.7129  -11.6848 C   0  0  0  0  0  0  0  0  0  0  0  0
   18.7269  -23.4048  -10.9986 C   0  0  0  0  0  0  0  0  0  0  0  0
   18.5268  -22.2701  -11.9947 C   0  0  0  0  0  0  0  0  0  0  0  0
   18.3207  -20.9322  -11.3399 N   0  0  0  0  0  0  0  0  0  0  0  0
   18.0571  -19.9495  -12.4096 C   0  0  0  0  0  0  0  0  0  0  0  0
   18.1815  -25.9187   -9.6629 O   0  0  0  0  0  0  0  0  0  0  0  0
   16.9705  -26.1055   -9.8524 N   0  0  0  0  0  0  0  0  0  0  0  0
   18.5695  -25.7746   -8.2886 C   0  0  1  0  0  0  0  0  0  0  0  0
   17.6026  -25.8356   -7.1998 C   0  0  0  0  0  0  0  0  0  0  0  0
   18.4314  -25.8609   -5.9330 C   0  0  0  0  0  0  0  0  0  0  0  0
   17.6467  -25.9639   -4.6738 C   0  0  0  0  0  0  0  0  0  0  0  0
   18.4248  -26.0655   -3.4428 O   0  0  0  0  0  0  0  0  0  0  0  0
   19.6694  -26.0019   -3.4684 C   0  0  0  0  0  0  0  0  0  0  0  0
   16.7238  -24.6419   -7.2247 O   0  0  0  0  0  0  0  0  0  0  0  0
   15.4953  -24.7981   -7.0141 O   0  0  0  0  0  0  0  0  0  0  0  0
   17.7934  -26.2338   -2.2292 O   0  0  0  0  0  0  0  0  0  0  0  0
  2  1  1  0
  2  4  1  0
  3  2  2  0
  5  4  1  0
  6  5  1  0
  7  6  1  0
  8  7  1  0
  8  9  1  1
 10  8  1  0
 10 11  2  0
 12 10  1  0
 13 12  1  0
 13 14  1  1
 15 14  1  0
 16 15  1  0
 17 16  1  0
 18 17  1  0
 19 13  1  0
 20 19  2  0
 21 19  1  0
 22 23  1  1
 22 21  1  0
 23 24  1  0
 24 25  1  0
 25 26  2  0
 25 29  1  0
 27 22  1  0
 28 27  2  0
 30 27  1  0
M  END
$$$$
