RKE.pdb
     RDKit          3D

 30 29  0  0  1  0  0  0  0  0999 V2000
   27.3415  -16.4122  -17.7606 N   0  0  0  0  0  0  0  0  0  0  0  0
   28.7320  -16.7592  -17.6784 C   0  0  0  0  0  0  0  0  0  0  0  0
   29.5599  -16.1967  -18.4676 N   0  0  0  0  0  0  0  0  0  0  0  0
   29.1951  -17.7066  -16.7448 N   0  0  0  0  0  0  0  0  0  0  0  0
   28.2276  -18.4129  -15.8831 C   0  0  0  0  0  0  0  0  0  0  0  0
   27.5328  -19.4063  -16.7506 C   0  0  0  0  0  0  0  0  0  0  0  0
   26.5577  -20.2600  -16.0499 C   0  0  0  0  0  0  0  0  0  0  0  0
   27.1477  -21.1823  -15.0575 C   0  0  2  0  0  0  0  0  0  0  0  0
   27.5846  -22.4030  -15.6572 N   0  0  0  0  0  0  0  0  0  0  0  0
   26.1670  -21.4767  -13.9433 C   0  0  0  0  0  0  0  0  0  0  0  0
   25.3665  -22.4576  -14.0666 O   0  0  0  0  0  0  0  0  0  0  0  0
   30.5706  -16.3968  -18.4999 N   0  0  0  0  0  0  0  0  0  0  0  0
   26.1983  -20.6366  -12.8207 C   0  0  2  0  0  0  0  0  0  0  0  0
   25.1964  -20.7916  -11.7676 C   0  0  0  0  0  0  0  0  0  0  0  0
   25.6943  -20.1727  -10.5080 C   0  0  0  0  0  0  0  0  0  0  0  0
   26.6925  -20.9960   -9.7857 C   0  0  0  0  0  0  0  0  0  0  0  0
   27.1197  -20.3353   -8.4815 C   0  0  0  0  0  0  0  0  0  0  0  0
   28.1914  -21.0965   -7.7514 N   0  0  0  0  0  0  0  0  0  0  0  0
   28.5082  -20.3473   -6.5195 C   0  0  0  0  0  0  0  0  0  0  0  0
   23.9087  -20.2382  -12.1781 O   0  0  0  0  0  0  0  0  0  0  0  0
   23.8299  -19.2100  -12.8665 N   0  0  0  0  0  0  0  0  0  0  0  0
   22.6516  -20.8324  -11.8219 C   0  0  1  0  0  0  0  0  0  0  0  0
   21.4386  -20.6024  -12.5963 C   0  0  0  0  0  0  0  0  0  0  0  0
   21.7379  -21.1496  -13.9759 C   0  0  0  0  0  0  0  0  0  0  0  0
   20.6072  -21.0718  -14.9388 C   0  0  0  0  0  0  0  0  0  0  0  0
   20.9086  -20.4611  -16.2300 O   0  0  0  0  0  0  0  0  0  0  0  0
   22.0667  -20.0914  -16.5054 C   0  0  0  0  0  0  0  0  0  0  0  0
   20.2947  -21.3218  -11.9865 O   0  0  0  0  0  0  0  0  0  0  0  0
   19.2246  -20.6924  -11.7952 O   0  0  0  0  0  0  0  0  0  0  0  0
   19.9142  -20.2832  -17.1678 O   0  0  0  0  0  0  0  0  0  0  0  0
  2  1  1  0
  2  4  1  0
  3  2  2  0
  5  4  1  0
  6  5  1  0
  7  6  1  0
  8  7  1  0
  8  9  1  6
 10  8  1  0
 10 11  2  0
 12 10  1  0
 13 12  1  0
 13 14  1  6
 15 14  1  0
 16 15  1  0
 17 16  1  0
 18 17  1  0
 19 13  1  0
 20 19  2  0
 21 19  1  0
 22 23  1  1
 22 21  1  0
 23 24  1  0
 24 25  1  0
 25 26  2  0
 25 29  1  0
 27 22  1  0
 28 27  2  0
 30 27  1  0
M  END
$$$$
