RKE.pdb
     RDKit          3D

 30 29  0  0  1  0  0  0  0  0999 V2000
   22.3641  -14.3919  -20.6480 N   0  0  0  0  0  0  0  0  0  0  0  0
   21.9600  -15.3573  -19.6654 C   0  0  0  0  0  0  0  0  0  0  0  0
   20.8680  -15.1794  -19.0327 N   0  0  0  0  0  0  0  0  0  0  0  0
   22.7465  -16.4928  -19.3896 N   0  0  0  0  0  0  0  0  0  0  0  0
   23.9712  -16.7385  -20.1752 C   0  0  0  0  0  0  0  0  0  0  0  0
   23.9211  -18.1653  -20.6042 C   0  0  0  0  0  0  0  0  0  0  0  0
   23.5893  -19.1193  -19.5316 C   0  0  0  0  0  0  0  0  0  0  0  0
   24.5221  -19.1064  -18.3856 C   0  0  2  0  0  0  0  0  0  0  0  0
   25.8306  -19.5424  -18.7578 N   0  0  0  0  0  0  0  0  0  0  0  0
   23.9968  -19.9597  -17.2516 C   0  0  0  0  0  0  0  0  0  0  0  0
   23.2857  -20.9792  -17.5224 O   0  0  0  0  0  0  0  0  0  0  0  0
   20.5022  -15.8083  -18.3024 N   0  0  0  0  0  0  0  0  0  0  0  0
   24.3301  -19.5701  -15.9462 C   0  0  2  0  0  0  0  0  0  0  0  0
   23.8424  -20.3470  -14.8080 C   0  0  0  0  0  0  0  0  0  0  0  0
   24.6878  -20.0701  -13.6138 C   0  0  0  0  0  0  0  0  0  0  0  0
   24.2854  -20.8237  -12.4030 C   0  0  0  0  0  0  0  0  0  0  0  0
   25.2174  -20.5358  -11.2332 C   0  0  0  0  0  0  0  0  0  0  0  0
   24.8156  -21.2369   -9.9652 N   0  0  0  0  0  0  0  0  0  0  0  0
   25.7907  -20.8626   -8.9219 C   0  0  0  0  0  0  0  0  0  0  0  0
   22.4295  -20.0796  -14.5526 O   0  0  0  0  0  0  0  0  0  0  0  0
   21.9783  -18.9250  -14.5257 N   0  0  0  0  0  0  0  0  0  0  0  0
   21.4664  -21.1173  -14.3161 C   0  0  1  0  0  0  0  0  0  0  0  0
   20.0626  -20.8266  -14.0534 C   0  0  0  0  0  0  0  0  0  0  0  0
   19.3064  -22.0436  -14.5428 C   0  0  0  0  0  0  0  0  0  0  0  0
   17.8251  -21.9276  -14.4778 C   0  0  0  0  0  0  0  0  0  0  0  0
   17.0729  -23.1024  -14.9081 O   0  0  0  0  0  0  0  0  0  0  0  0
   15.8294  -23.0690  -14.9880 C   0  0  0  0  0  0  0  0  0  0  0  0
   19.8420  -20.6242  -12.6015 O   0  0  0  0  0  0  0  0  0  0  0  0
   18.7566  -20.1155  -12.2258 O   0  0  0  0  0  0  0  0  0  0  0  0
   17.7279  -24.2706  -15.2338 O   0  0  0  0  0  0  0  0  0  0  0  0
  2  1  1  0
  2  4  1  0
  3  2  2  0
  5  4  1  0
  6  5  1  0
  7  6  1  0
  8  7  1  0
  8  9  1  6
 10  8  1  0
 10 11  2  0
 12 10  1  0
 13 12  1  0
 13 14  1  6
 15 14  1  0
 16 15  1  0
 17 16  1  0
 18 17  1  0
 19 13  1  0
 20 19  2  0
 21 19  1  0
 22 23  1  1
 22 21  1  0
 23 24  1  0
 24 25  1  0
 25 26  2  0
 25 29  1  0
 27 22  1  0
 28 27  2  0
 30 27  1  0
M  END
$$$$
