WSP.pdb
     RDKit          3D

 28 30  0  0  1  0  0  0  0  0999 V2000
   24.6587  -20.8992   -8.7503 N   0  0  0  0  0  0  0  0  0  0  0  0
   25.8088  -20.4768   -9.5178 C   0  0  1  0  0  0  0  0  0  0  0  0
   27.0949  -20.8610   -8.7795 C   0  0  0  0  0  0  0  0  0  0  0  0
   26.9178  -20.6226   -7.3249 C   0  0  0  0  0  0  0  0  0  0  0  0
   25.7491  -20.7211   -6.5621 C   0  0  0  0  0  0  0  0  0  0  0  0
   26.1116  -20.4061   -5.3110 N   0  0  0  0  0  0  0  0  0  0  0  0
   27.4350  -20.1185   -5.2534 C   0  0  0  0  0  0  0  0  0  0  0  0
   28.2837  -19.7438   -4.2184 C   0  0  0  0  0  0  0  0  0  0  0  0
   29.6291  -19.5106   -4.4663 C   0  0  0  0  0  0  0  0  0  0  0  0
   30.1623  -19.6385   -5.7176 C   0  0  0  0  0  0  0  0  0  0  0  0
   29.3111  -20.0108   -6.7379 C   0  0  0  0  0  0  0  0  0  0  0  0
   27.9713  -20.2463   -6.5084 C   0  0  0  0  0  0  0  0  0  0  0  0
   25.7549  -21.1581  -10.8348 C   0  0  0  0  0  0  0  0  0  0  0  0
   25.8790  -22.4286  -10.9102 O   0  0  0  0  0  0  0  0  0  0  0  0
   23.7816  -19.7060  -13.7754 O   0  0  0  0  0  0  0  0  0  0  0  0
   24.0631  -21.0625  -13.7655 C   0  0  0  0  0  0  0  0  0  0  0  0
   25.5253  -21.2094  -13.3255 C   0  0  2  0  0  0  0  0  0  0  0  0
   25.5687  -20.4699  -12.0539 N   0  0  0  0  0  0  0  0  0  0  0  0
   26.4600  -20.5330  -14.2512 C   0  0  0  0  0  0  0  0  0  0  0  0
   26.4443  -19.2411  -14.2157 O   0  0  0  0  0  0  0  0  0  0  0  0
   27.3459  -21.1869  -15.1468 N   0  0  0  0  0  0  0  0  0  0  0  0
   27.4802  -22.6261  -15.2452 C   0  0  0  0  0  0  0  0  0  0  0  0
   27.8953  -22.7897  -16.6910 C   0  0  0  0  0  0  0  0  0  0  0  0
   28.9914  -21.7172  -16.7597 C   0  0  0  0  0  0  0  0  0  0  0  0
   28.2266  -20.5587  -16.0933 C   0  0  1  0  0  0  0  0  0  0  0  0
   27.4680  -19.9292  -17.2325 C   0  0  0  0  0  0  0  0  0  0  0  0
   26.2409  -20.1437  -17.4296 O   0  0  0  0  0  0  0  0  0  0  0  0
   28.1412  -19.0937  -18.0826 O   0  0  0  0  0  0  0  0  0  0  0  0
  2  1  1  1
  2  3  1  0
  3  4  1  0
  4  5  2  0
  5  6  1  0
  7  6  1  0
  8  7  2  0
  9  8  1  0
 10 11  1  0
 10  9  2  0
 11 12  2  0
 12  4  1  0
 12  7  1  0
 13  2  1  0
 13 18  1  0
 14 13  2  0
 15 16  1  0
 17 16  1  6
 17 18  1  0
 19 17  1  0
 20 19  2  0
 21 19  1  0
 21 22  1  0
 23 22  1  0
 24 23  1  0
 24 25  1  0
 25 21  1  0
 25 26  1  6
 27 26  2  0
 28 26  1  0
M  END
$$$$
