WSP.pdb
     RDKit          3D

 28 30  0  0  1  0  0  0  0  0999 V2000
   25.4383  -19.6298   -8.9545 N   0  0  0  0  0  0  0  0  0  0  0  0
   26.6838  -20.3137   -9.2213 C   0  0  1  0  0  0  0  0  0  0  0  0
   26.9728  -21.3203   -8.1032 C   0  0  0  0  0  0  0  0  0  0  0  0
   27.0621  -20.6036   -6.8062 C   0  0  0  0  0  0  0  0  0  0  0  0
   26.0229  -20.1040   -6.0138 C   0  0  0  0  0  0  0  0  0  0  0  0
   26.6201  -19.5441   -4.9529 N   0  0  0  0  0  0  0  0  0  0  0  0
   27.9672  -19.6671   -5.0408 C   0  0  0  0  0  0  0  0  0  0  0  0
   29.0153  -19.2669   -4.2203 C   0  0  0  0  0  0  0  0  0  0  0  0
   30.3280  -19.5397   -4.5788 C   0  0  0  0  0  0  0  0  0  0  0  0
   30.6352  -20.2018   -5.7337 C   0  0  0  0  0  0  0  0  0  0  0  0
   29.5872  -20.5945   -6.5410 C   0  0  0  0  0  0  0  0  0  0  0  0
   28.2768  -20.3312   -6.1993 C   0  0  0  0  0  0  0  0  0  0  0  0
   26.5488  -21.0196  -10.5194 C   0  0  0  0  0  0  0  0  0  0  0  0
   27.4915  -21.7701  -10.9474 O   0  0  0  0  0  0  0  0  0  0  0  0
   23.1887  -20.7612  -12.8862 O   0  0  0  0  0  0  0  0  0  0  0  0
   23.9903  -21.8893  -12.9514 C   0  0  0  0  0  0  0  0  0  0  0  0
   25.4336  -21.4224  -12.7223 C   0  0  2  0  0  0  0  0  0  0  0  0
   25.4058  -20.9127  -11.3421 N   0  0  0  0  0  0  0  0  0  0  0  0
   25.8005  -20.2863  -13.5956 C   0  0  0  0  0  0  0  0  0  0  0  0
   25.1359  -19.1950  -13.4013 O   0  0  0  0  0  0  0  0  0  0  0  0
   26.8028  -20.3129  -14.6002 N   0  0  0  0  0  0  0  0  0  0  0  0
   27.6438  -21.4606  -14.8736 C   0  0  0  0  0  0  0  0  0  0  0  0
   27.9392  -21.2712  -16.3454 C   0  0  0  0  0  0  0  0  0  0  0  0
   28.3196  -19.7840  -16.3351 C   0  0  0  0  0  0  0  0  0  0  0  0
   27.1400  -19.2470  -15.5036 C   0  0  1  0  0  0  0  0  0  0  0  0
   26.0581  -19.0156  -16.5262 C   0  0  0  0  0  0  0  0  0  0  0  0
   25.0976  -19.8167  -16.6891 O   0  0  0  0  0  0  0  0  0  0  0  0
   26.1252  -17.8920  -17.3050 O   0  0  0  0  0  0  0  0  0  0  0  0
  2  1  1  1
  2  3  1  0
  3  4  1  0
  4  5  2  0
  5  6  1  0
  7  6  1  0
  8  7  2  0
  9  8  1  0
 10 11  1  0
 10  9  2  0
 11 12  2  0
 12  4  1  0
 12  7  1  0
 13  2  1  0
 13 18  1  0
 14 13  2  0
 15 16  1  0
 17 16  1  6
 17 18  1  0
 19 17  1  0
 20 19  2  0
 21 19  1  0
 21 22  1  0
 23 22  1  0
 24 23  1  0
 24 25  1  0
 25 21  1  0
 25 26  1  6
 27 26  2  0
 28 26  1  0
M  END
$$$$
