WSP.pdb
     RDKit          3D

 28 30  0  0  1  0  0  0  0  0999 V2000
   24.9806  -19.2719   -9.2782 N   0  0  0  0  0  0  0  0  0  0  0  0
   26.2810  -19.8783   -9.4556 C   0  0  1  0  0  0  0  0  0  0  0  0
   26.3287  -21.2258   -8.7286 C   0  0  0  0  0  0  0  0  0  0  0  0
   26.2898  -20.9961   -7.2624 C   0  0  0  0  0  0  0  0  0  0  0  0
   25.2483  -21.2612   -6.3666 C   0  0  0  0  0  0  0  0  0  0  0  0
   25.7030  -20.8762   -5.1663 N   0  0  0  0  0  0  0  0  0  0  0  0
   26.9639  -20.3887   -5.2651 C   0  0  0  0  0  0  0  0  0  0  0  0
   27.8609  -19.8735   -4.3367 C   0  0  0  0  0  0  0  0  0  0  0  0
   29.1158  -19.4408   -4.7417 C   0  0  0  0  0  0  0  0  0  0  0  0
   29.5111  -19.5038   -6.0480 C   0  0  0  0  0  0  0  0  0  0  0  0
   28.6129  -20.0168   -6.9614 C   0  0  0  0  0  0  0  0  0  0  0  0
   27.3618  -20.4512   -6.5753 C   0  0  0  0  0  0  0  0  0  0  0  0
   26.4985  -20.0765  -10.9100 C   0  0  0  0  0  0  0  0  0  0  0  0
   25.5411  -19.8914  -11.7372 O   0  0  0  0  0  0  0  0  0  0  0  0
   29.6396  -21.7107  -13.3633 O   0  0  0  0  0  0  0  0  0  0  0  0
   29.6187  -20.4136  -12.8768 C   0  0  0  0  0  0  0  0  0  0  0  0
   28.1454  -19.9950  -12.7914 C   0  0  2  0  0  0  0  0  0  0  0  0
   27.7385  -20.4701  -11.4593 N   0  0  0  0  0  0  0  0  0  0  0  0
   27.3030  -20.7039  -13.7793 C   0  0  0  0  0  0  0  0  0  0  0  0
   27.0765  -21.9512  -13.5275 O   0  0  0  0  0  0  0  0  0  0  0  0
   26.7432  -20.1242  -14.9477 N   0  0  0  0  0  0  0  0  0  0  0  0
   26.8821  -18.7266  -15.3036 C   0  0  0  0  0  0  0  0  0  0  0  0
   26.8031  -18.7929  -16.8131 C   0  0  0  0  0  0  0  0  0  0  0  0
   25.5753  -19.7027  -16.9598 C   0  0  0  0  0  0  0  0  0  0  0  0
   25.9776  -20.8012  -15.9585 C   0  0  1  0  0  0  0  0  0  0  0  0
   26.8310  -21.7352  -16.7765 C   0  0  0  0  0  0  0  0  0  0  0  0
   28.0890  -21.7549  -16.6888 O   0  0  0  0  0  0  0  0  0  0  0  0
   26.2122  -22.5924  -17.6458 O   0  0  0  0  0  0  0  0  0  0  0  0
  2  1  1  6
  2  3  1  0
  3  4  1  0
  4  5  2  0
  5  6  1  0
  7  6  1  0
  8  7  2  0
  9  8  1  0
 10 11  1  0
 10  9  2  0
 11 12  2  0
 12  4  1  0
 12  7  1  0
 13  2  1  0
 13 18  1  0
 14 13  2  0
 15 16  1  0
 17 16  1  6
 17 18  1  0
 19 17  1  0
 20 19  2  0
 21 19  1  0
 21 22  1  0
 23 22  1  0
 24 23  1  0
 24 25  1  0
 25 21  1  0
 25 26  1  6
 27 26  2  0
 28 26  1  0
M  END
$$$$
