WSP.pdb
     RDKit          3D

 28 30  0  0  1  0  0  0  0  0999 V2000
   20.7497  -20.0514  -14.2361 N   0  0  0  0  0  0  0  0  0  0  0  0
   21.4778  -19.7298  -15.4430 C   0  0  1  0  0  0  0  0  0  0  0  0
   21.2122  -18.2734  -15.8368 C   0  0  0  0  0  0  0  0  0  0  0  0
   20.1002  -18.2238  -16.8191 C   0  0  0  0  0  0  0  0  0  0  0  0
   18.7624  -17.8759  -16.6035 C   0  0  0  0  0  0  0  0  0  0  0  0
   18.1666  -17.9900  -17.7983 N   0  0  0  0  0  0  0  0  0  0  0  0
   19.0555  -18.3879  -18.7412 C   0  0  0  0  0  0  0  0  0  0  0  0
   18.9475  -18.6466  -20.1026 C   0  0  0  0  0  0  0  0  0  0  0  0
   20.0596  -19.0491  -20.8287 C   0  0  0  0  0  0  0  0  0  0  0  0
   21.2838  -19.2040  -20.2422 C   0  0  0  0  0  0  0  0  0  0  0  0
   21.3799  -18.9446  -18.8903 C   0  0  0  0  0  0  0  0  0  0  0  0
   20.2843  -18.5437  -18.1540 C   0  0  0  0  0  0  0  0  0  0  0  0
   22.9231  -19.9283  -15.1715 C   0  0  0  0  0  0  0  0  0  0  0  0
   23.4381  -19.5106  -14.0782 O   0  0  0  0  0  0  0  0  0  0  0  0
   26.9172  -22.2890  -15.7828 O   0  0  0  0  0  0  0  0  0  0  0  0
   25.5569  -22.1359  -15.9965 C   0  0  0  0  0  0  0  0  0  0  0  0
   25.2385  -20.6502  -15.7851 C   0  0  2  0  0  0  0  0  0  0  0  0
   23.7977  -20.5717  -16.0746 N   0  0  0  0  0  0  0  0  0  0  0  0
   25.9250  -19.7843  -16.7684 C   0  0  0  0  0  0  0  0  0  0  0  0
   25.4188  -19.7792  -17.9576 O   0  0  0  0  0  0  0  0  0  0  0  0
   27.0656  -18.9829  -16.5018 N   0  0  0  0  0  0  0  0  0  0  0  0
   27.6085  -18.7638  -15.1764 C   0  0  0  0  0  0  0  0  0  0  0  0
   29.0717  -18.5352  -15.4864 C   0  0  0  0  0  0  0  0  0  0  0  0
   28.9295  -17.5349  -16.6421 C   0  0  0  0  0  0  0  0  0  0  0  0
   27.8662  -18.2821  -17.4682 C   0  0  1  0  0  0  0  0  0  0  0  0
   28.6739  -19.2277  -18.3185 C   0  0  0  0  0  0  0  0  0  0  0  0
   29.2999  -18.8484  -19.3456 O   0  0  0  0  0  0  0  0  0  0  0  0
   28.7266  -20.5471  -17.9580 O   0  0  0  0  0  0  0  0  0  0  0  0
  2  1  1  1
  2  3  1  0
  3  4  1  0
  4  5  2  0
  5  6  1  0
  7  6  1  0
  8  7  2  0
  9  8  1  0
 10 11  1  0
 10  9  2  0
 11 12  2  0
 12  4  1  0
 12  7  1  0
 13  2  1  0
 13 18  1  0
 14 13  2  0
 15 16  1  0
 17 16  1  6
 17 18  1  0
 19 17  1  0
 20 19  2  0
 21 19  1  0
 21 22  1  0
 23 22  1  0
 24 23  1  0
 24 25  1  0
 25 21  1  0
 25 26  1  6
 27 26  2  0
 28 26  1  0
M  END
$$$$
