WSP.pdb
     RDKit          3D

 28 30  0  0  1  0  0  0  0  0999 V2000
   24.9372  -19.5975  -17.4567 N   0  0  0  0  0  0  0  0  0  0  0  0
   25.6146  -20.1946  -16.3277 C   0  0  1  0  0  0  0  0  0  0  0  0
   27.1182  -19.9157  -16.4179 C   0  0  0  0  0  0  0  0  0  0  0  0
   27.8401  -20.7932  -15.4625 C   0  0  0  0  0  0  0  0  0  0  0  0
   28.0082  -22.1813  -15.5110 C   0  0  0  0  0  0  0  0  0  0  0  0
   28.7279  -22.4922  -14.4242 N   0  0  0  0  0  0  0  0  0  0  0  0
   29.0157  -21.3795  -13.7055 C   0  0  0  0  0  0  0  0  0  0  0  0
   29.7185  -21.1635  -12.5260 C   0  0  0  0  0  0  0  0  0  0  0  0
   29.8526  -19.8795  -12.0165 C   0  0  0  0  0  0  0  0  0  0  0  0
   29.3073  -18.7960  -12.6453 C   0  0  0  0  0  0  0  0  0  0  0  0
   28.6116  -19.0217  -13.8154 C   0  0  0  0  0  0  0  0  0  0  0  0
   28.4691  -20.2916  -14.3352 C   0  0  0  0  0  0  0  0  0  0  0  0
   25.0586  -19.5931  -15.0905 C   0  0  0  0  0  0  0  0  0  0  0  0
   24.9250  -18.3251  -14.9925 O   0  0  0  0  0  0  0  0  0  0  0  0
   22.0270  -20.2548  -13.4791 O   0  0  0  0  0  0  0  0  0  0  0  0
   22.8031  -19.1558  -13.1482 C   0  0  0  0  0  0  0  0  0  0  0  0
   24.1840  -19.6914  -12.7486 C   0  0  2  0  0  0  0  0  0  0  0  0
   24.6527  -20.3574  -13.9744 N   0  0  0  0  0  0  0  0  0  0  0  0
   24.1002  -20.7290  -11.6977 C   0  0  0  0  0  0  0  0  0  0  0  0
   23.5997  -21.8613  -12.0693 O   0  0  0  0  0  0  0  0  0  0  0  0
   24.5206  -20.5702  -10.3514 N   0  0  0  0  0  0  0  0  0  0  0  0
   25.1203  -19.3593   -9.8287 C   0  0  0  0  0  0  0  0  0  0  0  0
   24.7010  -19.4207   -8.3762 C   0  0  0  0  0  0  0  0  0  0  0  0
   25.0658  -20.8804   -8.0718 C   0  0  0  0  0  0  0  0  0  0  0  0
   24.4159  -21.5444   -9.2998 C   0  0  1  0  0  0  0  0  0  0  0  0
   22.9866  -21.7596   -8.8751 C   0  0  0  0  0  0  0  0  0  0  0  0
   22.0571  -20.9722   -9.2021 O   0  0  0  0  0  0  0  0  0  0  0  0
   22.6915  -22.8525   -8.1056 O   0  0  0  0  0  0  0  0  0  0  0  0
  2  1  1  6
  2  3  1  0
  3  4  1  0
  4  5  2  0
  5  6  1  0
  7  6  1  0
  8  7  2  0
  9  8  1  0
 10 11  1  0
 10  9  2  0
 11 12  2  0
 12  4  1  0
 12  7  1  0
 13  2  1  0
 13 18  1  0
 14 13  2  0
 15 16  1  0
 17 16  1  6
 17 18  1  0
 19 17  1  0
 20 19  2  0
 21 19  1  0
 21 22  1  0
 23 22  1  0
 24 23  1  0
 24 25  1  0
 25 21  1  0
 25 26  1  1
 27 26  2  0
 28 26  1  0
M  END
$$$$
