WSP.pdb
     RDKit          3D

 28 30  0  0  1  0  0  0  0  0999 V2000
   31.0470  -22.3860  -16.9270 N   0  0  0  0  0  0  0  0  0  0  0  0
   31.6249  -23.3884  -16.0602 C   0  0  1  0  0  0  0  0  0  0  0  0
   30.5284  -24.0260  -15.2012 C   0  0  0  0  0  0  0  0  0  0  0  0
   30.1784  -23.1079  -14.0883 C   0  0  0  0  0  0  0  0  0  0  0  0
   29.0646  -22.2697  -13.9681 C   0  0  0  0  0  0  0  0  0  0  0  0
   29.2105  -21.6486  -12.7897 N   0  0  0  0  0  0  0  0  0  0  0  0
   30.3480  -22.0522  -12.1727 C   0  0  0  0  0  0  0  0  0  0  0  0
   30.9432  -21.7203  -10.9613 C   0  0  0  0  0  0  0  0  0  0  0  0
   32.1403  -22.3125  -10.5843 C   0  0  0  0  0  0  0  0  0  0  0  0
   32.7696  -23.2300  -11.3773 C   0  0  0  0  0  0  0  0  0  0  0  0
   32.1703  -23.5523  -12.5778 C   0  0  0  0  0  0  0  0  0  0  0  0
   30.9804  -22.9728  -12.9673 C   0  0  0  0  0  0  0  0  0  0  0  0
   32.2650  -24.4183  -16.9154 C   0  0  0  0  0  0  0  0  0  0  0  0
   31.8366  -24.6300  -18.1015 O   0  0  0  0  0  0  0  0  0  0  0  0
   35.4162  -27.3390  -16.0205 O   0  0  0  0  0  0  0  0  0  0  0  0
   35.4740  -26.1912  -16.7943 C   0  0  0  0  0  0  0  0  0  0  0  0
   34.0990  -26.0318  -17.4556 C   0  0  2  0  0  0  0  0  0  0  0  0
   33.3556  -25.2078  -16.4891 N   0  0  0  0  0  0  0  0  0  0  0  0
   33.3793  -27.3190  -17.5701 C   0  0  0  0  0  0  0  0  0  0  0  0
   32.7286  -27.6908  -16.5170 O   0  0  0  0  0  0  0  0  0  0  0  0
   33.3550  -28.1467  -18.7228 N   0  0  0  0  0  0  0  0  0  0  0  0
   33.9814  -27.7985  -19.9821 C   0  0  0  0  0  0  0  0  0  0  0  0
   34.3072  -29.1657  -20.5424 C   0  0  0  0  0  0  0  0  0  0  0  0
   32.9609  -29.8625  -20.3011 C   0  0  0  0  0  0  0  0  0  0  0  0
   32.7383  -29.4400  -18.8372 C   0  0  1  0  0  0  0  0  0  0  0  0
   33.4795  -30.4864  -18.0465 C   0  0  0  0  0  0  0  0  0  0  0  0
   34.6081  -30.2694  -17.5269 O   0  0  0  0  0  0  0  0  0  0  0  0
   32.9016  -31.7172  -17.8894 O   0  0  0  0  0  0  0  0  0  0  0  0
  2  1  1  6
  2  3  1  0
  3  4  1  0
  4  5  2  0
  5  6  1  0
  7  6  1  0
  8  7  2  0
  9  8  1  0
 10 11  1  0
 10  9  2  0
 11 12  2  0
 12  4  1  0
 12  7  1  0
 13  2  1  0
 13 18  1  0
 14 13  2  0
 15 16  1  0
 17 16  1  1
 17 18  1  0
 19 17  1  0
 20 19  2  0
 21 19  1  0
 21 22  1  0
 23 22  1  0
 24 23  1  0
 24 25  1  0
 25 21  1  0
 25 26  1  1
 27 26  2  0
 28 26  1  0
M  END
$$$$
