PYD.pdb
     RDKit          3D

 28 29  0  0  1  0  0  0  0  0999 V2000
   20.1794  -25.4948  -16.6784 N   0  0  0  0  0  0  0  0  0  0  0  0
   19.1810  -24.9251  -17.5390 C   0  0  0  0  0  0  0  0  0  0  0  0
   19.2837  -23.4307  -17.4023 C   0  0  0  0  0  0  0  0  0  0  0  0
   20.1117  -23.2375  -16.1768 C   0  0  0  0  0  0  0  0  0  0  0  0
   20.3493  -24.5797  -15.5972 C   0  0  1  0  0  0  0  0  0  0  0  0
   19.4748  -24.9183  -14.4477 C   0  0  0  0  0  0  0  0  0  0  0  0
   18.3750  -25.4849  -14.6806 O   0  0  0  0  0  0  0  0  0  0  0  0
   18.0900  -26.1524   -5.6193 O   0  0  0  0  0  0  0  0  0  0  0  0
   18.5468  -25.9215   -6.9022 C   0  0  0  0  0  0  0  0  0  0  0  0
   18.6214  -26.9433   -7.8230 C   0  0  0  0  0  0  0  0  0  0  0  0
   19.0824  -26.6856   -9.1010 C   0  0  0  0  0  0  0  0  0  0  0  0
   19.4800  -25.4282   -9.5082 C   0  0  0  0  0  0  0  0  0  0  0  0
   19.9775  -25.2021  -10.8549 C   0  0  0  0  0  0  0  0  0  0  0  0
   18.9842  -25.0995  -11.9604 C   0  0  2  0  0  0  0  0  0  0  0  0
   19.7929  -24.6487  -13.1157 N   0  0  0  0  0  0  0  0  0  0  0  0
   17.9641  -24.0524  -11.7740 C   0  0  0  0  0  0  0  0  0  0  0  0
   18.2442  -22.8330  -12.0229 O   0  0  0  0  0  0  0  0  0  0  0  0
   19.3943  -24.4293   -8.5681 C   0  0  0  0  0  0  0  0  0  0  0  0
   18.9348  -24.6601   -7.2766 C   0  0  0  0  0  0  0  0  0  0  0  0
   16.6310  -24.2618  -11.3277 N   0  0  0  0  0  0  0  0  0  0  0  0
   15.6558  -23.2126  -11.2203 C   0  0  1  0  0  0  0  0  0  0  0  0
   15.2658  -22.6731  -12.5887 C   0  0  0  0  0  0  0  0  0  0  0  0
   14.1527  -21.7037  -12.4894 C   0  0  0  0  0  0  0  0  0  0  0  0
   14.2051  -20.7565  -11.6526 O   0  0  0  0  0  0  0  0  0  0  0  0
   14.4668  -23.5508  -10.4177 C   0  0  0  0  0  0  0  0  0  0  0  0
   14.1170  -22.8180   -9.2819 O   0  0  0  0  0  0  0  0  0  0  0  0
   13.0144  -21.7663  -13.2810 O   0  0  0  0  0  0  0  0  0  0  0  0
   13.6920  -24.5041  -10.6865 O   0  0  0  0  0  0  0  0  0  0  0  0
  1  5  1  0
  2  1  1  0
  3  2  1  0
  3  4  1  0
  4  5  1  0
  5  6  1  1
  6  7  2  0
  9  8  1  0
  9 10  2  0
 11 10  1  0
 12 11  2  0
 13 12  1  0
 14 13  1  1
 14 15  1  0
 14 16  1  0
 15  6  1  0
 16 17  2  0
 16 20  1  0
 18 19  2  0
 18 12  1  0
 19  9  1  0
 20 21  1  0
 21 25  1  0
 21 22  1  6
 23 22  1  0
 24 23  2  0
 25 28  2  0
 25 26  1  0
 27 23  1  0
M  END
$$$$
