PYD.pdb
     RDKit          3D

 28 29  0  0  1  0  0  0  0  0999 V2000
   25.7257  -22.5440  -14.9110 N   0  0  0  0  0  0  0  0  0  0  0  0
   25.6628  -22.4290  -16.3410 C   0  0  0  0  0  0  0  0  0  0  0  0
   26.6274  -21.3452  -16.7376 C   0  0  0  0  0  0  0  0  0  0  0  0
   26.9283  -20.6444  -15.4557 C   0  0  0  0  0  0  0  0  0  0  0  0
   26.0628  -21.2488  -14.4169 C   0  0  1  0  0  0  0  0  0  0  0  0
   24.8541  -20.4558  -14.0837 C   0  0  0  0  0  0  0  0  0  0  0  0
   24.9634  -19.2039  -14.0083 O   0  0  0  0  0  0  0  0  0  0  0  0
   21.7158  -21.3893  -19.6794 O   0  0  0  0  0  0  0  0  0  0  0  0
   21.8033  -20.8827  -18.3974 C   0  0  0  0  0  0  0  0  0  0  0  0
   21.3392  -19.6202  -18.1006 C   0  0  0  0  0  0  0  0  0  0  0  0
   21.4387  -19.1365  -16.8089 C   0  0  0  0  0  0  0  0  0  0  0  0
   21.9919  -19.8722  -15.7804 C   0  0  0  0  0  0  0  0  0  0  0  0
   22.0963  -19.3203  -14.4399 C   0  0  0  0  0  0  0  0  0  0  0  0
   22.4372  -20.2482  -13.3253 C   0  0  2  0  0  0  0  0  0  0  0  0
   23.5950  -21.0095  -13.8465 N   0  0  0  0  0  0  0  0  0  0  0  0
   21.4091  -21.2636  -13.0357 C   0  0  0  0  0  0  0  0  0  0  0  0
   21.5313  -22.4482  -13.4931 O   0  0  0  0  0  0  0  0  0  0  0  0
   22.4460  -21.1276  -16.1068 C   0  0  0  0  0  0  0  0  0  0  0  0
   22.3586  -21.6388  -17.3964 C   0  0  0  0  0  0  0  0  0  0  0  0
   20.2363  -21.0599  -12.2591 N   0  0  0  0  0  0  0  0  0  0  0  0
   19.2331  -22.0678  -12.0570 C   0  0  1  0  0  0  0  0  0  0  0  0
   18.4303  -21.8080  -10.7905 C   0  0  0  0  0  0  0  0  0  0  0  0
   17.4305  -22.8731  -10.5572 C   0  0  0  0  0  0  0  0  0  0  0  0
   17.4847  -23.9531  -11.2138 O   0  0  0  0  0  0  0  0  0  0  0  0
   18.3501  -22.3047  -13.2131 C   0  0  0  0  0  0  0  0  0  0  0  0
   17.8380  -23.5723  -13.4962 O   0  0  0  0  0  0  0  0  0  0  0  0
   16.4004  -22.7628   -9.6337 O   0  0  0  0  0  0  0  0  0  0  0  0
   17.9970  -21.4044  -14.0170 O   0  0  0  0  0  0  0  0  0  0  0  0
  1  5  1  0
  2  1  1  0
  3  2  1  0
  3  4  1  0
  4  5  1  0
  5  6  1  6
  6  7  2  0
  9  8  1  0
  9 10  2  0
 11 10  1  0
 12 11  2  0
 13 12  1  0
 14 13  1  6
 14 15  1  0
 14 16  1  0
 15  6  1  0
 16 17  2  0
 16 20  1  0
 18 19  2  0
 18 12  1  0
 19  9  1  0
 20 21  1  0
 21 25  1  0
 21 22  1  1
 23 22  1  0
 24 23  2  0
 25 28  2  0
 25 26  1  0
 27 23  1  0
M  END
$$$$
