PYD.pdb
     RDKit          3D

 28 29  0  0  1  0  0  0  0  0999 V2000
   29.2968  -20.3471  -11.8644 N   0  0  0  0  0  0  0  0  0  0  0  0
   30.3071  -20.0486  -10.8885 C   0  0  0  0  0  0  0  0  0  0  0  0
   30.9512  -21.3539  -10.5093 C   0  0  0  0  0  0  0  0  0  0  0  0
   30.0112  -22.3854  -11.0359 C   0  0  0  0  0  0  0  0  0  0  0  0
   28.8347  -21.6656  -11.5758 C   0  0  1  0  0  0  0  0  0  0  0  0
   27.6552  -21.6503  -10.6762 C   0  0  0  0  0  0  0  0  0  0  0  0
   27.1955  -22.7517  -10.2755 O   0  0  0  0  0  0  0  0  0  0  0  0
   29.0867  -20.6809   -4.0326 O   0  0  0  0  0  0  0  0  0  0  0  0
   28.2988  -20.3700   -5.1238 C   0  0  0  0  0  0  0  0  0  0  0  0
   27.2745  -21.2018   -5.5189 C   0  0  0  0  0  0  0  0  0  0  0  0
   26.5005  -20.8675   -6.6150 C   0  0  0  0  0  0  0  0  0  0  0  0
   26.7082  -19.7168   -7.3483 C   0  0  0  0  0  0  0  0  0  0  0  0
   25.8852  -19.4107   -8.5064 C   0  0  0  0  0  0  0  0  0  0  0  0
   25.7123  -20.4679   -9.5418 C   0  0  2  0  0  0  0  0  0  0  0  0
   27.0169  -20.4878  -10.2415 N   0  0  0  0  0  0  0  0  0  0  0  0
   24.7218  -20.1491  -10.5853 C   0  0  0  0  0  0  0  0  0  0  0  0
   25.0292  -19.3639  -11.5426 O   0  0  0  0  0  0  0  0  0  0  0  0
   27.7369  -18.9069   -6.9303 C   0  0  0  0  0  0  0  0  0  0  0  0
   28.5305  -19.2184   -5.8324 C   0  0  0  0  0  0  0  0  0  0  0  0
   23.3927  -20.6487  -10.6491 N   0  0  0  0  0  0  0  0  0  0  0  0
   22.4636  -20.3028  -11.6885 C   0  0  1  0  0  0  0  0  0  0  0  0
   23.0784  -20.4867  -13.0684 C   0  0  0  0  0  0  0  0  0  0  0  0
   23.2402  -21.9191  -13.4005 C   0  0  0  0  0  0  0  0  0  0  0  0
   24.1798  -22.5910  -12.8846 O   0  0  0  0  0  0  0  0  0  0  0  0
   21.1508  -20.9659  -11.5929 C   0  0  0  0  0  0  0  0  0  0  0  0
   20.1053  -20.6496  -12.4625 O   0  0  0  0  0  0  0  0  0  0  0  0
   22.4005  -22.5994  -14.2714 O   0  0  0  0  0  0  0  0  0  0  0  0
   20.8756  -21.8482  -10.7402 O   0  0  0  0  0  0  0  0  0  0  0  0
  1  5  1  0
  2  1  1  0
  3  2  1  0
  3  4  1  0
  4  5  1  0
  5  6  1  1
  6  7  2  0
  9  8  1  0
  9 10  2  0
 11 10  1  0
 12 11  2  0
 13 12  1  0
 14 13  1  1
 14 15  1  0
 14 16  1  0
 15  6  1  0
 16 17  2  0
 16 20  1  0
 18 19  2  0
 18 12  1  0
 19  9  1  0
 20 21  1  0
 21 25  1  0
 21 22  1  6
 23 22  1  0
 24 23  2  0
 25 28  2  0
 25 26  1  0
 27 23  1  0
M  END
$$$$
