PYD.pdb
     RDKit          3D

 28 29  0  0  1  0  0  0  0  0999 V2000
   15.2302  -18.7457    4.5848 N   0  0  0  0  0  0  0  0  0  0  0  0
   14.5310  -17.6328    4.0061 C   0  0  0  0  0  0  0  0  0  0  0  0
   14.8965  -17.5945    2.5476 C   0  0  0  0  0  0  0  0  0  0  0  0
   16.0862  -18.4890    2.4511 C   0  0  0  0  0  0  0  0  0  0  0  0
   16.4308  -18.9036    3.8306 C   0  0  1  0  0  0  0  0  0  0  0  0
   17.5616  -18.1570    4.4343 C   0  0  0  0  0  0  0  0  0  0  0  0
   18.6930  -18.2429    3.8888 O   0  0  0  0  0  0  0  0  0  0  0  0
   21.4020  -10.7190    6.7083 O   0  0  0  0  0  0  0  0  0  0  0  0
   20.5627  -11.8080    6.5750 C   0  0  0  0  0  0  0  0  0  0  0  0
   19.8510  -12.0170    5.4144 C   0  0  0  0  0  0  0  0  0  0  0  0
   19.0175  -13.1151    5.3066 C   0  0  0  0  0  0  0  0  0  0  0  0
   18.8602  -14.0317    6.3264 C   0  0  0  0  0  0  0  0  0  0  0  0
   17.9589  -15.1626    6.1814 C   0  0  0  0  0  0  0  0  0  0  0  0
   18.5528  -16.5272    6.1141 C   0  0  2  0  0  0  0  0  0  0  0  0
   17.4537  -17.3600    5.5750 N   0  0  0  0  0  0  0  0  0  0  0  0
   18.8774  -17.1207    7.4233 C   0  0  0  0  0  0  0  0  0  0  0  0
   17.9467  -17.5647    8.1744 O   0  0  0  0  0  0  0  0  0  0  0  0
   19.5828  -13.7969    7.4716 C   0  0  0  0  0  0  0  0  0  0  0  0
   20.4278  -12.7016    7.6072 C   0  0  0  0  0  0  0  0  0  0  0  0
   20.1817  -17.2645    7.9694 N   0  0  0  0  0  0  0  0  0  0  0  0
   20.4400  -17.7966    9.2784 C   0  0  1  0  0  0  0  0  0  0  0  0
   20.8297  -19.2664    9.2148 C   0  0  0  0  0  0  0  0  0  0  0  0
   20.9257  -19.8582   10.5671 C   0  0  0  0  0  0  0  0  0  0  0  0
   20.4008  -19.2726   11.5580 O   0  0  0  0  0  0  0  0  0  0  0  0
   21.3994  -17.0213   10.0849 C   0  0  0  0  0  0  0  0  0  0  0  0
   21.6308  -17.3144   11.4302 O   0  0  0  0  0  0  0  0  0  0  0  0
   21.5763  -21.0555   10.8309 O   0  0  0  0  0  0  0  0  0  0  0  0
   22.0695  -16.0568    9.6351 O   0  0  0  0  0  0  0  0  0  0  0  0
  1  5  1  0
  2  1  1  0
  3  2  1  0
  3  4  1  0
  4  5  1  0
  5  6  1  1
  6  7  2  0
  9  8  1  0
  9 10  2  0
 11 10  1  0
 12 11  2  0
 13 12  1  0
 14 13  1  1
 14 15  1  0
 14 16  1  0
 15  6  1  0
 16 17  2  0
 16 20  1  0
 18 19  2  0
 18 12  1  0
 19  9  1  0
 20 21  1  0
 21 25  1  0
 21 22  1  6
 23 22  1  0
 24 23  2  0
 25 28  2  0
 25 26  1  0
 27 23  1  0
M  END
$$$$
