PYD.pdb
     RDKit          3D

 28 29  0  0  1  0  0  0  0  0999 V2000
   27.0488  -19.5980  -14.4133 N   0  0  0  0  0  0  0  0  0  0  0  0
   27.9733  -18.7423  -13.7239 C   0  0  0  0  0  0  0  0  0  0  0  0
   29.2219  -19.5461  -13.4850 C   0  0  0  0  0  0  0  0  0  0  0  0
   28.7981  -20.9535  -13.7392 C   0  0  0  0  0  0  0  0  0  0  0  0
   27.3384  -20.9290  -13.9889 C   0  0  1  0  0  0  0  0  0  0  0  0
   26.5074  -21.3287  -12.8269 C   0  0  0  0  0  0  0  0  0  0  0  0
   26.6087  -22.5079  -12.3977 O   0  0  0  0  0  0  0  0  0  0  0  0
   29.2033  -20.4115   -6.3979 O   0  0  0  0  0  0  0  0  0  0  0  0
   28.1555  -20.2708   -7.2868 C   0  0  0  0  0  0  0  0  0  0  0  0
   27.8635  -21.2590   -8.2009 C   0  0  0  0  0  0  0  0  0  0  0  0
   26.8091  -21.0934   -9.0801 C   0  0  0  0  0  0  0  0  0  0  0  0
   26.0178  -19.9625   -9.0870 C   0  0  0  0  0  0  0  0  0  0  0  0
   24.9307  -19.8177  -10.0406 C   0  0  0  0  0  0  0  0  0  0  0  0
   24.7396  -20.8935  -11.0533 C   0  0  2  0  0  0  0  0  0  0  0  0
   25.6145  -20.4781  -12.1731 N   0  0  0  0  0  0  0  0  0  0  0  0
   23.3848  -20.9607  -11.6294 C   0  0  0  0  0  0  0  0  0  0  0  0
   22.3825  -21.2158  -10.8824 O   0  0  0  0  0  0  0  0  0  0  0  0
   26.3331  -18.9942   -8.1639 C   0  0  0  0  0  0  0  0  0  0  0  0
   27.3872  -19.1344   -7.2687 C   0  0  0  0  0  0  0  0  0  0  0  0
   23.0527  -20.7586  -12.9964 N   0  0  0  0  0  0  0  0  0  0  0  0
   21.7077  -20.7898  -13.4996 C   0  0  1  0  0  0  0  0  0  0  0  0
   21.6129  -20.1452  -14.8750 C   0  0  0  0  0  0  0  0  0  0  0  0
   21.3538  -18.6923  -14.7733 C   0  0  0  0  0  0  0  0  0  0  0  0
   21.2278  -18.1450  -13.6397 O   0  0  0  0  0  0  0  0  0  0  0  0
   21.0705  -22.1187  -13.4846 C   0  0  0  0  0  0  0  0  0  0  0  0
   19.7587  -22.2971  -13.0412 O   0  0  0  0  0  0  0  0  0  0  0  0
   21.2356  -17.8599  -15.8775 O   0  0  0  0  0  0  0  0  0  0  0  0
   21.6451  -23.1720  -13.8611 O   0  0  0  0  0  0  0  0  0  0  0  0
  1  5  1  0
  2  1  1  0
  3  2  1  0
  3  4  1  0
  4  5  1  0
  5  6  1  1
  6  7  2  0
  9  8  1  0
  9 10  2  0
 11 10  1  0
 12 11  2  0
 13 12  1  0
 14 13  1  1
 14 15  1  0
 14 16  1  0
 15  6  1  0
 16 17  2  0
 16 20  1  0
 18 19  2  0
 18 12  1  0
 19  9  1  0
 20 21  1  0
 21 25  1  0
 21 22  1  6
 23 22  1  0
 24 23  2  0
 25 28  2  0
 25 26  1  0
 27 23  1  0
M  END
$$$$
