QWN.pdb
     RDKit          3D

 32 33  0  0  1  0  0  0  0  0999 V2000
    7.5524  -15.7133   17.1752 N   0  0  0  0  0  0  0  0  0  0  0  0
    7.5880  -14.3631   17.6119 C   0  0  0  0  0  0  0  0  0  0  0  0
    8.1999  -13.5020   16.9576 O   0  0  0  0  0  0  0  0  0  0  0  0
    6.8877  -13.9956   18.8527 C   0  0  0  0  0  0  0  0  0  0  0  0
    7.7607  -14.0002   20.0587 C   0  0  0  0  0  0  0  0  0  0  0  0
    8.2584  -15.3815   20.4324 C   0  0  2  0  0  0  0  0  0  0  0  0
    7.1124  -16.2520   20.7432 N   0  0  0  0  0  0  0  0  0  0  0  0
    9.0513  -15.2222   21.6793 C   0  0  0  0  0  0  0  0  0  0  0  0
    9.8893  -14.3207   21.7497 O   0  0  0  0  0  0  0  0  0  0  0  0
    8.8228  -16.1116   22.7541 N   0  0  0  0  0  0  0  0  0  0  0  0
    9.4772  -15.9463   24.0571 C   0  0  1  0  0  0  0  0  0  0  0  0
    8.5329  -16.2642   25.1566 C   0  0  0  0  0  0  0  0  0  0  0  0
    7.4694  -15.2750   25.3028 C   0  0  0  0  0  0  0  0  0  0  0  0
    6.1779  -15.4082   24.8519 C   0  0  0  0  0  0  0  0  0  0  0  0
    5.5292  -14.2880   25.1457 N   0  0  0  0  0  0  0  0  0  0  0  0
    6.3578  -13.4167   25.7794 C   0  0  0  0  0  0  0  0  0  0  0  0
    6.1470  -12.1325   26.2766 C   0  0  0  0  0  0  0  0  0  0  0  0
    7.2069  -11.4975   26.8753 C   0  0  0  0  0  0  0  0  0  0  0  0
    8.4519  -12.0728   27.0012 C   0  0  0  0  0  0  0  0  0  0  0  0
    8.6251  -13.3430   26.4986 C   0  0  0  0  0  0  0  0  0  0  0  0
    7.5784  -14.0112   25.8897 C   0  0  0  0  0  0  0  0  0  0  0  0
   10.7315  -16.7017   23.9910 C   0  0  0  0  0  0  0  0  0  0  0  0
   10.7138  -17.9551   23.6890 O   0  0  0  0  0  0  0  0  0  0  0  0
   16.2278  -16.3498   22.6626 N   0  0  0  0  0  0  0  0  0  0  0  0
   15.6534  -16.7816   23.9113 C   0  0  0  0  0  0  0  0  0  0  0  0
   16.2171  -17.6360   24.6134 O   0  0  0  0  0  0  0  0  0  0  0  0
   14.3912  -16.1675   24.2978 C   0  0  0  0  0  0  0  0  0  0  0  0
   13.2281  -17.0934   24.1953 C   0  0  2  0  0  0  0  0  0  0  0  0
   12.0363  -16.2059   24.2230 N   0  0  0  0  0  0  0  0  0  0  0  0
   13.1637  -18.0204   25.3342 C   0  0  0  0  0  0  0  0  0  0  0  0
   12.7123  -17.6303   26.5673 O   0  0  0  0  0  0  0  0  0  0  0  0
   13.5268  -19.2331   25.2290 O   0  0  0  0  0  0  0  0  0  0  0  0
  1  2  1  0
  2  3  2  0
  4  2  1  0
  4  5  1  0
  6  5  1  0
  6  7  1  1
  8  6  1  0
  8  9  2  0
 10  8  1  0
 11 10  1  0
 11 12  1  1
 13 12  1  0
 13 14  2  0
 15 14  1  0
 16 21  2  0
 16 15  1  0
 17 16  1  0
 18 17  2  0
 19 18  1  0
 19 20  2  0
 20 21  1  0
 21 13  1  0
 22 11  1  0
 23 22  2  0
 25 26  2  0
 25 24  1  0
 27 25  1  0
 28 27  1  1
 28 29  1  0
 29 22  1  0
 30 28  1  0
 31 30  1  0
 32 30  2  0
M  END
$$$$
