QWN.pdb
     RDKit          3D

 32 33  0  0  1  0  0  0  0  0999 V2000
    8.6288  -13.1351   16.8885 N   0  0  0  0  0  0  0  0  0  0  0  0
    7.7274  -14.0296   17.5229 C   0  0  0  0  0  0  0  0  0  0  0  0
    7.4512  -15.1243   17.0039 O   0  0  0  0  0  0  0  0  0  0  0  0
    7.1235  -13.6424   18.8076 C   0  0  0  0  0  0  0  0  0  0  0  0
    8.0659  -13.7093   19.9584 C   0  0  0  0  0  0  0  0  0  0  0  0
    8.3871  -15.1263   20.3877 C   0  0  2  0  0  0  0  0  0  0  0  0
    7.1377  -15.8515   20.6719 N   0  0  0  0  0  0  0  0  0  0  0  0
    9.1438  -15.0205   21.6624 C   0  0  0  0  0  0  0  0  0  0  0  0
   10.0770  -14.2191   21.7447 O   0  0  0  0  0  0  0  0  0  0  0  0
    8.7724  -15.8446   22.7493 N   0  0  0  0  0  0  0  0  0  0  0  0
    9.4710  -15.7982   24.0389 C   0  0  1  0  0  0  0  0  0  0  0  0
    8.5651  -16.2194   25.1359 C   0  0  0  0  0  0  0  0  0  0  0  0
    7.4635  -15.2878   25.3592 C   0  0  0  0  0  0  0  0  0  0  0  0
    6.1293  -15.5580   25.1698 C   0  0  0  0  0  0  0  0  0  0  0  0
    5.4494  -14.4520   25.4463 N   0  0  0  0  0  0  0  0  0  0  0  0
    6.2989  -13.4568   25.8138 C   0  0  0  0  0  0  0  0  0  0  0  0
    6.0701  -12.1352   26.1902 C   0  0  0  0  0  0  0  0  0  0  0  0
    7.1604  -11.3638   26.5084 C   0  0  0  0  0  0  0  0  0  0  0  0
    8.4523  -11.8394   26.4703 C   0  0  0  0  0  0  0  0  0  0  0  0
    8.6422  -13.1503   26.0940 C   0  0  0  0  0  0  0  0  0  0  0  0
    7.5658  -13.9550   25.7671 C   0  0  0  0  0  0  0  0  0  0  0  0
   10.7224  -16.5403   23.8604 C   0  0  0  0  0  0  0  0  0  0  0  0
   10.7173  -17.6741   23.2465 O   0  0  0  0  0  0  0  0  0  0  0  0
   16.1083  -16.8944   22.3563 N   0  0  0  0  0  0  0  0  0  0  0  0
   15.6196  -16.6743   23.6937 C   0  0  0  0  0  0  0  0  0  0  0  0
   16.2865  -17.0164   24.6830 O   0  0  0  0  0  0  0  0  0  0  0  0
   14.3166  -16.0366   23.8173 C   0  0  0  0  0  0  0  0  0  0  0  0
   13.2074  -17.0016   24.0600 C   0  0  2  0  0  0  0  0  0  0  0  0
   12.0118  -16.1504   24.2937 N   0  0  0  0  0  0  0  0  0  0  0  0
   13.4503  -17.8271   25.2518 C   0  0  0  0  0  0  0  0  0  0  0  0
   13.9589  -19.0963   25.1683 O   0  0  0  0  0  0  0  0  0  0  0  0
   13.1973  -17.4012   26.4215 O   0  0  0  0  0  0  0  0  0  0  0  0
  1  2  1  0
  2  3  2  0
  4  2  1  0
  4  5  1  0
  6  5  1  0
  6  7  1  1
  8  6  1  0
  8  9  2  0
 10  8  1  0
 11 10  1  0
 11 12  1  1
 13 12  1  0
 13 14  2  0
 15 14  1  0
 16 21  2  0
 16 15  1  0
 17 16  1  0
 18 17  2  0
 19 18  1  0
 19 20  2  0
 20 21  1  0
 21 13  1  0
 22 11  1  0
 23 22  2  0
 25 26  2  0
 25 24  1  0
 27 25  1  0
 28 27  1  1
 28 29  1  0
 29 22  1  0
 30 28  1  0
 31 30  1  0
 32 30  2  0
M  END
$$$$
