QWN.pdb
     RDKit          3D

 32 33  0  0  1  0  0  0  0  0999 V2000
    7.4402  -12.5354   18.4565 N   0  0  0  0  0  0  0  0  0  0  0  0
    7.9870  -13.7033   17.8632 C   0  0  0  0  0  0  0  0  0  0  0  0
    8.3349  -13.7040   16.6703 O   0  0  0  0  0  0  0  0  0  0  0  0
    8.1375  -14.9164   18.6823 C   0  0  0  0  0  0  0  0  0  0  0  0
    7.5269  -14.8065   20.0357 C   0  0  0  0  0  0  0  0  0  0  0  0
    7.8483  -15.9827   20.9349 C   0  0  2  0  0  0  0  0  0  0  0  0
    6.5992  -16.5584   21.4604 N   0  0  0  0  0  0  0  0  0  0  0  0
    8.6103  -15.4371   22.0884 C   0  0  0  0  0  0  0  0  0  0  0  0
    9.1339  -14.3251   21.9932 O   0  0  0  0  0  0  0  0  0  0  0  0
    8.7149  -16.2107   23.2671 N   0  0  0  0  0  0  0  0  0  0  0  0
    9.4796  -15.7562   24.4341 C   0  0  1  0  0  0  0  0  0  0  0  0
    8.7144  -15.9968   25.6823 C   0  0  0  0  0  0  0  0  0  0  0  0
    7.5287  -15.1534   25.7995 C   0  0  0  0  0  0  0  0  0  0  0  0
    6.2258  -15.5744   25.6800 C   0  0  0  0  0  0  0  0  0  0  0  0
    5.4430  -14.5111   25.8162 N   0  0  0  0  0  0  0  0  0  0  0  0
    6.1939  -13.3972   26.0227 C   0  0  0  0  0  0  0  0  0  0  0  0
    5.8397  -12.0640   26.2175 C   0  0  0  0  0  0  0  0  0  0  0  0
    6.8518  -11.1545   26.4008 C   0  0  0  0  0  0  0  0  0  0  0  0
    8.1839  -11.5045   26.3993 C   0  0  0  0  0  0  0  0  0  0  0  0
    8.4982  -12.8308   26.2039 C   0  0  0  0  0  0  0  0  0  0  0  0
    7.5032  -13.7730   26.0165 C   0  0  0  0  0  0  0  0  0  0  0  0
   10.8107  -16.3590   24.3191 C   0  0  0  0  0  0  0  0  0  0  0  0
   11.7088  -16.1131   25.2109 O   0  0  0  0  0  0  0  0  0  0  0  0
   15.3177  -18.2234   23.2867 N   0  0  0  0  0  0  0  0  0  0  0  0
   14.9318  -16.8609   23.0213 C   0  0  0  0  0  0  0  0  0  0  0  0
   15.7769  -16.0043   22.7168 O   0  0  0  0  0  0  0  0  0  0  0  0
   13.5136  -16.5498   23.1292 C   0  0  0  0  0  0  0  0  0  0  0  0
   12.6541  -17.7574   23.2827 C   0  0  2  0  0  0  0  0  0  0  0  0
   11.2644  -17.2310   23.3013 N   0  0  0  0  0  0  0  0  0  0  0  0
   12.9185  -18.4611   24.5459 C   0  0  0  0  0  0  0  0  0  0  0  0
   12.8619  -17.8275   25.7592 O   0  0  0  0  0  0  0  0  0  0  0  0
   13.2150  -19.6960   24.5725 O   0  0  0  0  0  0  0  0  0  0  0  0
  1  2  1  0
  2  3  2  0
  4  2  1  0
  4  5  1  0
  6  5  1  0
  6  7  1  1
  8  6  1  0
  8  9  2  0
 10  8  1  0
 11 10  1  0
 11 12  1  1
 13 12  1  0
 13 14  2  0
 15 14  1  0
 16 21  2  0
 16 15  1  0
 17 16  1  0
 18 17  2  0
 19 18  1  0
 19 20  2  0
 20 21  1  0
 21 13  1  0
 22 11  1  0
 23 22  2  0
 25 26  2  0
 25 24  1  0
 27 25  1  0
 28 27  1  1
 28 29  1  0
 29 22  1  0
 30 28  1  0
 31 30  1  0
 32 30  2  0
M  END
$$$$
