QWN.pdb
     RDKit          3D

 32 33  0  0  1  0  0  0  0  0999 V2000
    6.7804  -14.2469   17.7481 N   0  0  0  0  0  0  0  0  0  0  0  0
    7.7067  -13.4012   18.4128 C   0  0  0  0  0  0  0  0  0  0  0  0
    8.3565  -12.5523   17.7794 O   0  0  0  0  0  0  0  0  0  0  0  0
    7.8870  -13.5431   19.8663 C   0  0  0  0  0  0  0  0  0  0  0  0
    7.1063  -14.6624   20.4616 C   0  0  0  0  0  0  0  0  0  0  0  0
    7.9498  -15.8817   20.7729 C   0  0  2  0  0  0  0  0  0  0  0  0
    7.0796  -16.9855   21.2112 N   0  0  0  0  0  0  0  0  0  0  0  0
    8.8185  -15.5129   21.9210 C   0  0  0  0  0  0  0  0  0  0  0  0
    9.6106  -14.5759   21.8010 O   0  0  0  0  0  0  0  0  0  0  0  0
    8.7132  -16.2492   23.1233 N   0  0  0  0  0  0  0  0  0  0  0  0
    9.5071  -15.9199   24.3127 C   0  0  1  0  0  0  0  0  0  0  0  0
    8.7171  -16.1559   25.5462 C   0  0  0  0  0  0  0  0  0  0  0  0
    7.5294  -15.3119   25.6365 C   0  0  0  0  0  0  0  0  0  0  0  0
    6.2340  -15.7188   25.4233 C   0  0  0  0  0  0  0  0  0  0  0  0
    5.4483  -14.6585   25.5659 N   0  0  0  0  0  0  0  0  0  0  0  0
    6.1899  -13.5603   25.8679 C   0  0  0  0  0  0  0  0  0  0  0  0
    5.8296  -12.2359   26.1062 C   0  0  0  0  0  0  0  0  0  0  0  0
    6.8327  -11.3423   26.3900 C   0  0  0  0  0  0  0  0  0  0  0  0
    8.1615  -11.6998   26.4472 C   0  0  0  0  0  0  0  0  0  0  0  0
    8.4820  -13.0172   26.2063 C   0  0  0  0  0  0  0  0  0  0  0  0
    7.4962  -13.9433   25.9177 C   0  0  0  0  0  0  0  0  0  0  0  0
   10.7826  -16.6278   24.1698 C   0  0  0  0  0  0  0  0  0  0  0  0
   10.7953  -17.8692   23.8215 O   0  0  0  0  0  0  0  0  0  0  0  0
   16.1539  -16.5342   22.3136 N   0  0  0  0  0  0  0  0  0  0  0  0
   15.6913  -16.4445   23.6751 C   0  0  0  0  0  0  0  0  0  0  0  0
   16.3933  -16.8453   24.6170 O   0  0  0  0  0  0  0  0  0  0  0  0
   14.3716  -15.8650   23.8808 C   0  0  0  0  0  0  0  0  0  0  0  0
   13.3033  -16.8847   24.0797 C   0  0  2  0  0  0  0  0  0  0  0  0
   12.0782  -16.0951   24.3700 N   0  0  0  0  0  0  0  0  0  0  0  0
   13.5907  -17.7637   25.2222 C   0  0  0  0  0  0  0  0  0  0  0  0
   14.2644  -18.9480   25.0796 O   0  0  0  0  0  0  0  0  0  0  0  0
   13.2249  -17.4663   26.4017 O   0  0  0  0  0  0  0  0  0  0  0  0
  1  2  1  0
  2  3  2  0
  4  2  1  0
  4  5  1  0
  6  5  1  0
  6  7  1  1
  8  6  1  0
  8  9  2  0
 10  8  1  0
 11 10  1  0
 11 12  1  1
 13 12  1  0
 13 14  2  0
 15 14  1  0
 16 21  2  0
 16 15  1  0
 17 16  1  0
 18 17  2  0
 19 18  1  0
 19 20  2  0
 20 21  1  0
 21 13  1  0
 22 11  1  0
 23 22  2  0
 25 26  2  0
 25 24  1  0
 27 25  1  0
 28 27  1  1
 28 29  1  0
 29 22  1  0
 30 28  1  0
 31 30  1  0
 32 30  2  0
M  END
$$$$
