QWN.pdb
     RDKit          3D

 32 33  0  0  1  0  0  0  0  0999 V2000
    7.9919  -12.3518   17.7533 N   0  0  0  0  0  0  0  0  0  0  0  0
    8.0760  -13.7614   17.6084 C   0  0  0  0  0  0  0  0  0  0  0  0
    7.2544  -14.3760   16.9074 O   0  0  0  0  0  0  0  0  0  0  0  0
    9.1529  -14.4870   18.3004 C   0  0  0  0  0  0  0  0  0  0  0  0
    8.9266  -14.6450   19.7635 C   0  0  0  0  0  0  0  0  0  0  0  0
    9.8050  -15.7062   20.3941 C   0  0  2  0  0  0  0  0  0  0  0  0
    9.1544  -17.0214   20.2735 N   0  0  0  0  0  0  0  0  0  0  0  0
    9.8899  -15.3793   21.8414 C   0  0  0  0  0  0  0  0  0  0  0  0
   10.4077  -14.3161   22.1899 O   0  0  0  0  0  0  0  0  0  0  0  0
    9.3736  -16.2993   22.7824 N   0  0  0  0  0  0  0  0  0  0  0  0
    9.4090  -16.0420   24.2267 C   0  0  1  0  0  0  0  0  0  0  0  0
    8.0345  -16.0243   24.7850 C   0  0  0  0  0  0  0  0  0  0  0  0
    7.3852  -14.7220   24.6687 C   0  0  0  0  0  0  0  0  0  0  0  0
    6.7027  -14.2574   23.5699 C   0  0  0  0  0  0  0  0  0  0  0  0
    6.2908  -13.0250   23.8408 N   0  0  0  0  0  0  0  0  0  0  0  0
    6.6829  -12.6617   25.0904 C   0  0  0  0  0  0  0  0  0  0  0  0
    6.4964  -11.4865   25.8149 C   0  0  0  0  0  0  0  0  0  0  0  0
    7.0271  -11.4251   27.0797 C   0  0  0  0  0  0  0  0  0  0  0  0
    7.7263  -12.4651   27.6510 C   0  0  0  0  0  0  0  0  0  0  0  0
    7.8918  -13.6117   26.9068 C   0  0  0  0  0  0  0  0  0  0  0  0
    7.3700  -13.7070   25.6295 C   0  0  0  0  0  0  0  0  0  0  0  0
   10.3675  -16.9943   24.7950 C   0  0  0  0  0  0  0  0  0  0  0  0
   10.0224  -17.7410   25.7878 O   0  0  0  0  0  0  0  0  0  0  0  0
   13.5360  -20.7211   25.6868 N   0  0  0  0  0  0  0  0  0  0  0  0
   12.3637  -20.8230   24.8556 C   0  0  0  0  0  0  0  0  0  0  0  0
   11.9305  -21.9282   24.4930 O   0  0  0  0  0  0  0  0  0  0  0  0
   11.7243  -19.5730   24.4701 C   0  0  0  0  0  0  0  0  0  0  0  0
   12.4989  -18.3650   24.8721 C   0  0  2  0  0  0  0  0  0  0  0  0
   11.6978  -17.2190   24.3686 N   0  0  0  0  0  0  0  0  0  0  0  0
   13.8287  -18.3337   24.2468 C   0  0  0  0  0  0  0  0  0  0  0  0
   14.9820  -18.3254   24.9861 O   0  0  0  0  0  0  0  0  0  0  0  0
   13.9726  -18.3111   22.9849 O   0  0  0  0  0  0  0  0  0  0  0  0
  1  2  1  0
  2  3  2  0
  4  2  1  0
  4  5  1  0
  6  5  1  0
  6  7  1  1
  8  6  1  0
  8  9  2  0
 10  8  1  0
 11 10  1  0
 11 12  1  1
 13 12  1  0
 13 14  2  0
 15 14  1  0
 16 21  2  0
 16 15  1  0
 17 16  1  0
 18 17  2  0
 19 18  1  0
 19 20  2  0
 20 21  1  0
 21 13  1  0
 22 11  1  0
 23 22  2  0
 25 26  2  0
 25 24  1  0
 27 25  1  0
 28 27  1  6
 28 29  1  0
 29 22  1  0
 30 28  1  0
 31 30  1  0
 32 30  2  0
M  END
$$$$
