QWN.pdb
     RDKit          3D

 32 33  0  0  1  0  0  0  0  0999 V2000
   14.0775  -19.7012   21.1456 N   0  0  0  0  0  0  0  0  0  0  0  0
   13.3642  -19.7695   19.9202 C   0  0  0  0  0  0  0  0  0  0  0  0
   13.8936  -20.2538   18.9056 O   0  0  0  0  0  0  0  0  0  0  0  0
   11.9854  -19.2586   19.8675 C   0  0  0  0  0  0  0  0  0  0  0  0
   11.4861  -18.7425   21.1718 C   0  0  0  0  0  0  0  0  0  0  0  0
   10.4588  -17.6387   21.0253 C   0  0  2  0  0  0  0  0  0  0  0  0
   10.7037  -16.8987   19.7763 N   0  0  0  0  0  0  0  0  0  0  0  0
   10.6841  -16.6990   22.1544 C   0  0  0  0  0  0  0  0  0  0  0  0
   11.7917  -16.6600   22.6944 O   0  0  0  0  0  0  0  0  0  0  0  0
    9.6188  -15.8730   22.5806 N   0  0  0  0  0  0  0  0  0  0  0  0
    9.1854  -15.8182   23.9815 C   0  0  1  0  0  0  0  0  0  0  0  0
    7.7482  -16.1691   24.0947 C   0  0  0  0  0  0  0  0  0  0  0  0
    6.9857  -15.2130   24.8917 C   0  0  0  0  0  0  0  0  0  0  0  0
    5.6293  -15.2476   25.1109 C   0  0  0  0  0  0  0  0  0  0  0  0
    5.3124  -14.1941   25.8536 N   0  0  0  0  0  0  0  0  0  0  0  0
    6.4239  -13.4629   26.1317 C   0  0  0  0  0  0  0  0  0  0  0  0
    6.6026  -12.2902   26.8621 C   0  0  0  0  0  0  0  0  0  0  0  0
    7.8763  -11.7871   26.9609 C   0  0  0  0  0  0  0  0  0  0  0  0
    8.9676  -12.3885   26.3743 C   0  0  0  0  0  0  0  0  0  0  0  0
    8.7549  -13.5462   25.6597 C   0  0  0  0  0  0  0  0  0  0  0  0
    7.4846  -14.0801   25.5406 C   0  0  0  0  0  0  0  0  0  0  0  0
   10.1482  -16.6165   24.7458 C   0  0  0  0  0  0  0  0  0  0  0  0
   11.3837  -16.6603   24.3797 O   0  0  0  0  0  0  0  0  0  0  0  0
   10.1393  -18.0857   30.5086 N   0  0  0  0  0  0  0  0  0  0  0  0
   10.7571  -17.2731   29.4918 C   0  0  0  0  0  0  0  0  0  0  0  0
   11.8578  -16.7331   29.6855 O   0  0  0  0  0  0  0  0  0  0  0  0
   10.0270  -17.1232   28.2411 C   0  0  0  0  0  0  0  0  0  0  0  0
   10.8443  -17.4471   27.0378 C   0  0  2  0  0  0  0  0  0  0  0  0
    9.8857  -17.3862   25.9038 N   0  0  0  0  0  0  0  0  0  0  0  0
   11.4164  -18.7991   27.1117 C   0  0  0  0  0  0  0  0  0  0  0  0
   10.6326  -19.9177   27.2161 O   0  0  0  0  0  0  0  0  0  0  0  0
   12.6711  -18.9953   27.0836 O   0  0  0  0  0  0  0  0  0  0  0  0
  1  2  1  0
  2  3  2  0
  4  2  1  0
  4  5  1  0
  6  5  1  0
  6  7  1  6
  8  6  1  0
  8  9  2  0
 10  8  1  0
 11 10  1  0
 11 12  1  6
 13 12  1  0
 13 14  2  0
 15 14  1  0
 16 21  2  0
 16 15  1  0
 17 16  1  0
 18 17  2  0
 19 18  1  0
 19 20  2  0
 20 21  1  0
 21 13  1  0
 22 11  1  0
 23 22  2  0
 25 26  2  0
 25 24  1  0
 27 25  1  0
 28 27  1  1
 28 29  1  0
 29 22  1  0
 30 28  1  0
 31 30  1  0
 32 30  2  0
M  END
$$$$
