QWN.pdb
     RDKit          3D

 32 33  0  0  1  0  0  0  0  0999 V2000
    7.3909  -12.4352   16.6640 N   0  0  0  0  0  0  0  0  0  0  0  0
    7.6080  -13.6714   16.0007 C   0  0  0  0  0  0  0  0  0  0  0  0
    7.3497  -13.7950   14.7915 O   0  0  0  0  0  0  0  0  0  0  0  0
    8.1455  -14.8073   16.7661 C   0  0  0  0  0  0  0  0  0  0  0  0
    8.3999  -14.4982   18.2001 C   0  0  0  0  0  0  0  0  0  0  0  0
    9.0390  -15.6455   18.9557 C   0  0  2  0  0  0  0  0  0  0  0  0
    8.1381  -16.8098   18.9401 N   0  0  0  0  0  0  0  0  0  0  0  0
    9.1715  -15.2002   20.3674 C   0  0  0  0  0  0  0  0  0  0  0  0
    9.9428  -14.2774   20.6385 O   0  0  0  0  0  0  0  0  0  0  0  0
    8.4076  -15.8492   21.3643 N   0  0  0  0  0  0  0  0  0  0  0  0
    8.4374  -15.4268   22.7694 C   0  0  1  0  0  0  0  0  0  0  0  0
    7.0608  -15.1899   23.2698 C   0  0  0  0  0  0  0  0  0  0  0  0
    7.0059  -14.9629   24.7108 C   0  0  0  0  0  0  0  0  0  0  0  0
    6.7832  -15.9223   25.6695 C   0  0  0  0  0  0  0  0  0  0  0  0
    6.7736  -15.3185   26.8515 N   0  0  0  0  0  0  0  0  0  0  0  0
    6.9841  -13.9843   26.7002 C   0  0  0  0  0  0  0  0  0  0  0  0
    7.0588  -12.9471   27.6273 C   0  0  0  0  0  0  0  0  0  0  0  0
    7.2851  -11.6796   27.1506 C   0  0  0  0  0  0  0  0  0  0  0  0
    7.4388  -11.3984   25.8112 C   0  0  0  0  0  0  0  0  0  0  0  0
    7.3592  -12.4472   24.9225 C   0  0  0  0  0  0  0  0  0  0  0  0
    7.1324  -13.7365   25.3690 C   0  0  0  0  0  0  0  0  0  0  0  0
    9.2661  -16.4051   23.4798 C   0  0  0  0  0  0  0  0  0  0  0  0
    9.1253  -17.6641   23.2401 O   0  0  0  0  0  0  0  0  0  0  0  0
   12.3118  -17.8984   22.7654 N   0  0  0  0  0  0  0  0  0  0  0  0
   13.1226  -17.1553   23.6960 C   0  0  0  0  0  0  0  0  0  0  0  0
   14.3060  -16.8834   23.4384 O   0  0  0  0  0  0  0  0  0  0  0  0
   12.4839  -16.7467   24.9390 C   0  0  0  0  0  0  0  0  0  0  0  0
   11.0747  -17.2158   25.0608 C   0  0  2  0  0  0  0  0  0  0  0  0
   10.2627  -16.1330   24.4467 N   0  0  0  0  0  0  0  0  0  0  0  0
   10.6718  -17.3816   26.4647 C   0  0  0  0  0  0  0  0  0  0  0  0
    9.7075  -16.5996   27.0437 O   0  0  0  0  0  0  0  0  0  0  0  0
   11.2024  -18.2612   27.2119 O   0  0  0  0  0  0  0  0  0  0  0  0
  1  2  1  0
  2  3  2  0
  4  2  1  0
  4  5  1  0
  6  5  1  0
  6  7  1  1
  8  6  1  0
  8  9  2  0
 10  8  1  0
 11 10  1  0
 11 12  1  1
 13 12  1  0
 13 14  2  0
 15 14  1  0
 16 21  2  0
 16 15  1  0
 17 16  1  0
 18 17  2  0
 19 18  1  0
 19 20  2  0
 20 21  1  0
 21 13  1  0
 22 11  1  0
 23 22  2  0
 25 26  2  0
 25 24  1  0
 27 25  1  0
 28 27  1  1
 28 29  1  0
 29 22  1  0
 30 28  1  0
 31 30  1  0
 32 30  2  0
M  END
$$$$
