QWN.pdb
     RDKit          3D

 32 33  0  0  1  0  0  0  0  0999 V2000
    8.3304  -12.3605   18.3265 N   0  0  0  0  0  0  0  0  0  0  0  0
    7.7559  -13.6464   18.1497 C   0  0  0  0  0  0  0  0  0  0  0  0
    6.7481  -13.7973   17.4385 O   0  0  0  0  0  0  0  0  0  0  0  0
    8.3721  -14.8018   18.8209 C   0  0  0  0  0  0  0  0  0  0  0  0
    9.5240  -14.4448   19.6939 C   0  0  0  0  0  0  0  0  0  0  0  0
   10.1058  -15.6325   20.4331 C   0  0  2  0  0  0  0  0  0  0  0  0
    9.3387  -16.8447   20.1014 N   0  0  0  0  0  0  0  0  0  0  0  0
    9.9145  -15.3636   21.8822 C   0  0  0  0  0  0  0  0  0  0  0  0
   10.5316  -14.4358   22.4097 O   0  0  0  0  0  0  0  0  0  0  0  0
    9.0278  -16.1818   22.6190 N   0  0  0  0  0  0  0  0  0  0  0  0
    8.8679  -16.0495   24.0717 C   0  0  1  0  0  0  0  0  0  0  0  0
    7.4693  -16.3451   24.4693 C   0  0  0  0  0  0  0  0  0  0  0  0
    6.8362  -15.2490   25.1963 C   0  0  0  0  0  0  0  0  0  0  0  0
    5.6001  -15.2879   25.7959 C   0  0  0  0  0  0  0  0  0  0  0  0
    5.3675  -14.0914   26.3216 N   0  0  0  0  0  0  0  0  0  0  0  0
    6.4177  -13.2615   26.0855 C   0  0  0  0  0  0  0  0  0  0  0  0
    6.6419  -11.9303   26.4294 C   0  0  0  0  0  0  0  0  0  0  0  0
    7.8272  -11.3599   26.0355 C   0  0  0  0  0  0  0  0  0  0  0  0
    8.7883  -12.0432   25.3241 C   0  0  0  0  0  0  0  0  0  0  0  0
    8.5338  -13.3574   25.0011 C   0  0  0  0  0  0  0  0  0  0  0  0
    7.3502  -13.9627   25.3825 C   0  0  0  0  0  0  0  0  0  0  0  0
    9.9367  -16.8459   24.6814 C   0  0  0  0  0  0  0  0  0  0  0  0
   10.1796  -16.7398   25.9433 O   0  0  0  0  0  0  0  0  0  0  0  0
   12.2690  -22.1667   24.8459 N   0  0  0  0  0  0  0  0  0  0  0  0
   12.7528  -20.8687   24.4502 C   0  0  0  0  0  0  0  0  0  0  0  0
   13.9598  -20.5875   24.5189 O   0  0  0  0  0  0  0  0  0  0  0  0
   11.7593  -19.9181   23.9715 C   0  0  0  0  0  0  0  0  0  0  0  0
   11.6895  -18.6745   24.7895 C   0  0  2  0  0  0  0  0  0  0  0  0
   10.7829  -17.7744   24.0302 N   0  0  0  0  0  0  0  0  0  0  0  0
   13.0047  -18.0316   24.9224 C   0  0  0  0  0  0  0  0  0  0  0  0
   13.4219  -17.0423   24.0716 O   0  0  0  0  0  0  0  0  0  0  0  0
   13.8215  -18.3655   25.8361 O   0  0  0  0  0  0  0  0  0  0  0  0
  1  2  1  0
  2  3  2  0
  4  2  1  0
  4  5  1  0
  6  5  1  0
  6  7  1  6
  8  6  1  0
  8  9  2  0
 10  8  1  0
 11 10  1  0
 11 12  1  1
 13 12  1  0
 13 14  2  0
 15 14  1  0
 16 21  2  0
 16 15  1  0
 17 16  1  0
 18 17  2  0
 19 18  1  0
 19 20  2  0
 20 21  1  0
 21 13  1  0
 22 11  1  0
 23 22  2  0
 25 26  2  0
 25 24  1  0
 27 25  1  0
 28 27  1  6
 28 29  1  0
 29 22  1  0
 30 28  1  0
 31 30  1  0
 32 30  2  0
M  END
$$$$
