GHL.pdb
     RDKit          3D

 23 23  0  0  1  0  0  0  0  0999 V2000
    4.8267  -19.3953   21.9984 N   0  0  0  0  0  0  0  0  0  0  0  0
    5.0099  -18.0604   22.5002 C   0  0  0  0  0  0  0  0  0  0  0  0
    6.4076  -17.5836   22.3260 C   0  0  0  0  0  0  0  0  0  0  0  0
    7.3374  -18.4296   22.3444 O   0  0  0  0  0  0  0  0  0  0  0  0
    6.7502  -16.2337   22.1410 N   0  0  0  0  0  0  0  0  0  0  0  0
    8.1352  -15.8512   21.9031 C   0  0  1  0  0  0  0  0  0  0  0  0
    8.2493  -14.9523   20.7170 C   0  0  0  0  0  0  0  0  0  0  0  0
    8.1778  -15.6717   19.4460 C   0  0  0  0  0  0  0  0  0  0  0  0
    9.2499  -16.4665   19.0091 C   0  0  0  0  0  0  0  0  0  0  0  0
    8.9625  -17.0234   17.8301 N   0  0  0  0  0  0  0  0  0  0  0  0
    7.7231  -16.5934   17.5123 C   0  0  0  0  0  0  0  0  0  0  0  0
    7.2670  -15.7870   18.4865 N   0  0  0  0  0  0  0  0  0  0  0  0
    8.6056  -15.2554   23.1773 C   0  0  0  0  0  0  0  0  0  0  0  0
    9.1271  -14.1248   23.2207 O   0  0  0  0  0  0  0  0  0  0  0  0
    6.0604  -12.6313   26.8872 C   0  0  0  0  0  0  0  0  0  0  0  0
    7.4584  -13.2631   26.8471 C   0  0  2  0  0  0  0  0  0  0  0  0
    8.4586  -12.1577   26.8401 C   0  0  0  0  0  0  0  0  0  0  0  0
    7.4976  -14.1384   25.6448 C   0  0  0  0  0  0  0  0  0  0  0  0
    8.5321  -15.2296   25.7010 C   0  0  2  0  0  0  0  0  0  0  0  0
    8.4894  -15.9373   24.4178 N   0  0  0  0  0  0  0  0  0  0  0  0
    8.3269  -16.1458   26.8301 C   0  0  0  0  0  0  0  0  0  0  0  0
    9.2460  -16.0815   27.8932 O   0  0  0  0  0  0  0  0  0  0  0  0
    7.4082  -16.9732   26.9232 O   0  0  0  0  0  0  0  0  0  0  0  0
  2  3  1  0
  2  1  1  0
  3  4  2  0
  5  6  1  0
  5  3  1  0
  6  7  1  6
  8  7  1  0
  8  9  2  0
 10  9  1  0
 11 10  1  0
 12 11  2  0
 12  8  1  0
 13  6  1  0
 13 20  1  0
 14 13  2  0
 16 15  1  6
 16 17  1  0
 18 16  1  0
 19 20  1  0
 19 18  1  6
 21 19  1  0
 22 21  1  0
 23 21  2  0
M  END
$$$$
