GHL.pdb
     RDKit          3D

 23 23  0  0  1  0  0  0  0  0999 V2000
    6.2772  -18.6913   20.0684 N   0  0  0  0  0  0  0  0  0  0  0  0
    6.1892  -17.7880   21.1835 C   0  0  0  0  0  0  0  0  0  0  0  0
    7.3657  -16.8823   21.2647 C   0  0  0  0  0  0  0  0  0  0  0  0
    8.5154  -17.3908   21.2750 O   0  0  0  0  0  0  0  0  0  0  0  0
    7.2651  -15.4825   21.3311 N   0  0  0  0  0  0  0  0  0  0  0  0
    8.4649  -14.6571   21.3340 C   0  0  1  0  0  0  0  0  0  0  0  0
    8.2910  -13.4514   20.4714 C   0  0  0  0  0  0  0  0  0  0  0  0
    8.2664  -13.7688   19.0441 C   0  0  0  0  0  0  0  0  0  0  0  0
    9.4380  -13.7012   18.2730 C   0  0  0  0  0  0  0  0  0  0  0  0
    9.1772  -14.0312   17.0057 N   0  0  0  0  0  0  0  0  0  0  0  0
    7.8568  -14.3074   16.9615 C   0  0  0  0  0  0  0  0  0  0  0  0
    7.3259  -14.1465   18.1861 N   0  0  0  0  0  0  0  0  0  0  0  0
    8.7381  -14.3611   22.7614 C   0  0  0  0  0  0  0  0  0  0  0  0
    9.8237  -13.8781   23.1360 O   0  0  0  0  0  0  0  0  0  0  0  0
    5.4786  -12.3015   27.3106 C   0  0  0  0  0  0  0  0  0  0  0  0
    6.8568  -12.8986   26.9956 C   0  0  2  0  0  0  0  0  0  0  0  0
    7.8753  -11.8299   27.2032 C   0  0  0  0  0  0  0  0  0  0  0  0
    6.7878  -13.4235   25.6054 C   0  0  0  0  0  0  0  0  0  0  0  0
    8.0008  -14.2005   25.1709 C   0  0  2  0  0  0  0  0  0  0  0  0
    7.7809  -14.6106   23.7807 N   0  0  0  0  0  0  0  0  0  0  0  0
    8.2739  -15.3541   26.0375 C   0  0  0  0  0  0  0  0  0  0  0  0
    8.1294  -16.6360   25.4763 O   0  0  0  0  0  0  0  0  0  0  0  0
    8.6222  -15.2906   27.2258 O   0  0  0  0  0  0  0  0  0  0  0  0
  2  3  1  0
  2  1  1  0
  3  4  2  0
  5  6  1  0
  5  3  1  0
  6  7  1  6
  8  7  1  0
  8  9  2  0
 10  9  1  0
 11 10  1  0
 12 11  2  0
 12  8  1  0
 13  6  1  0
 13 20  1  0
 14 13  2  0
 16 15  1  6
 16 17  1  0
 18 16  1  0
 19 20  1  0
 19 18  1  1
 21 19  1  0
 22 21  1  0
 23 21  2  0
M  END
$$$$
