GHL.pdb
     RDKit          3D

 23 23  0  0  1  0  0  0  0  0999 V2000
    4.2360  -17.2750   20.6488 N   0  0  0  0  0  0  0  0  0  0  0  0
    4.8942  -16.1486   21.2532 C   0  0  0  0  0  0  0  0  0  0  0  0
    6.2777  -16.4760   21.6888 C   0  0  0  0  0  0  0  0  0  0  0  0
    6.5170  -17.6375   22.1059 O   0  0  0  0  0  0  0  0  0  0  0  0
    7.3390  -15.5557   21.6606 N   0  0  0  0  0  0  0  0  0  0  0  0
    8.6681  -15.9502   22.1065 C   0  0  1  0  0  0  0  0  0  0  0  0
    9.6945  -15.6593   21.0627 C   0  0  0  0  0  0  0  0  0  0  0  0
    9.6787  -16.6219   19.9619 C   0  0  0  0  0  0  0  0  0  0  0  0
    9.5860  -18.0001   20.2144 C   0  0  0  0  0  0  0  0  0  0  0  0
    9.5889  -18.6819   19.0662 N   0  0  0  0  0  0  0  0  0  0  0  0
    9.6821  -17.7559   18.0887 C   0  0  0  0  0  0  0  0  0  0  0  0
    9.7349  -16.5302   18.6384 N   0  0  0  0  0  0  0  0  0  0  0  0
    8.8792  -15.2447   23.3939 C   0  0  0  0  0  0  0  0  0  0  0  0
    9.2966  -14.0717   23.4395 O   0  0  0  0  0  0  0  0  0  0  0  0
    8.4308  -12.3092   26.0178 C   0  0  0  0  0  0  0  0  0  0  0  0
    7.2484  -13.2198   25.6603 C   0  0  2  0  0  0  0  0  0  0  0  0
    5.9996  -12.5482   26.1209 C   0  0  0  0  0  0  0  0  0  0  0  0
    7.5134  -14.5360   26.3010 C   0  0  0  0  0  0  0  0  0  0  0  0
    8.8257  -15.1638   25.9170 C   0  0  2  0  0  0  0  0  0  0  0  0
    8.6187  -15.8636   24.6455 N   0  0  0  0  0  0  0  0  0  0  0  0
    9.3452  -16.0668   26.9520 C   0  0  0  0  0  0  0  0  0  0  0  0
   10.3459  -15.5679   27.8057 O   0  0  0  0  0  0  0  0  0  0  0  0
    8.9732  -17.2352   27.1354 O   0  0  0  0  0  0  0  0  0  0  0  0
  2  3  1  0
  2  1  1  0
  3  4  2  0
  5  6  1  0
  5  3  1  0
  6  7  1  6
  8  7  1  0
  8  9  2  0
 10  9  1  0
 11 10  1  0
 12 11  2  0
 12  8  1  0
 13  6  1  0
 13 20  1  0
 14 13  2  0
 16 15  1  1
 16 17  1  0
 18 16  1  0
 19 20  1  0
 19 18  1  1
 21 19  1  0
 22 21  1  0
 23 21  2  0
M  END
$$$$
