GHL.pdb
     RDKit          3D

 23 23  0  0  1  0  0  0  0  0999 V2000
    6.8813  -19.0386   20.0997 N   0  0  0  0  0  0  0  0  0  0  0  0
    6.6450  -18.1265   21.1857 C   0  0  0  0  0  0  0  0  0  0  0  0
    7.6279  -17.0108   21.2039 C   0  0  0  0  0  0  0  0  0  0  0  0
    8.8188  -17.2543   20.8830 O   0  0  0  0  0  0  0  0  0  0  0  0
    7.2995  -15.6923   21.5613 N   0  0  0  0  0  0  0  0  0  0  0  0
    8.3171  -14.6505   21.5487 C   0  0  1  0  0  0  0  0  0  0  0  0
    7.8832  -13.4841   20.7247 C   0  0  0  0  0  0  0  0  0  0  0  0
    7.9397  -13.7473   19.2874 C   0  0  0  0  0  0  0  0  0  0  0  0
    8.8475  -13.0591   18.4663 C   0  0  0  0  0  0  0  0  0  0  0  0
    8.7208  -13.4602   17.1990 N   0  0  0  0  0  0  0  0  0  0  0  0
    7.7456  -14.3933   17.2041 C   0  0  0  0  0  0  0  0  0  0  0  0
    7.2884  -14.5543   18.4580 N   0  0  0  0  0  0  0  0  0  0  0  0
    8.5794  -14.3364   22.9742 C   0  0  0  0  0  0  0  0  0  0  0  0
    9.1376  -13.2781   23.3217 O   0  0  0  0  0  0  0  0  0  0  0  0
    5.6328  -12.3149   26.8427 C   0  0  0  0  0  0  0  0  0  0  0  0
    6.9141  -13.1585   26.8837 C   0  0  2  0  0  0  0  0  0  0  0  0
    8.0250  -12.2788   27.3471 C   0  0  0  0  0  0  0  0  0  0  0  0
    7.1002  -13.7200   25.5187 C   0  0  0  0  0  0  0  0  0  0  0  0
    8.1556  -14.7880   25.4220 C   0  0  2  0  0  0  0  0  0  0  0  0
    8.2107  -15.2211   24.0225 N   0  0  0  0  0  0  0  0  0  0  0  0
    7.9029  -15.9166   26.3269 C   0  0  0  0  0  0  0  0  0  0  0  0
    7.0654  -16.9467   25.8614 O   0  0  0  0  0  0  0  0  0  0  0  0
    8.3681  -16.0362   27.4699 O   0  0  0  0  0  0  0  0  0  0  0  0
  2  3  1  0
  2  1  1  0
  3  4  2  0
  5  6  1  0
  5  3  1  0
  6  7  1  6
  8  7  1  0
  8  9  2  0
 10  9  1  0
 11 10  1  0
 12 11  2  0
 12  8  1  0
 13  6  1  0
 13 20  1  0
 14 13  2  0
 16 15  1  6
 16 17  1  0
 18 16  1  0
 19 20  1  0
 19 18  1  6
 21 19  1  0
 22 21  1  0
 23 21  2  0
M  END
$$$$
