GHL.pdb
     RDKit          3D

 23 23  0  0  1  0  0  0  0  0999 V2000
    8.2170  -12.7563   18.1615 N   0  0  0  0  0  0  0  0  0  0  0  0
    9.1985  -13.2897   19.0667 C   0  0  0  0  0  0  0  0  0  0  0  0
    8.5752  -14.0247   20.1990 C   0  0  0  0  0  0  0  0  0  0  0  0
    7.3233  -14.0040   20.3119 O   0  0  0  0  0  0  0  0  0  0  0  0
    9.3100  -14.7453   21.1556 N   0  0  0  0  0  0  0  0  0  0  0  0
    8.6343  -15.6509   22.0744 C   0  0  1  0  0  0  0  0  0  0  0  0
    8.9888  -17.0721   21.7877 C   0  0  0  0  0  0  0  0  0  0  0  0
    8.2945  -17.6095   20.6183 C   0  0  0  0  0  0  0  0  0  0  0  0
    8.9022  -17.5945   19.3525 C   0  0  0  0  0  0  0  0  0  0  0  0
    8.0876  -18.1332   18.4419 N   0  0  0  0  0  0  0  0  0  0  0  0
    6.9715  -18.4900   19.1118 C   0  0  0  0  0  0  0  0  0  0  0  0
    7.1093  -18.1711   20.4106 N   0  0  0  0  0  0  0  0  0  0  0  0
    9.0032  -15.1841   23.4329 C   0  0  0  0  0  0  0  0  0  0  0  0
   10.1909  -15.0188   23.7707 O   0  0  0  0  0  0  0  0  0  0  0  0
    7.8785  -11.7675   26.2527 C   0  0  0  0  0  0  0  0  0  0  0  0
    6.7526  -12.7664   25.9529 C   0  0  2  0  0  0  0  0  0  0  0  0
    5.4953  -12.2284   26.5464 C   0  0  0  0  0  0  0  0  0  0  0  0
    7.1851  -14.0772   26.5078 C   0  0  0  0  0  0  0  0  0  0  0  0
    8.3863  -14.6766   25.8281 C   0  0  2  0  0  0  0  0  0  0  0  0
    8.0268  -14.8997   24.4245 N   0  0  0  0  0  0  0  0  0  0  0  0
    8.8413  -15.9152   26.4725 C   0  0  0  0  0  0  0  0  0  0  0  0
    9.7773  -15.7978   27.5162 O   0  0  0  0  0  0  0  0  0  0  0  0
    8.4674  -17.0583   26.1712 O   0  0  0  0  0  0  0  0  0  0  0  0
  2  3  1  0
  2  1  1  0
  3  4  2  0
  5  6  1  0
  5  3  1  0
  6  7  1  6
  8  7  1  0
  8  9  2  0
 10  9  1  0
 11 10  1  0
 12 11  2  0
 12  8  1  0
 13  6  1  0
 13 20  1  0
 14 13  2  0
 16 15  1  1
 16 17  1  0
 18 16  1  0
 19 20  1  0
 19 18  1  1
 21 19  1  0
 22 21  1  0
 23 21  2  0
M  END
$$$$
