GHL.pdb
     RDKit          3D

 23 23  0  0  1  0  0  0  0  0999 V2000
    6.6762  -15.9926   19.5290 N   0  0  0  0  0  0  0  0  0  0  0  0
    6.7635  -14.9940   20.5597 C   0  0  0  0  0  0  0  0  0  0  0  0
    7.2980  -15.5477   21.8321 C   0  0  0  0  0  0  0  0  0  0  0  0
    6.4847  -15.9820   22.6866 O   0  0  0  0  0  0  0  0  0  0  0  0
    8.6684  -15.6134   22.1354 N   0  0  0  0  0  0  0  0  0  0  0  0
    9.1293  -16.3475   23.3056 C   0  0  1  0  0  0  0  0  0  0  0  0
   10.2950  -17.2175   22.9708 C   0  0  0  0  0  0  0  0  0  0  0  0
    9.9349  -18.3546   22.1248 C   0  0  0  0  0  0  0  0  0  0  0  0
    9.2243  -19.4452   22.6516 C   0  0  0  0  0  0  0  0  0  0  0  0
    9.0086  -20.3589   21.7021 N   0  0  0  0  0  0  0  0  0  0  0  0
    9.5722  -19.8637   20.5801 C   0  0  0  0  0  0  0  0  0  0  0  0
   10.1216  -18.6662   20.8475 N   0  0  0  0  0  0  0  0  0  0  0  0
    9.4036  -15.3170   24.3364 C   0  0  0  0  0  0  0  0  0  0  0  0
   10.3295  -14.4929   24.2113 O   0  0  0  0  0  0  0  0  0  0  0  0
    7.9022  -11.8196   25.5925 C   0  0  0  0  0  0  0  0  0  0  0  0
    7.0207  -12.9630   26.1129 C   0  0  2  0  0  0  0  0  0  0  0  0
    5.7424  -12.3691   26.5984 C   0  0  0  0  0  0  0  0  0  0  0  0
    7.8093  -13.6690   27.1583 C   0  0  0  0  0  0  0  0  0  0  0  0
    9.0413  -14.3650   26.6467 C   0  0  2  0  0  0  0  0  0  0  0  0
    8.6291  -15.2105   25.5223 N   0  0  0  0  0  0  0  0  0  0  0  0
    9.7235  -15.1450   27.6872 C   0  0  0  0  0  0  0  0  0  0  0  0
   10.4512  -14.4340   28.6589 O   0  0  0  0  0  0  0  0  0  0  0  0
    9.7106  -16.3813   27.7796 O   0  0  0  0  0  0  0  0  0  0  0  0
  2  3  1  0
  2  1  1  0
  3  4  2  0
  5  6  1  0
  5  3  1  0
  6  7  1  6
  8  7  1  0
  8  9  2  0
 10  9  1  0
 11 10  1  0
 12 11  2  0
 12  8  1  0
 13  6  1  0
 13 20  1  0
 14 13  2  0
 16 15  1  1
 16 17  1  0
 18 16  1  0
 19 20  1  0
 19 18  1  1
 21 19  1  0
 22 21  1  0
 23 21  2  0
M  END
$$$$
