GHL.pdb
     RDKit          3D

 23 23  0  0  1  0  0  0  0  0999 V2000
    8.0015  -12.6085   18.4214 N   0  0  0  0  0  0  0  0  0  0  0  0
    8.8853  -13.5110   19.1082 C   0  0  0  0  0  0  0  0  0  0  0  0
    8.2115  -14.2020   20.2394 C   0  0  0  0  0  0  0  0  0  0  0  0
    7.0165  -13.9085   20.4963 O   0  0  0  0  0  0  0  0  0  0  0  0
    8.8383  -15.1699   21.0423 N   0  0  0  0  0  0  0  0  0  0  0  0
    8.0865  -15.8693   22.0750 C   0  0  1  0  0  0  0  0  0  0  0  0
    8.1468  -17.3475   21.8771 C   0  0  0  0  0  0  0  0  0  0  0  0
    7.4086  -18.0911   22.8971 C   0  0  0  0  0  0  0  0  0  0  0  0
    8.0767  -18.9518   23.7828 C   0  0  0  0  0  0  0  0  0  0  0  0
    7.2061  -19.5196   24.6211 N   0  0  0  0  0  0  0  0  0  0  0  0
    5.9949  -19.0314   24.2800 C   0  0  0  0  0  0  0  0  0  0  0  0
    6.1312  -18.1796   23.2489 N   0  0  0  0  0  0  0  0  0  0  0  0
    8.6482  -15.3951   23.3631 C   0  0  0  0  0  0  0  0  0  0  0  0
    9.8731  -15.2369   23.5270 O   0  0  0  0  0  0  0  0  0  0  0  0
    7.6363  -11.6758   25.8995 C   0  0  0  0  0  0  0  0  0  0  0  0
    6.5801  -12.7892   25.9010 C   0  0  2  0  0  0  0  0  0  0  0  0
    5.3854  -12.2838   26.6358 C   0  0  0  0  0  0  0  0  0  0  0  0
    7.2202  -13.9849   26.5125 C   0  0  0  0  0  0  0  0  0  0  0  0
    8.3729  -14.5465   25.7252 C   0  0  2  0  0  0  0  0  0  0  0  0
    7.8249  -15.0949   24.4809 N   0  0  0  0  0  0  0  0  0  0  0  0
    9.1297  -15.5580   26.4739 C   0  0  0  0  0  0  0  0  0  0  0  0
    8.7025  -16.8946   26.3728 O   0  0  0  0  0  0  0  0  0  0  0  0
   10.1164  -15.3300   27.1892 O   0  0  0  0  0  0  0  0  0  0  0  0
  2  3  1  0
  2  1  1  0
  3  4  2  0
  5  6  1  0
  5  3  1  0
  6  7  1  6
  8  7  1  0
  8  9  2  0
 10  9  1  0
 11 10  1  0
 12 11  2  0
 12  8  1  0
 13  6  1  0
 13 20  1  0
 14 13  2  0
 16 15  1  1
 16 17  1  0
 18 16  1  0
 19 20  1  0
 19 18  1  1
 21 19  1  0
 22 21  1  0
 23 21  2  0
M  END
$$$$
