GHL.pdb
     RDKit          3D

 23 23  0  0  1  0  0  0  0  0999 V2000
    8.4760  -16.9018   17.7833 N   0  0  0  0  0  0  0  0  0  0  0  0
    9.4420  -16.8893   18.8482 C   0  0  0  0  0  0  0  0  0  0  0  0
    8.8023  -16.9996   20.1860 C   0  0  0  0  0  0  0  0  0  0  0  0
    7.5497  -16.9230   20.2608 O   0  0  0  0  0  0  0  0  0  0  0  0
    9.5222  -17.1856   21.3781 N   0  0  0  0  0  0  0  0  0  0  0  0
    8.8208  -17.3736   22.6405 C   0  0  1  0  0  0  0  0  0  0  0  0
    9.2712  -18.6206   23.3261 C   0  0  0  0  0  0  0  0  0  0  0  0
    8.8129  -19.8377   22.6574 C   0  0  0  0  0  0  0  0  0  0  0  0
    7.5561  -19.8842   22.0327 C   0  0  0  0  0  0  0  0  0  0  0  0
    7.3527  -21.0881   21.4921 N   0  0  0  0  0  0  0  0  0  0  0  0
    8.4624  -21.8063   21.7647 C   0  0  0  0  0  0  0  0  0  0  0  0
    9.3258  -21.0467   22.4611 N   0  0  0  0  0  0  0  0  0  0  0  0
    9.0515  -16.1274   23.4108 C   0  0  0  0  0  0  0  0  0  0  0  0
   10.1615  -15.5620   23.4284 O   0  0  0  0  0  0  0  0  0  0  0  0
    7.6117  -12.7860   27.2931 C   0  0  0  0  0  0  0  0  0  0  0  0
    7.0086  -12.3578   25.9484 C   0  0  2  0  0  0  0  0  0  0  0  0
    5.6801  -11.7386   26.2207 C   0  0  0  0  0  0  0  0  0  0  0  0
    6.9586  -13.5755   25.0952 C   0  0  0  0  0  0  0  0  0  0  0  0
    8.2674  -14.3080   24.9761 C   0  0  2  0  0  0  0  0  0  0  0  0
    8.0235  -15.5085   24.1708 N   0  0  0  0  0  0  0  0  0  0  0  0
    8.8490  -14.6430   26.2822 C   0  0  0  0  0  0  0  0  0  0  0  0
    9.9751  -13.9096   26.6985 O   0  0  0  0  0  0  0  0  0  0  0  0
    8.4280  -15.5211   27.0497 O   0  0  0  0  0  0  0  0  0  0  0  0
  2  3  1  0
  2  1  1  0
  3  4  2  0
  5  6  1  0
  5  3  1  0
  6  7  1  1
  8  7  1  0
  8  9  2  0
 10  9  1  0
 11 10  1  0
 12 11  2  0
 12  8  1  0
 13  6  1  0
 13 20  1  0
 14 13  2  0
 16 15  1  1
 16 17  1  0
 18 16  1  0
 19 20  1  0
 19 18  1  1
 21 19  1  0
 22 21  1  0
 23 21  2  0
M  END
$$$$
