GHL.pdb
     RDKit          3D

 23 23  0  0  1  0  0  0  0  0999 V2000
    5.6693  -20.0899   23.2928 N   0  0  0  0  0  0  0  0  0  0  0  0
    5.6041  -18.6588   23.4150 C   0  0  0  0  0  0  0  0  0  0  0  0
    6.9024  -18.0094   23.0926 C   0  0  0  0  0  0  0  0  0  0  0  0
    7.9192  -18.7357   22.9551 O   0  0  0  0  0  0  0  0  0  0  0  0
    7.0582  -16.6224   22.9319 N   0  0  0  0  0  0  0  0  0  0  0  0
    8.3696  -16.0565   22.6478 C   0  0  1  0  0  0  0  0  0  0  0  0
    8.3568  -15.2814   21.3723 C   0  0  0  0  0  0  0  0  0  0  0  0
    8.0905  -16.1143   20.2003 C   0  0  0  0  0  0  0  0  0  0  0  0
    9.1459  -16.6737   19.4619 C   0  0  0  0  0  0  0  0  0  0  0  0
    8.6678  -17.3912   18.4424 N   0  0  0  0  0  0  0  0  0  0  0  0
    7.3239  -17.2953   18.5231 C   0  0  0  0  0  0  0  0  0  0  0  0
    6.9936  -16.5297   19.5777 N   0  0  0  0  0  0  0  0  0  0  0  0
    8.7270  -15.2634   23.8490 C   0  0  0  0  0  0  0  0  0  0  0  0
    8.9395  -14.0373   23.7873 O   0  0  0  0  0  0  0  0  0  0  0  0
    8.6120  -12.1880   26.4972 C   0  0  0  0  0  0  0  0  0  0  0  0
    7.4858  -13.0136   25.8606 C   0  0  2  0  0  0  0  0  0  0  0  0
    6.2041  -12.2856   26.0840 C   0  0  0  0  0  0  0  0  0  0  0  0
    7.5437  -14.3650   26.4799 C   0  0  0  0  0  0  0  0  0  0  0  0
    8.8784  -15.0493   26.3603 C   0  0  2  0  0  0  0  0  0  0  0  0
    8.8476  -15.8539   25.1352 N   0  0  0  0  0  0  0  0  0  0  0  0
    9.2018  -15.8677   27.5358 C   0  0  0  0  0  0  0  0  0  0  0  0
    9.9162  -15.2512   28.5792 O   0  0  0  0  0  0  0  0  0  0  0  0
    8.8961  -17.0601   27.6844 O   0  0  0  0  0  0  0  0  0  0  0  0
  2  3  1  0
  2  1  1  0
  3  4  2  0
  5  6  1  0
  5  3  1  0
  6  7  1  6
  8  7  1  0
  8  9  2  0
 10  9  1  0
 11 10  1  0
 12 11  2  0
 12  8  1  0
 13  6  1  0
 13 20  1  0
 14 13  2  0
 16 15  1  1
 16 17  1  0
 18 16  1  0
 19 20  1  0
 19 18  1  1
 21 19  1  0
 22 21  1  0
 23 21  2  0
M  END
$$$$
