SLS.pdb
     RDKit          3D

 21 20  0  0  1  0  0  0  0  0999 V2000
    6.8763  -17.0317   21.3855 O   0  0  0  0  0  0  0  0  0  0  0  0
    7.5432  -16.2027   20.5061 C   0  0  0  0  0  0  0  0  0  0  0  0
    7.5490  -14.8075   21.0789 C   0  0  2  0  0  0  0  0  0  0  0  0
    8.0667  -13.8287   20.1758 N   0  0  0  0  0  0  0  0  0  0  0  0
    8.2462  -14.7514   22.3927 C   0  0  0  0  0  0  0  0  0  0  0  0
    9.5011  -14.7657   22.4835 O   0  0  0  0  0  0  0  0  0  0  0  0
    5.6759  -12.0986   26.7030 C   0  0  0  0  0  0  0  0  0  0  0  0
    6.8006  -12.5914   25.8502 C   0  0  1  0  0  0  0  0  0  0  0  0
    8.0404  -11.8079   26.2825 C   0  0  0  0  0  0  0  0  0  0  0  0
    7.0225  -14.0281   25.7542 C   0  0  0  0  0  0  0  0  0  0  0  0
    8.0753  -14.6373   24.9296 C   0  0  2  0  0  0  0  0  0  0  0  0
    7.4762  -14.6809   23.5554 N   0  0  0  0  0  0  0  0  0  0  0  0
    8.5015  -16.0015   25.2737 C   0  0  0  0  0  0  0  0  0  0  0  0
    7.7033  -16.9649   25.3739 O   0  0  0  0  0  0  0  0  0  0  0  0
   12.5065  -17.3450   24.8882 O   0  0  0  0  0  0  0  0  0  0  0  0
   11.3808  -18.1423   24.8564 C   0  0  0  0  0  0  0  0  0  0  0  0
   10.3155  -17.6839   25.8245 C   0  0  2  0  0  0  0  0  0  0  0  0
    9.8685  -16.3454   25.5243 N   0  0  0  0  0  0  0  0  0  0  0  0
   10.6966  -17.8612   27.2320 C   0  0  0  0  0  0  0  0  0  0  0  0
   10.6368  -16.7776   28.0957 O   0  0  0  0  0  0  0  0  0  0  0  0
   11.0807  -18.9599   27.7052 O   0  0  0  0  0  0  0  0  0  0  0  0
  1  2  1  0
  3  5  1  0
  3  4  1  6
  3  2  1  0
  5  6  2  0
  8  7  1  1
  8 10  1  0
  9  8  1  0
 11 10  1  1
 11 13  1  0
 12 11  1  0
 12  5  1  0
 13 18  1  0
 13 14  2  0
 15 16  1  0
 17 16  1  6
 18 17  1  0
 19 20  1  0
 19 17  1  0
 21 19  2  0
M  END
$$$$
