SLS.pdb
     RDKit          3D

 21 20  0  0  1  0  0  0  0  0999 V2000
    7.4990  -17.0576   20.9442 O   0  0  0  0  0  0  0  0  0  0  0  0
    6.4610  -16.1838   21.1979 C   0  0  0  0  0  0  0  0  0  0  0  0
    7.0295  -14.7921   21.3190 C   0  0  2  0  0  0  0  0  0  0  0  0
    7.6996  -14.3513   20.1365 N   0  0  0  0  0  0  0  0  0  0  0  0
    7.9017  -14.6528   22.5169 C   0  0  0  0  0  0  0  0  0  0  0  0
    9.1567  -14.6273   22.4294 O   0  0  0  0  0  0  0  0  0  0  0  0
    5.7938  -11.8833   26.8696 C   0  0  0  0  0  0  0  0  0  0  0  0
    6.8187  -12.4130   25.9187 C   0  0  1  0  0  0  0  0  0  0  0  0
    8.0217  -11.4749   26.0201 C   0  0  0  0  0  0  0  0  0  0  0  0
    7.1718  -13.8246   25.9926 C   0  0  0  0  0  0  0  0  0  0  0  0
    8.0841  -14.4874   25.0501 C   0  0  2  0  0  0  0  0  0  0  0  0
    7.3005  -14.5477   23.7728 N   0  0  0  0  0  0  0  0  0  0  0  0
    8.5162  -15.8548   25.3732 C   0  0  0  0  0  0  0  0  0  0  0  0
    7.7382  -16.8397   25.3668 O   0  0  0  0  0  0  0  0  0  0  0  0
   12.4361  -17.1248   24.9545 O   0  0  0  0  0  0  0  0  0  0  0  0
   11.3600  -17.9843   25.0407 C   0  0  0  0  0  0  0  0  0  0  0  0
   10.3173  -17.5139   26.0274 C   0  0  2  0  0  0  0  0  0  0  0  0
    9.8663  -16.1776   25.7238 N   0  0  0  0  0  0  0  0  0  0  0  0
   10.7290  -17.6779   27.4279 C   0  0  0  0  0  0  0  0  0  0  0  0
   11.2556  -18.8912   27.8456 O   0  0  0  0  0  0  0  0  0  0  0  0
   10.6287  -16.7635   28.2836 O   0  0  0  0  0  0  0  0  0  0  0  0
  1  2  1  0
  3  5  1  0
  3  4  1  6
  3  2  1  0
  5  6  2  0
  8  7  1  1
  8 10  1  0
  9  8  1  0
 11 10  1  1
 11 13  1  0
 12 11  1  0
 12  5  1  0
 13 18  1  0
 13 14  2  0
 15 16  1  0
 17 16  1  6
 18 17  1  0
 19 20  1  0
 19 17  1  0
 21 19  2  0
M  END
$$$$
