SLS.pdb
     RDKit          3D

 21 20  0  0  1  0  0  0  0  0999 V2000
    8.1426  -17.0289   21.0264 O   0  0  0  0  0  0  0  0  0  0  0  0
    6.9545  -16.3337   21.1294 C   0  0  0  0  0  0  0  0  0  0  0  0
    7.2737  -14.8743   21.3367 C   0  0  2  0  0  0  0  0  0  0  0  0
    7.8997  -14.2671   20.2048 N   0  0  0  0  0  0  0  0  0  0  0  0
    8.0676  -14.6518   22.5759 C   0  0  0  0  0  0  0  0  0  0  0  0
    9.3203  -14.5355   22.5542 O   0  0  0  0  0  0  0  0  0  0  0  0
    5.5687  -11.8450   26.7715 C   0  0  0  0  0  0  0  0  0  0  0  0
    6.6714  -12.3254   25.8835 C   0  0  1  0  0  0  0  0  0  0  0  0
    7.8382  -11.3591   26.0892 C   0  0  0  0  0  0  0  0  0  0  0  0
    7.0572  -13.7287   25.9511 C   0  0  0  0  0  0  0  0  0  0  0  0
    8.0930  -14.3316   25.1007 C   0  0  2  0  0  0  0  0  0  0  0  0
    7.3934  -14.5710   23.7960 N   0  0  0  0  0  0  0  0  0  0  0  0
    8.6697  -15.6109   25.5388 C   0  0  0  0  0  0  0  0  0  0  0  0
    8.0175  -16.6827   25.5692 O   0  0  0  0  0  0  0  0  0  0  0  0
   11.7615  -17.1676   24.3671 O   0  0  0  0  0  0  0  0  0  0  0  0
   11.8718  -17.3248   25.7336 C   0  0  0  0  0  0  0  0  0  0  0  0
   10.5986  -16.9697   26.4648 C   0  0  2  0  0  0  0  0  0  0  0  0
   10.0291  -15.7403   25.9692 N   0  0  0  0  0  0  0  0  0  0  0  0
   10.7455  -16.9876   27.9263 C   0  0  0  0  0  0  0  0  0  0  0  0
   11.2158  -18.1338   28.5498 O   0  0  0  0  0  0  0  0  0  0  0  0
   10.4635  -16.0043   28.6558 O   0  0  0  0  0  0  0  0  0  0  0  0
  1  2  1  0
  3  5  1  0
  3  4  1  6
  3  2  1  0
  5  6  2  0
  8  7  1  1
  8 10  1  0
  9  8  1  0
 11 10  1  1
 11 13  1  0
 12 11  1  0
 12  5  1  0
 13 18  1  0
 13 14  2  0
 15 16  1  0
 17 16  1  6
 18 17  1  0
 19 20  1  0
 19 17  1  0
 21 19  2  0
M  END
$$$$
