SLS.pdb
     RDKit          3D

 21 20  0  0  1  0  0  0  0  0999 V2000
    6.4835  -17.0959   21.7083 O   0  0  0  0  0  0  0  0  0  0  0  0
    7.1549  -16.4304   20.7024 C   0  0  0  0  0  0  0  0  0  0  0  0
    7.2251  -14.9679   21.0641 C   0  0  2  0  0  0  0  0  0  0  0  0
    7.7264  -14.1484   20.0063 N   0  0  0  0  0  0  0  0  0  0  0  0
    7.9842  -14.7452   22.3248 C   0  0  0  0  0  0  0  0  0  0  0  0
    9.2363  -14.6219   22.3372 O   0  0  0  0  0  0  0  0  0  0  0  0
    5.6344  -11.8358   26.4935 C   0  0  0  0  0  0  0  0  0  0  0  0
    6.7229  -12.4116   25.6457 C   0  0  1  0  0  0  0  0  0  0  0  0
    7.9744  -11.5824   25.9348 C   0  0  0  0  0  0  0  0  0  0  0  0
    6.9525  -13.8496   25.6911 C   0  0  0  0  0  0  0  0  0  0  0  0
    7.9479  -14.5431   24.8617 C   0  0  2  0  0  0  0  0  0  0  0  0
    7.2770  -14.6722   23.5266 N   0  0  0  0  0  0  0  0  0  0  0  0
    8.3632  -15.8885   25.2841 C   0  0  0  0  0  0  0  0  0  0  0  0
    7.5661  -16.8529   25.3835 O   0  0  0  0  0  0  0  0  0  0  0  0
   12.2410  -17.3339   24.8589 O   0  0  0  0  0  0  0  0  0  0  0  0
   11.1248  -18.1230   25.0476 C   0  0  0  0  0  0  0  0  0  0  0  0
   10.1488  -17.5242   26.0329 C   0  0  2  0  0  0  0  0  0  0  0  0
    9.7173  -16.2113   25.6188 N   0  0  0  0  0  0  0  0  0  0  0  0
   10.6300  -17.5607   27.4203 C   0  0  0  0  0  0  0  0  0  0  0  0
   11.0399  -18.7674   27.9677 O   0  0  0  0  0  0  0  0  0  0  0  0
   10.6920  -16.5410   28.1516 O   0  0  0  0  0  0  0  0  0  0  0  0
  1  2  1  0
  3  5  1  0
  3  4  1  6
  3  2  1  0
  5  6  2  0
  8  7  1  1
  8 10  1  0
  9  8  1  0
 11 10  1  1
 11 13  1  0
 12 11  1  0
 12  5  1  0
 13 18  1  0
 13 14  2  0
 15 16  1  0
 17 16  1  6
 18 17  1  0
 19 20  1  0
 19 17  1  0
 21 19  2  0
M  END
$$$$
