SLS.pdb
     RDKit          3D

 21 20  0  0  1  0  0  0  0  0999 V2000
    7.2073  -16.6628   20.7648 O   0  0  0  0  0  0  0  0  0  0  0  0
    6.4055  -15.5393   20.7503 C   0  0  0  0  0  0  0  0  0  0  0  0
    7.2747  -14.3314   20.9955 C   0  0  2  0  0  0  0  0  0  0  0  0
    8.1638  -14.0468   19.9137 N   0  0  0  0  0  0  0  0  0  0  0  0
    8.0099  -14.4311   22.2858 C   0  0  0  0  0  0  0  0  0  0  0  0
    9.2434  -14.6748   22.3341 O   0  0  0  0  0  0  0  0  0  0  0  0
    5.6943  -11.7547   26.6893 C   0  0  0  0  0  0  0  0  0  0  0  0
    6.7773  -12.2852   25.8056 C   0  0  1  0  0  0  0  0  0  0  0  0
    8.0465  -11.5175   26.1763 C   0  0  0  0  0  0  0  0  0  0  0  0
    6.9690  -13.7275   25.7301 C   0  0  0  0  0  0  0  0  0  0  0  0
    7.9320  -14.3761   24.8292 C   0  0  2  0  0  0  0  0  0  0  0  0
    7.3011  -14.2471   23.4747 N   0  0  0  0  0  0  0  0  0  0  0  0
    8.2175  -15.8005   25.0543 C   0  0  0  0  0  0  0  0  0  0  0  0
    7.5217  -16.7248   24.5679 O   0  0  0  0  0  0  0  0  0  0  0  0
   11.2407  -18.7501   23.9761 O   0  0  0  0  0  0  0  0  0  0  0  0
   10.5159  -17.5979   24.2024 C   0  0  0  0  0  0  0  0  0  0  0  0
   10.0133  -17.4963   25.6233 C   0  0  2  0  0  0  0  0  0  0  0  0
    9.3178  -16.2530   25.8509 N   0  0  0  0  0  0  0  0  0  0  0  0
   11.0523  -17.7663   26.6261 C   0  0  0  0  0  0  0  0  0  0  0  0
   11.6015  -16.7110   27.3392 O   0  0  0  0  0  0  0  0  0  0  0  0
   11.4785  -18.9210   26.8780 O   0  0  0  0  0  0  0  0  0  0  0  0
  1  2  1  0
  3  5  1  0
  3  4  1  6
  3  2  1  0
  5  6  2  0
  8  7  1  1
  8 10  1  0
  9  8  1  0
 11 10  1  1
 11 13  1  0
 12 11  1  0
 12  5  1  0
 13 18  1  0
 13 14  2  0
 15 16  1  0
 17 16  1  6
 18 17  1  0
 19 20  1  0
 19 17  1  0
 21 19  2  0
M  END
$$$$
