SLS.pdb
     RDKit          3D

 21 20  0  0  1  0  0  0  0  0999 V2000
    5.6650  -17.1943   21.5404 O   0  0  0  0  0  0  0  0  0  0  0  0
    6.9043  -16.7791   21.0961 C   0  0  0  0  0  0  0  0  0  0  0  0
    7.0237  -15.2952   21.3376 C   0  0  2  0  0  0  0  0  0  0  0  0
    7.4377  -14.5665   20.1803 N   0  0  0  0  0  0  0  0  0  0  0  0
    7.8952  -14.9928   22.5056 C   0  0  0  0  0  0  0  0  0  0  0  0
    9.1381  -14.8361   22.3882 O   0  0  0  0  0  0  0  0  0  0  0  0
    5.8639  -11.9370   26.6932 C   0  0  0  0  0  0  0  0  0  0  0  0
    6.8616  -12.5450   25.7605 C   0  0  1  0  0  0  0  0  0  0  0  0
    8.0870  -11.6312   25.7898 C   0  0  0  0  0  0  0  0  0  0  0  0
    7.1837  -13.9579   25.9116 C   0  0  0  0  0  0  0  0  0  0  0  0
    8.1019  -14.6845   25.0236 C   0  0  2  0  0  0  0  0  0  0  0  0
    7.3071  -14.8814   23.7672 N   0  0  0  0  0  0  0  0  0  0  0  0
    8.5699  -16.0057   25.4669 C   0  0  0  0  0  0  0  0  0  0  0  0
    7.7946  -16.9631   25.7067 O   0  0  0  0  0  0  0  0  0  0  0  0
   12.6959  -17.1835   25.2746 O   0  0  0  0  0  0  0  0  0  0  0  0
   11.6111  -18.0243   25.1314 C   0  0  0  0  0  0  0  0  0  0  0  0
   10.4453  -17.6238   26.0045 C   0  0  2  0  0  0  0  0  0  0  0  0
    9.9549  -16.3107   25.6629 N   0  0  0  0  0  0  0  0  0  0  0  0
   10.7151  -17.7817   27.4398 C   0  0  0  0  0  0  0  0  0  0  0  0
   11.1919  -18.9948   27.9140 O   0  0  0  0  0  0  0  0  0  0  0  0
   10.5346  -16.8622   28.2767 O   0  0  0  0  0  0  0  0  0  0  0  0
  1  2  1  0
  3  5  1  0
  3  4  1  6
  3  2  1  0
  5  6  2  0
  8  7  1  1
  8 10  1  0
  9  8  1  0
 11 10  1  1
 11 13  1  0
 12 11  1  0
 12  5  1  0
 13 18  1  0
 13 14  2  0
 15 16  1  0
 17 16  1  6
 18 17  1  0
 19 20  1  0
 19 17  1  0
 21 19  2  0
M  END
$$$$
