SLS.pdb
     RDKit          3D

 21 20  0  0  1  0  0  0  0  0999 V2000
    9.3365  -20.2297   18.4818 O   0  0  0  0  0  0  0  0  0  0  0  0
    8.2465  -19.3934   18.3481 C   0  0  0  0  0  0  0  0  0  0  0  0
    8.7096  -18.1060   17.7133 C   0  0  2  0  0  0  0  0  0  0  0  0
    9.5013  -18.3076   16.5410 N   0  0  0  0  0  0  0  0  0  0  0  0
    9.4072  -17.2266   18.6906 C   0  0  0  0  0  0  0  0  0  0  0  0
   10.6611  -17.1260   18.7215 O   0  0  0  0  0  0  0  0  0  0  0  0
    6.5995  -12.6942   20.2462 C   0  0  0  0  0  0  0  0  0  0  0  0
    7.7513  -13.5814   19.8977 C   0  0  1  0  0  0  0  0  0  0  0  0
    8.8809  -12.6571   19.4427 C   0  0  0  0  0  0  0  0  0  0  0  0
    8.1731  -14.5855   20.8655 C   0  0  0  0  0  0  0  0  0  0  0  0
    9.2381  -15.5658   20.6119 C   0  0  2  0  0  0  0  0  0  0  0  0
    8.6389  -16.4939   19.5975 N   0  0  0  0  0  0  0  0  0  0  0  0
    9.6938  -16.3805   21.7475 C   0  0  0  0  0  0  0  0  0  0  0  0
    8.9504  -17.1905   22.3528 O   0  0  0  0  0  0  0  0  0  0  0  0
   13.8498  -16.6717   22.9306 O   0  0  0  0  0  0  0  0  0  0  0  0
   12.9136  -17.6833   22.9972 C   0  0  0  0  0  0  0  0  0  0  0  0
   11.5265  -17.1727   23.3089 C   0  0  2  0  0  0  0  0  0  0  0  0
   11.0295  -16.3169   22.2593 N   0  0  0  0  0  0  0  0  0  0  0  0
   11.4177  -16.5689   24.6436 C   0  0  0  0  0  0  0  0  0  0  0  0
   11.8241  -17.2933   25.7543 O   0  0  0  0  0  0  0  0  0  0  0  0
   10.9687  -15.4117   24.8381 O   0  0  0  0  0  0  0  0  0  0  0  0
  1  2  1  0
  3  5  1  0
  3  4  1  6
  3  2  1  0
  5  6  2  0
  8  7  1  1
  8 10  1  0
  9  8  1  0
 11 10  1  1
 11 13  1  0
 12 11  1  0
 12  5  1  0
 13 18  1  0
 13 14  2  0
 15 16  1  0
 17 16  1  6
 18 17  1  0
 19 20  1  0
 19 17  1  0
 21 19  2  0
M  END
$$$$
