RGP.pdb
     RDKit          3D

 23 23  0  0  1  0  0  0  0  0999 V2000
    8.7542  -15.6873   17.1415 N   0  0  0  0  0  0  0  0  0  0  0  0
    8.4857  -14.3741   16.6542 C   0  0  0  0  0  0  0  0  0  0  0  0
    8.3463  -14.1994   15.3952 N   0  0  0  0  0  0  0  0  0  0  0  0
    8.3728  -13.2685   17.5406 N   0  0  0  0  0  0  0  0  0  0  0  0
    8.6131  -13.4611   18.9833 C   0  0  0  0  0  0  0  0  0  0  0  0
    7.3074  -13.8758   19.5901 C   0  0  0  0  0  0  0  0  0  0  0  0
    7.3056  -14.0824   21.0636 C   0  0  0  0  0  0  0  0  0  0  0  0
    8.4453  -14.9084   21.6061 C   0  0  2  0  0  0  0  0  0  0  0  0
    8.1745  -16.3045   21.2317 N   0  0  0  0  0  0  0  0  0  0  0  0
    8.3815  -14.8520   23.0920 C   0  0  0  0  0  0  0  0  0  0  0  0
    8.5929  -13.7664   23.6817 O   0  0  0  0  0  0  0  0  0  0  0  0
    8.2117  -13.3117   14.9029 N   0  0  0  0  0  0  0  0  0  0  0  0
    8.0806  -16.0225   23.8647 C   0  0  0  0  0  0  0  0  0  0  0  0
    8.0022  -15.8617   25.2880 C   0  0  0  0  0  0  0  0  0  0  0  0
    9.2854  -16.0615   25.9719 O   0  0  0  0  0  0  0  0  0  0  0  0
   10.0235  -16.9846   25.6213 N   0  0  0  0  0  0  0  0  0  0  0  0
    9.6487  -15.1826   27.0277 C   0  0  0  0  0  0  0  0  0  0  0  0
    9.1648  -13.7695   27.0720 C   0  0  0  0  0  0  0  0  0  0  0  0
    9.4338  -13.2686   28.4476 C   0  0  0  0  0  0  0  0  0  0  0  0
    9.7209  -14.5171   29.2417 C   0  0  2  0  0  0  0  0  0  0  0  0
   10.4877  -15.3304   28.1696 C   0  0  0  0  0  0  0  0  0  0  0  0
   10.7552  -16.6705   28.6627 O   0  0  0  0  0  0  0  0  0  0  0  0
   10.0246  -17.6476   28.5631 O   0  0  0  0  0  0  0  0  0  0  0  0
  2  1  1  0
  3  2  2  0
  4  2  1  0
  5  4  1  0
  6  5  1  0
  7  6  1  0
  8  7  1  0
  8 10  1  0
  8  9  1  1
 10 12  1  0
 10 11  2  0
 12 13  1  0
 13 14  1  0
 14 15  2  0
 16 14  1  0
 16 20  1  0
 17 16  1  0
 18 17  1  0
 18 19  1  0
 19 20  1  0
 20 21  1  1
 21 22  2  0
 21 23  1  0
M  END
$$$$
