RGP.pdb
     RDKit          3D

 23 23  0  0  1  0  0  0  0  0999 V2000
    1.2646  -22.2362   20.3554 N   0  0  0  0  0  0  0  0  0  0  0  0
    1.7999  -20.9931   20.8050 C   0  0  0  0  0  0  0  0  0  0  0  0
    1.1485  -19.9187   20.5675 N   0  0  0  0  0  0  0  0  0  0  0  0
    3.0353  -20.9335   21.5056 N   0  0  0  0  0  0  0  0  0  0  0  0
    3.5955  -19.6238   21.8889 C   0  0  0  0  0  0  0  0  0  0  0  0
    4.6984  -19.3222   20.9205 C   0  0  0  0  0  0  0  0  0  0  0  0
    5.2802  -17.9549   20.9947 C   0  0  0  0  0  0  0  0  0  0  0  0
    6.5353  -17.8259   21.8216 C   0  0  2  0  0  0  0  0  0  0  0  0
    6.5937  -19.0089   22.6932 N   0  0  0  0  0  0  0  0  0  0  0  0
    6.3701  -16.6505   22.7195 C   0  0  0  0  0  0  0  0  0  0  0  0
    6.1021  -15.5282   22.2300 O   0  0  0  0  0  0  0  0  0  0  0  0
    1.4191  -18.9619   20.8123 N   0  0  0  0  0  0  0  0  0  0  0  0
    6.5122  -16.7794   24.1411 C   0  0  0  0  0  0  0  0  0  0  0  0
    6.3410  -15.5896   24.9239 C   0  0  0  0  0  0  0  0  0  0  0  0
    7.6045  -15.0163   25.4027 O   0  0  0  0  0  0  0  0  0  0  0  0
    8.6324  -15.6956   25.3662 N   0  0  0  0  0  0  0  0  0  0  0  0
    7.6132  -13.6852   25.9004 C   0  0  0  0  0  0  0  0  0  0  0  0
    6.5306  -12.7138   25.5580 C   0  0  0  0  0  0  0  0  0  0  0  0
    6.6645  -11.5734   26.5051 C   0  0  0  0  0  0  0  0  0  0  0  0
    7.5778  -12.0987   27.5831 C   0  0  2  0  0  0  0  0  0  0  0  0
    8.5291  -12.9585   26.7144 C   0  0  0  0  0  0  0  0  0  0  0  0
    9.4391  -13.7040   27.5669 O   0  0  0  0  0  0  0  0  0  0  0  0
   10.6451  -13.5288   27.6818 O   0  0  0  0  0  0  0  0  0  0  0  0
  2  1  1  0
  3  2  2  0
  4  2  1  0
  5  4  1  0
  6  5  1  0
  7  6  1  0
  8  7  1  0
  8 10  1  0
  8  9  1  1
 10 12  1  0
 10 11  2  0
 12 13  1  0
 13 14  1  0
 14 15  2  0
 16 14  1  0
 16 20  1  0
 17 16  1  0
 18 17  1  0
 18 19  1  0
 19 20  1  0
 20 21  1  1
 21 22  2  0
 21 23  1  0
M  END
$$$$
