RGP.pdb
     RDKit          3D

 23 23  0  0  1  0  0  0  0  0999 V2000
   12.7093  -20.2631   29.4324 N   0  0  0  0  0  0  0  0  0  0  0  0
   12.7129  -20.8772   28.1452 C   0  0  0  0  0  0  0  0  0  0  0  0
   12.3774  -22.1072   28.0472 N   0  0  0  0  0  0  0  0  0  0  0  0
   13.0815  -20.1476   26.9821 N   0  0  0  0  0  0  0  0  0  0  0  0
   12.2829  -18.9777   26.5699 C   0  0  0  0  0  0  0  0  0  0  0  0
   11.0562  -19.5060   25.8907 C   0  0  0  0  0  0  0  0  0  0  0  0
   10.1377  -18.4885   25.3122 C   0  0  0  0  0  0  0  0  0  0  0  0
    9.9091  -18.5894   23.8245 C   0  0  2  0  0  0  0  0  0  0  0  0
   10.9939  -19.4217   23.2831 N   0  0  0  0  0  0  0  0  0  0  0  0
   10.0912  -17.2316   23.2427 C   0  0  0  0  0  0  0  0  0  0  0  0
   11.2354  -16.8515   22.9000 O   0  0  0  0  0  0  0  0  0  0  0  0
   12.3026  -22.6638   27.1909 N   0  0  0  0  0  0  0  0  0  0  0  0
    8.9762  -16.3467   23.0659 C   0  0  0  0  0  0  0  0  0  0  0  0
    9.2455  -15.0696   22.4707 C   0  0  0  0  0  0  0  0  0  0  0  0
    9.4674  -15.1336   21.0212 O   0  0  0  0  0  0  0  0  0  0  0  0
   10.1801  -16.0245   20.5544 N   0  0  0  0  0  0  0  0  0  0  0  0
    8.8530  -14.1621   20.1857 C   0  0  0  0  0  0  0  0  0  0  0  0
    7.6863  -13.3533   20.6519 C   0  0  0  0  0  0  0  0  0  0  0  0
    7.5348  -12.2277   19.6899 C   0  0  0  0  0  0  0  0  0  0  0  0
    8.8340  -12.2227   18.9255 C   0  0  2  0  0  0  0  0  0  0  0  0
    9.0868  -13.7484   18.8426 C   0  0  0  0  0  0  0  0  0  0  0  0
   10.3921  -14.0026   18.2577 O   0  0  0  0  0  0  0  0  0  0  0  0
   11.4666  -14.0220   18.8435 O   0  0  0  0  0  0  0  0  0  0  0  0
  2  1  1  0
  3  2  2  0
  4  2  1  0
  5  4  1  0
  6  5  1  0
  7  6  1  0
  8  7  1  0
  8 10  1  0
  8  9  1  6
 10 12  1  0
 10 11  2  0
 12 13  1  0
 13 14  1  0
 14 15  2  0
 16 14  1  0
 16 20  1  0
 17 16  1  0
 18 17  1  0
 18 19  1  0
 19 20  1  0
 20 21  1  1
 21 22  2  0
 21 23  1  0
M  END
$$$$
