RGP.pdb
     RDKit          3D

 23 23  0  0  1  0  0  0  0  0999 V2000
    9.1623  -18.5453   17.0773 N   0  0  0  0  0  0  0  0  0  0  0  0
    9.4602  -19.9279   17.2611 C   0  0  0  0  0  0  0  0  0  0  0  0
    9.9762  -20.5824   16.2914 N   0  0  0  0  0  0  0  0  0  0  0  0
    9.1932  -20.5810   18.4952 N   0  0  0  0  0  0  0  0  0  0  0  0
    8.6247  -19.8140   19.6198 C   0  0  0  0  0  0  0  0  0  0  0  0
    7.2291  -20.3178   19.8284 C   0  0  0  0  0  0  0  0  0  0  0  0
    6.4284  -19.6184   20.8693 C   0  0  0  0  0  0  0  0  0  0  0  0
    7.0779  -19.5111   22.2266 C   0  0  2  0  0  0  0  0  0  0  0  0
    6.1776  -20.1734   23.1824 N   0  0  0  0  0  0  0  0  0  0  0  0
    7.1069  -18.0719   22.6049 C   0  0  0  0  0  0  0  0  0  0  0  0
    6.0327  -17.4695   22.8378 O   0  0  0  0  0  0  0  0  0  0  0  0
   10.2253  -21.5755   16.2757 N   0  0  0  0  0  0  0  0  0  0  0  0
    8.3473  -17.3589   22.7090 C   0  0  0  0  0  0  0  0  0  0  0  0
    8.3126  -15.9489   22.4477 C   0  0  0  0  0  0  0  0  0  0  0  0
    8.4831  -15.6113   21.0296 O   0  0  0  0  0  0  0  0  0  0  0  0
    8.8886  -16.4711   20.2448 N   0  0  0  0  0  0  0  0  0  0  0  0
    8.1760  -14.2946   20.5922 C   0  0  0  0  0  0  0  0  0  0  0  0
    7.4451  -13.3290   21.4675 C   0  0  0  0  0  0  0  0  0  0  0  0
    7.6078  -11.9846   20.8498 C   0  0  0  0  0  0  0  0  0  0  0  0
    8.7245  -12.1720   19.8549 C   0  0  2  0  0  0  0  0  0  0  0  0
    8.3921  -13.6034   19.3654 C   0  0  0  0  0  0  0  0  0  0  0  0
    9.4401  -14.0788   18.4787 O   0  0  0  0  0  0  0  0  0  0  0  0
    9.3312  -14.3363   17.2870 O   0  0  0  0  0  0  0  0  0  0  0  0
  2  1  1  0
  3  2  2  0
  4  2  1  0
  5  4  1  0
  6  5  1  0
  7  6  1  0
  8  7  1  0
  8 10  1  0
  8  9  1  1
 10 12  1  0
 10 11  2  0
 12 13  1  0
 13 14  1  0
 14 15  2  0
 16 14  1  0
 16 20  1  0
 17 16  1  0
 18 17  1  0
 18 19  1  0
 19 20  1  0
 20 21  1  1
 21 22  2  0
 21 23  1  0
M  END
$$$$
