RGP.pdb
     RDKit          3D

 23 23  0  0  1  0  0  0  0  0999 V2000
    8.7811  -19.7876   26.2399 N   0  0  0  0  0  0  0  0  0  0  0  0
    7.6302  -19.1027   25.7496 C   0  0  0  0  0  0  0  0  0  0  0  0
    7.2458  -18.0378   26.3439 N   0  0  0  0  0  0  0  0  0  0  0  0
    6.9121  -19.5839   24.6211 N   0  0  0  0  0  0  0  0  0  0  0  0
    6.5942  -18.6655   23.5114 C   0  0  0  0  0  0  0  0  0  0  0  0
    7.2535  -19.2200   22.2854 C   0  0  0  0  0  0  0  0  0  0  0  0
    8.3882  -18.4294   21.7369 C   0  0  0  0  0  0  0  0  0  0  0  0
    8.0042  -17.2333   20.9018 C   0  0  2  0  0  0  0  0  0  0  0  0
    8.6136  -17.4260   19.5774 N   0  0  0  0  0  0  0  0  0  0  0  0
    8.6582  -16.0350   21.4947 C   0  0  0  0  0  0  0  0  0  0  0  0
    9.2332  -15.2085   20.7482 O   0  0  0  0  0  0  0  0  0  0  0  0
    6.4893  -17.4081   26.0617 N   0  0  0  0  0  0  0  0  0  0  0  0
    8.6418  -15.8077   22.9109 C   0  0  0  0  0  0  0  0  0  0  0  0
    7.9147  -14.6632   23.3791 C   0  0  0  0  0  0  0  0  0  0  0  0
    7.9004  -14.5359   24.8412 O   0  0  0  0  0  0  0  0  0  0  0  0
    8.1487  -15.5210   25.5394 N   0  0  0  0  0  0  0  0  0  0  0  0
    7.5984  -13.2740   25.4209 C   0  0  0  0  0  0  0  0  0  0  0  0
    7.5925  -12.0200   24.6082 C   0  0  0  0  0  0  0  0  0  0  0  0
    6.9087  -10.9828   25.4279 C   0  0  0  0  0  0  0  0  0  0  0  0
    6.2267  -11.7693   26.5180 C   0  0  2  0  0  0  0  0  0  0  0  0
    7.2980  -12.8632   26.7515 C   0  0  0  0  0  0  0  0  0  0  0  0
    6.7959  -13.8562   27.6855 O   0  0  0  0  0  0  0  0  0  0  0  0
    6.0548  -14.7958   27.4282 O   0  0  0  0  0  0  0  0  0  0  0  0
  2  1  1  0
  3  2  2  0
  4  2  1  0
  5  4  1  0
  6  5  1  0
  7  6  1  0
  8  7  1  0
  8 10  1  0
  8  9  1  6
 10 12  1  0
 10 11  2  0
 12 13  1  0
 13 14  1  0
 14 15  2  0
 16 14  1  0
 16 20  1  0
 17 16  1  0
 18 17  1  0
 18 19  1  0
 19 20  1  0
 20 21  1  6
 21 22  2  0
 21 23  1  0
M  END
$$$$
