RGP.pdb
     RDKit          3D

 23 23  0  0  1  0  0  0  0  0999 V2000
    7.7019  -12.9109   19.9837 N   0  0  0  0  0  0  0  0  0  0  0  0
    8.8718  -12.9357   19.1683 C   0  0  0  0  0  0  0  0  0  0  0  0
    9.7315  -11.9975   19.2937 N   0  0  0  0  0  0  0  0  0  0  0  0
    9.0918  -13.9785   18.2275 N   0  0  0  0  0  0  0  0  0  0  0  0
    8.1797  -15.1374   18.1947 C   0  0  0  0  0  0  0  0  0  0  0  0
    8.2489  -15.7837   19.5447 C   0  0  0  0  0  0  0  0  0  0  0  0
    7.3267  -16.9292   19.7711 C   0  0  0  0  0  0  0  0  0  0  0  0
    7.4849  -17.6405   21.0919 C   0  0  2  0  0  0  0  0  0  0  0  0
    6.6280  -18.8344   21.0372 N   0  0  0  0  0  0  0  0  0  0  0  0
    6.9167  -16.7639   22.1521 C   0  0  0  0  0  0  0  0  0  0  0  0
    5.6748  -16.6176   22.2370 O   0  0  0  0  0  0  0  0  0  0  0  0
   10.5940  -11.8702   18.7566 N   0  0  0  0  0  0  0  0  0  0  0  0
    7.7683  -16.0811   23.0828 C   0  0  0  0  0  0  0  0  0  0  0  0
    7.1296  -15.2519   24.0637 C   0  0  0  0  0  0  0  0  0  0  0  0
    8.0602  -14.6829   25.0457 O   0  0  0  0  0  0  0  0  0  0  0  0
    9.1624  -15.2087   25.2140 N   0  0  0  0  0  0  0  0  0  0  0  0
    7.6669  -13.5340   25.7838 C   0  0  0  0  0  0  0  0  0  0  0  0
    6.6991  -12.5400   25.2288 C   0  0  0  0  0  0  0  0  0  0  0  0
    6.2573  -11.6912   26.3688 C   0  0  0  0  0  0  0  0  0  0  0  0
    6.7007  -12.4577   27.5887 C   0  0  2  0  0  0  0  0  0  0  0  0
    8.0418  -13.0241   27.0601 C   0  0  0  0  0  0  0  0  0  0  0  0
    8.6085  -13.9425   28.0328 O   0  0  0  0  0  0  0  0  0  0  0  0
    8.2400  -15.0870   28.2617 O   0  0  0  0  0  0  0  0  0  0  0  0
  2  1  1  0
  3  2  2  0
  4  2  1  0
  5  4  1  0
  6  5  1  0
  7  6  1  0
  8  7  1  0
  8 10  1  0
  8  9  1  6
 10 12  1  0
 10 11  2  0
 12 13  1  0
 13 14  1  0
 14 15  2  0
 16 14  1  0
 16 20  1  0
 17 16  1  0
 18 17  1  0
 18 19  1  0
 19 20  1  0
 20 21  1  6
 21 22  2  0
 21 23  1  0
M  END
$$$$
