HWK.pdb
     RDKit          3D

 34 36  0  0  1  0  0  0  0  0999 V2000
   28.6387  -21.1748  -14.9793 N   0  0  0  0  0  0  0  0  0  0  0  0
   27.8237  -20.2454  -14.2422 C   0  0  1  0  0  0  0  0  0  0  0  0
   26.9561  -19.4319  -15.1991 C   0  0  0  0  0  0  0  0  0  0  0  0
   27.8415  -18.5503  -15.9927 C   0  0  0  0  0  0  0  0  0  0  0  0
   28.4104  -18.8218  -17.2124 C   0  0  0  0  0  0  0  0  0  0  0  0
   29.1414  -17.7191  -17.5524 N   0  0  0  0  0  0  0  0  0  0  0  0
   29.0348  -16.7896  -16.5811 C   0  0  0  0  0  0  0  0  0  0  0  0
   28.2282  -17.3256  -15.6304 N   0  0  0  0  0  0  0  0  0  0  0  0
   26.9368  -20.9625  -13.3123 C   0  0  0  0  0  0  0  0  0  0  0  0
   26.5403  -22.1402  -13.4782 O   0  0  0  0  0  0  0  0  0  0  0  0
   26.5129  -20.2552  -12.1507 N   0  0  0  0  0  0  0  0  0  0  0  0
   25.6170  -20.8195  -11.1911 C   0  0  1  0  0  0  0  0  0  0  0  0
   25.9154  -20.2394   -9.8303 C   0  0  0  0  0  0  0  0  0  0  0  0
   27.1276  -20.7150   -9.1858 C   0  0  0  0  0  0  0  0  0  0  0  0
   28.0930  -21.5552   -9.7548 C   0  0  0  0  0  0  0  0  0  0  0  0
   29.0556  -21.8082   -8.8566 N   0  0  0  0  0  0  0  0  0  0  0  0
   28.7541  -21.1610   -7.7169 C   0  0  0  0  0  0  0  0  0  0  0  0
   29.4001  -21.0792   -6.5126 C   0  0  0  0  0  0  0  0  0  0  0  0
   28.8885  -20.3243   -5.4693 C   0  0  0  0  0  0  0  0  0  0  0  0
   27.7028  -19.6387   -5.6442 C   0  0  0  0  0  0  0  0  0  0  0  0
   27.0671  -19.7287   -6.8515 C   0  0  0  0  0  0  0  0  0  0  0  0
   27.5788  -20.4868   -7.8996 C   0  0  0  0  0  0  0  0  0  0  0  0
   24.2324  -20.6347  -11.6082 C   0  0  0  0  0  0  0  0  0  0  0  0
   23.7980  -19.4982  -11.8957 O   0  0  0  0  0  0  0  0  0  0  0  0
   23.3198  -21.7345  -11.7068 N   0  0  0  0  0  0  0  0  0  0  0  0
   21.9770  -21.4919  -12.1948 C   0  0  1  0  0  0  0  0  0  0  0  0
   21.3574  -22.8221  -12.5656 C   0  0  0  0  0  0  0  0  0  0  0  0
   19.9568  -22.5906  -13.0150 C   0  0  0  0  0  0  0  0  0  0  0  0
   19.2641  -23.8668  -13.4544 C   0  0  0  0  0  0  0  0  0  0  0  0
   17.8787  -23.4413  -13.9528 C   0  0  0  0  0  0  0  0  0  0  0  0
   17.1998  -24.6694  -14.3334 N   0  0  0  0  0  0  0  0  0  0  0  0
   21.1675  -20.8781  -11.1128 C   0  0  0  0  0  0  0  0  0  0  0  0
   21.3721  -21.2429   -9.9257 O   0  0  0  0  0  0  0  0  0  0  0  0
   20.1884  -19.9182  -11.3179 O   0  0  0  0  0  0  0  0  0  0  0  0
  2  1  1  6
  2  3  1  0
  3  4  1  0
  4  5  2  0
  4  8  1  0
  5  6  1  0
  6  7  1  0
  8  7  2  0
  9 10  2  0
  9  2  1  0
 11  9  1  0
 12 13  1  1
 12 11  1  0
 13 14  1  0
 14 15  2  0
 14 22  1  0
 15 16  1  0
 16 17  1  0
 17 18  2  0
 19 18  1  0
 20 19  2  0
 21 22  2  0
 21 20  1  0
 22 17  1  0
 23 12  1  0
 24 23  2  0
 25 23  1  0
 26 25  1  0
 26 27  1  1
 27 28  1  0
 29 28  1  0
 29 30  1  0
 30 31  1  0
 32 26  1  0
 32 34  1  0
 33 32  2  0
M  END
$$$$
