HWK.pdb
     RDKit          3D

 34 36  0  0  1  0  0  0  0  0999 V2000
   28.6790  -21.2382  -15.1506 N   0  0  0  0  0  0  0  0  0  0  0  0
   27.8133  -20.2710  -14.5289 C   0  0  1  0  0  0  0  0  0  0  0  0
   27.0565  -19.4808  -15.5933 C   0  0  0  0  0  0  0  0  0  0  0  0
   28.0360  -18.6766  -16.3582 C   0  0  0  0  0  0  0  0  0  0  0  0
   28.4599  -18.8866  -17.6471 C   0  0  0  0  0  0  0  0  0  0  0  0
   29.3602  -17.8973  -17.9243 N   0  0  0  0  0  0  0  0  0  0  0  0
   29.4959  -17.0959  -16.8481 C   0  0  0  0  0  0  0  0  0  0  0  0
   28.6693  -17.5971  -15.8956 N   0  0  0  0  0  0  0  0  0  0  0  0
   26.8285  -20.9410  -13.6648 C   0  0  0  0  0  0  0  0  0  0  0  0
   26.2594  -22.0222  -13.9459 O   0  0  0  0  0  0  0  0  0  0  0  0
   26.5153  -20.3041  -12.4297 N   0  0  0  0  0  0  0  0  0  0  0  0
   25.5896  -20.8574  -11.4923 C   0  0  1  0  0  0  0  0  0  0  0  0
   25.9030  -20.3306  -10.1133 C   0  0  0  0  0  0  0  0  0  0  0  0
   27.1674  -20.7580   -9.5392 C   0  0  0  0  0  0  0  0  0  0  0  0
   28.0792  -21.6507  -10.1163 C   0  0  0  0  0  0  0  0  0  0  0  0
   29.1172  -21.8329   -9.2877 N   0  0  0  0  0  0  0  0  0  0  0  0
   28.9171  -21.0884   -8.1857 C   0  0  0  0  0  0  0  0  0  0  0  0
   29.6664  -20.9085   -7.0543 C   0  0  0  0  0  0  0  0  0  0  0  0
   29.2484  -20.0634   -6.0388 C   0  0  0  0  0  0  0  0  0  0  0  0
   28.0517  -19.3867   -6.1672 C   0  0  0  0  0  0  0  0  0  0  0  0
   27.3122  -19.5751   -7.3019 C   0  0  0  0  0  0  0  0  0  0  0  0
   27.7300  -20.4239   -8.3218 C   0  0  0  0  0  0  0  0  0  0  0  0
   24.2170  -20.6014  -11.9116 C   0  0  0  0  0  0  0  0  0  0  0  0
   23.8077  -19.4321  -12.0794 O   0  0  0  0  0  0  0  0  0  0  0  0
   23.2882  -21.6661  -12.1480 N   0  0  0  0  0  0  0  0  0  0  0  0
   21.9603  -21.3457  -12.6317 C   0  0  1  0  0  0  0  0  0  0  0  0
   21.2384  -22.6411  -12.9349 C   0  0  0  0  0  0  0  0  0  0  0  0
   19.9167  -22.3233  -13.5424 C   0  0  0  0  0  0  0  0  0  0  0  0
   19.1047  -23.5645  -13.8612 C   0  0  0  0  0  0  0  0  0  0  0  0
   17.7878  -23.0610  -14.4619 C   0  0  0  0  0  0  0  0  0  0  0  0
   16.9694  -24.2444  -14.6714 N   0  0  0  0  0  0  0  0  0  0  0  0
   21.2141  -20.6257  -11.5699 C   0  0  0  0  0  0  0  0  0  0  0  0
   20.4466  -19.6857  -11.9038 O   0  0  0  0  0  0  0  0  0  0  0  0
   21.3025  -20.9177  -10.2174 O   0  0  0  0  0  0  0  0  0  0  0  0
  2  1  1  6
  2  3  1  0
  3  4  1  0
  4  5  2  0
  4  8  1  0
  5  6  1  0
  6  7  1  0
  8  7  2  0
  9 10  2  0
  9  2  1  0
 11  9  1  0
 12 13  1  1
 12 11  1  0
 13 14  1  0
 14 15  2  0
 14 22  1  0
 15 16  1  0
 16 17  1  0
 17 18  2  0
 19 18  1  0
 20 19  2  0
 21 22  2  0
 21 20  1  0
 22 17  1  0
 23 12  1  0
 24 23  2  0
 25 23  1  0
 26 25  1  0
 26 27  1  1
 27 28  1  0
 29 28  1  0
 29 30  1  0
 30 31  1  0
 32 26  1  0
 32 34  1  0
 33 32  2  0
M  END
$$$$
