HWK.pdb
     RDKit          3D

 34 36  0  0  1  0  0  0  0  0999 V2000
   27.7872  -21.6758  -15.4421 N   0  0  0  0  0  0  0  0  0  0  0  0
   27.7810  -20.6548  -14.4277 C   0  0  1  0  0  0  0  0  0  0  0  0
   27.1038  -19.3926  -14.9553 C   0  0  0  0  0  0  0  0  0  0  0  0
   28.0100  -18.7555  -15.9372 C   0  0  0  0  0  0  0  0  0  0  0  0
   29.2426  -19.2024  -16.3445 C   0  0  0  0  0  0  0  0  0  0  0  0
   29.7013  -18.2947  -17.2565 N   0  0  0  0  0  0  0  0  0  0  0  0
   28.7891  -17.3141  -17.4154 C   0  0  0  0  0  0  0  0  0  0  0  0
   27.7554  -17.6207  -16.5913 N   0  0  0  0  0  0  0  0  0  0  0  0
   27.0421  -21.1126  -13.2403 C   0  0  0  0  0  0  0  0  0  0  0  0
   25.9922  -21.7968  -13.2799 O   0  0  0  0  0  0  0  0  0  0  0  0
   27.5717  -20.7453  -11.9700 N   0  0  0  0  0  0  0  0  0  0  0  0
   26.8651  -20.9693  -10.7483 C   0  0  1  0  0  0  0  0  0  0  0  0
   27.7552  -20.6068   -9.5849 C   0  0  0  0  0  0  0  0  0  0  0  0
   27.1339  -20.6390   -8.2719 C   0  0  0  0  0  0  0  0  0  0  0  0
   25.8330  -21.0694   -7.9817 C   0  0  0  0  0  0  0  0  0  0  0  0
   25.5940  -20.9283   -6.6701 N   0  0  0  0  0  0  0  0  0  0  0  0
   26.6956  -20.4201   -6.0896 C   0  0  0  0  0  0  0  0  0  0  0  0
   26.9792  -20.0978   -4.7897 C   0  0  0  0  0  0  0  0  0  0  0  0
   28.2155  -19.5887   -4.4258 C   0  0  0  0  0  0  0  0  0  0  0  0
   29.1843  -19.4013   -5.3916 C   0  0  0  0  0  0  0  0  0  0  0  0
   28.8887  -19.7268   -6.6864 C   0  0  0  0  0  0  0  0  0  0  0  0
   27.6477  -20.2371   -7.0536 C   0  0  0  0  0  0  0  0  0  0  0  0
   25.5945  -20.2544  -10.7498 C   0  0  0  0  0  0  0  0  0  0  0  0
   25.5622  -19.0088  -10.6481 O   0  0  0  0  0  0  0  0  0  0  0  0
   24.3421  -20.9398  -10.8676 N   0  0  0  0  0  0  0  0  0  0  0  0
   23.1446  -20.1725  -11.1458 C   0  0  1  0  0  0  0  0  0  0  0  0
   22.7766  -20.3748  -12.6000 C   0  0  0  0  0  0  0  0  0  0  0  0
   21.5753  -19.5515  -12.9100 C   0  0  0  0  0  0  0  0  0  0  0  0
   21.1052  -19.7174  -14.3429 C   0  0  0  0  0  0  0  0  0  0  0  0
   19.8968  -18.7877  -14.4979 C   0  0  0  0  0  0  0  0  0  0  0  0
   19.5089  -18.8715  -15.8966 N   0  0  0  0  0  0  0  0  0  0  0  0
   22.0334  -20.6781  -10.3018 C   0  0  0  0  0  0  0  0  0  0  0  0
   21.1423  -19.8703   -9.9308 O   0  0  0  0  0  0  0  0  0  0  0  0
   21.9039  -21.9945   -9.8867 O   0  0  0  0  0  0  0  0  0  0  0  0
  2  1  1  6
  2  3  1  0
  3  4  1  0
  4  5  2  0
  4  8  1  0
  5  6  1  0
  6  7  1  0
  8  7  2  0
  9 10  2  0
  9  2  1  0
 11  9  1  0
 12 13  1  1
 12 11  1  0
 13 14  1  0
 14 15  2  0
 14 22  1  0
 15 16  1  0
 16 17  1  0
 17 18  2  0
 19 18  1  0
 20 19  2  0
 21 22  2  0
 21 20  1  0
 22 17  1  0
 23 12  1  0
 24 23  2  0
 25 23  1  0
 26 25  1  0
 26 27  1  6
 27 28  1  0
 29 28  1  0
 29 30  1  0
 30 31  1  0
 32 26  1  0
 32 34  1  0
 33 32  2  0
M  END
$$$$
