HWK.pdb
     RDKit          3D

 34 36  0  0  1  0  0  0  0  0999 V2000
   28.6879  -22.6901  -16.3498 N   0  0  0  0  0  0  0  0  0  0  0  0
   27.7569  -21.6109  -16.1494 C   0  0  1  0  0  0  0  0  0  0  0  0
   26.8519  -21.4628  -17.3697 C   0  0  0  0  0  0  0  0  0  0  0  0
   27.6550  -20.8972  -18.4771 C   0  0  0  0  0  0  0  0  0  0  0  0
   28.1339  -19.6153  -18.5878 C   0  0  0  0  0  0  0  0  0  0  0  0
   28.8152  -19.5576  -19.7705 N   0  0  0  0  0  0  0  0  0  0  0  0
   28.7653  -20.7600  -20.3793 C   0  0  0  0  0  0  0  0  0  0  0  0
   28.0445  -21.5690  -19.5622 N   0  0  0  0  0  0  0  0  0  0  0  0
   26.9090  -21.8731  -14.9756 C   0  0  0  0  0  0  0  0  0  0  0  0
   26.3575  -22.9723  -14.7319 O   0  0  0  0  0  0  0  0  0  0  0  0
   26.7153  -20.7941  -14.0660 N   0  0  0  0  0  0  0  0  0  0  0  0
   25.9585  -20.9301  -12.8616 C   0  0  1  0  0  0  0  0  0  0  0  0
   26.4910  -19.9681  -11.8280 C   0  0  0  0  0  0  0  0  0  0  0  0
   27.5110  -20.4911  -10.9352 C   0  0  0  0  0  0  0  0  0  0  0  0
   28.7155  -21.0950  -11.3174 C   0  0  0  0  0  0  0  0  0  0  0  0
   29.3913  -21.4822  -10.2262 N   0  0  0  0  0  0  0  0  0  0  0  0
   28.6703  -21.1517   -9.1401 C   0  0  0  0  0  0  0  0  0  0  0  0
   28.9065  -21.3121   -7.8013 C   0  0  0  0  0  0  0  0  0  0  0  0
   28.0004  -20.8701   -6.8507 C   0  0  0  0  0  0  0  0  0  0  0  0
   26.8337  -20.2543   -7.2585 C   0  0  0  0  0  0  0  0  0  0  0  0
   26.6093  -20.1003   -8.5985 C   0  0  0  0  0  0  0  0  0  0  0  0
   27.5175  -20.5443   -9.5541 C   0  0  0  0  0  0  0  0  0  0  0  0
   24.5345  -20.7651  -13.1267 C   0  0  0  0  0  0  0  0  0  0  0  0
   24.1148  -19.7808  -13.7731 O   0  0  0  0  0  0  0  0  0  0  0  0
   23.5651  -21.7132  -12.6644 N   0  0  0  0  0  0  0  0  0  0  0  0
   22.1577  -21.4367  -12.8713 C   0  0  1  0  0  0  0  0  0  0  0  0
   21.3694  -22.6734  -12.4969 C   0  0  0  0  0  0  0  0  0  0  0  0
   19.9330  -22.4409  -12.8130 C   0  0  0  0  0  0  0  0  0  0  0  0
   19.0686  -23.6572  -12.5392 C   0  0  0  0  0  0  0  0  0  0  0  0
   17.6402  -23.2497  -12.9164 C   0  0  0  0  0  0  0  0  0  0  0  0
   16.8122  -24.4151  -12.6509 N   0  0  0  0  0  0  0  0  0  0  0  0
   21.7426  -20.3237  -11.9815 C   0  0  0  0  0  0  0  0  0  0  0  0
   22.2325  -20.2624  -10.8237 O   0  0  0  0  0  0  0  0  0  0  0  0
   20.8416  -19.3323  -12.3385 O   0  0  0  0  0  0  0  0  0  0  0  0
  2  1  1  6
  2  3  1  0
  3  4  1  0
  4  5  2  0
  4  8  1  0
  5  6  1  0
  6  7  1  0
  8  7  2  0
  9 10  2  0
  9  2  1  0
 11  9  1  0
 12 13  1  1
 12 11  1  0
 13 14  1  0
 14 15  2  0
 14 22  1  0
 15 16  1  0
 16 17  1  0
 17 18  2  0
 19 18  1  0
 20 19  2  0
 21 22  2  0
 21 20  1  0
 22 17  1  0
 23 12  1  0
 24 23  2  0
 25 23  1  0
 26 25  1  0
 26 27  1  1
 27 28  1  0
 29 28  1  0
 29 30  1  0
 30 31  1  0
 32 26  1  0
 32 34  1  0
 33 32  2  0
M  END
$$$$
