HWK.pdb
     RDKit          3D

 34 36  0  0  1  0  0  0  0  0999 V2000
   14.6819  -19.9036    2.9792 N   0  0  0  0  0  0  0  0  0  0  0  0
   14.3571  -19.1102    4.1352 C   0  0  1  0  0  0  0  0  0  0  0  0
   13.5002  -19.9194    5.1053 C   0  0  0  0  0  0  0  0  0  0  0  0
   12.2061  -20.2116    4.4487 C   0  0  0  0  0  0  0  0  0  0  0  0
   11.1925  -19.3267    4.1758 C   0  0  0  0  0  0  0  0  0  0  0  0
   10.2046  -20.0463    3.5657 N   0  0  0  0  0  0  0  0  0  0  0  0
   10.5850  -21.3358    3.4597 C   0  0  0  0  0  0  0  0  0  0  0  0
   11.8226  -21.4125    4.0113 N   0  0  0  0  0  0  0  0  0  0  0  0
   15.5825  -18.6964    4.8372 C   0  0  0  0  0  0  0  0  0  0  0  0
   16.6533  -19.3485    4.8365 O   0  0  0  0  0  0  0  0  0  0  0  0
   15.5293  -17.4692    5.5585 N   0  0  0  0  0  0  0  0  0  0  0  0
   16.6488  -16.9529    6.2811 C   0  0  1  0  0  0  0  0  0  0  0  0
   16.8887  -15.5208    5.8702 C   0  0  0  0  0  0  0  0  0  0  0  0
   17.5253  -15.3257    4.5789 C   0  0  0  0  0  0  0  0  0  0  0  0
   17.5372  -16.2370    3.5153 C   0  0  0  0  0  0  0  0  0  0  0  0
   18.2459  -15.7306    2.4962 N   0  0  0  0  0  0  0  0  0  0  0  0
   18.6991  -14.5165    2.8556 C   0  0  0  0  0  0  0  0  0  0  0  0
   19.4531  -13.5874    2.1905 C   0  0  0  0  0  0  0  0  0  0  0  0
   19.7905  -12.3782    2.7770 C   0  0  0  0  0  0  0  0  0  0  0  0
   19.3589  -12.1009    4.0590 C   0  0  0  0  0  0  0  0  0  0  0  0
   18.6068  -13.0370    4.7128 C   0  0  0  0  0  0  0  0  0  0  0  0
   18.2679  -14.2519    4.1257 C   0  0  0  0  0  0  0  0  0  0  0  0
   16.4560  -17.1188    7.7166 C   0  0  0  0  0  0  0  0  0  0  0  0
   15.3792  -16.7884    8.2591 O   0  0  0  0  0  0  0  0  0  0  0  0
   17.4798  -17.6621    8.5586 N   0  0  0  0  0  0  0  0  0  0  0  0
   17.2290  -17.7834    9.9807 C   0  0  1  0  0  0  0  0  0  0  0  0
   17.9178  -19.0350   10.4807 C   0  0  0  0  0  0  0  0  0  0  0  0
   17.2573  -20.2223    9.8714 C   0  0  0  0  0  0  0  0  0  0  0  0
   17.8504  -21.5334   10.3517 C   0  0  0  0  0  0  0  0  0  0  0  0
   16.9976  -22.6369    9.7163 C   0  0  0  0  0  0  0  0  0  0  0  0
   17.5367  -23.8916   10.2154 N   0  0  0  0  0  0  0  0  0  0  0  0
   17.8109  -16.6113   10.6810 C   0  0  0  0  0  0  0  0  0  0  0  0
   18.4940  -15.7894   10.0159 O   0  0  0  0  0  0  0  0  0  0  0  0
   17.6543  -16.3523   12.0340 O   0  0  0  0  0  0  0  0  0  0  0  0
  2  1  1  6
  2  3  1  0
  3  4  1  0
  4  5  2  0
  4  8  1  0
  5  6  1  0
  6  7  1  0
  8  7  2  0
  9 10  2  0
  9  2  1  0
 11  9  1  0
 12 13  1  1
 12 11  1  0
 13 14  1  0
 14 15  2  0
 14 22  1  0
 15 16  1  0
 16 17  1  0
 17 18  2  0
 19 18  1  0
 20 19  2  0
 21 22  2  0
 21 20  1  0
 22 17  1  0
 23 12  1  0
 24 23  2  0
 25 23  1  0
 26 25  1  0
 26 27  1  1
 27 28  1  0
 29 28  1  0
 29 30  1  0
 30 31  1  0
 32 26  1  0
 32 34  1  0
 33 32  2  0
M  END
$$$$
