HWK.pdb
     RDKit          3D

 34 36  0  0  1  0  0  0  0  0999 V2000
   22.9117  -12.7375  -17.5489 N   0  0  0  0  0  0  0  0  0  0  0  0
   22.4787  -11.4863  -18.1132 C   0  0  1  0  0  0  0  0  0  0  0  0
   21.1058  -11.6478  -18.7606 C   0  0  0  0  0  0  0  0  0  0  0  0
   21.2254  -12.6270  -19.8643 C   0  0  0  0  0  0  0  0  0  0  0  0
   20.7372  -13.9098  -19.8956 C   0  0  0  0  0  0  0  0  0  0  0  0
   21.0871  -14.4273  -21.1104 N   0  0  0  0  0  0  0  0  0  0  0  0
   21.7699  -13.5024  -21.8154 C   0  0  0  0  0  0  0  0  0  0  0  0
   21.8421  -12.4010  -21.0258 N   0  0  0  0  0  0  0  0  0  0  0  0
   22.3768  -10.4567  -17.0668 C   0  0  0  0  0  0  0  0  0  0  0  0
   21.7778  -10.6122  -15.9764 O   0  0  0  0  0  0  0  0  0  0  0  0
   23.0092   -9.2072  -17.3277 N   0  0  0  0  0  0  0  0  0  0  0  0
   23.0814   -8.1639  -16.3540 C   0  0  1  0  0  0  0  0  0  0  0  0
   24.5274   -7.8010  -16.1199 C   0  0  0  0  0  0  0  0  0  0  0  0
   25.4062   -8.8941  -15.7407 C   0  0  0  0  0  0  0  0  0  0  0  0
   25.2397   -9.7477  -14.6429 C   0  0  0  0  0  0  0  0  0  0  0  0
   26.2600  -10.6157  -14.5885 N   0  0  0  0  0  0  0  0  0  0  0  0
   27.0905  -10.3603  -15.6151 C   0  0  0  0  0  0  0  0  0  0  0  0
   28.2582  -10.9514  -16.0163 C   0  0  0  0  0  0  0  0  0  0  0  0
   28.9425  -10.5097  -17.1373 C   0  0  0  0  0  0  0  0  0  0  0  0
   28.4390   -9.4515  -17.8676 C   0  0  0  0  0  0  0  0  0  0  0  0
   27.2720   -8.8694  -17.4565 C   0  0  0  0  0  0  0  0  0  0  0  0
   26.5843   -9.3111  -16.3307 C   0  0  0  0  0  0  0  0  0  0  0  0
   22.2571   -7.0294  -16.7526 C   0  0  0  0  0  0  0  0  0  0  0  0
   22.5341   -6.3667  -17.7759 O   0  0  0  0  0  0  0  0  0  0  0  0
   21.1065   -6.6296  -15.9987 N   0  0  0  0  0  0  0  0  0  0  0  0
   20.2159   -5.6298  -16.5530 C   0  0  1  0  0  0  0  0  0  0  0  0
   18.8320   -5.8564  -15.9832 C   0  0  0  0  0  0  0  0  0  0  0  0
   17.9428   -4.7478  -16.4272 C   0  0  0  0  0  0  0  0  0  0  0  0
   16.6050   -5.2415  -16.9452 C   0  0  0  0  0  0  0  0  0  0  0  0
   15.8369   -3.9894  -17.3823 C   0  0  0  0  0  0  0  0  0  0  0  0
   14.5830   -4.4685  -17.9411 N   0  0  0  0  0  0  0  0  0  0  0  0
   20.6809   -4.2810  -16.1441 C   0  0  0  0  0  0  0  0  0  0  0  0
   21.1799   -4.1370  -14.9975 O   0  0  0  0  0  0  0  0  0  0  0  0
   20.6044   -3.1519  -16.9450 O   0  0  0  0  0  0  0  0  0  0  0  0
  2  1  1  1
  2  3  1  0
  3  4  1  0
  4  5  2  0
  4  8  1  0
  5  6  1  0
  6  7  1  0
  8  7  2  0
  9 10  2  0
  9  2  1  0
 11  9  1  0
 12 13  1  6
 12 11  1  0
 13 14  1  0
 14 15  2  0
 14 22  1  0
 15 16  1  0
 16 17  1  0
 17 18  2  0
 19 18  1  0
 20 19  2  0
 21 22  2  0
 21 20  1  0
 22 17  1  0
 23 12  1  0
 24 23  2  0
 25 23  1  0
 26 25  1  0
 26 27  1  1
 27 28  1  0
 29 28  1  0
 29 30  1  0
 30 31  1  0
 32 26  1  0
 32 34  1  0
 33 32  2  0
M  END
$$$$
