HWK.pdb
     RDKit          3D

 34 36  0  0  1  0  0  0  0  0999 V2000
   26.5343  -21.9576  -14.7465 N   0  0  0  0  0  0  0  0  0  0  0  0
   25.6370  -21.0579  -14.0706 C   0  0  1  0  0  0  0  0  0  0  0  0
   24.3113  -20.9730  -14.8226 C   0  0  0  0  0  0  0  0  0  0  0  0
   24.5153  -20.1419  -16.0304 C   0  0  0  0  0  0  0  0  0  0  0  0
   25.3241  -19.0395  -16.1556 C   0  0  0  0  0  0  0  0  0  0  0  0
   25.1913  -18.6066  -17.4444 N   0  0  0  0  0  0  0  0  0  0  0  0
   24.3304  -19.4086  -18.1036 C   0  0  0  0  0  0  0  0  0  0  0  0
   23.9273  -20.3475  -17.2104 N   0  0  0  0  0  0  0  0  0  0  0  0
   25.3629  -21.5327  -12.7050 C   0  0  0  0  0  0  0  0  0  0  0  0
   25.3438  -22.7394  -12.3654 O   0  0  0  0  0  0  0  0  0  0  0  0
   25.1063  -20.5397  -11.7164 N   0  0  0  0  0  0  0  0  0  0  0  0
   24.7975  -20.8668  -10.3601 C   0  0  1  0  0  0  0  0  0  0  0  0
   25.4995  -19.8965   -9.4419 C   0  0  0  0  0  0  0  0  0  0  0  0
   26.8405  -20.2691   -9.0249 C   0  0  0  0  0  0  0  0  0  0  0  0
   27.7533  -21.0357   -9.7601 C   0  0  0  0  0  0  0  0  0  0  0  0
   28.8768  -21.2037   -9.0481 N   0  0  0  0  0  0  0  0  0  0  0  0
   28.7316  -20.5719   -7.8698 C   0  0  0  0  0  0  0  0  0  0  0  0
   29.5721  -20.4283   -6.7988 C   0  0  0  0  0  0  0  0  0  0  0  0
   29.1952  -19.7065   -5.6776 C   0  0  0  0  0  0  0  0  0  0  0  0
   27.9467  -19.1181   -5.6361 C   0  0  0  0  0  0  0  0  0  0  0  0
   27.1164  -19.2691   -6.7120 C   0  0  0  0  0  0  0  0  0  0  0  0
   27.4929  -19.9942   -7.8380 C   0  0  0  0  0  0  0  0  0  0  0  0
   23.3545  -20.9147  -10.1576 C   0  0  0  0  0  0  0  0  0  0  0  0
   22.5872  -20.2240  -10.8627 O   0  0  0  0  0  0  0  0  0  0  0  0
   22.7596  -21.7463   -9.1543 N   0  0  0  0  0  0  0  0  0  0  0  0
   21.3152  -21.8423   -9.0872 C   0  0  1  0  0  0  0  0  0  0  0  0
   20.9525  -22.7877   -7.9621 C   0  0  0  0  0  0  0  0  0  0  0  0
   19.4856  -23.0400   -8.0012 C   0  0  0  0  0  0  0  0  0  0  0  0
   19.0500  -24.1162   -7.0247 C   0  0  0  0  0  0  0  0  0  0  0  0
   17.5398  -24.2800   -7.2278 C   0  0  0  0  0  0  0  0  0  0  0  0
   17.1260  -25.3219   -6.3019 N   0  0  0  0  0  0  0  0  0  0  0  0
   20.7504  -20.5044   -8.7814 C   0  0  0  0  0  0  0  0  0  0  0  0
   21.4016  -19.7321   -8.0305 O   0  0  0  0  0  0  0  0  0  0  0  0
   19.5402  -20.0367   -9.2702 O   0  0  0  0  0  0  0  0  0  0  0  0
  2  1  1  6
  2  3  1  0
  3  4  1  0
  4  5  2  0
  4  8  1  0
  5  6  1  0
  6  7  1  0
  8  7  2  0
  9 10  2  0
  9  2  1  0
 11  9  1  0
 12 13  1  1
 12 11  1  0
 13 14  1  0
 14 15  2  0
 14 22  1  0
 15 16  1  0
 16 17  1  0
 17 18  2  0
 19 18  1  0
 20 19  2  0
 21 22  2  0
 21 20  1  0
 22 17  1  0
 23 12  1  0
 24 23  2  0
 25 23  1  0
 26 25  1  0
 26 27  1  1
 27 28  1  0
 29 28  1  0
 29 30  1  0
 30 31  1  0
 32 26  1  0
 32 34  1  0
 33 32  2  0
M  END
$$$$
