HWK.pdb
     RDKit          3D

 34 36  0  0  1  0  0  0  0  0999 V2000
   28.7541  -21.6026  -15.1250 N   0  0  0  0  0  0  0  0  0  0  0  0
   27.9504  -20.5669  -14.5311 C   0  0  1  0  0  0  0  0  0  0  0  0
   27.1435  -19.8446  -15.6068 C   0  0  0  0  0  0  0  0  0  0  0  0
   28.0829  -19.0756  -16.4537 C   0  0  0  0  0  0  0  0  0  0  0  0
   28.3689  -19.2835  -17.7804 C   0  0  0  0  0  0  0  0  0  0  0  0
   29.2863  -18.3342  -18.1317 N   0  0  0  0  0  0  0  0  0  0  0  0
   29.5654  -17.5590  -17.0640 C   0  0  0  0  0  0  0  0  0  0  0  0
   28.8110  -18.0361  -16.0417 N   0  0  0  0  0  0  0  0  0  0  0  0
   27.0093  -21.1402  -13.5559 C   0  0  0  0  0  0  0  0  0  0  0  0
   26.4344  -22.2460  -13.6923 O   0  0  0  0  0  0  0  0  0  0  0  0
   26.7484  -20.3736  -12.3839 N   0  0  0  0  0  0  0  0  0  0  0  0
   25.8013  -20.7803  -11.3941 C   0  0  1  0  0  0  0  0  0  0  0  0
   26.1236  -20.0983  -10.0871 C   0  0  0  0  0  0  0  0  0  0  0  0
   27.3161  -20.5652   -9.4009 C   0  0  0  0  0  0  0  0  0  0  0  0
   28.3267  -21.3657   -9.9483 C   0  0  0  0  0  0  0  0  0  0  0  0
   29.2528  -21.6234   -9.0139 N   0  0  0  0  0  0  0  0  0  0  0  0
   28.8838  -21.0179   -7.8712 C   0  0  0  0  0  0  0  0  0  0  0  0
   29.4716  -20.9575   -6.6363 C   0  0  0  0  0  0  0  0  0  0  0  0
   28.8945  -20.2462   -5.5966 C   0  0  0  0  0  0  0  0  0  0  0  0
   27.7019  -19.5829   -5.8066 C   0  0  0  0  0  0  0  0  0  0  0  0
   27.1246  -19.6510   -7.0443 C   0  0  0  0  0  0  0  0  0  0  0  0
   27.7022  -20.3655   -8.0889 C   0  0  0  0  0  0  0  0  0  0  0  0
   24.4394  -20.5369  -11.8537 C   0  0  0  0  0  0  0  0  0  0  0  0
   24.0917  -19.4031  -12.2494 O   0  0  0  0  0  0  0  0  0  0  0  0
   23.4517  -21.5743  -11.8728 N   0  0  0  0  0  0  0  0  0  0  0  0
   22.1531  -21.2976  -12.4534 C   0  0  1  0  0  0  0  0  0  0  0  0
   21.5513  -22.6058  -12.9197 C   0  0  0  0  0  0  0  0  0  0  0  0
   20.1987  -22.3385  -13.4820 C   0  0  0  0  0  0  0  0  0  0  0  0
   19.4502  -23.6095  -13.8367 C   0  0  0  0  0  0  0  0  0  0  0  0
   19.7282  -23.8587  -15.3231 C   0  0  0  0  0  0  0  0  0  0  0  0
   18.9013  -24.9949  -15.6961 N   0  0  0  0  0  0  0  0  0  0  0  0
   21.2683  -20.7132  -11.4150 C   0  0  0  0  0  0  0  0  0  0  0  0
   21.5296  -20.9372  -10.2043 O   0  0  0  0  0  0  0  0  0  0  0  0
   20.1588  -19.9272  -11.6858 O   0  0  0  0  0  0  0  0  0  0  0  0
  2  1  1  6
  2  3  1  0
  3  4  1  0
  4  5  2  0
  4  8  1  0
  5  6  1  0
  6  7  1  0
  8  7  2  0
  9 10  2  0
  9  2  1  0
 11  9  1  0
 12 13  1  1
 12 11  1  0
 13 14  1  0
 14 15  2  0
 14 22  1  0
 15 16  1  0
 16 17  1  0
 17 18  2  0
 19 18  1  0
 20 19  2  0
 21 22  2  0
 21 20  1  0
 22 17  1  0
 23 12  1  0
 24 23  2  0
 25 23  1  0
 26 25  1  0
 26 27  1  1
 27 28  1  0
 29 28  1  0
 29 30  1  0
 30 31  1  0
 32 26  1  0
 32 34  1  0
 33 32  2  0
M  END
$$$$
