MRD.pdb
     RDKit          3D

 28 27  0  0  1  0  0  0  0  0999 V2000
    7.4146  -11.1144   26.2031 C   0  0  0  0  0  0  0  0  0  0  0  0
    6.4460  -11.9689   27.4870 S   0  0  0  0  0  0  0  0  0  0  0  0
    5.8336  -13.5553   26.8755 C   0  0  0  0  0  0  0  0  0  0  0  0
    6.9467  -14.2159   26.0932 C   0  0  0  0  0  0  0  0  0  0  0  0
    6.4490  -15.4774   25.4133 C   0  0  2  0  0  0  0  0  0  0  0  0
    5.9372  -16.4174   26.3668 N   0  0  0  0  0  0  0  0  0  0  0  0
    7.5006  -16.0026   24.5266 C   0  0  0  0  0  0  0  0  0  0  0  0
    8.1433  -17.0025   24.8804 O   0  0  0  0  0  0  0  0  0  0  0  0
    8.1987  -12.1129   19.2237 N   0  0  0  0  0  0  0  0  0  0  0  0
    7.9699  -13.2519   18.3934 C   0  0  0  0  0  0  0  0  0  0  0  0
    6.9568  -13.2510   17.6015 N   0  0  0  0  0  0  0  0  0  0  0  0
    8.8049  -14.3827   18.3941 N   0  0  0  0  0  0  0  0  0  0  0  0
   10.1023  -14.4745   19.0229 C   0  0  0  0  0  0  0  0  0  0  0  0
   10.1469  -15.3308   20.2459 C   0  0  0  0  0  0  0  0  0  0  0  0
    9.0937  -14.8941   21.2218 C   0  0  0  0  0  0  0  0  0  0  0  0
    8.8922  -15.7462   22.4132 C   0  0  2  0  0  0  0  0  0  0  0  0
    7.8107  -15.4151   23.2881 N   0  0  0  0  0  0  0  0  0  0  0  0
   10.1973  -15.8439   23.1617 C   0  0  0  0  0  0  0  0  0  0  0  0
   10.6096  -14.9039   23.8854 O   0  0  0  0  0  0  0  0  0  0  0  0
    6.8295  -13.9874   16.8893 N   0  0  0  0  0  0  0  0  0  0  0  0
   11.0280  -17.0097   23.0845 C   0  0  1  0  0  0  0  0  0  0  0  0
   12.2805  -17.1101   23.8125 C   0  0  0  0  0  0  0  0  0  0  0  0
   12.3605  -18.5329   24.3406 C   0  0  0  0  0  0  0  0  0  0  0  0
   12.3059  -18.4972   25.8035 O   0  0  0  0  0  0  0  0  0  0  0  0
   12.2777  -17.4264   26.4498 C   0  0  0  0  0  0  0  0  0  0  0  0
   13.3951  -16.8144   22.8969 O   0  0  0  0  0  0  0  0  0  0  0  0
   14.4761  -16.0335   23.2607 O   0  0  0  0  0  0  0  0  0  0  0  0
   12.2843  -19.6975   26.5039 O   0  0  0  0  0  0  0  0  0  0  0  0
  2  1  1  0
  3  2  1  0
  4  3  1  0
  4  5  1  0
  5  6  1  1
  7  8  2  0
  7  5  1  0
  9 10  1  0
 10 11  2  0
 12 10  1  0
 12 13  1  0
 13 14  1  0
 15 14  1  0
 16 15  1  6
 16 17  1  0
 17  7  1  0
 18 20  1  0
 18 16  1  0
 19 18  2  0
 21 20  1  0
 21 25  1  0
 21 22  1  6
 23 22  1  0
 24 23  2  0
 25 26  1  0
 27 23  1  0
 28 25  2  0
M  END
$$$$
