MRD.pdb
     RDKit          3D

 28 27  0  0  1  0  0  0  0  0999 V2000
   10.7608  -13.2849   29.7122 C   0  0  0  0  0  0  0  0  0  0  0  0
   10.8269  -13.8623   27.9862 S   0  0  0  0  0  0  0  0  0  0  0  0
    9.5574  -15.1116   27.6813 C   0  0  0  0  0  0  0  0  0  0  0  0
    9.6755  -15.5562   26.2406 C   0  0  0  0  0  0  0  0  0  0  0  0
    8.6364  -16.6136   25.9186 C   0  0  2  0  0  0  0  0  0  0  0  0
    8.6225  -17.6505   26.9083 N   0  0  0  0  0  0  0  0  0  0  0  0
    8.8247  -17.0790   24.5344 C   0  0  0  0  0  0  0  0  0  0  0  0
    8.5846  -18.2642   24.2591 O   0  0  0  0  0  0  0  0  0  0  0  0
    8.3029  -13.4830   18.0955 N   0  0  0  0  0  0  0  0  0  0  0  0
    8.1198  -12.6293   19.2254 C   0  0  0  0  0  0  0  0  0  0  0  0
    8.6466  -11.4563   19.2107 N   0  0  0  0  0  0  0  0  0  0  0  0
    7.3834  -13.0069   20.3617 N   0  0  0  0  0  0  0  0  0  0  0  0
    6.7444  -14.2861   20.5676 C   0  0  0  0  0  0  0  0  0  0  0  0
    7.3577  -15.1279   21.6382 C   0  0  0  0  0  0  0  0  0  0  0  0
    8.6427  -15.7304   21.1500 C   0  0  0  0  0  0  0  0  0  0  0  0
    9.4071  -16.5476   22.1164 C   0  0  2  0  0  0  0  0  0  0  0  0
    9.2690  -16.2325   23.5043 N   0  0  0  0  0  0  0  0  0  0  0  0
   10.8547  -16.5627   21.6954 C   0  0  0  0  0  0  0  0  0  0  0  0
   11.2183  -16.1077   20.5828 O   0  0  0  0  0  0  0  0  0  0  0  0
    8.6263  -10.8465   20.0434 N   0  0  0  0  0  0  0  0  0  0  0  0
   11.8827  -17.0948   22.5411 C   0  0  2  0  0  0  0  0  0  0  0  0
   13.1885  -16.4686   22.6501 C   0  0  0  0  0  0  0  0  0  0  0  0
   13.1303  -15.1999   21.8156 C   0  0  0  0  0  0  0  0  0  0  0  0
   14.3614  -15.0948   21.0298 O   0  0  0  0  0  0  0  0  0  0  0  0
   15.4982  -15.1579   21.5485 C   0  0  0  0  0  0  0  0  0  0  0  0
   13.4620  -16.1676   24.0653 O   0  0  0  0  0  0  0  0  0  0  0  0
   14.7428  -16.0505   24.5720 O   0  0  0  0  0  0  0  0  0  0  0  0
   14.2669  -14.9182   19.6544 O   0  0  0  0  0  0  0  0  0  0  0  0
  2  1  1  0
  3  2  1  0
  4  3  1  0
  4  5  1  0
  5  6  1  1
  7  8  2  0
  7  5  1  0
  9 10  1  0
 10 11  2  0
 12 10  1  0
 12 13  1  0
 13 14  1  0
 15 14  1  0
 16 15  1  6
 16 17  1  0
 17  7  1  0
 18 20  1  0
 18 16  1  0
 19 18  2  0
 21 20  1  0
 21 25  1  0
 21 22  1  6
 23 22  1  0
 24 23  2  0
 25 26  1  0
 27 23  1  0
 28 25  2  0
M  END
$$$$
