MRD.pdb
     RDKit          3D

 28 27  0  0  1  0  0  0  0  0999 V2000
    6.6590  -11.0945   27.9624 C   0  0  0  0  0  0  0  0  0  0  0  0
    7.6668  -12.1927   26.9159 S   0  0  0  0  0  0  0  0  0  0  0  0
    6.7801  -13.7262   26.5592 C   0  0  0  0  0  0  0  0  0  0  0  0
    7.6879  -14.6099   25.7330 C   0  0  0  0  0  0  0  0  0  0  0  0
    7.0359  -15.9547   25.4731 C   0  0  2  0  0  0  0  0  0  0  0  0
    6.7461  -16.6402   26.6982 N   0  0  0  0  0  0  0  0  0  0  0  0
    7.8522  -16.7168   24.5135 C   0  0  0  0  0  0  0  0  0  0  0  0
    8.0999  -17.9095   24.7465 O   0  0  0  0  0  0  0  0  0  0  0  0
    8.0430  -14.6047   17.3193 N   0  0  0  0  0  0  0  0  0  0  0  0
    7.9117  -13.3752   18.0334 C   0  0  0  0  0  0  0  0  0  0  0  0
    8.2237  -12.2764   17.4429 N   0  0  0  0  0  0  0  0  0  0  0  0
    7.4509  -13.3029   19.3595 N   0  0  0  0  0  0  0  0  0  0  0  0
    8.0310  -13.9840   20.4938 C   0  0  0  0  0  0  0  0  0  0  0  0
    7.8730  -15.4692   20.4810 C   0  0  0  0  0  0  0  0  0  0  0  0
    9.1304  -16.1274   20.9693 C   0  0  0  0  0  0  0  0  0  0  0  0
    9.0614  -16.8120   22.2780 C   0  0  2  0  0  0  0  0  0  0  0  0
    8.3678  -16.1468   23.3368 N   0  0  0  0  0  0  0  0  0  0  0  0
   10.4579  -17.2011   22.6921 C   0  0  0  0  0  0  0  0  0  0  0  0
   11.1445  -18.0016   22.0102 O   0  0  0  0  0  0  0  0  0  0  0  0
    8.0735  -11.3607   17.8951 N   0  0  0  0  0  0  0  0  0  0  0  0
   11.0678  -16.6785   23.8796 C   0  0  2  0  0  0  0  0  0  0  0  0
   12.3533  -17.1565   24.3571 C   0  0  0  0  0  0  0  0  0  0  0  0
   13.2631  -15.9419   24.4377 C   0  0  0  0  0  0  0  0  0  0  0  0
   13.8789  -15.7256   23.1268 O   0  0  0  0  0  0  0  0  0  0  0  0
   13.5860  -16.4139   22.1240 C   0  0  0  0  0  0  0  0  0  0  0  0
   12.1745  -17.7814   25.6784 O   0  0  0  0  0  0  0  0  0  0  0  0
   13.0214  -18.7595   26.1649 O   0  0  0  0  0  0  0  0  0  0  0  0
   14.8254  -14.7174   22.9880 O   0  0  0  0  0  0  0  0  0  0  0  0
  2  1  1  0
  3  2  1  0
  4  3  1  0
  4  5  1  0
  5  6  1  1
  7  8  2  0
  7  5  1  0
  9 10  1  0
 10 11  2  0
 12 10  1  0
 12 13  1  0
 13 14  1  0
 15 14  1  0
 16 15  1  6
 16 17  1  0
 17  7  1  0
 18 20  1  0
 18 16  1  0
 19 18  2  0
 21 20  1  0
 21 25  1  0
 21 22  1  6
 23 22  1  0
 24 23  2  0
 25 26  1  0
 27 23  1  0
 28 25  2  0
M  END
$$$$
