MRD.pdb
     RDKit          3D

 28 27  0  0  1  0  0  0  0  0999 V2000
    9.9619  -13.8727   30.6013 C   0  0  0  0  0  0  0  0  0  0  0  0
    9.7412  -14.8217   29.0627 S   0  0  0  0  0  0  0  0  0  0  0  0
   10.1353  -16.5656   29.3255 C   0  0  0  0  0  0  0  0  0  0  0  0
    9.9671  -17.2869   28.0068 C   0  0  0  0  0  0  0  0  0  0  0  0
    8.6959  -16.8404   27.3096 C   0  0  2  0  0  0  0  0  0  0  0  0
    7.5400  -17.4696   27.8778 N   0  0  0  0  0  0  0  0  0  0  0  0
    8.8474  -17.0173   25.8558 C   0  0  0  0  0  0  0  0  0  0  0  0
    9.5886  -17.9170   25.4321 O   0  0  0  0  0  0  0  0  0  0  0  0
    8.7972  -14.4969   18.2664 N   0  0  0  0  0  0  0  0  0  0  0  0
    8.3345  -13.2438   18.7710 C   0  0  0  0  0  0  0  0  0  0  0  0
    8.8048  -12.1583   18.2670 N   0  0  0  0  0  0  0  0  0  0  0  0
    7.3796  -13.1344   19.7968 N   0  0  0  0  0  0  0  0  0  0  0  0
    6.8665  -14.2252   20.5931 C   0  0  0  0  0  0  0  0  0  0  0  0
    7.9101  -15.0528   21.2690 C   0  0  0  0  0  0  0  0  0  0  0  0
    7.6196  -15.1531   22.7380 C   0  0  0  0  0  0  0  0  0  0  0  0
    8.4834  -16.0545   23.5300 C   0  0  2  0  0  0  0  0  0  0  0  0
    8.1848  -16.2042   24.9203 N   0  0  0  0  0  0  0  0  0  0  0  0
    9.9214  -15.6559   23.3144 C   0  0  0  0  0  0  0  0  0  0  0  0
   10.4012  -14.6225   23.8426 O   0  0  0  0  0  0  0  0  0  0  0  0
    8.4591  -11.2324   18.5649 N   0  0  0  0  0  0  0  0  0  0  0  0
   10.8077  -16.4339   22.4993 C   0  0  2  0  0  0  0  0  0  0  0  0
   12.2168  -16.1075   22.3688 C   0  0  0  0  0  0  0  0  0  0  0  0
   12.9882  -17.3494   22.7837 C   0  0  0  0  0  0  0  0  0  0  0  0
   14.4213  -17.0842   22.6418 O   0  0  0  0  0  0  0  0  0  0  0  0
   14.8662  -15.9826   22.2495 C   0  0  0  0  0  0  0  0  0  0  0  0
   12.4995  -15.7427   20.9705 O   0  0  0  0  0  0  0  0  0  0  0  0
   11.5725  -15.8907   19.9559 O   0  0  0  0  0  0  0  0  0  0  0  0
   15.3248  -18.0930   22.9543 O   0  0  0  0  0  0  0  0  0  0  0  0
  2  1  1  0
  3  2  1  0
  4  3  1  0
  4  5  1  0
  5  6  1  1
  7  8  2  0
  7  5  1  0
  9 10  1  0
 10 11  2  0
 12 10  1  0
 12 13  1  0
 13 14  1  0
 15 14  1  0
 16 15  1  1
 16 17  1  0
 17  7  1  0
 18 20  1  0
 18 16  1  0
 19 18  2  0
 21 20  1  0
 21 25  1  0
 21 22  1  6
 23 22  1  0
 24 23  2  0
 25 26  1  0
 27 23  1  0
 28 25  2  0
M  END
$$$$
