MRD.pdb
     RDKit          3D

 28 27  0  0  1  0  0  0  0  0999 V2000
    6.7908  -10.9880   26.1299 C   0  0  0  0  0  0  0  0  0  0  0  0
    6.6514  -12.2266   27.4577 S   0  0  0  0  0  0  0  0  0  0  0  0
    6.0367  -13.7958   26.8056 C   0  0  0  0  0  0  0  0  0  0  0  0
    7.1835  -14.4940   26.1091 C   0  0  0  0  0  0  0  0  0  0  0  0
    6.7435  -15.8427   25.5719 C   0  0  2  0  0  0  0  0  0  0  0  0
    6.2897  -16.7018   26.6257 N   0  0  0  0  0  0  0  0  0  0  0  0
    7.8115  -16.4053   24.7287 C   0  0  0  0  0  0  0  0  0  0  0  0
    8.4903  -17.3473   25.1645 O   0  0  0  0  0  0  0  0  0  0  0  0
    6.5363  -12.8735   18.9887 N   0  0  0  0  0  0  0  0  0  0  0  0
    7.9318  -13.1510   18.8680 C   0  0  0  0  0  0  0  0  0  0  0  0
    8.7630  -12.1699   18.8637 N   0  0  0  0  0  0  0  0  0  0  0  0
    8.4489  -14.4534   18.7567 N   0  0  0  0  0  0  0  0  0  0  0  0
    7.7231  -15.6755   19.0152 C   0  0  0  0  0  0  0  0  0  0  0  0
    7.6207  -16.0506   20.4573 C   0  0  0  0  0  0  0  0  0  0  0  0
    8.9679  -15.9589   21.1125 C   0  0  0  0  0  0  0  0  0  0  0  0
    9.0620  -16.4202   22.5141 C   0  0  2  0  0  0  0  0  0  0  0  0
    8.0979  -15.9169   23.4424 N   0  0  0  0  0  0  0  0  0  0  0  0
   10.4699  -16.1920   23.0027 C   0  0  0  0  0  0  0  0  0  0  0  0
   10.9380  -15.0342   23.1350 O   0  0  0  0  0  0  0  0  0  0  0  0
    9.7775  -12.3243   18.7518 N   0  0  0  0  0  0  0  0  0  0  0  0
   11.3396  -17.2809   23.3390 C   0  0  1  0  0  0  0  0  0  0  0  0
   12.7048  -17.0645   23.7844 C   0  0  0  0  0  0  0  0  0  0  0  0
   13.1488  -18.3522   24.4581 C   0  0  0  0  0  0  0  0  0  0  0  0
   14.4776  -18.1474   25.0385 O   0  0  0  0  0  0  0  0  0  0  0  0
   15.1109  -17.0763   24.9083 C   0  0  0  0  0  0  0  0  0  0  0  0
   13.5479  -16.7507   22.6186 O   0  0  0  0  0  0  0  0  0  0  0  0
   14.7697  -16.1136   22.7278 O   0  0  0  0  0  0  0  0  0  0  0  0
   15.0604  -19.1807   25.7626 O   0  0  0  0  0  0  0  0  0  0  0  0
  2  1  1  0
  3  2  1  0
  4  3  1  0
  4  5  1  0
  5  6  1  1
  7  8  2  0
  7  5  1  0
  9 10  1  0
 10 11  2  0
 12 10  1  0
 12 13  1  0
 13 14  1  0
 15 14  1  0
 16 15  1  6
 16 17  1  0
 17  7  1  0
 18 20  1  0
 18 16  1  0
 19 18  2  0
 21 20  1  0
 21 25  1  0
 21 22  1  6
 23 22  1  0
 24 23  2  0
 25 26  1  0
 27 23  1  0
 28 25  2  0
M  END
$$$$
