MRD.pdb
     RDKit          3D

 28 27  0  0  1  0  0  0  0  0999 V2000
    9.2843  -13.1385   28.5059 C   0  0  0  0  0  0  0  0  0  0  0  0
   10.9433  -13.8752   28.6538 S   0  0  0  0  0  0  0  0  0  0  0  0
   10.8576  -15.6750   28.5176 C   0  0  0  0  0  0  0  0  0  0  0  0
   10.7496  -16.0282   27.0509 C   0  0  0  0  0  0  0  0  0  0  0  0
    9.5135  -16.8683   26.7911 C   0  0  2  0  0  0  0  0  0  0  0  0
    9.5175  -18.0624   27.5840 N   0  0  0  0  0  0  0  0  0  0  0  0
    9.3654  -17.0856   25.3423 C   0  0  0  0  0  0  0  0  0  0  0  0
    9.4997  -18.2317   24.8880 O   0  0  0  0  0  0  0  0  0  0  0  0
    8.6307  -13.6844   17.8880 N   0  0  0  0  0  0  0  0  0  0  0  0
    8.5428  -12.8215   19.0223 C   0  0  0  0  0  0  0  0  0  0  0  0
    9.4536  -11.9311   19.1988 N   0  0  0  0  0  0  0  0  0  0  0  0
    7.5002  -12.8932   19.9626 N   0  0  0  0  0  0  0  0  0  0  0  0
    6.9007  -14.1063   20.4685 C   0  0  0  0  0  0  0  0  0  0  0  0
    7.8741  -15.1491   20.9111 C   0  0  0  0  0  0  0  0  0  0  0  0
    8.1411  -15.0164   22.3821 C   0  0  0  0  0  0  0  0  0  0  0  0
    8.8338  -16.1448   23.0400 C   0  0  2  0  0  0  0  0  0  0  0  0
    9.0775  -16.0428   24.4452 N   0  0  0  0  0  0  0  0  0  0  0  0
   10.1020  -16.4404   22.2801 C   0  0  0  0  0  0  0  0  0  0  0  0
   10.0913  -16.6420   21.0406 O   0  0  0  0  0  0  0  0  0  0  0  0
    9.3938  -11.2447   19.9674 N   0  0  0  0  0  0  0  0  0  0  0  0
   11.3768  -16.5054   22.9326 C   0  0  1  0  0  0  0  0  0  0  0  0
   12.6236  -16.4206   22.1928 C   0  0  0  0  0  0  0  0  0  0  0  0
   12.5943  -15.0969   21.4469 C   0  0  0  0  0  0  0  0  0  0  0  0
   13.8124  -14.9813   20.6423 O   0  0  0  0  0  0  0  0  0  0  0  0
   14.8566  -14.4455   21.0756 C   0  0  0  0  0  0  0  0  0  0  0  0
   13.7503  -16.4781   23.1391 O   0  0  0  0  0  0  0  0  0  0  0  0
   15.0317  -16.8288   22.7573 O   0  0  0  0  0  0  0  0  0  0  0  0
   13.8116  -15.4854   19.3471 O   0  0  0  0  0  0  0  0  0  0  0  0
  2  1  1  0
  3  2  1  0
  4  3  1  0
  4  5  1  0
  5  6  1  1
  7  8  2  0
  7  5  1  0
  9 10  1  0
 10 11  2  0
 12 10  1  0
 12 13  1  0
 13 14  1  0
 15 14  1  0
 16 15  1  6
 16 17  1  0
 17  7  1  0
 18 20  1  0
 18 16  1  0
 19 18  2  0
 21 20  1  0
 21 25  1  0
 21 22  1  6
 23 22  1  0
 24 23  2  0
 25 26  1  0
 27 23  1  0
 28 25  2  0
M  END
$$$$
