MRD.pdb
     RDKit          3D

 28 27  0  0  1  0  0  0  0  0999 V2000
    6.3611  -11.8549   26.3927 C   0  0  0  0  0  0  0  0  0  0  0  0
    5.9381  -13.2020   27.5430 S   0  0  0  0  0  0  0  0  0  0  0  0
    7.4199  -14.1128   28.0329 C   0  0  0  0  0  0  0  0  0  0  0  0
    8.0119  -14.7443   26.7927 C   0  0  0  0  0  0  0  0  0  0  0  0
    7.1555  -15.9039   26.3203 C   0  0  2  0  0  0  0  0  0  0  0  0
    7.1216  -16.9577   27.2915 N   0  0  0  0  0  0  0  0  0  0  0  0
    7.5874  -16.3143   24.9738 C   0  0  0  0  0  0  0  0  0  0  0  0
    8.3209  -17.3071   24.8526 O   0  0  0  0  0  0  0  0  0  0  0  0
   10.5068  -12.4057   19.0503 N   0  0  0  0  0  0  0  0  0  0  0  0
    9.4422  -12.9501   18.2698 C   0  0  0  0  0  0  0  0  0  0  0  0
    9.7250  -13.5794   17.1848 N   0  0  0  0  0  0  0  0  0  0  0  0
    8.0887  -12.8360   18.6318 N   0  0  0  0  0  0  0  0  0  0  0  0
    7.2710  -13.8895   19.1873 C   0  0  0  0  0  0  0  0  0  0  0  0
    7.9771  -14.7916   20.1457 C   0  0  0  0  0  0  0  0  0  0  0  0
    7.3236  -14.7259   21.4952 C   0  0  0  0  0  0  0  0  0  0  0  0
    7.8625  -15.6192   22.5428 C   0  0  2  0  0  0  0  0  0  0  0  0
    7.2029  -15.6242   23.8115 N   0  0  0  0  0  0  0  0  0  0  0  0
    9.3392  -15.3532   22.6897 C   0  0  0  0  0  0  0  0  0  0  0  0
    9.7660  -14.3731   23.3488 O   0  0  0  0  0  0  0  0  0  0  0  0
    8.9950  -14.0587   16.6344 N   0  0  0  0  0  0  0  0  0  0  0  0
   10.3243  -16.2026   22.0870 C   0  0  2  0  0  0  0  0  0  0  0  0
   11.7474  -15.9761   22.2666 C   0  0  0  0  0  0  0  0  0  0  0  0
   12.2469  -17.0754   23.1893 C   0  0  0  0  0  0  0  0  0  0  0  0
   13.6772  -16.8753   23.4309 O   0  0  0  0  0  0  0  0  0  0  0  0
   14.3060  -15.8946   22.9746 C   0  0  0  0  0  0  0  0  0  0  0  0
   12.4138  -16.0331   20.9547 O   0  0  0  0  0  0  0  0  0  0  0  0
   13.6345  -15.4332   20.7081 O   0  0  0  0  0  0  0  0  0  0  0  0
   14.3658  -17.8088   24.1966 O   0  0  0  0  0  0  0  0  0  0  0  0
  2  1  1  0
  3  2  1  0
  4  3  1  0
  4  5  1  0
  5  6  1  1
  7  8  2  0
  7  5  1  0
  9 10  1  0
 10 11  2  0
 12 10  1  0
 12 13  1  0
 13 14  1  0
 15 14  1  0
 16 15  1  6
 16 17  1  0
 17  7  1  0
 18 20  1  0
 18 16  1  0
 19 18  2  0
 21 20  1  0
 21 25  1  0
 21 22  1  6
 23 22  1  0
 24 23  2  0
 25 26  1  0
 27 23  1  0
 28 25  2  0
M  END
$$$$
