EYC.pdb
     RDKit          3D

 28 28  0  0  1  0  0  0  0  0999 V2000
   28.2726  -22.4052  -17.1358 N   0  0  0  0  0  0  0  0  0  0  0  0
   27.7553  -21.1864  -16.6013 C   0  0  1  0  0  0  0  0  0  0  0  0
   26.9842  -20.3534  -17.5638 C   0  0  0  0  0  0  0  0  0  0  0  0
   26.1273  -21.1875  -18.4882 C   0  0  0  0  0  0  0  0  0  0  0  0
   24.8426  -20.4425  -18.7055 C   0  0  0  0  0  0  0  0  0  0  0  0
   24.7326  -19.4539  -19.4599 O   0  0  0  0  0  0  0  0  0  0  0  0
   26.8609  -21.4919  -15.4256 C   0  0  0  0  0  0  0  0  0  0  0  0
   26.4303  -22.6652  -15.2804 O   0  0  0  0  0  0  0  0  0  0  0  0
   23.7063  -20.8983  -18.0127 O   0  0  0  0  0  0  0  0  0  0  0  0
   31.1043  -21.8922   -9.7138 O   0  0  0  0  0  0  0  0  0  0  0  0
   29.9071  -21.4519  -10.2832 C   0  0  0  0  0  0  0  0  0  0  0  0
   28.7035  -21.6835   -9.6503 C   0  0  0  0  0  0  0  0  0  0  0  0
   27.5319  -21.2468  -10.2147 C   0  0  0  0  0  0  0  0  0  0  0  0
   27.4976  -20.5752  -11.4051 C   0  0  0  0  0  0  0  0  0  0  0  0
   26.2993  -20.0728  -12.0717 C   0  0  0  0  0  0  0  0  0  0  0  0
   25.8118  -20.8138  -13.2513 C   0  0  2  0  0  0  0  0  0  0  0  0
   26.4943  -20.5112  -14.4907 N   0  0  0  0  0  0  0  0  0  0  0  0
   24.3781  -20.3593  -13.4596 C   0  0  0  0  0  0  0  0  0  0  0  0
   24.1059  -19.3126  -14.0990 O   0  0  0  0  0  0  0  0  0  0  0  0
   28.7133  -20.3433  -12.0435 C   0  0  0  0  0  0  0  0  0  0  0  0
   29.8886  -20.7773  -11.4839 C   0  0  0  0  0  0  0  0  0  0  0  0
   23.2814  -21.0976  -12.9392 N   0  0  0  0  0  0  0  0  0  0  0  0
   21.9062  -20.7858  -13.2891 C   0  0  1  0  0  0  0  0  0  0  0  0
   21.3229  -21.6915  -14.3226 C   0  0  0  0  0  0  0  0  0  0  0  0
   20.2584  -22.8940  -13.4723 S   0  0  0  0  0  0  0  0  0  0  0  0
   21.0860  -20.9441  -12.0372 C   0  0  0  0  0  0  0  0  0  0  0  0
   21.6042  -21.4204  -10.9754 O   0  0  0  0  0  0  0  0  0  0  0  0
   19.7523  -20.5943  -11.9506 O   0  0  0  0  0  0  0  0  0  0  0  0
  2  1  1  6
  2  3  1  0
  2  7  1  0
  3  4  1  0
  5  6  2  0
  5  4  1  0
  7  8  2  0
  9  5  1  0
 11 12  2  0
 11 10  1  0
 13 12  1  0
 14 13  2  0
 15 14  1  0
 16 15  1  1
 17  7  1  0
 17 16  1  0
 18 22  1  0
 18 16  1  0
 19 18  2  0
 20 14  1  0
 20 21  2  0
 21 11  1  0
 23 22  1  0
 23 24  1  6
 24 25  1  0
 26 23  1  0
 26 28  1  0
 27 26  2  0
M  END
$$$$
