EYC.pdb
     RDKit          3D

 28 28  0  0  1  0  0  0  0  0999 V2000
   28.7103  -20.9547  -17.3542 N   0  0  0  0  0  0  0  0  0  0  0  0
   28.0732  -22.2324  -17.3613 C   0  0  1  0  0  0  0  0  0  0  0  0
   28.9980  -23.3974  -17.4105 C   0  0  0  0  0  0  0  0  0  0  0  0
   29.9388  -23.3352  -18.5919 C   0  0  0  0  0  0  0  0  0  0  0  0
   29.1039  -23.4140  -19.8367 C   0  0  0  0  0  0  0  0  0  0  0  0
   28.7562  -22.4174  -20.5035 O   0  0  0  0  0  0  0  0  0  0  0  0
   27.2104  -22.3715  -16.1318 C   0  0  0  0  0  0  0  0  0  0  0  0
   26.6494  -23.4751  -15.9067 O   0  0  0  0  0  0  0  0  0  0  0  0
   28.6995  -24.6919  -20.2636 O   0  0  0  0  0  0  0  0  0  0  0  0
   23.4298  -20.8006   -8.2542 O   0  0  0  0  0  0  0  0  0  0  0  0
   24.2270  -20.7404   -9.3997 C   0  0  0  0  0  0  0  0  0  0  0  0
   25.5217  -21.2161   -9.3778 C   0  0  0  0  0  0  0  0  0  0  0  0
   26.2983  -21.1552  -10.5070 C   0  0  0  0  0  0  0  0  0  0  0  0
   25.8399  -20.6326  -11.6843 C   0  0  0  0  0  0  0  0  0  0  0  0
   26.5954  -20.5341  -12.9302 C   0  0  0  0  0  0  0  0  0  0  0  0
   26.2029  -21.4246  -14.0398 C   0  0  2  0  0  0  0  0  0  0  0  0
   27.0135  -21.3116  -15.2330 N   0  0  0  0  0  0  0  0  0  0  0  0
   24.8120  -20.9781  -14.4540 C   0  0  0  0  0  0  0  0  0  0  0  0
   24.5956  -19.8204  -14.8916 O   0  0  0  0  0  0  0  0  0  0  0  0
   24.5332  -20.1515  -11.7045 C   0  0  0  0  0  0  0  0  0  0  0  0
   23.7513  -20.2100  -10.5784 C   0  0  0  0  0  0  0  0  0  0  0  0
   23.6938  -21.8500  -14.3637 N   0  0  0  0  0  0  0  0  0  0  0  0
   22.3613  -21.4405  -14.7730 C   0  0  1  0  0  0  0  0  0  0  0  0
   21.7768  -22.2784  -15.8614 C   0  0  0  0  0  0  0  0  0  0  0  0
   22.9339  -22.2579  -17.2624 S   0  0  0  0  0  0  0  0  0  0  0  0
   21.4684  -21.5789  -13.5693 C   0  0  0  0  0  0  0  0  0  0  0  0
   21.8889  -22.1455  -12.5087 O   0  0  0  0  0  0  0  0  0  0  0  0
   20.1678  -21.1151  -13.5280 O   0  0  0  0  0  0  0  0  0  0  0  0
  2  1  1  1
  2  3  1  0
  2  7  1  0
  3  4  1  0
  5  6  2  0
  5  4  1  0
  7  8  2  0
  9  5  1  0
 11 12  2  0
 11 10  1  0
 13 12  1  0
 14 13  2  0
 15 14  1  0
 16 15  1  1
 17  7  1  0
 17 16  1  0
 18 22  1  0
 18 16  1  0
 19 18  2  0
 20 14  1  0
 20 21  2  0
 21 11  1  0
 23 22  1  0
 23 24  1  6
 24 25  1  0
 26 23  1  0
 26 28  1  0
 27 26  2  0
M  END
$$$$
