EYC.pdb
     RDKit          3D

 28 28  0  0  1  0  0  0  0  0999 V2000
   13.4859  -10.7840  -12.3355 N   0  0  0  0  0  0  0  0  0  0  0  0
   14.7074  -10.0600  -12.1859 C   0  0  1  0  0  0  0  0  0  0  0  0
   15.4129   -9.7448  -13.4578 C   0  0  0  0  0  0  0  0  0  0  0  0
   15.9463  -10.9828  -14.1415 C   0  0  0  0  0  0  0  0  0  0  0  0
   17.2262  -11.3602  -13.4546 C   0  0  0  0  0  0  0  0  0  0  0  0
   17.8471  -10.6038  -12.6793 O   0  0  0  0  0  0  0  0  0  0  0  0
   14.4382   -8.7620  -11.4660 C   0  0  0  0  0  0  0  0  0  0  0  0
   13.3939   -8.1185  -11.7465 O   0  0  0  0  0  0  0  0  0  0  0  0
   17.7414  -12.6443  -13.7085 O   0  0  0  0  0  0  0  0  0  0  0  0
    9.8231   -8.4638   -6.1300 O   0  0  0  0  0  0  0  0  0  0  0  0
   11.0817   -8.1565   -6.6521 C   0  0  0  0  0  0  0  0  0  0  0  0
   11.5698   -6.8678   -6.5912 C   0  0  0  0  0  0  0  0  0  0  0  0
   12.8074   -6.5737   -7.1047 C   0  0  0  0  0  0  0  0  0  0  0  0
   13.6022   -7.5204   -7.6891 C   0  0  0  0  0  0  0  0  0  0  0  0
   14.9297   -7.2950   -8.2545 C   0  0  0  0  0  0  0  0  0  0  0  0
   15.0234   -7.0701   -9.7101 C   0  0  2  0  0  0  0  0  0  0  0  0
   15.3137   -8.2501  -10.4955 N   0  0  0  0  0  0  0  0  0  0  0  0
   16.2154   -6.1506   -9.9089 C   0  0  0  0  0  0  0  0  0  0  0  0
   17.3950   -6.5744   -9.8219 O   0  0  0  0  0  0  0  0  0  0  0  0
   13.1075   -8.8207   -7.7510 C   0  0  0  0  0  0  0  0  0  0  0  0
   11.8705   -9.1212   -7.2389 C   0  0  0  0  0  0  0  0  0  0  0  0
   16.0487   -4.7702  -10.2008 N   0  0  0  0  0  0  0  0  0  0  0  0
   17.1616   -3.9266  -10.6014 C   0  0  1  0  0  0  0  0  0  0  0  0
   17.7669   -4.3034  -11.9130 C   0  0  0  0  0  0  0  0  0  0  0  0
   19.0120   -3.0481  -12.3329 S   0  0  0  0  0  0  0  0  0  0  0  0
   16.6266   -2.5265  -10.7381 C   0  0  0  0  0  0  0  0  0  0  0  0
   15.3867   -2.3209  -10.9457 O   0  0  0  0  0  0  0  0  0  0  0  0
   17.4169   -1.3968  -10.6501 O   0  0  0  0  0  0  0  0  0  0  0  0
  2  1  1  6
  2  3  1  0
  2  7  1  0
  3  4  1  0
  5  6  2  0
  5  4  1  0
  7  8  2  0
  9  5  1  0
 11 12  2  0
 11 10  1  0
 13 12  1  0
 14 13  2  0
 15 14  1  0
 16 15  1  1
 17  7  1  0
 17 16  1  0
 18 22  1  0
 18 16  1  0
 19 18  2  0
 20 14  1  0
 20 21  2  0
 21 11  1  0
 23 22  1  0
 23 24  1  6
 24 25  1  0
 26 23  1  0
 26 28  1  0
 27 26  2  0
M  END
$$$$
