EYC.pdb
     RDKit          3D

 28 28  0  0  1  0  0  0  0  0999 V2000
   26.5493  -11.9591  -17.6168 N   0  0  0  0  0  0  0  0  0  0  0  0
   27.0431  -11.5226  -16.3502 C   0  0  1  0  0  0  0  0  0  0  0  0
   28.5254  -11.4417  -16.2456 C   0  0  0  0  0  0  0  0  0  0  0  0
   29.1982  -12.7518  -16.5857 C   0  0  0  0  0  0  0  0  0  0  0  0
   29.6003  -12.6896  -18.0303 C   0  0  0  0  0  0  0  0  0  0  0  0
   29.9529  -11.6406  -18.6081 O   0  0  0  0  0  0  0  0  0  0  0  0
   26.4764  -10.1615  -16.0310 C   0  0  0  0  0  0  0  0  0  0  0  0
   26.7368   -9.6433  -14.9143 O   0  0  0  0  0  0  0  0  0  0  0  0
   29.5742  -13.8917  -18.7605 O   0  0  0  0  0  0  0  0  0  0  0  0
   22.6277   -2.1939  -16.9779 O   0  0  0  0  0  0  0  0  0  0  0  0
   23.2263   -3.4393  -17.1829 C   0  0  0  0  0  0  0  0  0  0  0  0
   22.5496   -4.4410  -17.8474 C   0  0  0  0  0  0  0  0  0  0  0  0
   23.1445   -5.6609  -18.0465 C   0  0  0  0  0  0  0  0  0  0  0  0
   24.4088   -5.9401  -17.6073 C   0  0  0  0  0  0  0  0  0  0  0  0
   25.1165   -7.2058  -17.7806 C   0  0  0  0  0  0  0  0  0  0  0  0
   25.1058   -8.1551  -16.6506 C   0  0  2  0  0  0  0  0  0  0  0  0
   25.6695   -9.4564  -16.9376 N   0  0  0  0  0  0  0  0  0  0  0  0
   23.6414   -8.4099  -16.3405 C   0  0  0  0  0  0  0  0  0  0  0  0
   22.9553   -9.2140  -17.0197 O   0  0  0  0  0  0  0  0  0  0  0  0
   25.0902   -4.9284  -16.9355 C   0  0  0  0  0  0  0  0  0  0  0  0
   24.5007   -3.7058  -16.7335 C   0  0  0  0  0  0  0  0  0  0  0  0
   22.9826   -7.7490  -15.2692 N   0  0  0  0  0  0  0  0  0  0  0  0
   21.6172   -8.0682  -14.8889 C   0  0  1  0  0  0  0  0  0  0  0  0
   21.5059   -9.1977  -13.9193 C   0  0  0  0  0  0  0  0  0  0  0  0
   19.7652   -9.3284  -13.4139 S   0  0  0  0  0  0  0  0  0  0  0  0
   21.0478   -6.8448  -14.2224 C   0  0  0  0  0  0  0  0  0  0  0  0
   21.7972   -6.0566  -13.5592 O   0  0  0  0  0  0  0  0  0  0  0  0
   19.7119   -6.4977  -14.2801 O   0  0  0  0  0  0  0  0  0  0  0  0
  2  1  1  6
  2  3  1  0
  2  7  1  0
  3  4  1  0
  5  6  2  0
  5  4  1  0
  7  8  2  0
  9  5  1  0
 11 12  2  0
 11 10  1  0
 13 12  1  0
 14 13  2  0
 15 14  1  0
 16 15  1  6
 17  7  1  0
 17 16  1  0
 18 22  1  0
 18 16  1  0
 19 18  2  0
 20 14  1  0
 20 21  2  0
 21 11  1  0
 23 22  1  0
 23 24  1  1
 24 25  1  0
 26 23  1  0
 26 28  1  0
 27 26  2  0
M  END
$$$$
