EYC.pdb
     RDKit          3D

 28 28  0  0  1  0  0  0  0  0999 V2000
   44.4832   -9.8810   -5.6414 N   0  0  0  0  0  0  0  0  0  0  0  0
   44.2229  -10.0298   -7.0374 C   0  0  1  0  0  0  0  0  0  0  0  0
   44.0669  -11.4347   -7.5031 C   0  0  0  0  0  0  0  0  0  0  0  0
   45.3765  -12.1894   -7.5027 C   0  0  0  0  0  0  0  0  0  0  0  0
   46.1921  -11.6760   -8.6533 C   0  0  0  0  0  0  0  0  0  0  0  0
   47.3095  -11.1342   -8.5249 O   0  0  0  0  0  0  0  0  0  0  0  0
   42.9679   -9.2749   -7.3987 C   0  0  0  0  0  0  0  0  0  0  0  0
   42.0085   -9.2690   -6.5846 O   0  0  0  0  0  0  0  0  0  0  0  0
   45.6526  -11.8231   -9.9441 O   0  0  0  0  0  0  0  0  0  0  0  0
   42.2066   -3.2497   -4.2473 O   0  0  0  0  0  0  0  0  0  0  0  0
   42.1898   -3.9989   -5.4261 C   0  0  0  0  0  0  0  0  0  0  0  0
   43.3397   -4.6058   -5.8869 C   0  0  0  0  0  0  0  0  0  0  0  0
   43.3153   -5.3413   -7.0445 C   0  0  0  0  0  0  0  0  0  0  0  0
   42.1771   -5.5071   -7.7836 C   0  0  0  0  0  0  0  0  0  0  0  0
   42.0623   -6.2750   -9.0205 C   0  0  0  0  0  0  0  0  0  0  0  0
   41.7218   -7.7066   -8.9072 C   0  0  2  0  0  0  0  0  0  0  0  0
   42.8364   -8.5805   -8.6114 N   0  0  0  0  0  0  0  0  0  0  0  0
   41.2363   -8.1247  -10.2838 C   0  0  0  0  0  0  0  0  0  0  0  0
   42.0280   -8.2463  -11.2519 O   0  0  0  0  0  0  0  0  0  0  0  0
   41.0173   -4.8927   -7.3179 C   0  0  0  0  0  0  0  0  0  0  0  0
   41.0352   -4.1559   -6.1605 C   0  0  0  0  0  0  0  0  0  0  0  0
   39.8650   -8.3957  -10.5377 N   0  0  0  0  0  0  0  0  0  0  0  0
   39.4020   -8.8943  -11.8214 C   0  0  1  0  0  0  0  0  0  0  0  0
   38.4769  -10.0616  -11.7209 C   0  0  0  0  0  0  0  0  0  0  0  0
   39.4255  -11.4698  -11.0732 S   0  0  0  0  0  0  0  0  0  0  0  0
   38.6437   -7.7745  -12.4818 C   0  0  0  0  0  0  0  0  0  0  0  0
   38.4220   -6.6840  -11.8616 O   0  0  0  0  0  0  0  0  0  0  0  0
   38.1487   -7.8450  -13.7697 O   0  0  0  0  0  0  0  0  0  0  0  0
  2  1  1  1
  2  3  1  0
  2  7  1  0
  3  4  1  0
  5  6  2  0
  5  4  1  0
  7  8  2  0
  9  5  1  0
 11 12  2  0
 11 10  1  0
 13 12  1  0
 14 13  2  0
 15 14  1  0
 16 15  1  6
 17  7  1  0
 17 16  1  0
 18 22  1  0
 18 16  1  0
 19 18  2  0
 20 14  1  0
 20 21  2  0
 21 11  1  0
 23 22  1  0
 23 24  1  1
 24 25  1  0
 26 23  1  0
 26 28  1  0
 27 26  2  0
M  END
$$$$
