EYC.pdb
     RDKit          3D

 28 28  0  0  1  0  0  0  0  0999 V2000
   22.0663  -11.7558  -19.1103 N   0  0  0  0  0  0  0  0  0  0  0  0
   21.4744  -12.2315  -17.9011 C   0  0  1  0  0  0  0  0  0  0  0  0
   22.0328  -13.5117  -17.3874 C   0  0  0  0  0  0  0  0  0  0  0  0
   21.7506  -14.6740  -18.3115 C   0  0  0  0  0  0  0  0  0  0  0  0
   20.6163  -15.4566  -17.7169 C   0  0  0  0  0  0  0  0  0  0  0  0
   20.6722  -16.0257  -16.6072 O   0  0  0  0  0  0  0  0  0  0  0  0
   21.6260  -11.1883  -16.8221 C   0  0  0  0  0  0  0  0  0  0  0  0
   21.2439  -11.4633  -15.6552 O   0  0  0  0  0  0  0  0  0  0  0  0
   19.4284  -15.5427  -18.4656 O   0  0  0  0  0  0  0  0  0  0  0  0
   28.3482  -11.2574  -16.0932 O   0  0  0  0  0  0  0  0  0  0  0  0
   27.1840  -10.4857  -16.1171 C   0  0  0  0  0  0  0  0  0  0  0  0
   26.8381   -9.7744  -17.2472 C   0  0  0  0  0  0  0  0  0  0  0  0
   25.6926   -9.0199  -17.2639 C   0  0  0  0  0  0  0  0  0  0  0  0
   24.8544   -8.9362  -16.1870 C   0  0  0  0  0  0  0  0  0  0  0  0
   23.6171   -8.1633  -16.1217 C   0  0  0  0  0  0  0  0  0  0  0  0
   22.3465   -8.9114  -16.0573 C   0  0  2  0  0  0  0  0  0  0  0  0
   22.1783   -9.9234  -17.0776 N   0  0  0  0  0  0  0  0  0  0  0  0
   21.2536   -7.8903  -16.3187 C   0  0  0  0  0  0  0  0  0  0  0  0
   21.1261   -7.3350  -17.4386 O   0  0  0  0  0  0  0  0  0  0  0  0
   25.2056   -9.6537  -15.0463 C   0  0  0  0  0  0  0  0  0  0  0  0
   26.3500  -10.4105  -15.0235 C   0  0  0  0  0  0  0  0  0  0  0  0
   20.3278   -7.5171  -15.3077 N   0  0  0  0  0  0  0  0  0  0  0  0
   19.2129   -6.6243  -15.5741 C   0  0  1  0  0  0  0  0  0  0  0  0
   17.9247   -7.0627  -14.9604 C   0  0  0  0  0  0  0  0  0  0  0  0
   17.6492   -8.7981  -15.4240 S   0  0  0  0  0  0  0  0  0  0  0  0
   19.5650   -5.2889  -14.9759 C   0  0  0  0  0  0  0  0  0  0  0  0
   20.6526   -5.1305  -14.3318 O   0  0  0  0  0  0  0  0  0  0  0  0
   18.7594   -4.1713  -15.0793 O   0  0  0  0  0  0  0  0  0  0  0  0
  2  1  1  6
  2  3  1  0
  2  7  1  0
  3  4  1  0
  5  6  2  0
  5  4  1  0
  7  8  2  0
  9  5  1  0
 11 12  2  0
 11 10  1  0
 13 12  1  0
 14 13  2  0
 15 14  1  0
 16 15  1  6
 17  7  1  0
 17 16  1  0
 18 22  1  0
 18 16  1  0
 19 18  2  0
 20 14  1  0
 20 21  2  0
 21 11  1  0
 23 22  1  0
 23 24  1  1
 24 25  1  0
 26 23  1  0
 26 28  1  0
 27 26  2  0
M  END
$$$$
