EYC.pdb
     RDKit          3D

 28 28  0  0  1  0  0  0  0  0999 V2000
   22.4212  -12.5005  -19.9569 N   0  0  0  0  0  0  0  0  0  0  0  0
   21.5959  -11.9556  -18.9271 C   0  0  1  0  0  0  0  0  0  0  0  0
   21.4443  -12.8138  -17.7207 C   0  0  0  0  0  0  0  0  0  0  0  0
   20.4840  -13.9589  -17.9467 C   0  0  0  0  0  0  0  0  0  0  0  0
   19.0955  -13.4309  -17.7320 C   0  0  0  0  0  0  0  0  0  0  0  0
   18.8446  -12.2570  -17.3893 O   0  0  0  0  0  0  0  0  0  0  0  0
   22.1527  -10.6243  -18.4874 C   0  0  0  0  0  0  0  0  0  0  0  0
   23.3836  -10.5331  -18.2430 O   0  0  0  0  0  0  0  0  0  0  0  0
   18.0267  -14.3229  -17.9341 O   0  0  0  0  0  0  0  0  0  0  0  0
   17.7492   -7.6592  -22.9078 O   0  0  0  0  0  0  0  0  0  0  0  0
   18.6871   -7.5173  -21.8824 C   0  0  0  0  0  0  0  0  0  0  0  0
   18.3157   -7.6876  -20.5649 C   0  0  0  0  0  0  0  0  0  0  0  0
   19.2425   -7.5482  -19.5632 C   0  0  0  0  0  0  0  0  0  0  0  0
   20.5511   -7.2408  -19.8132 C   0  0  0  0  0  0  0  0  0  0  0  0
   21.6004   -7.0792  -18.8104 C   0  0  0  0  0  0  0  0  0  0  0  0
   21.8476   -8.2076  -17.8918 C   0  0  2  0  0  0  0  0  0  0  0  0
   21.3432   -9.4868  -18.3422 N   0  0  0  0  0  0  0  0  0  0  0  0
   21.0675   -7.8891  -16.6287 C   0  0  0  0  0  0  0  0  0  0  0  0
   19.8454   -8.1611  -16.5240 O   0  0  0  0  0  0  0  0  0  0  0  0
   20.9242   -7.0677  -21.1437 C   0  0  0  0  0  0  0  0  0  0  0  0
   20.0019   -7.2062  -22.1501 C   0  0  0  0  0  0  0  0  0  0  0  0
   21.6855   -7.2682  -15.5102 N   0  0  0  0  0  0  0  0  0  0  0  0
   20.9522   -6.9661  -14.2929 C   0  0  1  0  0  0  0  0  0  0  0  0
   21.0623   -8.0197  -13.2411 C   0  0  0  0  0  0  0  0  0  0  0  0
   20.1667   -7.4356  -11.7718 S   0  0  0  0  0  0  0  0  0  0  0  0
   21.5398   -5.7015  -13.7266 C   0  0  0  0  0  0  0  0  0  0  0  0
   22.7776   -5.4373  -13.8710 O   0  0  0  0  0  0  0  0  0  0  0  0
   20.8020   -4.7633  -13.0309 O   0  0  0  0  0  0  0  0  0  0  0  0
  2  1  1  6
  2  3  1  0
  2  7  1  0
  3  4  1  0
  5  6  2  0
  5  4  1  0
  7  8  2  0
  9  5  1  0
 11 12  2  0
 11 10  1  0
 13 12  1  0
 14 13  2  0
 15 14  1  0
 16 15  1  6
 17  7  1  0
 17 16  1  0
 18 22  1  0
 18 16  1  0
 19 18  2  0
 20 14  1  0
 20 21  2  0
 21 11  1  0
 23 22  1  0
 23 24  1  1
 24 25  1  0
 26 23  1  0
 26 28  1  0
 27 26  2  0
M  END
$$$$
