WFA.pdb
     RDKit          3D

 31 33  0  0  1  0  0  0  0  0999 V2000
    7.5850  -18.8216   21.7619 N   0  0  0  0  0  0  0  0  0  0  0  0
    7.1416  -17.4468   21.8031 C   0  0  1  0  0  0  0  0  0  0  0  0
    6.2989  -17.0463   20.6135 C   0  0  0  0  0  0  0  0  0  0  0  0
    6.9497  -16.0470   19.7505 C   0  0  0  0  0  0  0  0  0  0  0  0
    7.4021  -16.2850   18.4686 C   0  0  0  0  0  0  0  0  0  0  0  0
    7.9519  -15.1315   18.0570 N   0  0  0  0  0  0  0  0  0  0  0  0
    7.8620  -14.1873   19.0234 C   0  0  0  0  0  0  0  0  0  0  0  0
    8.2719  -12.8718   19.0641 C   0  0  0  0  0  0  0  0  0  0  0  0
    8.0324  -12.1439   20.2036 C   0  0  0  0  0  0  0  0  0  0  0  0
    7.4004  -12.6803   21.2998 C   0  0  0  0  0  0  0  0  0  0  0  0
    6.9929  -13.9880   21.2603 C   0  0  0  0  0  0  0  0  0  0  0  0
    7.2174  -14.7412   20.1393 C   0  0  0  0  0  0  0  0  0  0  0  0
    6.4566  -17.2214   23.0804 C   0  0  0  0  0  0  0  0  0  0  0  0
    5.1973  -17.1226   23.1461 O   0  0  0  0  0  0  0  0  0  0  0  0
    7.1314  -17.0975   24.3384 N   0  0  0  0  0  0  0  0  0  0  0  0
    7.7815  -15.8736   24.7729 C   0  0  1  0  0  0  0  0  0  0  0  0
    7.0617  -15.5297   26.0687 C   0  0  0  0  0  0  0  0  0  0  0  0
    7.3711  -14.2230   26.6247 C   0  0  0  0  0  0  0  0  0  0  0  0
    8.4057  -14.0950   27.5235 C   0  0  0  0  0  0  0  0  0  0  0  0
    8.7388  -12.8557   28.0807 C   0  0  0  0  0  0  0  0  0  0  0  0
    8.0253  -11.7329   27.7316 C   0  0  0  0  0  0  0  0  0  0  0  0
    6.9896  -11.8595   26.8322 C   0  0  0  0  0  0  0  0  0  0  0  0
    6.6755  -13.0818   26.2947 C   0  0  0  0  0  0  0  0  0  0  0  0
    9.2146  -16.0288   25.0603 C   0  0  0  0  0  0  0  0  0  0  0  0
    9.8763  -15.0188   25.4141 O   0  0  0  0  0  0  0  0  0  0  0  0
   11.7650  -18.7335   25.3886 C   0  0  0  0  0  0  0  0  0  0  0  0
   11.3378  -17.2701   25.2228 C   0  0  2  0  0  0  0  0  0  0  0  0
    9.9305  -17.2589   24.9702 N   0  0  0  0  0  0  0  0  0  0  0  0
   12.1702  -16.6642   24.1774 C   0  0  0  0  0  0  0  0  0  0  0  0
   11.5624  -16.2339   23.0174 O   0  0  0  0  0  0  0  0  0  0  0  0
   13.3971  -16.5272   24.3027 O   0  0  0  0  0  0  0  0  0  0  0  0
  2  1  1  6
  2  3  1  0
  2 13  1  0
  3  4  1  0
  4  5  2  0
  6  5  1  0
  7  6  1  0
  8  7  2  0
  9  8  1  0
 10 11  1  0
 10  9  2  0
 11 12  2  0
 12  7  1  0
 12  4  1  0
 13 14  2  0
 15 13  1  0
 15 16  1  0
 16 17  1  1
 18 17  1  0
 19 18  2  0
 20 19  1  0
 21 22  1  0
 21 20  2  0
 22 23  2  0
 23 18  1  0
 24 16  1  0
 24 25  2  0
 27 26  1  6
 27 28  1  0
 28 24  1  0
 29 27  1  0
 29 30  1  0
 31 29  2  0
M  END
$$$$
