WFA.pdb
     RDKit          3D

 31 33  0  0  1  0  0  0  0  0999 V2000
    6.5106  -18.3466   22.1574 N   0  0  0  0  0  0  0  0  0  0  0  0
    7.2671  -17.2334   21.6316 C   0  0  1  0  0  0  0  0  0  0  0  0
    6.4139  -16.1937   20.9410 C   0  0  0  0  0  0  0  0  0  0  0  0
    7.1942  -15.2542   20.1193 C   0  0  0  0  0  0  0  0  0  0  0  0
    7.5811  -15.4795   18.8138 C   0  0  0  0  0  0  0  0  0  0  0  0
    8.2936  -14.4001   18.4542 N   0  0  0  0  0  0  0  0  0  0  0  0
    8.3673  -13.5139   19.4753 C   0  0  0  0  0  0  0  0  0  0  0  0
    8.9746  -12.2809   19.5803 C   0  0  0  0  0  0  0  0  0  0  0  0
    8.8705  -11.5959   20.7658 C   0  0  0  0  0  0  0  0  0  0  0  0
    8.1841  -12.0957   21.8464 C   0  0  0  0  0  0  0  0  0  0  0  0
    7.5802  -13.3215   21.7431 C   0  0  0  0  0  0  0  0  0  0  0  0
    7.6660  -14.0303   20.5749 C   0  0  0  0  0  0  0  0  0  0  0  0
    8.0732  -16.6688   22.7193 C   0  0  0  0  0  0  0  0  0  0  0  0
    9.1645  -16.0714   22.4912 O   0  0  0  0  0  0  0  0  0  0  0  0
    7.7084  -16.7377   24.1033 N   0  0  0  0  0  0  0  0  0  0  0  0
    8.5991  -16.3391   25.1792 C   0  0  1  0  0  0  0  0  0  0  0  0
    7.6534  -15.7941   26.2395 C   0  0  0  0  0  0  0  0  0  0  0  0
    7.4484  -14.3555   26.2104 C   0  0  0  0  0  0  0  0  0  0  0  0
    6.1799  -13.8538   26.0264 C   0  0  0  0  0  0  0  0  0  0  0  0
    5.9378  -12.4762   25.9945 C   0  0  0  0  0  0  0  0  0  0  0  0
    6.9807  -11.5930   26.1490 C   0  0  0  0  0  0  0  0  0  0  0  0
    8.2508  -12.0937   26.3332 C   0  0  0  0  0  0  0  0  0  0  0  0
    8.4716  -13.4472   26.3621 C   0  0  0  0  0  0  0  0  0  0  0  0
    9.3655  -17.4498   25.7617 C   0  0  0  0  0  0  0  0  0  0  0  0
    8.8498  -18.1220   26.6919 O   0  0  0  0  0  0  0  0  0  0  0  0
   12.1814  -19.6299   24.8715 C   0  0  0  0  0  0  0  0  0  0  0  0
   11.2835  -18.9881   25.9360 C   0  0  2  0  0  0  0  0  0  0  0  0
   10.6742  -17.8364   25.3471 N   0  0  0  0  0  0  0  0  0  0  0  0
   12.0979  -18.7293   27.1287 C   0  0  0  0  0  0  0  0  0  0  0  0
   12.2032  -17.4335   27.5868 O   0  0  0  0  0  0  0  0  0  0  0  0
   12.6921  -19.6342   27.7354 O   0  0  0  0  0  0  0  0  0  0  0  0
  2  1  1  1
  2  3  1  0
  2 13  1  0
  3  4  1  0
  4  5  2  0
  6  5  1  0
  7  6  1  0
  8  7  2  0
  9  8  1  0
 10 11  1  0
 10  9  2  0
 11 12  2  0
 12  7  1  0
 12  4  1  0
 13 14  2  0
 15 13  1  0
 15 16  1  0
 16 17  1  1
 18 17  1  0
 19 18  2  0
 20 19  1  0
 21 22  1  0
 21 20  2  0
 22 23  2  0
 23 18  1  0
 24 16  1  0
 24 25  2  0
 27 26  1  6
 27 28  1  0
 28 24  1  0
 29 27  1  0
 29 30  1  0
 31 29  2  0
M  END
$$$$
