WFA.pdb
     RDKit          3D

 31 33  0  0  1  0  0  0  0  0999 V2000
    7.3497  -19.3341   26.6110 N   0  0  0  0  0  0  0  0  0  0  0  0
    8.0593  -18.1020   26.3529 C   0  0  1  0  0  0  0  0  0  0  0  0
    9.5034  -18.1298   26.7996 C   0  0  0  0  0  0  0  0  0  0  0  0
    9.7777  -17.2348   27.9356 C   0  0  0  0  0  0  0  0  0  0  0  0
   10.2041  -17.6476   29.1816 C   0  0  0  0  0  0  0  0  0  0  0  0
   10.2995  -16.5316   29.9215 N   0  0  0  0  0  0  0  0  0  0  0  0
    9.9526  -15.4440   29.1933 C   0  0  0  0  0  0  0  0  0  0  0  0
    9.8994  -14.1037   29.5111 C   0  0  0  0  0  0  0  0  0  0  0  0
    9.5084  -13.2134   28.5416 C   0  0  0  0  0  0  0  0  0  0  0  0
    9.1700  -13.6117   27.2706 C   0  0  0  0  0  0  0  0  0  0  0  0
    9.2222  -14.9439   26.9537 C   0  0  0  0  0  0  0  0  0  0  0  0
    9.6074  -15.8573   27.8981 C   0  0  0  0  0  0  0  0  0  0  0  0
    7.9158  -17.7767   24.9299 C   0  0  0  0  0  0  0  0  0  0  0  0
    8.1177  -18.6430   24.0307 O   0  0  0  0  0  0  0  0  0  0  0  0
    7.5418  -16.4833   24.4393 N   0  0  0  0  0  0  0  0  0  0  0  0
    7.7213  -16.0770   23.0565 C   0  0  1  0  0  0  0  0  0  0  0  0
    7.2810  -14.6204   23.0543 C   0  0  0  0  0  0  0  0  0  0  0  0
    7.4118  -13.9325   21.7807 C   0  0  0  0  0  0  0  0  0  0  0  0
    8.1726  -12.7881   21.7018 C   0  0  0  0  0  0  0  0  0  0  0  0
    8.3271  -12.0965   20.4955 C   0  0  0  0  0  0  0  0  0  0  0  0
    7.7110  -12.5591   19.3562 C   0  0  0  0  0  0  0  0  0  0  0  0
    6.9493  -13.7044   19.4337 C   0  0  0  0  0  0  0  0  0  0  0  0
    6.8077  -14.3710   20.6241 C   0  0  0  0  0  0  0  0  0  0  0  0
    9.1134  -16.1461   22.5901 C   0  0  0  0  0  0  0  0  0  0  0  0
    9.9701  -15.3926   23.1206 O   0  0  0  0  0  0  0  0  0  0  0  0
   11.5010  -18.3074   20.9551 C   0  0  0  0  0  0  0  0  0  0  0  0
   10.9276  -16.8923   21.0977 C   0  0  2  0  0  0  0  0  0  0  0  0
    9.5818  -17.0187   21.5639 N   0  0  0  0  0  0  0  0  0  0  0  0
   11.0871  -16.2004   19.8137 C   0  0  0  0  0  0  0  0  0  0  0  0
   12.3537  -15.8249   19.4200 O   0  0  0  0  0  0  0  0  0  0  0  0
   10.1241  -15.9435   19.0745 O   0  0  0  0  0  0  0  0  0  0  0  0
  2  1  1  6
  2  3  1  0
  2 13  1  0
  3  4  1  0
  4  5  2  0
  6  5  1  0
  7  6  1  0
  8  7  2  0
  9  8  1  0
 10 11  1  0
 10  9  2  0
 11 12  2  0
 12  7  1  0
 12  4  1  0
 13 14  2  0
 15 13  1  0
 15 16  1  0
 16 17  1  1
 18 17  1  0
 19 18  2  0
 20 19  1  0
 21 22  1  0
 21 20  2  0
 22 23  2  0
 23 18  1  0
 24 16  1  0
 24 25  2  0
 27 26  1  6
 27 28  1  0
 28 24  1  0
 29 27  1  0
 29 30  1  0
 31 29  2  0
M  END
$$$$
