WFA.pdb
     RDKit          3D

 31 33  0  0  1  0  0  0  0  0999 V2000
    7.2468  -15.7652   22.2770 N   0  0  0  0  0  0  0  0  0  0  0  0
    8.4982  -16.4800   22.3832 C   0  0  1  0  0  0  0  0  0  0  0  0
    9.3700  -16.3607   21.1537 C   0  0  0  0  0  0  0  0  0  0  0  0
    8.6603  -15.8058   19.9897 C   0  0  0  0  0  0  0  0  0  0  0  0
    8.2324  -16.5394   18.9018 C   0  0  0  0  0  0  0  0  0  0  0  0
    7.6688  -15.6538   18.0650 N   0  0  0  0  0  0  0  0  0  0  0  0
    7.7261  -14.4037   18.5822 C   0  0  0  0  0  0  0  0  0  0  0  0
    7.2831  -13.1895   18.1030 C   0  0  0  0  0  0  0  0  0  0  0  0
    7.4804  -12.0684   18.8709 C   0  0  0  0  0  0  0  0  0  0  0  0
    8.1017  -12.1159   20.0958 C   0  0  0  0  0  0  0  0  0  0  0  0
    8.5428  -13.3224   20.5729 C   0  0  0  0  0  0  0  0  0  0  0  0
    8.3620  -14.4589   19.8312 C   0  0  0  0  0  0  0  0  0  0  0  0
    9.1807  -16.0361   23.6032 C   0  0  0  0  0  0  0  0  0  0  0  0
   10.1903  -15.2756   23.5557 O   0  0  0  0  0  0  0  0  0  0  0  0
    8.7772  -16.4105   24.9262 N   0  0  0  0  0  0  0  0  0  0  0  0
    9.4821  -15.9820   26.1217 C   0  0  1  0  0  0  0  0  0  0  0  0
    8.3642  -15.5329   27.0513 C   0  0  0  0  0  0  0  0  0  0  0  0
    7.6946  -14.3006   26.6697 C   0  0  0  0  0  0  0  0  0  0  0  0
    6.4599  -14.3580   26.0640 C   0  0  0  0  0  0  0  0  0  0  0  0
    5.7796  -13.1965   25.6829 C   0  0  0  0  0  0  0  0  0  0  0  0
    6.3453  -11.9640   25.9124 C   0  0  0  0  0  0  0  0  0  0  0  0
    7.5810  -11.9051   26.5185 C   0  0  0  0  0  0  0  0  0  0  0  0
    8.2352  -13.0533   26.8862 C   0  0  0  0  0  0  0  0  0  0  0  0
   10.2398  -17.0533   26.7839 C   0  0  0  0  0  0  0  0  0  0  0  0
   10.9215  -16.7743   27.8039 O   0  0  0  0  0  0  0  0  0  0  0  0
   12.3130  -19.6435   26.3701 C   0  0  0  0  0  0  0  0  0  0  0  0
   11.0001  -19.3743   27.1154 C   0  0  2  0  0  0  0  0  0  0  0  0
   10.2633  -18.4133   26.3552 N   0  0  0  0  0  0  0  0  0  0  0  0
   11.3253  -18.9753   28.4894 C   0  0  0  0  0  0  0  0  0  0  0  0
   12.6514  -18.9036   28.8588 O   0  0  0  0  0  0  0  0  0  0  0  0
   10.4501  -18.7018   29.3255 O   0  0  0  0  0  0  0  0  0  0  0  0
  2  1  1  6
  2  3  1  0
  2 13  1  0
  3  4  1  0
  4  5  2  0
  6  5  1  0
  7  6  1  0
  8  7  2  0
  9  8  1  0
 10 11  1  0
 10  9  2  0
 11 12  2  0
 12  7  1  0
 12  4  1  0
 13 14  2  0
 15 13  1  0
 15 16  1  0
 16 17  1  1
 18 17  1  0
 19 18  2  0
 20 19  1  0
 21 22  1  0
 21 20  2  0
 22 23  2  0
 23 18  1  0
 24 16  1  0
 24 25  2  0
 27 26  1  6
 27 28  1  0
 28 24  1  0
 29 27  1  0
 29 30  1  0
 31 29  2  0
M  END
$$$$
