WFA.pdb
     RDKit          3D

 31 33  0  0  1  0  0  0  0  0999 V2000
    8.2513  -17.0358   22.3523 N   0  0  0  0  0  0  0  0  0  0  0  0
    8.7865  -15.7021   22.5043 C   0  0  1  0  0  0  0  0  0  0  0  0
    7.7629  -14.6106   22.2885 C   0  0  0  0  0  0  0  0  0  0  0  0
    7.2621  -14.5486   20.9057 C   0  0  0  0  0  0  0  0  0  0  0  0
    6.2147  -15.2985   20.4104 C   0  0  0  0  0  0  0  0  0  0  0  0
    6.1086  -14.9638   19.1147 N   0  0  0  0  0  0  0  0  0  0  0  0
    7.0412  -14.0403   18.7815 C   0  0  0  0  0  0  0  0  0  0  0  0
    7.3171  -13.4003   17.5922 C   0  0  0  0  0  0  0  0  0  0  0  0
    8.3422  -12.4873   17.5597 C   0  0  0  0  0  0  0  0  0  0  0  0
    9.0987  -12.1910   18.6681 C   0  0  0  0  0  0  0  0  0  0  0  0
    8.8254  -12.8269   19.8508 C   0  0  0  0  0  0  0  0  0  0  0  0
    7.8104  -13.7433   19.9163 C   0  0  0  0  0  0  0  0  0  0  0  0
    9.4373  -15.6131   23.8157 C   0  0  0  0  0  0  0  0  0  0  0  0
   10.4740  -14.9102   23.9924 O   0  0  0  0  0  0  0  0  0  0  0  0
    8.9710  -16.2936   24.9874 N   0  0  0  0  0  0  0  0  0  0  0  0
    9.5894  -16.1406   26.2927 C   0  0  1  0  0  0  0  0  0  0  0  0
    8.4253  -15.7563   27.1943 C   0  0  0  0  0  0  0  0  0  0  0  0
    7.8270  -14.4605   26.9200 C   0  0  0  0  0  0  0  0  0  0  0  0
    6.5547  -14.3967   26.3987 C   0  0  0  0  0  0  0  0  0  0  0  0
    5.9403  -13.1705   26.1222 C   0  0  0  0  0  0  0  0  0  0  0  0
    6.6109  -11.9959   26.3718 C   0  0  0  0  0  0  0  0  0  0  0  0
    7.8843  -12.0584   26.8935 C   0  0  0  0  0  0  0  0  0  0  0  0
    8.4728  -13.2686   27.1591 C   0  0  0  0  0  0  0  0  0  0  0  0
   10.1976  -17.3734   26.8130 C   0  0  0  0  0  0  0  0  0  0  0  0
   10.3308  -17.5072   28.0569 O   0  0  0  0  0  0  0  0  0  0  0  0
   11.4006  -20.6828   25.5617 C   0  0  0  0  0  0  0  0  0  0  0  0
   11.2555  -19.5920   26.6298 C   0  0  2  0  0  0  0  0  0  0  0  0
   10.6570  -18.4543   26.0040 N   0  0  0  0  0  0  0  0  0  0  0  0
   12.5736  -19.3596   27.2310 C   0  0  0  0  0  0  0  0  0  0  0  0
   13.1677  -20.3857   27.9340 O   0  0  0  0  0  0  0  0  0  0  0  0
   13.1678  -18.2751   27.1280 O   0  0  0  0  0  0  0  0  0  0  0  0
  2  1  1  1
  2  3  1  0
  2 13  1  0
  3  4  1  0
  4  5  2  0
  6  5  1  0
  7  6  1  0
  8  7  2  0
  9  8  1  0
 10 11  1  0
 10  9  2  0
 11 12  2  0
 12  7  1  0
 12  4  1  0
 13 14  2  0
 15 13  1  0
 15 16  1  0
 16 17  1  1
 18 17  1  0
 19 18  2  0
 20 19  1  0
 21 22  1  0
 21 20  2  0
 22 23  2  0
 23 18  1  0
 24 16  1  0
 24 25  2  0
 27 26  1  6
 27 28  1  0
 28 24  1  0
 29 27  1  0
 29 30  1  0
 31 29  2  0
M  END
$$$$
