WFA.pdb
     RDKit          3D

 31 33  0  0  1  0  0  0  0  0999 V2000
    8.1614  -17.8642   23.4381 N   0  0  0  0  0  0  0  0  0  0  0  0
    8.6108  -16.6714   22.7574 C   0  0  1  0  0  0  0  0  0  0  0  0
    7.5736  -15.5723   22.7129 C   0  0  0  0  0  0  0  0  0  0  0  0
    7.1337  -15.1341   24.0475 C   0  0  0  0  0  0  0  0  0  0  0  0
    6.6996  -15.9752   25.0519 C   0  0  0  0  0  0  0  0  0  0  0  0
    6.3667  -15.1754   26.0774 N   0  0  0  0  0  0  0  0  0  0  0  0
    6.5740  -13.8761   25.7574 C   0  0  0  0  0  0  0  0  0  0  0  0
    6.3880  -12.7124   26.4724 C   0  0  0  0  0  0  0  0  0  0  0  0
    6.6997  -11.5165   25.8739 C   0  0  0  0  0  0  0  0  0  0  0  0
    7.1890  -11.4410   24.5920 C   0  0  0  0  0  0  0  0  0  0  0  0
    7.3741  -12.5973   23.8802 C   0  0  0  0  0  0  0  0  0  0  0  0
    7.0721  -13.8060   24.4480 C   0  0  0  0  0  0  0  0  0  0  0  0
    9.8683  -16.2350   23.3735 C   0  0  0  0  0  0  0  0  0  0  0  0
   10.5407  -15.2765   22.8948 O   0  0  0  0  0  0  0  0  0  0  0  0
   10.4357  -16.8358   24.5442 N   0  0  0  0  0  0  0  0  0  0  0  0
   11.7826  -16.5524   25.0079 C   0  0  1  0  0  0  0  0  0  0  0  0
   11.7043  -16.8103   26.5055 C   0  0  0  0  0  0  0  0  0  0  0  0
   10.9167  -15.8511   27.2618 C   0  0  0  0  0  0  0  0  0  0  0  0
    9.8184  -16.2825   27.9705 C   0  0  0  0  0  0  0  0  0  0  0  0
    9.0344  -15.3935   28.7137 C   0  0  0  0  0  0  0  0  0  0  0  0
    9.3568  -14.0569   28.7456 C   0  0  0  0  0  0  0  0  0  0  0  0
   10.4558  -13.6237   28.0368 C   0  0  0  0  0  0  0  0  0  0  0  0
   11.2143  -14.5080   27.3129 C   0  0  0  0  0  0  0  0  0  0  0  0
   12.8091  -17.4342   24.4340 C   0  0  0  0  0  0  0  0  0  0  0  0
   13.9720  -17.4054   24.9133 O   0  0  0  0  0  0  0  0  0  0  0  0
   13.1356  -20.0774   21.8069 C   0  0  0  0  0  0  0  0  0  0  0  0
   13.6963  -19.0533   22.8010 C   0  0  2  0  0  0  0  0  0  0  0  0
   12.5876  -18.3408   23.3556 N   0  0  0  0  0  0  0  0  0  0  0  0
   14.6882  -18.2292   22.1013 C   0  0  0  0  0  0  0  0  0  0  0  0
   15.8285  -18.8362   21.6203 O   0  0  0  0  0  0  0  0  0  0  0  0
   14.5350  -17.0098   21.9292 O   0  0  0  0  0  0  0  0  0  0  0  0
  2  1  1  1
  2  3  1  0
  2 13  1  0
  3  4  1  0
  4  5  2  0
  6  5  1  0
  7  6  1  0
  8  7  2  0
  9  8  1  0
 10 11  1  0
 10  9  2  0
 11 12  2  0
 12  7  1  0
 12  4  1  0
 13 14  2  0
 15 13  1  0
 15 16  1  0
 16 17  1  1
 18 17  1  0
 19 18  2  0
 20 19  1  0
 21 22  1  0
 21 20  2  0
 22 23  2  0
 23 18  1  0
 24 16  1  0
 24 25  2  0
 27 26  1  6
 27 28  1  0
 28 24  1  0
 29 27  1  0
 29 30  1  0
 31 29  2  0
M  END
$$$$
