WFA.pdb
     RDKit          3D

 31 33  0  0  1  0  0  0  0  0999 V2000
   11.0290  -17.7904   20.4787 N   0  0  0  0  0  0  0  0  0  0  0  0
   10.0929  -16.9488   21.1885 C   0  0  1  0  0  0  0  0  0  0  0  0
    8.6611  -17.4260   21.0991 C   0  0  0  0  0  0  0  0  0  0  0  0
    7.7002  -16.3381   20.8543 C   0  0  0  0  0  0  0  0  0  0  0  0
    6.3273  -16.4779   20.8715 C   0  0  0  0  0  0  0  0  0  0  0  0
    5.8346  -15.2661   20.5702 N   0  0  0  0  0  0  0  0  0  0  0  0
    6.8373  -14.3792   20.3669 C   0  0  0  0  0  0  0  0  0  0  0  0
    6.8278  -13.0387   20.0457 C   0  0  0  0  0  0  0  0  0  0  0  0
    8.0288  -12.3874   19.9083 C   0  0  0  0  0  0  0  0  0  0  0  0
    9.2346  -13.0239   20.0798 C   0  0  0  0  0  0  0  0  0  0  0  0
    9.2452  -14.3565   20.3989 C   0  0  0  0  0  0  0  0  0  0  0  0
    8.0648  -15.0351   20.5422 C   0  0  0  0  0  0  0  0  0  0  0  0
   10.5555  -16.8106   22.5735 C   0  0  0  0  0  0  0  0  0  0  0  0
   11.5689  -17.4380   22.9971 O   0  0  0  0  0  0  0  0  0  0  0  0
    9.9212  -15.9736   23.5484 N   0  0  0  0  0  0  0  0  0  0  0  0
   10.4458  -15.7791   24.8888 C   0  0  1  0  0  0  0  0  0  0  0  0
    9.3148  -15.0629   25.6123 C   0  0  0  0  0  0  0  0  0  0  0  0
    9.5894  -14.7020   26.9932 C   0  0  0  0  0  0  0  0  0  0  0  0
   10.0753  -13.4473   27.2834 C   0  0  0  0  0  0  0  0  0  0  0  0
   10.3507  -13.0578   28.5987 C   0  0  0  0  0  0  0  0  0  0  0  0
   10.1359  -13.9380   29.6335 C   0  0  0  0  0  0  0  0  0  0  0  0
    9.6496  -15.1940   29.3445 C   0  0  0  0  0  0  0  0  0  0  0  0
    9.3846  -15.5605   28.0495 C   0  0  0  0  0  0  0  0  0  0  0  0
   10.7398  -17.0303   25.6019 C   0  0  0  0  0  0  0  0  0  0  0  0
   11.4004  -16.9793   26.6715 O   0  0  0  0  0  0  0  0  0  0  0  0
   10.0076  -20.6904   25.3099 C   0  0  0  0  0  0  0  0  0  0  0  0
   10.6690  -19.4682   25.9582 C   0  0  2  0  0  0  0  0  0  0  0  0
   10.3257  -18.3252   25.1708 N   0  0  0  0  0  0  0  0  0  0  0  0
   12.1058  -19.7369   26.0856 C   0  0  0  0  0  0  0  0  0  0  0  0
   12.5127  -20.7796   26.8902 O   0  0  0  0  0  0  0  0  0  0  0  0
   12.9622  -19.0597   25.4959 O   0  0  0  0  0  0  0  0  0  0  0  0
  2  1  1  6
  2  3  1  0
  2 13  1  0
  3  4  1  0
  4  5  2  0
  6  5  1  0
  7  6  1  0
  8  7  2  0
  9  8  1  0
 10 11  1  0
 10  9  2  0
 11 12  2  0
 12  7  1  0
 12  4  1  0
 13 14  2  0
 15 13  1  0
 15 16  1  0
 16 17  1  1
 18 17  1  0
 19 18  2  0
 20 19  1  0
 21 22  1  0
 21 20  2  0
 22 23  2  0
 23 18  1  0
 24 16  1  0
 24 25  2  0
 27 26  1  6
 27 28  1  0
 28 24  1  0
 29 27  1  0
 29 30  1  0
 31 29  2  0
M  END
$$$$
