WAY.pdb
     RDKit          3D

 32 34  0  0  1  0  0  0  0  0999 V2000
    6.4952  -18.7153   25.4819 N   0  0  0  0  0  0  0  0  0  0  0  0
    6.8987  -17.7255   24.5021 C   0  0  1  0  0  0  0  0  0  0  0  0
    7.8931  -16.7417   25.0748 C   0  0  0  0  0  0  0  0  0  0  0  0
    7.2175  -15.7103   25.9001 C   0  0  0  0  0  0  0  0  0  0  0  0
    6.3781  -15.9427   26.9675 C   0  0  0  0  0  0  0  0  0  0  0  0
    5.9536  -14.7552   27.4745 N   0  0  0  0  0  0  0  0  0  0  0  0
    6.5081  -13.7520   26.7479 C   0  0  0  0  0  0  0  0  0  0  0  0
    6.3824  -12.3738   26.8716 C   0  0  0  0  0  0  0  0  0  0  0  0
    7.0734  -11.5881   25.9771 C   0  0  0  0  0  0  0  0  0  0  0  0
    7.8679  -12.1279   24.9859 C   0  0  0  0  0  0  0  0  0  0  0  0
    7.9570  -13.5096   24.9086 C   0  0  0  0  0  0  0  0  0  0  0  0
    7.2842  -14.3393   25.7811 C   0  0  0  0  0  0  0  0  0  0  0  0
    7.5824  -18.4374   23.3946 C   0  0  0  0  0  0  0  0  0  0  0  0
    8.3431  -19.3901   23.6905 O   0  0  0  0  0  0  0  0  0  0  0  0
    7.7228  -18.4950   19.6991 C   0  0  0  0  0  0  0  0  0  0  0  0
    8.3772  -18.5707   21.0641 C   0  0  2  0  0  0  0  0  0  0  0  0
    7.4232  -18.1014   22.0355 N   0  0  0  0  0  0  0  0  0  0  0  0
    9.6147  -17.7309   21.1090 C   0  0  0  0  0  0  0  0  0  0  0  0
   10.6202  -18.0589   20.4204 O   0  0  0  0  0  0  0  0  0  0  0  0
    7.5794  -13.4909   17.0852 O   0  0  0  0  0  0  0  0  0  0  0  0
    8.3224  -13.6940   18.2605 C   0  0  0  0  0  0  0  0  0  0  0  0
    9.6876  -13.8731   18.1862 C   0  0  0  0  0  0  0  0  0  0  0  0
   10.4205  -14.0750   19.3630 C   0  0  0  0  0  0  0  0  0  0  0  0
    9.7936  -14.0955   20.5804 C   0  0  0  0  0  0  0  0  0  0  0  0
   10.5640  -14.3067   21.8039 C   0  0  0  0  0  0  0  0  0  0  0  0
   10.9312  -15.7821   21.9115 C   0  0  2  0  0  0  0  0  0  0  0  0
    9.6895  -16.5741   21.9057 N   0  0  0  0  0  0  0  0  0  0  0  0
   11.7237  -16.1131   23.1007 C   0  0  0  0  0  0  0  0  0  0  0  0
   11.2857  -16.8406   24.0165 O   0  0  0  0  0  0  0  0  0  0  0  0
    8.4363  -13.9162   20.6421 C   0  0  0  0  0  0  0  0  0  0  0  0
    7.6717  -13.7121   19.4889 C   0  0  0  0  0  0  0  0  0  0  0  0
   13.0094  -15.6114   23.2350 O   0  0  0  0  0  0  0  0  0  0  0  0
  2  1  1  1
  2 13  1  0
  2  3  1  0
  4  5  2  0
  4  3  1  0
  6  5  1  0
  7 12  2  0
  7  6  1  0
  8  7  1  0
  9 10  1  0
  9  8  2  0
 10 11  2  0
 11 12  1  0
 12  4  1  0
 13 14  2  0
 16 15  1  6
 17 16  1  0
 17 13  1  0
 18 16  1  0
 19 18  2  0
 20 21  1  0
 21 22  2  0
 21 31  1  0
 22 23  1  0
 23 24  2  0
 24 25  1  0
 26 25  1  1
 26 27  1  0
 26 28  1  0
 27 18  1  0
 28 32  1  0
 29 28  2  0
 30 24  1  0
 31 30  2  0
M  END
$$$$
