WAY.pdb
     RDKit          3D

 32 34  0  0  1  0  0  0  0  0999 V2000
    6.5727  -18.1981   24.0453 N   0  0  0  0  0  0  0  0  0  0  0  0
    7.3222  -16.9927   23.7492 C   0  0  1  0  0  0  0  0  0  0  0  0
    7.9346  -16.3926   24.9940 C   0  0  0  0  0  0  0  0  0  0  0  0
    7.0452  -15.3668   25.5923 C   0  0  0  0  0  0  0  0  0  0  0  0
    5.9408  -15.6061   26.3801 C   0  0  0  0  0  0  0  0  0  0  0  0
    5.3808  -14.4221   26.7435 N   0  0  0  0  0  0  0  0  0  0  0  0
    6.1096  -13.4143   26.2001 C   0  0  0  0  0  0  0  0  0  0  0  0
    5.9428  -12.0373   26.2795 C   0  0  0  0  0  0  0  0  0  0  0  0
    6.8517  -11.2459   25.6141 C   0  0  0  0  0  0  0  0  0  0  0  0
    7.8979  -11.7793   24.8888 C   0  0  0  0  0  0  0  0  0  0  0  0
    8.0165  -13.1601   24.8436 C   0  0  0  0  0  0  0  0  0  0  0  0
    7.1316  -13.9954   25.4932 C   0  0  0  0  0  0  0  0  0  0  0  0
    8.4429  -17.3654   22.8515 C   0  0  0  0  0  0  0  0  0  0  0  0
    8.8966  -18.5322   22.9327 O   0  0  0  0  0  0  0  0  0  0  0  0
   10.3106  -15.9453   19.9809 C   0  0  0  0  0  0  0  0  0  0  0  0
   10.1648  -16.9002   21.1487 C   0  0  2  0  0  0  0  0  0  0  0  0
    9.0210  -16.4826   21.9177 N   0  0  0  0  0  0  0  0  0  0  0  0
   11.3930  -16.8886   22.0031 C   0  0  0  0  0  0  0  0  0  0  0  0
   12.5122  -17.1764   21.4959 O   0  0  0  0  0  0  0  0  0  0  0  0
    9.5649  -15.9044   29.6504 O   0  0  0  0  0  0  0  0  0  0  0  0
   10.3150  -15.7228   28.4761 C   0  0  0  0  0  0  0  0  0  0  0  0
   10.0444  -14.6538   27.6481 C   0  0  0  0  0  0  0  0  0  0  0  0
   10.7972  -14.4805   26.4794 C   0  0  0  0  0  0  0  0  0  0  0  0
   11.7949  -15.3608   26.1551 C   0  0  0  0  0  0  0  0  0  0  0  0
   12.5761  -15.1742   24.9345 C   0  0  0  0  0  0  0  0  0  0  0  0
   12.5840  -16.4781   24.1452 C   0  0  2  0  0  0  0  0  0  0  0  0
   11.3343  -16.5624   23.3702 N   0  0  0  0  0  0  0  0  0  0  0  0
   12.7319  -17.6769   24.9774 C   0  0  0  0  0  0  0  0  0  0  0  0
   13.7221  -17.8620   25.7157 O   0  0  0  0  0  0  0  0  0  0  0  0
   12.0550  -16.4195   26.9856 C   0  0  0  0  0  0  0  0  0  0  0  0
   11.3246  -16.6250   28.1605 C   0  0  0  0  0  0  0  0  0  0  0  0
   11.7486  -18.6546   24.9604 O   0  0  0  0  0  0  0  0  0  0  0  0
  2  1  1  1
  2 13  1  0
  2  3  1  0
  4  5  2  0
  4  3  1  0
  6  5  1  0
  7 12  2  0
  7  6  1  0
  8  7  1  0
  9 10  1  0
  9  8  2  0
 10 11  2  0
 11 12  1  0
 12  4  1  0
 13 14  2  0
 16 15  1  6
 17 16  1  0
 17 13  1  0
 18 16  1  0
 19 18  2  0
 20 21  1  0
 21 22  2  0
 21 31  1  0
 22 23  1  0
 23 24  2  0
 24 25  1  0
 26 25  1  1
 26 27  1  0
 26 28  1  0
 27 18  1  0
 28 32  1  0
 29 28  2  0
 30 24  1  0
 31 30  2  0
M  END
$$$$
