WAY.pdb
     RDKit          3D

 32 34  0  0  1  0  0  0  0  0999 V2000
    9.0199  -18.6360   22.1673 N   0  0  0  0  0  0  0  0  0  0  0  0
    9.7891  -17.7459   21.3197 C   0  0  1  0  0  0  0  0  0  0  0  0
    9.0574  -17.4203   20.0378 C   0  0  0  0  0  0  0  0  0  0  0  0
    7.8697  -16.5694   20.2956 C   0  0  0  0  0  0  0  0  0  0  0  0
    6.6458  -16.9986   20.7602 C   0  0  0  0  0  0  0  0  0  0  0  0
    5.8079  -15.9345   20.8738 N   0  0  0  0  0  0  0  0  0  0  0  0
    6.4739  -14.8167   20.4878 C   0  0  0  0  0  0  0  0  0  0  0  0
    6.0538  -13.4938   20.4254 C   0  0  0  0  0  0  0  0  0  0  0  0
    6.9621  -12.5569   19.9869 C   0  0  0  0  0  0  0  0  0  0  0  0
    8.2480  -12.8966   19.6178 C   0  0  0  0  0  0  0  0  0  0  0  0
    8.6135  -14.2317   19.6999 C   0  0  0  0  0  0  0  0  0  0  0  0
    7.7401  -15.2075   20.1328 C   0  0  0  0  0  0  0  0  0  0  0  0
    9.9705  -16.4683   22.0515 C   0  0  0  0  0  0  0  0  0  0  0  0
   10.7472  -15.6151   21.5589 O   0  0  0  0  0  0  0  0  0  0  0  0
    8.4151  -14.6594   24.8822 C   0  0  0  0  0  0  0  0  0  0  0  0
    9.5458  -14.8927   23.9003 C   0  0  2  0  0  0  0  0  0  0  0  0
    9.3198  -16.1647   23.2639 N   0  0  0  0  0  0  0  0  0  0  0  0
   10.8680  -14.8939   24.6006 C   0  0  0  0  0  0  0  0  0  0  0  0
   11.5296  -13.8232   24.6927 O   0  0  0  0  0  0  0  0  0  0  0  0
    8.7067  -17.3476   30.6601 O   0  0  0  0  0  0  0  0  0  0  0  0
    9.6377  -16.7756   29.7765 C   0  0  0  0  0  0  0  0  0  0  0  0
    9.3311  -15.6000   29.1241 C   0  0  0  0  0  0  0  0  0  0  0  0
   10.2652  -15.0368   28.2450 C   0  0  0  0  0  0  0  0  0  0  0  0
   11.4746  -15.6424   28.0301 C   0  0  0  0  0  0  0  0  0  0  0  0
   12.4441  -15.0497   27.1116 C   0  0  0  0  0  0  0  0  0  0  0  0
   12.6541  -15.9935   25.9334 C   0  0  2  0  0  0  0  0  0  0  0  0
   11.3997  -16.0675   25.1650 N   0  0  0  0  0  0  0  0  0  0  0  0
   13.0778  -17.3435   26.3202 C   0  0  0  0  0  0  0  0  0  0  0  0
   14.1253  -17.5578   26.9658 O   0  0  0  0  0  0  0  0  0  0  0  0
   11.7684  -16.8104   28.6840 C   0  0  0  0  0  0  0  0  0  0  0  0
   10.8612  -17.4023   29.5688 C   0  0  0  0  0  0  0  0  0  0  0  0
   12.3028  -18.4378   25.9672 O   0  0  0  0  0  0  0  0  0  0  0  0
  2  1  1  1
  2 13  1  0
  2  3  1  0
  4  5  2  0
  4  3  1  0
  6  5  1  0
  7 12  2  0
  7  6  1  0
  8  7  1  0
  9 10  1  0
  9  8  2  0
 10 11  2  0
 11 12  1  0
 12  4  1  0
 13 14  2  0
 16 15  1  1
 17 16  1  0
 17 13  1  0
 18 16  1  0
 19 18  2  0
 20 21  1  0
 21 22  2  0
 21 31  1  0
 22 23  1  0
 23 24  2  0
 24 25  1  0
 26 25  1  1
 26 27  1  0
 26 28  1  0
 27 18  1  0
 28 32  1  0
 29 28  2  0
 30 24  1  0
 31 30  2  0
M  END
$$$$
