WAY.pdb
     RDKit          3D

 32 34  0  0  1  0  0  0  0  0999 V2000
    7.9509  -18.0380   25.3946 N   0  0  0  0  0  0  0  0  0  0  0  0
    7.5713  -18.0735   23.9957 C   0  0  1  0  0  0  0  0  0  0  0  0
    6.4480  -17.1080   23.6943 C   0  0  0  0  0  0  0  0  0  0  0  0
    6.3835  -16.0231   24.7042 C   0  0  0  0  0  0  0  0  0  0  0  0
    6.0417  -16.1651   26.0312 C   0  0  0  0  0  0  0  0  0  0  0  0
    6.0960  -14.9527   26.6432 N   0  0  0  0  0  0  0  0  0  0  0  0
    6.4696  -14.0227   25.7281 C   0  0  0  0  0  0  0  0  0  0  0  0
    6.6639  -12.6536   25.8623 C   0  0  0  0  0  0  0  0  0  0  0  0
    7.0485  -11.9518   24.7422 C   0  0  0  0  0  0  0  0  0  0  0  0
    7.2398  -12.5651   23.5205 C   0  0  0  0  0  0  0  0  0  0  0  0
    7.0316  -13.9339   23.4440 C   0  0  0  0  0  0  0  0  0  0  0  0
    6.6460  -14.6809   24.5374 C   0  0  0  0  0  0  0  0  0  0  0  0
    8.7431  -17.6376   23.1973 C   0  0  0  0  0  0  0  0  0  0  0  0
    9.1272  -18.3826   22.2638 O   0  0  0  0  0  0  0  0  0  0  0  0
   10.2617  -14.8037   21.8936 C   0  0  0  0  0  0  0  0  0  0  0  0
   10.5796  -16.0989   22.6136 C   0  0  2  0  0  0  0  0  0  0  0  0
    9.4435  -16.4375   23.4313 N   0  0  0  0  0  0  0  0  0  0  0  0
   11.8014  -15.9497   23.4644 C   0  0  0  0  0  0  0  0  0  0  0  0
   12.9072  -15.6627   22.9284 O   0  0  0  0  0  0  0  0  0  0  0  0
    8.5488  -16.6536   30.0873 O   0  0  0  0  0  0  0  0  0  0  0  0
    9.5837  -16.2093   29.2469 C   0  0  0  0  0  0  0  0  0  0  0  0
   10.8523  -16.7313   29.3865 C   0  0  0  0  0  0  0  0  0  0  0  0
   11.8779  -16.2825   28.5444 C   0  0  0  0  0  0  0  0  0  0  0  0
   11.6307  -15.3337   27.5883 C   0  0  0  0  0  0  0  0  0  0  0  0
   12.7051  -14.8698   26.7135 C   0  0  0  0  0  0  0  0  0  0  0  0
   12.9766  -15.9313   25.6539 C   0  0  2  0  0  0  0  0  0  0  0  0
   11.7511  -16.1223   24.8595 N   0  0  0  0  0  0  0  0  0  0  0  0
   13.4176  -17.2190   26.2005 C   0  0  0  0  0  0  0  0  0  0  0  0
   14.3772  -17.3168   26.9938 O   0  0  0  0  0  0  0  0  0  0  0  0
   10.3660  -14.8219   27.4587 C   0  0  0  0  0  0  0  0  0  0  0  0
    9.3169  -15.2455   28.2811 C   0  0  0  0  0  0  0  0  0  0  0  0
   12.7599  -18.3846   25.8374 O   0  0  0  0  0  0  0  0  0  0  0  0
  2  1  1  1
  2 13  1  0
  2  3  1  0
  4  5  2  0
  4  3  1  0
  6  5  1  0
  7 12  2  0
  7  6  1  0
  8  7  1  0
  9 10  1  0
  9  8  2  0
 10 11  2  0
 11 12  1  0
 12  4  1  0
 13 14  2  0
 16 15  1  1
 17 16  1  0
 17 13  1  0
 18 16  1  0
 19 18  2  0
 20 21  1  0
 21 22  2  0
 21 31  1  0
 22 23  1  0
 23 24  2  0
 24 25  1  0
 26 25  1  1
 26 27  1  0
 26 28  1  0
 27 18  1  0
 28 32  1  0
 29 28  2  0
 30 24  1  0
 31 30  2  0
M  END
$$$$
