QAY.pdb
     RDKit          3D

 27 27  0  0  1  0  0  0  0  0999 V2000
   27.3181  -21.4330  -14.2703 N   0  0  0  0  0  0  0  0  0  0  0  0
   28.0053  -21.1736  -15.4943 C   0  0  0  0  0  0  0  0  0  0  0  0
   28.4157  -22.1624  -16.1252 O   0  0  0  0  0  0  0  0  0  0  0  0
   28.2336  -19.8211  -16.0127 C   0  0  0  0  0  0  0  0  0  0  0  0
   27.1966  -19.3080  -16.9462 C   0  0  0  0  0  0  0  0  0  0  0  0
   26.9348  -20.1285  -18.1574 C   0  0  2  0  0  0  0  0  0  0  0  0
   27.8943  -19.7779  -19.1741 N   0  0  0  0  0  0  0  0  0  0  0  0
   25.5439  -19.8623  -18.6282 C   0  0  0  0  0  0  0  0  0  0  0  0
   25.3411  -18.9092  -19.4238 O   0  0  0  0  0  0  0  0  0  0  0  0
   22.5209  -21.6570  -19.3368 C   0  0  0  0  0  0  0  0  0  0  0  0
   23.1598  -20.4231  -18.7381 C   0  0  2  0  0  0  0  0  0  0  0  0
   24.4503  -20.6634  -18.1948 N   0  0  0  0  0  0  0  0  0  0  0  0
   22.1935  -19.8561  -17.7579 C   0  0  0  0  0  0  0  0  0  0  0  0
   21.0265  -19.4888  -18.0794 O   0  0  0  0  0  0  0  0  0  0  0  0
   25.5286  -14.6346  -17.8022 O   0  0  0  0  0  0  0  0  0  0  0  0
   24.4775  -15.4033  -17.2707 C   0  0  0  0  0  0  0  0  0  0  0  0
   23.3131  -15.5660  -17.9898 C   0  0  0  0  0  0  0  0  0  0  0  0
   22.3158  -16.3319  -17.4162 C   0  0  0  0  0  0  0  0  0  0  0  0
   22.4582  -16.9186  -16.1769 C   0  0  0  0  0  0  0  0  0  0  0  0
   21.3644  -17.7172  -15.6279 C   0  0  0  0  0  0  0  0  0  0  0  0
   21.7408  -19.1601  -15.3705 C   0  0  2  0  0  0  0  0  0  0  0  0
   22.5701  -19.7091  -16.3952 N   0  0  0  0  0  0  0  0  0  0  0  0
   20.5639  -19.9938  -15.0471 C   0  0  0  0  0  0  0  0  0  0  0  0
   19.6175  -19.6206  -14.1118 O   0  0  0  0  0  0  0  0  0  0  0  0
   23.6204  -16.7569  -15.4579 C   0  0  0  0  0  0  0  0  0  0  0  0
   24.6224  -15.9910  -16.0272 C   0  0  0  0  0  0  0  0  0  0  0  0
   20.3990  -21.0881  -15.6343 O   0  0  0  0  0  0  0  0  0  0  0  0
  2  1  1  0
  3  2  2  0
  4  2  1  0
  5  4  1  0
  6  5  1  0
  6  8  1  0
  6  7  1  6
  8  9  2  0
 11 10  1  1
 12  8  1  0
 12 11  1  0
 13 11  1  0
 13 14  2  0
 15 16  1  0
 16 17  2  0
 17 18  1  0
 19 18  2  0
 19 20  1  0
 21 20  1  6
 21 22  1  0
 22 13  1  0
 23 24  1  0
 23 21  1  0
 25 19  1  0
 26 16  1  0
 26 25  2  0
 27 23  2  0
M  END
$$$$
