QAY.pdb
     RDKit          3D

 27 27  0  0  1  0  0  0  0  0999 V2000
   18.4725  -13.8504  -15.5526 N   0  0  0  0  0  0  0  0  0  0  0  0
   19.0191  -14.8857  -16.3694 C   0  0  0  0  0  0  0  0  0  0  0  0
   18.8443  -16.0536  -15.9827 O   0  0  0  0  0  0  0  0  0  0  0  0
   19.7555  -14.6217  -17.6096 C   0  0  0  0  0  0  0  0  0  0  0  0
   19.9627  -13.1873  -17.9402 C   0  0  0  0  0  0  0  0  0  0  0  0
   20.4900  -12.8925  -19.2981 C   0  0  2  0  0  0  0  0  0  0  0  0
   21.7678  -13.5411  -19.4527 N   0  0  0  0  0  0  0  0  0  0  0  0
   20.6250  -11.4142  -19.4520 C   0  0  0  0  0  0  0  0  0  0  0  0
   21.7757  -10.9099  -19.5154 O   0  0  0  0  0  0  0  0  0  0  0  0
   18.4923   -8.5945  -20.5908 C   0  0  0  0  0  0  0  0  0  0  0  0
   19.6561   -9.1946  -19.8328 C   0  0  2  0  0  0  0  0  0  0  0  0
   19.4809  -10.5710  -19.5278 N   0  0  0  0  0  0  0  0  0  0  0  0
   19.8915   -8.3412  -18.6360 C   0  0  0  0  0  0  0  0  0  0  0  0
   20.0963   -7.0952  -18.7117 O   0  0  0  0  0  0  0  0  0  0  0  0
   14.0967   -6.3751  -17.2374 O   0  0  0  0  0  0  0  0  0  0  0  0
   15.3041   -6.8791  -16.7216 C   0  0  0  0  0  0  0  0  0  0  0  0
   15.5742   -8.2284  -16.7984 C   0  0  0  0  0  0  0  0  0  0  0  0
   16.7765   -8.6649  -16.2747 C   0  0  0  0  0  0  0  0  0  0  0  0
   17.6834   -7.8036  -15.6948 C   0  0  0  0  0  0  0  0  0  0  0  0
   18.9374   -8.3307  -15.1604 C   0  0  0  0  0  0  0  0  0  0  0  0
   20.1008   -8.2093  -16.1204 C   0  0  2  0  0  0  0  0  0  0  0  0
   19.8920   -8.9234  -17.3393 N   0  0  0  0  0  0  0  0  0  0  0  0
   21.3937   -8.5084  -15.4697 C   0  0  0  0  0  0  0  0  0  0  0  0
   21.7746   -7.9420  -14.2680 O   0  0  0  0  0  0  0  0  0  0  0  0
   17.4149   -6.4562  -15.6176 C   0  0  0  0  0  0  0  0  0  0  0  0
   16.2126   -6.0135  -16.1403 C   0  0  0  0  0  0  0  0  0  0  0  0
   22.1920   -9.3060  -16.0138 O   0  0  0  0  0  0  0  0  0  0  0  0
  2  1  1  0
  3  2  2  0
  4  2  1  0
  5  4  1  0
  6  5  1  0
  6  8  1  0
  6  7  1  1
  8  9  2  0
 11 10  1  1
 12  8  1  0
 12 11  1  0
 13 11  1  0
 13 14  2  0
 15 16  1  0
 16 17  2  0
 17 18  1  0
 19 18  2  0
 19 20  1  0
 21 20  1  1
 21 22  1  0
 22 13  1  0
 23 24  1  0
 23 21  1  0
 25 19  1  0
 26 16  1  0
 26 25  2  0
 27 23  2  0
M  END
$$$$
