QAY.pdb
     RDKit          3D

 27 27  0  0  1  0  0  0  0  0999 V2000
   15.8358  -11.7474  -18.2870 N   0  0  0  0  0  0  0  0  0  0  0  0
   15.3827  -11.1685  -17.0634 C   0  0  0  0  0  0  0  0  0  0  0  0
   14.5329  -10.2663  -17.1530 O   0  0  0  0  0  0  0  0  0  0  0  0
   15.8727  -11.5923  -15.7479 C   0  0  0  0  0  0  0  0  0  0  0  0
   16.2893  -10.4960  -14.8344 C   0  0  0  0  0  0  0  0  0  0  0  0
   17.5697   -9.8156  -15.1610 C   0  0  2  0  0  0  0  0  0  0  0  0
   18.6615  -10.7053  -14.8549 N   0  0  0  0  0  0  0  0  0  0  0  0
   17.6675   -8.5619  -14.3575 C   0  0  0  0  0  0  0  0  0  0  0  0
   18.0631   -8.6306  -13.1653 O   0  0  0  0  0  0  0  0  0  0  0  0
   17.4745   -4.8504  -14.9063 C   0  0  0  0  0  0  0  0  0  0  0  0
   17.4346   -6.1342  -14.1067 C   0  0  2  0  0  0  0  0  0  0  0  0
   17.3231   -7.2979  -14.9139 N   0  0  0  0  0  0  0  0  0  0  0  0
   16.3451   -5.9957  -13.1019 C   0  0  0  0  0  0  0  0  0  0  0  0
   15.1918   -6.4879  -13.2685 O   0  0  0  0  0  0  0  0  0  0  0  0
   12.2274   -4.2389   -5.5414 O   0  0  0  0  0  0  0  0  0  0  0  0
   13.1853   -4.5197   -6.5320 C   0  0  0  0  0  0  0  0  0  0  0  0
   13.2340   -5.7718   -7.1059 C   0  0  0  0  0  0  0  0  0  0  0  0
   14.1966   -5.9885   -8.0737 C   0  0  0  0  0  0  0  0  0  0  0  0
   15.0821   -5.0069   -8.4646 C   0  0  0  0  0  0  0  0  0  0  0  0
   16.0759   -5.3019   -9.4948 C   0  0  0  0  0  0  0  0  0  0  0  0
   15.5945   -5.0089  -10.8991 C   0  0  2  0  0  0  0  0  0  0  0  0
   16.5813   -5.2853  -11.8936 N   0  0  0  0  0  0  0  0  0  0  0  0
   14.9958   -3.6624  -11.0132 C   0  0  0  0  0  0  0  0  0  0  0  0
   13.6381   -3.4350  -10.8918 O   0  0  0  0  0  0  0  0  0  0  0  0
   15.0346   -3.7563   -7.8924 C   0  0  0  0  0  0  0  0  0  0  0  0
   14.0729   -3.5336   -6.9228 C   0  0  0  0  0  0  0  0  0  0  0  0
   15.7325   -2.6723  -11.2290 O   0  0  0  0  0  0  0  0  0  0  0  0
  2  1  1  0
  3  2  2  0
  4  2  1  0
  5  4  1  0
  6  5  1  0
  6  8  1  0
  6  7  1  1
  8  9  2  0
 11 10  1  6
 12  8  1  0
 12 11  1  0
 13 11  1  0
 13 14  2  0
 15 16  1  0
 16 17  2  0
 17 18  1  0
 19 18  2  0
 19 20  1  0
 21 20  1  1
 21 22  1  0
 22 13  1  0
 23 24  1  0
 23 21  1  0
 25 19  1  0
 26 16  1  0
 26 25  2  0
 27 23  2  0
M  END
$$$$
