QAY.pdb
     RDKit          3D

 27 27  0  0  1  0  0  0  0  0999 V2000
   29.7800  -21.2673  -17.3594 N   0  0  0  0  0  0  0  0  0  0  0  0
   28.4124  -21.0062  -17.0444 C   0  0  0  0  0  0  0  0  0  0  0  0
   28.1743  -19.9657  -16.4082 O   0  0  0  0  0  0  0  0  0  0  0  0
   27.3167  -21.8985  -17.4360 C   0  0  0  0  0  0  0  0  0  0  0  0
   26.2194  -22.0415  -16.4434 C   0  0  0  0  0  0  0  0  0  0  0  0
   26.4179  -23.0635  -15.3828 C   0  0  2  0  0  0  0  0  0  0  0  0
   26.2106  -24.3715  -15.9514 N   0  0  0  0  0  0  0  0  0  0  0  0
   25.4474  -22.8066  -14.2786 C   0  0  0  0  0  0  0  0  0  0  0  0
   24.2664  -23.2241  -14.3949 O   0  0  0  0  0  0  0  0  0  0  0  0
   25.4199  -21.2085  -10.8577 C   0  0  0  0  0  0  0  0  0  0  0  0
   24.8450  -21.7810  -12.1348 C   0  0  2  0  0  0  0  0  0  0  0  0
   25.8331  -22.1018  -13.1038 N   0  0  0  0  0  0  0  0  0  0  0  0
   23.8149  -20.8242  -12.6240 C   0  0  0  0  0  0  0  0  0  0  0  0
   24.0924  -19.6454  -12.9895 O   0  0  0  0  0  0  0  0  0  0  0  0
   20.5523  -24.9066  -17.6785 O   0  0  0  0  0  0  0  0  0  0  0  0
   20.8016  -23.7370  -16.9382 C   0  0  0  0  0  0  0  0  0  0  0  0
   22.0985  -23.3263  -16.7179 C   0  0  0  0  0  0  0  0  0  0  0  0
   22.2810  -22.1696  -15.9837 C   0  0  0  0  0  0  0  0  0  0  0  0
   21.2236  -21.4407  -15.4825 C   0  0  0  0  0  0  0  0  0  0  0  0
   21.4862  -20.2256  -14.7142 C   0  0  0  0  0  0  0  0  0  0  0  0
   21.3904  -20.4257  -13.2173 C   0  0  2  0  0  0  0  0  0  0  0  0
   22.4527  -21.2240  -12.6945 N   0  0  0  0  0  0  0  0  0  0  0  0
   20.0462  -20.8773  -12.8005 C   0  0  0  0  0  0  0  0  0  0  0  0
   19.8387  -22.0298  -12.0667 O   0  0  0  0  0  0  0  0  0  0  0  0
   19.9281  -21.8498  -15.7018 C   0  0  0  0  0  0  0  0  0  0  0  0
   19.7394  -23.0072  -16.4363 C   0  0  0  0  0  0  0  0  0  0  0  0
   19.0395  -20.2013  -13.1155 O   0  0  0  0  0  0  0  0  0  0  0  0
  2  1  1  0
  3  2  2  0
  4  2  1  0
  5  4  1  0
  6  5  1  0
  6  8  1  0
  6  7  1  6
  8  9  2  0
 11 10  1  1
 12  8  1  0
 12 11  1  0
 13 11  1  0
 13 14  2  0
 15 16  1  0
 16 17  2  0
 17 18  1  0
 19 18  2  0
 19 20  1  0
 21 20  1  6
 21 22  1  0
 22 13  1  0
 23 24  1  0
 23 21  1  0
 25 19  1  0
 26 16  1  0
 26 25  2  0
 27 23  2  0
M  END
$$$$
