QAY.pdb
     RDKit          3D

 27 27  0  0  1  0  0  0  0  0999 V2000
   23.6134  -11.6427  -22.2932 N   0  0  0  0  0  0  0  0  0  0  0  0
   23.3891  -13.0471  -22.1708 C   0  0  0  0  0  0  0  0  0  0  0  0
   23.6560  -13.7443  -23.1642 O   0  0  0  0  0  0  0  0  0  0  0  0
   22.8711  -13.6712  -20.9492 C   0  0  0  0  0  0  0  0  0  0  0  0
   22.6829  -12.7575  -19.7917 C   0  0  0  0  0  0  0  0  0  0  0  0
   22.2489  -13.3875  -18.5175 C   0  0  2  0  0  0  0  0  0  0  0  0
   21.0400  -14.1353  -18.7554 N   0  0  0  0  0  0  0  0  0  0  0  0
   22.0177  -12.3161  -17.5047 C   0  0  0  0  0  0  0  0  0  0  0  0
   20.8778  -11.7904  -17.4220 O   0  0  0  0  0  0  0  0  0  0  0  0
   23.8567  -10.7696  -14.6019 C   0  0  0  0  0  0  0  0  0  0  0  0
   22.7694  -10.9063  -15.6451 C   0  0  2  0  0  0  0  0  0  0  0  0
   23.0586  -11.8819  -16.6365 N   0  0  0  0  0  0  0  0  0  0  0  0
   22.5139   -9.5481  -16.1981 C   0  0  0  0  0  0  0  0  0  0  0  0
   23.1740   -9.0652  -17.1632 O   0  0  0  0  0  0  0  0  0  0  0  0
   18.6966   -1.9171  -18.1021 O   0  0  0  0  0  0  0  0  0  0  0  0
   18.9787   -3.2402  -17.7175 C   0  0  0  0  0  0  0  0  0  0  0  0
   19.6264   -4.0867  -18.5911 C   0  0  0  0  0  0  0  0  0  0  0  0
   19.8764   -5.3750  -18.1573 C   0  0  0  0  0  0  0  0  0  0  0  0
   19.5021   -5.8167  -16.9062 C   0  0  0  0  0  0  0  0  0  0  0  0
   19.7972   -7.1919  -16.5096 C   0  0  0  0  0  0  0  0  0  0  0  0
   21.2151   -7.3871  -16.0182 C   0  0  2  0  0  0  0  0  0  0  0  0
   21.4906   -8.7357  -15.6383 N   0  0  0  0  0  0  0  0  0  0  0  0
   21.5913   -6.3914  -14.9926 C   0  0  0  0  0  0  0  0  0  0  0  0
   22.1817   -5.1818  -15.3058 O   0  0  0  0  0  0  0  0  0  0  0  0
   18.8552   -4.9724  -16.0330 C   0  0  0  0  0  0  0  0  0  0  0  0
   18.6023   -3.6814  -16.4619 C   0  0  0  0  0  0  0  0  0  0  0  0
   21.3744   -6.6348  -13.7829 O   0  0  0  0  0  0  0  0  0  0  0  0
  2  1  1  0
  3  2  2  0
  4  2  1  0
  5  4  1  0
  6  5  1  0
  6  8  1  0
  6  7  1  6
  8  9  2  0
 11 10  1  1
 12  8  1  0
 12 11  1  0
 13 11  1  0
 13 14  2  0
 15 16  1  0
 16 17  2  0
 17 18  1  0
 19 18  2  0
 19 20  1  0
 21 20  1  1
 21 22  1  0
 22 13  1  0
 23 24  1  0
 23 21  1  0
 25 19  1  0
 26 16  1  0
 26 25  2  0
 27 23  2  0
M  END
$$$$
