SAQ.pdb
     RDKit          3D

 21 20  0  0  1  0  0  0  0  0999 V2000
   16.8499  -12.2684  -17.8590 O   0  0  0  0  0  0  0  0  0  0  0  0
   17.5804  -11.3981  -17.0780 C   0  0  0  0  0  0  0  0  0  0  0  0
   18.7952  -12.0886  -16.5522 C   0  0  2  0  0  0  0  0  0  0  0  0
   18.4828  -13.1222  -15.5912 N   0  0  0  0  0  0  0  0  0  0  0  0
   19.7539  -11.0942  -15.9376 C   0  0  0  0  0  0  0  0  0  0  0  0
   19.4472  -10.5162  -14.8667 O   0  0  0  0  0  0  0  0  0  0  0  0
   23.2720   -9.8815  -16.7486 C   0  0  0  0  0  0  0  0  0  0  0  0
   21.9257   -9.8272  -16.0797 C   0  0  2  0  0  0  0  0  0  0  0  0
   20.9952  -10.8034  -16.5519 N   0  0  0  0  0  0  0  0  0  0  0  0
   21.3152   -8.4492  -16.1541 C   0  0  0  0  0  0  0  0  0  0  0  0
   20.4034   -8.1373  -16.9507 O   0  0  0  0  0  0  0  0  0  0  0  0
   16.8939   -5.8066  -14.9227 N   0  0  0  0  0  0  0  0  0  0  0  0
   17.7126   -4.6187  -14.8475 C   0  0  0  0  0  0  0  0  0  0  0  0
   17.1021   -3.5569  -14.6640 O   0  0  0  0  0  0  0  0  0  0  0  0
   19.1431   -4.7200  -14.9844 C   0  0  0  0  0  0  0  0  0  0  0  0
   19.7944   -6.0268  -15.1630 C   0  0  0  0  0  0  0  0  0  0  0  0
   21.2700   -6.0884  -15.2604 C   0  0  2  0  0  0  0  0  0  0  0  0
   21.7885   -7.4333  -15.2782 N   0  0  0  0  0  0  0  0  0  0  0  0
   22.0577   -5.2236  -14.3878 C   0  0  0  0  0  0  0  0  0  0  0  0
   22.6924   -5.7356  -13.3974 O   0  0  0  0  0  0  0  0  0  0  0  0
   22.2013   -3.8494  -14.5181 O   0  0  0  0  0  0  0  0  0  0  0  0
  1  2  1  0
  3  4  1  1
  3  2  1  0
  5  3  1  0
  6  5  2  0
  8  7  1  6
  8  9  1  0
  8 10  1  0
  9  5  1  0
 10 11  2  0
 12 13  1  0
 13 14  2  0
 15 13  1  0
 15 16  1  0
 17 16  1  1
 18 10  1  0
 18 17  1  0
 19 21  1  0
 19 17  1  0
 20 19  2  0
M  END
$$$$
