SAQ.pdb
     RDKit          3D

 21 20  0  0  1  0  0  0  0  0999 V2000
   15.9845  -11.1887  -17.8045 O   0  0  0  0  0  0  0  0  0  0  0  0
   16.6710  -10.5664  -16.7833 C   0  0  0  0  0  0  0  0  0  0  0  0
   18.1176  -10.9289  -16.8523 C   0  0  2  0  0  0  0  0  0  0  0  0
   18.3539  -12.3404  -16.6485 N   0  0  0  0  0  0  0  0  0  0  0  0
   18.9197  -10.1282  -15.8517 C   0  0  0  0  0  0  0  0  0  0  0  0
   18.3338   -9.5604  -14.8981 O   0  0  0  0  0  0  0  0  0  0  0  0
   22.5310   -9.7999  -14.8957 C   0  0  0  0  0  0  0  0  0  0  0  0
   21.1515   -9.2358  -15.1004 C   0  0  2  0  0  0  0  0  0  0  0  0
   20.3245  -10.0080  -15.9730 N   0  0  0  0  0  0  0  0  0  0  0  0
   21.1933   -7.7993  -15.5610 C   0  0  0  0  0  0  0  0  0  0  0  0
   21.3785   -7.4577  -16.7493 O   0  0  0  0  0  0  0  0  0  0  0  0
   17.0741   -5.6457  -14.3461 N   0  0  0  0  0  0  0  0  0  0  0  0
   17.4956   -5.5951  -15.7269 C   0  0  0  0  0  0  0  0  0  0  0  0
   16.6597   -5.9764  -16.5575 O   0  0  0  0  0  0  0  0  0  0  0  0
   18.8152   -5.1231  -16.0604 C   0  0  0  0  0  0  0  0  0  0  0  0
   19.7561   -4.7053  -15.0096 C   0  0  0  0  0  0  0  0  0  0  0  0
   21.0826   -5.3571  -14.9306 C   0  0  2  0  0  0  0  0  0  0  0  0
   21.0144   -6.7601  -14.6064 N   0  0  0  0  0  0  0  0  0  0  0  0
   22.1395   -4.6863  -14.1805 C   0  0  0  0  0  0  0  0  0  0  0  0
   22.6687   -5.2751  -13.1710 O   0  0  0  0  0  0  0  0  0  0  0  0
   22.6566   -3.4272  -14.4517 O   0  0  0  0  0  0  0  0  0  0  0  0
  1  2  1  0
  3  4  1  1
  3  2  1  0
  5  3  1  0
  6  5  2  0
  8  7  1  6
  8  9  1  0
  8 10  1  0
  9  5  1  0
 10 11  2  0
 12 13  1  0
 13 14  2  0
 15 13  1  0
 15 16  1  0
 17 16  1  1
 18 10  1  0
 18 17  1  0
 19 21  1  0
 19 17  1  0
 20 19  2  0
M  END
$$$$
