SAQ.pdb
     RDKit          3D

 21 20  0  0  1  0  0  0  0  0999 V2000
   24.4725  -18.7788  -16.4984 O   0  0  0  0  0  0  0  0  0  0  0  0
   25.6309  -18.6665  -17.2378 C   0  0  0  0  0  0  0  0  0  0  0  0
   26.3244  -19.9874  -17.2947 C   0  0  2  0  0  0  0  0  0  0  0  0
   25.6219  -20.9569  -18.1046 N   0  0  0  0  0  0  0  0  0  0  0  0
   26.5363  -20.5425  -15.9045 C   0  0  0  0  0  0  0  0  0  0  0  0
   25.7384  -21.3973  -15.4488 O   0  0  0  0  0  0  0  0  0  0  0  0
   29.1059  -19.9830  -13.1424 C   0  0  0  0  0  0  0  0  0  0  0  0
   27.8022  -20.4508  -13.7293 C   0  0  2  0  0  0  0  0  0  0  0  0
   27.6229  -20.1127  -15.1060 N   0  0  0  0  0  0  0  0  0  0  0  0
   26.6190  -19.9789  -12.9203 C   0  0  0  0  0  0  0  0  0  0  0  0
   25.7633  -19.1741  -13.3485 O   0  0  0  0  0  0  0  0  0  0  0  0
   22.0365  -19.0907  -12.6980 N   0  0  0  0  0  0  0  0  0  0  0  0
   21.7411  -19.9377  -11.5657 C   0  0  0  0  0  0  0  0  0  0  0  0
   20.6409  -19.7512  -11.0284 O   0  0  0  0  0  0  0  0  0  0  0  0
   22.7012  -20.9199  -11.1310 C   0  0  0  0  0  0  0  0  0  0  0  0
   24.0575  -20.9540  -11.6996 C   0  0  0  0  0  0  0  0  0  0  0  0
   25.1893  -20.4459  -10.8925 C   0  0  2  0  0  0  0  0  0  0  0  0
   26.4485  -20.4640  -11.5942 N   0  0  0  0  0  0  0  0  0  0  0  0
   25.3340  -20.9285   -9.5228 C   0  0  0  0  0  0  0  0  0  0  0  0
   25.0548  -20.1464   -8.5450 O   0  0  0  0  0  0  0  0  0  0  0  0
   25.7590  -22.1951   -9.1468 O   0  0  0  0  0  0  0  0  0  0  0  0
  1  2  1  0
  3  4  1  6
  3  2  1  0
  5  3  1  0
  6  5  2  0
  8  7  1  1
  8  9  1  0
  8 10  1  0
  9  5  1  0
 10 11  2  0
 12 13  1  0
 13 14  2  0
 15 13  1  0
 15 16  1  0
 17 16  1  6
 18 10  1  0
 18 17  1  0
 19 21  1  0
 19 17  1  0
 20 19  2  0
M  END
$$$$
