SAQ.pdb
     RDKit          3D

 21 20  0  0  1  0  0  0  0  0999 V2000
   15.4310  -11.2004  -16.3819 O   0  0  0  0  0  0  0  0  0  0  0  0
   16.4979  -10.5568  -15.7914 C   0  0  0  0  0  0  0  0  0  0  0  0
   17.7759  -11.1964  -16.2231 C   0  0  2  0  0  0  0  0  0  0  0  0
   17.9325  -12.5401  -15.7137 N   0  0  0  0  0  0  0  0  0  0  0  0
   18.9627  -10.3543  -15.8128 C   0  0  0  0  0  0  0  0  0  0  0  0
   19.3916  -10.4176  -14.6350 O   0  0  0  0  0  0  0  0  0  0  0  0
   21.3322   -7.9658  -17.5966 C   0  0  0  0  0  0  0  0  0  0  0  0
   20.6434   -8.5753  -16.4062 C   0  0  2  0  0  0  0  0  0  0  0  0
   19.5998   -9.4933  -16.7377 N   0  0  0  0  0  0  0  0  0  0  0  0
   20.1271   -7.5236  -15.4551 C   0  0  0  0  0  0  0  0  0  0  0  0
   18.9122   -7.3071  -15.2544 O   0  0  0  0  0  0  0  0  0  0  0  0
   17.9093   -7.2687  -10.6669 N   0  0  0  0  0  0  0  0  0  0  0  0
   18.4978   -5.9555  -10.5404 C   0  0  0  0  0  0  0  0  0  0  0  0
   18.1838   -5.3224   -9.5233 O   0  0  0  0  0  0  0  0  0  0  0  0
   19.3861   -5.4628  -11.5619 C   0  0  0  0  0  0  0  0  0  0  0  0
   19.7654   -6.3075  -12.7050 C   0  0  0  0  0  0  0  0  0  0  0  0
   20.6751   -5.7583  -13.7353 C   0  0  2  0  0  0  0  0  0  0  0  0
   21.0572   -6.7225  -14.7365 N   0  0  0  0  0  0  0  0  0  0  0  0
   21.8172   -4.9625  -13.2967 C   0  0  0  0  0  0  0  0  0  0  0  0
   21.6311   -3.7578  -12.8971 O   0  0  0  0  0  0  0  0  0  0  0  0
   23.1388   -5.3850  -13.2634 O   0  0  0  0  0  0  0  0  0  0  0  0
  1  2  1  0
  3  4  1  1
  3  2  1  0
  5  3  1  0
  6  5  2  0
  8  7  1  6
  8  9  1  0
  8 10  1  0
  9  5  1  0
 10 11  2  0
 12 13  1  0
 13 14  2  0
 15 13  1  0
 15 16  1  0
 17 16  1  1
 18 10  1  0
 18 17  1  0
 19 21  1  0
 19 17  1  0
 20 19  2  0
M  END
$$$$
