SAQ.pdb
     RDKit          3D

 21 20  0  0  1  0  0  0  0  0999 V2000
   11.6748  -13.7276   -9.5516 O   0  0  0  0  0  0  0  0  0  0  0  0
   12.6815  -12.9177  -10.0330 C   0  0  0  0  0  0  0  0  0  0  0  0
   12.6572  -12.9142  -11.5257 C   0  0  2  0  0  0  0  0  0  0  0  0
   12.9656  -14.2061  -12.0962 N   0  0  0  0  0  0  0  0  0  0  0  0
   13.6072  -11.8745  -12.0754 C   0  0  0  0  0  0  0  0  0  0  0  0
   14.7551  -12.2177  -12.4489 O   0  0  0  0  0  0  0  0  0  0  0  0
   13.2894   -8.2373  -13.1106 C   0  0  0  0  0  0  0  0  0  0  0  0
   14.0426   -9.4779  -12.7147 C   0  0  2  0  0  0  0  0  0  0  0  0
   13.2222  -10.5164  -12.1760 N   0  0  0  0  0  0  0  0  0  0  0  0
   15.1777   -9.1697  -11.7693 C   0  0  0  0  0  0  0  0  0  0  0  0
   15.1157   -9.3417  -10.5325 O   0  0  0  0  0  0  0  0  0  0  0  0
   21.9030   -9.4478  -12.8212 N   0  0  0  0  0  0  0  0  0  0  0  0
   21.3515   -8.2290  -12.2759 C   0  0  0  0  0  0  0  0  0  0  0  0
   22.0153   -7.2028  -12.4765 O   0  0  0  0  0  0  0  0  0  0  0  0
   20.1060   -8.2624  -11.5528 C   0  0  0  0  0  0  0  0  0  0  0  0
   18.8330   -8.4980  -12.2513 C   0  0  0  0  0  0  0  0  0  0  0  0
   17.5664   -8.4005  -11.4917 C   0  0  2  0  0  0  0  0  0  0  0  0
   16.3953   -8.6539  -12.2933 N   0  0  0  0  0  0  0  0  0  0  0  0
   17.3735   -7.2518  -10.6124 C   0  0  0  0  0  0  0  0  0  0  0  0
   16.7560   -6.2169  -11.0519 O   0  0  0  0  0  0  0  0  0  0  0  0
   17.8037   -7.1529   -9.2966 O   0  0  0  0  0  0  0  0  0  0  0  0
  1  2  1  0
  3  4  1  6
  3  2  1  0
  5  3  1  0
  6  5  2  0
  8  7  1  1
  8  9  1  0
  8 10  1  0
  9  5  1  0
 10 11  2  0
 12 13  1  0
 13 14  2  0
 15 13  1  0
 15 16  1  0
 17 16  1  6
 18 10  1  0
 18 17  1  0
 19 21  1  0
 19 17  1  0
 20 19  2  0
M  END
$$$$
