SAQ.pdb
     RDKit          3D

 21 20  0  0  1  0  0  0  0  0999 V2000
   15.0738  -11.9995  -14.5384 O   0  0  0  0  0  0  0  0  0  0  0  0
   15.8412  -11.8826  -15.6780 C   0  0  0  0  0  0  0  0  0  0  0  0
   17.2885  -11.8573  -15.3124 C   0  0  2  0  0  0  0  0  0  0  0  0
   17.6773  -12.9717  -14.4779 N   0  0  0  0  0  0  0  0  0  0  0  0
   17.6461  -10.5581  -14.6268 C   0  0  0  0  0  0  0  0  0  0  0  0
   17.5151  -10.4558  -13.3828 O   0  0  0  0  0  0  0  0  0  0  0  0
   19.1538   -7.2448  -15.7500 C   0  0  0  0  0  0  0  0  0  0  0  0
   18.4413   -8.1754  -14.8070 C   0  0  2  0  0  0  0  0  0  0  0  0
   18.1275   -9.4521  -15.3668 N   0  0  0  0  0  0  0  0  0  0  0  0
   17.2004   -7.5449  -14.2241 C   0  0  0  0  0  0  0  0  0  0  0  0
   16.0464   -7.7589  -14.6550 O   0  0  0  0  0  0  0  0  0  0  0  0
   14.5710   -7.6123   -8.8234 N   0  0  0  0  0  0  0  0  0  0  0  0
   15.8047   -6.8610   -8.8049 C   0  0  0  0  0  0  0  0  0  0  0  0
   16.3512   -6.7537   -7.6987 O   0  0  0  0  0  0  0  0  0  0  0  0
   16.3210   -6.2938  -10.0244 C   0  0  0  0  0  0  0  0  0  0  0  0
   15.6819   -6.5762  -11.3188 C   0  0  0  0  0  0  0  0  0  0  0  0
   16.2195   -5.9383  -12.5415 C   0  0  2  0  0  0  0  0  0  0  0  0
   17.3277   -6.6541  -13.1225 N   0  0  0  0  0  0  0  0  0  0  0  0
   16.4646   -4.4998  -12.5209 C   0  0  0  0  0  0  0  0  0  0  0  0
   17.6193   -4.0511  -12.8539 O   0  0  0  0  0  0  0  0  0  0  0  0
   15.5453   -3.5227  -12.1652 O   0  0  0  0  0  0  0  0  0  0  0  0
  1  2  1  0
  3  4  1  1
  3  2  1  0
  5  3  1  0
  6  5  2  0
  8  7  1  6
  8  9  1  0
  8 10  1  0
  9  5  1  0
 10 11  2  0
 12 13  1  0
 13 14  2  0
 15 13  1  0
 15 16  1  0
 17 16  1  1
 18 10  1  0
 18 17  1  0
 19 21  1  0
 19 17  1  0
 20 19  2  0
M  END
$$$$
