SAQ.pdb
     RDKit          3D

 21 20  0  0  1  0  0  0  0  0999 V2000
   16.3856  -10.6996  -17.0197 O   0  0  0  0  0  0  0  0  0  0  0  0
   16.4450  -10.5321  -15.6524 C   0  0  0  0  0  0  0  0  0  0  0  0
   17.8220  -10.8405  -15.1646 C   0  0  2  0  0  0  0  0  0  0  0  0
   18.0733  -12.2593  -15.0500 N   0  0  0  0  0  0  0  0  0  0  0  0
   18.0839  -10.1675  -13.8364 C   0  0  0  0  0  0  0  0  0  0  0  0
   17.4705  -10.5549  -12.8123 O   0  0  0  0  0  0  0  0  0  0  0  0
   20.4815   -7.4886  -12.5878 C   0  0  0  0  0  0  0  0  0  0  0  0
   19.2533   -8.3555  -12.5359 C   0  0  2  0  0  0  0  0  0  0  0  0
   19.0122   -9.1048  -13.7284 N   0  0  0  0  0  0  0  0  0  0  0  0
   18.0228   -7.5667  -12.1606 C   0  0  0  0  0  0  0  0  0  0  0  0
   17.0932   -7.3123  -12.9570 O   0  0  0  0  0  0  0  0  0  0  0  0
   12.7834   -8.1348  -10.1579 N   0  0  0  0  0  0  0  0  0  0  0  0
   13.9273   -8.8594   -9.6547 C   0  0  0  0  0  0  0  0  0  0  0  0
   13.6783   -9.9415   -9.1062 O   0  0  0  0  0  0  0  0  0  0  0  0
   15.2510   -8.3117   -9.8074 C   0  0  0  0  0  0  0  0  0  0  0  0
   15.4681   -7.0520  -10.5354 C   0  0  0  0  0  0  0  0  0  0  0  0
   16.7501   -6.3327  -10.3629 C   0  0  2  0  0  0  0  0  0  0  0  0
   17.8929   -7.0757  -10.8320 N   0  0  0  0  0  0  0  0  0  0  0  0
   17.0183   -5.6951   -9.0779 C   0  0  0  0  0  0  0  0  0  0  0  0
   16.1793   -4.8467   -8.6066 O   0  0  0  0  0  0  0  0  0  0  0  0
   18.1293   -5.9159   -8.2759 O   0  0  0  0  0  0  0  0  0  0  0  0
  1  2  1  0
  3  4  1  1
  3  2  1  0
  5  3  1  0
  6  5  2  0
  8  7  1  6
  8  9  1  0
  8 10  1  0
  9  5  1  0
 10 11  2  0
 12 13  1  0
 13 14  2  0
 15 13  1  0
 15 16  1  0
 17 16  1  1
 18 10  1  0
 18 17  1  0
 19 21  1  0
 19 17  1  0
 20 19  2  0
M  END
$$$$
