SAQ.pdb
     RDKit          3D

 21 20  0  0  1  0  0  0  0  0999 V2000
   16.0175  -12.6038  -10.2902 O   0  0  0  0  0  0  0  0  0  0  0  0
   16.2540  -11.2848  -10.6147 C   0  0  0  0  0  0  0  0  0  0  0  0
   15.0897  -10.4461  -10.2023 C   0  0  2  0  0  0  0  0  0  0  0  0
   13.8761  -10.7807  -10.9127 N   0  0  0  0  0  0  0  0  0  0  0  0
   15.3966   -8.9766  -10.3817 C   0  0  0  0  0  0  0  0  0  0  0  0
   15.3496   -8.4679  -11.5280 O   0  0  0  0  0  0  0  0  0  0  0  0
   15.8030   -5.9904   -8.1140 C   0  0  0  0  0  0  0  0  0  0  0  0
   16.0890   -6.7807   -9.3616 C   0  0  2  0  0  0  0  0  0  0  0  0
   15.7371   -8.1629   -9.2751 N   0  0  0  0  0  0  0  0  0  0  0  0
   17.5251   -6.6371   -9.8022 C   0  0  0  0  0  0  0  0  0  0  0  0
   18.4896   -7.1599   -9.2024 O   0  0  0  0  0  0  0  0  0  0  0  0
   21.5192   -8.2578  -13.7614 N   0  0  0  0  0  0  0  0  0  0  0  0
   20.1262   -8.6360  -13.7016 C   0  0  0  0  0  0  0  0  0  0  0  0
   19.7592   -9.4676  -14.5428 O   0  0  0  0  0  0  0  0  0  0  0  0
   19.2633   -8.0516  -12.7069 C   0  0  0  0  0  0  0  0  0  0  0  0
   19.7898   -7.1042  -11.7124 C   0  0  0  0  0  0  0  0  0  0  0  0
   19.1325   -5.7875  -11.5540 C   0  0  2  0  0  0  0  0  0  0  0  0
   17.8207   -5.8684  -10.9619 N   0  0  0  0  0  0  0  0  0  0  0  0
   19.1528   -4.8636  -12.6835 C   0  0  0  0  0  0  0  0  0  0  0  0
   20.2778   -4.4943  -13.1770 O   0  0  0  0  0  0  0  0  0  0  0  0
   18.0403   -4.3178  -13.3085 O   0  0  0  0  0  0  0  0  0  0  0  0
  1  2  1  0
  3  4  1  6
  3  2  1  0
  5  3  1  0
  6  5  2  0
  8  7  1  1
  8  9  1  0
  8 10  1  0
  9  5  1  0
 10 11  2  0
 12 13  1  0
 13 14  2  0
 15 13  1  0
 15 16  1  0
 17 16  1  6
 18 10  1  0
 18 17  1  0
 19 21  1  0
 19 17  1  0
 20 19  2  0
M  END
$$$$
