SAQ.pdb
     RDKit          3D

 21 20  0  0  1  0  0  0  0  0999 V2000
   21.3334  -11.4429  -18.8996 O   0  0  0  0  0  0  0  0  0  0  0  0
   22.5355  -12.1181  -18.8852 C   0  0  0  0  0  0  0  0  0  0  0  0
   22.7489  -12.7419  -17.5457 C   0  0  2  0  0  0  0  0  0  0  0  0
   21.6340  -13.5583  -17.1215 N   0  0  0  0  0  0  0  0  0  0  0  0
   23.0342  -11.6865  -16.5015 C   0  0  0  0  0  0  0  0  0  0  0  0
   22.0821  -11.1506  -15.8840 O   0  0  0  0  0  0  0  0  0  0  0  0
   26.1908  -10.0183  -15.1579 C   0  0  0  0  0  0  0  0  0  0  0  0
   24.7134  -10.1683  -15.3983 C   0  0  2  0  0  0  0  0  0  0  0  0
   24.3611  -11.2915  -16.2081 N   0  0  0  0  0  0  0  0  0  0  0  0
   24.1043   -8.9088  -15.9639 C   0  0  0  0  0  0  0  0  0  0  0  0
   23.8984   -8.7257  -17.1834 O   0  0  0  0  0  0  0  0  0  0  0  0
   19.3485   -7.4701  -17.7555 N   0  0  0  0  0  0  0  0  0  0  0  0
   19.6886   -6.1215  -17.3649 C   0  0  0  0  0  0  0  0  0  0  0  0
   18.8635   -5.2500  -17.6707 O   0  0  0  0  0  0  0  0  0  0  0  0
   20.9219   -5.8632  -16.6666 C   0  0  0  0  0  0  0  0  0  0  0  0
   21.8493   -6.9576  -16.3410 C   0  0  0  0  0  0  0  0  0  0  0  0
   23.0292   -6.6733  -15.4939 C   0  0  2  0  0  0  0  0  0  0  0  0
   23.7364   -7.8586  -15.0779 N   0  0  0  0  0  0  0  0  0  0  0  0
   22.8789   -5.7270  -14.3931 C   0  0  0  0  0  0  0  0  0  0  0  0
   22.7720   -4.4742  -14.6475 O   0  0  0  0  0  0  0  0  0  0  0  0
   22.8370   -6.0484  -13.0436 O   0  0  0  0  0  0  0  0  0  0  0  0
  1  2  1  0
  3  4  1  1
  3  2  1  0
  5  3  1  0
  6  5  2  0
  8  7  1  6
  8  9  1  0
  8 10  1  0
  9  5  1  0
 10 11  2  0
 12 13  1  0
 13 14  2  0
 15 13  1  0
 15 16  1  0
 17 16  1  1
 18 10  1  0
 18 17  1  0
 19 21  1  0
 19 17  1  0
 20 19  2  0
M  END
$$$$
