CAR.pdb
     RDKit          3D

 23 22  0  0  1  0  0  0  0  0999 V2000
    9.2087  -15.1248   14.5115 N   0  0  0  0  0  0  0  0  0  0  0  0
    8.2301  -15.2133   15.5532 C   0  0  1  0  0  0  0  0  0  0  0  0
    7.7922  -16.6321   15.8323 C   0  0  0  0  0  0  0  0  0  0  0  0
    9.1181  -17.6971   16.3796 S   0  0  0  0  0  0  0  0  0  0  0  0
    8.8331  -14.6957   16.8315 C   0  0  0  0  0  0  0  0  0  0  0  0
   10.0943  -14.7775   17.0054 O   0  0  0  0  0  0  0  0  0  0  0  0
    7.5359  -12.7856   19.7675 C   0  0  0  0  0  0  0  0  0  0  0  0
    8.5959  -13.5487   19.0059 C   0  0  2  0  0  0  0  0  0  0  0  0
    8.0012  -14.1255   17.8260 N   0  0  0  0  0  0  0  0  0  0  0  0
    9.1679  -14.6534   19.8422 C   0  0  0  0  0  0  0  0  0  0  0  0
    8.6432  -15.8075   19.8049 O   0  0  0  0  0  0  0  0  0  0  0  0
   14.5649  -16.0105   17.8987 N   0  0  0  0  0  0  0  0  0  0  0  0
   15.1878  -14.8134   18.3315 C   0  0  0  0  0  0  0  0  0  0  0  0
   15.7167  -14.0126   17.4631 N   0  0  0  0  0  0  0  0  0  0  0  0
   15.2413  -14.4778   19.7105 N   0  0  0  0  0  0  0  0  0  0  0  0
   14.5653  -15.3064   20.7032 C   0  0  0  0  0  0  0  0  0  0  0  0
   13.0940  -15.4152   20.3626 C   0  0  0  0  0  0  0  0  0  0  0  0
   12.3228  -15.4538   21.6548 C   0  0  0  0  0  0  0  0  0  0  0  0
   10.8433  -15.5738   21.4634 C   0  0  2  0  0  0  0  0  0  0  0  0
   10.2807  -14.4911   20.6906 N   0  0  0  0  0  0  0  0  0  0  0  0
   10.1145  -15.7823   22.7394 C   0  0  0  0  0  0  0  0  0  0  0  0
    9.3109  -14.8997   23.1503 O   0  0  0  0  0  0  0  0  0  0  0  0
   10.2551  -16.9068   23.5362 O   0  0  0  0  0  0  0  0  0  0  0  0
  2  1  1  6
  2  3  1  0
  3  4  1  0
  5  2  1  0
  6  5  2  0
  8  7  1  1
  8 10  1  0
  8  9  1  0
  9  5  1  0
 10 20  1  0
 11 10  2  0
 12 13  1  0
 13 15  1  0
 14 13  2  0
 16 15  1  0
 16 17  1  0
 18 17  1  0
 19 18  1  1
 19 21  1  0
 20 19  1  0
 21 23  1  0
 22 21  2  0
M  END
$$$$
