CAR.pdb
     RDKit          3D

 23 22  0  0  1  0  0  0  0  0999 V2000
    5.0454  -23.2425   26.1613 N   0  0  0  0  0  0  0  0  0  0  0  0
    6.1362  -22.5563   25.5369 C   0  0  1  0  0  0  0  0  0  0  0  0
    6.0908  -22.6260   24.0284 C   0  0  0  0  0  0  0  0  0  0  0  0
    6.5756  -24.2140   23.3690 S   0  0  0  0  0  0  0  0  0  0  0  0
    6.0621  -21.0967   25.8971 C   0  0  0  0  0  0  0  0  0  0  0  0
    5.1517  -20.3701   25.3764 O   0  0  0  0  0  0  0  0  0  0  0  0
    7.6133  -18.8696   28.4176 C   0  0  0  0  0  0  0  0  0  0  0  0
    6.9819  -19.1263   27.0680 C   0  0  2  0  0  0  0  0  0  0  0  0
    6.9976  -20.5439   26.8054 N   0  0  0  0  0  0  0  0  0  0  0  0
    7.7403  -18.4296   25.9787 C   0  0  0  0  0  0  0  0  0  0  0  0
    8.7041  -19.0214   25.4049 O   0  0  0  0  0  0  0  0  0  0  0  0
    6.8133  -13.9677   19.0378 N   0  0  0  0  0  0  0  0  0  0  0  0
    7.8609  -13.1813   19.5784 C   0  0  0  0  0  0  0  0  0  0  0  0
    8.3187  -12.1718   18.9101 N   0  0  0  0  0  0  0  0  0  0  0  0
    8.4192  -13.4859   20.8482 N   0  0  0  0  0  0  0  0  0  0  0  0
    7.6120  -14.1296   21.8793 C   0  0  0  0  0  0  0  0  0  0  0  0
    8.4606  -14.3874   23.1066 C   0  0  0  0  0  0  0  0  0  0  0  0
    7.6180  -15.1420   24.0999 C   0  0  0  0  0  0  0  0  0  0  0  0
    8.2191  -16.4453   24.5242 C   0  0  2  0  0  0  0  0  0  0  0  0
    7.4457  -17.1247   25.5372 N   0  0  0  0  0  0  0  0  0  0  0  0
    9.6477  -16.3211   24.9067 C   0  0  0  0  0  0  0  0  0  0  0  0
    9.9581  -16.1777   26.1219 O   0  0  0  0  0  0  0  0  0  0  0  0
   10.6966  -16.3517   24.0021 O   0  0  0  0  0  0  0  0  0  0  0  0
  2  1  1  1
  2  3  1  0
  3  4  1  0
  5  2  1  0
  6  5  2  0
  8  7  1  1
  8 10  1  0
  8  9  1  0
  9  5  1  0
 10 20  1  0
 11 10  2  0
 12 13  1  0
 13 15  1  0
 14 13  2  0
 16 15  1  0
 16 17  1  0
 18 17  1  0
 19 18  1  1
 19 21  1  0
 20 19  1  0
 21 23  1  0
 22 21  2  0
M  END
$$$$
