CAR.pdb
     RDKit          3D

 23 22  0  0  1  0  0  0  0  0999 V2000
    5.2337  -18.5185   19.5785 N   0  0  0  0  0  0  0  0  0  0  0  0
    4.9334  -17.2551   20.1821 C   0  0  1  0  0  0  0  0  0  0  0  0
    4.0236  -17.3761   21.3822 C   0  0  0  0  0  0  0  0  0  0  0  0
    4.2306  -18.9020   22.2881 S   0  0  0  0  0  0  0  0  0  0  0  0
    6.2129  -16.6381   20.6799 C   0  0  0  0  0  0  0  0  0  0  0  0
    7.1356  -17.3933   21.1339 O   0  0  0  0  0  0  0  0  0  0  0  0
    7.5541  -13.1519   20.9240 C   0  0  0  0  0  0  0  0  0  0  0  0
    7.6502  -14.6580   21.0170 C   0  0  2  0  0  0  0  0  0  0  0  0
    6.3822  -15.2324   20.6412 N   0  0  0  0  0  0  0  0  0  0  0  0
    7.9755  -15.0903   22.4150 C   0  0  0  0  0  0  0  0  0  0  0  0
    7.2092  -14.7608   23.3703 O   0  0  0  0  0  0  0  0  0  0  0  0
    6.9965  -22.2569   24.9455 N   0  0  0  0  0  0  0  0  0  0  0  0
    6.0271  -21.3284   24.4910 C   0  0  0  0  0  0  0  0  0  0  0  0
    4.8187  -21.7250   24.2508 N   0  0  0  0  0  0  0  0  0  0  0  0
    6.3634  -19.9628   24.2936 N   0  0  0  0  0  0  0  0  0  0  0  0
    7.7292  -19.4959   24.5068 C   0  0  0  0  0  0  0  0  0  0  0  0
    7.8038  -18.0034   24.2625 C   0  0  0  0  0  0  0  0  0  0  0  0
    9.2227  -17.5657   24.5099 C   0  0  0  0  0  0  0  0  0  0  0  0
    9.4878  -16.1476   24.1114 C   0  0  2  0  0  0  0  0  0  0  0  0
    9.1074  -15.8599   22.7481 N   0  0  0  0  0  0  0  0  0  0  0  0
   10.8792  -15.7204   24.4014 C   0  0  0  0  0  0  0  0  0  0  0  0
   11.3023  -15.7382   25.5906 O   0  0  0  0  0  0  0  0  0  0  0  0
   11.7743  -15.2908   23.4352 O   0  0  0  0  0  0  0  0  0  0  0  0
  2  1  1  1
  2  3  1  0
  3  4  1  0
  5  2  1  0
  6  5  2  0
  8  7  1  1
  8 10  1  0
  8  9  1  0
  9  5  1  0
 10 20  1  0
 11 10  2  0
 12 13  1  0
 13 15  1  0
 14 13  2  0
 16 15  1  0
 16 17  1  0
 18 17  1  0
 19 18  1  6
 19 21  1  0
 20 19  1  0
 21 23  1  0
 22 21  2  0
M  END
$$$$
