CAR.pdb
     RDKit          3D

 23 22  0  0  1  0  0  0  0  0999 V2000
    2.0312  -20.0535   21.8351 N   0  0  0  0  0  0  0  0  0  0  0  0
    3.4069  -19.8500   21.4933 C   0  0  1  0  0  0  0  0  0  0  0  0
    3.5997  -18.8031   20.4211 C   0  0  0  0  0  0  0  0  0  0  0  0
    2.8521  -19.2332   18.8565 S   0  0  0  0  0  0  0  0  0  0  0  0
    4.1412  -19.3525   22.7094 C   0  0  0  0  0  0  0  0  0  0  0  0
    3.7578  -18.2741   23.2732 O   0  0  0  0  0  0  0  0  0  0  0  0
    6.2472  -20.7763   25.2881 C   0  0  0  0  0  0  0  0  0  0  0  0
    5.9358  -19.6021   24.3879 C   0  0  2  0  0  0  0  0  0  0  0  0
    5.2456  -20.0804   23.2159 N   0  0  0  0  0  0  0  0  0  0  0  0
    7.1924  -18.9097   23.9538 C   0  0  0  0  0  0  0  0  0  0  0  0
    7.8823  -19.3933   23.0058 O   0  0  0  0  0  0  0  0  0  0  0  0
    7.7278  -11.6890   20.3689 N   0  0  0  0  0  0  0  0  0  0  0  0
    7.9241  -12.8666   19.6054 C   0  0  0  0  0  0  0  0  0  0  0  0
    7.9468  -12.7997   18.3130 N   0  0  0  0  0  0  0  0  0  0  0  0
    8.0967  -14.1254   20.2400 N   0  0  0  0  0  0  0  0  0  0  0  0
    8.2922  -14.2088   21.6835 C   0  0  0  0  0  0  0  0  0  0  0  0
    8.5326  -15.6488   22.0850 C   0  0  0  0  0  0  0  0  0  0  0  0
    8.6632  -15.6944   23.5840 C   0  0  0  0  0  0  0  0  0  0  0  0
    8.8893  -17.0727   24.1217 C   0  0  2  0  0  0  0  0  0  0  0  0
    7.6719  -17.7243   24.5449 N   0  0  0  0  0  0  0  0  0  0  0  0
    9.9356  -17.1139   25.1735 C   0  0  0  0  0  0  0  0  0  0  0  0
    9.6089  -17.3508   26.3696 O   0  0  0  0  0  0  0  0  0  0  0  0
   11.2839  -16.9055   24.9326 O   0  0  0  0  0  0  0  0  0  0  0  0
  2  1  1  1
  2  3  1  0
  3  4  1  0
  5  2  1  0
  6  5  2  0
  8  7  1  1
  8 10  1  0
  8  9  1  0
  9  5  1  0
 10 20  1  0
 11 10  2  0
 12 13  1  0
 13 15  1  0
 14 13  2  0
 16 15  1  0
 16 17  1  0
 18 17  1  0
 19 18  1  1
 19 21  1  0
 20 19  1  0
 21 23  1  0
 22 21  2  0
M  END
$$$$
