CAR.pdb
     RDKit          3D

 23 22  0  0  1  0  0  0  0  0999 V2000
    8.3827  -13.7858   20.7094 N   0  0  0  0  0  0  0  0  0  0  0  0
    7.3695  -13.9561   21.7069 C   0  0  1  0  0  0  0  0  0  0  0  0
    6.7751  -15.3451   21.7128 C   0  0  0  0  0  0  0  0  0  0  0  0
    7.8439  -16.5793   22.4383 S   0  0  0  0  0  0  0  0  0  0  0  0
    7.9856  -13.7521   23.0650 C   0  0  0  0  0  0  0  0  0  0  0  0
    9.2238  -14.0088   23.2344 O   0  0  0  0  0  0  0  0  0  0  0  0
    6.8305  -12.2772   26.2939 C   0  0  0  0  0  0  0  0  0  0  0  0
    7.7997  -13.0456   25.4243 C   0  0  2  0  0  0  0  0  0  0  0  0
    7.1912  -13.2798   24.1383 N   0  0  0  0  0  0  0  0  0  0  0  0
    8.1410  -14.3691   26.0401 C   0  0  0  0  0  0  0  0  0  0  0  0
    7.4936  -15.4061   25.7026 O   0  0  0  0  0  0  0  0  0  0  0  0
   10.9631  -16.1080   21.3771 N   0  0  0  0  0  0  0  0  0  0  0  0
   10.3539  -17.3193   21.7893 C   0  0  0  0  0  0  0  0  0  0  0  0
    9.4944  -17.9029   21.0174 N   0  0  0  0  0  0  0  0  0  0  0  0
   10.6734  -17.9051   23.0430 N   0  0  0  0  0  0  0  0  0  0  0  0
   11.1821  -17.0855   24.1377 C   0  0  0  0  0  0  0  0  0  0  0  0
   10.2975  -17.2520   25.3554 C   0  0  0  0  0  0  0  0  0  0  0  0
   10.7804  -16.2936   26.4110 C   0  0  0  0  0  0  0  0  0  0  0  0
    9.7007  -15.8373   27.3416 C   0  0  2  0  0  0  0  0  0  0  0  0
    9.1616  -14.5429   26.9953 N   0  0  0  0  0  0  0  0  0  0  0  0
   10.1050  -15.9068   28.7679 C   0  0  0  0  0  0  0  0  0  0  0  0
   10.1211  -14.8537   29.4639 O   0  0  0  0  0  0  0  0  0  0  0  0
   10.4771  -17.0762   29.4109 O   0  0  0  0  0  0  0  0  0  0  0  0
  2  1  1  6
  2  3  1  0
  3  4  1  0
  5  2  1  0
  6  5  2  0
  8  7  1  1
  8 10  1  0
  8  9  1  0
  9  5  1  0
 10 20  1  0
 11 10  2  0
 12 13  1  0
 13 15  1  0
 14 13  2  0
 16 15  1  0
 16 17  1  0
 18 17  1  0
 19 18  1  6
 19 21  1  0
 20 19  1  0
 21 23  1  0
 22 21  2  0
M  END
$$$$
