CAR.pdb
     RDKit          3D

 23 22  0  0  1  0  0  0  0  0999 V2000
    7.0599  -17.7019   17.7986 N   0  0  0  0  0  0  0  0  0  0  0  0
    6.3033  -17.1019   18.8560 C   0  0  1  0  0  0  0  0  0  0  0  0
    5.6229  -18.1173   19.7442 C   0  0  0  0  0  0  0  0  0  0  0  0
    4.6379  -17.3874   21.0438 S   0  0  0  0  0  0  0  0  0  0  0  0
    7.2387  -16.3226   19.7411 C   0  0  0  0  0  0  0  0  0  0  0  0
    8.2736  -16.8977   20.2165 O   0  0  0  0  0  0  0  0  0  0  0  0
    7.4023  -12.7938   20.9741 C   0  0  0  0  0  0  0  0  0  0  0  0
    7.8423  -14.2395   20.9227 C   0  0  2  0  0  0  0  0  0  0  0  0
    6.9648  -14.9651   20.0382 N   0  0  0  0  0  0  0  0  0  0  0  0
    7.7790  -14.8690   22.2817 C   0  0  0  0  0  0  0  0  0  0  0  0
    6.6621  -14.9816   22.8720 O   0  0  0  0  0  0  0  0  0  0  0  0
    6.7028  -22.3917   24.9594 N   0  0  0  0  0  0  0  0  0  0  0  0
    5.8149  -21.4022   24.4687 C   0  0  0  0  0  0  0  0  0  0  0  0
    4.7435  -21.7560   23.8347 N   0  0  0  0  0  0  0  0  0  0  0  0
    6.0847  -20.0214   24.6625 N   0  0  0  0  0  0  0  0  0  0  0  0
    7.3927  -19.4665   24.3307 C   0  0  0  0  0  0  0  0  0  0  0  0
    7.4271  -17.9935   24.6797 C   0  0  0  0  0  0  0  0  0  0  0  0
    8.7613  -17.4476   24.2461 C   0  0  0  0  0  0  0  0  0  0  0  0
    8.8342  -15.9531   24.2801 C   0  0  2  0  0  0  0  0  0  0  0  0
    8.9089  -15.3578   22.9663 N   0  0  0  0  0  0  0  0  0  0  0  0
    9.9033  -15.4508   25.1787 C   0  0  0  0  0  0  0  0  0  0  0  0
   11.0020  -15.0686   24.6885 O   0  0  0  0  0  0  0  0  0  0  0  0
    9.7809  -15.3679   26.5562 O   0  0  0  0  0  0  0  0  0  0  0  0
  2  1  1  6
  2  3  1  0
  3  4  1  0
  5  2  1  0
  6  5  2  0
  8  7  1  1
  8 10  1  0
  8  9  1  0
  9  5  1  0
 10 20  1  0
 11 10  2  0
 12 13  1  0
 13 15  1  0
 14 13  2  0
 16 15  1  0
 16 17  1  0
 18 17  1  0
 19 18  1  6
 19 21  1  0
 20 19  1  0
 21 23  1  0
 22 21  2  0
M  END
$$$$
