CAR.pdb
     RDKit          3D

 23 22  0  0  1  0  0  0  0  0999 V2000
    5.2336  -13.6773   26.8983 N   0  0  0  0  0  0  0  0  0  0  0  0
    5.8814  -12.6879   26.0908 C   0  0  1  0  0  0  0  0  0  0  0  0
    6.1964  -11.4205   26.8504 C   0  0  0  0  0  0  0  0  0  0  0  0
    7.0560  -11.7027   28.3910 S   0  0  0  0  0  0  0  0  0  0  0  0
    7.1998  -13.2365   25.6147 C   0  0  0  0  0  0  0  0  0  0  0  0
    7.9974  -12.4761   24.9718 O   0  0  0  0  0  0  0  0  0  0  0  0
    9.1997  -16.2811   26.2800 C   0  0  0  0  0  0  0  0  0  0  0  0
    8.8068  -15.1017   25.4192 C   0  0  2  0  0  0  0  0  0  0  0  0
    7.5430  -14.5844   25.8819 N   0  0  0  0  0  0  0  0  0  0  0  0
    8.6603  -15.5092   23.9841 C   0  0  0  0  0  0  0  0  0  0  0  0
    7.6376  -16.1629   23.6165 O   0  0  0  0  0  0  0  0  0  0  0  0
    8.1547  -12.7706   15.8920 N   0  0  0  0  0  0  0  0  0  0  0  0
    7.7630  -14.1259   16.0264 C   0  0  0  0  0  0  0  0  0  0  0  0
    7.4091  -14.8006   14.9801 N   0  0  0  0  0  0  0  0  0  0  0  0
    7.7522  -14.7579   17.2982 N   0  0  0  0  0  0  0  0  0  0  0  0
    8.2723  -14.0688   18.4744 C   0  0  0  0  0  0  0  0  0  0  0  0
    9.2327  -14.9750   19.2155 C   0  0  0  0  0  0  0  0  0  0  0  0
    9.2722  -14.5290   20.6527 C   0  0  0  0  0  0  0  0  0  0  0  0
    9.4817  -15.6514   21.6203 C   0  0  2  0  0  0  0  0  0  0  0  0
    9.6093  -15.2058   22.9882 N   0  0  0  0  0  0  0  0  0  0  0  0
   10.5931  -16.5514   21.2236 C   0  0  0  0  0  0  0  0  0  0  0  0
   11.6497  -16.5797   21.9138 O   0  0  0  0  0  0  0  0  0  0  0  0
   10.5556  -17.3873   20.1194 O   0  0  0  0  0  0  0  0  0  0  0  0
  2  1  1  1
  2  3  1  0
  3  4  1  0
  5  2  1  0
  6  5  2  0
  8  7  1  1
  8 10  1  0
  8  9  1  0
  9  5  1  0
 10 20  1  0
 11 10  2  0
 12 13  1  0
 13 15  1  0
 14 13  2  0
 16 15  1  0
 16 17  1  0
 18 17  1  0
 19 18  1  6
 19 21  1  0
 20 19  1  0
 21 23  1  0
 22 21  2  0
M  END
$$$$
