CAR.pdb
     RDKit          3D

 23 22  0  0  1  0  0  0  0  0999 V2000
   10.6918  -15.8270   16.4983 N   0  0  0  0  0  0  0  0  0  0  0  0
    9.3768  -15.9842   17.0429 C   0  0  1  0  0  0  0  0  0  0  0  0
    9.0778  -17.4047   17.4619 C   0  0  0  0  0  0  0  0  0  0  0  0
   10.2251  -18.0529   18.6683 S   0  0  0  0  0  0  0  0  0  0  0  0
    9.2613  -15.1419   18.2850 C   0  0  0  0  0  0  0  0  0  0  0  0
   10.3136  -14.8614   18.9497 O   0  0  0  0  0  0  0  0  0  0  0  0
    6.5484  -13.1821   19.9208 C   0  0  0  0  0  0  0  0  0  0  0  0
    7.8906  -13.8782   19.9048 C   0  0  2  0  0  0  0  0  0  0  0  0
    7.9935  -14.6700   18.7043 N   0  0  0  0  0  0  0  0  0  0  0  0
    8.0401  -14.7841   21.0897 C   0  0  0  0  0  0  0  0  0  0  0  0
    7.8566  -16.0318   20.9553 O   0  0  0  0  0  0  0  0  0  0  0  0
   10.4325  -13.6325   29.6903 N   0  0  0  0  0  0  0  0  0  0  0  0
   10.5330  -15.0174   29.4069 C   0  0  0  0  0  0  0  0  0  0  0  0
   11.0592  -15.8163   30.2788 N   0  0  0  0  0  0  0  0  0  0  0  0
   10.0633  -15.5444   28.1746 N   0  0  0  0  0  0  0  0  0  0  0  0
    9.7343  -14.6566   27.0644 C   0  0  0  0  0  0  0  0  0  0  0  0
    9.2004  -15.4671   25.9021 C   0  0  0  0  0  0  0  0  0  0  0  0
    8.9329  -14.5197   24.7633 C   0  0  0  0  0  0  0  0  0  0  0  0
    8.4128  -15.1963   23.5338 C   0  0  2  0  0  0  0  0  0  0  0  0
    8.3805  -14.3297   22.3789 N   0  0  0  0  0  0  0  0  0  0  0  0
    7.1101  -15.8715   23.7577 C   0  0  0  0  0  0  0  0  0  0  0  0
    6.0384  -15.2728   23.4637 O   0  0  0  0  0  0  0  0  0  0  0  0
    6.9797  -17.1476   24.2809 O   0  0  0  0  0  0  0  0  0  0  0  0
  2  1  1  1
  2  3  1  0
  3  4  1  0
  5  2  1  0
  6  5  2  0
  8  7  1  1
  8 10  1  0
  8  9  1  0
  9  5  1  0
 10 20  1  0
 11 10  2  0
 12 13  1  0
 13 15  1  0
 14 13  2  0
 16 15  1  0
 16 17  1  0
 18 17  1  0
 19 18  1  1
 19 21  1  0
 20 19  1  0
 21 23  1  0
 22 21  2  0
M  END
$$$$
