CAR.pdb
     RDKit          3D

 23 22  0  0  1  0  0  0  0  0999 V2000
    8.4074  -12.9575   17.3064 N   0  0  0  0  0  0  0  0  0  0  0  0
    8.0152  -14.1101   18.0604 C   0  0  1  0  0  0  0  0  0  0  0  0
    8.5656  -15.3992   17.4964 C   0  0  0  0  0  0  0  0  0  0  0  0
    7.8078  -15.8883   15.9542 S   0  0  0  0  0  0  0  0  0  0  0  0
    8.5656  -13.9880   19.4560 C   0  0  0  0  0  0  0  0  0  0  0  0
    9.7806  -13.6348   19.6199 O   0  0  0  0  0  0  0  0  0  0  0  0
    7.1263  -14.0352   22.8848 C   0  0  0  0  0  0  0  0  0  0  0  0
    8.2715  -14.1427   21.9034 C   0  0  2  0  0  0  0  0  0  0  0  0
    7.7361  -14.2647   20.5702 N   0  0  0  0  0  0  0  0  0  0  0  0
    9.1153  -15.3475   22.1921 C   0  0  0  0  0  0  0  0  0  0  0  0
    8.7780  -16.4784   21.7274 O   0  0  0  0  0  0  0  0  0  0  0  0
   15.5786  -14.3873   21.3695 N   0  0  0  0  0  0  0  0  0  0  0  0
   14.8412  -14.6411   20.1862 C   0  0  0  0  0  0  0  0  0  0  0  0
   15.4462  -15.0930   19.1351 N   0  0  0  0  0  0  0  0  0  0  0  0
   13.4416  -14.4054   20.1360 N   0  0  0  0  0  0  0  0  0  0  0  0
   12.5829  -14.7918   21.2506 C   0  0  0  0  0  0  0  0  0  0  0  0
   12.9314  -16.1943   21.7026 C   0  0  0  0  0  0  0  0  0  0  0  0
   12.5147  -16.3320   23.1426 C   0  0  0  0  0  0  0  0  0  0  0  0
   11.0376  -16.4904   23.3239 C   0  0  2  0  0  0  0  0  0  0  0  0
   10.2911  -15.3067   22.9668 N   0  0  0  0  0  0  0  0  0  0  0  0
   10.6752  -16.9891   24.6740 C   0  0  0  0  0  0  0  0  0  0  0  0
    9.9256  -16.2946   25.4151 O   0  0  0  0  0  0  0  0  0  0  0  0
   11.1116  -18.1957   25.1963 O   0  0  0  0  0  0  0  0  0  0  0  0
  2  1  1  6
  2  3  1  0
  3  4  1  0
  5  2  1  0
  6  5  2  0
  8  7  1  1
  8 10  1  0
  8  9  1  0
  9  5  1  0
 10 20  1  0
 11 10  2  0
 12 13  1  0
 13 15  1  0
 14 13  2  0
 16 15  1  0
 16 17  1  0
 18 17  1  0
 19 18  1  1
 19 21  1  0
 20 19  1  0
 21 23  1  0
 22 21  2  0
M  END
$$$$
