CAR.pdb
     RDKit          3D

 23 22  0  0  1  0  0  0  0  0999 V2000
    7.9796  -12.3156   20.2191 N   0  0  0  0  0  0  0  0  0  0  0  0
    7.1358  -13.1701   20.9990 C   0  0  1  0  0  0  0  0  0  0  0  0
    7.1030  -14.5919   20.4888 C   0  0  0  0  0  0  0  0  0  0  0  0
    5.8987  -14.8625   19.1972 S   0  0  0  0  0  0  0  0  0  0  0  0
    7.6747  -13.2352   22.4030 C   0  0  0  0  0  0  0  0  0  0  0  0
    8.9230  -13.4257   22.5849 O   0  0  0  0  0  0  0  0  0  0  0  0
    6.2793  -12.6813   25.8179 C   0  0  0  0  0  0  0  0  0  0  0  0
    7.3139  -13.2020   24.8461 C   0  0  2  0  0  0  0  0  0  0  0  0
    6.7976  -13.0855   23.5049 N   0  0  0  0  0  0  0  0  0  0  0  0
    7.6262  -14.6433   25.1148 C   0  0  0  0  0  0  0  0  0  0  0  0
    6.8685  -15.5487   24.6514 O   0  0  0  0  0  0  0  0  0  0  0  0
   13.5446  -18.8725   21.4038 N   0  0  0  0  0  0  0  0  0  0  0  0
   13.1823  -19.8169   22.3965 C   0  0  0  0  0  0  0  0  0  0  0  0
   13.5531  -21.0511   22.2767 N   0  0  0  0  0  0  0  0  0  0  0  0
   12.4143  -19.4276   23.5259 N   0  0  0  0  0  0  0  0  0  0  0  0
   11.8960  -18.0684   23.6389 C   0  0  0  0  0  0  0  0  0  0  0  0
   10.9318  -17.9836   24.8034 C   0  0  0  0  0  0  0  0  0  0  0  0
   10.3568  -16.5926   24.8260 C   0  0  0  0  0  0  0  0  0  0  0  0
    9.2476  -16.4214   25.8161 C   0  0  2  0  0  0  0  0  0  0  0  0
    8.7363  -15.0717   25.8689 N   0  0  0  0  0  0  0  0  0  0  0  0
    9.5968  -16.9358   27.1638 C   0  0  0  0  0  0  0  0  0  0  0  0
    9.8195  -16.1228   28.1035 O   0  0  0  0  0  0  0  0  0  0  0  0
    9.6993  -18.2817   27.4759 O   0  0  0  0  0  0  0  0  0  0  0  0
  2  1  1  6
  2  3  1  0
  3  4  1  0
  5  2  1  0
  6  5  2  0
  8  7  1  1
  8 10  1  0
  8  9  1  0
  9  5  1  0
 10 20  1  0
 11 10  2  0
 12 13  1  0
 13 15  1  0
 14 13  2  0
 16 15  1  0
 16 17  1  0
 18 17  1  0
 19 18  1  6
 19 21  1  0
 20 19  1  0
 21 23  1  0
 22 21  2  0
M  END
$$$$
