CAR.pdb
     RDKit          3D

 23 22  0  0  1  0  0  0  0  0999 V2000
    6.8368  -15.9961   19.8721 N   0  0  0  0  0  0  0  0  0  0  0  0
    7.9171  -15.0681   19.7222 C   0  0  1  0  0  0  0  0  0  0  0  0
    7.4786  -13.7394   19.1523 C   0  0  0  0  0  0  0  0  0  0  0  0
    8.8227  -12.5909   18.8949 S   0  0  0  0  0  0  0  0  0  0  0  0
    8.4992  -14.7767   21.0794 C   0  0  0  0  0  0  0  0  0  0  0  0
    9.6676  -14.2713   21.1628 O   0  0  0  0  0  0  0  0  0  0  0  0
    7.2170  -14.0575   24.3643 C   0  0  0  0  0  0  0  0  0  0  0  0
    8.2922  -14.7287   23.5401 C   0  0  2  0  0  0  0  0  0  0  0  0
    7.7503  -15.0641   22.2467 N   0  0  0  0  0  0  0  0  0  0  0  0
    8.7681  -15.9876   24.2003 C   0  0  0  0  0  0  0  0  0  0  0  0
    7.9634  -16.9534   24.3681 O   0  0  0  0  0  0  0  0  0  0  0  0
    9.6475  -17.5801   20.8585 N   0  0  0  0  0  0  0  0  0  0  0  0
   10.8576  -18.1574   20.3993 C   0  0  0  0  0  0  0  0  0  0  0  0
   10.8965  -18.7357   19.2420 N   0  0  0  0  0  0  0  0  0  0  0  0
   12.0338  -18.1111   21.1938 N   0  0  0  0  0  0  0  0  0  0  0  0
   12.0292  -17.4393   22.4890 C   0  0  0  0  0  0  0  0  0  0  0  0
   12.1040  -18.4668   23.5987 C   0  0  0  0  0  0  0  0  0  0  0  0
   11.9601  -17.7414   24.9098 C   0  0  0  0  0  0  0  0  0  0  0  0
   10.5423  -17.4092   25.2555 C   0  0  2  0  0  0  0  0  0  0  0  0
   10.0864  -16.1750   24.6598 N   0  0  0  0  0  0  0  0  0  0  0  0
   10.2831  -17.4495   26.7164 C   0  0  0  0  0  0  0  0  0  0  0  0
   10.2196  -16.3706   27.3687 O   0  0  0  0  0  0  0  0  0  0  0  0
   10.1004  -18.6179   27.4381 O   0  0  0  0  0  0  0  0  0  0  0  0
  2  1  1  1
  2  3  1  0
  3  4  1  0
  5  2  1  0
  6  5  2  0
  8  7  1  1
  8 10  1  0
  8  9  1  0
  9  5  1  0
 10 20  1  0
 11 10  2  0
 12 13  1  0
 13 15  1  0
 14 13  2  0
 16 15  1  0
 16 17  1  0
 18 17  1  0
 19 18  1  1
 19 21  1  0
 20 19  1  0
 21 23  1  0
 22 21  2  0
M  END
$$$$
