RQS.pdb
     RDKit          3D

 27 26  0  0  1  0  0  0  0  0999 V2000
   10.3814  -14.5701   17.0794 N   0  0  0  0  0  0  0  0  0  0  0  0
   10.9129  -14.1647   18.3318 C   0  0  0  0  0  0  0  0  0  0  0  0
   12.0567  -14.6111   18.7348 N   0  0  0  0  0  0  0  0  0  0  0  0
   10.2155  -13.2577   19.1918 N   0  0  0  0  0  0  0  0  0  0  0  0
    8.8501  -12.8465   18.9018 C   0  0  0  0  0  0  0  0  0  0  0  0
    8.0066  -14.1014   18.9710 C   0  0  0  0  0  0  0  0  0  0  0  0
    7.3540  -14.3025   20.3202 C   0  0  0  0  0  0  0  0  0  0  0  0
    7.7977  -15.6755   20.7961 C   0  0  2  0  0  0  0  0  0  0  0  0
    6.9953  -16.6722   20.1080 N   0  0  0  0  0  0  0  0  0  0  0  0
    7.6240  -15.8433   22.2422 C   0  0  0  0  0  0  0  0  0  0  0  0
    6.5086  -16.0289   22.8022 O   0  0  0  0  0  0  0  0  0  0  0  0
   12.4655  -14.2438   19.5996 N   0  0  0  0  0  0  0  0  0  0  0  0
   11.6189  -18.1572   26.5074 C   0  0  0  0  0  0  0  0  0  0  0  0
   10.7473  -17.4067   27.3396 O   0  0  0  0  0  0  0  0  0  0  0  0
   10.8899  -17.4750   28.6042 C   0  0  0  0  0  0  0  0  0  0  0  0
    9.7197  -16.5830   26.6985 C   0  0  0  0  0  0  0  0  0  0  0  0
    9.7234  -16.6543   25.1943 C   0  0  1  0  0  0  0  0  0  0  0  0
    8.6538  -15.8685   24.5257 N   0  0  0  0  0  0  0  0  0  0  0  0
    8.7554  -15.8008   23.0940 C   0  0  0  0  0  0  0  0  0  0  0  0
    8.4697  -14.5170   25.1393 O   0  0  0  0  0  0  0  0  0  0  0  0
    9.2392  -13.5561   24.8453 O   0  0  0  0  0  0  0  0  0  0  0  0
    5.0870  -13.4271   27.1650 C   0  0  0  0  0  0  0  0  0  0  0  0
    5.8312  -12.4533   26.5202 C   0  0  1  0  0  0  0  0  0  0  0  0
    7.2969  -12.8584   26.6068 N   0  0  0  0  0  0  0  0  0  0  0  0
    7.4384  -14.2216   26.0778 C   0  0  0  0  0  0  0  0  0  0  0  0
    7.7875  -12.8475   27.9844 O   0  0  0  0  0  0  0  0  0  0  0  0
    7.8432  -11.6833   28.7479 O   0  0  0  0  0  0  0  0  0  0  0  0
  2  3  2  0
  2  1  1  0
  4  2  1  0
  5  4  1  0
  6  5  1  0
  7  8  1  0
  7  6  1  0
  8 10  1  0
  8  9  1  6
 10 11  2  0
 12 13  1  0
 13 15  1  0
 14 13  2  0
 16 15  1  0
 17 16  1  6
 18 17  1  0
 18 10  1  0
 19 20  2  0
 19 17  1  0
 21 22  1  0
 23 22  1  6
 23 24  1  0
 23 25  1  0
 24 19  1  0
 25 26  1  0
 27 25  2  0
M  END
$$$$
