RQS.pdb
     RDKit          3D

 27 26  0  0  1  0  0  0  0  0999 V2000
    9.8973  -14.1960   21.0258 N   0  0  0  0  0  0  0  0  0  0  0  0
   10.2818  -13.4538   19.8785 C   0  0  0  0  0  0  0  0  0  0  0  0
   11.5284  -13.3408   19.5573 N   0  0  0  0  0  0  0  0  0  0  0  0
    9.3203  -12.8060   19.0391 N   0  0  0  0  0  0  0  0  0  0  0  0
    7.8967  -12.8793   19.3316 C   0  0  0  0  0  0  0  0  0  0  0  0
    7.3718  -14.0833   18.5792 C   0  0  0  0  0  0  0  0  0  0  0  0
    7.5146  -15.3740   19.3538 C   0  0  0  0  0  0  0  0  0  0  0  0
    8.2704  -16.3251   18.4412 C   0  0  2  0  0  0  0  0  0  0  0  0
    7.2967  -17.1227   17.7156 N   0  0  0  0  0  0  0  0  0  0  0  0
    9.1561  -17.2231   19.1885 C   0  0  0  0  0  0  0  0  0  0  0  0
    8.7993  -18.3406   19.6535 O   0  0  0  0  0  0  0  0  0  0  0  0
   11.7995  -12.7022   18.8033 N   0  0  0  0  0  0  0  0  0  0  0  0
   15.2468  -17.8944   18.3206 C   0  0  0  0  0  0  0  0  0  0  0  0
   14.1343  -17.8562   17.4396 O   0  0  0  0  0  0  0  0  0  0  0  0
   14.3405  -17.8887   16.1824 C   0  0  0  0  0  0  0  0  0  0  0  0
   12.7930  -17.7825   18.0239 C   0  0  0  0  0  0  0  0  0  0  0  0
   12.7761  -17.7917   19.5297 C   0  0  2  0  0  0  0  0  0  0  0  0
   11.4276  -17.6754   20.1433 N   0  0  0  0  0  0  0  0  0  0  0  0
   10.5020  -16.8465   19.4215 C   0  0  0  0  0  0  0  0  0  0  0  0
   11.4892  -17.3156   21.5937 O   0  0  0  0  0  0  0  0  0  0  0  0
   12.0369  -16.2409   21.9772 O   0  0  0  0  0  0  0  0  0  0  0  0
    9.2826  -19.1993   24.3925 C   0  0  0  0  0  0  0  0  0  0  0  0
    9.7461  -17.9378   24.7265 C   0  0  1  0  0  0  0  0  0  0  0  0
   11.0863  -17.7383   24.0307 N   0  0  0  0  0  0  0  0  0  0  0  0
   10.9482  -18.1388   22.6240 C   0  0  0  0  0  0  0  0  0  0  0  0
   12.1434  -18.5472   24.6364 O   0  0  0  0  0  0  0  0  0  0  0  0
   12.5749  -18.3517   25.9467 O   0  0  0  0  0  0  0  0  0  0  0  0
  2  3  2  0
  2  1  1  0
  4  2  1  0
  5  4  1  0
  6  5  1  0
  7  8  1  0
  7  6  1  0
  8 10  1  0
  8  9  1  1
 10 11  2  0
 12 13  1  0
 13 15  1  0
 14 13  2  0
 16 15  1  0
 17 16  1  6
 18 17  1  0
 18 10  1  0
 19 20  2  0
 19 17  1  0
 21 22  1  0
 23 22  1  6
 23 24  1  0
 23 25  1  0
 24 19  1  0
 25 26  1  0
 27 25  2  0
M  END
$$$$
