RQS.pdb
     RDKit          3D

 27 26  0  0  1  0  0  0  0  0999 V2000
   12.5055  -22.6556   14.6174 N   0  0  0  0  0  0  0  0  0  0  0  0
   12.1379  -21.5810   15.4690 C   0  0  0  0  0  0  0  0  0  0  0  0
   12.7538  -20.4471   15.3981 N   0  0  0  0  0  0  0  0  0  0  0  0
   11.0851  -21.7038   16.4308 N   0  0  0  0  0  0  0  0  0  0  0  0
    9.6944  -21.5024   16.0528 C   0  0  0  0  0  0  0  0  0  0  0  0
    9.4326  -20.0169   16.1789 C   0  0  0  0  0  0  0  0  0  0  0  0
    8.9191  -19.6201   17.5447 C   0  0  0  0  0  0  0  0  0  0  0  0
    8.6202  -18.1327   17.4605 C   0  0  2  0  0  0  0  0  0  0  0  0
    9.0532  -17.6590   16.1571 N   0  0  0  0  0  0  0  0  0  0  0  0
    9.3179  -17.3679   18.4985 C   0  0  0  0  0  0  0  0  0  0  0  0
   10.5712  -17.2321   18.5530 O   0  0  0  0  0  0  0  0  0  0  0  0
   12.5455  -19.7158   16.0849 N   0  0  0  0  0  0  0  0  0  0  0  0
    6.1125  -12.6551   20.5964 C   0  0  0  0  0  0  0  0  0  0  0  0
    7.3565  -12.5607   19.9188 O   0  0  0  0  0  0  0  0  0  0  0  0
    7.8084  -11.4085   19.6149 C   0  0  0  0  0  0  0  0  0  0  0  0
    8.0657  -13.8023   19.6012 C   0  0  0  0  0  0  0  0  0  0  0  0
    8.4271  -14.6304   20.8060 C   0  0  2  0  0  0  0  0  0  0  0  0
    9.1761  -15.8789   20.5081 N   0  0  0  0  0  0  0  0  0  0  0  0
    8.5717  -16.7278   19.5188 C   0  0  0  0  0  0  0  0  0  0  0  0
    9.5431  -16.6339   21.7460 O   0  0  0  0  0  0  0  0  0  0  0  0
    8.7367  -17.4546   22.2734 O   0  0  0  0  0  0  0  0  0  0  0  0
   12.6376  -18.5143   22.3125 C   0  0  0  0  0  0  0  0  0  0  0  0
   12.5313  -17.7974   23.4926 C   0  0  2  0  0  0  0  0  0  0  0  0
   11.0992  -17.2894   23.5977 N   0  0  0  0  0  0  0  0  0  0  0  0
   10.7982  -16.4859   22.4052 C   0  0  0  0  0  0  0  0  0  0  0  0
   10.9013  -16.4499   24.7787 O   0  0  0  0  0  0  0  0  0  0  0  0
   11.1194  -16.9183   26.0727 O   0  0  0  0  0  0  0  0  0  0  0  0
  2  3  2  0
  2  1  1  0
  4  2  1  0
  5  4  1  0
  6  5  1  0
  7  8  1  0
  7  6  1  0
  8 10  1  0
  8  9  1  6
 10 11  2  0
 12 13  1  0
 13 15  1  0
 14 13  2  0
 16 15  1  0
 17 16  1  6
 18 17  1  0
 18 10  1  0
 19 20  2  0
 19 17  1  0
 21 22  1  0
 23 22  1  6
 23 24  1  0
 23 25  1  0
 24 19  1  0
 25 26  1  0
 27 25  2  0
M  END
$$$$
