RQS.pdb
     RDKit          3D

 27 26  0  0  1  0  0  0  0  0999 V2000
    7.1492  -12.9568   18.0958 N   0  0  0  0  0  0  0  0  0  0  0  0
    7.3319  -12.5423   19.4412 C   0  0  0  0  0  0  0  0  0  0  0  0
    7.9165  -11.4214   19.7090 N   0  0  0  0  0  0  0  0  0  0  0  0
    6.8845  -13.3363   20.5449 N   0  0  0  0  0  0  0  0  0  0  0  0
    6.1090  -14.5491   20.3327 C   0  0  0  0  0  0  0  0  0  0  0  0
    7.0855  -15.5944   19.8376 C   0  0  0  0  0  0  0  0  0  0  0  0
    8.2408  -15.8218   20.7863 C   0  0  0  0  0  0  0  0  0  0  0  0
    9.0743  -16.9315   20.1679 C   0  0  2  0  0  0  0  0  0  0  0  0
    8.3353  -18.1757   20.2968 N   0  0  0  0  0  0  0  0  0  0  0  0
   10.3742  -17.0819   20.8289 C   0  0  0  0  0  0  0  0  0  0  0  0
   10.6334  -17.9754   21.6814 O   0  0  0  0  0  0  0  0  0  0  0  0
    8.0700  -11.1530   20.6859 N   0  0  0  0  0  0  0  0  0  0  0  0
   15.7912  -14.0008   19.2716 C   0  0  0  0  0  0  0  0  0  0  0  0
   16.1852  -14.8028   20.3748 O   0  0  0  0  0  0  0  0  0  0  0  0
   17.4008  -14.7740   20.7565 C   0  0  0  0  0  0  0  0  0  0  0  0
   15.1664  -15.6292   21.0265 C   0  0  0  0  0  0  0  0  0  0  0  0
   13.7780  -15.4454   20.4728 C   0  0  2  0  0  0  0  0  0  0  0  0
   12.7298  -16.2793   21.1166 N   0  0  0  0  0  0  0  0  0  0  0  0
   11.4277  -16.1877   20.5157 C   0  0  0  0  0  0  0  0  0  0  0  0
   12.6779  -16.0874   22.5990 O   0  0  0  0  0  0  0  0  0  0  0  0
   12.0540  -15.1119   23.1097 O   0  0  0  0  0  0  0  0  0  0  0  0
   10.8043  -18.0663   25.9013 C   0  0  0  0  0  0  0  0  0  0  0  0
   11.3150  -17.7700   24.6486 C   0  0  1  0  0  0  0  0  0  0  0  0
   12.7155  -17.2034   24.8424 N   0  0  0  0  0  0  0  0  0  0  0  0
   13.3134  -16.9693   23.5211 C   0  0  0  0  0  0  0  0  0  0  0  0
   13.5806  -18.1224   25.5812 O   0  0  0  0  0  0  0  0  0  0  0  0
   14.6955  -18.7257   25.0030 O   0  0  0  0  0  0  0  0  0  0  0  0
  2  3  2  0
  2  1  1  0
  4  2  1  0
  5  4  1  0
  6  5  1  0
  7  8  1  0
  7  6  1  0
  8 10  1  0
  8  9  1  1
 10 11  2  0
 12 13  1  0
 13 15  1  0
 14 13  2  0
 16 15  1  0
 17 16  1  6
 18 17  1  0
 18 10  1  0
 19 20  2  0
 19 17  1  0
 21 22  1  0
 23 22  1  6
 23 24  1  0
 23 25  1  0
 24 19  1  0
 25 26  1  0
 27 25  2  0
M  END
$$$$
