RQS.pdb
     RDKit          3D

 27 26  0  0  1  0  0  0  0  0999 V2000
    7.7205  -11.8195   20.1287 N   0  0  0  0  0  0  0  0  0  0  0  0
    7.7042  -12.7315   19.0409 C   0  0  0  0  0  0  0  0  0  0  0  0
    6.8626  -12.5820   18.0717 N   0  0  0  0  0  0  0  0  0  0  0  0
    8.6049  -13.8416   18.9707 N   0  0  0  0  0  0  0  0  0  0  0  0
    8.9588  -14.5989   20.1618 C   0  0  0  0  0  0  0  0  0  0  0  0
    7.7225  -15.3823   20.5479 C   0  0  0  0  0  0  0  0  0  0  0  0
    7.9396  -16.2780   21.7467 C   0  0  0  0  0  0  0  0  0  0  0  0
    8.9574  -17.3180   21.3098 C   0  0  2  0  0  0  0  0  0  0  0  0
    8.2364  -18.5146   20.9110 N   0  0  0  0  0  0  0  0  0  0  0  0
    9.8921  -17.6642   22.3850 C   0  0  0  0  0  0  0  0  0  0  0  0
    9.6471  -18.5110   23.2878 O   0  0  0  0  0  0  0  0  0  0  0  0
    6.8424  -13.2677   17.3106 N   0  0  0  0  0  0  0  0  0  0  0  0
   16.0395  -15.8322   22.7616 C   0  0  0  0  0  0  0  0  0  0  0  0
   15.8498  -16.5488   23.9724 O   0  0  0  0  0  0  0  0  0  0  0  0
   16.8404  -16.7068   24.7583 C   0  0  0  0  0  0  0  0  0  0  0  0
   14.5134  -17.0741   24.2617 C   0  0  0  0  0  0  0  0  0  0  0  0
   13.4841  -16.7512   23.2108 C   0  0  1  0  0  0  0  0  0  0  0  0
   12.1475  -17.3617   23.4325 N   0  0  0  0  0  0  0  0  0  0  0  0
   11.1574  -17.0297   22.4454 C   0  0  0  0  0  0  0  0  0  0  0  0
   11.6452  -17.1466   24.8249 O   0  0  0  0  0  0  0  0  0  0  0  0
   11.4344  -15.9807   25.2701 O   0  0  0  0  0  0  0  0  0  0  0  0
    8.7525  -18.0318   26.3327 C   0  0  0  0  0  0  0  0  0  0  0  0
    9.5780  -18.5029   27.3399 C   0  0  2  0  0  0  0  0  0  0  0  0
   10.9668  -17.9214   27.1094 N   0  0  0  0  0  0  0  0  0  0  0  0
   11.3747  -18.2148   25.7290 C   0  0  0  0  0  0  0  0  0  0  0  0
   11.9596  -18.4999   28.0141 O   0  0  0  0  0  0  0  0  0  0  0  0
   11.9060  -18.3203   29.3947 O   0  0  0  0  0  0  0  0  0  0  0  0
  2  3  2  0
  2  1  1  0
  4  2  1  0
  5  4  1  0
  6  5  1  0
  7  8  1  0
  7  6  1  0
  8 10  1  0
  8  9  1  1
 10 11  2  0
 12 13  1  0
 13 15  1  0
 14 13  2  0
 16 15  1  0
 17 16  1  6
 18 17  1  0
 18 10  1  0
 19 20  2  0
 19 17  1  0
 21 22  1  0
 23 22  1  6
 23 24  1  0
 23 25  1  0
 24 19  1  0
 25 26  1  0
 27 25  2  0
M  END
$$$$
