RQS.pdb
     RDKit          3D

 27 26  0  0  1  0  0  0  0  0999 V2000
    8.6194  -14.4256   13.2457 N   0  0  0  0  0  0  0  0  0  0  0  0
    8.0781  -14.7779   14.5099 C   0  0  0  0  0  0  0  0  0  0  0  0
    6.8269  -14.5806   14.7660 N   0  0  0  0  0  0  0  0  0  0  0  0
    8.8821  -15.3575   15.5424 N   0  0  0  0  0  0  0  0  0  0  0  0
    8.2759  -15.9304   16.7348 C   0  0  0  0  0  0  0  0  0  0  0  0
    7.9807  -14.7686   17.6591 C   0  0  0  0  0  0  0  0  0  0  0  0
    8.5944  -14.9330   19.0313 C   0  0  0  0  0  0  0  0  0  0  0  0
    8.1860  -13.7001   19.8197 C   0  0  2  0  0  0  0  0  0  0  0  0
    8.7673  -12.5372   19.1711 N   0  0  0  0  0  0  0  0  0  0  0  0
    8.6531  -13.7509   21.2085 C   0  0  0  0  0  0  0  0  0  0  0  0
    9.8692  -13.7855   21.5434 O   0  0  0  0  0  0  0  0  0  0  0  0
    6.4352  -14.9112   15.6533 N   0  0  0  0  0  0  0  0  0  0  0  0
    5.5441  -11.9266   26.4301 C   0  0  0  0  0  0  0  0  0  0  0  0
    6.7401  -12.4816   26.9565 O   0  0  0  0  0  0  0  0  0  0  0  0
    6.9849  -12.3540   28.2006 C   0  0  0  0  0  0  0  0  0  0  0  0
    7.6402  -13.1807   26.0364 C   0  0  0  0  0  0  0  0  0  0  0  0
    7.2186  -13.1129   24.5923 C   0  0  2  0  0  0  0  0  0  0  0  0
    8.0917  -13.8571   23.6476 N   0  0  0  0  0  0  0  0  0  0  0  0
    7.7098  -13.7627   22.2656 C   0  0  0  0  0  0  0  0  0  0  0  0
    8.3152  -15.2739   24.0719 O   0  0  0  0  0  0  0  0  0  0  0  0
    7.4085  -16.1466   23.9372 O   0  0  0  0  0  0  0  0  0  0  0  0
   11.9180  -16.8272   24.3560 C   0  0  0  0  0  0  0  0  0  0  0  0
   10.8696  -17.7265   24.2575 C   0  0  1  0  0  0  0  0  0  0  0  0
    9.6873  -17.1439   25.0208 N   0  0  0  0  0  0  0  0  0  0  0  0
    9.5372  -15.7315   24.6455 C   0  0  0  0  0  0  0  0  0  0  0  0
    9.8810  -17.2160   26.4685 O   0  0  0  0  0  0  0  0  0  0  0  0
   10.0853  -18.4223   27.1352 O   0  0  0  0  0  0  0  0  0  0  0  0
  2  3  2  0
  2  1  1  0
  4  2  1  0
  5  4  1  0
  6  5  1  0
  7  8  1  0
  7  6  1  0
  8 10  1  0
  8  9  1  6
 10 11  2  0
 12 13  1  0
 13 15  1  0
 14 13  2  0
 16 15  1  0
 17 16  1  6
 18 17  1  0
 18 10  1  0
 19 20  2  0
 19 17  1  0
 21 22  1  0
 23 22  1  6
 23 24  1  0
 23 25  1  0
 24 19  1  0
 25 26  1  0
 27 25  2  0
M  END
$$$$
