RQS.pdb
     RDKit          3D

 27 26  0  0  1  0  0  0  0  0999 V2000
    7.9665  -14.0388   18.0595 N   0  0  0  0  0  0  0  0  0  0  0  0
    7.9434  -13.2205   19.2194 C   0  0  0  0  0  0  0  0  0  0  0  0
    8.6076  -12.1125   19.2542 N   0  0  0  0  0  0  0  0  0  0  0  0
    7.1955  -13.5813   20.3851 N   0  0  0  0  0  0  0  0  0  0  0  0
    6.4729  -14.8425   20.4540 C   0  0  0  0  0  0  0  0  0  0  0  0
    7.4903  -15.9286   20.1779 C   0  0  0  0  0  0  0  0  0  0  0  0
    8.0697  -16.5312   21.4380 C   0  0  0  0  0  0  0  0  0  0  0  0
    9.4093  -15.8458   21.6487 C   0  0  2  0  0  0  0  0  0  0  0  0
   10.3291  -16.3326   20.6349 N   0  0  0  0  0  0  0  0  0  0  0  0
    9.9724  -16.1257   22.9731 C   0  0  0  0  0  0  0  0  0  0  0  0
   10.7825  -17.0633   23.2119 O   0  0  0  0  0  0  0  0  0  0  0  0
    8.5187  -11.4962   20.0679 N   0  0  0  0  0  0  0  0  0  0  0  0
    9.3475  -12.9647   28.9555 C   0  0  0  0  0  0  0  0  0  0  0  0
    8.3729  -13.3198   27.9862 O   0  0  0  0  0  0  0  0  0  0  0  0
    7.3096  -12.6232   27.8954 C   0  0  0  0  0  0  0  0  0  0  0  0
    8.6406  -14.4777   27.1299 C   0  0  0  0  0  0  0  0  0  0  0  0
    9.9144  -14.3731   26.3335 C   0  0  1  0  0  0  0  0  0  0  0  0
   10.1592  -15.4952   25.3904 N   0  0  0  0  0  0  0  0  0  0  0  0
    9.6078  -15.3143   24.0758 C   0  0  0  0  0  0  0  0  0  0  0  0
    9.7925  -16.8225   25.9743 O   0  0  0  0  0  0  0  0  0  0  0  0
    8.5916  -17.2223   25.9838 O   0  0  0  0  0  0  0  0  0  0  0  0
   12.0892  -20.0336   26.0350 C   0  0  0  0  0  0  0  0  0  0  0  0
   10.7190  -20.1183   26.2172 C   0  0  1  0  0  0  0  0  0  0  0  0
   10.3041  -18.9805   27.1409 N   0  0  0  0  0  0  0  0  0  0  0  0
   10.7473  -17.7111   26.5491 C   0  0  0  0  0  0  0  0  0  0  0  0
   10.9078  -19.1041   28.4672 O   0  0  0  0  0  0  0  0  0  0  0  0
   11.7304  -18.1179   29.0078 O   0  0  0  0  0  0  0  0  0  0  0  0
  2  3  2  0
  2  1  1  0
  4  2  1  0
  5  4  1  0
  6  5  1  0
  7  8  1  0
  7  6  1  0
  8 10  1  0
  8  9  1  6
 10 11  2  0
 12 13  1  0
 13 15  1  0
 14 13  2  0
 16 15  1  0
 17 16  1  6
 18 17  1  0
 18 10  1  0
 19 20  2  0
 19 17  1  0
 21 22  1  0
 23 22  1  6
 23 24  1  0
 23 25  1  0
 24 19  1  0
 25 26  1  0
 27 25  2  0
M  END
$$$$
