QAG.pdb
     RDKit          3D

 19 18  0  0  1  0  0  0  0  0999 V2000
    8.4376  -20.1649   20.6175 N   0  0  0  0  0  0  0  0  0  0  0  0
    9.5509  -19.5419   19.9645 C   0  0  0  0  0  0  0  0  0  0  0  0
   10.6633  -20.0531   20.2613 O   0  0  0  0  0  0  0  0  0  0  0  0
    9.3248  -18.4171   19.0525 C   0  0  0  0  0  0  0  0  0  0  0  0
    7.9444  -17.9461   18.8535 C   0  0  0  0  0  0  0  0  0  0  0  0
    7.6972  -16.9137   17.8049 C   0  0  2  0  0  0  0  0  0  0  0  0
    8.2650  -17.2175   16.5198 N   0  0  0  0  0  0  0  0  0  0  0  0
    8.2965  -15.6354   18.2714 C   0  0  0  0  0  0  0  0  0  0  0  0
    9.4861  -15.4151   17.8994 O   0  0  0  0  0  0  0  0  0  0  0  0
    7.3042  -12.3775   19.8844 C   0  0  0  0  0  0  0  0  0  0  0  0
    8.2997  -13.4014   19.4270 C   0  0  2  0  0  0  0  0  0  0  0  0
    7.6799  -14.6679   19.0712 N   0  0  0  0  0  0  0  0  0  0  0  0
    9.3063  -13.6652   20.4985 C   0  0  0  0  0  0  0  0  0  0  0  0
   10.0585  -12.7504   20.9290 O   0  0  0  0  0  0  0  0  0  0  0  0
    9.4229  -14.9727   21.0480 N   0  0  0  0  0  0  0  0  0  0  0  0
   10.3311  -15.1688   22.1509 C   0  0  0  0  0  0  0  0  0  0  0  0
   10.3246  -16.5855   22.6117 C   0  0  0  0  0  0  0  0  0  0  0  0
    9.5699  -17.3968   22.0351 O   0  0  0  0  0  0  0  0  0  0  0  0
   11.1208  -17.0336   23.6507 O   0  0  0  0  0  0  0  0  0  0  0  0
  2  1  1  0
  3  2  2  0
  4  2  1  0
  5  4  1  0
  6  5  1  0
  6  7  1  6
  8  6  1  0
  8 12  1  0
  9  8  2  0
 11 10  1  1
 11 12  1  0
 11 13  1  0
 13 15  1  0
 14 13  2  0
 15 16  1  0
 16 17  1  0
 17 19  1  0
 18 17  2  0
M  END
$$$$
