QAG.pdb
     RDKit          3D

 19 18  0  0  1  0  0  0  0  0999 V2000
   -2.1810  -19.8982   24.3380 N   0  0  0  0  0  0  0  0  0  0  0  0
   -2.9015  -21.0214   23.8152 C   0  0  0  0  0  0  0  0  0  0  0  0
   -2.9963  -21.0224   22.5591 O   0  0  0  0  0  0  0  0  0  0  0  0
   -3.4463  -22.0281   24.7305 C   0  0  0  0  0  0  0  0  0  0  0  0
   -3.2703  -21.8240   26.1777 C   0  0  0  0  0  0  0  0  0  0  0  0
   -3.9070  -22.8008   27.1089 C   0  0  2  0  0  0  0  0  0  0  0  0
   -4.2624  -24.0571   26.5077 N   0  0  0  0  0  0  0  0  0  0  0  0
   -5.1535  -22.1846   27.6356 C   0  0  0  0  0  0  0  0  0  0  0  0
   -5.0019  -21.1299   28.3189 O   0  0  0  0  0  0  0  0  0  0  0  0
   -8.8051  -22.0292   27.0622 C   0  0  0  0  0  0  0  0  0  0  0  0
   -7.6352  -21.9987   27.9998 C   0  0  2  0  0  0  0  0  0  0  0  0
   -6.4582  -22.6531   27.4511 N   0  0  0  0  0  0  0  0  0  0  0  0
   -7.9806  -22.6734   29.2868 C   0  0  0  0  0  0  0  0  0  0  0  0
   -8.8625  -22.2045   30.0552 O   0  0  0  0  0  0  0  0  0  0  0  0
   -7.3043  -23.8692   29.6580 N   0  0  0  0  0  0  0  0  0  0  0  0
   -7.7139  -24.5343   30.8703 C   0  0  0  0  0  0  0  0  0  0  0  0
   -6.5994  -24.5955   31.8569 C   0  0  0  0  0  0  0  0  0  0  0  0
   -5.5193  -24.0364   31.5721 O   0  0  0  0  0  0  0  0  0  0  0  0
   -6.7163  -25.2464   33.0721 O   0  0  0  0  0  0  0  0  0  0  0  0
  2  1  1  0
  3  2  2  0
  4  2  1  0
  5  4  1  0
  6  5  1  0
  6  7  1  6
  8  6  1  0
  8 12  1  0
  9  8  2  0
 11 10  1  6
 11 12  1  0
 11 13  1  0
 13 15  1  0
 14 13  2  0
 15 16  1  0
 16 17  1  0
 17 19  1  0
 18 17  2  0
M  END
$$$$
