QAG.pdb
     RDKit          3D

 19 18  0  0  1  0  0  0  0  0999 V2000
   -0.3513  -27.0070   30.5536 N   0  0  0  0  0  0  0  0  0  0  0  0
   -0.9807  -27.6783   29.4548 C   0  0  0  0  0  0  0  0  0  0  0  0
   -0.3193  -28.6545   29.0115 O   0  0  0  0  0  0  0  0  0  0  0  0
   -2.2740  -27.2037   28.9549 C   0  0  0  0  0  0  0  0  0  0  0  0
   -2.9249  -26.0840   29.6548 C   0  0  0  0  0  0  0  0  0  0  0  0
   -4.2329  -25.5920   29.1318 C   0  0  2  0  0  0  0  0  0  0  0  0
   -4.3314  -25.5615   27.6981 N   0  0  0  0  0  0  0  0  0  0  0  0
   -4.4302  -24.2038   29.6266 C   0  0  0  0  0  0  0  0  0  0  0  0
   -4.2900  -24.0369   30.8735 O   0  0  0  0  0  0  0  0  0  0  0  0
   -4.5665  -20.6575   28.4846 C   0  0  0  0  0  0  0  0  0  0  0  0
   -4.9792  -21.7584   29.4155 C   0  0  2  0  0  0  0  0  0  0  0  0
   -4.7518  -23.0815   28.8566 N   0  0  0  0  0  0  0  0  0  0  0  0
   -6.4302  -21.6419   29.7501 C   0  0  0  0  0  0  0  0  0  0  0  0
   -6.8931  -20.6087   30.3036 O   0  0  0  0  0  0  0  0  0  0  0  0
   -7.3122  -22.7149   29.4404 N   0  0  0  0  0  0  0  0  0  0  0  0
   -8.7011  -22.5808   29.8045 C   0  0  0  0  0  0  0  0  0  0  0  0
   -9.0461  -23.4618   30.9552 C   0  0  0  0  0  0  0  0  0  0  0  0
  -10.2307  -23.4901   31.3506 O   0  0  0  0  0  0  0  0  0  0  0  0
   -8.1063  -24.2466   31.5994 O   0  0  0  0  0  0  0  0  0  0  0  0
  2  1  1  0
  3  2  2  0
  4  2  1  0
  5  4  1  0
  6  5  1  0
  6  7  1  6
  8  6  1  0
  8 12  1  0
  9  8  2  0
 11 10  1  6
 11 12  1  0
 11 13  1  0
 13 15  1  0
 14 13  2  0
 15 16  1  0
 16 17  1  0
 17 19  1  0
 18 17  2  0
M  END
$$$$
