QAG.pdb
     RDKit          3D

 19 18  0  0  1  0  0  0  0  0999 V2000
    8.1427  -19.7886   16.9382 N   0  0  0  0  0  0  0  0  0  0  0  0
    9.4664  -19.2419   16.9930 C   0  0  0  0  0  0  0  0  0  0  0  0
   10.3480  -20.0809   17.3181 O   0  0  0  0  0  0  0  0  0  0  0  0
    9.6832  -17.8253   16.6861 C   0  0  0  0  0  0  0  0  0  0  0  0
    8.5133  -16.9958   16.3540 C   0  0  0  0  0  0  0  0  0  0  0  0
    8.7338  -15.5459   16.0787 C   0  0  2  0  0  0  0  0  0  0  0  0
    9.8080  -15.2663   15.1655 N   0  0  0  0  0  0  0  0  0  0  0  0
    9.0538  -14.8791   17.3685 C   0  0  0  0  0  0  0  0  0  0  0  0
   10.2763  -14.8697   17.6968 O   0  0  0  0  0  0  0  0  0  0  0  0
    7.5359  -12.6257   19.9645 C   0  0  0  0  0  0  0  0  0  0  0  0
    8.5288  -13.6481   19.4982 C   0  0  2  0  0  0  0  0  0  0  0  0
    8.1458  -14.2708   18.2410 N   0  0  0  0  0  0  0  0  0  0  0  0
    8.6848  -14.7273   20.5190 C   0  0  0  0  0  0  0  0  0  0  0  0
    7.7588  -15.5512   20.7466 O   0  0  0  0  0  0  0  0  0  0  0  0
    9.9000  -14.8323   21.2519 N   0  0  0  0  0  0  0  0  0  0  0  0
   10.0106  -15.8768   22.2401 C   0  0  0  0  0  0  0  0  0  0  0  0
   11.3512  -15.8673   22.8896 C   0  0  0  0  0  0  0  0  0  0  0  0
   12.2224  -15.0885   22.4483 O   0  0  0  0  0  0  0  0  0  0  0  0
   11.6655  -16.6864   23.9594 O   0  0  0  0  0  0  0  0  0  0  0  0
  2  1  1  0
  3  2  2  0
  4  2  1  0
  5  4  1  0
  6  5  1  0
  6  7  1  6
  8  6  1  0
  8 12  1  0
  9  8  2  0
 11 10  1  1
 11 12  1  0
 11 13  1  0
 13 15  1  0
 14 13  2  0
 15 16  1  0
 16 17  1  0
 17 19  1  0
 18 17  2  0
M  END
$$$$
