QAG.pdb
     RDKit          3D

 19 18  0  0  1  0  0  0  0  0999 V2000
    8.2079  -12.7503   17.9036 N   0  0  0  0  0  0  0  0  0  0  0  0
    8.0911  -13.9503   17.1287 C   0  0  0  0  0  0  0  0  0  0  0  0
    7.2311  -13.8790   16.2109 O   0  0  0  0  0  0  0  0  0  0  0  0
    8.9326  -15.1075   17.4458 C   0  0  0  0  0  0  0  0  0  0  0  0
    8.8925  -15.6456   18.8154 C   0  0  0  0  0  0  0  0  0  0  0  0
    9.7804  -16.7988   19.1449 C   0  0  2  0  0  0  0  0  0  0  0  0
    9.4181  -18.0349   18.5070 N   0  0  0  0  0  0  0  0  0  0  0  0
    9.7214  -17.0160   20.6146 C   0  0  0  0  0  0  0  0  0  0  0  0
    8.5801  -17.2934   21.0863 O   0  0  0  0  0  0  0  0  0  0  0  0
   10.6151  -18.6421   23.2818 C   0  0  0  0  0  0  0  0  0  0  0  0
   10.6631  -17.1826   22.9409 C   0  0  2  0  0  0  0  0  0  0  0  0
   10.7914  -16.9432   21.5122 N   0  0  0  0  0  0  0  0  0  0  0  0
   11.8170  -16.5250   23.6244 C   0  0  0  0  0  0  0  0  0  0  0  0
   11.9478  -16.5705   24.8769 O   0  0  0  0  0  0  0  0  0  0  0  0
   12.7908  -15.8324   22.8518 N   0  0  0  0  0  0  0  0  0  0  0  0
   13.8701  -15.1758   23.5474 C   0  0  0  0  0  0  0  0  0  0  0  0
   15.1541  -15.9101   23.3697 C   0  0  0  0  0  0  0  0  0  0  0  0
   15.1271  -17.0379   22.8335 O   0  0  0  0  0  0  0  0  0  0  0  0
   16.3706  -15.3905   23.7753 O   0  0  0  0  0  0  0  0  0  0  0  0
  2  1  1  0
  3  2  2  0
  4  2  1  0
  5  4  1  0
  6  5  1  0
  6  7  1  6
  8  6  1  0
  8 12  1  0
  9  8  2  0
 11 10  1  6
 11 12  1  0
 11 13  1  0
 13 15  1  0
 14 13  2  0
 15 16  1  0
 16 17  1  0
 17 19  1  0
 18 17  2  0
M  END
$$$$
