QFH.pdb
     RDKit          3D

 31 32  0  0  1  0  0  0  0  0999 V2000
    7.7574  -20.9433   20.5765 N   0  0  0  0  0  0  0  0  0  0  0  0
    9.0763  -20.4676   20.5581 C   0  0  0  0  0  0  0  0  0  0  0  0
   10.0378  -21.2551   20.7350 O   0  0  0  0  0  0  0  0  0  0  0  0
    9.3588  -19.0286   20.3299 C   0  0  0  0  0  0  0  0  0  0  0  0
    8.0874  -18.2469   20.0721 C   0  0  0  0  0  0  0  0  0  0  0  0
    8.4805  -16.8064   19.8653 C   0  0  2  0  0  0  0  0  0  0  0  0
    9.5888  -16.6954   18.9766 N   0  0  0  0  0  0  0  0  0  0  0  0
    8.7433  -16.0842   21.1133 C   0  0  0  0  0  0  0  0  0  0  0  0
    9.9371  -15.8530   21.4275 O   0  0  0  0  0  0  0  0  0  0  0  0
    7.7306  -15.6269   21.9940 N   0  0  0  0  0  0  0  0  0  0  0  0
    7.9220  -14.9453   23.2235 C   0  0  1  0  0  0  0  0  0  0  0  0
    6.7563  -14.0889   23.6801 C   0  0  0  0  0  0  0  0  0  0  0  0
    7.0233  -13.2874   24.8721 C   0  0  0  0  0  0  0  0  0  0  0  0
    7.9477  -12.2822   24.8816 C   0  0  0  0  0  0  0  0  0  0  0  0
    8.2030  -11.5214   26.0297 C   0  0  0  0  0  0  0  0  0  0  0  0
    7.5194  -11.7700   27.1951 C   0  0  0  0  0  0  0  0  0  0  0  0
    6.5743  -12.7886   27.2062 C   0  0  0  0  0  0  0  0  0  0  0  0
    6.3428  -13.5188   26.0697 C   0  0  0  0  0  0  0  0  0  0  0  0
    8.3093  -15.8256   24.3435 C   0  0  0  0  0  0  0  0  0  0  0  0
    7.4690  -16.6583   24.8314 O   0  0  0  0  0  0  0  0  0  0  0  0
    9.5839  -15.8388   24.9603 N   0  0  0  0  0  0  0  0  0  0  0  0
    9.9988  -16.8448   25.9167 C   0  0  1  0  0  0  0  0  0  0  0  0
   11.4983  -17.0453   25.8976 C   0  0  0  0  0  0  0  0  0  0  0  0
   11.9254  -17.7138   24.6178 C   0  0  0  0  0  0  0  0  0  0  0  0
   11.1105  -18.1659   23.6177 C   0  0  0  0  0  0  0  0  0  0  0  0
   11.8923  -18.6919   22.6651 N   0  0  0  0  0  0  0  0  0  0  0  0
   13.1951  -18.5852   23.0366 C   0  0  0  0  0  0  0  0  0  0  0  0
   13.1916  -17.9837   24.2346 N   0  0  0  0  0  0  0  0  0  0  0  0
    9.6366  -16.3671   27.2709 C   0  0  0  0  0  0  0  0  0  0  0  0
    9.7512  -17.1968   28.3730 O   0  0  0  0  0  0  0  0  0  0  0  0
    9.2167  -15.1966   27.4493 O   0  0  0  0  0  0  0  0  0  0  0  0
  2  1  1  0
  3  2  2  0
  4  2  1  0
  5  4  1  0
  5  6  1  0
  6  7  1  6
  8  9  2  0
  8  6  1  0
 10  8  1  0
 11 10  1  0
 11 12  1  1
 13 12  1  0
 13 18  1  0
 14 13  2  0
 15 14  1  0
 15 16  2  0
 16 17  1  0
 17 18  2  0
 19 11  1  0
 20 19  2  0
 21 19  1  0
 22 21  1  0
 23 24  1  0
 22 23  1  1
 24 28  1  0
 25 24  2  0
 25 26  1  0
 26 27  1  0
 28 27  2  0
 29 22  1  0
 29 30  1  0
 31 29  2  0
M  END
$$$$
