QFH.pdb
     RDKit          3D

 31 32  0  0  1  0  0  0  0  0999 V2000
    9.4919  -13.9973   16.1226 N   0  0  0  0  0  0  0  0  0  0  0  0
    8.2132  -14.1488   16.6775 C   0  0  0  0  0  0  0  0  0  0  0  0
    7.1966  -13.7806   16.0397 O   0  0  0  0  0  0  0  0  0  0  0  0
    8.0387  -14.7455   18.0252 C   0  0  0  0  0  0  0  0  0  0  0  0
    9.3671  -15.1493   18.6303 C   0  0  0  0  0  0  0  0  0  0  0  0
    9.0782  -16.1487   19.7211 C   0  0  2  0  0  0  0  0  0  0  0  0
    7.8111  -16.7716   19.5291 N   0  0  0  0  0  0  0  0  0  0  0  0
    9.1809  -15.5898   21.0721 C   0  0  0  0  0  0  0  0  0  0  0  0
   10.2822  -15.1073   21.4348 O   0  0  0  0  0  0  0  0  0  0  0  0
    8.1106  -15.5586   22.0016 N   0  0  0  0  0  0  0  0  0  0  0  0
    8.1325  -14.9859   23.2994 C   0  0  1  0  0  0  0  0  0  0  0  0
    6.8359  -14.3374   23.7455 C   0  0  0  0  0  0  0  0  0  0  0  0
    6.9209  -13.6254   25.0185 C   0  0  0  0  0  0  0  0  0  0  0  0
    7.5883  -12.4409   25.1471 C   0  0  0  0  0  0  0  0  0  0  0  0
    7.6710  -11.7664   26.3721 C   0  0  0  0  0  0  0  0  0  0  0  0
    7.0733  -12.2867   27.4943 C   0  0  0  0  0  0  0  0  0  0  0  0
    6.3890  -13.4911   27.3844 C   0  0  0  0  0  0  0  0  0  0  0  0
    6.3226  -14.1317   26.1746 C   0  0  0  0  0  0  0  0  0  0  0  0
    8.5663  -15.9177   24.3591 C   0  0  0  0  0  0  0  0  0  0  0  0
    7.8068  -16.8812   24.7231 O   0  0  0  0  0  0  0  0  0  0  0  0
    9.8028  -15.8454   25.0452 N   0  0  0  0  0  0  0  0  0  0  0  0
   10.2511  -16.8456   25.9927 C   0  0  1  0  0  0  0  0  0  0  0  0
   11.7427  -17.0781   25.8919 C   0  0  0  0  0  0  0  0  0  0  0  0
   12.0701  -17.8803   24.6605 C   0  0  0  0  0  0  0  0  0  0  0  0
   11.1816  -18.4051   23.7640 C   0  0  0  0  0  0  0  0  0  0  0  0
   11.8874  -19.0435   22.8207 N   0  0  0  0  0  0  0  0  0  0  0  0
   13.2138  -18.9374   23.0965 C   0  0  0  0  0  0  0  0  0  0  0  0
   13.3022  -18.2217   24.2265 N   0  0  0  0  0  0  0  0  0  0  0  0
    9.9764  -16.3403   27.3574 C   0  0  0  0  0  0  0  0  0  0  0  0
   10.2291  -17.1229   28.4709 O   0  0  0  0  0  0  0  0  0  0  0  0
    9.5071  -15.1885   27.5346 O   0  0  0  0  0  0  0  0  0  0  0  0
  2  1  1  0
  3  2  2  0
  4  2  1  0
  5  4  1  0
  5  6  1  0
  6  7  1  6
  8  9  2  0
  8  6  1  0
 10  8  1  0
 11 10  1  0
 11 12  1  1
 13 12  1  0
 13 18  1  0
 14 13  2  0
 15 14  1  0
 15 16  2  0
 16 17  1  0
 17 18  2  0
 19 11  1  0
 20 19  2  0
 21 19  1  0
 22 21  1  0
 23 24  1  0
 22 23  1  1
 24 28  1  0
 25 24  2  0
 25 26  1  0
 26 27  1  0
 28 27  2  0
 29 22  1  0
 29 30  1  0
 31 29  2  0
M  END
$$$$
