QFH.pdb
     RDKit          3D

 31 32  0  0  1  0  0  0  0  0999 V2000
    8.0488  -20.9840   19.1061 N   0  0  0  0  0  0  0  0  0  0  0  0
    9.0393  -20.4145   19.9189 C   0  0  0  0  0  0  0  0  0  0  0  0
    9.6313  -21.1100   20.7802 O   0  0  0  0  0  0  0  0  0  0  0  0
    9.4049  -18.9831   19.7763 C   0  0  0  0  0  0  0  0  0  0  0  0
    8.2324  -18.0765   20.0880 C   0  0  0  0  0  0  0  0  0  0  0  0
    8.7115  -16.6553   19.9372 C   0  0  2  0  0  0  0  0  0  0  0  0
    9.8729  -16.5858   19.1146 N   0  0  0  0  0  0  0  0  0  0  0  0
    8.9403  -15.9739   21.2145 C   0  0  0  0  0  0  0  0  0  0  0  0
   10.1252  -15.8023   21.5941 O   0  0  0  0  0  0  0  0  0  0  0  0
    7.9041  -15.4930   22.0544 N   0  0  0  0  0  0  0  0  0  0  0  0
    8.0617  -14.8224   23.2946 C   0  0  1  0  0  0  0  0  0  0  0  0
    6.8496  -14.0456   23.7721 C   0  0  0  0  0  0  0  0  0  0  0  0
    7.0321  -13.3634   25.0512 C   0  0  0  0  0  0  0  0  0  0  0  0
    7.8074  -12.2461   25.1763 C   0  0  0  0  0  0  0  0  0  0  0  0
    7.9829  -11.6003   26.4069 C   0  0  0  0  0  0  0  0  0  0  0  0
    7.3700  -12.0811   27.5384 C   0  0  0  0  0  0  0  0  0  0  0  0
    6.5765  -13.2170   27.4322 C   0  0  0  0  0  0  0  0  0  0  0  0
    6.4207  -13.8308   26.2167 C   0  0  0  0  0  0  0  0  0  0  0  0
    8.5080  -15.6970   24.3970 C   0  0  0  0  0  0  0  0  0  0  0  0
    7.7861  -16.6854   24.7706 O   0  0  0  0  0  0  0  0  0  0  0  0
    9.7177  -15.5408   25.1163 N   0  0  0  0  0  0  0  0  0  0  0  0
   10.1997  -16.5010   26.0883 C   0  0  1  0  0  0  0  0  0  0  0  0
   11.6516  -16.8530   25.8494 C   0  0  0  0  0  0  0  0  0  0  0  0
   11.7736  -17.8739   24.7494 C   0  0  0  0  0  0  0  0  0  0  0  0
   10.7494  -18.4852   24.0814 C   0  0  0  0  0  0  0  0  0  0  0  0
   11.2922  -19.3204   23.1851 N   0  0  0  0  0  0  0  0  0  0  0  0
   12.6471  -19.2556   23.2663 C   0  0  0  0  0  0  0  0  0  0  0  0
   12.9193  -18.3643   24.2299 N   0  0  0  0  0  0  0  0  0  0  0  0
   10.1133  -15.8789   27.4294 C   0  0  0  0  0  0  0  0  0  0  0  0
   10.3356  -16.6229   28.5753 O   0  0  0  0  0  0  0  0  0  0  0  0
    9.8357  -14.6602   27.5566 O   0  0  0  0  0  0  0  0  0  0  0  0
  2  1  1  0
  3  2  2  0
  4  2  1  0
  5  4  1  0
  5  6  1  0
  6  7  1  1
  8  9  2  0
  8  6  1  0
 10  8  1  0
 11 10  1  0
 11 12  1  1
 13 12  1  0
 13 18  1  0
 14 13  2  0
 15 14  1  0
 15 16  2  0
 16 17  1  0
 17 18  2  0
 19 11  1  0
 20 19  2  0
 21 19  1  0
 22 21  1  0
 23 24  1  0
 22 23  1  6
 24 28  1  0
 25 24  2  0
 25 26  1  0
 26 27  1  0
 28 27  2  0
 29 22  1  0
 29 30  1  0
 31 29  2  0
M  END
$$$$
