QFH.pdb
     RDKit          3D

 31 32  0  0  1  0  0  0  0  0999 V2000
   11.2544  -19.4446   18.1747 N   0  0  0  0  0  0  0  0  0  0  0  0
   10.4800  -18.5309   17.4457 C   0  0  0  0  0  0  0  0  0  0  0  0
   10.1934  -18.7576   16.2447 O   0  0  0  0  0  0  0  0  0  0  0  0
    9.9864  -17.2826   18.0788 C   0  0  0  0  0  0  0  0  0  0  0  0
   10.4487  -17.1685   19.5166 C   0  0  0  0  0  0  0  0  0  0  0  0
    9.2162  -17.1543   20.3844 C   0  0  2  0  0  0  0  0  0  0  0  0
    8.0714  -16.7302   19.6496 N   0  0  0  0  0  0  0  0  0  0  0  0
    9.3685  -16.3622   21.6081 C   0  0  0  0  0  0  0  0  0  0  0  0
   10.4617  -16.4213   22.2236 O   0  0  0  0  0  0  0  0  0  0  0  0
    8.3552  -15.5283   22.1451 N   0  0  0  0  0  0  0  0  0  0  0  0
    8.3886  -14.8500   23.3907 C   0  0  1  0  0  0  0  0  0  0  0  0
    7.2374  -13.8946   23.6414 C   0  0  0  0  0  0  0  0  0  0  0  0
    7.3098  -13.1788   24.9131 C   0  0  0  0  0  0  0  0  0  0  0  0
    6.4957  -13.4823   25.9668 C   0  0  0  0  0  0  0  0  0  0  0  0
    6.5664  -12.7879   27.1813 C   0  0  0  0  0  0  0  0  0  0  0  0
    7.4708  -11.7674   27.3476 C   0  0  0  0  0  0  0  0  0  0  0  0
    8.3085  -11.4432   26.2873 C   0  0  0  0  0  0  0  0  0  0  0  0
    8.2198  -12.1374   25.1089 C   0  0  0  0  0  0  0  0  0  0  0  0
    8.5025  -15.7456   24.5587 C   0  0  0  0  0  0  0  0  0  0  0  0
    7.5653  -16.5727   24.8327 O   0  0  0  0  0  0  0  0  0  0  0  0
    9.6032  -15.7802   25.4489 N   0  0  0  0  0  0  0  0  0  0  0  0
    9.9985  -16.9633   26.1859 C   0  0  1  0  0  0  0  0  0  0  0  0
   11.2115  -17.6237   25.5683 C   0  0  0  0  0  0  0  0  0  0  0  0
   11.5510  -18.8948   26.3006 C   0  0  0  0  0  0  0  0  0  0  0  0
   10.8642  -19.4471   27.3456 C   0  0  0  0  0  0  0  0  0  0  0  0
   11.5014  -20.5713   27.6999 N   0  0  0  0  0  0  0  0  0  0  0  0
   12.5854  -20.7501   26.9002 C   0  0  0  0  0  0  0  0  0  0  0  0
   12.5962  -19.7125   26.0515 N   0  0  0  0  0  0  0  0  0  0  0  0
   10.3755  -16.5455   27.5558 C   0  0  0  0  0  0  0  0  0  0  0  0
   10.4304  -17.4634   28.5905 O   0  0  0  0  0  0  0  0  0  0  0  0
   10.6541  -15.3470   27.8092 O   0  0  0  0  0  0  0  0  0  0  0  0
  2  1  1  0
  3  2  2  0
  4  2  1  0
  5  4  1  0
  5  6  1  0
  6  7  1  6
  8  9  2  0
  8  6  1  0
 10  8  1  0
 11 10  1  0
 11 12  1  1
 13 12  1  0
 13 18  1  0
 14 13  2  0
 15 14  1  0
 15 16  2  0
 16 17  1  0
 17 18  2  0
 19 11  1  0
 20 19  2  0
 21 19  1  0
 22 21  1  0
 23 24  1  0
 22 23  1  6
 24 28  1  0
 25 24  2  0
 25 26  1  0
 26 27  1  0
 28 27  2  0
 29 22  1  0
 29 30  1  0
 31 29  2  0
M  END
$$$$
