QFH.pdb
     RDKit          3D

 31 32  0  0  1  0  0  0  0  0999 V2000
   11.3391  -20.6489   19.9927 N   0  0  0  0  0  0  0  0  0  0  0  0
   10.9783  -19.9974   18.8046 C   0  0  0  0  0  0  0  0  0  0  0  0
   11.1311  -20.5671   17.6965 O   0  0  0  0  0  0  0  0  0  0  0  0
   10.4110  -18.6263   18.8354 C   0  0  0  0  0  0  0  0  0  0  0  0
   10.2030  -18.1429   20.2556 C   0  0  0  0  0  0  0  0  0  0  0  0
    9.5423  -16.7904   20.1771 C   0  0  2  0  0  0  0  0  0  0  0  0
   10.0704  -16.0186   19.1020 N   0  0  0  0  0  0  0  0  0  0  0  0
    9.5978  -16.0356   21.4322 C   0  0  0  0  0  0  0  0  0  0  0  0
   10.7230  -15.8128   21.9439 O   0  0  0  0  0  0  0  0  0  0  0  0
    8.4563  -15.5378   22.1103 N   0  0  0  0  0  0  0  0  0  0  0  0
    8.4315  -14.9256   23.3898 C   0  0  1  0  0  0  0  0  0  0  0  0
    7.1933  -14.1036   23.6930 C   0  0  0  0  0  0  0  0  0  0  0  0
    7.2010  -13.4566   25.0030 C   0  0  0  0  0  0  0  0  0  0  0  0
    8.0812  -12.4611   25.3182 C   0  0  0  0  0  0  0  0  0  0  0  0
    8.0870  -11.8491   26.5782 C   0  0  0  0  0  0  0  0  0  0  0  0
    7.1934  -12.2400   27.5456 C   0  0  0  0  0  0  0  0  0  0  0  0
    6.2892  -13.2513   27.2446 C   0  0  0  0  0  0  0  0  0  0  0  0
    6.3036  -13.8345   26.0044 C   0  0  0  0  0  0  0  0  0  0  0  0
    8.6421  -15.8653   24.5087 C   0  0  0  0  0  0  0  0  0  0  0  0
    7.7484  -16.7336   24.8004 O   0  0  0  0  0  0  0  0  0  0  0  0
    9.7945  -15.9012   25.3307 N   0  0  0  0  0  0  0  0  0  0  0  0
    9.9617  -16.8262   26.4332 C   0  0  1  0  0  0  0  0  0  0  0  0
   11.2369  -17.6289   26.2972 C   0  0  0  0  0  0  0  0  0  0  0  0
   11.0748  -18.7058   25.2574 C   0  0  0  0  0  0  0  0  0  0  0  0
    9.9483  -18.9844   24.5348 C   0  0  0  0  0  0  0  0  0  0  0  0
   10.2312  -20.0133   23.7244 N   0  0  0  0  0  0  0  0  0  0  0  0
   11.5200  -20.3999   23.9145 C   0  0  0  0  0  0  0  0  0  0  0  0
   12.0168  -19.5861   24.8568 N   0  0  0  0  0  0  0  0  0  0  0  0
   10.0703  -16.0369   27.6816 C   0  0  0  0  0  0  0  0  0  0  0  0
   10.1489  -16.6615   28.9144 O   0  0  0  0  0  0  0  0  0  0  0  0
   10.0935  -14.7813   27.6489 O   0  0  0  0  0  0  0  0  0  0  0  0
  2  1  1  0
  3  2  2  0
  4  2  1  0
  5  4  1  0
  5  6  1  0
  6  7  1  6
  8  9  2  0
  8  6  1  0
 10  8  1  0
 11 10  1  0
 11 12  1  1
 13 12  1  0
 13 18  1  0
 14 13  2  0
 15 14  1  0
 15 16  2  0
 16 17  1  0
 17 18  2  0
 19 11  1  0
 20 19  2  0
 21 19  1  0
 22 21  1  0
 23 24  1  0
 22 23  1  6
 24 28  1  0
 25 24  2  0
 25 26  1  0
 26 27  1  0
 28 27  2  0
 29 22  1  0
 29 30  1  0
 31 29  2  0
M  END
$$$$
