QFH.pdb
     RDKit          3D

 31 32  0  0  1  0  0  0  0  0999 V2000
    8.7198  -12.8842   16.6502 N   0  0  0  0  0  0  0  0  0  0  0  0
    8.3288  -14.2110   16.4208 C   0  0  0  0  0  0  0  0  0  0  0  0
    7.8678  -14.5532   15.3044 O   0  0  0  0  0  0  0  0  0  0  0  0
    8.4524  -15.2323   17.4906 C   0  0  0  0  0  0  0  0  0  0  0  0
    9.0295  -14.6404   18.7597 C   0  0  0  0  0  0  0  0  0  0  0  0
    9.0963  -15.7470   19.7810 C   0  0  2  0  0  0  0  0  0  0  0  0
    7.9945  -16.6407   19.6478 N   0  0  0  0  0  0  0  0  0  0  0  0
    9.2092  -15.2667   21.1611 C   0  0  0  0  0  0  0  0  0  0  0  0
   10.3074  -14.7865   21.5365 O   0  0  0  0  0  0  0  0  0  0  0  0
    8.1524  -15.3095   22.1054 N   0  0  0  0  0  0  0  0  0  0  0  0
    8.1911  -14.8346   23.4417 C   0  0  1  0  0  0  0  0  0  0  0  0
    6.9497  -14.0965   23.9053 C   0  0  0  0  0  0  0  0  0  0  0  0
    7.0826  -13.4442   25.2059 C   0  0  0  0  0  0  0  0  0  0  0  0
    7.9028  -12.3698   25.4012 C   0  0  0  0  0  0  0  0  0  0  0  0
    8.0300  -11.7528   26.6524 C   0  0  0  0  0  0  0  0  0  0  0  0
    7.3219  -12.2192   27.7332 C   0  0  0  0  0  0  0  0  0  0  0  0
    6.4815  -13.3115   27.5552 C   0  0  0  0  0  0  0  0  0  0  0  0
    6.3744  -13.8978   26.3210 C   0  0  0  0  0  0  0  0  0  0  0  0
    8.5032  -15.8766   24.4398 C   0  0  0  0  0  0  0  0  0  0  0  0
    7.6750  -16.8262   24.6635 O   0  0  0  0  0  0  0  0  0  0  0  0
    9.6894  -15.9301   25.2114 N   0  0  0  0  0  0  0  0  0  0  0  0
   10.0053  -17.0153   26.1178 C   0  0  1  0  0  0  0  0  0  0  0  0
   11.4481  -17.4502   25.9831 C   0  0  0  0  0  0  0  0  0  0  0  0
   11.6980  -18.0355   24.6185 C   0  0  0  0  0  0  0  0  0  0  0  0
   10.8917  -18.9063   23.9400 C   0  0  0  0  0  0  0  0  0  0  0  0
   11.4822  -19.1751   22.7676 N   0  0  0  0  0  0  0  0  0  0  0  0
   12.6537  -18.4919   22.6819 C   0  0  0  0  0  0  0  0  0  0  0  0
   12.7654  -17.8013   23.8254 N   0  0  0  0  0  0  0  0  0  0  0  0
    9.8219  -16.5242   27.5028 C   0  0  0  0  0  0  0  0  0  0  0  0
    9.9681  -17.3746   28.5852 O   0  0  0  0  0  0  0  0  0  0  0  0
    9.5292  -15.3230   27.7261 O   0  0  0  0  0  0  0  0  0  0  0  0
  2  1  1  0
  3  2  2  0
  4  2  1  0
  5  4  1  0
  5  6  1  0
  6  7  1  1
  8  9  2  0
  8  6  1  0
 10  8  1  0
 11 10  1  0
 11 12  1  1
 13 12  1  0
 13 18  1  0
 14 13  2  0
 15 14  1  0
 15 16  2  0
 16 17  1  0
 17 18  2  0
 19 11  1  0
 20 19  2  0
 21 19  1  0
 22 21  1  0
 23 24  1  0
 22 23  1  1
 24 28  1  0
 25 24  2  0
 25 26  1  0
 26 27  1  0
 28 27  2  0
 29 22  1  0
 29 30  1  0
 31 29  2  0
M  END
$$$$
