QFH.pdb
     RDKit          3D

 31 32  0  0  1  0  0  0  0  0999 V2000
   13.6291  -17.2596   18.3633 N   0  0  0  0  0  0  0  0  0  0  0  0
   12.5543  -18.0787   17.9893 C   0  0  0  0  0  0  0  0  0  0  0  0
   12.6504  -18.8369   16.9934 O   0  0  0  0  0  0  0  0  0  0  0  0
   11.2871  -18.0646   18.7619 C   0  0  0  0  0  0  0  0  0  0  0  0
   11.3452  -17.0740   19.9062 C   0  0  0  0  0  0  0  0  0  0  0  0
   10.0288  -17.1541   20.6362 C   0  0  2  0  0  0  0  0  0  0  0  0
    8.9387  -16.8466   19.7717 N   0  0  0  0  0  0  0  0  0  0  0  0
    9.9776  -16.3299   21.8471 C   0  0  0  0  0  0  0  0  0  0  0  0
   11.0581  -16.0486   22.4222 O   0  0  0  0  0  0  0  0  0  0  0  0
    8.7796  -15.8267   22.4146 N   0  0  0  0  0  0  0  0  0  0  0  0
    8.6539  -15.1193   23.6379 C   0  0  1  0  0  0  0  0  0  0  0  0
    7.3610  -14.3453   23.8112 C   0  0  0  0  0  0  0  0  0  0  0  0
    7.2975  -13.5355   25.0256 C   0  0  0  0  0  0  0  0  0  0  0  0
    8.0839  -12.4341   25.2083 C   0  0  0  0  0  0  0  0  0  0  0  0
    8.0221  -11.6654   26.3778 C   0  0  0  0  0  0  0  0  0  0  0  0
    7.1549  -12.0043   27.3879 C   0  0  0  0  0  0  0  0  0  0  0  0
    6.3457  -13.1217   27.2213 C   0  0  0  0  0  0  0  0  0  0  0  0
    6.4250  -13.8575   26.0678 C   0  0  0  0  0  0  0  0  0  0  0  0
    8.8504  -15.9564   24.8379 C   0  0  0  0  0  0  0  0  0  0  0  0
    7.9514  -16.7936   25.1962 O   0  0  0  0  0  0  0  0  0  0  0  0
    9.9943  -15.9213   25.6719 N   0  0  0  0  0  0  0  0  0  0  0  0
   10.1909  -16.8124   26.7972 C   0  0  1  0  0  0  0  0  0  0  0  0
   11.5336  -17.5063   26.7290 C   0  0  0  0  0  0  0  0  0  0  0  0
   11.5136  -18.5941   25.6881 C   0  0  0  0  0  0  0  0  0  0  0  0
   10.4528  -18.9636   24.9091 C   0  0  0  0  0  0  0  0  0  0  0  0
   10.8599  -19.9674   24.1203 N   0  0  0  0  0  0  0  0  0  0  0  0
   12.1638  -20.2486   24.3797 C   0  0  0  0  0  0  0  0  0  0  0  0
   12.5433  -19.3961   25.3422 N   0  0  0  0  0  0  0  0  0  0  0  0
   10.1794  -15.9983   28.0343 C   0  0  0  0  0  0  0  0  0  0  0  0
   10.0901  -16.5964   29.2795 O   0  0  0  0  0  0  0  0  0  0  0  0
   10.2505  -14.7452   27.9806 O   0  0  0  0  0  0  0  0  0  0  0  0
  2  1  1  0
  3  2  2  0
  4  2  1  0
  5  4  1  0
  5  6  1  0
  6  7  1  6
  8  9  2  0
  8  6  1  0
 10  8  1  0
 11 10  1  0
 11 12  1  1
 13 12  1  0
 13 18  1  0
 14 13  2  0
 15 14  1  0
 15 16  2  0
 16 17  1  0
 17 18  2  0
 19 11  1  0
 20 19  2  0
 21 19  1  0
 22 21  1  0
 23 24  1  0
 22 23  1  6
 24 28  1  0
 25 24  2  0
 25 26  1  0
 26 27  1  0
 28 27  2  0
 29 22  1  0
 29 30  1  0
 31 29  2  0
M  END
$$$$
