VCF.pdb
     RDKit          3D

 25 25  0  0  1  0  0  0  0  0999 V2000
    8.0819  -12.7376   20.7872 C   0  0  0  0  0  0  0  0  0  0  0  0
    7.7473  -13.4073   19.5055 C   0  0  1  0  0  0  0  0  0  0  0  0
    7.9837  -12.5147   18.3095 C   0  0  0  0  0  0  0  0  0  0  0  0
    8.6204  -14.6455   19.3105 C   0  0  2  0  0  0  0  0  0  0  0  0
    8.1950  -15.3307   18.0838 N   0  0  0  0  0  0  0  0  0  0  0  0
    8.3312  -15.5733   20.4265 C   0  0  0  0  0  0  0  0  0  0  0  0
    7.5869  -16.5714   20.2010 O   0  0  0  0  0  0  0  0  0  0  0  0
    8.8237  -15.4442   21.7493 N   0  0  0  0  0  0  0  0  0  0  0  0
    8.5303  -16.4596   22.7284 C   0  0  1  0  0  0  0  0  0  0  0  0
    9.1095  -17.7895   22.2268 C   0  0  0  0  0  0  0  0  0  0  0  0
   10.8007  -17.4722   21.6872 S   0  0  0  0  0  0  0  0  0  0  0  0
    9.2017  -16.1637   24.0173 C   0  0  0  0  0  0  0  0  0  0  0  0
   10.3520  -15.6349   24.0917 O   0  0  0  0  0  0  0  0  0  0  0  0
    8.5741  -16.4652   25.2529 N   0  0  0  0  0  0  0  0  0  0  0  0
    9.1918  -16.1856   26.5433 C   0  0  1  0  0  0  0  0  0  0  0  0
    8.0835  -15.6488   27.4179 C   0  0  0  0  0  0  0  0  0  0  0  0
    7.6240  -14.3114   27.0243 C   0  0  0  0  0  0  0  0  0  0  0  0
    8.3881  -13.2174   27.3582 C   0  0  0  0  0  0  0  0  0  0  0  0
    7.9577  -11.9446   26.9807 C   0  0  0  0  0  0  0  0  0  0  0  0
    6.7813  -11.8350   26.2870 C   0  0  0  0  0  0  0  0  0  0  0  0
    6.0005  -12.9261   25.9433 C   0  0  0  0  0  0  0  0  0  0  0  0
    6.4479  -14.1585   26.3265 C   0  0  0  0  0  0  0  0  0  0  0  0
    9.7504  -17.3972   27.1606 C   0  0  0  0  0  0  0  0  0  0  0  0
    9.6363  -18.6651   26.5505 O   0  0  0  0  0  0  0  0  0  0  0  0
   10.3627  -17.4138   28.2561 O   0  0  0  0  0  0  0  0  0  0  0  0
  2  4  1  0
  2  1  1  1
  3  2  1  0
  4  5  1  6
  4  6  1  0
  6  7  2  0
  8  6  1  0
  8  9  1  0
  9 12  1  0
  9 10  1  6
 11 10  1  0
 12 14  1  0
 13 12  2  0
 14 15  1  0
 15 16  1  1
 16 17  1  0
 17 18  2  0
 18 19  1  0
 20 19  2  0
 21 20  1  0
 22 21  2  0
 22 17  1  0
 23 15  1  0
 24 23  1  0
 25 23  2  0
M  END
$$$$
