VCF.pdb
     RDKit          3D

 25 25  0  0  1  0  0  0  0  0999 V2000
    8.8690  -12.6812   21.1123 C   0  0  0  0  0  0  0  0  0  0  0  0
    7.9401  -13.2435   20.1003 C   0  0  1  0  0  0  0  0  0  0  0  0
    7.8298  -12.3718   18.8711 C   0  0  0  0  0  0  0  0  0  0  0  0
    8.4340  -14.6100   19.6286 C   0  0  2  0  0  0  0  0  0  0  0  0
    7.4892  -15.1321   18.6336 N   0  0  0  0  0  0  0  0  0  0  0  0
    8.3692  -15.5298   20.7860 C   0  0  0  0  0  0  0  0  0  0  0  0
    7.2482  -16.0282   21.0958 O   0  0  0  0  0  0  0  0  0  0  0  0
    9.4702  -15.9121   21.5926 N   0  0  0  0  0  0  0  0  0  0  0  0
    9.2837  -16.8596   22.6618 C   0  0  1  0  0  0  0  0  0  0  0  0
   10.1634  -18.0842   22.3749 C   0  0  0  0  0  0  0  0  0  0  0  0
    9.8881  -19.2700   23.7052 S   0  0  0  0  0  0  0  0  0  0  0  0
    9.7461  -16.2987   23.9546 C   0  0  0  0  0  0  0  0  0  0  0  0
   10.8744  -15.7381   24.1005 O   0  0  0  0  0  0  0  0  0  0  0  0
    8.9296  -16.3648   25.1124 N   0  0  0  0  0  0  0  0  0  0  0  0
    9.3316  -15.8062   26.3973 C   0  0  1  0  0  0  0  0  0  0  0  0
    8.0476  -15.4251   27.0957 C   0  0  0  0  0  0  0  0  0  0  0  0
    7.4751  -14.1609   26.6175 C   0  0  0  0  0  0  0  0  0  0  0  0
    8.2326  -13.0150   26.6895 C   0  0  0  0  0  0  0  0  0  0  0  0
    7.6940  -11.8121   26.2304 C   0  0  0  0  0  0  0  0  0  0  0  0
    6.4216  -11.8209   25.7225 C   0  0  0  0  0  0  0  0  0  0  0  0
    5.6459  -12.9657   25.6433 C   0  0  0  0  0  0  0  0  0  0  0  0
    6.2004  -14.1274   26.1002 C   0  0  0  0  0  0  0  0  0  0  0  0
   10.0572  -16.7846   27.2204 C   0  0  0  0  0  0  0  0  0  0  0  0
   10.2228  -18.1255   26.8116 O   0  0  0  0  0  0  0  0  0  0  0  0
   10.5808  -16.5235   28.3308 O   0  0  0  0  0  0  0  0  0  0  0  0
  2  4  1  0
  2  1  1  1
  3  2  1  0
  4  5  1  6
  4  6  1  0
  6  7  2  0
  8  6  1  0
  8  9  1  0
  9 12  1  0
  9 10  1  6
 11 10  1  0
 12 14  1  0
 13 12  2  0
 14 15  1  0
 15 16  1  1
 16 17  1  0
 17 18  2  0
 18 19  1  0
 20 19  2  0
 21 20  1  0
 22 21  2  0
 22 17  1  0
 23 15  1  0
 24 23  1  0
 25 23  2  0
M  END
$$$$
