VCF.pdb
     RDKit          3D

 25 25  0  0  1  0  0  0  0  0999 V2000
    8.3202  -12.6081   20.6446 C   0  0  0  0  0  0  0  0  0  0  0  0
    7.8808  -13.2818   19.3971 C   0  0  1  0  0  0  0  0  0  0  0  0
    8.0986  -12.4253   18.1716 C   0  0  0  0  0  0  0  0  0  0  0  0
    8.6747  -14.5691   19.1817 C   0  0  2  0  0  0  0  0  0  0  0  0
    8.1878  -15.2212   17.9599 N   0  0  0  0  0  0  0  0  0  0  0  0
    8.3497  -15.4837   20.2988 C   0  0  0  0  0  0  0  0  0  0  0  0
    7.4948  -16.3950   20.1003 O   0  0  0  0  0  0  0  0  0  0  0  0
    8.9221  -15.4319   21.5944 N   0  0  0  0  0  0  0  0  0  0  0  0
    8.5451  -16.4061   22.5867 C   0  0  1  0  0  0  0  0  0  0  0  0
    9.0297  -17.7834   22.1134 C   0  0  0  0  0  0  0  0  0  0  0  0
   10.7727  -17.6225   21.6800 S   0  0  0  0  0  0  0  0  0  0  0  0
    9.2238  -16.1383   23.8779 C   0  0  0  0  0  0  0  0  0  0  0  0
   10.4187  -15.7204   23.9568 O   0  0  0  0  0  0  0  0  0  0  0  0
    8.5529  -16.3416   25.1108 N   0  0  0  0  0  0  0  0  0  0  0  0
    9.1500  -16.0159   26.4000 C   0  0  1  0  0  0  0  0  0  0  0  0
    8.0163  -15.5040   27.2567 C   0  0  0  0  0  0  0  0  0  0  0  0
    7.5127  -14.1908   26.8362 C   0  0  0  0  0  0  0  0  0  0  0  0
    6.2944  -14.1144   26.2022 C   0  0  0  0  0  0  0  0  0  0  0  0
    5.8094  -12.8671   25.8059 C   0  0  0  0  0  0  0  0  0  0  0  0
    6.5729  -11.7597   26.0664 C   0  0  0  0  0  0  0  0  0  0  0  0
    7.8013  -11.8196   26.7034 C   0  0  0  0  0  0  0  0  0  0  0  0
    8.2492  -13.0541   27.0793 C   0  0  0  0  0  0  0  0  0  0  0  0
    9.7477  -17.1947   27.0438 C   0  0  0  0  0  0  0  0  0  0  0  0
   10.6377  -17.0781   28.1333 O   0  0  0  0  0  0  0  0  0  0  0  0
    9.5268  -18.3793   26.6926 O   0  0  0  0  0  0  0  0  0  0  0  0
  2  4  1  0
  2  1  1  1
  3  2  1  0
  4  5  1  6
  4  6  1  0
  6  7  2  0
  8  6  1  0
  8  9  1  0
  9 12  1  0
  9 10  1  6
 11 10  1  0
 12 14  1  0
 13 12  2  0
 14 15  1  0
 15 16  1  1
 16 17  1  0
 17 18  2  0
 18 19  1  0
 20 19  2  0
 21 20  1  0
 22 21  2  0
 22 17  1  0
 23 15  1  0
 24 23  1  0
 25 23  2  0
M  END
$$$$
