VCF.pdb
     RDKit          3D

 25 25  0  0  1  0  0  0  0  0999 V2000
    8.1407  -12.7106   20.7313 C   0  0  0  0  0  0  0  0  0  0  0  0
    7.8238  -13.2191   19.3733 C   0  0  1  0  0  0  0  0  0  0  0  0
    8.4291  -12.3667   18.2824 C   0  0  0  0  0  0  0  0  0  0  0  0
    8.3822  -14.6294   19.1914 C   0  0  2  0  0  0  0  0  0  0  0  0
    7.8808  -15.1722   17.9229 N   0  0  0  0  0  0  0  0  0  0  0  0
    7.8088  -15.4757   20.2613 C   0  0  0  0  0  0  0  0  0  0  0  0
    6.6109  -15.8653   20.1426 O   0  0  0  0  0  0  0  0  0  0  0  0
    8.4936  -15.8995   21.4278 N   0  0  0  0  0  0  0  0  0  0  0  0
    7.8104  -16.6994   22.4122 C   0  0  1  0  0  0  0  0  0  0  0  0
    7.9607  -18.1751   22.0179 C   0  0  0  0  0  0  0  0  0  0  0  0
    6.5074  -19.0484   22.6317 S   0  0  0  0  0  0  0  0  0  0  0  0
    8.4401  -16.5506   23.7467 C   0  0  0  0  0  0  0  0  0  0  0  0
    9.6964  -16.5374   23.9203 O   0  0  0  0  0  0  0  0  0  0  0  0
    7.6488  -16.4132   24.9157 N   0  0  0  0  0  0  0  0  0  0  0  0
    8.2225  -16.2157   26.2411 C   0  0  1  0  0  0  0  0  0  0  0  0
    7.1491  -15.5285   27.0516 C   0  0  0  0  0  0  0  0  0  0  0  0
    7.0348  -14.0920   26.7716 C   0  0  0  0  0  0  0  0  0  0  0  0
    5.7993  -13.4925   26.8498 C   0  0  0  0  0  0  0  0  0  0  0  0
    5.6872  -12.1258   26.5900 C   0  0  0  0  0  0  0  0  0  0  0  0
    6.8220  -11.4305   26.2646 C   0  0  0  0  0  0  0  0  0  0  0  0
    8.0730  -12.0191   26.1815 C   0  0  0  0  0  0  0  0  0  0  0  0
    8.1508  -13.3578   26.4413 C   0  0  0  0  0  0  0  0  0  0  0  0
    8.5727  -17.4900   26.8851 C   0  0  0  0  0  0  0  0  0  0  0  0
    9.5069  -17.5594   27.9411 O   0  0  0  0  0  0  0  0  0  0  0  0
    8.0862  -18.6012   26.5633 O   0  0  0  0  0  0  0  0  0  0  0  0
  2  4  1  0
  2  1  1  1
  3  2  1  0
  4  5  1  6
  4  6  1  0
  6  7  2  0
  8  6  1  0
  8  9  1  0
  9 12  1  0
  9 10  1  6
 11 10  1  0
 12 14  1  0
 13 12  2  0
 14 15  1  0
 15 16  1  1
 16 17  1  0
 17 18  2  0
 18 19  1  0
 20 19  2  0
 21 20  1  0
 22 21  2  0
 22 17  1  0
 23 15  1  0
 24 23  1  0
 25 23  2  0
M  END
$$$$
