VCF.pdb
     RDKit          3D

 25 25  0  0  1  0  0  0  0  0999 V2000
    8.6111  -12.7862   21.1000 C   0  0  0  0  0  0  0  0  0  0  0  0
    7.8282  -13.3656   19.9800 C   0  0  1  0  0  0  0  0  0  0  0  0
    7.9646  -12.5649   18.7059 C   0  0  0  0  0  0  0  0  0  0  0  0
    8.3167  -14.7787   19.6667 C   0  0  2  0  0  0  0  0  0  0  0  0
    7.4447  -15.3590   18.6381 N   0  0  0  0  0  0  0  0  0  0  0  0
    8.1232  -15.5960   20.8850 C   0  0  0  0  0  0  0  0  0  0  0  0
    6.9453  -15.9303   21.2039 O   0  0  0  0  0  0  0  0  0  0  0  0
    9.1575  -16.0490   21.7418 N   0  0  0  0  0  0  0  0  0  0  0  0
    8.8375  -16.8574   22.8907 C   0  0  1  0  0  0  0  0  0  0  0  0
    9.4585  -18.2461   22.6866 C   0  0  0  0  0  0  0  0  0  0  0  0
    9.0192  -19.2495   24.1191 S   0  0  0  0  0  0  0  0  0  0  0  0
    9.4474  -16.2965   24.1207 C   0  0  0  0  0  0  0  0  0  0  0  0
   10.6265  -15.8310   24.1569 O   0  0  0  0  0  0  0  0  0  0  0  0
    8.7238  -16.2541   25.3398 N   0  0  0  0  0  0  0  0  0  0  0  0
    9.3047  -15.7772   26.5888 C   0  0  1  0  0  0  0  0  0  0  0  0
    8.1443  -15.2642   27.4083 C   0  0  0  0  0  0  0  0  0  0  0  0
    7.5086  -14.0702   26.8382 C   0  0  0  0  0  0  0  0  0  0  0  0
    6.2793  -14.1924   26.2331 C   0  0  0  0  0  0  0  0  0  0  0  0
    5.6689  -13.0585   25.6949 C   0  0  0  0  0  0  0  0  0  0  0  0
    6.3242  -11.8593   25.7915 C   0  0  0  0  0  0  0  0  0  0  0  0
    7.5620  -11.7194   26.3972 C   0  0  0  0  0  0  0  0  0  0  0  0
    8.1340  -12.8468   26.9146 C   0  0  0  0  0  0  0  0  0  0  0  0
    9.9801  -16.8533   27.3284 C   0  0  0  0  0  0  0  0  0  0  0  0
    9.9649  -18.1909   26.8775 O   0  0  0  0  0  0  0  0  0  0  0  0
   10.6139  -16.6849   28.3985 O   0  0  0  0  0  0  0  0  0  0  0  0
  2  4  1  0
  2  1  1  1
  3  2  1  0
  4  5  1  6
  4  6  1  0
  6  7  2  0
  8  6  1  0
  8  9  1  0
  9 12  1  0
  9 10  1  6
 11 10  1  0
 12 14  1  0
 13 12  2  0
 14 15  1  0
 15 16  1  1
 16 17  1  0
 17 18  2  0
 18 19  1  0
 20 19  2  0
 21 20  1  0
 22 21  2  0
 22 17  1  0
 23 15  1  0
 24 23  1  0
 25 23  2  0
M  END
$$$$
