VCF.pdb
     RDKit          3D

 25 25  0  0  1  0  0  0  0  0999 V2000
    8.7922  -12.7775   20.2047 C   0  0  0  0  0  0  0  0  0  0  0  0
    7.9324  -13.4735   19.2152 C   0  0  1  0  0  0  0  0  0  0  0  0
    8.2773  -13.1049   17.7910 C   0  0  0  0  0  0  0  0  0  0  0  0
    8.1062  -14.9866   19.3330 C   0  0  2  0  0  0  0  0  0  0  0  0
    7.2068  -15.6381   18.3729 N   0  0  0  0  0  0  0  0  0  0  0  0
    7.6364  -15.3845   20.6787 C   0  0  0  0  0  0  0  0  0  0  0  0
    6.4001  -15.5952   20.8457 O   0  0  0  0  0  0  0  0  0  0  0  0
    8.4617  -15.5564   21.8181 N   0  0  0  0  0  0  0  0  0  0  0  0
    7.9182  -16.1389   23.0186 C   0  0  1  0  0  0  0  0  0  0  0  0
    7.5125  -17.5860   22.7070 C   0  0  0  0  0  0  0  0  0  0  0  0
    6.6336  -18.2221   24.1474 S   0  0  0  0  0  0  0  0  0  0  0  0
    8.9444  -16.2067   24.0871 C   0  0  0  0  0  0  0  0  0  0  0  0
    9.8035  -17.1367   24.1621 O   0  0  0  0  0  0  0  0  0  0  0  0
    9.0136  -15.2126   25.0964 N   0  0  0  0  0  0  0  0  0  0  0  0
    9.0740  -15.5306   26.5177 C   0  0  1  0  0  0  0  0  0  0  0  0
    7.6972  -15.2302   27.0614 C   0  0  0  0  0  0  0  0  0  0  0  0
    7.2792  -13.8379   26.8577 C   0  0  0  0  0  0  0  0  0  0  0  0
    5.9447  -13.5198   26.9568 C   0  0  0  0  0  0  0  0  0  0  0  0
    5.5438  -12.1961   26.7696 C   0  0  0  0  0  0  0  0  0  0  0  0
    6.5038  -11.2589   26.4922 C   0  0  0  0  0  0  0  0  0  0  0  0
    7.8513  -11.5627   26.3889 C   0  0  0  0  0  0  0  0  0  0  0  0
    8.2126  -12.8664   26.5772 C   0  0  0  0  0  0  0  0  0  0  0  0
    9.3874  -16.9476   26.7522 C   0  0  0  0  0  0  0  0  0  0  0  0
    8.5958  -17.9851   26.2139 O   0  0  0  0  0  0  0  0  0  0  0  0
   10.3606  -17.3524   27.4335 O   0  0  0  0  0  0  0  0  0  0  0  0
  2  4  1  0
  2  1  1  1
  3  2  1  0
  4  5  1  6
  4  6  1  0
  6  7  2  0
  8  6  1  0
  8  9  1  0
  9 12  1  0
  9 10  1  6
 11 10  1  0
 12 14  1  0
 13 12  2  0
 14 15  1  0
 15 16  1  6
 16 17  1  0
 17 18  2  0
 18 19  1  0
 20 19  2  0
 21 20  1  0
 22 21  2  0
 22 17  1  0
 23 15  1  0
 24 23  1  0
 25 23  2  0
M  END
$$$$
