FIP.pdb
     RDKit          3D

 27 28  0  0  1  0  0  0  0  0999 V2000
    5.4895  -17.3750   25.5061 N   0  0  0  0  0  0  0  0  0  0  0  0
    6.2917  -16.2289   25.1767 C   0  0  1  0  0  0  0  0  0  0  0  0
    7.1913  -15.7841   26.3042 C   0  0  0  0  0  0  0  0  0  0  0  0
    7.1278  -14.3480   26.5870 C   0  0  0  0  0  0  0  0  0  0  0  0
    8.2563  -13.6078   26.8666 C   0  0  0  0  0  0  0  0  0  0  0  0
    8.2204  -12.2621   27.1343 C   0  0  0  0  0  0  0  0  0  0  0  0
    6.9824  -11.6412   27.1172 C   0  0  0  0  0  0  0  0  0  0  0  0
    5.8483  -12.3568   26.8420 C   0  0  0  0  0  0  0  0  0  0  0  0
    5.9043  -13.7037   26.5763 C   0  0  0  0  0  0  0  0  0  0  0  0
    6.9988  -16.3638   23.8862 C   0  0  0  0  0  0  0  0  0  0  0  0
    7.1339  -17.5252   23.4228 O   0  0  0  0  0  0  0  0  0  0  0  0
    6.2695  -14.3373   20.1320 C   0  0  0  0  0  0  0  0  0  0  0  0
    7.0475  -13.4012   21.0264 C   0  0  0  0  0  0  0  0  0  0  0  0
    8.4020  -14.0414   21.2831 C   0  0  2  0  0  0  0  0  0  0  0  0
    9.1322  -14.0240   19.9742 C   0  0  0  0  0  0  0  0  0  0  0  0
    8.2393  -15.4282   21.8725 C   0  0  2  0  0  0  0  0  0  0  0  0
    7.5236  -15.2847   23.1538 N   0  0  0  0  0  0  0  0  0  0  0  0
    9.5700  -15.9717   22.2067 C   0  0  0  0  0  0  0  0  0  0  0  0
   10.1307  -15.4374   23.2426 O   0  0  0  0  0  0  0  0  0  0  0  0
   10.2830  -16.9799   21.5548 N   0  0  0  0  0  0  0  0  0  0  0  0
    9.9229  -17.8292   20.4166 C   0  0  0  0  0  0  0  0  0  0  0  0
   10.5676  -19.1624   20.7584 C   0  0  0  0  0  0  0  0  0  0  0  0
   11.8839  -18.7377   21.3224 C   0  0  0  0  0  0  0  0  0  0  0  0
   11.6338  -17.4039   21.9328 C   0  0  1  0  0  0  0  0  0  0  0  0
   12.6453  -16.4494   21.4129 C   0  0  0  0  0  0  0  0  0  0  0  0
   12.4307  -15.6504   20.4678 O   0  0  0  0  0  0  0  0  0  0  0  0
   13.8950  -16.4472   22.0109 O   0  0  0  0  0  0  0  0  0  0  0  0
  2  1  1  1
  3  2  1  0
  4  5  2  0
  4  3  1  0
  6  5  1  0
  7  6  2  0
  8  7  1  0
  8  9  2  0
  9  4  1  0
 10  2  1  0
 11 10  2  0
 13 12  1  0
 14 13  1  0
 14 15  1  6
 16 14  1  0
 16 17  1  1
 17 10  1  0
 18 16  1  0
 19 18  2  0
 20 18  1  0
 21 20  1  0
 22 23  1  0
 22 21  1  0
 23 24  1  0
 24 20  1  0
 24 25  1  6
 25 27  1  0
 26 25  2  0
M  END
$$$$
