FIP.pdb
     RDKit          3D

 27 28  0  0  1  0  0  0  0  0999 V2000
    5.3028  -17.7643   25.4254 N   0  0  0  0  0  0  0  0  0  0  0  0
    6.0663  -16.5494   25.3440 C   0  0  1  0  0  0  0  0  0  0  0  0
    6.6308  -16.1072   26.6722 C   0  0  0  0  0  0  0  0  0  0  0  0
    6.8063  -14.6577   26.7930 C   0  0  0  0  0  0  0  0  0  0  0  0
    5.7348  -13.7909   26.8094 C   0  0  0  0  0  0  0  0  0  0  0  0
    5.8756  -12.4302   26.9217 C   0  0  0  0  0  0  0  0  0  0  0  0
    7.1627  -11.9283   27.0218 C   0  0  0  0  0  0  0  0  0  0  0  0
    8.2416  -12.7707   27.0076 C   0  0  0  0  0  0  0  0  0  0  0  0
    8.0806  -14.1305   26.8944 C   0  0  0  0  0  0  0  0  0  0  0  0
    7.0705  -16.5636   24.2601 C   0  0  0  0  0  0  0  0  0  0  0  0
    7.6999  -17.6363   24.0728 O   0  0  0  0  0  0  0  0  0  0  0  0
    7.0391  -12.3096   20.6984 C   0  0  0  0  0  0  0  0  0  0  0  0
    6.9653  -13.7464   21.1583 C   0  0  0  0  0  0  0  0  0  0  0  0
    8.3405  -14.1252   21.6834 C   0  0  2  0  0  0  0  0  0  0  0  0
    9.2827  -14.0074   20.5237 C   0  0  0  0  0  0  0  0  0  0  0  0
    8.3160  -15.5042   22.3119 C   0  0  2  0  0  0  0  0  0  0  0  0
    7.3617  -15.4630   23.4353 N   0  0  0  0  0  0  0  0  0  0  0  0
    9.6360  -15.7886   22.9075 C   0  0  0  0  0  0  0  0  0  0  0  0
    9.9692  -15.0115   23.8864 O   0  0  0  0  0  0  0  0  0  0  0  0
   10.5510  -16.7817   22.5525 N   0  0  0  0  0  0  0  0  0  0  0  0
   10.4535  -17.8759   21.5832 C   0  0  0  0  0  0  0  0  0  0  0  0
   11.2150  -19.0064   22.2554 C   0  0  0  0  0  0  0  0  0  0  0  0
   12.3816  -18.2875   22.8497 C   0  0  0  0  0  0  0  0  0  0  0  0
   11.8850  -16.9160   23.1440 C   0  0  1  0  0  0  0  0  0  0  0  0
   12.8237  -15.9348   22.5434 C   0  0  0  0  0  0  0  0  0  0  0  0
   13.9340  -15.6322   23.0466 O   0  0  0  0  0  0  0  0  0  0  0  0
   12.4444  -15.3229   21.3598 O   0  0  0  0  0  0  0  0  0  0  0  0
  2  1  1  1
  3  2  1  0
  4  5  2  0
  4  3  1  0
  6  5  1  0
  7  6  2  0
  8  7  1  0
  8  9  2  0
  9  4  1  0
 10  2  1  0
 11 10  2  0
 13 12  1  0
 14 13  1  0
 14 15  1  6
 16 14  1  0
 16 17  1  1
 17 10  1  0
 18 16  1  0
 19 18  2  0
 20 18  1  0
 21 20  1  0
 22 23  1  0
 22 21  1  0
 23 24  1  0
 24 20  1  0
 24 25  1  6
 25 27  1  0
 26 25  2  0
M  END
$$$$
