FIP.pdb
     RDKit          3D

 27 28  0  0  1  0  0  0  0  0999 V2000
    4.9794  -19.4643   24.9849 N   0  0  0  0  0  0  0  0  0  0  0  0
    6.0497  -18.6440   25.4821 C   0  0  1  0  0  0  0  0  0  0  0  0
    7.3715  -19.3684   25.5615 C   0  0  0  0  0  0  0  0  0  0  0  0
    7.5552  -20.1412   26.7925 C   0  0  0  0  0  0  0  0  0  0  0  0
    7.4330  -21.5138   26.8185 C   0  0  0  0  0  0  0  0  0  0  0  0
    7.6008  -22.2579   27.9596 C   0  0  0  0  0  0  0  0  0  0  0  0
    7.9063  -21.5764   29.1261 C   0  0  0  0  0  0  0  0  0  0  0  0
    8.0325  -20.2133   29.1236 C   0  0  0  0  0  0  0  0  0  0  0  0
    7.8609  -19.4855   27.9709 C   0  0  0  0  0  0  0  0  0  0  0  0
    6.1432  -17.3342   24.8044 C   0  0  0  0  0  0  0  0  0  0  0  0
    5.7018  -17.2616   23.6289 O   0  0  0  0  0  0  0  0  0  0  0  0
    6.6369  -12.4341   27.4695 C   0  0  0  0  0  0  0  0  0  0  0  0
    6.1631  -13.4342   26.4415 C   0  0  0  0  0  0  0  0  0  0  0  0
    7.3811  -13.8820   25.6501 C   0  0  2  0  0  0  0  0  0  0  0  0
    7.9635  -12.6453   25.0352 C   0  0  0  0  0  0  0  0  0  0  0  0
    7.0050  -14.9469   24.6392 C   0  0  2  0  0  0  0  0  0  0  0  0
    6.6898  -16.1777   25.3877 N   0  0  0  0  0  0  0  0  0  0  0  0
    8.1830  -15.2642   23.8089 C   0  0  0  0  0  0  0  0  0  0  0  0
    8.9873  -16.1396   24.3187 O   0  0  0  0  0  0  0  0  0  0  0  0
    8.5261  -14.7472   22.5581 N   0  0  0  0  0  0  0  0  0  0  0  0
    7.9973  -13.6011   21.8142 C   0  0  0  0  0  0  0  0  0  0  0  0
    8.0455  -14.0706   20.3694 C   0  0  0  0  0  0  0  0  0  0  0  0
    9.3542  -14.7888   20.3177 C   0  0  0  0  0  0  0  0  0  0  0  0
    9.5644  -15.3147   21.6936 C   0  0  1  0  0  0  0  0  0  0  0  0
   10.9131  -14.9007   22.1566 C   0  0  0  0  0  0  0  0  0  0  0  0
   11.9802  -15.2276   21.5802 O   0  0  0  0  0  0  0  0  0  0  0  0
   10.9889  -14.1084   23.2905 O   0  0  0  0  0  0  0  0  0  0  0  0
  2  1  1  6
  3  2  1  0
  4  5  2  0
  4  3  1  0
  6  5  1  0
  7  6  2  0
  8  7  1  0
  8  9  2  0
  9  4  1  0
 10  2  1  0
 11 10  2  0
 13 12  1  0
 14 13  1  0
 14 15  1  6
 16 14  1  0
 16 17  1  1
 17 10  1  0
 18 16  1  0
 19 18  2  0
 20 18  1  0
 21 20  1  0
 22 23  1  0
 22 21  1  0
 23 24  1  0
 24 20  1  0
 24 25  1  1
 25 27  1  0
 26 25  2  0
M  END
$$$$
