FIP.pdb
     RDKit          3D

 27 28  0  0  1  0  0  0  0  0999 V2000
    6.8127  -19.1396   27.6778 N   0  0  0  0  0  0  0  0  0  0  0  0
    7.5654  -17.9242   27.5299 C   0  0  1  0  0  0  0  0  0  0  0  0
    9.0433  -18.1013   27.7805 C   0  0  0  0  0  0  0  0  0  0  0  0
    9.7452  -16.8590   28.1128 C   0  0  0  0  0  0  0  0  0  0  0  0
   10.8963  -16.4733   27.4602 C   0  0  0  0  0  0  0  0  0  0  0  0
   11.5701  -15.3143   27.7548 C   0  0  0  0  0  0  0  0  0  0  0  0
   11.0507  -14.5118   28.7571 C   0  0  0  0  0  0  0  0  0  0  0  0
    9.9086  -14.8752   29.4185 C   0  0  0  0  0  0  0  0  0  0  0  0
    9.2479  -16.0396   29.1095 C   0  0  0  0  0  0  0  0  0  0  0  0
    7.2699  -17.2048   26.2735 C   0  0  0  0  0  0  0  0  0  0  0  0
    6.9207  -17.8964   25.2828 O   0  0  0  0  0  0  0  0  0  0  0  0
    6.0332  -11.7611   26.3112 C   0  0  0  0  0  0  0  0  0  0  0  0
    5.9166  -13.2360   26.0070 C   0  0  0  0  0  0  0  0  0  0  0  0
    7.1104  -13.6168   25.1468 C   0  0  2  0  0  0  0  0  0  0  0  0
    7.0396  -12.7568   23.9213 C   0  0  0  0  0  0  0  0  0  0  0  0
    7.1081  -15.1032   24.8500 C   0  0  2  0  0  0  0  0  0  0  0  0
    7.3549  -15.8098   26.1205 N   0  0  0  0  0  0  0  0  0  0  0  0
    8.2525  -15.4242   23.9752 C   0  0  0  0  0  0  0  0  0  0  0  0
    9.3849  -15.5524   24.5869 O   0  0  0  0  0  0  0  0  0  0  0  0
    8.2602  -15.6091   22.5912 N   0  0  0  0  0  0  0  0  0  0  0  0
    7.2302  -15.3512   21.5817 C   0  0  0  0  0  0  0  0  0  0  0  0
    7.4184  -16.4896   20.5925 C   0  0  0  0  0  0  0  0  0  0  0  0
    8.9064  -16.5903   20.5112 C   0  0  0  0  0  0  0  0  0  0  0  0
    9.4001  -16.1451   21.8424 C   0  0  1  0  0  0  0  0  0  0  0  0
   10.4301  -15.0954   21.6373 C   0  0  0  0  0  0  0  0  0  0  0  0
   10.2493  -13.8796   21.8956 O   0  0  0  0  0  0  0  0  0  0  0  0
   11.6582  -15.4893   21.1315 O   0  0  0  0  0  0  0  0  0  0  0  0
  2  1  1  6
  3  2  1  0
  4  5  2  0
  4  3  1  0
  6  5  1  0
  7  6  2  0
  8  7  1  0
  8  9  2  0
  9  4  1  0
 10  2  1  0
 11 10  2  0
 13 12  1  0
 14 13  1  0
 14 15  1  6
 16 14  1  0
 16 17  1  1
 17 10  1  0
 18 16  1  0
 19 18  2  0
 20 18  1  0
 21 20  1  0
 22 23  1  0
 22 21  1  0
 23 24  1  0
 24 20  1  0
 24 25  1  6
 25 27  1  0
 26 25  2  0
M  END
$$$$
