FIP.pdb
     RDKit          3D

 27 28  0  0  1  0  0  0  0  0999 V2000
    6.9216  -19.2011   27.4505 N   0  0  0  0  0  0  0  0  0  0  0  0
    7.6111  -17.9400   27.4410 C   0  0  1  0  0  0  0  0  0  0  0  0
    9.0732  -18.0547   27.7980 C   0  0  0  0  0  0  0  0  0  0  0  0
    9.6957  -16.7844   28.1791 C   0  0  0  0  0  0  0  0  0  0  0  0
   10.5866  -16.1311   27.3550 C   0  0  0  0  0  0  0  0  0  0  0  0
   11.1815  -14.9408   27.6913 C   0  0  0  0  0  0  0  0  0  0  0  0
   10.8563  -14.3901   28.9199 C   0  0  0  0  0  0  0  0  0  0  0  0
    9.9739  -15.0215   29.7545 C   0  0  0  0  0  0  0  0  0  0  0  0
    9.3884  -16.2130   29.4002 C   0  0  0  0  0  0  0  0  0  0  0  0
    7.3715  -17.1539   26.2130 C   0  0  0  0  0  0  0  0  0  0  0  0
    7.2960  -17.7880   25.1294 O   0  0  0  0  0  0  0  0  0  0  0  0
    6.3046  -11.6920   26.7107 C   0  0  0  0  0  0  0  0  0  0  0  0
    6.0340  -13.1063   26.2549 C   0  0  0  0  0  0  0  0  0  0  0  0
    7.1640  -13.5049   25.3197 C   0  0  2  0  0  0  0  0  0  0  0  0
    7.0881  -12.5763   24.1456 C   0  0  0  0  0  0  0  0  0  0  0  0
    7.0623  -14.9703   24.9459 C   0  0  2  0  0  0  0  0  0  0  0  0
    7.2246  -15.7561   26.1832 N   0  0  0  0  0  0  0  0  0  0  0  0
    8.2027  -15.3299   24.0811 C   0  0  0  0  0  0  0  0  0  0  0  0
    9.3105  -15.5568   24.7091 O   0  0  0  0  0  0  0  0  0  0  0  0
    8.2293  -15.4586   22.6910 N   0  0  0  0  0  0  0  0  0  0  0  0
    7.2416  -15.0915   21.6731 C   0  0  0  0  0  0  0  0  0  0  0  0
    7.3763  -16.1989   20.6409 C   0  0  0  0  0  0  0  0  0  0  0  0
    8.8559  -16.3957   20.5848 C   0  0  0  0  0  0  0  0  0  0  0  0
    9.3479  -16.0389   21.9430 C   0  0  1  0  0  0  0  0  0  0  0  0
   10.4494  -15.0532   21.8026 C   0  0  0  0  0  0  0  0  0  0  0  0
   10.3575  -13.8492   22.1485 O   0  0  0  0  0  0  0  0  0  0  0  0
   11.6435  -15.4961   21.2575 O   0  0  0  0  0  0  0  0  0  0  0  0
  2  1  1  6
  3  2  1  0
  4  5  2  0
  4  3  1  0
  6  5  1  0
  7  6  2  0
  8  7  1  0
  8  9  2  0
  9  4  1  0
 10  2  1  0
 11 10  2  0
 13 12  1  0
 14 13  1  0
 14 15  1  6
 16 14  1  0
 16 17  1  1
 17 10  1  0
 18 16  1  0
 19 18  2  0
 20 18  1  0
 21 20  1  0
 22 23  1  0
 22 21  1  0
 23 24  1  0
 24 20  1  0
 24 25  1  6
 25 27  1  0
 26 25  2  0
M  END
$$$$
