FIP.pdb
     RDKit          3D

 27 28  0  0  1  0  0  0  0  0999 V2000
    5.3831  -17.7630   25.8602 N   0  0  0  0  0  0  0  0  0  0  0  0
    6.1024  -16.5509   25.5787 C   0  0  1  0  0  0  0  0  0  0  0  0
    6.9878  -16.1028   26.7161 C   0  0  0  0  0  0  0  0  0  0  0  0
    7.2654  -14.6642   26.7250 C   0  0  0  0  0  0  0  0  0  0  0  0
    8.5513  -14.1682   26.7138 C   0  0  0  0  0  0  0  0  0  0  0  0
    8.8346  -12.8252   26.7217 C   0  0  0  0  0  0  0  0  0  0  0  0
    7.7633  -11.9475   26.7420 C   0  0  0  0  0  0  0  0  0  0  0  0
    6.4778  -12.4179   26.7534 C   0  0  0  0  0  0  0  0  0  0  0  0
    6.2140  -13.7664   26.7451 C   0  0  0  0  0  0  0  0  0  0  0  0
    6.7969  -16.5747   24.2747 C   0  0  0  0  0  0  0  0  0  0  0  0
    7.2919  -17.6706   23.9063 O   0  0  0  0  0  0  0  0  0  0  0  0
    7.8545  -12.6949   19.5506 C   0  0  0  0  0  0  0  0  0  0  0  0
    8.0074  -14.1027   20.0764 C   0  0  0  0  0  0  0  0  0  0  0  0
    7.4314  -14.1260   21.4828 C   0  0  2  0  0  0  0  0  0  0  0  0
    8.1665  -13.0746   22.2579 C   0  0  0  0  0  0  0  0  0  0  0  0
    7.5363  -15.5129   22.0849 C   0  0  2  0  0  0  0  0  0  0  0  0
    6.9361  -15.4590   23.4308 N   0  0  0  0  0  0  0  0  0  0  0  0
    8.9596  -15.8475   22.2856 C   0  0  0  0  0  0  0  0  0  0  0  0
    9.5049  -15.3017   23.3238 O   0  0  0  0  0  0  0  0  0  0  0  0
    9.7739  -16.6724   21.5072 N   0  0  0  0  0  0  0  0  0  0  0  0
    9.4932  -17.4124   20.2743 C   0  0  0  0  0  0  0  0  0  0  0  0
   10.3017  -18.6885   20.4415 C   0  0  0  0  0  0  0  0  0  0  0  0
   11.5696  -18.1785   21.0444 C   0  0  0  0  0  0  0  0  0  0  0  0
   11.1743  -16.9711   21.8189 C   0  0  1  0  0  0  0  0  0  0  0  0
   12.0512  -15.8429   21.4151 C   0  0  0  0  0  0  0  0  0  0  0  0
   11.7615  -15.0230   20.5088 O   0  0  0  0  0  0  0  0  0  0  0  0
   13.2563  -15.6941   22.0821 O   0  0  0  0  0  0  0  0  0  0  0  0
  2  1  1  1
  3  2  1  0
  4  5  2  0
  4  3  1  0
  6  5  1  0
  7  6  2  0
  8  7  1  0
  8  9  2  0
  9  4  1  0
 10  2  1  0
 11 10  2  0
 13 12  1  0
 14 13  1  0
 14 15  1  1
 16 14  1  0
 16 17  1  1
 17 10  1  0
 18 16  1  0
 19 18  2  0
 20 18  1  0
 21 20  1  0
 22 23  1  0
 22 21  1  0
 23 24  1  0
 24 20  1  0
 24 25  1  6
 25 27  1  0
 26 25  2  0
M  END
$$$$
