YVT.pdb
     RDKit          3D

 27 27  0  0  1  0  0  0  0  0999 V2000
    7.1321  -14.2662   15.6090 O   0  0  0  0  0  0  0  0  0  0  0  0
    7.5789  -14.1718   16.9253 C   0  0  0  0  0  0  0  0  0  0  0  0
    8.3971  -15.1971   17.3880 C   0  0  0  0  0  0  0  0  0  0  0  0
    8.8597  -15.1295   18.7023 C   0  0  0  0  0  0  0  0  0  0  0  0
    8.4914  -14.0577   19.4861 C   0  0  0  0  0  0  0  0  0  0  0  0
    8.9876  -13.9994   20.8723 C   0  0  0  0  0  0  0  0  0  0  0  0
    8.3518  -15.0555   21.7490 C   0  0  2  0  0  0  0  0  0  0  0  0
    6.9293  -15.0914   21.6589 N   0  0  0  0  0  0  0  0  0  0  0  0
    8.7723  -14.7787   23.1478 C   0  0  0  0  0  0  0  0  0  0  0  0
    9.9987  -14.7166   23.3861 O   0  0  0  0  0  0  0  0  0  0  0  0
    7.6812  -13.0407   19.0306 C   0  0  0  0  0  0  0  0  0  0  0  0
    7.2153  -13.1036   17.7156 C   0  0  0  0  0  0  0  0  0  0  0  0
    7.6147  -13.0811   27.6241 C   0  0  0  0  0  0  0  0  0  0  0  0
    7.1771  -13.5154   26.2553 C   0  0  1  0  0  0  0  0  0  0  0  0
    6.8235  -12.3181   25.3887 C   0  0  0  0  0  0  0  0  0  0  0  0
    8.2238  -14.3854   25.5808 C   0  0  2  0  0  0  0  0  0  0  0  0
    7.8585  -14.5839   24.2125 N   0  0  0  0  0  0  0  0  0  0  0  0
    8.4246  -15.6619   26.3121 C   0  0  0  0  0  0  0  0  0  0  0  0
    7.4455  -16.3212   26.7474 O   0  0  0  0  0  0  0  0  0  0  0  0
   11.1365  -19.5873   27.2866 C   0  0  0  0  0  0  0  0  0  0  0  0
   11.0134  -18.2183   26.6146 C   0  0  1  0  0  0  0  0  0  0  0  0
   10.6745  -18.3977   25.2734 O   0  0  0  0  0  0  0  0  0  0  0  0
    9.8572  -17.4728   27.2613 C   0  0  2  0  0  0  0  0  0  0  0  0
    9.7146  -16.2112   26.5626 N   0  0  0  0  0  0  0  0  0  0  0  0
   10.0727  -17.2749   28.7183 C   0  0  0  0  0  0  0  0  0  0  0  0
    9.6864  -18.3105   29.5565 O   0  0  0  0  0  0  0  0  0  0  0  0
   10.5798  -16.2176   29.1482 O   0  0  0  0  0  0  0  0  0  0  0  0
  2  1  1  0
  3  2  2  0
  4  3  1  0
  5  4  2  0
  5 11  1  0
  6  5  1  0
  7  9  1  0
  7  6  1  0
  7  8  1  1
  9 17  1  0
 10  9  2  0
 11 12  2  0
 12  2  1  0
 14 15  1  6
 14 13  1  0
 16 14  1  0
 16 17  1  6
 18 19  2  0
 18 16  1  0
 21 20  1  1
 21 22  1  0
 23 24  1  6
 23 21  1  0
 24 18  1  0
 25 23  1  0
 26 25  1  0
 27 25  2  0
M  END
$$$$
