YVT.pdb
     RDKit          3D

 27 27  0  0  1  0  0  0  0  0999 V2000
    7.3502  -14.0221   15.8354 O   0  0  0  0  0  0  0  0  0  0  0  0
    7.7715  -13.9501   17.1615 C   0  0  0  0  0  0  0  0  0  0  0  0
    7.1829  -12.9728   17.9574 C   0  0  0  0  0  0  0  0  0  0  0  0
    7.5851  -12.8769   19.2897 C   0  0  0  0  0  0  0  0  0  0  0  0
    8.5428  -13.7474   19.7629 C   0  0  0  0  0  0  0  0  0  0  0  0
    8.9578  -13.6345   21.1722 C   0  0  0  0  0  0  0  0  0  0  0  0
    8.4587  -14.7930   22.0069 C   0  0  2  0  0  0  0  0  0  0  0  0
    7.0404  -14.9388   21.9909 N   0  0  0  0  0  0  0  0  0  0  0  0
    8.9381  -14.5735   23.3970 C   0  0  0  0  0  0  0  0  0  0  0  0
   10.1736  -14.5593   23.5917 O   0  0  0  0  0  0  0  0  0  0  0  0
    9.1275  -14.7163   18.9771 C   0  0  0  0  0  0  0  0  0  0  0  0
    8.7285  -14.8165   17.6426 C   0  0  0  0  0  0  0  0  0  0  0  0
    7.4725  -11.9505   26.0059 C   0  0  0  0  0  0  0  0  0  0  0  0
    7.5037  -13.3341   26.5879 C   0  0  1  0  0  0  0  0  0  0  0  0
    6.1157  -13.9529   26.6018 C   0  0  0  0  0  0  0  0  0  0  0  0
    8.4910  -14.2282   25.8578 C   0  0  2  0  0  0  0  0  0  0  0  0
    8.0700  -14.3818   24.4998 N   0  0  0  0  0  0  0  0  0  0  0  0
    8.6675  -15.5275   26.5543 C   0  0  0  0  0  0  0  0  0  0  0  0
    7.7083  -16.3319   26.6801 O   0  0  0  0  0  0  0  0  0  0  0  0
   11.3003  -19.3593   27.6766 C   0  0  0  0  0  0  0  0  0  0  0  0
   11.1633  -17.9744   27.0411 C   0  0  1  0  0  0  0  0  0  0  0  0
   10.7678  -18.1202   25.7113 O   0  0  0  0  0  0  0  0  0  0  0  0
   10.0420  -17.2335   27.7515 C   0  0  2  0  0  0  0  0  0  0  0  0
    9.9110  -15.9386   27.1141 N   0  0  0  0  0  0  0  0  0  0  0  0
   10.2998  -17.1068   29.2095 C   0  0  0  0  0  0  0  0  0  0  0  0
   10.2186  -18.2675   29.9647 O   0  0  0  0  0  0  0  0  0  0  0  0
   10.5754  -15.9972   29.7124 O   0  0  0  0  0  0  0  0  0  0  0  0
  2  1  1  0
  3  2  2  0
  4  3  1  0
  5  4  2  0
  5 11  1  0
  6  5  1  0
  7  9  1  0
  7  6  1  0
  7  8  1  1
  9 17  1  0
 10  9  2  0
 11 12  2  0
 12  2  1  0
 14 15  1  6
 14 13  1  0
 16 14  1  0
 16 17  1  6
 18 19  2  0
 18 16  1  0
 21 20  1  1
 21 22  1  0
 23 24  1  6
 23 21  1  0
 24 18  1  0
 25 23  1  0
 26 25  1  0
 27 25  2  0
M  END
$$$$
