YVT.pdb
     RDKit          3D

 27 27  0  0  1  0  0  0  0  0999 V2000
    8.1186  -19.9932   28.7265 O   0  0  0  0  0  0  0  0  0  0  0  0
    7.8002  -19.6419   27.4163 C   0  0  0  0  0  0  0  0  0  0  0  0
    6.5032  -19.9084   26.9901 C   0  0  0  0  0  0  0  0  0  0  0  0
    6.1555  -19.5675   25.6829 C   0  0  0  0  0  0  0  0  0  0  0  0
    7.1030  -18.9842   24.8699 C   0  0  0  0  0  0  0  0  0  0  0  0
    6.7216  -18.6295   23.4915 C   0  0  0  0  0  0  0  0  0  0  0  0
    6.0666  -17.2682   23.4149 C   0  0  2  0  0  0  0  0  0  0  0  0
    5.6205  -16.9222   22.1055 N   0  0  0  0  0  0  0  0  0  0  0  0
    7.0593  -16.2735   23.9001 C   0  0  0  0  0  0  0  0  0  0  0  0
    8.0674  -16.0625   23.1903 O   0  0  0  0  0  0  0  0  0  0  0  0
    8.3883  -18.7190   25.2891 C   0  0  0  0  0  0  0  0  0  0  0  0
    8.7415  -19.0584   26.5970 C   0  0  0  0  0  0  0  0  0  0  0  0
    6.5415  -12.6842   24.7621 C   0  0  0  0  0  0  0  0  0  0  0  0
    7.1443  -13.3279   25.9770 C   0  0  1  0  0  0  0  0  0  0  0  0
    6.0938  -13.5618   27.0500 C   0  0  0  0  0  0  0  0  0  0  0  0
    7.8644  -14.6193   25.6294 C   0  0  2  0  0  0  0  0  0  0  0  0
    6.9183  -15.5609   25.1163 N   0  0  0  0  0  0  0  0  0  0  0  0
    8.6277  -15.1466   26.7887 C   0  0  0  0  0  0  0  0  0  0  0  0
    8.0386  -15.5432   27.8272 O   0  0  0  0  0  0  0  0  0  0  0  0
   11.6830  -17.4464   26.3435 C   0  0  0  0  0  0  0  0  0  0  0  0
   12.0377  -16.4123   27.4139 C   0  0  1  0  0  0  0  0  0  0  0  0
   12.7595  -15.3746   26.8238 O   0  0  0  0  0  0  0  0  0  0  0  0
   10.7456  -15.8043   27.9351 C   0  0  2  0  0  0  0  0  0  0  0  0
   10.0492  -15.2353   26.7988 N   0  0  0  0  0  0  0  0  0  0  0  0
   10.9985  -14.7900   28.9913 C   0  0  0  0  0  0  0  0  0  0  0  0
   11.5108  -15.2512   30.1951 O   0  0  0  0  0  0  0  0  0  0  0  0
   10.7544  -13.5827   28.7849 O   0  0  0  0  0  0  0  0  0  0  0  0
  2  1  1  0
  3  2  2  0
  4  3  1  0
  5  4  2  0
  5 11  1  0
  6  5  1  0
  7  9  1  0
  7  6  1  0
  7  8  1  6
  9 17  1  0
 10  9  2  0
 11 12  2  0
 12  2  1  0
 14 15  1  1
 14 13  1  0
 16 14  1  0
 16 17  1  1
 18 19  2  0
 18 16  1  0
 21 20  1  6
 21 22  1  0
 23 24  1  6
 23 21  1  0
 24 18  1  0
 25 23  1  0
 26 25  1  0
 27 25  2  0
M  END
$$$$
