YVT.pdb
     RDKit          3D

 27 27  0  0  1  0  0  0  0  0999 V2000
   11.8796  -16.3974   32.5482 O   0  0  0  0  0  0  0  0  0  0  0  0
   11.3228  -16.4964   31.2748 C   0  0  0  0  0  0  0  0  0  0  0  0
   11.4094  -17.7329   30.6437 C   0  0  0  0  0  0  0  0  0  0  0  0
   10.8606  -17.8620   29.3677 C   0  0  0  0  0  0  0  0  0  0  0  0
   10.2583  -16.7678   28.7856 C   0  0  0  0  0  0  0  0  0  0  0  0
    9.6830  -16.9188   27.4375 C   0  0  0  0  0  0  0  0  0  0  0  0
    8.1807  -17.0909   27.4760 C   0  0  2  0  0  0  0  0  0  0  0  0
    7.7658  -18.4373   27.6958 N   0  0  0  0  0  0  0  0  0  0  0  0
    7.6466  -16.5925   26.1812 C   0  0  0  0  0  0  0  0  0  0  0  0
    7.2358  -17.4382   25.3562 O   0  0  0  0  0  0  0  0  0  0  0  0
   10.1711  -15.5418   29.4081 C   0  0  0  0  0  0  0  0  0  0  0  0
   10.7189  -15.4073   30.6856 C   0  0  0  0  0  0  0  0  0  0  0  0
    7.8836  -12.4662   25.4232 C   0  0  0  0  0  0  0  0  0  0  0  0
    6.8110  -13.2408   24.7138 C   0  0  1  0  0  0  0  0  0  0  0  0
    6.4928  -12.6223   23.3626 C   0  0  0  0  0  0  0  0  0  0  0  0
    7.1801  -14.7070   24.5680 C   0  0  2  0  0  0  0  0  0  0  0  0
    7.5818  -15.2188   25.8416 N   0  0  0  0  0  0  0  0  0  0  0  0
    8.2106  -14.9075   23.5181 C   0  0  0  0  0  0  0  0  0  0  0  0
    9.4364  -14.8140   23.7857 O   0  0  0  0  0  0  0  0  0  0  0  0
    8.9756  -17.2382   19.2242 C   0  0  0  0  0  0  0  0  0  0  0  0
    8.0240  -16.4429   20.1202 C   0  0  1  0  0  0  0  0  0  0  0  0
    7.0253  -17.2941   20.5934 O   0  0  0  0  0  0  0  0  0  0  0  0
    8.8023  -15.9647   21.3353 C   0  0  2  0  0  0  0  0  0  0  0  0
    7.8832  -15.2130   22.1660 N   0  0  0  0  0  0  0  0  0  0  0  0
    9.9863  -15.1538   20.9495 C   0  0  0  0  0  0  0  0  0  0  0  0
    9.7392  -13.9170   20.3718 O   0  0  0  0  0  0  0  0  0  0  0  0
   11.1425  -15.5838   21.1448 O   0  0  0  0  0  0  0  0  0  0  0  0
  2  1  1  0
  3  2  2  0
  4  3  1  0
  5  4  2  0
  5 11  1  0
  6  5  1  0
  7  9  1  0
  7  6  1  0
  7  8  1  6
  9 17  1  0
 10  9  2  0
 11 12  2  0
 12  2  1  0
 14 15  1  6
 14 13  1  0
 16 14  1  0
 16 17  1  1
 18 19  2  0
 18 16  1  0
 21 20  1  6
 21 22  1  0
 23 24  1  1
 23 21  1  0
 24 18  1  0
 25 23  1  0
 26 25  1  0
 27 25  2  0
M  END
$$$$
