YVT.pdb
     RDKit          3D

 27 27  0  0  1  0  0  0  0  0999 V2000
    6.6181  -10.4062   27.3492 O   0  0  0  0  0  0  0  0  0  0  0  0
    6.8381  -11.7634   27.1238 C   0  0  0  0  0  0  0  0  0  0  0  0
    8.1611  -12.1753   27.0012 C   0  0  0  0  0  0  0  0  0  0  0  0
    8.4121  -13.5287   26.7751 C   0  0  0  0  0  0  0  0  0  0  0  0
    7.3480  -14.3994   26.6826 C   0  0  0  0  0  0  0  0  0  0  0  0
    7.6282  -15.8261   26.4436 C   0  0  0  0  0  0  0  0  0  0  0  0
    6.6457  -16.4441   25.4737 C   0  0  2  0  0  0  0  0  0  0  0  0
    6.0401  -17.6403   25.9591 N   0  0  0  0  0  0  0  0  0  0  0  0
    7.3837  -16.7160   24.2120 C   0  0  0  0  0  0  0  0  0  0  0  0
    7.8352  -17.8695   24.0382 O   0  0  0  0  0  0  0  0  0  0  0  0
    6.0367  -13.9944   26.8036 C   0  0  0  0  0  0  0  0  0  0  0  0
    5.7799  -12.6405   27.0300 C   0  0  0  0  0  0  0  0  0  0  0  0
    8.9443  -14.9503   19.8078 C   0  0  0  0  0  0  0  0  0  0  0  0
    8.1818  -14.7685   21.0882 C   0  0  1  0  0  0  0  0  0  0  0  0
    6.6982  -14.5789   20.8189 C   0  0  0  0  0  0  0  0  0  0  0  0
    8.4176  -15.9199   22.0505 C   0  0  2  0  0  0  0  0  0  0  0  0
    7.5970  -15.7399   23.2078 N   0  0  0  0  0  0  0  0  0  0  0  0
    9.8570  -16.0647   22.3845 C   0  0  0  0  0  0  0  0  0  0  0  0
   10.4969  -15.1228   22.9195 O   0  0  0  0  0  0  0  0  0  0  0  0
   11.5575  -18.7149   24.5008 C   0  0  0  0  0  0  0  0  0  0  0  0
   12.2028  -18.7217   23.1136 C   0  0  1  0  0  0  0  0  0  0  0  0
   11.5357  -19.6423   22.3052 O   0  0  0  0  0  0  0  0  0  0  0  0
   11.9923  -17.3543   22.4839 C   0  0  2  0  0  0  0  0  0  0  0  0
   10.5916  -17.2571   22.1254 N   0  0  0  0  0  0  0  0  0  0  0  0
   12.8780  -17.1443   21.3092 C   0  0  0  0  0  0  0  0  0  0  0  0
   14.1940  -16.7918   21.5701 O   0  0  0  0  0  0  0  0  0  0  0  0
   12.4385  -17.2837   20.1485 O   0  0  0  0  0  0  0  0  0  0  0  0
  2  1  1  0
  3  2  2  0
  4  3  1  0
  5  4  2  0
  5 11  1  0
  6  5  1  0
  7  9  1  0
  7  6  1  0
  7  8  1  1
  9 17  1  0
 10  9  2  0
 11 12  2  0
 12  2  1  0
 14 15  1  6
 14 13  1  0
 16 14  1  0
 16 17  1  1
 18 19  2  0
 18 16  1  0
 21 20  1  1
 21 22  1  0
 23 24  1  6
 23 21  1  0
 24 18  1  0
 25 23  1  0
 26 25  1  0
 27 25  2  0
M  END
$$$$
