YVT.pdb
     RDKit          3D

 27 27  0  0  1  0  0  0  0  0999 V2000
   10.3386  -14.2870   30.7802 O   0  0  0  0  0  0  0  0  0  0  0  0
   10.0260  -14.5419   29.4465 C   0  0  0  0  0  0  0  0  0  0  0  0
   10.2305  -15.8393   28.9885 C   0  0  0  0  0  0  0  0  0  0  0  0
    9.9263  -16.1242   27.6572 C   0  0  0  0  0  0  0  0  0  0  0  0
    9.4386  -15.1172   26.8529 C   0  0  0  0  0  0  0  0  0  0  0  0
    9.1217  -15.4326   25.4489 C   0  0  0  0  0  0  0  0  0  0  0  0
    7.6311  -15.4507   25.1923 C   0  0  2  0  0  0  0  0  0  0  0  0
    6.9371  -16.4549   25.9292 N   0  0  0  0  0  0  0  0  0  0  0  0
    7.4376  -15.6569   23.7327 C   0  0  0  0  0  0  0  0  0  0  0  0
    6.9814  -16.7588   23.3555 O   0  0  0  0  0  0  0  0  0  0  0  0
    9.2350  -13.8313   27.3037 C   0  0  0  0  0  0  0  0  0  0  0  0
    9.5379  -13.5408   28.6357 C   0  0  0  0  0  0  0  0  0  0  0  0
    8.6063  -12.5736   21.0720 C   0  0  0  0  0  0  0  0  0  0  0  0
    7.4880  -13.4953   20.6798 C   0  0  1  0  0  0  0  0  0  0  0  0
    7.3994  -13.6356   19.1691 C   0  0  0  0  0  0  0  0  0  0  0  0
    7.6203  -14.8539   21.3459 C   0  0  2  0  0  0  0  0  0  0  0  0
    7.7425  -14.6739   22.7593 N   0  0  0  0  0  0  0  0  0  0  0  0
    8.7416  -15.6371   20.7682 C   0  0  0  0  0  0  0  0  0  0  0  0
    9.9201  -15.4849   21.1816 O   0  0  0  0  0  0  0  0  0  0  0  0
   10.0240  -19.7090   18.2840 C   0  0  0  0  0  0  0  0  0  0  0  0
    8.9607  -18.6478   18.5737 C   0  0  1  0  0  0  0  0  0  0  0  0
    7.9494  -19.2155   19.3490 O   0  0  0  0  0  0  0  0  0  0  0  0
    9.5964  -17.5548   19.4174 C   0  0  2  0  0  0  0  0  0  0  0  0
    8.5581  -16.5928   19.7282 N   0  0  0  0  0  0  0  0  0  0  0  0
   10.7469  -16.9195   18.7238 C   0  0  0  0  0  0  0  0  0  0  0  0
   12.0155  -17.2664   19.1649 O   0  0  0  0  0  0  0  0  0  0  0  0
   10.5591  -16.1129   17.7888 O   0  0  0  0  0  0  0  0  0  0  0  0
  2  1  1  0
  3  2  2  0
  4  3  1  0
  5  4  2  0
  5 11  1  0
  6  5  1  0
  7  9  1  0
  7  6  1  0
  7  8  1  1
  9 17  1  0
 10  9  2  0
 11 12  2  0
 12  2  1  0
 14 15  1  6
 14 13  1  0
 16 14  1  0
 16 17  1  1
 18 19  2  0
 18 16  1  0
 21 20  1  1
 21 22  1  0
 23 24  1  6
 23 21  1  0
 24 18  1  0
 25 23  1  0
 26 25  1  0
 27 25  2  0
M  END
$$$$
