YVT.pdb
     RDKit          3D

 27 27  0  0  1  0  0  0  0  0999 V2000
    6.6434  -10.6911   27.3071 O   0  0  0  0  0  0  0  0  0  0  0  0
    6.7696  -12.0590   27.0743 C   0  0  0  0  0  0  0  0  0  0  0  0
    8.0489  -12.5978   27.1633 C   0  0  0  0  0  0  0  0  0  0  0  0
    8.2059  -13.9650   26.9352 C   0  0  0  0  0  0  0  0  0  0  0  0
    7.0962  -14.7238   26.6326 C   0  0  0  0  0  0  0  0  0  0  0  0
    7.2771  -16.1666   26.3941 C   0  0  0  0  0  0  0  0  0  0  0  0
    6.4111  -16.6687   25.2601 C   0  0  2  0  0  0  0  0  0  0  0  0
    5.7640  -17.9077   25.5415 N   0  0  0  0  0  0  0  0  0  0  0  0
    7.2848  -16.8040   24.0648 C   0  0  0  0  0  0  0  0  0  0  0  0
    7.8893  -17.8873   23.9046 O   0  0  0  0  0  0  0  0  0  0  0  0
    5.8279  -14.1930   26.5437 C   0  0  0  0  0  0  0  0  0  0  0  0
    5.6652  -12.8248   26.7713 C   0  0  0  0  0  0  0  0  0  0  0  0
    6.6479  -14.6195   20.6258 C   0  0  0  0  0  0  0  0  0  0  0  0
    8.0813  -14.6597   21.0705 C   0  0  1  0  0  0  0  0  0  0  0  0
    8.4864  -13.3514   21.7291 C   0  0  0  0  0  0  0  0  0  0  0  0
    8.3512  -15.8384   21.9898 C   0  0  2  0  0  0  0  0  0  0  0  0
    7.4630  -15.7740   23.1088 N   0  0  0  0  0  0  0  0  0  0  0  0
    9.7788  -15.8990   22.3932 C   0  0  0  0  0  0  0  0  0  0  0  0
   10.2762  -15.0274   23.1519 O   0  0  0  0  0  0  0  0  0  0  0  0
   11.6371  -18.3673   24.3657 C   0  0  0  0  0  0  0  0  0  0  0  0
   12.3085  -18.3160   22.9919 C   0  0  1  0  0  0  0  0  0  0  0  0
   11.7026  -19.2518   22.1532 O   0  0  0  0  0  0  0  0  0  0  0  0
   12.0441  -16.9483   22.3834 C   0  0  2  0  0  0  0  0  0  0  0  0
   10.6598  -16.9287   21.9550 N   0  0  0  0  0  0  0  0  0  0  0  0
   12.9728  -16.6533   21.2615 C   0  0  0  0  0  0  0  0  0  0  0  0
   14.2979  -16.4089   21.5909 O   0  0  0  0  0  0  0  0  0  0  0  0
   12.5595  -16.6312   20.0831 O   0  0  0  0  0  0  0  0  0  0  0  0
  2  1  1  0
  3  2  2  0
  4  3  1  0
  5  4  2  0
  5 11  1  0
  6  5  1  0
  7  9  1  0
  7  6  1  0
  7  8  1  1
  9 17  1  0
 10  9  2  0
 11 12  2  0
 12  2  1  0
 14 15  1  1
 14 13  1  0
 16 14  1  0
 16 17  1  1
 18 19  2  0
 18 16  1  0
 21 20  1  1
 21 22  1  0
 23 24  1  6
 23 21  1  0
 24 18  1  0
 25 23  1  0
 26 25  1  0
 27 25  2  0
M  END
$$$$
