YVT.pdb
     RDKit          3D

 27 27  0  0  1  0  0  0  0  0999 V2000
    6.1626  -10.4742   28.4718 O   0  0  0  0  0  0  0  0  0  0  0  0
    6.6522  -11.5456   27.7277 C   0  0  0  0  0  0  0  0  0  0  0  0
    5.9929  -11.8406   26.5390 C   0  0  0  0  0  0  0  0  0  0  0  0
    6.4608  -12.9083   25.7728 C   0  0  0  0  0  0  0  0  0  0  0  0
    7.5501  -13.6245   26.2194 C   0  0  0  0  0  0  0  0  0  0  0  0
    8.0333  -14.7496   25.3997 C   0  0  0  0  0  0  0  0  0  0  0  0
    6.8981  -15.5072   24.7475 C   0  0  2  0  0  0  0  0  0  0  0  0
    6.3747  -16.5586   25.5559 N   0  0  0  0  0  0  0  0  0  0  0  0
    7.4123  -16.0522   23.4634 C   0  0  0  0  0  0  0  0  0  0  0  0
    7.5391  -17.2928   23.3663 O   0  0  0  0  0  0  0  0  0  0  0  0
    8.2052  -13.3347   27.3962 C   0  0  0  0  0  0  0  0  0  0  0  0
    7.7408  -12.2667   28.1670 C   0  0  0  0  0  0  0  0  0  0  0  0
    8.5592  -15.1643   18.7023 C   0  0  0  0  0  0  0  0  0  0  0  0
    8.1185  -14.6681   20.0490 C   0  0  1  0  0  0  0  0  0  0  0  0
    6.6792  -14.1820   20.0086 C   0  0  0  0  0  0  0  0  0  0  0  0
    8.3068  -15.7232   21.1254 C   0  0  2  0  0  0  0  0  0  0  0  0
    7.7617  -15.2406   22.3563 N   0  0  0  0  0  0  0  0  0  0  0  0
    9.7299  -16.1286   21.2479 C   0  0  0  0  0  0  0  0  0  0  0  0
   10.6075  -15.3101   21.6256 O   0  0  0  0  0  0  0  0  0  0  0  0
   11.0115  -19.0474   23.2827 C   0  0  0  0  0  0  0  0  0  0  0  0
   11.5328  -19.2021   21.8527 C   0  0  1  0  0  0  0  0  0  0  0  0
   10.6313  -19.9743   21.1199 O   0  0  0  0  0  0  0  0  0  0  0  0
   11.5586  -17.8275   21.2040 C   0  0  2  0  0  0  0  0  0  0  0  0
   10.1837  -17.4456   20.9512 N   0  0  0  0  0  0  0  0  0  0  0  0
   12.3711  -17.8184   19.9598 C   0  0  0  0  0  0  0  0  0  0  0  0
   13.7330  -17.5959   20.1008 O   0  0  0  0  0  0  0  0  0  0  0  0
   11.8335  -18.0046   18.8480 O   0  0  0  0  0  0  0  0  0  0  0  0
  2  1  1  0
  3  2  2  0
  4  3  1  0
  5  4  2  0
  5 11  1  0
  6  5  1  0
  7  9  1  0
  7  6  1  0
  7  8  1  1
  9 17  1  0
 10  9  2  0
 11 12  2  0
 12  2  1  0
 14 15  1  6
 14 13  1  0
 16 14  1  0
 16 17  1  1
 18 19  2  0
 18 16  1  0
 21 20  1  1
 21 22  1  0
 23 24  1  6
 23 21  1  0
 24 18  1  0
 25 23  1  0
 26 25  1  0
 27 25  2  0
M  END
$$$$
