DED.pdb
     RDKit          3D

 26 25  0  0  1  0  0  0  0  0999 V2000
   15.5178  -19.5594   15.8771 N   0  0  0  0  0  0  0  0  0  0  0  0
   16.2552  -18.6099   16.6755 C   0  0  1  0  0  0  0  0  0  0  0  0
   16.6047  -17.4544   15.7651 C   0  0  0  0  0  0  0  0  0  0  0  0
   17.3879  -17.8381   14.5863 C   0  0  0  0  0  0  0  0  0  0  0  0
   17.0018  -17.6634   13.4094 O   0  0  0  0  0  0  0  0  0  0  0  0
   15.4659  -18.1561   17.8235 C   0  0  0  0  0  0  0  0  0  0  0  0
   15.8247  -17.2675   18.6299 O   0  0  0  0  0  0  0  0  0  0  0  0
   18.6462  -18.4376   14.7543 O   0  0  0  0  0  0  0  0  0  0  0  0
   14.1773  -18.7560   18.0715 N   0  0  0  0  0  0  0  0  0  0  0  0
   13.4212  -18.3818   19.2490 C   0  0  1  0  0  0  0  0  0  0  0  0
   11.9548  -18.3867   18.8827 C   0  0  0  0  0  0  0  0  0  0  0  0
   11.7316  -19.3094   17.7360 C   0  0  0  0  0  0  0  0  0  0  0  0
   10.3278  -19.3213   17.2629 C   0  0  0  0  0  0  0  0  0  0  0  0
   10.0131  -19.4591   16.0627 O   0  0  0  0  0  0  0  0  0  0  0  0
   13.7050  -19.4056   20.2942 C   0  0  0  0  0  0  0  0  0  0  0  0
   13.0525  -20.4785   20.3583 O   0  0  0  0  0  0  0  0  0  0  0  0
    9.3236  -19.1722   18.1997 O   0  0  0  0  0  0  0  0  0  0  0  0
   14.7421  -19.1897   21.2645 N   0  0  0  0  0  0  0  0  0  0  0  0
   14.9123  -20.1572   22.3291 C   0  0  1  0  0  0  0  0  0  0  0  0
   16.2728  -20.8086   22.2730 C   0  0  0  0  0  0  0  0  0  0  0  0
   17.3662  -19.8320   22.1900 C   0  0  0  0  0  0  0  0  0  0  0  0
   17.2383  -18.5894   22.3289 O   0  0  0  0  0  0  0  0  0  0  0  0
   14.6347  -19.5379   23.6397 C   0  0  0  0  0  0  0  0  0  0  0  0
   14.3747  -18.1803   23.7617 O   0  0  0  0  0  0  0  0  0  0  0  0
   18.6518  -20.3033   21.9382 O   0  0  0  0  0  0  0  0  0  0  0  0
   14.6352  -20.2593   24.6611 O   0  0  0  0  0  0  0  0  0  0  0  0
  2  1  1  6
  2  3  1  0
  3  4  1  0
  4  8  1  0
  5  4  2  0
  6  2  1  0
  6  9  1  0
  7  6  2  0
 10  9  1  0
 11 12  1  0
 10 11  1  6
 12 13  1  0
 13 17  1  0
 14 13  2  0
 15 16  2  0
 15 10  1  0
 18 15  1  0
 19 18  1  0
 19 20  1  1
 21 20  1  0
 21 22  2  0
 23 19  1  0
 24 23  1  0
 25 21  1  0
 26 23  2  0
M  END
$$$$
