DED.pdb
     RDKit          3D

 26 25  0  0  1  0  0  0  0  0999 V2000
   12.2052  -14.1827   17.4133 N   0  0  0  0  0  0  0  0  0  0  0  0
   12.9006  -15.1982   18.1669 C   0  0  1  0  0  0  0  0  0  0  0  0
   13.9898  -14.4941   18.9440 C   0  0  0  0  0  0  0  0  0  0  0  0
   15.2343  -14.3059   18.1919 C   0  0  0  0  0  0  0  0  0  0  0  0
   15.6004  -15.0526   17.2573 O   0  0  0  0  0  0  0  0  0  0  0  0
   11.9881  -15.9099   19.0655 C   0  0  0  0  0  0  0  0  0  0  0  0
   10.9188  -15.4390   19.5165 O   0  0  0  0  0  0  0  0  0  0  0  0
   16.0850  -13.2366   18.5142 O   0  0  0  0  0  0  0  0  0  0  0  0
   12.3156  -17.2525   19.4805 N   0  0  0  0  0  0  0  0  0  0  0  0
   11.3658  -18.0191   20.2605 C   0  0  1  0  0  0  0  0  0  0  0  0
   11.0115  -19.2608   19.4749 C   0  0  0  0  0  0  0  0  0  0  0  0
   12.2587  -19.9427   19.0330 C   0  0  0  0  0  0  0  0  0  0  0  0
   12.0031  -21.1594   18.2274 C   0  0  0  0  0  0  0  0  0  0  0  0
   12.3283  -21.2639   17.0266 O   0  0  0  0  0  0  0  0  0  0  0  0
   12.0414  -18.3812   21.5386 C   0  0  0  0  0  0  0  0  0  0  0  0
   13.2898  -18.3038   21.6676 O   0  0  0  0  0  0  0  0  0  0  0  0
   11.3742  -22.2259   18.8402 O   0  0  0  0  0  0  0  0  0  0  0  0
   11.2750  -18.8324   22.6668 N   0  0  0  0  0  0  0  0  0  0  0  0
   11.9308  -18.9473   23.9534 C   0  0  1  0  0  0  0  0  0  0  0  0
   10.9334  -18.9372   25.0862 C   0  0  0  0  0  0  0  0  0  0  0  0
   11.5603  -19.1569   26.3958 C   0  0  0  0  0  0  0  0  0  0  0  0
   11.9020  -18.2495   27.1955 O   0  0  0  0  0  0  0  0  0  0  0  0
   12.8082  -20.1337   23.9822 C   0  0  0  0  0  0  0  0  0  0  0  0
   13.9159  -20.1987   24.8156 O   0  0  0  0  0  0  0  0  0  0  0  0
   11.8018  -20.4677   26.7982 O   0  0  0  0  0  0  0  0  0  0  0  0
   12.5417  -21.1006   23.2353 O   0  0  0  0  0  0  0  0  0  0  0  0
  2  1  1  1
  2  3  1  0
  3  4  1  0
  4  8  1  0
  5  4  2  0
  6  2  1  0
  6  9  1  0
  7  6  2  0
 10  9  1  0
 11 12  1  0
 10 11  1  6
 12 13  1  0
 13 17  1  0
 14 13  2  0
 15 16  2  0
 15 10  1  0
 18 15  1  0
 19 18  1  0
 19 20  1  1
 21 20  1  0
 21 22  2  0
 23 19  1  0
 24 23  1  0
 25 21  1  0
 26 23  2  0
M  END
$$$$
