DED.pdb
     RDKit          3D

 26 25  0  0  1  0  0  0  0  0999 V2000
    9.1153  -18.6022   17.4486 N   0  0  0  0  0  0  0  0  0  0  0  0
   10.2119  -17.6702   17.5570 C   0  0  1  0  0  0  0  0  0  0  0  0
   10.0361  -16.6602   16.4457 C   0  0  0  0  0  0  0  0  0  0  0  0
   10.2012  -17.2177   15.0996 C   0  0  0  0  0  0  0  0  0  0  0  0
    9.2927  -17.2369   14.2399 O   0  0  0  0  0  0  0  0  0  0  0  0
   10.2237  -17.0152   18.8675 C   0  0  0  0  0  0  0  0  0  0  0  0
    9.6303  -15.9454   19.1361 O   0  0  0  0  0  0  0  0  0  0  0  0
   11.4365  -17.7687   14.7235 O   0  0  0  0  0  0  0  0  0  0  0  0
   10.9632  -17.6200   19.9487 N   0  0  0  0  0  0  0  0  0  0  0  0
   10.9425  -17.0152   21.2648 C   0  0  1  0  0  0  0  0  0  0  0  0
    9.7530  -17.5699   22.0144 C   0  0  0  0  0  0  0  0  0  0  0  0
    9.9572  -19.0227   22.2664 C   0  0  0  0  0  0  0  0  0  0  0  0
    8.8183  -19.6575   22.9696 C   0  0  0  0  0  0  0  0  0  0  0  0
    8.7909  -19.8327   24.2053 O   0  0  0  0  0  0  0  0  0  0  0  0
   12.2144  -17.3971   21.9412 C   0  0  0  0  0  0  0  0  0  0  0  0
   12.7633  -18.5086   21.7307 O   0  0  0  0  0  0  0  0  0  0  0  0
    7.7378  -20.0735   22.2160 O   0  0  0  0  0  0  0  0  0  0  0  0
   12.8514  -16.4953   22.8603 N   0  0  0  0  0  0  0  0  0  0  0  0
   14.2819  -16.6022   23.0626 C   0  0  1  0  0  0  0  0  0  0  0  0
   15.0072  -15.3851   22.5422 C   0  0  0  0  0  0  0  0  0  0  0  0
   16.4665  -15.5024   22.6567 C   0  0  0  0  0  0  0  0  0  0  0  0
   17.0786  -16.5040   23.1059 O   0  0  0  0  0  0  0  0  0  0  0  0
   14.5843  -16.8783   24.4805 C   0  0  0  0  0  0  0  0  0  0  0  0
   13.5804  -16.9625   25.4348 O   0  0  0  0  0  0  0  0  0  0  0  0
   17.2478  -14.4284   22.2390 O   0  0  0  0  0  0  0  0  0  0  0  0
   15.7758  -17.0394   24.8239 O   0  0  0  0  0  0  0  0  0  0  0  0
  2  1  1  1
  2  3  1  0
  3  4  1  0
  4  8  1  0
  5  4  2  0
  6  2  1  0
  6  9  1  0
  7  6  2  0
 10  9  1  0
 11 12  1  0
 10 11  1  1
 12 13  1  0
 13 17  1  0
 14 13  2  0
 15 16  2  0
 15 10  1  0
 18 15  1  0
 19 18  1  0
 19 20  1  1
 21 20  1  0
 21 22  2  0
 23 19  1  0
 24 23  1  0
 25 21  1  0
 26 23  2  0
M  END
$$$$
