DED.pdb
     RDKit          3D

 26 25  0  0  1  0  0  0  0  0999 V2000
    6.9408  -18.5307   18.5979 N   0  0  0  0  0  0  0  0  0  0  0  0
    7.9597  -18.7475   19.5968 C   0  0  1  0  0  0  0  0  0  0  0  0
    8.8834  -19.8134   19.0520 C   0  0  0  0  0  0  0  0  0  0  0  0
    8.2041  -21.0565   18.6739 C   0  0  0  0  0  0  0  0  0  0  0  0
    7.0771  -21.3899   19.1024 O   0  0  0  0  0  0  0  0  0  0  0  0
    8.6925  -17.5116   19.8838 C   0  0  0  0  0  0  0  0  0  0  0  0
    9.7547  -17.1639   19.3186 O   0  0  0  0  0  0  0  0  0  0  0  0
    8.8271  -21.9442   17.7823 O   0  0  0  0  0  0  0  0  0  0  0  0
    8.1806  -16.6076   20.8851 N   0  0  0  0  0  0  0  0  0  0  0  0
    8.8761  -15.3673   21.1614 C   0  0  1  0  0  0  0  0  0  0  0  0
    7.8393  -14.3029   21.4383 C   0  0  0  0  0  0  0  0  0  0  0  0
    6.9822  -14.1184   20.2353 C   0  0  0  0  0  0  0  0  0  0  0  0
    7.5859  -13.2221   19.2220 C   0  0  0  0  0  0  0  0  0  0  0  0
    7.8960  -12.0361   19.4578 O   0  0  0  0  0  0  0  0  0  0  0  0
    9.7239  -15.6005   22.3646 C   0  0  0  0  0  0  0  0  0  0  0  0
   10.4171  -14.6807   22.8691 O   0  0  0  0  0  0  0  0  0  0  0  0
    7.8138  -13.7291   17.9573 O   0  0  0  0  0  0  0  0  0  0  0  0
    9.7707  -16.8956   22.9845 N   0  0  0  0  0  0  0  0  0  0  0  0
   10.7114  -17.1179   24.0634 C   0  0  1  0  0  0  0  0  0  0  0  0
   10.0227  -17.1215   25.4066 C   0  0  0  0  0  0  0  0  0  0  0  0
   10.8815  -16.6171   26.4856 C   0  0  0  0  0  0  0  0  0  0  0  0
   12.1000  -16.3325   26.3672 O   0  0  0  0  0  0  0  0  0  0  0  0
   11.4916  -18.3476   23.8239 C   0  0  0  0  0  0  0  0  0  0  0  0
   11.6878  -19.2903   24.8233 O   0  0  0  0  0  0  0  0  0  0  0  0
   10.3170  -16.4342   27.7450 O   0  0  0  0  0  0  0  0  0  0  0  0
   11.9850  -18.5391   22.6910 O   0  0  0  0  0  0  0  0  0  0  0  0
  2  1  1  6
  2  3  1  0
  3  4  1  0
  4  8  1  0
  5  4  2  0
  6  2  1  0
  6  9  1  0
  7  6  2  0
 10  9  1  0
 11 12  1  0
 10 11  1  1
 12 13  1  0
 13 17  1  0
 14 13  2  0
 15 16  2  0
 15 10  1  0
 18 15  1  0
 19 18  1  0
 19 20  1  1
 21 20  1  0
 21 22  2  0
 23 19  1  0
 24 23  1  0
 25 21  1  0
 26 23  2  0
M  END
$$$$
