DED.pdb
     RDKit          3D

 26 25  0  0  1  0  0  0  0  0999 V2000
    8.5873  -12.4387   18.2932 N   0  0  0  0  0  0  0  0  0  0  0  0
    8.1834  -13.7078   18.8493 C   0  0  1  0  0  0  0  0  0  0  0  0
    7.2678  -14.3555   17.8352 C   0  0  0  0  0  0  0  0  0  0  0  0
    7.9009  -14.6154   16.5384 C   0  0  0  0  0  0  0  0  0  0  0  0
    9.1055  -14.3819   16.2947 O   0  0  0  0  0  0  0  0  0  0  0  0
    9.3436  -14.5573   19.1301 C   0  0  0  0  0  0  0  0  0  0  0  0
    9.2813  -15.7610   19.4703 O   0  0  0  0  0  0  0  0  0  0  0  0
    7.1394  -15.1565   15.4905 O   0  0  0  0  0  0  0  0  0  0  0  0
   10.6685  -13.9974   19.0158 N   0  0  0  0  0  0  0  0  0  0  0  0
   11.8286  -14.8372   19.2334 C   0  0  1  0  0  0  0  0  0  0  0  0
   13.0302  -14.1343   18.6446 C   0  0  0  0  0  0  0  0  0  0  0  0
   14.2300  -15.0055   18.7764 C   0  0  0  0  0  0  0  0  0  0  0  0
   15.4117  -14.4826   18.0519 C   0  0  0  0  0  0  0  0  0  0  0  0
   16.0273  -13.4546   18.4021 O   0  0  0  0  0  0  0  0  0  0  0  0
   11.9828  -14.9960   20.7071 C   0  0  0  0  0  0  0  0  0  0  0  0
   11.7184  -14.0575   21.5011 O   0  0  0  0  0  0  0  0  0  0  0  0
   15.8482  -15.1700   16.9360 O   0  0  0  0  0  0  0  0  0  0  0  0
   12.4422  -16.2385   21.2631 N   0  0  0  0  0  0  0  0  0  0  0  0
   12.6349  -16.3316   22.6958 C   0  0  1  0  0  0  0  0  0  0  0  0
   11.7702  -17.4102   23.3018 C   0  0  0  0  0  0  0  0  0  0  0  0
   11.9966  -17.5754   24.7433 C   0  0  0  0  0  0  0  0  0  0  0  0
   11.4966  -18.4830   25.4546 O   0  0  0  0  0  0  0  0  0  0  0  0
   14.0652  -16.5067   23.0147 C   0  0  0  0  0  0  0  0  0  0  0  0
   14.6702  -15.8071   24.0493 O   0  0  0  0  0  0  0  0  0  0  0  0
   12.8281  -16.6634   25.3876 O   0  0  0  0  0  0  0  0  0  0  0  0
   14.7428  -17.3062   22.3328 O   0  0  0  0  0  0  0  0  0  0  0  0
  2  1  1  6
  2  3  1  0
  3  4  1  0
  4  8  1  0
  5  4  2  0
  6  2  1  0
  6  9  1  0
  7  6  2  0
 10  9  1  0
 11 12  1  0
 10 11  1  1
 12 13  1  0
 13 17  1  0
 14 13  2  0
 15 16  2  0
 15 10  1  0
 18 15  1  0
 19 18  1  0
 19 20  1  6
 21 20  1  0
 21 22  2  0
 23 19  1  0
 24 23  1  0
 25 21  1  0
 26 23  2  0
M  END
$$$$
