LGV.pdb
     RDKit          3D

 20 19  0  0  1  0  0  0  0  0999 V2000
    6.8102  -12.2297   19.5124 C   0  0  0  0  0  0  0  0  0  0  0  0
    7.6092  -13.4776   19.8245 C   0  0  1  0  0  0  0  0  0  0  0  0
    9.0491  -13.2578   19.4635 C   0  0  0  0  0  0  0  0  0  0  0  0
    7.3832  -13.9508   21.2129 C   0  0  0  0  0  0  0  0  0  0  0  0
    8.1912  -15.1614   21.5928 C   0  0  2  0  0  0  0  0  0  0  0  0
    7.6266  -16.2992   20.9034 N   0  0  0  0  0  0  0  0  0  0  0  0
    8.1926  -15.3731   23.0756 C   0  0  0  0  0  0  0  0  0  0  0  0
    8.7040  -14.5154   23.8371 O   0  0  0  0  0  0  0  0  0  0  0  0
    7.6254  -16.5326   23.6697 N   0  0  0  0  0  0  0  0  0  0  0  0
    7.6012  -16.8062   25.0877 C   0  0  0  0  0  0  0  0  0  0  0  0
    8.8671  -16.6719   25.7860 C   0  0  0  0  0  0  0  0  0  0  0  0
    9.9233  -16.8888   25.1353 O   0  0  0  0  0  0  0  0  0  0  0  0
    9.4229  -14.5643   29.4860 C   0  0  0  0  0  0  0  0  0  0  0  0
   10.3992  -14.7504   28.3498 C   0  0  2  0  0  0  0  0  0  0  0  0
   10.1836  -13.6780   27.3171 C   0  0  0  0  0  0  0  0  0  0  0  0
   10.2646  -16.1356   27.7502 C   0  0  2  0  0  0  0  0  0  0  0  0
    8.9750  -16.3185   27.1384 N   0  0  0  0  0  0  0  0  0  0  0  0
   10.5464  -17.1618   28.7829 C   0  0  0  0  0  0  0  0  0  0  0  0
    9.5873  -17.8739   29.1753 O   0  0  0  0  0  0  0  0  0  0  0  0
   11.7885  -17.3850   29.3394 O   0  0  0  0  0  0  0  0  0  0  0  0
  2  1  1  1
  3  2  1  0
  4  2  1  0
  5  4  1  0
  5  6  1  6
  7  5  1  0
  7  8  2  0
  9 10  1  0
  9  7  1  0
 10 11  1  0
 11 17  1  0
 11 12  2  0
 14 13  1  1
 14 15  1  0
 16 14  1  0
 16 17  1  1
 18 16  1  0
 18 20  1  0
 19 18  2  0
M  END
$$$$
