LGV.pdb
     RDKit          3D

 20 19  0  0  1  0  0  0  0  0999 V2000
    6.0911  -12.1520   26.9215 C   0  0  0  0  0  0  0  0  0  0  0  0
    6.0886  -12.8047   25.5551 C   0  0  1  0  0  0  0  0  0  0  0  0
    5.2023  -12.0274   24.6266 C   0  0  0  0  0  0  0  0  0  0  0  0
    7.4635  -13.0400   25.0478 C   0  0  0  0  0  0  0  0  0  0  0  0
    7.5609  -14.1169   24.0022 C   0  0  2  0  0  0  0  0  0  0  0  0
    6.5306  -15.0917   24.2795 N   0  0  0  0  0  0  0  0  0  0  0  0
    8.9181  -14.7506   23.9965 C   0  0  0  0  0  0  0  0  0  0  0  0
    9.9446  -14.0471   23.8283 O   0  0  0  0  0  0  0  0  0  0  0  0
    9.0953  -16.1488   24.1779 N   0  0  0  0  0  0  0  0  0  0  0  0
   10.3676  -16.8315   24.1412 C   0  0  0  0  0  0  0  0  0  0  0  0
   11.1094  -16.8680   25.3889 C   0  0  0  0  0  0  0  0  0  0  0  0
   12.2680  -17.3612   25.3698 O   0  0  0  0  0  0  0  0  0  0  0  0
    9.7625  -15.3382   29.3076 C   0  0  0  0  0  0  0  0  0  0  0  0
   11.1611  -15.3413   28.7396 C   0  0  2  0  0  0  0  0  0  0  0  0
   11.4200  -14.0426   28.0261 C   0  0  0  0  0  0  0  0  0  0  0  0
   11.3633  -16.5303   27.8220 C   0  0  2  0  0  0  0  0  0  0  0  0
   10.6062  -16.3887   26.6065 N   0  0  0  0  0  0  0  0  0  0  0  0
   11.0379  -17.7847   28.5428 C   0  0  0  0  0  0  0  0  0  0  0  0
    9.9951  -18.3996   28.2030 O   0  0  0  0  0  0  0  0  0  0  0  0
   11.8025  -18.3191   29.5588 O   0  0  0  0  0  0  0  0  0  0  0  0
  2  1  1  1
  3  2  1  0
  4  2  1  0
  5  4  1  0
  5  6  1  1
  7  5  1  0
  7  8  2  0
  9 10  1  0
  9  7  1  0
 10 11  1  0
 11 17  1  0
 11 12  2  0
 14 13  1  6
 14 15  1  0
 16 14  1  0
 16 17  1  6
 18 16  1  0
 18 20  1  0
 19 18  2  0
M  END
$$$$
