LGV.pdb
     RDKit          3D

 20 19  0  0  1  0  0  0  0  0999 V2000
    7.9984  -19.9968   27.6229 C   0  0  0  0  0  0  0  0  0  0  0  0
    7.6847  -20.1329   26.1478 C   0  0  1  0  0  0  0  0  0  0  0  0
    6.2797  -20.6311   25.9749 C   0  0  0  0  0  0  0  0  0  0  0  0
    8.0001  -18.8934   25.3947 C   0  0  0  0  0  0  0  0  0  0  0  0
    7.6829  -18.9645   23.9260 C   0  0  2  0  0  0  0  0  0  0  0  0
    8.5091  -20.0002   23.3487 N   0  0  0  0  0  0  0  0  0  0  0  0
    7.9170  -17.6471   23.2528 C   0  0  0  0  0  0  0  0  0  0  0  0
    9.0691  -17.3287   22.8680 O   0  0  0  0  0  0  0  0  0  0  0  0
    6.8631  -16.7211   23.0267 N   0  0  0  0  0  0  0  0  0  0  0  0
    7.0456  -15.3350   22.6640 C   0  0  0  0  0  0  0  0  0  0  0  0
    7.7155  -14.5006   23.6455 C   0  0  0  0  0  0  0  0  0  0  0  0
    8.8944  -14.1332   23.3980 O   0  0  0  0  0  0  0  0  0  0  0  0
    5.8192  -12.5842   27.0130 C   0  0  0  0  0  0  0  0  0  0  0  0
    7.0672  -12.1258   26.2981 C   0  0  2  0  0  0  0  0  0  0  0  0
    6.6937  -11.2051   25.1687 C   0  0  0  0  0  0  0  0  0  0  0  0
    7.8687  -13.3139   25.8058 C   0  0  2  0  0  0  0  0  0  0  0  0
    7.1241  -14.0872   24.8475 N   0  0  0  0  0  0  0  0  0  0  0  0
    8.3187  -14.1313   26.9584 C   0  0  0  0  0  0  0  0  0  0  0  0
    7.8769  -15.3049   27.0497 O   0  0  0  0  0  0  0  0  0  0  0  0
    9.1878  -13.6890   27.9338 O   0  0  0  0  0  0  0  0  0  0  0  0
  2  1  1  1
  3  2  1  0
  4  2  1  0
  5  4  1  0
  5  6  1  6
  7  5  1  0
  7  8  2  0
  9 10  1  0
  9  7  1  0
 10 11  1  0
 11 17  1  0
 11 12  2  0
 14 13  1  6
 14 15  1  0
 16 14  1  0
 16 17  1  6
 18 16  1  0
 18 20  1  0
 19 18  2  0
M  END
$$$$
