LGV.pdb
     RDKit          3D

 20 19  0  0  1  0  0  0  0  0999 V2000
    9.8538  -12.8874   28.1002 C   0  0  0  0  0  0  0  0  0  0  0  0
    9.8005  -14.3733   27.8133 C   0  0  1  0  0  0  0  0  0  0  0  0
   10.1512  -15.1396   29.0550 C   0  0  0  0  0  0  0  0  0  0  0  0
    8.5191  -14.7725   27.1795 C   0  0  0  0  0  0  0  0  0  0  0  0
    8.4495  -16.2226   26.7855 C   0  0  2  0  0  0  0  0  0  0  0  0
    9.7266  -16.5832   26.2135 N   0  0  0  0  0  0  0  0  0  0  0  0
    7.3332  -16.4722   25.8184 C   0  0  0  0  0  0  0  0  0  0  0  0
    6.2059  -15.9513   26.0046 O   0  0  0  0  0  0  0  0  0  0  0  0
    7.5024  -17.2941   24.6716 N   0  0  0  0  0  0  0  0  0  0  0  0
    6.5285  -17.4497   23.6164 C   0  0  0  0  0  0  0  0  0  0  0  0
    6.7259  -16.6248   22.4379 C   0  0  0  0  0  0  0  0  0  0  0  0
    5.8457  -16.6647   21.5382 O   0  0  0  0  0  0  0  0  0  0  0  0
    6.8294  -13.1333   22.0443 C   0  0  0  0  0  0  0  0  0  0  0  0
    8.0439  -13.5710   21.2620 C   0  0  2  0  0  0  0  0  0  0  0  0
    8.1174  -12.8031   19.9706 C   0  0  0  0  0  0  0  0  0  0  0  0
    8.0134  -15.0666   21.0192 C   0  0  2  0  0  0  0  0  0  0  0  0
    7.8389  -15.7935   22.2488 N   0  0  0  0  0  0  0  0  0  0  0  0
    9.2348  -15.4840   20.2891 C   0  0  0  0  0  0  0  0  0  0  0  0
   10.1822  -15.9635   20.9625 O   0  0  0  0  0  0  0  0  0  0  0  0
    9.3986  -15.3806   18.9235 O   0  0  0  0  0  0  0  0  0  0  0  0
  2  1  1  1
  3  2  1  0
  4  2  1  0
  5  4  1  0
  5  6  1  6
  7  5  1  0
  7  8  2  0
  9 10  1  0
  9  7  1  0
 10 11  1  0
 11 17  1  0
 11 12  2  0
 14 13  1  6
 14 15  1  0
 16 14  1  0
 16 17  1  1
 18 16  1  0
 18 20  1  0
 19 18  2  0
M  END
$$$$
