LGV.pdb
     RDKit          3D

 20 19  0  0  1  0  0  0  0  0999 V2000
    7.3547  -11.5833   26.2688 C   0  0  0  0  0  0  0  0  0  0  0  0
    6.7785  -12.9241   25.8648 C   0  0  1  0  0  0  0  0  0  0  0  0
    5.4521  -13.1261   26.5369 C   0  0  0  0  0  0  0  0  0  0  0  0
    6.7604  -13.1014   24.3913 C   0  0  0  0  0  0  0  0  0  0  0  0
    6.7523  -14.5367   23.9412 C   0  0  2  0  0  0  0  0  0  0  0  0
    6.1022  -15.3153   24.9707 N   0  0  0  0  0  0  0  0  0  0  0  0
    8.1407  -15.0348   23.6812 C   0  0  0  0  0  0  0  0  0  0  0  0
    8.9050  -14.4053   22.9090 O   0  0  0  0  0  0  0  0  0  0  0  0
    8.6399  -16.2192   24.2875 N   0  0  0  0  0  0  0  0  0  0  0  0
    9.9930  -16.7070   24.1557 C   0  0  0  0  0  0  0  0  0  0  0  0
   10.8078  -16.6631   25.3567 C   0  0  0  0  0  0  0  0  0  0  0  0
   12.0214  -16.9840   25.2557 O   0  0  0  0  0  0  0  0  0  0  0  0
    9.6244  -15.0946   29.3158 C   0  0  0  0  0  0  0  0  0  0  0  0
   10.9482  -15.0086   28.5955 C   0  0  2  0  0  0  0  0  0  0  0  0
   10.9853  -13.7632   27.7527 C   0  0  0  0  0  0  0  0  0  0  0  0
   11.1857  -16.2518   27.7622 C   0  0  2  0  0  0  0  0  0  0  0  0
   10.3174  -16.2874   26.6152 N   0  0  0  0  0  0  0  0  0  0  0  0
   11.0463  -17.4610   28.6093 C   0  0  0  0  0  0  0  0  0  0  0  0
   10.0485  -18.2002   28.4118 O   0  0  0  0  0  0  0  0  0  0  0  0
   11.9373  -17.8263   29.5967 O   0  0  0  0  0  0  0  0  0  0  0  0
  2  1  1  6
  3  2  1  0
  4  2  1  0
  5  4  1  0
  5  6  1  1
  7  5  1  0
  7  8  2  0
  9 10  1  0
  9  7  1  0
 10 11  1  0
 11 17  1  0
 11 12  2  0
 14 13  1  6
 14 15  1  0
 16 14  1  0
 16 17  1  6
 18 16  1  0
 18 20  1  0
 19 18  2  0
M  END
$$$$
