RVG.pdb
     RDKit          3D

 23 22  0  0  1  0  0  0  0  0999 V2000
   18.3937  -16.8914  -16.9737 N   0  0  0  0  0  0  0  0  0  0  0  0
   18.3840  -18.2952  -17.1463 C   0  0  0  0  0  0  0  0  0  0  0  0
   17.6316  -18.8928  -18.0354 N   0  0  0  0  0  0  0  0  0  0  0  0
   19.1959  -19.1606  -16.3612 N   0  0  0  0  0  0  0  0  0  0  0  0
   19.4522  -18.8933  -14.9603 C   0  0  0  0  0  0  0  0  0  0  0  0
   20.3224  -19.9968  -14.4254 C   0  0  0  0  0  0  0  0  0  0  0  0
   21.7439  -19.5577  -14.1822 C   0  0  0  0  0  0  0  0  0  0  0  0
   22.6675  -19.9737  -15.3057 C   0  0  2  0  0  0  0  0  0  0  0  0
   21.9143  -20.9384  -16.1171 N   0  0  0  0  0  0  0  0  0  0  0  0
   23.8393  -20.6834  -14.6719 C   0  0  0  0  0  0  0  0  0  0  0  0
   23.7551  -21.8975  -14.3609 O   0  0  0  0  0  0  0  0  0  0  0  0
   17.7126  -19.9283  -18.0784 C   0  0  0  0  0  0  0  0  0  0  0  0
   28.6469  -20.3327  -13.6512 C   0  0  2  0  0  0  0  0  0  0  0  0
   27.4087  -19.9750  -14.4005 C   0  0  0  0  0  0  0  0  0  0  0  0
   27.4150  -20.5963  -15.8002 C   0  0  1  0  0  0  0  0  0  0  0  0
   26.1929  -20.5477  -13.7125 N   0  0  0  0  0  0  0  0  0  0  0  0
   25.0377  -20.0001  -14.4208 C   0  0  0  0  0  0  0  0  0  0  0  0
   26.1055  -20.2885  -12.2746 O   0  0  0  0  0  0  0  0  0  0  0  0
   25.9902  -19.0634  -11.9089 N   0  0  0  0  0  0  0  0  0  0  0  0
   26.1279  -21.2202  -11.2252 C   0  0  0  0  0  0  0  0  0  0  0  0
   26.1378  -20.8447   -9.8213 C   0  0  0  0  0  0  0  0  0  0  0  0
   24.7398  -20.8786   -9.3295 O   0  0  0  0  0  0  0  0  0  0  0  0
   23.7577  -21.0669  -10.0993 O   0  0  0  0  0  0  0  0  0  0  0  0
  2  1  1  0
  2  4  1  0
  3  2  2  0
  5  4  1  0
  6  5  1  0
  7  6  1  0
  7  8  1  0
  8  9  1  6
  8 10  1  0
 10 11  2  0
 13 14  1  1
 13 15  1  0
 13 12  1  0
 16 10  1  0
 15 16  1  6
 17 15  1  0
 17 18  2  0
 19 20  1  0
 19 17  1  0
 20 21  1  0
 21 22  2  0
 21 23  1  0
M  END
$$$$
