RVG.pdb
     RDKit          3D

 23 22  0  0  1  0  0  0  0  0999 V2000
   18.1750  -22.1547  -17.2481 N   0  0  0  0  0  0  0  0  0  0  0  0
   17.7884  -20.8057  -17.0712 C   0  0  0  0  0  0  0  0  0  0  0  0
   16.5536  -20.4515  -16.8196 N   0  0  0  0  0  0  0  0  0  0  0  0
   18.7201  -19.7336  -17.1547 N   0  0  0  0  0  0  0  0  0  0  0  0
   19.8877  -19.6773  -16.2984 C   0  0  0  0  0  0  0  0  0  0  0  0
   19.4526  -19.1829  -14.9466 C   0  0  0  0  0  0  0  0  0  0  0  0
   20.6046  -18.9901  -13.9935 C   0  0  0  0  0  0  0  0  0  0  0  0
   21.8220  -19.7885  -14.4044 C   0  0  2  0  0  0  0  0  0  0  0  0
   21.4922  -21.1963  -14.1483 N   0  0  0  0  0  0  0  0  0  0  0  0
   22.9474  -19.3790  -13.4854 C   0  0  0  0  0  0  0  0  0  0  0  0
   23.2668  -18.1696  -13.3708 O   0  0  0  0  0  0  0  0  0  0  0  0
   16.3855  -19.4314  -16.7115 C   0  0  0  0  0  0  0  0  0  0  0  0
   23.1876  -19.7917  -10.0530 C   0  0  2  0  0  0  0  0  0  0  0  0
   24.4054  -20.5225  -10.5059 C   0  0  0  0  0  0  0  0  0  0  0  0
   24.1305  -22.0240  -10.6301 C   0  0  2  0  0  0  0  0  0  0  0  0
   24.8057  -20.0719  -11.8902 N   0  0  0  0  0  0  0  0  0  0  0  0
   23.6525  -20.3401  -12.7470 C   0  0  0  0  0  0  0  0  0  0  0  0
   26.0194  -20.6909  -12.4249 O   0  0  0  0  0  0  0  0  0  0  0  0
   26.1384  -21.9609  -12.2805 N   0  0  0  0  0  0  0  0  0  0  0  0
   27.0871  -20.0678  -13.0896 C   0  0  0  0  0  0  0  0  0  0  0  0
   28.2809  -20.7735  -13.5239 C   0  0  0  0  0  0  0  0  0  0  0  0
   28.1020  -21.1395  -14.9493 O   0  0  0  0  0  0  0  0  0  0  0  0
   28.9953  -21.7379  -15.6099 O   0  0  0  0  0  0  0  0  0  0  0  0
  2  1  1  0
  2  4  1  0
  3  2  2  0
  5  4  1  0
  6  5  1  0
  7  6  1  0
  7  8  1  0
  8  9  1  1
  8 10  1  0
 10 11  2  0
 13 14  1  1
 13 15  1  0
 13 12  1  0
 16 10  1  0
 15 16  1  1
 17 15  1  0
 17 18  2  0
 19 20  1  0
 19 17  1  0
 20 21  1  0
 21 22  2  0
 21 23  1  0
M  END
$$$$
