RVG.pdb
     RDKit          3D

 23 22  0  0  1  0  0  0  0  0999 V2000
   19.1323  -24.2491   -9.1882 N   0  0  0  0  0  0  0  0  0  0  0  0
   19.1072  -23.5799   -7.9424 C   0  0  0  0  0  0  0  0  0  0  0  0
   18.7708  -24.1760   -6.8265 N   0  0  0  0  0  0  0  0  0  0  0  0
   19.4479  -22.2044   -7.8144 N   0  0  0  0  0  0  0  0  0  0  0  0
   19.9528  -21.4422   -8.9387 C   0  0  0  0  0  0  0  0  0  0  0  0
   21.4469  -21.6057   -8.9811 C   0  0  0  0  0  0  0  0  0  0  0  0
   22.0888  -20.8438  -10.1126 C   0  0  0  0  0  0  0  0  0  0  0  0
   23.5850  -21.0598  -10.1667 C   0  0  2  0  0  0  0  0  0  0  0  0
   24.1446  -20.3274   -9.0236 N   0  0  0  0  0  0  0  0  0  0  0  0
   24.0764  -20.4181  -11.4416 C   0  0  0  0  0  0  0  0  0  0  0  0
   24.3340  -19.1891  -11.4767 O   0  0  0  0  0  0  0  0  0  0  0  0
   18.7540  -23.5767   -5.9773 C   0  0  0  0  0  0  0  0  0  0  0  0
   26.3859  -21.1242  -15.6377 C   0  0  2  0  0  0  0  0  0  0  0  0
   25.8159  -21.5872  -14.3403 C   0  0  0  0  0  0  0  0  0  0  0  0
   26.8651  -21.5261  -13.2264 C   0  0  1  0  0  0  0  0  0  0  0  0
   24.7042  -20.6676  -13.8955 N   0  0  0  0  0  0  0  0  0  0  0  0
   24.2525  -21.1819  -12.6041 C   0  0  0  0  0  0  0  0  0  0  0  0
   23.5882  -20.5335  -14.8330 O   0  0  0  0  0  0  0  0  0  0  0  0
   22.8333  -21.5596  -14.9914 N   0  0  0  0  0  0  0  0  0  0  0  0
   23.2267  -19.4094  -15.5918 C   0  0  0  0  0  0  0  0  0  0  0  0
   22.1090  -19.3962  -16.5205 C   0  0  0  0  0  0  0  0  0  0  0  0
   20.9473  -18.7888  -15.8284 O   0  0  0  0  0  0  0  0  0  0  0  0
   20.8010  -18.8474  -14.5764 O   0  0  0  0  0  0  0  0  0  0  0  0
  2  1  1  0
  2  4  1  0
  3  2  2  0
  5  4  1  0
  6  5  1  0
  7  6  1  0
  7  8  1  0
  8  9  1  1
  8 10  1  0
 10 11  2  0
 13 14  1  1
 13 15  1  0
 13 12  1  0
 16 10  1  0
 15 16  1  6
 17 15  1  0
 17 18  2  0
 19 20  1  0
 19 17  1  0
 20 21  1  0
 21 22  2  0
 21 23  1  0
M  END
$$$$
