RVG.pdb
     RDKit          3D

 23 22  0  0  1  0  0  0  0  0999 V2000
   26.3069  -17.9710  -19.1615 N   0  0  0  0  0  0  0  0  0  0  0  0
   24.9428  -17.6164  -19.0433 C   0  0  0  0  0  0  0  0  0  0  0  0
   24.2017  -17.3035  -20.0760 N   0  0  0  0  0  0  0  0  0  0  0  0
   24.2771  -17.5751  -17.7864 N   0  0  0  0  0  0  0  0  0  0  0  0
   24.4679  -18.6140  -16.7945 C   0  0  0  0  0  0  0  0  0  0  0  0
   24.4670  -19.9412  -17.5015 C   0  0  0  0  0  0  0  0  0  0  0  0
   24.2741  -21.1056  -16.5636 C   0  0  0  0  0  0  0  0  0  0  0  0
   25.1274  -20.9819  -15.3207 C   0  0  2  0  0  0  0  0  0  0  0  0
   26.4099  -21.6213  -15.6410 N   0  0  0  0  0  0  0  0  0  0  0  0
   24.4445  -21.7804  -14.2369 C   0  0  0  0  0  0  0  0  0  0  0  0
   24.4698  -23.0360  -14.2603 O   0  0  0  0  0  0  0  0  0  0  0  0
   23.2108  -17.0660  -19.8702 C   0  0  0  0  0  0  0  0  0  0  0  0
   24.9480  -21.1843  -10.7466 C   0  0  2  0  0  0  0  0  0  0  0  0
   23.4601  -21.1721  -10.8391 C   0  0  0  0  0  0  0  0  0  0  0  0
   22.9236  -19.7381  -10.8712 C   0  0  2  0  0  0  0  0  0  0  0  0
   23.0079  -21.7991  -12.1360 N   0  0  0  0  0  0  0  0  0  0  0  0
   23.7726  -21.1345  -13.1893 C   0  0  0  0  0  0  0  0  0  0  0  0
   21.5698  -21.7282  -12.3990 O   0  0  0  0  0  0  0  0  0  0  0  0
   21.1199  -20.6298  -12.8877 N   0  0  0  0  0  0  0  0  0  0  0  0
   20.6020  -22.7223  -12.1868 C   0  0  0  0  0  0  0  0  0  0  0  0
   19.2023  -22.5664  -12.5453 C   0  0  0  0  0  0  0  0  0  0  0  0
   18.4841  -22.0361  -11.3619 O   0  0  0  0  0  0  0  0  0  0  0  0
   19.0663  -21.8051  -10.2664 O   0  0  0  0  0  0  0  0  0  0  0  0
  2  1  1  0
  2  4  1  0
  3  2  2  0
  5  4  1  0
  6  5  1  0
  7  6  1  0
  7  8  1  0
  8  9  1  6
  8 10  1  0
 10 11  2  0
 13 14  1  1
 13 15  1  0
 13 12  1  0
 16 10  1  0
 15 16  1  1
 17 15  1  0
 17 18  2  0
 19 20  1  0
 19 17  1  0
 20 21  1  0
 21 22  2  0
 21 23  1  0
M  END
$$$$
