RVG.pdb
     RDKit          3D

 23 22  0  0  1  0  0  0  0  0999 V2000
   23.8091  -20.2136  -10.3526 N   0  0  0  0  0  0  0  0  0  0  0  0
   25.0443  -20.6174   -9.7943 C   0  0  0  0  0  0  0  0  0  0  0  0
   25.1709  -20.9727   -8.5407 N   0  0  0  0  0  0  0  0  0  0  0  0
   26.2421  -20.6658  -10.5606 N   0  0  0  0  0  0  0  0  0  0  0  0
   26.3122  -20.0982  -11.8920 C   0  0  0  0  0  0  0  0  0  0  0  0
   25.8074  -21.1269  -12.8658 C   0  0  0  0  0  0  0  0  0  0  0  0
   24.3140  -21.3197  -12.7943 C   0  0  0  0  0  0  0  0  0  0  0  0
   23.8258  -22.3512  -13.7872 C   0  0  2  0  0  0  0  0  0  0  0  0
   24.7932  -23.4548  -13.7381 N   0  0  0  0  0  0  0  0  0  0  0  0
   23.8886  -21.7115  -15.1530 C   0  0  0  0  0  0  0  0  0  0  0  0
   24.3491  -22.3482  -16.1329 O   0  0  0  0  0  0  0  0  0  0  0  0
   26.1352  -21.2021   -8.2276 C   0  0  0  0  0  0  0  0  0  0  0  0
   22.0424  -18.0182  -17.8253 C   0  0  1  0  0  0  0  0  0  0  0  0
   22.1244  -18.8780  -16.6103 C   0  0  0  0  0  0  0  0  0  0  0  0
   20.9787  -19.8938  -16.5781 C   0  0  1  0  0  0  0  0  0  0  0  0
   23.3900  -19.7010  -16.6319 N   0  0  0  0  0  0  0  0  0  0  0  0
   23.4349  -20.3993  -15.3488 C   0  0  0  0  0  0  0  0  0  0  0  0
   24.6230  -18.9492  -16.8703 O   0  0  0  0  0  0  0  0  0  0  0  0
   25.0158  -18.1618  -15.9357 N   0  0  0  0  0  0  0  0  0  0  0  0
   25.4486  -18.9796  -18.0050 C   0  0  0  0  0  0  0  0  0  0  0  0
   26.6529  -18.1777  -18.1405 C   0  0  0  0  0  0  0  0  0  0  0  0
   27.8136  -19.0991  -18.1769 O   0  0  0  0  0  0  0  0  0  0  0  0
   27.8270  -20.1932  -17.5482 O   0  0  0  0  0  0  0  0  0  0  0  0
  2  1  1  0
  2  4  1  0
  3  2  2  0
  5  4  1  0
  6  5  1  0
  7  6  1  0
  7  8  1  0
  8  9  1  6
  8 10  1  0
 10 11  2  0
 13 14  1  6
 13 15  1  0
 13 12  1  0
 16 10  1  0
 15 16  1  1
 17 15  1  0
 17 18  2  0
 19 20  1  0
 19 17  1  0
 20 21  1  0
 21 22  2  0
 21 23  1  0
M  END
$$$$
