RVG.pdb
     RDKit          3D

 23 22  0  0  1  0  0  0  0  0999 V2000
   29.8821  -21.9041   -8.7988 N   0  0  0  0  0  0  0  0  0  0  0  0
   30.8611  -22.0593   -9.8078 C   0  0  0  0  0  0  0  0  0  0  0  0
   31.9394  -22.7826   -9.6411 N   0  0  0  0  0  0  0  0  0  0  0  0
   30.7414  -21.4367  -11.0815 N   0  0  0  0  0  0  0  0  0  0  0  0
   29.5388  -20.7257  -11.4662 C   0  0  0  0  0  0  0  0  0  0  0  0
   28.3688  -21.6522  -11.2820 C   0  0  0  0  0  0  0  0  0  0  0  0
   27.0430  -20.9811  -11.5363 C   0  0  0  0  0  0  0  0  0  0  0  0
   26.3328  -21.5629  -12.7385 C   0  0  2  0  0  0  0  0  0  0  0  0
   27.3444  -21.6711  -13.7973 N   0  0  0  0  0  0  0  0  0  0  0  0
   25.2911  -20.5566  -13.1638 C   0  0  0  0  0  0  0  0  0  0  0  0
   25.6320  -19.4920  -13.7368 O   0  0  0  0  0  0  0  0  0  0  0  0
   32.6114  -22.7877  -10.4342 C   0  0  0  0  0  0  0  0  0  0  0  0
   24.3169  -19.9007  -15.4246 C   0  0  2  0  0  0  0  0  0  0  0  0
   22.9176  -20.1351  -14.9670 C   0  0  0  0  0  0  0  0  0  0  0  0
   22.4706  -21.5665  -15.2781 C   0  0  2  0  0  0  0  0  0  0  0  0
   22.8253  -20.0031  -13.4658 N   0  0  0  0  0  0  0  0  0  0  0  0
   23.9297  -20.7937  -12.9263 C   0  0  0  0  0  0  0  0  0  0  0  0
   21.5470  -20.4066  -12.8781 O   0  0  0  0  0  0  0  0  0  0  0  0
   20.4955  -19.8013  -13.2974 N   0  0  0  0  0  0  0  0  0  0  0  0
   21.3157  -21.3882  -11.9019 C   0  0  0  0  0  0  0  0  0  0  0  0
   20.0310  -21.5830  -11.2512 C   0  0  0  0  0  0  0  0  0  0  0  0
   19.2840  -22.6115  -12.0140 O   0  0  0  0  0  0  0  0  0  0  0  0
   19.7400  -23.1341  -13.0681 O   0  0  0  0  0  0  0  0  0  0  0  0
  2  1  1  0
  2  4  1  0
  3  2  2  0
  5  4  1  0
  6  5  1  0
  7  6  1  0
  7  8  1  0
  8  9  1  6
  8 10  1  0
 10 11  2  0
 13 14  1  6
 13 15  1  0
 13 12  1  0
 16 10  1  0
 15 16  1  1
 17 15  1  0
 17 18  2  0
 19 20  1  0
 19 17  1  0
 20 21  1  0
 21 22  2  0
 21 23  1  0
M  END
$$$$
