EDW.pdb
     RDKit          3D

 32 33  0  0  1  0  0  0  0  0999 V2000
    9.4488  -12.7971   18.5453 N   0  0  0  0  0  0  0  0  0  0  0  0
    8.4766  -13.7507   19.0080 C   0  0  1  0  0  0  0  0  0  0  0  0
    7.7607  -14.3662   17.8253 C   0  0  0  0  0  0  0  0  0  0  0  0
    8.7049  -14.3216   16.6345 C   0  0  0  0  0  0  0  0  0  0  0  0
    7.9604  -14.8446   15.4642 C   0  0  0  0  0  0  0  0  0  0  0  0
    7.6781  -14.0914   14.4966 O   0  0  0  0  0  0  0  0  0  0  0  0
    9.1097  -14.8430   19.7881 C   0  0  0  0  0  0  0  0  0  0  0  0
    8.4538  -15.7815   20.3000 O   0  0  0  0  0  0  0  0  0  0  0  0
    7.5531  -16.1668   15.3945 O   0  0  0  0  0  0  0  0  0  0  0  0
   10.5438  -14.8004   19.9504 N   0  0  0  0  0  0  0  0  0  0  0  0
   11.1511  -15.8178   20.7500 C   0  0  1  0  0  0  0  0  0  0  0  0
   12.5871  -16.0692   20.3672 C   0  0  0  0  0  0  0  0  0  0  0  0
   13.2143  -14.8728   19.7881 C   0  0  0  0  0  0  0  0  0  0  0  0
   13.8832  -14.0646   20.4630 O   0  0  0  0  0  0  0  0  0  0  0  0
   11.0915  -15.4096   22.1941 C   0  0  0  0  0  0  0  0  0  0  0  0
   11.4733  -14.2373   22.4734 O   0  0  0  0  0  0  0  0  0  0  0  0
   13.0757  -14.6015   18.4350 O   0  0  0  0  0  0  0  0  0  0  0  0
   10.6263  -16.3300   23.1320 N   0  0  0  0  0  0  0  0  0  0  0  0
    9.9180  -15.8527   24.3407 C   0  0  1  0  0  0  0  0  0  0  0  0
    8.7964  -15.0187   23.8037 C   0  0  0  0  0  0  0  0  0  0  0  0
    7.8078  -14.5917   24.8106 C   0  0  0  0  0  0  0  0  0  0  0  0
    6.8032  -15.3960   25.3836 C   0  0  0  0  0  0  0  0  0  0  0  0
    6.0780  -14.6688   26.2251 N   0  0  0  0  0  0  0  0  0  0  0  0
    6.5284  -13.3949   26.2678 C   0  0  0  0  0  0  0  0  0  0  0  0
    6.1325  -12.2841   26.9817 C   0  0  0  0  0  0  0  0  0  0  0  0
    6.8524  -11.1177   26.7879 C   0  0  0  0  0  0  0  0  0  0  0  0
    7.9238  -11.0639   25.9164 C   0  0  0  0  0  0  0  0  0  0  0  0
    8.2999  -12.1690   25.2200 C   0  0  0  0  0  0  0  0  0  0  0  0
    7.6085  -13.3529   25.3831 C   0  0  0  0  0  0  0  0  0  0  0  0
    9.5482  -17.0575   25.0882 C   0  0  0  0  0  0  0  0  0  0  0  0
    9.3607  -18.1672   24.5319 O   0  0  0  0  0  0  0  0  0  0  0  0
    9.3731  -17.0726   26.4865 O   0  0  0  0  0  0  0  0  0  0  0  0
  2  1  1  6
  2  3  1  0
  3  4  1  0
  4  5  1  0
  5  9  1  0
  5  6  2  0
  7  2  1  0
  8  7  2  0
 10  7  1  0
 11 10  1  0
 11 12  1  6
 13 12  1  0
 14 13  2  0
 15 11  1  0
 15 18  1  0
 16 15  2  0
 17 13  1  0
 19 30  1  0
 19 18  1  0
 19 20  1  6
 21 20  1  0
 21 22  2  0
 23 22  1  0
 24 23  1  0
 25 24  2  0
 26 25  1  0
 27 26  2  0
 27 28  1  0
 28 29  2  0
 29 24  1  0
 29 21  1  0
 30 32  1  0
 31 30  2  0
M  END
$$$$
