EDW.pdb
     RDKit          3D

 32 33  0  0  1  0  0  0  0  0999 V2000
    9.7271  -18.5098   17.3676 N   0  0  0  0  0  0  0  0  0  0  0  0
   10.0481  -17.3299   18.1248 C   0  0  1  0  0  0  0  0  0  0  0  0
    8.8489  -16.4078   18.1678 C   0  0  0  0  0  0  0  0  0  0  0  0
    9.2896  -15.1000   18.8057 C   0  0  0  0  0  0  0  0  0  0  0  0
    8.1282  -14.1796   18.7671 C   0  0  0  0  0  0  0  0  0  0  0  0
    6.9569  -14.6306   18.6783 O   0  0  0  0  0  0  0  0  0  0  0  0
   10.4294  -17.6621   19.5201 C   0  0  0  0  0  0  0  0  0  0  0  0
    9.9191  -18.6151   20.1559 O   0  0  0  0  0  0  0  0  0  0  0  0
    8.2890  -12.8049   18.8267 O   0  0  0  0  0  0  0  0  0  0  0  0
   11.4330  -16.8372   20.1503 N   0  0  0  0  0  0  0  0  0  0  0  0
   11.8906  -17.2248   21.4479 C   0  0  1  0  0  0  0  0  0  0  0  0
   13.3921  -17.1707   21.5678 C   0  0  0  0  0  0  0  0  0  0  0  0
   13.8511  -17.6377   22.8836 C   0  0  0  0  0  0  0  0  0  0  0  0
   14.5139  -16.9235   23.6625 O   0  0  0  0  0  0  0  0  0  0  0  0
   11.2822  -16.3148   22.4761 C   0  0  0  0  0  0  0  0  0  0  0  0
   11.7954  -15.1659   22.5986 O   0  0  0  0  0  0  0  0  0  0  0  0
   13.5508  -18.9234   23.3082 O   0  0  0  0  0  0  0  0  0  0  0  0
   10.2031  -16.7786   23.2269 N   0  0  0  0  0  0  0  0  0  0  0  0
    9.6191  -15.9201   24.2817 C   0  0  1  0  0  0  0  0  0  0  0  0
    8.1783  -15.7921   23.8949 C   0  0  0  0  0  0  0  0  0  0  0  0
    7.3274  -15.1237   24.8964 C   0  0  0  0  0  0  0  0  0  0  0  0
    6.3582  -15.7420   25.7104 C   0  0  0  0  0  0  0  0  0  0  0  0
    5.7637  -14.8267   26.4666 N   0  0  0  0  0  0  0  0  0  0  0  0
    6.2720  -13.5986   26.2202 C   0  0  0  0  0  0  0  0  0  0  0  0
    6.0072  -12.3519   26.7455 C   0  0  0  0  0  0  0  0  0  0  0  0
    6.7520  -11.2901   26.2613 C   0  0  0  0  0  0  0  0  0  0  0  0
    7.7213  -11.4673   25.2921 C   0  0  0  0  0  0  0  0  0  0  0  0
    7.9684  -12.7039   24.7848 C   0  0  0  0  0  0  0  0  0  0  0  0
    7.2478  -13.7903   25.2394 C   0  0  0  0  0  0  0  0  0  0  0  0
    9.9068  -16.5951   25.5499 C   0  0  0  0  0  0  0  0  0  0  0  0
   10.1169  -17.8306   25.6258 O   0  0  0  0  0  0  0  0  0  0  0  0
    9.9720  -15.9188   26.7847 O   0  0  0  0  0  0  0  0  0  0  0  0
  2  1  1  6
  2  3  1  0
  3  4  1  0
  4  5  1  0
  5  9  1  0
  5  6  2  0
  7  2  1  0
  8  7  2  0
 10  7  1  0
 11 10  1  0
 11 12  1  6
 13 12  1  0
 14 13  2  0
 15 11  1  0
 15 18  1  0
 16 15  2  0
 17 13  1  0
 19 30  1  0
 19 18  1  0
 19 20  1  6
 21 20  1  0
 21 22  2  0
 23 22  1  0
 24 23  1  0
 25 24  2  0
 26 25  1  0
 27 26  2  0
 27 28  1  0
 28 29  2  0
 29 24  1  0
 29 21  1  0
 30 32  1  0
 31 30  2  0
M  END
$$$$
