EDW.pdb
     RDKit          3D

 32 33  0  0  1  0  0  0  0  0999 V2000
   10.0399  -16.0160   18.8370 N   0  0  0  0  0  0  0  0  0  0  0  0
    8.9832  -16.3702   19.7462 C   0  0  1  0  0  0  0  0  0  0  0  0
    7.9878  -17.2709   19.0476 C   0  0  0  0  0  0  0  0  0  0  0  0
    8.7486  -18.1038   18.0283 C   0  0  0  0  0  0  0  0  0  0  0  0
    7.7589  -18.9663   17.3398 C   0  0  0  0  0  0  0  0  0  0  0  0
    7.1841  -18.5707   16.2927 O   0  0  0  0  0  0  0  0  0  0  0  0
    9.5032  -17.0874   20.9369 C   0  0  0  0  0  0  0  0  0  0  0  0
    8.7564  -17.5490   21.8325 O   0  0  0  0  0  0  0  0  0  0  0  0
    7.4348  -20.2249   17.8191 O   0  0  0  0  0  0  0  0  0  0  0  0
   10.9342  -17.2470   21.0456 N   0  0  0  0  0  0  0  0  0  0  0  0
   11.4455  -17.8490   22.2370 C   0  0  1  0  0  0  0  0  0  0  0  0
   12.8801  -18.2871   22.0896 C   0  0  0  0  0  0  0  0  0  0  0  0
   13.3028  -18.3049   20.6821 C   0  0  0  0  0  0  0  0  0  0  0  0
   14.0266  -17.4211   20.1810 O   0  0  0  0  0  0  0  0  0  0  0  0
   11.3456  -16.8651   23.3672 C   0  0  0  0  0  0  0  0  0  0  0  0
   12.0550  -15.8222   23.2822 O   0  0  0  0  0  0  0  0  0  0  0  0
   12.8966  -19.3354   19.8475 O   0  0  0  0  0  0  0  0  0  0  0  0
   10.4906  -17.1506   24.4306 N   0  0  0  0  0  0  0  0  0  0  0  0
   10.3086  -16.1582   25.5135 C   0  0  1  0  0  0  0  0  0  0  0  0
    9.6388  -15.0000   24.8414 C   0  0  0  0  0  0  0  0  0  0  0  0
    8.3254  -14.6355   25.4034 C   0  0  0  0  0  0  0  0  0  0  0  0
    7.1992  -15.4763   25.4999 C   0  0  0  0  0  0  0  0  0  0  0  0
    6.1847  -14.8012   26.0270 N   0  0  0  0  0  0  0  0  0  0  0  0
    6.5486  -13.5291   26.3041 C   0  0  0  0  0  0  0  0  0  0  0  0
    5.8765  -12.4621   26.8609 C   0  0  0  0  0  0  0  0  0  0  0  0
    6.5834  -11.2824   27.0200 C   0  0  0  0  0  0  0  0  0  0  0  0
    7.9073  -11.1741   26.6383 C   0  0  0  0  0  0  0  0  0  0  0  0
    8.5541  -12.2365   26.0902 C   0  0  0  0  0  0  0  0  0  0  0  0
    7.8859  -13.4317   25.9130 C   0  0  0  0  0  0  0  0  0  0  0  0
    9.5490  -16.8458   26.5610 C   0  0  0  0  0  0  0  0  0  0  0  0
    8.9218  -17.9130   26.3514 O   0  0  0  0  0  0  0  0  0  0  0  0
    9.4588  -16.3704   27.8847 O   0  0  0  0  0  0  0  0  0  0  0  0
  2  1  1  6
  2  3  1  0
  3  4  1  0
  4  5  1  0
  5  9  1  0
  5  6  2  0
  7  2  1  0
  8  7  2  0
 10  7  1  0
 11 10  1  0
 11 12  1  6
 13 12  1  0
 14 13  2  0
 15 11  1  0
 15 18  1  0
 16 15  2  0
 17 13  1  0
 19 30  1  0
 19 18  1  0
 19 20  1  6
 21 20  1  0
 21 22  2  0
 23 22  1  0
 24 23  1  0
 25 24  2  0
 26 25  1  0
 27 26  2  0
 27 28  1  0
 28 29  2  0
 29 24  1  0
 29 21  1  0
 30 32  1  0
 31 30  2  0
M  END
$$$$
