EDW.pdb
     RDKit          3D

 32 33  0  0  1  0  0  0  0  0999 V2000
    7.2783  -17.3247   20.0821 N   0  0  0  0  0  0  0  0  0  0  0  0
    8.4197  -16.6157   20.5950 C   0  0  1  0  0  0  0  0  0  0  0  0
    8.1661  -15.1251   20.5334 C   0  0  0  0  0  0  0  0  0  0  0  0
    7.5188  -14.8177   19.1925 C   0  0  0  0  0  0  0  0  0  0  0  0
    7.4365  -13.3425   19.0728 C   0  0  0  0  0  0  0  0  0  0  0  0
    6.3981  -12.7940   18.6209 O   0  0  0  0  0  0  0  0  0  0  0  0
    8.7026  -16.9813   22.0053 C   0  0  0  0  0  0  0  0  0  0  0  0
    8.0510  -17.8557   22.6249 O   0  0  0  0  0  0  0  0  0  0  0  0
    8.4884  -12.5237   19.4498 O   0  0  0  0  0  0  0  0  0  0  0  0
    9.7792  -16.2858   22.6703 N   0  0  0  0  0  0  0  0  0  0  0  0
   10.8686  -17.0681   23.1645 C   0  0  1  0  0  0  0  0  0  0  0  0
   12.1851  -16.6778   22.5428 C   0  0  0  0  0  0  0  0  0  0  0  0
   13.2841  -17.5341   23.0109 C   0  0  0  0  0  0  0  0  0  0  0  0
   14.3338  -17.0782   23.5071 O   0  0  0  0  0  0  0  0  0  0  0  0
   10.9592  -16.8996   24.6541 C   0  0  0  0  0  0  0  0  0  0  0  0
   11.8714  -17.5425   25.2481 O   0  0  0  0  0  0  0  0  0  0  0  0
   13.1812  -18.9136   22.9108 O   0  0  0  0  0  0  0  0  0  0  0  0
   10.0479  -16.0580   25.2900 N   0  0  0  0  0  0  0  0  0  0  0  0
    9.9875  -16.0238   26.7684 C   0  0  1  0  0  0  0  0  0  0  0  0
    8.5339  -16.2015   27.0807 C   0  0  0  0  0  0  0  0  0  0  0  0
    7.6268  -15.3269   26.3153 C   0  0  0  0  0  0  0  0  0  0  0  0
    6.6314  -15.7475   25.4116 C   0  0  0  0  0  0  0  0  0  0  0  0
    6.0337  -14.6860   24.8833 N   0  0  0  0  0  0  0  0  0  0  0  0
    6.5637  -13.5439   25.3754 C   0  0  0  0  0  0  0  0  0  0  0  0
    6.2845  -12.2115   25.1586 C   0  0  0  0  0  0  0  0  0  0  0  0
    7.0308  -11.2852   25.8667 C   0  0  0  0  0  0  0  0  0  0  0  0
    8.0157  -11.6749   26.7548 C   0  0  0  0  0  0  0  0  0  0  0  0
    8.2780  -12.9934   26.9554 C   0  0  0  0  0  0  0  0  0  0  0  0
    7.5574  -13.9503   26.2689 C   0  0  0  0  0  0  0  0  0  0  0  0
   10.8972  -17.0760   27.2291 C   0  0  0  0  0  0  0  0  0  0  0  0
   10.8926  -17.5047   28.4091 O   0  0  0  0  0  0  0  0  0  0  0  0
   11.8486  -17.6923   26.3917 O   0  0  0  0  0  0  0  0  0  0  0  0
  2  1  1  1
  2  3  1  0
  3  4  1  0
  4  5  1  0
  5  9  1  0
  5  6  2  0
  7  2  1  0
  8  7  2  0
 10  7  1  0
 11 10  1  0
 11 12  1  6
 13 12  1  0
 14 13  2  0
 15 11  1  0
 15 18  1  0
 16 15  2  0
 17 13  1  0
 19 30  1  0
 19 18  1  0
 19 20  1  6
 21 20  1  0
 21 22  2  0
 23 22  1  0
 24 23  1  0
 25 24  2  0
 26 25  1  0
 27 26  2  0
 27 28  1  0
 28 29  2  0
 29 24  1  0
 29 21  1  0
 30 32  1  0
 31 30  2  0
M  END
$$$$
