EDW.pdb
     RDKit          3D

 32 33  0  0  1  0  0  0  0  0999 V2000
   10.0042  -15.4589   19.0343 N   0  0  0  0  0  0  0  0  0  0  0  0
    8.7400  -15.5798   19.7094 C   0  0  1  0  0  0  0  0  0  0  0  0
    7.7181  -16.1919   18.7761 C   0  0  0  0  0  0  0  0  0  0  0  0
    8.2925  -17.4965   18.2474 C   0  0  0  0  0  0  0  0  0  0  0  0
    7.2775  -18.0888   17.3440 C   0  0  0  0  0  0  0  0  0  0  0  0
    7.5739  -19.0550   16.5944 O   0  0  0  0  0  0  0  0  0  0  0  0
    8.8432  -16.4400   20.9144 C   0  0  0  0  0  0  0  0  0  0  0  0
    7.8643  -16.6893   21.6577 O   0  0  0  0  0  0  0  0  0  0  0  0
    5.9804  -17.6051   17.2929 O   0  0  0  0  0  0  0  0  0  0  0  0
   10.1372  -17.0016   21.2226 N   0  0  0  0  0  0  0  0  0  0  0  0
   10.2489  -17.8019   22.4017 C   0  0  1  0  0  0  0  0  0  0  0  0
   11.3103  -18.8647   22.2767 C   0  0  0  0  0  0  0  0  0  0  0  0
   11.9604  -18.8335   20.9590 C   0  0  0  0  0  0  0  0  0  0  0  0
   11.7029  -17.9695   20.0969 O   0  0  0  0  0  0  0  0  0  0  0  0
   10.5759  -16.9152   23.5689 C   0  0  0  0  0  0  0  0  0  0  0  0
   11.3587  -15.9470   23.3501 O   0  0  0  0  0  0  0  0  0  0  0  0
   12.9063  -19.7923   20.6280 O   0  0  0  0  0  0  0  0  0  0  0  0
   10.0083  -17.2033   24.8091 N   0  0  0  0  0  0  0  0  0  0  0  0
   10.3214  -16.3490   25.9764 C   0  0  1  0  0  0  0  0  0  0  0  0
    9.8633  -14.9839   25.5657 C   0  0  0  0  0  0  0  0  0  0  0  0
    8.4103  -14.7606   25.6781 C   0  0  0  0  0  0  0  0  0  0  0  0
    7.4035  -15.7302   25.5031 C   0  0  0  0  0  0  0  0  0  0  0  0
    6.2113  -15.1635   25.6459 N   0  0  0  0  0  0  0  0  0  0  0  0
    6.3372  -13.8443   25.9130 C   0  0  0  0  0  0  0  0  0  0  0  0
    5.4188  -12.8449   26.1539 C   0  0  0  0  0  0  0  0  0  0  0  0
    5.9151  -11.5800   26.4188 C   0  0  0  0  0  0  0  0  0  0  0  0
    7.2733  -11.3248   26.4420 C   0  0  0  0  0  0  0  0  0  0  0  0
    8.1646  -12.3224   26.2015 C   0  0  0  0  0  0  0  0  0  0  0  0
    7.7121  -13.5988   25.9322 C   0  0  0  0  0  0  0  0  0  0  0  0
    9.6345  -16.9630   27.1157 C   0  0  0  0  0  0  0  0  0  0  0  0
    8.7392  -17.8321   26.9770 O   0  0  0  0  0  0  0  0  0  0  0  0
    9.9193  -16.6323   28.4558 O   0  0  0  0  0  0  0  0  0  0  0  0
  2  1  1  6
  2  3  1  0
  3  4  1  0
  4  5  1  0
  5  9  1  0
  5  6  2  0
  7  2  1  0
  8  7  2  0
 10  7  1  0
 11 10  1  0
 11 12  1  6
 13 12  1  0
 14 13  2  0
 15 11  1  0
 15 18  1  0
 16 15  2  0
 17 13  1  0
 19 30  1  0
 19 18  1  0
 19 20  1  6
 21 20  1  0
 21 22  2  0
 23 22  1  0
 24 23  1  0
 25 24  2  0
 26 25  1  0
 27 26  2  0
 27 28  1  0
 28 29  2  0
 29 24  1  0
 29 21  1  0
 30 32  1  0
 31 30  2  0
M  END
$$$$
