EDW.pdb
     RDKit          3D

 32 33  0  0  1  0  0  0  0  0999 V2000
    8.7108  -21.1498   23.6852 N   0  0  0  0  0  0  0  0  0  0  0  0
   10.1355  -21.3093   23.8015 C   0  0  1  0  0  0  0  0  0  0  0  0
   10.5172  -22.7400   23.4890 C   0  0  0  0  0  0  0  0  0  0  0  0
    9.2606  -23.5899   23.5893 C   0  0  0  0  0  0  0  0  0  0  0  0
    8.9410  -24.0639   22.2217 C   0  0  0  0  0  0  0  0  0  0  0  0
    9.6102  -23.6652   21.2335 O   0  0  0  0  0  0  0  0  0  0  0  0
   10.8642  -20.4184   22.8646 C   0  0  0  0  0  0  0  0  0  0  0  0
   12.1091  -20.4588   22.7174 O   0  0  0  0  0  0  0  0  0  0  0  0
    7.9054  -24.9530   21.9849 O   0  0  0  0  0  0  0  0  0  0  0  0
   10.0836  -19.4733   22.1016 N   0  0  0  0  0  0  0  0  0  0  0  0
   10.7902  -18.5243   21.2994 C   0  0  1  0  0  0  0  0  0  0  0  0
   10.1854  -18.3675   19.9278 C   0  0  0  0  0  0  0  0  0  0  0  0
   10.9581  -17.4354   19.0946 C   0  0  0  0  0  0  0  0  0  0  0  0
   10.5278  -16.3152   18.7538 O   0  0  0  0  0  0  0  0  0  0  0  0
   10.7855  -17.1928   21.9940 C   0  0  0  0  0  0  0  0  0  0  0  0
   11.4794  -16.2734   21.4732 O   0  0  0  0  0  0  0  0  0  0  0  0
   12.2247  -17.7860   18.6513 O   0  0  0  0  0  0  0  0  0  0  0  0
   10.0291  -17.0456   23.1557 N   0  0  0  0  0  0  0  0  0  0  0  0
   10.0687  -15.7674   23.9009 C   0  0  1  0  0  0  0  0  0  0  0  0
    8.8618  -15.0239   23.4186 C   0  0  0  0  0  0  0  0  0  0  0  0
    7.8422  -14.7659   24.4518 C   0  0  0  0  0  0  0  0  0  0  0  0
    6.9975  -15.7246   25.0450 C   0  0  0  0  0  0  0  0  0  0  0  0
    6.1843  -15.1271   25.9079 N   0  0  0  0  0  0  0  0  0  0  0  0
    6.4211  -13.7967   25.9463 C   0  0  0  0  0  0  0  0  0  0  0  0
    5.8666  -12.7666   26.6756 C   0  0  0  0  0  0  0  0  0  0  0  0
    6.3807  -11.4978   26.4704 C   0  0  0  0  0  0  0  0  0  0  0  0
    7.4066  -11.2681   25.5732 C   0  0  0  0  0  0  0  0  0  0  0  0
    7.9410  -12.2958   24.8619 C   0  0  0  0  0  0  0  0  0  0  0  0
    7.4571  -13.5772   25.0356 C   0  0  0  0  0  0  0  0  0  0  0  0
   10.0979  -16.1335   25.3194 C   0  0  0  0  0  0  0  0  0  0  0  0
   10.7161  -15.4590   26.1790 O   0  0  0  0  0  0  0  0  0  0  0  0
    9.4381  -17.2667   25.8358 O   0  0  0  0  0  0  0  0  0  0  0  0
  2  1  1  6
  2  3  1  0
  3  4  1  0
  4  5  1  0
  5  9  1  0
  5  6  2  0
  7  2  1  0
  8  7  2  0
 10  7  1  0
 11 10  1  0
 11 12  1  6
 13 12  1  0
 14 13  2  0
 15 11  1  0
 15 18  1  0
 16 15  2  0
 17 13  1  0
 19 30  1  0
 19 18  1  0
 19 20  1  1
 21 20  1  0
 21 22  2  0
 23 22  1  0
 24 23  1  0
 25 24  2  0
 26 25  1  0
 27 26  2  0
 27 28  1  0
 28 29  2  0
 29 24  1  0
 29 21  1  0
 30 32  1  0
 31 30  2  0
M  END
$$$$
