EDW.pdb
     RDKit          3D

 32 33  0  0  1  0  0  0  0  0999 V2000
    9.4317  -17.7567   19.6791 N   0  0  0  0  0  0  0  0  0  0  0  0
    9.1597  -16.8478   20.7601 C   0  0  1  0  0  0  0  0  0  0  0  0
    7.6710  -16.8033   21.0286 C   0  0  0  0  0  0  0  0  0  0  0  0
    6.9814  -16.3425   19.7544 C   0  0  0  0  0  0  0  0  0  0  0  0
    5.5259  -16.3034   20.0326 C   0  0  0  0  0  0  0  0  0  0  0  0
    4.7698  -15.5387   19.3794 O   0  0  0  0  0  0  0  0  0  0  0  0
    9.8452  -17.2624   22.0093 C   0  0  0  0  0  0  0  0  0  0  0  0
    9.4232  -18.1895   22.7410 O   0  0  0  0  0  0  0  0  0  0  0  0
    4.9521  -17.0987   21.0110 O   0  0  0  0  0  0  0  0  0  0  0  0
   11.0476  -16.5520   22.3762 N   0  0  0  0  0  0  0  0  0  0  0  0
   11.6973  -16.9317   23.5915 C   0  0  1  0  0  0  0  0  0  0  0  0
   13.1436  -16.5089   23.6265 C   0  0  0  0  0  0  0  0  0  0  0  0
   13.8947  -17.0400   22.4802 C   0  0  0  0  0  0  0  0  0  0  0  0
   13.9869  -18.2601   22.2375 O   0  0  0  0  0  0  0  0  0  0  0  0
   10.9747  -16.3083   24.7512 C   0  0  0  0  0  0  0  0  0  0  0  0
   11.0290  -15.0491   24.8490 O   0  0  0  0  0  0  0  0  0  0  0  0
   14.5406  -16.1735   21.6110 O   0  0  0  0  0  0  0  0  0  0  0  0
   10.2949  -17.1381   25.6415 N   0  0  0  0  0  0  0  0  0  0  0  0
    9.8872  -16.6173   26.9655 C   0  0  1  0  0  0  0  0  0  0  0  0
    8.3947  -16.7374   26.9635 C   0  0  0  0  0  0  0  0  0  0  0  0
    7.6974  -15.7537   26.1151 C   0  0  0  0  0  0  0  0  0  0  0  0
    7.0317  -16.0236   24.9034 C   0  0  0  0  0  0  0  0  0  0  0  0
    6.5508  -14.8933   24.3993 N   0  0  0  0  0  0  0  0  0  0  0  0
    6.8484  -13.8467   25.2014 C   0  0  0  0  0  0  0  0  0  0  0  0
    6.5660  -12.4994   25.1279 C   0  0  0  0  0  0  0  0  0  0  0  0
    7.0206  -11.7002   26.1628 C   0  0  0  0  0  0  0  0  0  0  0  0
    7.7283  -12.2262   27.2272 C   0  0  0  0  0  0  0  0  0  0  0  0
    7.9983  -13.5572   27.2828 C   0  0  0  0  0  0  0  0  0  0  0  0
    7.5639  -14.3899   26.2709 C   0  0  0  0  0  0  0  0  0  0  0  0
   10.6148  -17.4206   27.9515 C   0  0  0  0  0  0  0  0  0  0  0  0
   10.4918  -17.2467   29.1887 O   0  0  0  0  0  0  0  0  0  0  0  0
   11.5089  -18.4507   27.5966 O   0  0  0  0  0  0  0  0  0  0  0  0
  2  1  1  6
  2  3  1  0
  3  4  1  0
  4  5  1  0
  5  9  1  0
  5  6  2  0
  7  2  1  0
  8  7  2  0
 10  7  1  0
 11 10  1  0
 11 12  1  6
 13 12  1  0
 14 13  2  0
 15 11  1  0
 15 18  1  0
 16 15  2  0
 17 13  1  0
 19 30  1  0
 19 18  1  0
 19 20  1  1
 21 20  1  0
 21 22  2  0
 23 22  1  0
 24 23  1  0
 25 24  2  0
 26 25  1  0
 27 26  2  0
 27 28  1  0
 28 29  2  0
 29 24  1  0
 29 21  1  0
 30 32  1  0
 31 30  2  0
M  END
$$$$
