EDW.pdb
     RDKit          3D

 32 33  0  0  1  0  0  0  0  0999 V2000
   12.8021  -17.6002   18.1153 N   0  0  0  0  0  0  0  0  0  0  0  0
   11.4434  -17.2147   18.3872 C   0  0  1  0  0  0  0  0  0  0  0  0
   10.5169  -17.8617   17.3807 C   0  0  0  0  0  0  0  0  0  0  0  0
   11.3539  -18.7687   16.4929 C   0  0  0  0  0  0  0  0  0  0  0  0
   10.4476  -19.3355   15.4659 C   0  0  0  0  0  0  0  0  0  0  0  0
    9.5807  -18.6134   14.9087 O   0  0  0  0  0  0  0  0  0  0  0  0
   11.0178  -17.6321   19.7463 C   0  0  0  0  0  0  0  0  0  0  0  0
    9.8497  -17.4693   20.1730 O   0  0  0  0  0  0  0  0  0  0  0  0
   10.5215  -20.6659   15.0869 O   0  0  0  0  0  0  0  0  0  0  0  0
   12.0100  -18.2495   20.5944 N   0  0  0  0  0  0  0  0  0  0  0  0
   11.6217  -18.5948   21.9261 C   0  0  1  0  0  0  0  0  0  0  0  0
   12.6007  -19.5321   22.5855 C   0  0  0  0  0  0  0  0  0  0  0  0
   12.7968  -20.7577   21.7984 C   0  0  0  0  0  0  0  0  0  0  0  0
   11.8560  -21.5047   21.4623 O   0  0  0  0  0  0  0  0  0  0  0  0
   11.5114  -17.3419   22.7468 C   0  0  0  0  0  0  0  0  0  0  0  0
   12.4455  -16.4980   22.6308 O   0  0  0  0  0  0  0  0  0  0  0  0
   14.0711  -21.1283   21.3955 O   0  0  0  0  0  0  0  0  0  0  0  0
   10.4039  -17.1806   23.5779 N   0  0  0  0  0  0  0  0  0  0  0  0
   10.3027  -15.9836   24.4425 C   0  0  1  0  0  0  0  0  0  0  0  0
    8.8640  -15.9501   24.8561 C   0  0  0  0  0  0  0  0  0  0  0  0
    8.4574  -14.7302   25.5773 C   0  0  0  0  0  0  0  0  0  0  0  0
    7.4958  -13.7931   25.1512 C   0  0  0  0  0  0  0  0  0  0  0  0
    7.4148  -12.8061   26.0356 N   0  0  0  0  0  0  0  0  0  0  0  0
    8.2735  -13.0093   27.0597 C   0  0  0  0  0  0  0  0  0  0  0  0
    8.5490  -12.2970   28.2073 C   0  0  0  0  0  0  0  0  0  0  0  0
    9.4979  -12.8240   29.0666 C   0  0  0  0  0  0  0  0  0  0  0  0
   10.1446  -14.0138   28.7901 C   0  0  0  0  0  0  0  0  0  0  0  0
    9.8608  -14.7025   27.6531 C   0  0  0  0  0  0  0  0  0  0  0  0
    8.9213  -14.2120   26.7683 C   0  0  0  0  0  0  0  0  0  0  0  0
   11.2929  -16.1745   25.5055 C   0  0  0  0  0  0  0  0  0  0  0  0
   11.5270  -17.2965   26.0179 O   0  0  0  0  0  0  0  0  0  0  0  0
   12.0623  -15.1212   26.0393 O   0  0  0  0  0  0  0  0  0  0  0  0
  2  1  1  6
  2  3  1  0
  3  4  1  0
  4  5  1  0
  5  9  1  0
  5  6  2  0
  7  2  1  0
  8  7  2  0
 10  7  1  0
 11 10  1  0
 11 12  1  1
 13 12  1  0
 14 13  2  0
 15 11  1  0
 15 18  1  0
 16 15  2  0
 17 13  1  0
 19 30  1  0
 19 18  1  0
 19 20  1  1
 21 20  1  0
 21 22  2  0
 23 22  1  0
 24 23  1  0
 25 24  2  0
 26 25  1  0
 27 26  2  0
 27 28  1  0
 28 29  2  0
 29 24  1  0
 29 21  1  0
 30 32  1  0
 31 30  2  0
M  END
$$$$
