EDW.pdb
     RDKit          3D

 32 33  0  0  1  0  0  0  0  0999 V2000
    9.4992  -18.0999   20.0167 N   0  0  0  0  0  0  0  0  0  0  0  0
    8.9580  -17.4245   21.1655 C   0  0  1  0  0  0  0  0  0  0  0  0
    7.6035  -18.0054   21.5094 C   0  0  0  0  0  0  0  0  0  0  0  0
    6.8256  -18.1721   20.2138 C   0  0  0  0  0  0  0  0  0  0  0  0
    5.5040  -17.5301   20.4097 C   0  0  0  0  0  0  0  0  0  0  0  0
    4.7604  -17.8744   21.3646 O   0  0  0  0  0  0  0  0  0  0  0  0
    9.8399  -17.5680   22.3504 C   0  0  0  0  0  0  0  0  0  0  0  0
    9.6407  -18.4223   23.2468 O   0  0  0  0  0  0  0  0  0  0  0  0
    5.0450  -16.5387   19.5578 O   0  0  0  0  0  0  0  0  0  0  0  0
   10.9687  -16.6735   22.4525 N   0  0  0  0  0  0  0  0  0  0  0  0
   11.7808  -16.7619   23.6255 C   0  0  1  0  0  0  0  0  0  0  0  0
   13.1468  -16.1567   23.4259 C   0  0  0  0  0  0  0  0  0  0  0  0
   14.0193  -16.3858   24.5862 C   0  0  0  0  0  0  0  0  0  0  0  0
   14.2195  -17.5180   25.0702 O   0  0  0  0  0  0  0  0  0  0  0  0
   11.0903  -16.0548   24.7563 C   0  0  0  0  0  0  0  0  0  0  0  0
   11.0326  -14.7936   24.6922 O   0  0  0  0  0  0  0  0  0  0  0  0
   14.6634  -15.3178   25.1928 O   0  0  0  0  0  0  0  0  0  0  0  0
   10.5596  -16.8149   25.7974 N   0  0  0  0  0  0  0  0  0  0  0  0
   10.2088  -16.1621   27.0786 C   0  0  1  0  0  0  0  0  0  0  0  0
    8.7423  -16.4214   27.2333 C   0  0  0  0  0  0  0  0  0  0  0  0
    7.8766  -15.6141   26.3544 C   0  0  0  0  0  0  0  0  0  0  0  0
    7.1017  -16.0945   25.2805 C   0  0  0  0  0  0  0  0  0  0  0  0
    6.4776  -15.0799   24.6942 N   0  0  0  0  0  0  0  0  0  0  0  0
    6.7789  -13.9135   25.3076 C   0  0  0  0  0  0  0  0  0  0  0  0
    6.3826  -12.6111   25.0915 C   0  0  0  0  0  0  0  0  0  0  0  0
    6.8858  -11.6462   25.9473 C   0  0  0  0  0  0  0  0  0  0  0  0
    7.7495  -11.9702   26.9766 C   0  0  0  0  0  0  0  0  0  0  0  0
    8.1302  -13.2599   27.1745 C   0  0  0  0  0  0  0  0  0  0  0  0
    7.6523  -14.2533   26.3433 C   0  0  0  0  0  0  0  0  0  0  0  0
   11.0956  -16.7539   28.0836 C   0  0  0  0  0  0  0  0  0  0  0  0
   11.1334  -16.3521   29.2725 O   0  0  0  0  0  0  0  0  0  0  0  0
   11.9757  -17.8183   27.8028 O   0  0  0  0  0  0  0  0  0  0  0  0
  2  1  1  6
  2  3  1  0
  3  4  1  0
  4  5  1  0
  5  9  1  0
  5  6  2  0
  7  2  1  0
  8  7  2  0
 10  7  1  0
 11 10  1  0
 11 12  1  6
 13 12  1  0
 14 13  2  0
 15 11  1  0
 15 18  1  0
 16 15  2  0
 17 13  1  0
 19 30  1  0
 19 18  1  0
 19 20  1  1
 21 20  1  0
 21 22  2  0
 23 22  1  0
 24 23  1  0
 25 24  2  0
 26 25  1  0
 27 26  2  0
 27 28  1  0
 28 29  2  0
 29 24  1  0
 29 21  1  0
 30 32  1  0
 31 30  2  0
M  END
$$$$
