MMI.pdb
     RDKit          3D

 25 24  0  0  1  0  0  0  0  0999 V2000
   25.9070  -17.0812  -16.6874 C   0  0  0  0  0  0  0  0  0  0  0  0
   27.2826  -16.6776  -15.5898 S   0  0  0  0  0  0  0  0  0  0  0  0
   28.1336  -18.2278  -15.1409 C   0  0  0  0  0  0  0  0  0  0  0  0
   27.1631  -19.0416  -14.3076 C   0  0  0  0  0  0  0  0  0  0  0  0
   27.8644  -20.3053  -13.8880 C   0  0  2  0  0  0  0  0  0  0  0  0
   27.9715  -21.2465  -14.9838 N   0  0  0  0  0  0  0  0  0  0  0  0
   27.1439  -20.9959  -12.7773 C   0  0  0  0  0  0  0  0  0  0  0  0
   26.2458  -21.8691  -12.9912 O   0  0  0  0  0  0  0  0  0  0  0  0
   26.2111  -20.0095   -4.9410 C   0  0  0  0  0  0  0  0  0  0  0  0
   27.0987  -19.8127   -6.5077 S   0  0  0  0  0  0  0  0  0  0  0  0
   26.1662  -20.6056   -7.8750 C   0  0  0  0  0  0  0  0  0  0  0  0
   27.0158  -20.4530   -9.0982 C   0  0  0  0  0  0  0  0  0  0  0  0
   26.4456  -21.0161  -10.3561 C   0  0  2  0  0  0  0  0  0  0  0  0
   27.4195  -20.7176  -11.4118 N   0  0  0  0  0  0  0  0  0  0  0  0
   25.1725  -20.3129  -10.6683 C   0  0  0  0  0  0  0  0  0  0  0  0
   25.0470  -19.0767  -10.7599 O   0  0  0  0  0  0  0  0  0  0  0  0
   21.8599  -19.1273  -14.5972 C   0  0  0  0  0  0  0  0  0  0  0  0
   21.4913  -20.1922  -13.5720 C   0  0  0  0  0  0  0  0  0  0  0  0
   22.7140  -20.7626  -12.9340 C   0  0  2  0  0  0  0  0  0  0  0  0
   22.9715  -22.1935  -13.3220 C   0  0  0  0  0  0  0  0  0  0  0  0
   22.7712  -20.5218  -11.4436 C   0  0  2  0  0  0  0  0  0  0  0  0
   23.9849  -21.0705  -10.8847 N   0  0  0  0  0  0  0  0  0  0  0  0
   21.5623  -20.9431  -10.7164 C   0  0  0  0  0  0  0  0  0  0  0  0
   20.4656  -20.3575  -10.9229 O   0  0  0  0  0  0  0  0  0  0  0  0
   21.5306  -21.9712   -9.7881 O   0  0  0  0  0  0  0  0  0  0  0  0
  1  2  1  0
  3  2  1  0
  3  4  1  0
  5  6  1  6
  5  4  1  0
  7  5  1  0
  8  7  2  0
 10  9  1  0
 10 11  1  0
 12 11  1  0
 13 12  1  1
 13 14  1  0
 14  7  1  0
 15 13  1  0
 15 16  2  0
 17 18  1  0
 18 19  1  0
 19 20  1  1
 21 19  1  0
 21 22  1  1
 22 15  1  0
 23 21  1  0
 24 23  2  0
 25 23  1  0
M  END
$$$$
