MMI.pdb
     RDKit          3D

 25 24  0  0  1  0  0  0  0  0999 V2000
   15.7043   -7.0902   -7.4707 C   0  0  0  0  0  0  0  0  0  0  0  0
   13.9590   -7.4575   -7.7517 S   0  0  0  0  0  0  0  0  0  0  0  0
   13.8225   -8.4879   -9.2511 C   0  0  0  0  0  0  0  0  0  0  0  0
   15.0558   -8.2163  -10.0900 C   0  0  0  0  0  0  0  0  0  0  0  0
   14.9738   -9.0782  -11.3210 C   0  0  2  0  0  0  0  0  0  0  0  0
   15.1952  -10.4757  -11.0109 N   0  0  0  0  0  0  0  0  0  0  0  0
   15.9887   -8.6830  -12.3424 C   0  0  0  0  0  0  0  0  0  0  0  0
   16.9673   -9.4325  -12.6513 O   0  0  0  0  0  0  0  0  0  0  0  0
   14.9288   -4.6925  -17.3730 C   0  0  0  0  0  0  0  0  0  0  0  0
   16.3720   -3.9468  -16.5717 S   0  0  0  0  0  0  0  0  0  0  0  0
   17.3558   -5.2302  -15.7040 C   0  0  0  0  0  0  0  0  0  0  0  0
   16.4363   -5.8441  -14.6945 C   0  0  0  0  0  0  0  0  0  0  0  0
   16.9804   -7.0191  -13.9543 C   0  0  2  0  0  0  0  0  0  0  0  0
   15.9215   -7.4428  -13.0317 N   0  0  0  0  0  0  0  0  0  0  0  0
   18.1612   -6.5866  -13.1596 C   0  0  0  0  0  0  0  0  0  0  0  0
   18.1034   -6.0113  -12.0560 O   0  0  0  0  0  0  0  0  0  0  0  0
   22.9142   -9.3761  -11.2602 C   0  0  0  0  0  0  0  0  0  0  0  0
   22.4381   -7.9799  -11.6406 C   0  0  0  0  0  0  0  0  0  0  0  0
   21.2591   -8.0498  -12.5530 C   0  0  2  0  0  0  0  0  0  0  0  0
   21.5031   -8.8982  -13.7715 C   0  0  0  0  0  0  0  0  0  0  0  0
   20.6742   -6.6932  -12.8695 C   0  0  2  0  0  0  0  0  0  0  0  0
   19.4733   -6.8277  -13.6609 N   0  0  0  0  0  0  0  0  0  0  0  0
   21.6370   -5.7391  -13.4443 C   0  0  0  0  0  0  0  0  0  0  0  0
   21.5935   -5.4618  -14.6730 O   0  0  0  0  0  0  0  0  0  0  0  0
   22.6248   -5.0957  -12.7164 O   0  0  0  0  0  0  0  0  0  0  0  0
  1  2  1  0
  3  2  1  0
  3  4  1  0
  5  6  1  1
  5  4  1  0
  7  5  1  0
  8  7  2  0
 10  9  1  0
 10 11  1  0
 12 11  1  0
 13 12  1  1
 13 14  1  0
 14  7  1  0
 15 13  1  0
 15 16  2  0
 17 18  1  0
 18 19  1  0
 19 20  1  6
 21 19  1  0
 21 22  1  6
 22 15  1  0
 23 21  1  0
 24 23  2  0
 25 23  1  0
M  END
$$$$
