MMI.pdb
     RDKit          3D

 25 24  0  0  1  0  0  0  0  0999 V2000
   26.7391  -16.2066  -14.5632 C   0  0  0  0  0  0  0  0  0  0  0  0
   28.4652  -16.6274  -14.8846 S   0  0  0  0  0  0  0  0  0  0  0  0
   28.5082  -18.1458  -15.8953 C   0  0  0  0  0  0  0  0  0  0  0  0
   27.4235  -19.0627  -15.3651 C   0  0  0  0  0  0  0  0  0  0  0  0
   28.0929  -20.1755  -14.6046 C   0  0  2  0  0  0  0  0  0  0  0  0
   28.7112  -21.1356  -15.4958 N   0  0  0  0  0  0  0  0  0  0  0  0
   27.1239  -20.9228  -13.7489 C   0  0  0  0  0  0  0  0  0  0  0  0
   26.4192  -21.8795  -14.1992 O   0  0  0  0  0  0  0  0  0  0  0  0
   26.2631  -19.1586   -7.5113 C   0  0  0  0  0  0  0  0  0  0  0  0
   25.7719  -20.9021   -7.5248 S   0  0  0  0  0  0  0  0  0  0  0  0
   25.1234  -21.3710   -9.1763 C   0  0  0  0  0  0  0  0  0  0  0  0
   26.1265  -20.8745  -10.1708 C   0  0  0  0  0  0  0  0  0  0  0  0
   25.8473  -21.2145  -11.5959 C   0  0  2  0  0  0  0  0  0  0  0  0
   26.9309  -20.6083  -12.3771 N   0  0  0  0  0  0  0  0  0  0  0  0
   24.5596  -20.5888  -11.9999 C   0  0  0  0  0  0  0  0  0  0  0  0
   24.3591  -19.3616  -12.0781 O   0  0  0  0  0  0  0  0  0  0  0  0
   22.8790  -21.0769  -16.5575 C   0  0  0  0  0  0  0  0  0  0  0  0
   23.0776  -20.6721  -15.1024 C   0  0  0  0  0  0  0  0  0  0  0  0
   21.9717  -21.1965  -14.2484 C   0  0  2  0  0  0  0  0  0  0  0  0
   20.6048  -20.8207  -14.7531 C   0  0  0  0  0  0  0  0  0  0  0  0
   22.1719  -20.9100  -12.7785 C   0  0  2  0  0  0  0  0  0  0  0  0
   23.4476  -21.4171  -12.3293 N   0  0  0  0  0  0  0  0  0  0  0  0
   21.0516  -21.3335  -11.9221 C   0  0  0  0  0  0  0  0  0  0  0  0
   20.9756  -22.5281  -11.5276 O   0  0  0  0  0  0  0  0  0  0  0  0
   20.0351  -20.4932  -11.4975 O   0  0  0  0  0  0  0  0  0  0  0  0
  1  2  1  0
  3  2  1  0
  3  4  1  0
  5  6  1  6
  5  4  1  0
  7  5  1  0
  8  7  2  0
 10  9  1  0
 10 11  1  0
 12 11  1  0
 13 12  1  1
 13 14  1  0
 14  7  1  0
 15 13  1  0
 15 16  2  0
 17 18  1  0
 18 19  1  0
 19 20  1  6
 21 19  1  0
 21 22  1  1
 22 15  1  0
 23 21  1  0
 24 23  2  0
 25 23  1  0
M  END
$$$$
