MMI.pdb
     RDKit          3D

 25 24  0  0  1  0  0  0  0  0999 V2000
   18.3836  -11.9104  -14.1203 C   0  0  0  0  0  0  0  0  0  0  0  0
   17.3393  -13.2658  -13.5440 S   0  0  0  0  0  0  0  0  0  0  0  0
   16.3523  -12.6698  -12.1300 C   0  0  0  0  0  0  0  0  0  0  0  0
   16.1518  -11.1798  -12.3253 C   0  0  0  0  0  0  0  0  0  0  0  0
   15.3694  -10.6627  -11.1484 C   0  0  2  0  0  0  0  0  0  0  0  0
   14.1617  -11.4321  -10.9296 N   0  0  0  0  0  0  0  0  0  0  0  0
   14.9614   -9.2388  -11.3369 C   0  0  0  0  0  0  0  0  0  0  0  0
   13.9437   -8.9101  -12.0232 O   0  0  0  0  0  0  0  0  0  0  0  0
   15.4062   -5.7287   -6.5300 C   0  0  0  0  0  0  0  0  0  0  0  0
   14.0627   -5.0830   -7.5591 S   0  0  0  0  0  0  0  0  0  0  0  0
   13.9006   -6.0743   -9.0950 C   0  0  0  0  0  0  0  0  0  0  0  0
   15.2573   -6.0810   -9.7281 C   0  0  0  0  0  0  0  0  0  0  0  0
   15.3508   -6.7656  -11.0498 C   0  0  2  0  0  0  0  0  0  0  0  0
   15.6882   -8.1634  -10.7595 N   0  0  0  0  0  0  0  0  0  0  0  0
   16.4612   -6.1591  -11.8321 C   0  0  0  0  0  0  0  0  0  0  0  0
   17.6716   -6.2900  -11.5675 O   0  0  0  0  0  0  0  0  0  0  0  0
   16.9584   -6.7129  -17.0336 C   0  0  0  0  0  0  0  0  0  0  0  0
   17.2796   -6.4218  -15.5732 C   0  0  0  0  0  0  0  0  0  0  0  0
   16.9802   -4.9991  -15.2357 C   0  0  2  0  0  0  0  0  0  0  0  0
   17.6636   -4.0177  -16.1489 C   0  0  0  0  0  0  0  0  0  0  0  0
   17.1640   -4.6874  -13.7689 C   0  0  2  0  0  0  0  0  0  0  0  0
   16.1631   -5.3614  -12.9749 N   0  0  0  0  0  0  0  0  0  0  0  0
   17.2664   -3.2504  -13.4646 C   0  0  0  0  0  0  0  0  0  0  0  0
   18.3672   -2.6528  -13.6043 O   0  0  0  0  0  0  0  0  0  0  0  0
   16.2103   -2.4712  -13.0206 O   0  0  0  0  0  0  0  0  0  0  0  0
  1  2  1  0
  3  2  1  0
  3  4  1  0
  5  6  1  6
  5  4  1  0
  7  5  1  0
  8  7  2  0
 10  9  1  0
 10 11  1  0
 12 11  1  0
 13 12  1  1
 13 14  1  0
 14  7  1  0
 15 13  1  0
 15 16  2  0
 17 18  1  0
 18 19  1  0
 19 20  1  6
 21 19  1  0
 21 22  1  1
 22 15  1  0
 23 21  1  0
 24 23  2  0
 25 23  1  0
M  END
$$$$
