MMI.pdb
     RDKit          3D

 25 24  0  0  1  0  0  0  0  0999 V2000
   24.8981  -17.1891  -16.7186 C   0  0  0  0  0  0  0  0  0  0  0  0
   26.3741  -16.5989  -17.5747 S   0  0  0  0  0  0  0  0  0  0  0  0
   27.5925  -17.9561  -17.6221 C   0  0  0  0  0  0  0  0  0  0  0  0
   27.2243  -18.9219  -16.5130 C   0  0  0  0  0  0  0  0  0  0  0  0
   28.2913  -19.9814  -16.4525 C   0  0  2  0  0  0  0  0  0  0  0  0
   28.1902  -20.9060  -17.5630 N   0  0  0  0  0  0  0  0  0  0  0  0
   28.2047  -20.7839  -15.1963 C   0  0  0  0  0  0  0  0  0  0  0  0
   27.4718  -21.8176  -15.1012 O   0  0  0  0  0  0  0  0  0  0  0  0
   32.5424  -22.6028   -9.9845 C   0  0  0  0  0  0  0  0  0  0  0  0
   31.4785  -21.1503   -9.7859 S   0  0  0  0  0  0  0  0  0  0  0  0
   29.8291  -21.4596  -10.5286 C   0  0  0  0  0  0  0  0  0  0  0  0
   29.9020  -20.9379  -11.9300 C   0  0  0  0  0  0  0  0  0  0  0  0
   28.6499  -21.0593  -12.7313 C   0  0  2  0  0  0  0  0  0  0  0  0
   28.9375  -20.4391  -14.0293 N   0  0  0  0  0  0  0  0  0  0  0  0
   27.5694  -20.2864  -12.0619 C   0  0  0  0  0  0  0  0  0  0  0  0
   27.2597  -19.1117  -12.3381 O   0  0  0  0  0  0  0  0  0  0  0  0
   22.3044  -20.0587  -12.7799 C   0  0  0  0  0  0  0  0  0  0  0  0
   23.1758  -20.0379  -11.5305 C   0  0  0  0  0  0  0  0  0  0  0  0
   24.5319  -20.5907  -11.8181 C   0  0  2  0  0  0  0  0  0  0  0  0
   24.4936  -21.9660  -12.4274 C   0  0  0  0  0  0  0  0  0  0  0  0
   25.4787  -20.4760  -10.6464 C   0  0  2  0  0  0  0  0  0  0  0  0
   26.8087  -20.8961  -11.0224 N   0  0  0  0  0  0  0  0  0  0  0  0
   24.9981  -21.1249   -9.4152 C   0  0  0  0  0  0  0  0  0  0  0  0
   23.9092  -20.7621   -8.8946 O   0  0  0  0  0  0  0  0  0  0  0  0
   25.6710  -22.1416   -8.7571 O   0  0  0  0  0  0  0  0  0  0  0  0
  1  2  1  0
  3  2  1  0
  3  4  1  0
  5  6  1  6
  5  4  1  0
  7  5  1  0
  8  7  2  0
 10  9  1  0
 10 11  1  0
 12 11  1  0
 13 12  1  1
 13 14  1  0
 14  7  1  0
 15 13  1  0
 15 16  2  0
 17 18  1  0
 18 19  1  0
 19 20  1  1
 21 19  1  0
 21 22  1  6
 22 15  1  0
 23 21  1  0
 24 23  2  0
 25 23  1  0
M  END
$$$$
