MMI.pdb
     RDKit          3D

 25 24  0  0  1  0  0  0  0  0999 V2000
   27.1070  -16.3115  -15.3908 C   0  0  0  0  0  0  0  0  0  0  0  0
   28.5089  -17.4489  -15.4207 S   0  0  0  0  0  0  0  0  0  0  0  0
   28.1424  -18.7819  -16.6114 C   0  0  0  0  0  0  0  0  0  0  0  0
   27.1381  -19.7046  -15.9494 C   0  0  0  0  0  0  0  0  0  0  0  0
   27.8683  -20.5070  -14.9064 C   0  0  2  0  0  0  0  0  0  0  0  0
   28.6754  -21.5512  -15.5034 N   0  0  0  0  0  0  0  0  0  0  0  0
   26.9259  -21.1638  -13.9526 C   0  0  0  0  0  0  0  0  0  0  0  0
   26.2434  -22.1876  -14.2703 O   0  0  0  0  0  0  0  0  0  0  0  0
   26.4952  -19.3174   -7.5693 C   0  0  0  0  0  0  0  0  0  0  0  0
   26.1274  -21.0867   -7.6933 S   0  0  0  0  0  0  0  0  0  0  0  0
   25.2550  -21.4497   -9.2665 C   0  0  0  0  0  0  0  0  0  0  0  0
   26.1265  -20.9089  -10.3571 C   0  0  0  0  0  0  0  0  0  0  0  0
   25.7084  -21.2491  -11.7478 C   0  0  2  0  0  0  0  0  0  0  0  0
   26.7347  -20.6826  -12.6298 N   0  0  0  0  0  0  0  0  0  0  0  0
   24.4093  -20.5856  -12.0392 C   0  0  0  0  0  0  0  0  0  0  0  0
   24.2337  -19.3528  -12.0788 O   0  0  0  0  0  0  0  0  0  0  0  0
   22.3957  -21.1558  -16.4939 C   0  0  0  0  0  0  0  0  0  0  0  0
   22.7292  -20.7364  -15.0678 C   0  0  0  0  0  0  0  0  0  0  0  0
   21.6617  -21.1739  -14.1210 C   0  0  2  0  0  0  0  0  0  0  0  0
   20.2816  -20.7559  -14.5507 C   0  0  0  0  0  0  0  0  0  0  0  0
   21.9732  -20.8377  -12.6813 C   0  0  2  0  0  0  0  0  0  0  0  0
   23.2551  -21.3810  -12.2966 N   0  0  0  0  0  0  0  0  0  0  0  0
   20.8978  -21.1779  -11.7350 C   0  0  0  0  0  0  0  0  0  0  0  0
   20.8028  -22.3504  -11.2827 O   0  0  0  0  0  0  0  0  0  0  0  0
   19.9450  -20.2792  -11.2830 O   0  0  0  0  0  0  0  0  0  0  0  0
  1  2  1  0
  3  2  1  0
  3  4  1  0
  5  6  1  6
  5  4  1  0
  7  5  1  0
  8  7  2  0
 10  9  1  0
 10 11  1  0
 12 11  1  0
 13 12  1  1
 13 14  1  0
 14  7  1  0
 15 13  1  0
 15 16  2  0
 17 18  1  0
 18 19  1  0
 19 20  1  6
 21 19  1  0
 21 22  1  1
 22 15  1  0
 23 21  1  0
 24 23  2  0
 25 23  1  0
M  END
$$$$
