MMI.pdb
     RDKit          3D

 25 24  0  0  1  0  0  0  0  0999 V2000
   21.1540  -20.3157  -10.3832 C   0  0  0  0  0  0  0  0  0  0  0  0
   21.3237  -20.1407  -12.1722 S   0  0  0  0  0  0  0  0  0  0  0  0
   23.0961  -20.2394  -12.5939 C   0  0  0  0  0  0  0  0  0  0  0  0
   23.8140  -20.7758  -11.3710 C   0  0  0  0  0  0  0  0  0  0  0  0
   25.2885  -20.7876  -11.6715 C   0  0  2  0  0  0  0  0  0  0  0  0
   25.5969  -21.6384  -12.8025 N   0  0  0  0  0  0  0  0  0  0  0  0
   26.0864  -21.2839  -10.5110 C   0  0  0  0  0  0  0  0  0  0  0  0
   25.6435  -22.1669   -9.7116 O   0  0  0  0  0  0  0  0  0  0  0  0
   31.9423  -22.4135  -11.1180 C   0  0  0  0  0  0  0  0  0  0  0  0
   32.1705  -21.9796   -9.3743 S   0  0  0  0  0  0  0  0  0  0  0  0
   30.5488  -21.8916   -8.5197 C   0  0  0  0  0  0  0  0  0  0  0  0
   29.5606  -21.4465   -9.5525 C   0  0  0  0  0  0  0  0  0  0  0  0
   28.1574  -21.2792   -9.0754 C   0  0  2  0  0  0  0  0  0  0  0  0
   27.3912  -20.7978  -10.2300 N   0  0  0  0  0  0  0  0  0  0  0  0
   28.1275  -20.2370   -8.0144 C   0  0  0  0  0  0  0  0  0  0  0  0
   27.9310  -19.0232   -8.2155 O   0  0  0  0  0  0  0  0  0  0  0  0
   25.8204  -21.4692   -3.2850 C   0  0  0  0  0  0  0  0  0  0  0  0
   26.3457  -20.7605   -4.5270 C   0  0  0  0  0  0  0  0  0  0  0  0
   27.7461  -20.2887   -4.3183 C   0  0  2  0  0  0  0  0  0  0  0  0
   27.9081  -19.4425   -3.0846 C   0  0  0  0  0  0  0  0  0  0  0  0
   28.3541  -19.6726   -5.5566 C   0  0  2  0  0  0  0  0  0  0  0  0
   28.3350  -20.6107   -6.6548 N   0  0  0  0  0  0  0  0  0  0  0  0
   29.6785  -19.0662   -5.3421 C   0  0  0  0  0  0  0  0  0  0  0  0
   30.7223  -19.7180   -5.6141 O   0  0  0  0  0  0  0  0  0  0  0  0
   29.8787  -17.7878   -4.8471 O   0  0  0  0  0  0  0  0  0  0  0  0
  1  2  1  0
  3  2  1  0
  3  4  1  0
  5  6  1  6
  5  4  1  0
  7  5  1  0
  8  7  2  0
 10  9  1  0
 10 11  1  0
 12 11  1  0
 13 12  1  6
 13 14  1  0
 14  7  1  0
 15 13  1  0
 15 16  2  0
 17 18  1  0
 18 19  1  0
 19 20  1  1
 21 19  1  0
 21 22  1  6
 22 15  1  0
 23 21  1  0
 24 23  2  0
 25 23  1  0
M  END
$$$$
