MMI.pdb
     RDKit          3D

 25 24  0  0  1  0  0  0  0  0999 V2000
   26.0489  -19.1624   -7.2601 C   0  0  0  0  0  0  0  0  0  0  0  0
   27.0996  -20.6259   -7.3797 S   0  0  0  0  0  0  0  0  0  0  0  0
   26.8857  -21.3530   -9.0394 C   0  0  0  0  0  0  0  0  0  0  0  0
   25.8611  -20.5048   -9.7668 C   0  0  0  0  0  0  0  0  0  0  0  0
   25.6885  -21.0759  -11.1484 C   0  0  2  0  0  0  0  0  0  0  0  0
   26.9340  -21.6010  -11.6693 N   0  0  0  0  0  0  0  0  0  0  0  0
   25.2000  -20.0484  -12.1155 C   0  0  0  0  0  0  0  0  0  0  0  0
   24.0703  -19.4805  -11.9885 O   0  0  0  0  0  0  0  0  0  0  0  0
   29.1565  -18.0032  -16.7396 C   0  0  0  0  0  0  0  0  0  0  0  0
   28.2025  -16.4978  -16.4160 S   0  0  0  0  0  0  0  0  0  0  0  0
   26.5417  -16.9218  -15.7604 C   0  0  0  0  0  0  0  0  0  0  0  0
   26.7544  -18.0378  -14.7854 C   0  0  0  0  0  0  0  0  0  0  0  0
   25.5245  -18.5631  -14.1252 C   0  0  2  0  0  0  0  0  0  0  0  0
   25.9702  -19.6432  -13.2382 N   0  0  0  0  0  0  0  0  0  0  0  0
   24.6256  -19.1372  -15.1621 C   0  0  0  0  0  0  0  0  0  0  0  0
   24.9408  -20.0489  -15.9506 O   0  0  0  0  0  0  0  0  0  0  0  0
   20.7741  -22.8101  -15.8918 C   0  0  0  0  0  0  0  0  0  0  0  0
   20.9377  -21.3730  -16.3702 C   0  0  0  0  0  0  0  0  0  0  0  0
   22.0049  -20.6728  -15.5968 C   0  0  2  0  0  0  0  0  0  0  0  0
   21.8052  -20.7516  -14.1074 C   0  0  0  0  0  0  0  0  0  0  0  0
   22.2760  -19.2729  -16.0960 C   0  0  2  0  0  0  0  0  0  0  0  0
   23.2984  -18.6362  -15.2985 N   0  0  0  0  0  0  0  0  0  0  0  0
   21.0701  -18.4430  -16.2529 C   0  0  0  0  0  0  0  0  0  0  0  0
   20.2012  -18.7488  -17.1130 O   0  0  0  0  0  0  0  0  0  0  0  0
   20.8017  -17.3095  -15.5025 O   0  0  0  0  0  0  0  0  0  0  0  0
  1  2  1  0
  3  2  1  0
  3  4  1  0
  5  6  1  6
  5  4  1  0
  7  5  1  0
  8  7  2  0
 10  9  1  0
 10 11  1  0
 12 11  1  0
 13 12  1  6
 13 14  1  0
 14  7  1  0
 15 13  1  0
 15 16  2  0
 17 18  1  0
 18 19  1  0
 19 20  1  1
 21 19  1  0
 21 22  1  1
 22 15  1  0
 23 21  1  0
 24 23  2  0
 25 23  1  0
M  END
$$$$
