MMI.pdb
     RDKit          3D

 25 24  0  0  1  0  0  0  0  0999 V2000
   27.2707  -23.4786  -19.1909 C   0  0  0  0  0  0  0  0  0  0  0  0
   25.9489  -23.6775  -20.4046 S   0  0  0  0  0  0  0  0  0  0  0  0
   25.1869  -22.0457  -20.6973 C   0  0  0  0  0  0  0  0  0  0  0  0
   25.3157  -21.2582  -19.4082 C   0  0  0  0  0  0  0  0  0  0  0  0
   24.7003  -19.9035  -19.6333 C   0  0  2  0  0  0  0  0  0  0  0  0
   25.5413  -19.0654  -20.4631 N   0  0  0  0  0  0  0  0  0  0  0  0
   24.4771  -19.1760  -18.3485 C   0  0  0  0  0  0  0  0  0  0  0  0
   24.5258  -17.9087  -18.2695 O   0  0  0  0  0  0  0  0  0  0  0  0
   19.7799  -18.0622  -17.3157 C   0  0  0  0  0  0  0  0  0  0  0  0
   20.2538  -17.0616  -15.8822 S   0  0  0  0  0  0  0  0  0  0  0  0
   21.8690  -17.6234  -15.2161 C   0  0  0  0  0  0  0  0  0  0  0  0
   22.5085  -18.4273  -16.3052 C   0  0  0  0  0  0  0  0  0  0  0  0
   23.7652  -19.1384  -15.9315 C   0  0  2  0  0  0  0  0  0  0  0  0
   24.1967  -19.8584  -17.1346 N   0  0  0  0  0  0  0  0  0  0  0  0
   23.4620  -20.1298  -14.8647 C   0  0  0  0  0  0  0  0  0  0  0  0
   22.7411  -21.1351  -15.0125 O   0  0  0  0  0  0  0  0  0  0  0  0
   27.3948  -21.1467  -11.2071 C   0  0  0  0  0  0  0  0  0  0  0  0
   26.2174  -21.2916  -12.1628 C   0  0  0  0  0  0  0  0  0  0  0  0
   24.9457  -20.8637  -11.5094 C   0  0  2  0  0  0  0  0  0  0  0  0
   24.6702  -21.5877  -10.2194 C   0  0  0  0  0  0  0  0  0  0  0  0
   23.7689  -20.8496  -12.4567 C   0  0  2  0  0  0  0  0  0  0  0  0
   24.0155  -19.9544  -13.5632 N   0  0  0  0  0  0  0  0  0  0  0  0
   22.4706  -20.6121  -11.8042 C   0  0  0  0  0  0  0  0  0  0  0  0
   21.8584  -21.5651  -11.2515 O   0  0  0  0  0  0  0  0  0  0  0  0
   21.8427  -19.3784  -11.7454 O   0  0  0  0  0  0  0  0  0  0  0  0
  1  2  1  0
  3  2  1  0
  3  4  1  0
  5  6  1  6
  5  4  1  0
  7  5  1  0
  8  7  2  0
 10  9  1  0
 10 11  1  0
 12 11  1  0
 13 12  1  6
 13 14  1  0
 14  7  1  0
 15 13  1  0
 15 16  2  0
 17 18  1  0
 18 19  1  0
 19 20  1  1
 21 19  1  0
 21 22  1  6
 22 15  1  0
 23 21  1  0
 24 23  2  0
 25 23  1  0
M  END
$$$$
