MMI.pdb
     RDKit          3D

 25 24  0  0  1  0  0  0  0  0999 V2000
   18.8807  -15.1347  -22.8623 C   0  0  0  0  0  0  0  0  0  0  0  0
   19.1565  -13.9090  -21.5657 S   0  0  0  0  0  0  0  0  0  0  0  0
   20.4526  -14.5380  -20.4462 C   0  0  0  0  0  0  0  0  0  0  0  0
   20.5781  -13.5432  -19.3091 C   0  0  0  0  0  0  0  0  0  0  0  0
   21.7061  -13.9975  -18.4226 C   0  0  2  0  0  0  0  0  0  0  0  0
   21.4282  -15.2861  -17.8219 N   0  0  0  0  0  0  0  0  0  0  0  0
   21.9594  -13.0338  -17.3106 C   0  0  0  0  0  0  0  0  0  0  0  0
   21.3076  -13.0697  -16.2204 O   0  0  0  0  0  0  0  0  0  0  0  0
   28.2107  -12.9033  -15.0020 C   0  0  0  0  0  0  0  0  0  0  0  0
   27.1898  -11.6697  -15.8486 S   0  0  0  0  0  0  0  0  0  0  0  0
   25.4095  -12.0701  -15.6533 C   0  0  0  0  0  0  0  0  0  0  0  0
   24.6589  -10.9032  -16.2157 C   0  0  0  0  0  0  0  0  0  0  0  0
   23.1796  -11.0697  -16.3087 C   0  0  2  0  0  0  0  0  0  0  0  0
   22.9463  -12.0163  -17.4048 N   0  0  0  0  0  0  0  0  0  0  0  0
   22.5666   -9.7628  -16.6678 C   0  0  0  0  0  0  0  0  0  0  0  0
   22.7004   -9.1931  -17.7677 O   0  0  0  0  0  0  0  0  0  0  0  0
   17.6996   -6.9547  -17.4698 C   0  0  0  0  0  0  0  0  0  0  0  0
   19.0687   -6.7001  -16.8522 C   0  0  0  0  0  0  0  0  0  0  0  0
   19.7215   -7.9830  -16.4578 C   0  0  2  0  0  0  0  0  0  0  0  0
   18.8683   -8.8267  -15.5498 C   0  0  0  0  0  0  0  0  0  0  0  0
   21.1353   -7.7987  -15.9579 C   0  0  2  0  0  0  0  0  0  0  0  0
   21.7604   -9.0776  -15.7130 N   0  0  0  0  0  0  0  0  0  0  0  0
   21.2581   -6.8722  -14.8202 C   0  0  0  0  0  0  0  0  0  0  0  0
   21.0023   -5.6476  -14.9732 O   0  0  0  0  0  0  0  0  0  0  0  0
   21.6463   -7.2515  -13.5454 O   0  0  0  0  0  0  0  0  0  0  0  0
  1  2  1  0
  3  2  1  0
  3  4  1  0
  5  6  1  1
  5  4  1  0
  7  5  1  0
  8  7  2  0
 10  9  1  0
 10 11  1  0
 12 11  1  0
 13 12  1  6
 13 14  1  0
 14  7  1  0
 15 13  1  0
 15 16  2  0
 17 18  1  0
 18 19  1  0
 19 20  1  1
 21 19  1  0
 21 22  1  1
 22 15  1  0
 23 21  1  0
 24 23  2  0
 25 23  1  0
M  END
$$$$
