MMI.pdb
     RDKit          3D

 25 24  0  0  1  0  0  0  0  0999 V2000
   20.9691  -24.8581  -14.3783 C   0  0  0  0  0  0  0  0  0  0  0  0
   20.4011  -24.3620  -12.7378 S   0  0  0  0  0  0  0  0  0  0  0  0
   19.5996  -22.7289  -12.8765 C   0  0  0  0  0  0  0  0  0  0  0  0
   20.6825  -21.7327  -13.2416 C   0  0  0  0  0  0  0  0  0  0  0  0
   21.4292  -21.3829  -11.9827 C   0  0  2  0  0  0  0  0  0  0  0  0
   20.5653  -20.7508  -11.0068 N   0  0  0  0  0  0  0  0  0  0  0  0
   22.5586  -20.4438  -12.2513 C   0  0  0  0  0  0  0  0  0  0  0  0
   22.3747  -19.2036  -12.4583 O   0  0  0  0  0  0  0  0  0  0  0  0
   28.2042  -20.5335   -9.7389 C   0  0  0  0  0  0  0  0  0  0  0  0
   27.9336  -22.0199  -10.7381 S   0  0  0  0  0  0  0  0  0  0  0  0
   26.4069  -21.8466  -11.7416 C   0  0  0  0  0  0  0  0  0  0  0  0
   26.1860  -20.3753  -11.9081 C   0  0  0  0  0  0  0  0  0  0  0  0
   24.9931  -19.9875  -12.7151 C   0  0  2  0  0  0  0  0  0  0  0  0
   23.9095  -20.8812  -12.2920 N   0  0  0  0  0  0  0  0  0  0  0  0
   25.2807  -20.2334  -14.1537 C   0  0  0  0  0  0  0  0  0  0  0  0
   25.1371  -21.3285  -14.7304 O   0  0  0  0  0  0  0  0  0  0  0  0
   23.4845  -16.7455  -17.6626 C   0  0  0  0  0  0  0  0  0  0  0  0
   24.0032  -17.9846  -16.9438 C   0  0  0  0  0  0  0  0  0  0  0  0
   25.4711  -18.1485  -17.1575 C   0  0  2  0  0  0  0  0  0  0  0  0
   25.8614  -18.1486  -18.6108 C   0  0  0  0  0  0  0  0  0  0  0  0
   26.0584  -19.2996  -16.3749 C   0  0  2  0  0  0  0  0  0  0  0  0
   25.7581  -19.1659  -14.9684 N   0  0  0  0  0  0  0  0  0  0  0  0
   27.4869  -19.5420  -16.6367 C   0  0  0  0  0  0  0  0  0  0  0  0
   28.3626  -18.8662  -16.0327 O   0  0  0  0  0  0  0  0  0  0  0  0
   27.9655  -20.4896  -17.5269 O   0  0  0  0  0  0  0  0  0  0  0  0
  1  2  1  0
  3  2  1  0
  3  4  1  0
  5  6  1  1
  5  4  1  0
  7  5  1  0
  8  7  2  0
 10  9  1  0
 10 11  1  0
 12 11  1  0
 13 12  1  1
 13 14  1  0
 14  7  1  0
 15 13  1  0
 15 16  2  0
 17 18  1  0
 18 19  1  0
 19 20  1  6
 21 19  1  0
 21 22  1  1
 22 15  1  0
 23 21  1  0
 24 23  2  0
 25 23  1  0
M  END
$$$$
