MMI.pdb
     RDKit          3D

 25 24  0  0  1  0  0  0  0  0999 V2000
   21.0723  -21.8584  -12.4431 C   0  0  0  0  0  0  0  0  0  0  0  0
   19.7467  -20.8335  -13.1157 S   0  0  0  0  0  0  0  0  0  0  0  0
   20.4683  -19.6935  -14.3439 C   0  0  0  0  0  0  0  0  0  0  0  0
   21.9466  -20.0171  -14.4350 C   0  0  0  0  0  0  0  0  0  0  0  0
   22.5772  -19.0271  -15.3767 C   0  0  2  0  0  0  0  0  0  0  0  0
   21.9697  -19.0775  -16.6908 N   0  0  0  0  0  0  0  0  0  0  0  0
   24.0379  -19.2820  -15.5520 C   0  0  0  0  0  0  0  0  0  0  0  0
   24.4787  -20.2601  -16.2331 O   0  0  0  0  0  0  0  0  0  0  0  0
   26.5916  -14.0208  -14.7141 C   0  0  0  0  0  0  0  0  0  0  0  0
   27.7677  -14.9015  -15.7734 S   0  0  0  0  0  0  0  0  0  0  0  0
   27.0886  -16.5346  -16.2631 C   0  0  0  0  0  0  0  0  0  0  0  0
   27.1381  -17.3884  -15.0343 C   0  0  0  0  0  0  0  0  0  0  0  0
   26.4573  -18.7114  -15.1382 C   0  0  2  0  0  0  0  0  0  0  0  0
   25.0250  -18.4450  -14.9664 N   0  0  0  0  0  0  0  0  0  0  0  0
   26.9180  -19.5822  -14.0235 C   0  0  0  0  0  0  0  0  0  0  0  0
   28.0663  -20.0540  -13.9179 O   0  0  0  0  0  0  0  0  0  0  0  0
   26.7576  -18.8189   -8.9079 C   0  0  0  0  0  0  0  0  0  0  0  0
   27.0339  -19.3765  -10.2985 C   0  0  0  0  0  0  0  0  0  0  0  0
   26.1009  -20.4968  -10.6177 C   0  0  2  0  0  0  0  0  0  0  0  0
   26.1197  -21.5944   -9.5886 C   0  0  0  0  0  0  0  0  0  0  0  0
   26.2404  -20.9973  -12.0364 C   0  0  2  0  0  0  0  0  0  0  0  0
   26.0114  -19.9275  -12.9795 N   0  0  0  0  0  0  0  0  0  0  0  0
   25.4491  -22.2031  -12.3324 C   0  0  0  0  0  0  0  0  0  0  0  0
   25.6764  -23.2754  -11.7104 O   0  0  0  0  0  0  0  0  0  0  0  0
   24.4351  -22.2571  -13.2750 O   0  0  0  0  0  0  0  0  0  0  0  0
  1  2  1  0
  3  2  1  0
  3  4  1  0
  5  6  1  6
  5  4  1  0
  7  5  1  0
  8  7  2  0
 10  9  1  0
 10 11  1  0
 12 11  1  0
 13 12  1  1
 13 14  1  0
 14  7  1  0
 15 13  1  0
 15 16  2  0
 17 18  1  0
 18 19  1  0
 19 20  1  1
 21 19  1  0
 21 22  1  6
 22 15  1  0
 23 21  1  0
 24 23  2  0
 25 23  1  0
M  END
$$$$
