HTQ.pdb
     RDKit          3D

 27 27  0  0  1  0  0  0  0  0999 V2000
   16.9144  -12.8857  -15.7487 N   0  0  0  0  0  0  0  0  0  0  0  0
   16.7699  -11.4696  -15.5788 C   0  0  1  0  0  0  0  0  0  0  0  0
   15.8164  -11.1936  -14.4327 C   0  0  0  0  0  0  0  0  0  0  0  0
   14.4786  -11.6932  -14.8448 C   0  0  0  0  0  0  0  0  0  0  0  0
   13.4853  -10.9704  -15.4585 C   0  0  0  0  0  0  0  0  0  0  0  0
   12.3989  -11.7476  -15.6887 N   0  0  0  0  0  0  0  0  0  0  0  0
   12.7242  -12.9583  -15.2138 C   0  0  0  0  0  0  0  0  0  0  0  0
   13.9681  -12.9478  -14.7028 N   0  0  0  0  0  0  0  0  0  0  0  0
   18.0687  -10.7774  -15.3924 C   0  0  0  0  0  0  0  0  0  0  0  0
   18.8709  -11.2941  -14.5637 O   0  0  0  0  0  0  0  0  0  0  0  0
   20.7513  -10.2255  -17.8978 C   0  0  0  0  0  0  0  0  0  0  0  0
   20.5240   -8.9236  -17.1970 C   0  0  1  0  0  0  0  0  0  0  0  0
   19.7311   -8.1243  -18.0279 O   0  0  0  0  0  0  0  0  0  0  0  0
   19.7752   -9.0769  -15.8953 C   0  0  2  0  0  0  0  0  0  0  0  0
   18.4574   -9.6124  -16.0603 N   0  0  0  0  0  0  0  0  0  0  0  0
   19.7753   -7.7318  -15.2419 C   0  0  0  0  0  0  0  0  0  0  0  0
   18.6459   -7.1631  -15.1867 O   0  0  0  0  0  0  0  0  0  0  0  0
   18.1603   -5.7007  -10.9624 N   0  0  0  0  0  0  0  0  0  0  0  0
   19.4094   -6.2640  -10.5987 C   0  0  0  0  0  0  0  0  0  0  0  0
   19.6466   -6.6339   -9.4179 O   0  0  0  0  0  0  0  0  0  0  0  0
   20.4533   -6.4054  -11.6868 C   0  0  0  0  0  0  0  0  0  0  0  0
   19.8762   -5.8241  -12.9478 C   0  0  0  0  0  0  0  0  0  0  0  0
   20.8249   -5.8024  -14.1184 C   0  0  2  0  0  0  0  0  0  0  0  0
   20.9222   -7.1262  -14.7231 N   0  0  0  0  0  0  0  0  0  0  0  0
   22.1594   -5.3396  -13.7302 C   0  0  0  0  0  0  0  0  0  0  0  0
   23.1460   -6.1016  -13.7963 O   0  0  0  0  0  0  0  0  0  0  0  0
   22.4193   -4.0365  -13.2668 O   0  0  0  0  0  0  0  0  0  0  0  0
  2  3  1  0
  2  1  1  1
  3  4  1  0
  4  5  2  0
  4  8  1  0
  5  6  1  0
  6  7  1  0
  8  7  2  0
  9 10  2  0
  9  2  1  0
 12 11  1  6
 12 14  1  0
 13 12  1  0
 14 16  1  0
 14 15  1  6
 15  9  1  0
 16 24  1  0
 17 16  2  0
 19 21  1  0
 19 18  1  0
 20 19  2  0
 23 22  1  1
 22 21  1  0
 24 23  1  0
 25 27  1  0
 25 23  1  0
 26 25  2  0
M  END
$$$$
