HTQ.pdb
     RDKit          3D

 27 27  0  0  1  0  0  0  0  0999 V2000
   23.8949  -14.7245  -19.5129 N   0  0  0  0  0  0  0  0  0  0  0  0
   23.1718  -14.9366  -18.2934 C   0  0  1  0  0  0  0  0  0  0  0  0
   21.7244  -14.5289  -18.4876 C   0  0  0  0  0  0  0  0  0  0  0  0
   21.6991  -13.0484  -18.6166 C   0  0  0  0  0  0  0  0  0  0  0  0
   21.7196  -12.1343  -17.5921 C   0  0  0  0  0  0  0  0  0  0  0  0
   21.6857  -10.8691  -18.0773 N   0  0  0  0  0  0  0  0  0  0  0  0
   21.6441  -11.0036  -19.4105 C   0  0  0  0  0  0  0  0  0  0  0  0
   21.6513  -12.3033  -19.7556 N   0  0  0  0  0  0  0  0  0  0  0  0
   23.2885  -16.3272  -17.7901 C   0  0  0  0  0  0  0  0  0  0  0  0
   22.7629  -17.2312  -18.4998 O   0  0  0  0  0  0  0  0  0  0  0  0
   26.5457  -18.0870  -16.3719 C   0  0  0  0  0  0  0  0  0  0  0  0
   25.3441  -18.4002  -15.5376 C   0  0  1  0  0  0  0  0  0  0  0  0
   25.4012  -17.6014  -14.3902 O   0  0  0  0  0  0  0  0  0  0  0  0
   24.0433  -18.0754  -16.2309 C   0  0  2  0  0  0  0  0  0  0  0  0
   23.9298  -16.6977  -16.6044 N   0  0  0  0  0  0  0  0  0  0  0  0
   22.9485  -18.5182  -15.3136 C   0  0  0  0  0  0  0  0  0  0  0  0
   22.3740  -17.5874  -14.6769 O   0  0  0  0  0  0  0  0  0  0  0  0
   18.6638  -22.4978  -16.0579 N   0  0  0  0  0  0  0  0  0  0  0  0
   18.3399  -22.2215  -14.7057 C   0  0  0  0  0  0  0  0  0  0  0  0
   17.2575  -22.6136  -14.1940 O   0  0  0  0  0  0  0  0  0  0  0  0
   19.3477  -21.4338  -13.8948 C   0  0  0  0  0  0  0  0  0  0  0  0
   20.4394  -20.9942  -14.8307 C   0  0  0  0  0  0  0  0  0  0  0  0
   21.5383  -20.1949  -14.1794 C   0  0  2  0  0  0  0  0  0  0  0  0
   22.5689  -19.8530  -15.1532 N   0  0  0  0  0  0  0  0  0  0  0  0
   22.1428  -20.9140  -13.0554 C   0  0  0  0  0  0  0  0  0  0  0  0
   23.2504  -21.4770  -13.1765 O   0  0  0  0  0  0  0  0  0  0  0  0
   21.5347  -21.0196  -11.7907 O   0  0  0  0  0  0  0  0  0  0  0  0
  2  3  1  0
  2  1  1  6
  3  4  1  0
  4  5  2  0
  4  8  1  0
  5  6  1  0
  6  7  1  0
  8  7  2  0
  9 10  2  0
  9  2  1  0
 12 11  1  6
 12 14  1  0
 13 12  1  0
 14 16  1  0
 14 15  1  1
 15  9  1  0
 16 24  1  0
 17 16  2  0
 19 21  1  0
 19 18  1  0
 20 19  2  0
 23 22  1  6
 22 21  1  0
 24 23  1  0
 25 27  1  0
 25 23  1  0
 26 25  2  0
M  END
$$$$
