HTQ.pdb
     RDKit          3D

 27 27  0  0  1  0  0  0  0  0999 V2000
   27.9633  -19.4332  -16.7024 N   0  0  0  0  0  0  0  0  0  0  0  0
   27.3007  -18.3421  -17.3548 C   0  0  1  0  0  0  0  0  0  0  0  0
   26.6905  -18.8273  -18.6552 C   0  0  0  0  0  0  0  0  0  0  0  0
   27.8074  -19.2984  -19.5152 C   0  0  0  0  0  0  0  0  0  0  0  0
   28.6855  -18.5151  -20.2231 C   0  0  0  0  0  0  0  0  0  0  0  0
   29.5761  -19.2825  -20.8980 N   0  0  0  0  0  0  0  0  0  0  0  0
   29.2452  -20.5479  -20.6044 C   0  0  0  0  0  0  0  0  0  0  0  0
   28.1863  -20.5803  -19.7759 N   0  0  0  0  0  0  0  0  0  0  0  0
   26.2947  -17.6798  -16.4888 C   0  0  0  0  0  0  0  0  0  0  0  0
   25.9360  -18.3109  -15.4544 O   0  0  0  0  0  0  0  0  0  0  0  0
   26.5269  -14.2315  -14.8464 C   0  0  0  0  0  0  0  0  0  0  0  0
   25.1804  -14.3873  -15.4793 C   0  0  1  0  0  0  0  0  0  0  0  0
   25.2007  -13.7031  -16.6996 O   0  0  0  0  0  0  0  0  0  0  0  0
   24.8371  -15.8239  -15.7902 C   0  0  2  0  0  0  0  0  0  0  0  0
   25.7271  -16.4264  -16.7364 N   0  0  0  0  0  0  0  0  0  0  0  0
   23.4135  -15.8331  -16.2479 C   0  0  0  0  0  0  0  0  0  0  0  0
   23.2494  -16.0590  -17.4825 O   0  0  0  0  0  0  0  0  0  0  0  0
   19.0538  -18.5560  -14.3330 N   0  0  0  0  0  0  0  0  0  0  0  0
   18.1546  -17.7360  -15.0602 C   0  0  0  0  0  0  0  0  0  0  0  0
   17.0343  -18.1661  -15.4442 O   0  0  0  0  0  0  0  0  0  0  0  0
   18.5919  -16.3174  -15.3598 C   0  0  0  0  0  0  0  0  0  0  0  0
   20.0111  -16.1701  -14.8855 C   0  0  0  0  0  0  0  0  0  0  0  0
   20.9722  -15.6687  -15.9322 C   0  0  2  0  0  0  0  0  0  0  0  0
   22.3280  -15.6118  -15.3971 N   0  0  0  0  0  0  0  0  0  0  0  0
   20.5874  -14.3491  -16.4384 C   0  0  0  0  0  0  0  0  0  0  0  0
   21.1308  -13.3128  -16.0034 O   0  0  0  0  0  0  0  0  0  0  0  0
   19.6030  -14.1588  -17.4258 O   0  0  0  0  0  0  0  0  0  0  0  0
  2  3  1  0
  2  1  1  1
  3  4  1  0
  4  5  2  0
  4  8  1  0
  5  6  1  0
  6  7  1  0
  8  7  2  0
  9 10  2  0
  9  2  1  0
 12 11  1  6
 12 14  1  0
 13 12  1  0
 14 16  1  0
 14 15  1  6
 15  9  1  0
 16 24  1  0
 17 16  2  0
 19 21  1  0
 19 18  1  0
 20 19  2  0
 23 22  1  1
 22 21  1  0
 24 23  1  0
 25 27  1  0
 25 23  1  0
 26 25  2  0
M  END
$$$$
