HTQ.pdb
     RDKit          3D

 27 27  0  0  1  0  0  0  0  0999 V2000
   24.7506  -11.2851  -17.4446 N   0  0  0  0  0  0  0  0  0  0  0  0
   24.4683  -10.1416  -16.6273 C   0  0  1  0  0  0  0  0  0  0  0  0
   25.3826   -8.9992  -17.0247 C   0  0  0  0  0  0  0  0  0  0  0  0
   26.7800   -9.4825  -16.8734 C   0  0  0  0  0  0  0  0  0  0  0  0
   27.3673   -9.9501  -15.7235 C   0  0  0  0  0  0  0  0  0  0  0  0
   28.6550  -10.3057  -15.9530 N   0  0  0  0  0  0  0  0  0  0  0  0
   28.8636  -10.0557  -17.2534 C   0  0  0  0  0  0  0  0  0  0  0  0
   27.7512   -9.5612  -17.8249 N   0  0  0  0  0  0  0  0  0  0  0  0
   23.0400   -9.7430  -16.6697 C   0  0  0  0  0  0  0  0  0  0  0  0
   22.4454   -9.8873  -17.7754 O   0  0  0  0  0  0  0  0  0  0  0  0
   20.1038  -10.8456  -14.2559 C   0  0  0  0  0  0  0  0  0  0  0  0
   20.1372   -9.3654  -14.4694 C   0  0  1  0  0  0  0  0  0  0  0  0
   20.7865   -8.7903  -13.3714 O   0  0  0  0  0  0  0  0  0  0  0  0
   20.9178   -8.9637  -15.6973 C   0  0  2  0  0  0  0  0  0  0  0  0
   22.3209   -9.2276  -15.5873 N   0  0  0  0  0  0  0  0  0  0  0  0
   20.6181   -7.5189  -15.9398 C   0  0  0  0  0  0  0  0  0  0  0  0
   21.5725   -6.7252  -15.6925 O   0  0  0  0  0  0  0  0  0  0  0  0
   15.3559   -4.9243  -17.8146 N   0  0  0  0  0  0  0  0  0  0  0  0
   16.1627   -3.7635  -17.9219 C   0  0  0  0  0  0  0  0  0  0  0  0
   15.6658   -2.6390  -18.1973 O   0  0  0  0  0  0  0  0  0  0  0  0
   17.6509   -3.9256  -17.6922 C   0  0  0  0  0  0  0  0  0  0  0  0
   17.9040   -5.3695  -17.3577 C   0  0  0  0  0  0  0  0  0  0  0  0
   19.1897   -5.6238  -16.6142 C   0  0  2  0  0  0  0  0  0  0  0  0
   19.3855   -7.0539  -16.4043 N   0  0  0  0  0  0  0  0  0  0  0  0
   19.2207   -4.9287  -15.3251 C   0  0  0  0  0  0  0  0  0  0  0  0
   19.7171   -3.7876  -15.2245 O   0  0  0  0  0  0  0  0  0  0  0  0
   18.7067   -5.4822  -14.1378 O   0  0  0  0  0  0  0  0  0  0  0  0
  2  3  1  0
  2  1  1  6
  3  4  1  0
  4  5  2  0
  4  8  1  0
  5  6  1  0
  6  7  1  0
  8  7  2  0
  9 10  2  0
  9  2  1  0
 12 11  1  1
 12 14  1  0
 13 12  1  0
 14 16  1  0
 14 15  1  1
 15  9  1  0
 16 24  1  0
 17 16  2  0
 19 21  1  0
 19 18  1  0
 20 19  2  0
 23 22  1  1
 22 21  1  0
 24 23  1  0
 25 27  1  0
 25 23  1  0
 26 25  2  0
M  END
$$$$
