HTQ.pdb
     RDKit          3D

 27 27  0  0  1  0  0  0  0  0999 V2000
   28.8611  -20.5636  -16.8671 N   0  0  0  0  0  0  0  0  0  0  0  0
   27.5588  -21.1591  -16.8014 C   0  0  1  0  0  0  0  0  0  0  0  0
   27.5922  -22.3425  -15.8541 C   0  0  0  0  0  0  0  0  0  0  0  0
   28.6695  -23.2516  -16.3254 C   0  0  0  0  0  0  0  0  0  0  0  0
   29.4928  -23.0577  -17.4073 C   0  0  0  0  0  0  0  0  0  0  0  0
   30.3597  -24.0910  -17.5415 N   0  0  0  0  0  0  0  0  0  0  0  0
   30.0693  -24.9282  -16.5356 C   0  0  0  0  0  0  0  0  0  0  0  0
   29.0579  -24.4436  -15.7935 N   0  0  0  0  0  0  0  0  0  0  0  0
   26.5004  -20.1879  -16.4308 C   0  0  0  0  0  0  0  0  0  0  0  0
   26.6927  -19.5168  -15.3775 O   0  0  0  0  0  0  0  0  0  0  0  0
   25.3576  -17.1176  -18.0961 C   0  0  0  0  0  0  0  0  0  0  0  0
   24.1320  -17.9128  -17.7746 C   0  0  1  0  0  0  0  0  0  0  0  0
   23.7296  -18.5682  -18.9435 O   0  0  0  0  0  0  0  0  0  0  0  0
   24.3772  -18.9817  -16.7374 C   0  0  2  0  0  0  0  0  0  0  0  0
   25.3254  -19.9696  -17.1563 N   0  0  0  0  0  0  0  0  0  0  0  0
   23.0421  -19.5664  -16.4032 C   0  0  0  0  0  0  0  0  0  0  0  0
   22.7725  -20.6555  -16.9892 O   0  0  0  0  0  0  0  0  0  0  0  0
   20.4021  -21.1137  -11.4921 N   0  0  0  0  0  0  0  0  0  0  0  0
   20.6153  -19.7122  -11.4918 C   0  0  0  0  0  0  0  0  0  0  0  0
   20.6624  -19.0532  -10.4189 O   0  0  0  0  0  0  0  0  0  0  0  0
   20.7850  -19.0328  -12.8346 C   0  0  0  0  0  0  0  0  0  0  0  0
   20.7058  -20.0962  -13.8946 C   0  0  0  0  0  0  0  0  0  0  0  0
   20.8324  -19.5839  -15.3061 C   0  0  2  0  0  0  0  0  0  0  0  0
   22.1414  -18.9750  -15.5142 N   0  0  0  0  0  0  0  0  0  0  0  0
   19.7822  -18.6158  -15.6309 C   0  0  0  0  0  0  0  0  0  0  0  0
   18.5784  -18.9458  -15.6112 O   0  0  0  0  0  0  0  0  0  0  0  0
   20.0472  -17.2784  -15.9798 O   0  0  0  0  0  0  0  0  0  0  0  0
  2  3  1  0
  2  1  1  1
  3  4  1  0
  4  5  2  0
  4  8  1  0
  5  6  1  0
  6  7  1  0
  8  7  2  0
  9 10  2  0
  9  2  1  0
 12 11  1  6
 12 14  1  0
 13 12  1  0
 14 16  1  0
 14 15  1  6
 15  9  1  0
 16 24  1  0
 17 16  2  0
 19 21  1  0
 19 18  1  0
 20 19  2  0
 23 22  1  1
 22 21  1  0
 24 23  1  0
 25 27  1  0
 25 23  1  0
 26 25  2  0
M  END
$$$$
