HTQ.pdb
     RDKit          3D

 27 27  0  0  1  0  0  0  0  0999 V2000
   29.0174  -35.4067   -8.0559 N   0  0  0  0  0  0  0  0  0  0  0  0
   28.9723  -34.8909   -6.7191 C   0  0  1  0  0  0  0  0  0  0  0  0
   27.5389  -34.8947   -6.2248 C   0  0  0  0  0  0  0  0  0  0  0  0
   26.8116  -33.8411   -6.9799 C   0  0  0  0  0  0  0  0  0  0  0  0
   26.1507  -33.9945   -8.1739 C   0  0  0  0  0  0  0  0  0  0  0  0
   25.6011  -32.8211   -8.5720 N   0  0  0  0  0  0  0  0  0  0  0  0
   25.9251  -31.9378   -7.6171 C   0  0  0  0  0  0  0  0  0  0  0  0
   26.6516  -32.5290   -6.6521 N   0  0  0  0  0  0  0  0  0  0  0  0
   29.8754  -35.6162   -5.7922 C   0  0  0  0  0  0  0  0  0  0  0  0
   29.9703  -36.8654   -5.9574 O   0  0  0  0  0  0  0  0  0  0  0  0
   33.4577  -35.3273   -5.6483 C   0  0  0  0  0  0  0  0  0  0  0  0
   32.9999  -35.2616   -4.2256 C   0  0  1  0  0  0  0  0  0  0  0  0
   33.0003  -33.9170   -3.8387 O   0  0  0  0  0  0  0  0  0  0  0  0
   31.5915  -35.7700   -4.0348 C   0  0  2  0  0  0  0  0  0  0  0  0
   30.6153  -35.0203   -4.7665 N   0  0  0  0  0  0  0  0  0  0  0  0
   31.3344  -35.7721   -2.5617 C   0  0  0  0  0  0  0  0  0  0  0  0
   30.4999  -34.9082   -2.1625 O   0  0  0  0  0  0  0  0  0  0  0  0
   32.7945  -40.0434    1.6120 N   0  0  0  0  0  0  0  0  0  0  0  0
   32.2575  -39.0987    2.5224 C   0  0  0  0  0  0  0  0  0  0  0  0
   32.1956  -39.3361    3.7582 O   0  0  0  0  0  0  0  0  0  0  0  0
   31.7587  -37.7873    1.9524 C   0  0  0  0  0  0  0  0  0  0  0  0
   31.9908  -37.8203    0.4671 C   0  0  0  0  0  0  0  0  0  0  0  0
   31.7043  -36.5211   -0.2404 C   0  0  2  0  0  0  0  0  0  0  0  0
   31.9555  -36.6512   -1.6713 N   0  0  0  0  0  0  0  0  0  0  0  0
   32.5019  -35.4181    0.3008 C   0  0  0  0  0  0  0  0  0  0  0  0
   33.5299  -35.0225   -0.2867 O   0  0  0  0  0  0  0  0  0  0  0  0
   32.1758  -34.7420    1.4912 O   0  0  0  0  0  0  0  0  0  0  0  0
  2  3  1  0
  2  1  1  6
  3  4  1  0
  4  5  2  0
  4  8  1  0
  5  6  1  0
  6  7  1  0
  8  7  2  0
  9 10  2  0
  9  2  1  0
 12 11  1  6
 12 14  1  0
 13 12  1  0
 14 16  1  0
 14 15  1  6
 15  9  1  0
 16 24  1  0
 17 16  2  0
 19 21  1  0
 19 18  1  0
 20 19  2  0
 23 22  1  1
 22 21  1  0
 24 23  1  0
 25 27  1  0
 25 23  1  0
 26 25  2  0
M  END
$$$$
