YMR.pdb
     RDKit          3D

 32 32  0  0  1  0  0  0  0  0999 V2000
   17.6609  -10.4107  -15.6567 O   0  0  0  0  0  0  0  0  0  0  0  0
   17.5555   -9.7816  -14.4200 C   0  0  0  0  0  0  0  0  0  0  0  0
   16.8655   -8.6119  -14.2974 C   0  0  0  0  0  0  0  0  0  0  0  0
   16.7400   -7.9625  -13.0929 C   0  0  0  0  0  0  0  0  0  0  0  0
   17.3237   -8.5067  -11.9918 C   0  0  0  0  0  0  0  0  0  0  0  0
   17.2096   -7.8370  -10.6783 C   0  0  0  0  0  0  0  0  0  0  0  0
   18.2019   -6.6926  -10.6915 C   0  0  2  0  0  0  0  0  0  0  0  0
   19.5391   -7.2004  -10.4785 N   0  0  0  0  0  0  0  0  0  0  0  0
   17.8899   -5.6493   -9.6830 C   0  0  0  0  0  0  0  0  0  0  0  0
   18.2239   -5.8819   -8.4887 O   0  0  0  0  0  0  0  0  0  0  0  0
   18.0229   -9.6833  -12.0929 C   0  0  0  0  0  0  0  0  0  0  0  0
   18.1584  -10.3496  -13.2985 C   0  0  0  0  0  0  0  0  0  0  0  0
   17.0661    1.7337   -7.3134 C   0  0  0  0  0  0  0  0  0  0  0  0
   17.4951    0.5679   -8.6351 S   0  0  0  0  0  0  0  0  0  0  0  0
   16.8844   -1.0957   -8.2360 C   0  0  0  0  0  0  0  0  0  0  0  0
   17.3446   -2.0919   -9.2604 C   0  0  0  0  0  0  0  0  0  0  0  0
   16.8620   -3.4891   -8.9967 C   0  0  2  0  0  0  0  0  0  0  0  0
   17.2409   -4.4289  -10.0266 N   0  0  0  0  0  0  0  0  0  0  0  0
   15.3859   -3.4552   -8.9135 C   0  0  0  0  0  0  0  0  0  0  0  0
   14.7216   -3.9316   -9.8643 O   0  0  0  0  0  0  0  0  0  0  0  0
    8.8357   -8.0624   -7.4219 N   0  0  0  0  0  0  0  0  0  0  0  0
    9.0751   -7.4000   -6.1986 C   0  0  0  0  0  0  0  0  0  0  0  0
    8.3109   -7.6814   -5.1927 N   0  0  0  0  0  0  0  0  0  0  0  0
   10.1097   -6.4478   -6.0336 N   0  0  0  0  0  0  0  0  0  0  0  0
   10.9730   -6.0222   -7.1131 C   0  0  0  0  0  0  0  0  0  0  0  0
   11.9422   -5.0022   -6.5641 C   0  0  0  0  0  0  0  0  0  0  0  0
   12.9824   -4.5931   -7.5486 C   0  0  0  0  0  0  0  0  0  0  0  0
   13.2001   -3.1299   -7.7052 C   0  0  2  0  0  0  0  0  0  0  0  0
   14.6537   -2.9175   -7.8233 N   0  0  0  0  0  0  0  0  0  0  0  0
   12.7539   -2.3312   -6.5173 C   0  0  0  0  0  0  0  0  0  0  0  0
   13.6481   -1.8517   -5.5757 O   0  0  0  0  0  0  0  0  0  0  0  0
   11.5360   -2.0512   -6.3094 O   0  0  0  0  0  0  0  0  0  0  0  0
  2  1  1  0
  3  2  2  0
  4  3  1  0
  5 11  1  0
  5  4  2  0
  6  5  1  0
  7  6  1  0
  7  8  1  1
  9  7  1  0
  9 18  1  0
 10  9  2  0
 11 12  2  0
 12  2  1  0
 13 14  1  0
 15 14  1  0
 16 15  1  0
 17 18  1  0
 17 16  1  6
 19 17  1  0
 20 19  2  0
 21 22  1  0
 22 23  2  0
 24 22  1  0
 24 25  1  0
 25 26  1  0
 27 26  1  0
 28 27  1  1
 28 29  1  0
 28 30  1  0
 29 19  1  0
 30 31  1  0
 32 30  2  0
M  END
$$$$
