YMR.pdb
     RDKit          3D

 32 32  0  0  1  0  0  0  0  0999 V2000
   29.0811  -15.3490  -18.2390 O   0  0  0  0  0  0  0  0  0  0  0  0
   28.3995  -16.2966  -17.4814 C   0  0  0  0  0  0  0  0  0  0  0  0
   28.0986  -16.0489  -16.1747 C   0  0  0  0  0  0  0  0  0  0  0  0
   27.4269  -16.9603  -15.3960 C   0  0  0  0  0  0  0  0  0  0  0  0
   27.0525  -18.1445  -15.9497 C   0  0  0  0  0  0  0  0  0  0  0  0
   26.3273  -19.1498  -15.1431 C   0  0  0  0  0  0  0  0  0  0  0  0
   27.3809  -19.9527  -14.4084 C   0  0  2  0  0  0  0  0  0  0  0  0
   28.0418  -20.8521  -15.3279 N   0  0  0  0  0  0  0  0  0  0  0  0
   26.8265  -20.7168  -13.2631 C   0  0  0  0  0  0  0  0  0  0  0  0
   26.1582  -21.7534  -13.5294 O   0  0  0  0  0  0  0  0  0  0  0  0
   27.3452  -18.4143  -17.2632 C   0  0  0  0  0  0  0  0  0  0  0  0
   28.0211  -17.5071  -18.0607 C   0  0  0  0  0  0  0  0  0  0  0  0
   27.7521  -19.4934   -6.8553 C   0  0  0  0  0  0  0  0  0  0  0  0
   26.0026  -19.9719   -6.8315 S   0  0  0  0  0  0  0  0  0  0  0  0
   25.5085  -20.6487   -8.4432 C   0  0  0  0  0  0  0  0  0  0  0  0
   26.4688  -20.2242   -9.5161 C   0  0  0  0  0  0  0  0  0  0  0  0
   26.0963  -20.7193  -10.8838 C   0  0  2  0  0  0  0  0  0  0  0  0
   27.0279  -20.3151  -11.9116 N   0  0  0  0  0  0  0  0  0  0  0  0
   24.7630  -20.1753  -11.2199 C   0  0  0  0  0  0  0  0  0  0  0  0
   24.6787  -19.3164  -12.1297 O   0  0  0  0  0  0  0  0  0  0  0  0
   20.6986  -25.8207  -15.4150 N   0  0  0  0  0  0  0  0  0  0  0  0
   19.8307  -24.7081  -15.3782 C   0  0  0  0  0  0  0  0  0  0  0  0
   18.7101  -24.7868  -16.0209 N   0  0  0  0  0  0  0  0  0  0  0  0
   20.1386  -23.5204  -14.6718 N   0  0  0  0  0  0  0  0  0  0  0  0
   21.3178  -23.3730  -13.8475 C   0  0  0  0  0  0  0  0  0  0  0  0
   21.2772  -22.0037  -13.2113 C   0  0  0  0  0  0  0  0  0  0  0  0
   22.4569  -21.7245  -12.3461 C   0  0  0  0  0  0  0  0  0  0  0  0
   22.2911  -20.6442  -11.3369 C   0  0  2  0  0  0  0  0  0  0  0  0
   23.5541  -20.5574  -10.5824 N   0  0  0  0  0  0  0  0  0  0  0  0
   21.2185  -20.9307  -10.3292 C   0  0  0  0  0  0  0  0  0  0  0  0
   19.9489  -20.3886  -10.4323 O   0  0  0  0  0  0  0  0  0  0  0  0
   21.4138  -21.6834   -9.3290 O   0  0  0  0  0  0  0  0  0  0  0  0
  2  1  1  0
  3  2  2  0
  4  3  1  0
  5 11  1  0
  5  4  2  0
  6  5  1  0
  7  6  1  0
  7  8  1  6
  9  7  1  0
  9 18  1  0
 10  9  2  0
 11 12  2  0
 12  2  1  0
 13 14  1  0
 15 14  1  0
 16 15  1  0
 17 18  1  0
 17 16  1  1
 19 17  1  0
 20 19  2  0
 21 22  1  0
 22 23  2  0
 24 22  1  0
 24 25  1  0
 25 26  1  0
 27 26  1  0
 28 27  1  6
 28 29  1  0
 28 30  1  0
 29 19  1  0
 30 31  1  0
 32 30  2  0
M  END
$$$$
