YMR.pdb
     RDKit          3D

 32 32  0  0  1  0  0  0  0  0999 V2000
   21.5903   -0.9580  -16.6786 O   0  0  0  0  0  0  0  0  0  0  0  0
   21.8297   -2.3076  -16.4385 C   0  0  0  0  0  0  0  0  0  0  0  0
   22.3202   -2.7179  -15.2342 C   0  0  0  0  0  0  0  0  0  0  0  0
   22.5686   -4.0416  -14.9611 C   0  0  0  0  0  0  0  0  0  0  0  0
   22.3160   -4.9675  -15.9245 C   0  0  0  0  0  0  0  0  0  0  0  0
   22.5701   -6.4013  -15.6670 C   0  0  0  0  0  0  0  0  0  0  0  0
   21.2210   -7.0357  -15.3989 C   0  0  2  0  0  0  0  0  0  0  0  0
   20.7822   -6.7079  -14.0605 N   0  0  0  0  0  0  0  0  0  0  0  0
   21.2317   -8.5086  -15.5817 C   0  0  0  0  0  0  0  0  0  0  0  0
   21.5251   -9.2134  -14.5771 O   0  0  0  0  0  0  0  0  0  0  0  0
   21.8221   -4.5762  -17.1438 C   0  0  0  0  0  0  0  0  0  0  0  0
   21.5666   -3.2473  -17.4344 C   0  0  0  0  0  0  0  0  0  0  0  0
   16.8212  -12.1724  -14.8535 C   0  0  0  0  0  0  0  0  0  0  0  0
   18.4029  -12.2511  -15.7379 S   0  0  0  0  0  0  0  0  0  0  0  0
   18.4303  -11.0454  -17.0964 C   0  0  0  0  0  0  0  0  0  0  0  0
   19.7582  -11.0617  -17.7962 C   0  0  0  0  0  0  0  0  0  0  0  0
   20.8902  -10.5624  -16.9454 C   0  0  2  0  0  0  0  0  0  0  0  0
   20.9269   -9.1226  -16.8302 N   0  0  0  0  0  0  0  0  0  0  0  0
   22.1575  -11.0157  -17.5579 C   0  0  0  0  0  0  0  0  0  0  0  0
   22.6000  -10.3903  -18.5506 O   0  0  0  0  0  0  0  0  0  0  0  0
   26.7216  -17.1862  -17.7366 N   0  0  0  0  0  0  0  0  0  0  0  0
   27.9587  -16.5074  -17.6976 C   0  0  0  0  0  0  0  0  0  0  0  0
   28.9641  -17.0352  -18.3184 N   0  0  0  0  0  0  0  0  0  0  0  0
   28.1382  -15.2830  -17.0100 N   0  0  0  0  0  0  0  0  0  0  0  0
   27.0606  -14.5819  -16.3475 C   0  0  0  0  0  0  0  0  0  0  0  0
   26.2154  -13.9134  -17.4058 C   0  0  0  0  0  0  0  0  0  0  0  0
   25.0221  -13.2173  -16.8492 C   0  0  0  0  0  0  0  0  0  0  0  0
   24.1133  -12.5778  -17.8381 C   0  0  2  0  0  0  0  0  0  0  0  0
   22.9220  -12.1204  -17.1007 N   0  0  0  0  0  0  0  0  0  0  0  0
   23.6183  -13.5240  -18.8906 C   0  0  0  0  0  0  0  0  0  0  0  0
   22.5038  -14.3219  -18.6967 O   0  0  0  0  0  0  0  0  0  0  0  0
   24.1913  -13.6460  -20.0139 O   0  0  0  0  0  0  0  0  0  0  0  0
  2  1  1  0
  3  2  2  0
  4  3  1  0
  5 11  1  0
  5  4  2  0
  6  5  1  0
  7  6  1  0
  7  8  1  1
  9  7  1  0
  9 18  1  0
 10  9  2  0
 11 12  2  0
 12  2  1  0
 13 14  1  0
 15 14  1  0
 16 15  1  0
 17 18  1  0
 17 16  1  6
 19 17  1  0
 20 19  2  0
 21 22  1  0
 22 23  2  0
 24 22  1  0
 24 25  1  0
 25 26  1  0
 27 26  1  0
 28 27  1  1
 28 29  1  0
 28 30  1  0
 29 19  1  0
 30 31  1  0
 32 30  2  0
M  END
$$$$
