YMR.pdb
     RDKit          3D

 32 32  0  0  1  0  0  0  0  0999 V2000
   29.3512  -20.1248  -20.2058 O   0  0  0  0  0  0  0  0  0  0  0  0
   28.9286  -20.6206  -18.9762 C   0  0  0  0  0  0  0  0  0  0  0  0
   29.8293  -20.8505  -17.9785 C   0  0  0  0  0  0  0  0  0  0  0  0
   29.4491  -21.3391  -16.7517 C   0  0  0  0  0  0  0  0  0  0  0  0
   28.1330  -21.6000  -16.5301 C   0  0  0  0  0  0  0  0  0  0  0  0
   27.6860  -22.1259  -15.2222 C   0  0  0  0  0  0  0  0  0  0  0  0
   26.7210  -21.1051  -14.6555 C   0  0  2  0  0  0  0  0  0  0  0  0
   27.4053  -19.8492  -14.4415 N   0  0  0  0  0  0  0  0  0  0  0  0
   26.0831  -21.5556  -13.3933 C   0  0  0  0  0  0  0  0  0  0  0  0
   25.5666  -22.7068  -13.3858 O   0  0  0  0  0  0  0  0  0  0  0  0
   27.2097  -21.3758  -17.5205 C   0  0  0  0  0  0  0  0  0  0  0  0
   27.5765  -20.8841  -18.7613 C   0  0  0  0  0  0  0  0  0  0  0  0
   28.2128  -20.4795   -6.8146 C   0  0  0  0  0  0  0  0  0  0  0  0
   26.7224  -19.8727   -7.6517 S   0  0  0  0  0  0  0  0  0  0  0  0
   26.4904  -20.7321   -9.2352 C   0  0  0  0  0  0  0  0  0  0  0  0
   25.2744  -20.2157   -9.9481 C   0  0  0  0  0  0  0  0  0  0  0  0
   24.9978  -20.9175  -11.2464 C   0  0  2  0  0  0  0  0  0  0  0  0
   26.0439  -20.7391  -12.2271 N   0  0  0  0  0  0  0  0  0  0  0  0
   23.7387  -20.3750  -11.8006 C   0  0  0  0  0  0  0  0  0  0  0  0
   23.8068  -19.5024  -12.6986 O   0  0  0  0  0  0  0  0  0  0  0  0
   24.1215  -24.8682  -15.7263 N   0  0  0  0  0  0  0  0  0  0  0  0
   22.9815  -25.2992  -15.0141 C   0  0  0  0  0  0  0  0  0  0  0  0
   22.7365  -26.5690  -14.9655 N   0  0  0  0  0  0  0  0  0  0  0  0
   22.1045  -24.4019  -14.3584 N   0  0  0  0  0  0  0  0  0  0  0  0
   22.3394  -22.9767  -14.2856 C   0  0  0  0  0  0  0  0  0  0  0  0
   21.1715  -22.3450  -13.5658 C   0  0  0  0  0  0  0  0  0  0  0  0
   21.2775  -20.8627  -13.4652 C   0  0  0  0  0  0  0  0  0  0  0  0
   21.2383  -20.2925  -12.0919 C   0  0  2  0  0  0  0  0  0  0  0  0
   22.4407  -20.7729  -11.3878 N   0  0  0  0  0  0  0  0  0  0  0  0
   20.0641  -20.7614  -11.2860 C   0  0  0  0  0  0  0  0  0  0  0  0
   18.7877  -20.2657  -11.4892 O   0  0  0  0  0  0  0  0  0  0  0  0
   20.1743  -21.6357  -10.3758 O   0  0  0  0  0  0  0  0  0  0  0  0
  2  1  1  0
  3  2  2  0
  4  3  1  0
  5 11  1  0
  5  4  2  0
  6  5  1  0
  7  6  1  0
  7  8  1  1
  9  7  1  0
  9 18  1  0
 10  9  2  0
 11 12  2  0
 12  2  1  0
 13 14  1  0
 15 14  1  0
 16 15  1  0
 17 18  1  0
 17 16  1  1
 19 17  1  0
 20 19  2  0
 21 22  1  0
 22 23  2  0
 24 22  1  0
 24 25  1  0
 25 26  1  0
 27 26  1  0
 28 27  1  6
 28 29  1  0
 28 30  1  0
 29 19  1  0
 30 31  1  0
 32 30  2  0
M  END
$$$$
