YMR.pdb
     RDKit          3D

 32 32  0  0  1  0  0  0  0  0999 V2000
   16.6947  -24.1695  -13.8580 O   0  0  0  0  0  0  0  0  0  0  0  0
   17.9792  -23.6410  -13.7735 C   0  0  0  0  0  0  0  0  0  0  0  0
   18.4305  -22.7695  -14.7202 C   0  0  0  0  0  0  0  0  0  0  0  0
   19.6922  -22.2274  -14.6696 C   0  0  0  0  0  0  0  0  0  0  0  0
   20.5127  -22.5734  -13.6418 C   0  0  0  0  0  0  0  0  0  0  0  0
   21.8771  -22.0099  -13.5534 C   0  0  0  0  0  0  0  0  0  0  0  0
   21.8415  -20.9681  -12.4543 C   0  0  2  0  0  0  0  0  0  0  0  0
   21.0333  -19.8434  -12.8706 N   0  0  0  0  0  0  0  0  0  0  0  0
   23.1943  -20.5013  -12.0605 C   0  0  0  0  0  0  0  0  0  0  0  0
   23.7618  -19.6684  -12.8197 O   0  0  0  0  0  0  0  0  0  0  0  0
   20.0786  -23.4490  -12.6781 C   0  0  0  0  0  0  0  0  0  0  0  0
   18.8109  -24.0036  -12.7149 C   0  0  0  0  0  0  0  0  0  0  0  0
   27.4410  -19.4110   -6.0549 C   0  0  0  0  0  0  0  0  0  0  0  0
   26.8420  -18.9884   -7.7140 S   0  0  0  0  0  0  0  0  0  0  0  0
   26.9954  -20.4164   -8.8263 C   0  0  0  0  0  0  0  0  0  0  0  0
   25.6423  -20.9492   -9.1986 C   0  0  0  0  0  0  0  0  0  0  0  0
   25.1767  -20.5067  -10.5558 C   0  0  2  0  0  0  0  0  0  0  0  0
   23.8439  -20.9611  -10.8794 N   0  0  0  0  0  0  0  0  0  0  0  0
   26.1143  -21.0513  -11.5613 C   0  0  0  0  0  0  0  0  0  0  0  0
   26.2414  -22.2957  -11.6492 O   0  0  0  0  0  0  0  0  0  0  0  0
   25.9081  -25.6832  -17.0495 N   0  0  0  0  0  0  0  0  0  0  0  0
   25.2220  -25.2377  -15.8991 C   0  0  0  0  0  0  0  0  0  0  0  0
   24.7035  -26.1274  -15.1152 N   0  0  0  0  0  0  0  0  0  0  0  0
   25.0808  -23.8668  -15.5753 N   0  0  0  0  0  0  0  0  0  0  0  0
   25.5938  -22.8003  -16.4067 C   0  0  0  0  0  0  0  0  0  0  0  0
   26.7658  -22.1707  -15.6917 C   0  0  0  0  0  0  0  0  0  0  0  0
   26.3816  -21.4893  -14.4242 C   0  0  0  0  0  0  0  0  0  0  0  0
   27.4855  -20.8442  -13.6638 C   0  0  2  0  0  0  0  0  0  0  0  0
   26.8919  -20.2613  -12.4473 N   0  0  0  0  0  0  0  0  0  0  0  0
   28.1323  -19.7099  -14.4007 C   0  0  0  0  0  0  0  0  0  0  0  0
   29.2834  -19.8812  -15.1503 O   0  0  0  0  0  0  0  0  0  0  0  0
   27.6624  -18.5336  -14.3786 O   0  0  0  0  0  0  0  0  0  0  0  0
  2  1  1  0
  3  2  2  0
  4  3  1  0
  5 11  1  0
  5  4  2  0
  6  5  1  0
  7  6  1  0
  7  8  1  6
  9  7  1  0
  9 18  1  0
 10  9  2  0
 11 12  2  0
 12  2  1  0
 13 14  1  0
 15 14  1  0
 16 15  1  0
 17 18  1  0
 17 16  1  1
 19 17  1  0
 20 19  2  0
 21 22  1  0
 22 23  2  0
 24 22  1  0
 24 25  1  0
 25 26  1  0
 27 26  1  0
 28 27  1  6
 28 29  1  0
 28 30  1  0
 29 19  1  0
 30 31  1  0
 32 30  2  0
M  END
$$$$
