YMR.pdb
     RDKit          3D

 32 32  0  0  1  0  0  0  0  0999 V2000
   11.4366  -20.6677   -2.0941 O   0  0  0  0  0  0  0  0  0  0  0  0
   12.1488  -21.7884   -2.5101 C   0  0  0  0  0  0  0  0  0  0  0  0
   13.3858  -22.0489   -1.9988 C   0  0  0  0  0  0  0  0  0  0  0  0
   14.1181  -23.1455   -2.3854 C   0  0  0  0  0  0  0  0  0  0  0  0
   13.5891  -23.9945   -3.3067 C   0  0  0  0  0  0  0  0  0  0  0  0
   14.3473  -25.1855   -3.7467 C   0  0  0  0  0  0  0  0  0  0  0  0
   15.6941  -24.6848   -4.2261 C   0  0  2  0  0  0  0  0  0  0  0  0
   15.5655  -24.1263   -5.5539 N   0  0  0  0  0  0  0  0  0  0  0  0
   16.7359  -25.7420   -4.2201 C   0  0  0  0  0  0  0  0  0  0  0  0
   16.8943  -26.4030   -5.2832 O   0  0  0  0  0  0  0  0  0  0  0  0
   12.3457  -23.7511   -3.8342 C   0  0  0  0  0  0  0  0  0  0  0  0
   11.5955  -22.6513   -3.4553 C   0  0  0  0  0  0  0  0  0  0  0  0
   21.1248  -28.7136    0.3537 C   0  0  0  0  0  0  0  0  0  0  0  0
   19.8646  -27.4757    0.7656 S   0  0  0  0  0  0  0  0  0  0  0  0
   18.6923  -27.2829   -0.6086 C   0  0  0  0  0  0  0  0  0  0  0  0
   19.4207  -27.0841   -1.9060 C   0  0  0  0  0  0  0  0  0  0  0  0
   18.5172  -27.0754   -3.1053 C   0  0  2  0  0  0  0  0  0  0  0  0
   17.5351  -26.0162   -3.0736 N   0  0  0  0  0  0  0  0  0  0  0  0
   17.8070  -28.3716   -3.1525 C   0  0  0  0  0  0  0  0  0  0  0  0
   16.6387  -28.4308   -2.7010 O   0  0  0  0  0  0  0  0  0  0  0  0
   19.7026  -33.9404   -9.1351 N   0  0  0  0  0  0  0  0  0  0  0  0
   19.7855  -32.5644   -8.8314 C   0  0  0  0  0  0  0  0  0  0  0  0
   20.5521  -31.8228   -9.5644 N   0  0  0  0  0  0  0  0  0  0  0  0
   19.0686  -31.9718   -7.7641 N   0  0  0  0  0  0  0  0  0  0  0  0
   18.1435  -32.7052   -6.9285 C   0  0  0  0  0  0  0  0  0  0  0  0
   17.5299  -31.7364   -5.9456 C   0  0  0  0  0  0  0  0  0  0  0  0
   18.1927  -31.7564   -4.6119 C   0  0  0  0  0  0  0  0  0  0  0  0
   17.6240  -30.8467   -3.5814 C   0  0  2  0  0  0  0  0  0  0  0  0
   18.3548  -29.5705   -3.6780 N   0  0  0  0  0  0  0  0  0  0  0  0
   17.8213  -31.3387   -2.1789 C   0  0  0  0  0  0  0  0  0  0  0  0
   17.0489  -32.3533   -1.6401 O   0  0  0  0  0  0  0  0  0  0  0  0
   18.7041  -30.8543   -1.4102 O   0  0  0  0  0  0  0  0  0  0  0  0
  2  1  1  0
  3  2  2  0
  4  3  1  0
  5 11  1  0
  5  4  2  0
  6  5  1  0
  7  6  1  0
  7  8  1  6
  9  7  1  0
  9 18  1  0
 10  9  2  0
 11 12  2  0
 12  2  1  0
 13 14  1  0
 15 14  1  0
 16 15  1  0
 17 18  1  0
 17 16  1  1
 19 17  1  0
 20 19  2  0
 21 22  1  0
 22 23  2  0
 24 22  1  0
 24 25  1  0
 25 26  1  0
 27 26  1  0
 28 27  1  6
 28 29  1  0
 28 30  1  0
 29 19  1  0
 30 31  1  0
 32 30  2  0
M  END
$$$$
