YMR.pdb
     RDKit          3D

 32 32  0  0  1  0  0  0  0  0999 V2000
   32.1906  -16.1641  -19.6093 O   0  0  0  0  0  0  0  0  0  0  0  0
   31.6278  -15.0290  -19.0338 C   0  0  0  0  0  0  0  0  0  0  0  0
   32.1696  -14.4859  -17.9066 C   0  0  0  0  0  0  0  0  0  0  0  0
   31.6415  -13.3660  -17.3106 C   0  0  0  0  0  0  0  0  0  0  0  0
   30.5445  -12.7847  -17.8656 C   0  0  0  0  0  0  0  0  0  0  0  0
   29.9484  -11.5779  -17.2530 C   0  0  0  0  0  0  0  0  0  0  0  0
   30.2131  -10.4343  -18.2103 C   0  0  2  0  0  0  0  0  0  0  0  0
   31.6061  -10.0513  -18.1436 N   0  0  0  0  0  0  0  0  0  0  0  0
   29.3507   -9.2548  -17.9497 C   0  0  0  0  0  0  0  0  0  0  0  0
   29.6106   -8.5637  -16.9265 O   0  0  0  0  0  0  0  0  0  0  0  0
   29.9831  -13.3150  -19.0002 C   0  0  0  0  0  0  0  0  0  0  0  0
   30.5031  -14.4423  -19.6124 C   0  0  0  0  0  0  0  0  0  0  0  0
   25.8886   -4.9432  -22.0896 C   0  0  0  0  0  0  0  0  0  0  0  0
   26.7274   -4.2843  -20.6225 S   0  0  0  0  0  0  0  0  0  0  0  0
   26.6608   -5.4853  -19.2612 C   0  0  0  0  0  0  0  0  0  0  0  0
   27.4958   -6.6927  -19.5750 C   0  0  0  0  0  0  0  0  0  0  0  0
   27.4509   -7.7465  -18.5064 C   0  0  2  0  0  0  0  0  0  0  0  0
   28.2691   -8.8993  -18.8053 N   0  0  0  0  0  0  0  0  0  0  0  0
   26.0483   -8.1923  -18.3621 C   0  0  0  0  0  0  0  0  0  0  0  0
   25.5659   -8.9452  -19.2412 O   0  0  0  0  0  0  0  0  0  0  0  0
   19.9660   -7.9615  -13.9428 N   0  0  0  0  0  0  0  0  0  0  0  0
   19.6633   -9.3400  -13.9223 C   0  0  0  0  0  0  0  0  0  0  0  0
   18.4302   -9.6914  -13.7462 N   0  0  0  0  0  0  0  0  0  0  0  0
   20.6496  -10.3425  -14.0848 N   0  0  0  0  0  0  0  0  0  0  0  0
   22.0488  -10.0482  -14.3024 C   0  0  0  0  0  0  0  0  0  0  0  0
   22.1751   -9.3159  -15.6173 C   0  0  0  0  0  0  0  0  0  0  0  0
   23.5846   -8.9945  -15.9759 C   0  0  0  0  0  0  0  0  0  0  0  0
   23.7870   -8.2629  -17.2552 C   0  0  2  0  0  0  0  0  0  0  0  0
   25.1947   -7.8279  -17.2886 N   0  0  0  0  0  0  0  0  0  0  0  0
   22.9596   -7.0175  -17.3661 C   0  0  0  0  0  0  0  0  0  0  0  0
   23.3237   -5.8351  -16.7451 O   0  0  0  0  0  0  0  0  0  0  0  0
   21.8831   -6.9778  -18.0329 O   0  0  0  0  0  0  0  0  0  0  0  0
  2  1  1  0
  3  2  2  0
  4  3  1  0
  5 11  1  0
  5  4  2  0
  6  5  1  0
  7  6  1  0
  7  8  1  1
  9  7  1  0
  9 18  1  0
 10  9  2  0
 11 12  2  0
 12  2  1  0
 13 14  1  0
 15 14  1  0
 16 15  1  0
 17 18  1  0
 17 16  1  6
 19 17  1  0
 20 19  2  0
 21 22  1  0
 22 23  2  0
 24 22  1  0
 24 25  1  0
 25 26  1  0
 27 26  1  0
 28 27  1  1
 28 29  1  0
 28 30  1  0
 29 19  1  0
 30 31  1  0
 32 30  2  0
M  END
$$$$
