GVH.pdb
     RDKit          3D

 22 22  0  0  1  0  0  0  0  0999 V2000
   18.4322  -13.9221  -16.9072 N   0  0  0  0  0  0  0  0  0  0  0  0
   18.3930  -12.4970  -17.0980 C   0  0  0  0  0  0  0  0  0  0  0  0
   18.9018  -11.8011  -15.8603 C   0  0  0  0  0  0  0  0  0  0  0  0
   19.0448  -12.4567  -14.8277 O   0  0  0  0  0  0  0  0  0  0  0  0
   22.0151   -9.5863  -15.8503 C   0  0  0  0  0  0  0  0  0  0  0  0
   20.8736   -8.6788  -15.4718 C   0  0  2  0  0  0  0  0  0  0  0  0
   21.3693   -7.7673  -14.3730 C   0  0  0  0  0  0  0  0  0  0  0  0
   19.6968   -9.5007  -15.0265 C   0  0  2  0  0  0  0  0  0  0  0  0
   19.1858  -10.4458  -15.9480 N   0  0  0  0  0  0  0  0  0  0  0  0
   18.6747   -8.7606  -14.2669 C   0  0  0  0  0  0  0  0  0  0  0  0
   17.8798   -8.0215  -14.8947 O   0  0  0  0  0  0  0  0  0  0  0  0
   18.5144   -8.8153  -12.8831 N   0  0  0  0  0  0  0  0  0  0  0  0
   17.4950   -8.1275  -12.1220 C   0  0  1  0  0  0  0  0  0  0  0  0
   17.3173   -8.5831  -10.7496 C   0  0  0  0  0  0  0  0  0  0  0  0
   16.2360   -7.8588  -10.0542 C   0  0  0  0  0  0  0  0  0  0  0  0
   15.3839   -6.8672  -10.5213 C   0  0  0  0  0  0  0  0  0  0  0  0
   14.5642   -6.4492   -9.5408 N   0  0  0  0  0  0  0  0  0  0  0  0
   14.8708   -7.1552   -8.4401 C   0  0  0  0  0  0  0  0  0  0  0  0
   15.8565   -7.9861   -8.7430 N   0  0  0  0  0  0  0  0  0  0  0  0
   17.8057   -6.7032  -12.1893 C   0  0  0  0  0  0  0  0  0  0  0  0
   16.8469   -5.7827  -12.5319 O   0  0  0  0  0  0  0  0  0  0  0  0
   18.9586   -6.2962  -11.9374 O   0  0  0  0  0  0  0  0  0  0  0  0
  2  1  1  0
  3  9  1  0
  3  2  1  0
  4  3  2  0
  6  5  1  1
  6  8  1  0
  7  6  1  0
  8  9  1  6
  8 10  1  0
 10 12  1  0
 10 11  2  0
 12 13  1  0
 13 14  1  1
 14 15  1  0
 15 16  2  0
 17 16  1  0
 18 17  1  0
 19 18  2  0
 19 15  1  0
 20 13  1  0
 20 21  1  0
 22 20  2  0
M  END
$$$$
