GVH.pdb
     RDKit          3D

 22 22  0  0  1  0  0  0  0  0999 V2000
   19.3886  -16.0311  -18.3374 N   0  0  0  0  0  0  0  0  0  0  0  0
   20.2149  -14.8872  -18.6166 C   0  0  0  0  0  0  0  0  0  0  0  0
   20.5256  -14.1557  -17.3347 C   0  0  0  0  0  0  0  0  0  0  0  0
   19.7674  -14.2939  -16.3742 O   0  0  0  0  0  0  0  0  0  0  0  0
   24.0216  -13.9447  -15.6801 C   0  0  0  0  0  0  0  0  0  0  0  0
   23.6536  -12.5336  -16.0589 C   0  0  2  0  0  0  0  0  0  0  0  0
   24.0508  -11.6407  -14.9061 C   0  0  0  0  0  0  0  0  0  0  0  0
   22.1806  -12.4520  -16.3460 C   0  0  2  0  0  0  0  0  0  0  0  0
   21.6597  -13.3570  -17.3016 N   0  0  0  0  0  0  0  0  0  0  0  0
   21.6391  -11.0847  -16.4279 C   0  0  0  0  0  0  0  0  0  0  0  0
   21.8692  -10.4098  -17.4593 O   0  0  0  0  0  0  0  0  0  0  0  0
   20.8776  -10.4680  -15.4363 N   0  0  0  0  0  0  0  0  0  0  0  0
   20.3079   -9.1408  -15.5102 C   0  0  1  0  0  0  0  0  0  0  0  0
   18.8528   -9.0760  -15.4754 C   0  0  0  0  0  0  0  0  0  0  0  0
   18.3501   -7.6940  -15.5960 C   0  0  0  0  0  0  0  0  0  0  0  0
   19.0466   -6.5030  -15.7515 C   0  0  0  0  0  0  0  0  0  0  0  0
   18.1979   -5.4605  -15.7811 N   0  0  0  0  0  0  0  0  0  0  0  0
   16.9568   -5.9561  -15.6465 C   0  0  0  0  0  0  0  0  0  0  0  0
   17.0468   -7.2728  -15.5373 N   0  0  0  0  0  0  0  0  0  0  0  0
   20.9156   -8.3592  -14.4382 C   0  0  0  0  0  0  0  0  0  0  0  0
   20.9359   -6.9875  -14.4832 O   0  0  0  0  0  0  0  0  0  0  0  0
   21.4340   -8.9304  -13.4566 O   0  0  0  0  0  0  0  0  0  0  0  0
  2  1  1  0
  3  9  1  0
  3  2  1  0
  4  3  2  0
  6  5  1  1
  6  8  1  0
  7  6  1  0
  8  9  1  6
  8 10  1  0
 10 12  1  0
 10 11  2  0
 12 13  1  0
 13 14  1  1
 14 15  1  0
 15 16  2  0
 17 16  1  0
 18 17  1  0
 19 18  2  0
 19 15  1  0
 20 13  1  0
 20 21  1  0
 22 20  2  0
M  END
$$$$
