GVH.pdb
     RDKit          3D

 22 22  0  0  1  0  0  0  0  0999 V2000
   22.3134  -15.5909  -16.9681 N   0  0  0  0  0  0  0  0  0  0  0  0
   22.5141  -14.3686  -17.6994 C   0  0  0  0  0  0  0  0  0  0  0  0
   22.6916  -13.2204  -16.7376 C   0  0  0  0  0  0  0  0  0  0  0  0
   21.8682  -13.0708  -15.8342 O   0  0  0  0  0  0  0  0  0  0  0  0
   26.2457  -12.2911  -15.3685 C   0  0  0  0  0  0  0  0  0  0  0  0
   25.7045  -11.0612  -16.0502 C   0  0  2  0  0  0  0  0  0  0  0  0
   26.0278   -9.8786  -15.1665 C   0  0  0  0  0  0  0  0  0  0  0  0
   24.2244  -11.2088  -16.2652 C   0  0  2  0  0  0  0  0  0  0  0  0
   23.7829  -12.3833  -16.9204 N   0  0  0  0  0  0  0  0  0  0  0  0
   23.5300   -9.9748  -16.6707 C   0  0  0  0  0  0  0  0  0  0  0  0
   23.7636   -9.5019  -17.8083 O   0  0  0  0  0  0  0  0  0  0  0  0
   22.6177   -9.2769  -15.8806 N   0  0  0  0  0  0  0  0  0  0  0  0
   21.8865   -8.0941  -16.2777 C   0  0  1  0  0  0  0  0  0  0  0  0
   20.4738   -8.2949  -16.5722 C   0  0  0  0  0  0  0  0  0  0  0  0
   19.8063   -7.0483  -16.9936 C   0  0  0  0  0  0  0  0  0  0  0  0
   20.3516   -5.8576  -17.4545 C   0  0  0  0  0  0  0  0  0  0  0  0
   19.3829   -4.9560  -17.6930 N   0  0  0  0  0  0  0  0  0  0  0  0
   18.2127   -5.5433  -17.3933 C   0  0  0  0  0  0  0  0  0  0  0  0
   18.4626   -6.7767  -16.9809 N   0  0  0  0  0  0  0  0  0  0  0  0
   22.0902   -7.0991  -15.2297 C   0  0  0  0  0  0  0  0  0  0  0  0
   22.0162   -5.7559  -15.5018 O   0  0  0  0  0  0  0  0  0  0  0  0
   22.3404   -7.4567  -14.0601 O   0  0  0  0  0  0  0  0  0  0  0  0
  2  1  1  0
  3  9  1  0
  3  2  1  0
  4  3  2  0
  6  5  1  1
  6  8  1  0
  7  6  1  0
  8  9  1  6
  8 10  1  0
 10 12  1  0
 10 11  2  0
 12 13  1  0
 13 14  1  1
 14 15  1  0
 15 16  2  0
 17 16  1  0
 18 17  1  0
 19 18  2  0
 19 15  1  0
 20 13  1  0
 20 21  1  0
 22 20  2  0
M  END
$$$$
