GVH.pdb
     RDKit          3D

 22 22  0  0  1  0  0  0  0  0999 V2000
   25.5721  -14.5961  -19.2680 N   0  0  0  0  0  0  0  0  0  0  0  0
   24.8698  -13.3452  -19.3735 C   0  0  0  0  0  0  0  0  0  0  0  0
   24.4512  -12.8765  -18.0024 C   0  0  0  0  0  0  0  0  0  0  0  0
   23.8763  -13.6684  -17.2548 O   0  0  0  0  0  0  0  0  0  0  0  0
   26.4207   -9.2873  -16.4448 C   0  0  0  0  0  0  0  0  0  0  0  0
   25.6605  -10.3441  -15.6863 C   0  0  2  0  0  0  0  0  0  0  0  0
   26.6192  -11.4809  -15.4167 C   0  0  0  0  0  0  0  0  0  0  0  0
   24.4743  -10.7938  -16.4920 C   0  0  2  0  0  0  0  0  0  0  0  0
   24.7371  -11.5655  -17.6492 N   0  0  0  0  0  0  0  0  0  0  0  0
   23.4114   -9.7860  -16.6475 C   0  0  0  0  0  0  0  0  0  0  0  0
   23.4169   -9.0624  -17.6716 O   0  0  0  0  0  0  0  0  0  0  0  0
   22.3810   -9.5665  -15.7345 N   0  0  0  0  0  0  0  0  0  0  0  0
   21.3284   -8.5838  -15.8675 C   0  0  1  0  0  0  0  0  0  0  0  0
   19.9720   -9.0837  -15.6859 C   0  0  0  0  0  0  0  0  0  0  0  0
   18.9533   -8.0497  -15.9508 C   0  0  0  0  0  0  0  0  0  0  0  0
   19.0680   -6.8353  -16.6139 C   0  0  0  0  0  0  0  0  0  0  0  0
   17.8963   -6.1758  -16.5966 N   0  0  0  0  0  0  0  0  0  0  0  0
   17.0189   -6.9442  -15.9305 C   0  0  0  0  0  0  0  0  0  0  0  0
   17.6423   -8.0489  -15.5498 N   0  0  0  0  0  0  0  0  0  0  0  0
   21.6407   -7.5013  -14.9400 C   0  0  0  0  0  0  0  0  0  0  0  0
   21.1725   -6.2284  -15.1508 O   0  0  0  0  0  0  0  0  0  0  0  0
   22.3471   -7.7167  -13.9335 O   0  0  0  0  0  0  0  0  0  0  0  0
  2  1  1  0
  3  9  1  0
  3  2  1  0
  4  3  2  0
  6  5  1  6
  6  8  1  0
  7  6  1  0
  8  9  1  6
  8 10  1  0
 10 12  1  0
 10 11  2  0
 12 13  1  0
 13 14  1  1
 14 15  1  0
 15 16  2  0
 17 16  1  0
 18 17  1  0
 19 18  2  0
 19 15  1  0
 20 13  1  0
 20 21  1  0
 22 20  2  0
M  END
$$$$
