GVH.pdb
     RDKit          3D

 22 22  0  0  1  0  0  0  0  0999 V2000
   28.6384  -19.3145  -16.7550 N   0  0  0  0  0  0  0  0  0  0  0  0
   28.0608  -18.8138  -15.5365 C   0  0  0  0  0  0  0  0  0  0  0  0
   27.0875  -19.8225  -14.9796 C   0  0  0  0  0  0  0  0  0  0  0  0
   26.6529  -20.7014  -15.7248 O   0  0  0  0  0  0  0  0  0  0  0  0
   27.5046  -21.3087  -11.3822 C   0  0  0  0  0  0  0  0  0  0  0  0
   26.1450  -20.6605  -11.4191 C   0  0  2  0  0  0  0  0  0  0  0  0
   25.1736  -21.6162  -10.7654 C   0  0  0  0  0  0  0  0  0  0  0  0
   25.7623  -20.3622  -12.8415 C   0  0  2  0  0  0  0  0  0  0  0  0
   26.7276  -19.7088  -13.6444 N   0  0  0  0  0  0  0  0  0  0  0  0
   24.3797  -19.8890  -13.0261 C   0  0  0  0  0  0  0  0  0  0  0  0
   24.0776  -18.7448  -12.6116 O   0  0  0  0  0  0  0  0  0  0  0  0
   23.3612  -20.6207  -13.6350 N   0  0  0  0  0  0  0  0  0  0  0  0
   22.0269  -20.1397  -13.9171 C   0  0  1  0  0  0  0  0  0  0  0  0
   21.6328  -20.1585  -15.3196 C   0  0  0  0  0  0  0  0  0  0  0  0
   20.2669  -19.6395  -15.5252 C   0  0  0  0  0  0  0  0  0  0  0  0
   19.3544  -19.1433  -14.6040 C   0  0  0  0  0  0  0  0  0  0  0  0
   18.2027  -18.8104  -15.2130 N   0  0  0  0  0  0  0  0  0  0  0  0
   18.3522  -19.0835  -16.5196 C   0  0  0  0  0  0  0  0  0  0  0  0
   19.5692  -19.5724  -16.7034 N   0  0  0  0  0  0  0  0  0  0  0  0
   21.1131  -20.9128  -13.0822 C   0  0  0  0  0  0  0  0  0  0  0  0
   19.9530  -20.3607  -12.5995 O   0  0  0  0  0  0  0  0  0  0  0  0
   21.3758  -22.0974  -12.7887 O   0  0  0  0  0  0  0  0  0  0  0  0
  2  1  1  0
  3  9  1  0
  3  2  1  0
  4  3  2  0
  6  5  1  6
  6  8  1  0
  7  6  1  0
  8  9  1  1
  8 10  1  0
 10 12  1  0
 10 11  2  0
 12 13  1  0
 13 14  1  6
 14 15  1  0
 15 16  2  0
 17 16  1  0
 18 17  1  0
 19 18  2  0
 19 15  1  0
 20 13  1  0
 20 21  1  0
 22 20  2  0
M  END
$$$$
