GVH.pdb
     RDKit          3D

 22 22  0  0  1  0  0  0  0  0999 V2000
   20.5587  -20.7751  -12.5818 N   0  0  0  0  0  0  0  0  0  0  0  0
   20.4783  -19.3447  -12.7106 C   0  0  0  0  0  0  0  0  0  0  0  0
   20.5560  -18.9571  -14.1661 C   0  0  0  0  0  0  0  0  0  0  0  0
   20.3588  -19.8211  -15.0213 O   0  0  0  0  0  0  0  0  0  0  0  0
   18.3882  -15.9980  -15.5401 C   0  0  0  0  0  0  0  0  0  0  0  0
   19.3460  -16.8744  -16.3047 C   0  0  2  0  0  0  0  0  0  0  0  0
   18.7565  -18.2657  -16.3342 C   0  0  0  0  0  0  0  0  0  0  0  0
   20.6943  -16.8537  -15.6412 C   0  0  2  0  0  0  0  0  0  0  0  0
   20.8483  -17.6355  -14.4713 N   0  0  0  0  0  0  0  0  0  0  0  0
   21.3420  -15.5317  -15.5926 C   0  0  0  0  0  0  0  0  0  0  0  0
   21.1239  -14.7935  -14.6028 O   0  0  0  0  0  0  0  0  0  0  0  0
   22.1933  -15.0245  -16.5732 N   0  0  0  0  0  0  0  0  0  0  0  0
   22.8978  -13.7630  -16.5113 C   0  0  1  0  0  0  0  0  0  0  0  0
   24.2080  -13.7402  -17.1480 C   0  0  0  0  0  0  0  0  0  0  0  0
   25.1115  -14.7748  -16.6087 C   0  0  0  0  0  0  0  0  0  0  0  0
   25.3200  -15.1797  -15.2972 C   0  0  0  0  0  0  0  0  0  0  0  0
   26.2661  -16.1336  -15.2427 N   0  0  0  0  0  0  0  0  0  0  0  0
   26.6776  -16.3559  -16.5018 C   0  0  0  0  0  0  0  0  0  0  0  0
   25.9968  -15.5546  -17.3070 N   0  0  0  0  0  0  0  0  0  0  0  0
   22.0034  -12.7514  -17.0649 C   0  0  0  0  0  0  0  0  0  0  0  0
   22.1970  -11.4166  -16.8104 O   0  0  0  0  0  0  0  0  0  0  0  0
   21.0381  -13.0869  -17.7819 O   0  0  0  0  0  0  0  0  0  0  0  0
  2  1  1  0
  3  9  1  0
  3  2  1  0
  4  3  2  0
  6  5  1  1
  6  8  1  0
  7  6  1  0
  8  9  1  1
  8 10  1  0
 10 12  1  0
 10 11  2  0
 12 13  1  0
 13 14  1  6
 14 15  1  0
 15 16  2  0
 17 16  1  0
 18 17  1  0
 19 18  2  0
 19 15  1  0
 20 13  1  0
 20 21  1  0
 22 20  2  0
M  END
$$$$
