GVH.pdb
     RDKit          3D

 22 22  0  0  1  0  0  0  0  0999 V2000
   14.6463  -21.8039  -10.5221 N   0  0  0  0  0  0  0  0  0  0  0  0
   13.4627  -22.0196   -9.7338 C   0  0  0  0  0  0  0  0  0  0  0  0
   12.8497  -20.6937   -9.3581 C   0  0  0  0  0  0  0  0  0  0  0  0
   13.4110  -19.6579   -9.7170 O   0  0  0  0  0  0  0  0  0  0  0  0
    8.6957  -20.3350   -9.1994 C   0  0  0  0  0  0  0  0  0  0  0  0
    9.7136  -19.2344   -9.0488 C   0  0  2  0  0  0  0  0  0  0  0  0
   10.2249  -18.9028  -10.4318 C   0  0  0  0  0  0  0  0  0  0  0  0
   10.8205  -19.6868   -8.1384 C   0  0  2  0  0  0  0  0  0  0  0  0
   11.6744  -20.7075   -8.6208 N   0  0  0  0  0  0  0  0  0  0  0  0
   10.4452  -19.8121   -6.7196 C   0  0  0  0  0  0  0  0  0  0  0  0
   10.2212  -20.9561   -6.2578 O   0  0  0  0  0  0  0  0  0  0  0  0
   10.3167  -18.7451   -5.8317 N   0  0  0  0  0  0  0  0  0  0  0  0
    9.8703  -18.8362   -4.4592 C   0  0  1  0  0  0  0  0  0  0  0  0
   10.8052  -18.3412   -3.4574 C   0  0  0  0  0  0  0  0  0  0  0  0
   10.3038  -18.5272   -2.0822 C   0  0  0  0  0  0  0  0  0  0  0  0
    9.4651  -17.7222   -1.3232 C   0  0  0  0  0  0  0  0  0  0  0  0
    9.2902  -18.2465   -0.0974 N   0  0  0  0  0  0  0  0  0  0  0  0
   10.0041  -19.3831   -0.0470 C   0  0  0  0  0  0  0  0  0  0  0  0
   10.6017  -19.5483   -1.2172 N   0  0  0  0  0  0  0  0  0  0  0  0
    8.5814  -18.1555   -4.3875 C   0  0  0  0  0  0  0  0  0  0  0  0
    7.6205  -18.5471   -3.4890 O   0  0  0  0  0  0  0  0  0  0  0  0
    8.3288  -17.2004   -5.1506 O   0  0  0  0  0  0  0  0  0  0  0  0
  2  1  1  0
  3  9  1  0
  3  2  1  0
  4  3  2  0
  6  5  1  6
  6  8  1  0
  7  6  1  0
  8  9  1  6
  8 10  1  0
 10 12  1  0
 10 11  2  0
 12 13  1  0
 13 14  1  1
 14 15  1  0
 15 16  2  0
 17 16  1  0
 18 17  1  0
 19 18  2  0
 19 15  1  0
 20 13  1  0
 20 21  1  0
 22 20  2  0
M  END
$$$$
