GVH.pdb
     RDKit          3D

 22 22  0  0  1  0  0  0  0  0999 V2000
   24.5726  -15.8458  -17.3603 N   0  0  0  0  0  0  0  0  0  0  0  0
   25.3477  -16.1117  -16.1781 C   0  0  0  0  0  0  0  0  0  0  0  0
   25.3904  -17.5968  -15.9180 C   0  0  0  0  0  0  0  0  0  0  0  0
   24.9951  -18.3643  -16.7962 O   0  0  0  0  0  0  0  0  0  0  0  0
   28.3044  -19.5835  -15.0755 C   0  0  0  0  0  0  0  0  0  0  0  0
   27.4659  -19.7409  -13.8337 C   0  0  2  0  0  0  0  0  0  0  0  0
   27.5357  -21.1945  -13.4256 C   0  0  0  0  0  0  0  0  0  0  0  0
   26.0547  -19.3075  -14.1148 C   0  0  2  0  0  0  0  0  0  0  0  0
   25.8771  -18.0273  -14.6920 N   0  0  0  0  0  0  0  0  0  0  0  0
   25.0782  -19.6564  -13.0688 C   0  0  0  0  0  0  0  0  0  0  0  0
   24.8853  -18.8434  -12.1339 O   0  0  0  0  0  0  0  0  0  0  0  0
   24.3367  -20.8364  -13.0318 N   0  0  0  0  0  0  0  0  0  0  0  0
   23.3391  -21.1776  -12.0421 C   0  0  1  0  0  0  0  0  0  0  0  0
   23.7147  -20.9302  -10.6563 C   0  0  0  0  0  0  0  0  0  0  0  0
   22.6509  -21.3165   -9.7096 C   0  0  0  0  0  0  0  0  0  0  0  0
   21.4285  -21.9310   -9.9454 C   0  0  0  0  0  0  0  0  0  0  0  0
   20.7401  -22.0679   -8.7984 N   0  0  0  0  0  0  0  0  0  0  0  0
   21.4977  -21.5502   -7.8175 C   0  0  0  0  0  0  0  0  0  0  0  0
   22.6241  -21.1072   -8.3550 N   0  0  0  0  0  0  0  0  0  0  0  0
   22.1172  -20.4706  -12.4118 C   0  0  0  0  0  0  0  0  0  0  0  0
   20.9276  -20.7290  -11.7777 O   0  0  0  0  0  0  0  0  0  0  0  0
   22.1338  -19.6146  -13.3204 O   0  0  0  0  0  0  0  0  0  0  0  0
  2  1  1  0
  3  9  1  0
  3  2  1  0
  4  3  2  0
  6  5  1  6
  6  8  1  0
  7  6  1  0
  8  9  1  1
  8 10  1  0
 10 12  1  0
 10 11  2  0
 12 13  1  0
 13 14  1  1
 14 15  1  0
 15 16  2  0
 17 16  1  0
 18 17  1  0
 19 18  2  0
 19 15  1  0
 20 13  1  0
 20 21  1  0
 22 20  2  0
M  END
$$$$
