WSL.pdb
     RDKit          3D

 29 30  0  0  1  0  0  0  0  0999 V2000
   21.4377  -13.6083  -16.3658 N   0  0  0  0  0  0  0  0  0  0  0  0
   22.4419  -12.5844  -16.3881 C   0  0  1  0  0  0  0  0  0  0  0  0
   23.4512  -12.8619  -17.4521 C   0  0  0  0  0  0  0  0  0  0  0  0
   24.3750  -13.9214  -16.9937 C   0  0  0  0  0  0  0  0  0  0  0  0
   23.9937  -15.2161  -16.6567 C   0  0  0  0  0  0  0  0  0  0  0  0
   25.0958  -15.9085  -16.3222 N   0  0  0  0  0  0  0  0  0  0  0  0
   26.1691  -15.0796  -16.4392 C   0  0  0  0  0  0  0  0  0  0  0  0
   27.5091  -15.2962  -16.2084 C   0  0  0  0  0  0  0  0  0  0  0  0
   28.4277  -14.2889  -16.3867 C   0  0  0  0  0  0  0  0  0  0  0  0
   27.9785  -13.0428  -16.8055 C   0  0  0  0  0  0  0  0  0  0  0  0
   26.6450  -12.7983  -17.0439 C   0  0  0  0  0  0  0  0  0  0  0  0
   25.7385  -13.8206  -16.8610 C   0  0  0  0  0  0  0  0  0  0  0  0
   21.7717  -11.2646  -16.6451 C   0  0  0  0  0  0  0  0  0  0  0  0
   20.9033  -11.2098  -17.5404 O   0  0  0  0  0  0  0  0  0  0  0  0
   19.7943   -9.4164  -14.3861 O   0  0  0  0  0  0  0  0  0  0  0  0
   19.9266   -9.0145  -15.7131 C   0  0  0  0  0  0  0  0  0  0  0  0
   21.3869   -8.8942  -16.1072 C   0  0  2  0  0  0  0  0  0  0  0  0
   22.1097  -10.1065  -15.8965 N   0  0  0  0  0  0  0  0  0  0  0  0
   21.9749   -7.7513  -15.3294 C   0  0  0  0  0  0  0  0  0  0  0  0
   22.5894   -8.0245  -14.2928 O   0  0  0  0  0  0  0  0  0  0  0  0
   24.4329   -4.3876  -16.9630 C   0  0  0  0  0  0  0  0  0  0  0  0
   22.9355   -4.1334  -17.1450 C   0  0  2  0  0  0  0  0  0  0  0  0
   22.7566   -2.9627  -18.0461 C   0  0  0  0  0  0  0  0  0  0  0  0
   22.2852   -4.0111  -15.8057 C   0  0  0  0  0  0  0  0  0  0  0  0
   22.4168   -5.2730  -15.0225 C   0  0  2  0  0  0  0  0  0  0  0  0
   21.8468   -6.4082  -15.7418 N   0  0  0  0  0  0  0  0  0  0  0  0
   21.7186   -5.1475  -13.7325 C   0  0  0  0  0  0  0  0  0  0  0  0
   22.2866   -4.2843  -12.7695 O   0  0  0  0  0  0  0  0  0  0  0  0
   20.6767   -5.7123  -13.3749 O   0  0  0  0  0  0  0  0  0  0  0  0
  2  1  1  6
  2  3  1  0
  2 13  1  0
  3  4  1  0
  4 12  1  0
  5  4  2  0
  5  6  1  0
  6  7  1  0
  7  8  1  0
  8  9  2  0
 10  9  1  0
 11 10  2  0
 12  7  2  0
 12 11  1  0
 13 18  1  0
 13 14  2  0
 16 15  1  0
 17 16  1  1
 18 17  1  0
 19 17  1  0
 19 20  2  0
 22 21  1  1
 23 22  1  0
 25 24  1  6
 24 22  1  0
 25 26  1  0
 26 19  1  0
 27 25  1  0
 28 27  1  0
 29 27  2  0
M  END
$$$$
