WSL.pdb
     RDKit          3D

 29 30  0  0  1  0  0  0  0  0999 V2000
   23.5484  -20.8273  -15.4382 N   0  0  0  0  0  0  0  0  0  0  0  0
   24.4779  -20.2631  -14.5028 C   0  0  1  0  0  0  0  0  0  0  0  0
   23.9263  -19.0120  -13.9042 C   0  0  0  0  0  0  0  0  0  0  0  0
   23.6926  -18.0146  -14.9703 C   0  0  0  0  0  0  0  0  0  0  0  0
   22.4419  -17.5442  -15.3572 C   0  0  0  0  0  0  0  0  0  0  0  0
   22.6150  -16.6263  -16.3233 N   0  0  0  0  0  0  0  0  0  0  0  0
   23.9502  -16.5046  -16.5582 C   0  0  0  0  0  0  0  0  0  0  0  0
   24.6444  -15.7138  -17.4462 C   0  0  0  0  0  0  0  0  0  0  0  0
   26.0165  -15.7674  -17.5155 C   0  0  0  0  0  0  0  0  0  0  0  0
   26.6936  -16.6376  -16.6703 C   0  0  0  0  0  0  0  0  0  0  0  0
   26.0254  -17.4394  -15.7729 C   0  0  0  0  0  0  0  0  0  0  0  0
   24.6497  -17.3712  -15.7166 C   0  0  0  0  0  0  0  0  0  0  0  0
   24.7445  -21.2758  -13.4256 C   0  0  0  0  0  0  0  0  0  0  0  0
   24.1689  -22.3812  -13.5012 O   0  0  0  0  0  0  0  0  0  0  0  0
   28.2413  -20.3386  -13.6122 O   0  0  0  0  0  0  0  0  0  0  0  0
   27.7074  -21.6173  -13.4714 C   0  0  0  0  0  0  0  0  0  0  0  0
   26.8470  -21.7188  -12.2257 C   0  0  2  0  0  0  0  0  0  0  0  0
   25.6241  -20.9933  -12.3476 N   0  0  0  0  0  0  0  0  0  0  0  0
   27.6693  -21.2361  -11.0648 C   0  0  0  0  0  0  0  0  0  0  0  0
   28.7889  -21.7364  -10.9131 O   0  0  0  0  0  0  0  0  0  0  0  0
   27.5591  -18.2717   -5.7105 C   0  0  0  0  0  0  0  0  0  0  0  0
   27.3826  -19.5894   -6.4671 C   0  0  2  0  0  0  0  0  0  0  0  0
   28.2864  -20.6083   -5.8676 C   0  0  0  0  0  0  0  0  0  0  0  0
   27.5718  -19.3524   -7.9299 C   0  0  0  0  0  0  0  0  0  0  0  0
   27.0119  -20.4739   -8.7371 C   0  0  2  0  0  0  0  0  0  0  0  0
   27.2078  -20.2511  -10.1665 N   0  0  0  0  0  0  0  0  0  0  0  0
   25.5677  -20.6113   -8.4860 C   0  0  0  0  0  0  0  0  0  0  0  0
   25.1613  -21.6038   -7.5670 O   0  0  0  0  0  0  0  0  0  0  0  0
   24.6444  -19.9562   -8.9866 O   0  0  0  0  0  0  0  0  0  0  0  0
  2  1  1  6
  2  3  1  0
  2 13  1  0
  3  4  1  0
  4 12  1  0
  5  4  2  0
  5  6  1  0
  6  7  1  0
  7  8  1  0
  8  9  2  0
 10  9  1  0
 11 10  2  0
 12  7  2  0
 12 11  1  0
 13 18  1  0
 13 14  2  0
 16 15  1  0
 17 16  1  6
 18 17  1  0
 19 17  1  0
 19 20  2  0
 22 21  1  1
 23 22  1  0
 25 24  1  1
 24 22  1  0
 25 26  1  0
 26 19  1  0
 27 25  1  0
 28 27  1  0
 29 27  2  0
M  END
$$$$
