WSL.pdb
     RDKit          3D

 29 30  0  0  1  0  0  0  0  0999 V2000
   25.9818  -19.4590  -12.0125 N   0  0  0  0  0  0  0  0  0  0  0  0
   26.0624  -20.8842  -12.1524 C   0  0  1  0  0  0  0  0  0  0  0  0
   25.6462  -21.5603  -10.8886 C   0  0  0  0  0  0  0  0  0  0  0  0
   26.4053  -20.9959   -9.7523 C   0  0  0  0  0  0  0  0  0  0  0  0
   25.8352  -20.3595   -8.6544 C   0  0  0  0  0  0  0  0  0  0  0  0
   26.8197  -20.0105   -7.8089 N   0  0  0  0  0  0  0  0  0  0  0  0
   28.0035  -20.4119   -8.3478 C   0  0  0  0  0  0  0  0  0  0  0  0
   29.2954  -20.2879   -7.8879 C   0  0  0  0  0  0  0  0  0  0  0  0
   30.3546  -20.7689   -8.6207 C   0  0  0  0  0  0  0  0  0  0  0  0
   30.0977  -21.3848   -9.8392 C   0  0  0  0  0  0  0  0  0  0  0  0
   28.8164  -21.5226  -10.3231 C   0  0  0  0  0  0  0  0  0  0  0  0
   27.7668  -21.0354   -9.5740 C   0  0  0  0  0  0  0  0  0  0  0  0
   25.1645  -21.3041  -13.2814 C   0  0  0  0  0  0  0  0  0  0  0  0
   24.4012  -20.4487  -13.7758 O   0  0  0  0  0  0  0  0  0  0  0  0
   24.6481  -25.2862  -14.3407 O   0  0  0  0  0  0  0  0  0  0  0  0
   24.6334  -24.3841  -15.4019 C   0  0  0  0  0  0  0  0  0  0  0  0
   24.3813  -22.9690  -14.9158 C   0  0  2  0  0  0  0  0  0  0  0  0
   25.1759  -22.6338  -13.7788 N   0  0  0  0  0  0  0  0  0  0  0  0
   22.9124  -22.8424  -14.6274 C   0  0  0  0  0  0  0  0  0  0  0  0
   22.5495  -22.9715  -13.4533 O   0  0  0  0  0  0  0  0  0  0  0  0
   19.7610  -19.8152  -14.4519 C   0  0  0  0  0  0  0  0  0  0  0  0
   20.2948  -20.1161  -15.8535 C   0  0  2  0  0  0  0  0  0  0  0  0
   19.8687  -19.0244  -16.7706 C   0  0  0  0  0  0  0  0  0  0  0  0
   19.8748  -21.4905  -16.2614 C   0  0  0  0  0  0  0  0  0  0  0  0
   20.5201  -22.5294  -15.4087 C   0  0  2  0  0  0  0  0  0  0  0  0
   21.9609  -22.5862  -15.6370 N   0  0  0  0  0  0  0  0  0  0  0  0
   19.9542  -23.8558  -15.7052 C   0  0  0  0  0  0  0  0  0  0  0  0
   18.6398  -24.1143  -15.2575 O   0  0  0  0  0  0  0  0  0  0  0  0
   20.4923  -24.7934  -16.3083 O   0  0  0  0  0  0  0  0  0  0  0  0
  2  1  1  1
  2  3  1  0
  2 13  1  0
  3  4  1  0
  4 12  1  0
  5  4  2  0
  5  6  1  0
  6  7  1  0
  7  8  1  0
  8  9  2  0
 10  9  1  0
 11 10  2  0
 12  7  2  0
 12 11  1  0
 13 18  1  0
 13 14  2  0
 16 15  1  0
 17 16  1  1
 18 17  1  0
 19 17  1  0
 19 20  2  0
 22 21  1  1
 23 22  1  0
 25 24  1  6
 24 22  1  0
 25 26  1  0
 26 19  1  0
 27 25  1  0
 28 27  1  0
 29 27  2  0
M  END
$$$$
