WSL.pdb
     RDKit          3D

 29 30  0  0  1  0  0  0  0  0999 V2000
   26.4208  -19.3877  -17.6418 N   0  0  0  0  0  0  0  0  0  0  0  0
   26.7098  -19.1974  -16.2499 C   0  0  1  0  0  0  0  0  0  0  0  0
   26.4993  -17.7721  -15.8600 C   0  0  0  0  0  0  0  0  0  0  0  0
   27.3933  -16.9042  -16.6559 C   0  0  0  0  0  0  0  0  0  0  0  0
   26.9925  -15.7518  -17.3243 C   0  0  0  0  0  0  0  0  0  0  0  0
   28.0719  -15.2038  -17.9078 N   0  0  0  0  0  0  0  0  0  0  0  0
   29.1499  -15.9850  -17.6241 C   0  0  0  0  0  0  0  0  0  0  0  0
   30.4728  -15.8680  -17.9870 C   0  0  0  0  0  0  0  0  0  0  0  0
   31.4001  -16.7998  -17.5845 C   0  0  0  0  0  0  0  0  0  0  0  0
   30.9772  -17.8668  -16.8017 C   0  0  0  0  0  0  0  0  0  0  0  0
   29.6611  -18.0086  -16.4240 C   0  0  0  0  0  0  0  0  0  0  0  0
   28.7457  -17.0639  -16.8359 C   0  0  0  0  0  0  0  0  0  0  0  0
   25.8051  -20.0899  -15.4486 C   0  0  0  0  0  0  0  0  0  0  0  0
   24.7591  -20.5057  -15.9888 O   0  0  0  0  0  0  0  0  0  0  0  0
   26.2507  -20.7016  -11.2998 O   0  0  0  0  0  0  0  0  0  0  0  0
   25.8422  -21.7833  -12.0763 C   0  0  0  0  0  0  0  0  0  0  0  0
   25.2450  -21.3200  -13.3920 C   0  0  2  0  0  0  0  0  0  0  0  0
   26.1217  -20.4557  -14.1138 N   0  0  0  0  0  0  0  0  0  0  0  0
   23.9326  -20.6559  -13.0866 C   0  0  0  0  0  0  0  0  0  0  0  0
   23.9669  -19.4965  -12.6603 O   0  0  0  0  0  0  0  0  0  0  0  0
   21.2058  -18.1351  -14.3803 C   0  0  0  0  0  0  0  0  0  0  0  0
   21.1870  -19.4606  -15.1437 C   0  0  2  0  0  0  0  0  0  0  0  0
   20.4862  -19.2544  -16.4402 C   0  0  0  0  0  0  0  0  0  0  0  0
   20.6117  -20.5287  -14.2719 C   0  0  0  0  0  0  0  0  0  0  0  0
   21.3978  -20.6832  -13.0145 C   0  0  2  0  0  0  0  0  0  0  0  0
   22.6937  -21.3053  -13.2694 N   0  0  0  0  0  0  0  0  0  0  0  0
   20.6639  -21.5245  -12.0546 C   0  0  0  0  0  0  0  0  0  0  0  0
   19.7158  -20.8854  -11.2255 O   0  0  0  0  0  0  0  0  0  0  0  0
   20.7726  -22.7446  -11.8763 O   0  0  0  0  0  0  0  0  0  0  0  0
  2  1  1  6
  2  3  1  0
  2 13  1  0
  3  4  1  0
  4 12  1  0
  5  4  2  0
  5  6  1  0
  6  7  1  0
  7  8  1  0
  8  9  2  0
 10  9  1  0
 11 10  2  0
 12  7  2  0
 12 11  1  0
 13 18  1  0
 13 14  2  0
 16 15  1  0
 17 16  1  1
 18 17  1  0
 19 17  1  0
 19 20  2  0
 22 21  1  1
 23 22  1  0
 25 24  1  6
 24 22  1  0
 25 26  1  0
 26 19  1  0
 27 25  1  0
 28 27  1  0
 29 27  2  0
M  END
$$$$
