WSL.pdb
     RDKit          3D

 29 30  0  0  1  0  0  0  0  0999 V2000
   27.7002  -21.9035  -13.9089 N   0  0  0  0  0  0  0  0  0  0  0  0
   26.6100  -21.5960  -13.0291 C   0  0  1  0  0  0  0  0  0  0  0  0
   26.8967  -20.3547  -12.2516 C   0  0  0  0  0  0  0  0  0  0  0  0
   27.8995  -20.6468  -11.2051 C   0  0  0  0  0  0  0  0  0  0  0  0
   29.2734  -20.7040  -11.4158 C   0  0  0  0  0  0  0  0  0  0  0  0
   29.8721  -20.9559  -10.2394 N   0  0  0  0  0  0  0  0  0  0  0  0
   28.9062  -21.0606   -9.2859 C   0  0  0  0  0  0  0  0  0  0  0  0
   28.9915  -21.3164   -7.9358 C   0  0  0  0  0  0  0  0  0  0  0  0
   27.8599  -21.3875   -7.1581 C   0  0  0  0  0  0  0  0  0  0  0  0
   26.6231  -21.1960   -7.7610 C   0  0  0  0  0  0  0  0  0  0  0  0
   26.5083  -20.9386   -9.1084 C   0  0  0  0  0  0  0  0  0  0  0  0
   27.6538  -20.8697   -9.8721 C   0  0  0  0  0  0  0  0  0  0  0  0
   25.3684  -21.4118  -13.8547 C   0  0  0  0  0  0  0  0  0  0  0  0
   25.4672  -20.7988  -14.9379 O   0  0  0  0  0  0  0  0  0  0  0  0
   22.7013  -24.1613  -14.3171 O   0  0  0  0  0  0  0  0  0  0  0  0
   22.7097  -23.0119  -15.1037 C   0  0  0  0  0  0  0  0  0  0  0  0
   22.9690  -21.7745  -14.2647 C   0  0  2  0  0  0  0  0  0  0  0  0
   24.1133  -21.9164  -13.4238 N   0  0  0  0  0  0  0  0  0  0  0  0
   21.7244  -21.4941  -13.4716 C   0  0  0  0  0  0  0  0  0  0  0  0
   21.6270  -22.0232  -12.3591 O   0  0  0  0  0  0  0  0  0  0  0  0
   20.1483  -17.8506  -11.9198 C   0  0  0  0  0  0  0  0  0  0  0  0
   19.8181  -17.9477  -13.4102 C   0  0  2  0  0  0  0  0  0  0  0  0
   19.3471  -16.6173  -13.8821 C   0  0  0  0  0  0  0  0  0  0  0  0
   18.8666  -19.0769  -13.6365 C   0  0  0  0  0  0  0  0  0  0  0  0
   19.4612  -20.3784  -13.2176 C   0  0  2  0  0  0  0  0  0  0  0  0
   20.6904  -20.6633  -13.9519 N   0  0  0  0  0  0  0  0  0  0  0  0
   18.5117  -21.4760  -13.4654 C   0  0  0  0  0  0  0  0  0  0  0  0
   18.7946  -22.3470  -14.5406 O   0  0  0  0  0  0  0  0  0  0  0  0
   17.4762  -21.7396  -12.8406 O   0  0  0  0  0  0  0  0  0  0  0  0
  2  1  1  6
  2  3  1  0
  2 13  1  0
  3  4  1  0
  4 12  1  0
  5  4  2  0
  5  6  1  0
  6  7  1  0
  7  8  1  0
  8  9  2  0
 10  9  1  0
 11 10  2  0
 12  7  2  0
 12 11  1  0
 13 18  1  0
 13 14  2  0
 16 15  1  0
 17 16  1  1
 18 17  1  0
 19 17  1  0
 19 20  2  0
 22 21  1  1
 23 22  1  0
 25 24  1  6
 24 22  1  0
 25 26  1  0
 26 19  1  0
 27 25  1  0
 28 27  1  0
 29 27  2  0
M  END
$$$$
