WSL.pdb
     RDKit          3D

 29 30  0  0  1  0  0  0  0  0999 V2000
   24.6797  -19.5242   -9.0532 N   0  0  0  0  0  0  0  0  0  0  0  0
   25.9633  -20.0295   -9.4460 C   0  0  1  0  0  0  0  0  0  0  0  0
   26.2796  -21.2887   -8.7099 C   0  0  0  0  0  0  0  0  0  0  0  0
   26.3916  -21.0018   -7.2638 C   0  0  0  0  0  0  0  0  0  0  0  0
   25.3544  -21.1321   -6.3458 C   0  0  0  0  0  0  0  0  0  0  0  0
   25.8267  -20.8221   -5.1265 N   0  0  0  0  0  0  0  0  0  0  0  0
   27.1427  -20.4971   -5.2515 C   0  0  0  0  0  0  0  0  0  0  0  0
   28.0704  -20.1029   -4.3138 C   0  0  0  0  0  0  0  0  0  0  0  0
   29.3633  -19.8110   -4.6793 C   0  0  0  0  0  0  0  0  0  0  0  0
   29.7190  -19.9210   -6.0177 C   0  0  0  0  0  0  0  0  0  0  0  0
   28.8123  -20.3130   -6.9764 C   0  0  0  0  0  0  0  0  0  0  0  0
   27.5208  -20.6027   -6.5911 C   0  0  0  0  0  0  0  0  0  0  0  0
   25.9411  -20.2892  -10.9256 C   0  0  0  0  0  0  0  0  0  0  0  0
   24.8368  -20.2821  -11.5081 O   0  0  0  0  0  0  0  0  0  0  0  0
   29.1969  -21.3351  -13.4562 O   0  0  0  0  0  0  0  0  0  0  0  0
   28.7736  -20.0097  -13.3920 C   0  0  0  0  0  0  0  0  0  0  0  0
   27.3349  -19.9153  -12.9191 C   0  0  2  0  0  0  0  0  0  0  0  0
   27.1367  -20.5371  -11.6500 N   0  0  0  0  0  0  0  0  0  0  0  0
   26.4662  -20.5259  -13.9818 C   0  0  0  0  0  0  0  0  0  0  0  0
   26.1513  -21.7131  -13.8471 O   0  0  0  0  0  0  0  0  0  0  0  0
   22.4899  -20.5905  -15.4923 C   0  0  0  0  0  0  0  0  0  0  0  0
   23.1477  -19.2441  -15.7995 C   0  0  2  0  0  0  0  0  0  0  0  0
   22.0952  -18.2882  -16.2388 C   0  0  0  0  0  0  0  0  0  0  0  0
   24.2676  -19.4469  -16.7673 C   0  0  0  0  0  0  0  0  0  0  0  0
   25.2894  -20.3869  -16.2240 C   0  0  2  0  0  0  0  0  0  0  0  0
   26.0122  -19.7970  -15.1011 N   0  0  0  0  0  0  0  0  0  0  0  0
   26.2667  -20.7367  -17.2681 C   0  0  0  0  0  0  0  0  0  0  0  0
   26.1733  -22.0260  -17.8372 O   0  0  0  0  0  0  0  0  0  0  0  0
   27.1786  -20.0327  -17.7210 O   0  0  0  0  0  0  0  0  0  0  0  0
  2  1  1  1
  2  3  1  0
  2 13  1  0
  3  4  1  0
  4 12  1  0
  5  4  2  0
  5  6  1  0
  6  7  1  0
  7  8  1  0
  8  9  2  0
 10  9  1  0
 11 10  2  0
 12  7  2  0
 12 11  1  0
 13 18  1  0
 13 14  2  0
 16 15  1  0
 17 16  1  6
 18 17  1  0
 19 17  1  0
 19 20  2  0
 22 21  1  6
 23 22  1  0
 25 24  1  6
 24 22  1  0
 25 26  1  0
 26 19  1  0
 27 25  1  0
 28 27  1  0
 29 27  2  0
M  END
$$$$
