WSL.pdb
     RDKit          3D

 29 30  0  0  1  0  0  0  0  0999 V2000
   21.9922  -17.8440  -16.7043 N   0  0  0  0  0  0  0  0  0  0  0  0
   20.9136  -17.4443  -15.8475 C   0  0  1  0  0  0  0  0  0  0  0  0
   19.7936  -16.8670  -16.6476 C   0  0  0  0  0  0  0  0  0  0  0  0
   20.1197  -15.4744  -17.0223 C   0  0  0  0  0  0  0  0  0  0  0  0
   20.7313  -15.0949  -18.2128 C   0  0  0  0  0  0  0  0  0  0  0  0
   20.8373  -13.7554  -18.2261 N   0  0  0  0  0  0  0  0  0  0  0  0
   20.3060  -13.2764  -17.0680 C   0  0  0  0  0  0  0  0  0  0  0  0
   20.1787  -11.9897  -16.5950 C   0  0  0  0  0  0  0  0  0  0  0  0
   19.6073  -11.7417  -15.3693 C   0  0  0  0  0  0  0  0  0  0  0  0
   19.1586  -12.8169  -14.6126 C   0  0  0  0  0  0  0  0  0  0  0  0
   19.2729  -14.1134  -15.0608 C   0  0  0  0  0  0  0  0  0  0  0  0
   19.8474  -14.3428  -16.2927 C   0  0  0  0  0  0  0  0  0  0  0  0
   20.4364  -18.6493  -15.0876 C   0  0  0  0  0  0  0  0  0  0  0  0
   20.3540  -19.7354  -15.6978 O   0  0  0  0  0  0  0  0  0  0  0  0
   20.0257  -18.4169  -11.0770 O   0  0  0  0  0  0  0  0  0  0  0  0
   19.8883  -19.7152  -11.5623 C   0  0  0  0  0  0  0  0  0  0  0  0
   19.5701  -19.7159  -13.0459 C   0  0  2  0  0  0  0  0  0  0  0  0
   20.0863  -18.5654  -13.7143 N   0  0  0  0  0  0  0  0  0  0  0  0
   18.0788  -19.8236  -13.1909 C   0  0  0  0  0  0  0  0  0  0  0  0
   17.4195  -18.7842  -13.0813 O   0  0  0  0  0  0  0  0  0  0  0  0
   15.0320  -20.6631  -16.4547 C   0  0  0  0  0  0  0  0  0  0  0  0
   16.0210  -21.7336  -15.9904 C   0  0  2  0  0  0  0  0  0  0  0  0
   16.0984  -22.7948  -17.0308 C   0  0  0  0  0  0  0  0  0  0  0  0
   15.6381  -22.2065  -14.6260 C   0  0  0  0  0  0  0  0  0  0  0  0
   15.9827  -21.1954  -13.5859 C   0  0  2  0  0  0  0  0  0  0  0  0
   17.4282  -21.0498  -13.4427 N   0  0  0  0  0  0  0  0  0  0  0  0
   15.4287  -21.5962  -12.2820 C   0  0  0  0  0  0  0  0  0  0  0  0
   14.0368  -21.4456  -12.0954 O   0  0  0  0  0  0  0  0  0  0  0  0
   16.0375  -22.0574  -11.3079 O   0  0  0  0  0  0  0  0  0  0  0  0
  2  1  1  6
  2  3  1  0
  2 13  1  0
  3  4  1  0
  4 12  1  0
  5  4  2  0
  5  6  1  0
  6  7  1  0
  7  8  1  0
  8  9  2  0
 10  9  1  0
 11 10  2  0
 12  7  2  0
 12 11  1  0
 13 18  1  0
 13 14  2  0
 16 15  1  0
 17 16  1  1
 18 17  1  0
 19 17  1  0
 19 20  2  0
 22 21  1  6
 23 22  1  0
 25 24  1  6
 24 22  1  0
 25 26  1  0
 26 19  1  0
 27 25  1  0
 28 27  1  0
 29 27  2  0
M  END
$$$$
