WSL.pdb
     RDKit          3D

 29 30  0  0  1  0  0  0  0  0999 V2000
   27.9212  -21.8964  -12.8729 N   0  0  0  0  0  0  0  0  0  0  0  0
   26.7073  -21.8493  -12.1104 C   0  0  1  0  0  0  0  0  0  0  0  0
   26.7153  -20.6804  -11.1822 C   0  0  0  0  0  0  0  0  0  0  0  0
   27.7683  -20.8665  -10.1612 C   0  0  0  0  0  0  0  0  0  0  0  0
   29.0919  -21.1947  -10.4363 C   0  0  0  0  0  0  0  0  0  0  0  0
   29.7658  -21.2453   -9.2747 N   0  0  0  0  0  0  0  0  0  0  0  0
   28.8969  -20.9566   -8.2675 C   0  0  0  0  0  0  0  0  0  0  0  0
   29.0823  -20.8855   -6.9051 C   0  0  0  0  0  0  0  0  0  0  0  0
   28.0370  -20.5808   -6.0655 C   0  0  0  0  0  0  0  0  0  0  0  0
   26.7845  -20.3449   -6.6183 C   0  0  0  0  0  0  0  0  0  0  0  0
   26.5706  -20.4089   -7.9765 C   0  0  0  0  0  0  0  0  0  0  0  0
   27.6307  -20.7147   -8.8029 C   0  0  0  0  0  0  0  0  0  0  0  0
   25.5499  -21.7435  -13.0624 C   0  0  0  0  0  0  0  0  0  0  0  0
   25.3439  -20.6450  -13.6189 O   0  0  0  0  0  0  0  0  0  0  0  0
   22.7872  -24.8999  -13.6731 O   0  0  0  0  0  0  0  0  0  0  0  0
   23.0863  -24.0403  -14.7274 C   0  0  0  0  0  0  0  0  0  0  0  0
   23.6032  -22.7073  -14.2190 C   0  0  2  0  0  0  0  0  0  0  0  0
   24.7080  -22.8554  -13.3280 N   0  0  0  0  0  0  0  0  0  0  0  0
   22.4532  -21.9922  -13.5685 C   0  0  0  0  0  0  0  0  0  0  0  0
   22.6050  -21.6127  -12.4024 O   0  0  0  0  0  0  0  0  0  0  0  0
   19.0228  -18.2103  -15.0701 C   0  0  0  0  0  0  0  0  0  0  0  0
   20.2763  -18.1112  -14.1990 C   0  0  2  0  0  0  0  0  0  0  0  0
   20.9438  -16.8091  -14.4703 C   0  0  0  0  0  0  0  0  0  0  0  0
   21.1278  -19.3198  -14.4132 C   0  0  0  0  0  0  0  0  0  0  0  0
   20.4067  -20.5659  -14.0257 C   0  0  2  0  0  0  0  0  0  0  0  0
   21.2355  -21.7489  -14.2380 N   0  0  0  0  0  0  0  0  0  0  0  0
   19.1792  -20.7141  -14.8250 C   0  0  0  0  0  0  0  0  0  0  0  0
   17.9481  -20.4952  -14.1684 O   0  0  0  0  0  0  0  0  0  0  0  0
   19.0845  -21.0120  -16.0227 O   0  0  0  0  0  0  0  0  0  0  0  0
  2  1  1  6
  2  3  1  0
  2 13  1  0
  3  4  1  0
  4 12  1  0
  5  4  2  0
  5  6  1  0
  6  7  1  0
  7  8  1  0
  8  9  2  0
 10  9  1  0
 11 10  2  0
 12  7  2  0
 12 11  1  0
 13 18  1  0
 13 14  2  0
 16 15  1  0
 17 16  1  1
 18 17  1  0
 19 17  1  0
 19 20  2  0
 22 21  1  6
 23 22  1  0
 25 24  1  6
 24 22  1  0
 25 26  1  0
 26 19  1  0
 27 25  1  0
 28 27  1  0
 29 27  2  0
M  END
$$$$
