WSL.pdb
     RDKit          3D

 29 30  0  0  1  0  0  0  0  0999 V2000
   28.1630  -21.6570  -10.9232 N   0  0  0  0  0  0  0  0  0  0  0  0
   26.9292  -21.1200  -10.4266 C   0  0  1  0  0  0  0  0  0  0  0  0
   27.1704  -19.8446   -9.6898 C   0  0  0  0  0  0  0  0  0  0  0  0
   28.0952  -20.0915   -8.5629 C   0  0  0  0  0  0  0  0  0  0  0  0
   29.3339  -20.7148   -8.6743 C   0  0  0  0  0  0  0  0  0  0  0  0
   29.9089  -20.7342   -7.4598 N   0  0  0  0  0  0  0  0  0  0  0  0
   29.0602  -20.1364   -6.5793 C   0  0  0  0  0  0  0  0  0  0  0  0
   29.1719  -19.9112   -5.2256 C   0  0  0  0  0  0  0  0  0  0  0  0
   28.1649  -19.2863   -4.5287 C   0  0  0  0  0  0  0  0  0  0  0  0
   27.0271  -18.8845   -5.2171 C   0  0  0  0  0  0  0  0  0  0  0  0
   26.8887  -19.0966   -6.5701 C   0  0  0  0  0  0  0  0  0  0  0  0
   27.9092  -19.7236   -7.2526 C   0  0  0  0  0  0  0  0  0  0  0  0
   26.0119  -20.8766  -11.5914 C   0  0  0  0  0  0  0  0  0  0  0  0
   26.4544  -20.2314  -12.5644 O   0  0  0  0  0  0  0  0  0  0  0  0
   22.7452  -23.2244  -12.4558 O   0  0  0  0  0  0  0  0  0  0  0  0
   23.3404  -22.3697  -13.3806 C   0  0  0  0  0  0  0  0  0  0  0  0
   23.8336  -21.0985  -12.7149 C   0  0  2  0  0  0  0  0  0  0  0  0
   24.6778  -21.3622  -11.5949 N   0  0  0  0  0  0  0  0  0  0  0  0
   22.6276  -20.2911  -12.3272 C   0  0  0  0  0  0  0  0  0  0  0  0
   22.2338  -20.3809  -11.1594 O   0  0  0  0  0  0  0  0  0  0  0  0
   18.5413  -16.4591  -15.0293 C   0  0  0  0  0  0  0  0  0  0  0  0
   19.0250  -17.1473  -13.7517 C   0  0  2  0  0  0  0  0  0  0  0  0
   18.9753  -16.1665  -12.6335 C   0  0  0  0  0  0  0  0  0  0  0  0
   20.3622  -17.7669  -13.9960 C   0  0  0  0  0  0  0  0  0  0  0  0
   20.6930  -18.7727  -12.9463 C   0  0  2  0  0  0  0  0  0  0  0  0
   21.9505  -19.4542  -13.2389 N   0  0  0  0  0  0  0  0  0  0  0  0
   19.6292  -19.7866  -12.8585 C   0  0  0  0  0  0  0  0  0  0  0  0
   19.6584  -20.8395  -13.7995 O   0  0  0  0  0  0  0  0  0  0  0  0
   18.6929  -19.8369  -12.0503 O   0  0  0  0  0  0  0  0  0  0  0  0
  2  1  1  6
  2  3  1  0
  2 13  1  0
  3  4  1  0
  4 12  1  0
  5  4  2  0
  5  6  1  0
  6  7  1  0
  7  8  1  0
  8  9  2  0
 10  9  1  0
 11 10  2  0
 12  7  2  0
 12 11  1  0
 13 18  1  0
 13 14  2  0
 16 15  1  0
 17 16  1  1
 18 17  1  0
 19 17  1  0
 19 20  2  0
 22 21  1  6
 23 22  1  0
 25 24  1  6
 24 22  1  0
 25 26  1  0
 26 19  1  0
 27 25  1  0
 28 27  1  0
 29 27  2  0
M  END
$$$$
