TWR.pdb
     RDKit          3D

 33 34  0  0  1  0  0  0  0  0999 V2000
    8.1535  -15.1587   16.2144 C   0  0  0  0  0  0  0  0  0  0  0  0
    8.5407  -15.1580   17.6818 C   0  0  1  0  0  0  0  0  0  0  0  0
    9.9454  -15.3223   17.7947 O   0  0  0  0  0  0  0  0  0  0  0  0
    8.0453  -13.9606   18.4376 C   0  0  2  0  0  0  0  0  0  0  0  0
    8.5353  -12.7696   17.7777 N   0  0  0  0  0  0  0  0  0  0  0  0
    8.4362  -13.9717   19.8708 C   0  0  0  0  0  0  0  0  0  0  0  0
    9.5805  -13.6208   20.1956 O   0  0  0  0  0  0  0  0  0  0  0  0
    7.4973  -14.3806   20.8639 N   0  0  0  0  0  0  0  0  0  0  0  0
    7.7929  -14.5053   22.2629 C   0  0  1  0  0  0  0  0  0  0  0  0
    6.6425  -14.9222   23.1440 C   0  0  0  0  0  0  0  0  0  0  0  0
    6.8880  -14.8706   24.5785 C   0  0  0  0  0  0  0  0  0  0  0  0
    7.2074  -15.9072   25.4025 C   0  0  0  0  0  0  0  0  0  0  0  0
    7.3741  -15.4336   26.6737 N   0  0  0  0  0  0  0  0  0  0  0  0
    7.1666  -14.1163   26.6650 C   0  0  0  0  0  0  0  0  0  0  0  0
    7.2022  -13.1727   27.6890 C   0  0  0  0  0  0  0  0  0  0  0  0
    6.9375  -11.8356   27.4632 C   0  0  0  0  0  0  0  0  0  0  0  0
    6.6323  -11.4725   26.1610 C   0  0  0  0  0  0  0  0  0  0  0  0
    6.5952  -12.3976   25.1464 C   0  0  0  0  0  0  0  0  0  0  0  0
    6.8628  -13.7294   25.3859 C   0  0  0  0  0  0  0  0  0  0  0  0
    8.8086  -15.6298   22.4502 C   0  0  0  0  0  0  0  0  0  0  0  0
    8.5382  -16.7610   21.9746 O   0  0  0  0  0  0  0  0  0  0  0  0
   15.8658  -16.6625   19.0423 N   0  0  0  0  0  0  0  0  0  0  0  0
   14.9695  -15.5738   19.2449 C   0  0  0  0  0  0  0  0  0  0  0  0
   14.5681  -14.8162   18.2338 N   0  0  0  0  0  0  0  0  0  0  0  0
   14.4653  -15.2470   20.5472 N   0  0  0  0  0  0  0  0  0  0  0  0
   14.7485  -16.0150   21.7099 C   0  0  0  0  0  0  0  0  0  0  0  0
   13.5315  -16.4842   22.4634 C   0  0  0  0  0  0  0  0  0  0  0  0
   12.3266  -15.6070   22.4084 C   0  0  0  0  0  0  0  0  0  0  0  0
   11.1912  -16.1625   23.2522 C   0  0  2  0  0  0  0  0  0  0  0  0
   10.0076  -15.4271   23.1323 N   0  0  0  0  0  0  0  0  0  0  0  0
   11.6254  -16.7557   24.5245 C   0  0  0  0  0  0  0  0  0  0  0  0
   12.6254  -17.6394   24.6961 O   0  0  0  0  0  0  0  0  0  0  0  0
   10.9658  -16.3611   25.5566 O   0  0  0  0  0  0  0  0  0  0  0  0
  2  1  1  6
  3  2  1  0
  4  5  1  6
  4  2  1  0
  6  4  1  0
  7  6  2  0
  8  6  1  0
  9 20  1  0
  9  8  1  0
  9 10  1  1
 11 10  1  0
 12 11  2  0
 13 14  1  0
 13 12  1  0
 14 19  2  0
 15 16  2  0
 15 14  1  0
 16 17  1  0
 17 18  2  0
 19 18  1  0
 19 11  1  0
 20 21  2  0
 23 22  1  0
 23 25  1  0
 24 23  2  0
 26 25  1  0
 26 27  1  0
 27 28  1  0
 29 28  1  1
 30 20  1  0
 30 29  1  0
 31 29  1  0
 31 32  1  0
 33 31  2  0
M  END
$$$$
