TWR.pdb
     RDKit          3D

 33 34  0  0  1  0  0  0  0  0999 V2000
    6.4845  -14.8490   17.5915 C   0  0  0  0  0  0  0  0  0  0  0  0
    7.4225  -15.0043   18.7745 C   0  0  1  0  0  0  0  0  0  0  0  0
    8.7512  -15.1554   18.3008 O   0  0  0  0  0  0  0  0  0  0  0  0
    7.3018  -13.9070   19.7903 C   0  0  2  0  0  0  0  0  0  0  0  0
    7.4709  -12.6387   19.1143 N   0  0  0  0  0  0  0  0  0  0  0  0
    8.2650  -14.0420   20.9132 C   0  0  0  0  0  0  0  0  0  0  0  0
    9.3723  -13.4886   20.8394 O   0  0  0  0  0  0  0  0  0  0  0  0
    7.9129  -14.8013   22.0685 N   0  0  0  0  0  0  0  0  0  0  0  0
    8.8260  -15.1638   23.1150 C   0  0  1  0  0  0  0  0  0  0  0  0
    8.2054  -15.7635   24.3513 C   0  0  0  0  0  0  0  0  0  0  0  0
    7.2416  -14.9252   25.0507 C   0  0  0  0  0  0  0  0  0  0  0  0
    5.9389  -15.2128   25.3259 C   0  0  0  0  0  0  0  0  0  0  0  0
    5.3862  -14.1699   26.0151 N   0  0  0  0  0  0  0  0  0  0  0  0
    6.3183  -13.2306   26.1802 C   0  0  0  0  0  0  0  0  0  0  0  0
    6.2678  -11.9831   26.7979 C   0  0  0  0  0  0  0  0  0  0  0  0
    7.3646  -11.1443   26.8463 C   0  0  0  0  0  0  0  0  0  0  0  0
    8.5270  -11.6039   26.2477 C   0  0  0  0  0  0  0  0  0  0  0  0
    8.5839  -12.8327   25.6368 C   0  0  0  0  0  0  0  0  0  0  0  0
    7.4814  -13.6606   25.5966 C   0  0  0  0  0  0  0  0  0  0  0  0
    9.7411  -16.2738   22.6033 C   0  0  0  0  0  0  0  0  0  0  0  0
    9.3059  -17.0365   21.7046 O   0  0  0  0  0  0  0  0  0  0  0  0
   15.1748  -16.2566   17.6999 N   0  0  0  0  0  0  0  0  0  0  0  0
   15.6789  -14.9614   18.0131 C   0  0  0  0  0  0  0  0  0  0  0  0
   16.4678  -14.3085   17.1711 N   0  0  0  0  0  0  0  0  0  0  0  0
   15.3600  -14.3089   19.2498 N   0  0  0  0  0  0  0  0  0  0  0  0
   14.0492  -14.2756   19.8001 C   0  0  0  0  0  0  0  0  0  0  0  0
   13.7944  -15.2991   20.8754 C   0  0  0  0  0  0  0  0  0  0  0  0
   12.4330  -15.3103   21.4845 C   0  0  0  0  0  0  0  0  0  0  0  0
   12.3083  -16.3812   22.5557 C   0  0  2  0  0  0  0  0  0  0  0  0
   11.0269  -16.4549   23.1113 N   0  0  0  0  0  0  0  0  0  0  0  0
   13.5264  -16.5741   23.3546 C   0  0  0  0  0  0  0  0  0  0  0  0
   14.6760  -17.1360   22.9388 O   0  0  0  0  0  0  0  0  0  0  0  0
   13.4517  -16.1430   24.5647 O   0  0  0  0  0  0  0  0  0  0  0  0
  2  1  1  6
  3  2  1  0
  4  5  1  6
  4  2  1  0
  6  4  1  0
  7  6  2  0
  8  6  1  0
  9 20  1  0
  9  8  1  0
  9 10  1  1
 11 10  1  0
 12 11  2  0
 13 14  1  0
 13 12  1  0
 14 19  2  0
 15 16  2  0
 15 14  1  0
 16 17  1  0
 17 18  2  0
 19 18  1  0
 19 11  1  0
 20 21  2  0
 23 22  1  0
 23 25  1  0
 24 23  2  0
 26 25  1  0
 26 27  1  0
 27 28  1  0
 29 28  1  1
 30 20  1  0
 30 29  1  0
 31 29  1  0
 31 32  1  0
 33 31  2  0
M  END
$$$$
