TWR.pdb
     RDKit          3D

 33 34  0  0  1  0  0  0  0  0999 V2000
    8.0484  -15.2741   16.3064 C   0  0  0  0  0  0  0  0  0  0  0  0
    8.4637  -15.2889   17.7660 C   0  0  1  0  0  0  0  0  0  0  0  0
    9.8583  -15.5348   17.8527 O   0  0  0  0  0  0  0  0  0  0  0  0
    8.0542  -14.0607   18.5239 C   0  0  2  0  0  0  0  0  0  0  0  0
    8.5768  -12.9021   17.8322 N   0  0  0  0  0  0  0  0  0  0  0  0
    8.4956  -14.0754   19.9424 C   0  0  0  0  0  0  0  0  0  0  0  0
    9.6805  -13.8334   20.2169 O   0  0  0  0  0  0  0  0  0  0  0  0
    7.5585  -14.3630   20.9788 N   0  0  0  0  0  0  0  0  0  0  0  0
    7.8951  -14.4974   22.3677 C   0  0  1  0  0  0  0  0  0  0  0  0
    6.7318  -14.6451   23.3154 C   0  0  0  0  0  0  0  0  0  0  0  0
    7.0608  -14.6329   24.7341 C   0  0  0  0  0  0  0  0  0  0  0  0
    7.2911  -15.7062   25.5407 C   0  0  0  0  0  0  0  0  0  0  0  0
    7.5865  -15.2645   26.7999 N   0  0  0  0  0  0  0  0  0  0  0  0
    7.5477  -13.9315   26.8007 C   0  0  0  0  0  0  0  0  0  0  0  0
    7.7593  -13.0056   27.8197 C   0  0  0  0  0  0  0  0  0  0  0  0
    7.6543  -11.6445   27.6067 C   0  0  0  0  0  0  0  0  0  0  0  0
    7.3262  -11.2386   26.3229 C   0  0  0  0  0  0  0  0  0  0  0  0
    7.1160  -12.1459   25.3134 C   0  0  0  0  0  0  0  0  0  0  0  0
    7.2252  -13.5022   25.5398 C   0  0  0  0  0  0  0  0  0  0  0  0
    8.6754  -15.7959   22.5588 C   0  0  0  0  0  0  0  0  0  0  0  0
    8.1602  -16.8655   22.1470 O   0  0  0  0  0  0  0  0  0  0  0  0
   15.9275  -14.4345   19.7516 N   0  0  0  0  0  0  0  0  0  0  0  0
   14.6109  -14.0604   19.3562 C   0  0  0  0  0  0  0  0  0  0  0  0
   14.4037  -13.2873   18.2993 N   0  0  0  0  0  0  0  0  0  0  0  0
   13.4544  -14.4987   20.0825 N   0  0  0  0  0  0  0  0  0  0  0  0
   13.5192  -15.3798   21.1967 C   0  0  0  0  0  0  0  0  0  0  0  0
   12.1901  -15.6747   21.8411 C   0  0  0  0  0  0  0  0  0  0  0  0
   12.1798  -16.7020   22.9223 C   0  0  0  0  0  0  0  0  0  0  0  0
   10.8044  -16.8344   23.5550 C   0  0  2  0  0  0  0  0  0  0  0  0
    9.9254  -15.8147   23.1760 N   0  0  0  0  0  0  0  0  0  0  0  0
   10.8212  -17.3967   24.9125 C   0  0  0  0  0  0  0  0  0  0  0  0
   11.4935  -18.4893   25.3184 O   0  0  0  0  0  0  0  0  0  0  0  0
   10.1182  -16.7485   25.7736 O   0  0  0  0  0  0  0  0  0  0  0  0
  2  1  1  6
  3  2  1  0
  4  5  1  6
  4  2  1  0
  6  4  1  0
  7  6  2  0
  8  6  1  0
  9 20  1  0
  9  8  1  0
  9 10  1  1
 11 10  1  0
 12 11  2  0
 13 14  1  0
 13 12  1  0
 14 19  2  0
 15 16  2  0
 15 14  1  0
 16 17  1  0
 17 18  2  0
 19 18  1  0
 19 11  1  0
 20 21  2  0
 23 22  1  0
 23 25  1  0
 24 23  2  0
 26 25  1  0
 26 27  1  0
 27 28  1  0
 29 28  1  1
 30 20  1  0
 30 29  1  0
 31 29  1  0
 31 32  1  0
 33 31  2  0
M  END
$$$$
