TWR.pdb
     RDKit          3D

 33 34  0  0  1  0  0  0  0  0999 V2000
    6.0240  -20.0533   19.7680 C   0  0  0  0  0  0  0  0  0  0  0  0
    7.0060  -19.0857   20.4025 C   0  0  1  0  0  0  0  0  0  0  0  0
    7.9979  -18.7351   19.4506 O   0  0  0  0  0  0  0  0  0  0  0  0
    6.3568  -17.8815   21.0179 C   0  0  2  0  0  0  0  0  0  0  0  0
    5.5568  -17.2268   20.0052 N   0  0  0  0  0  0  0  0  0  0  0  0
    7.3319  -16.9346   21.6175 C   0  0  0  0  0  0  0  0  0  0  0  0
    7.7462  -15.9769   20.9473 O   0  0  0  0  0  0  0  0  0  0  0  0
    7.7835  -17.1275   22.9569 N   0  0  0  0  0  0  0  0  0  0  0  0
    8.6843  -16.2492   23.6479 C   0  0  1  0  0  0  0  0  0  0  0  0
    8.4826  -16.1393   25.1380 C   0  0  0  0  0  0  0  0  0  0  0  0
    7.5030  -15.1551   25.5770 C   0  0  0  0  0  0  0  0  0  0  0  0
    6.1983  -15.3726   25.9025 C   0  0  0  0  0  0  0  0  0  0  0  0
    5.6286  -14.1898   26.2825 N   0  0  0  0  0  0  0  0  0  0  0  0
    6.5518  -13.2308   26.2033 C   0  0  0  0  0  0  0  0  0  0  0  0
    6.4840  -11.8646   26.4661 C   0  0  0  0  0  0  0  0  0  0  0  0
    7.5743  -11.0318   26.3034 C   0  0  0  0  0  0  0  0  0  0  0  0
    8.7485  -11.6220   25.8632 C   0  0  0  0  0  0  0  0  0  0  0  0
    8.8226  -12.9684   25.6019 C   0  0  0  0  0  0  0  0  0  0  0  0
    7.7263  -13.7885   25.7698 C   0  0  0  0  0  0  0  0  0  0  0  0
   10.1014  -16.8036   23.5217 C   0  0  0  0  0  0  0  0  0  0  0  0
   10.3974  -17.8344   24.1765 O   0  0  0  0  0  0  0  0  0  0  0  0
   13.7571  -13.5652   18.1087 N   0  0  0  0  0  0  0  0  0  0  0  0
   15.1133  -13.9774   18.2522 C   0  0  0  0  0  0  0  0  0  0  0  0
   16.0345  -13.6329   17.3632 N   0  0  0  0  0  0  0  0  0  0  0  0
   15.5415  -14.7832   19.3587 N   0  0  0  0  0  0  0  0  0  0  0  0
   15.2794  -14.4493   20.7158 C   0  0  0  0  0  0  0  0  0  0  0  0
   14.5218  -15.4997   21.4850 C   0  0  0  0  0  0  0  0  0  0  0  0
   13.0671  -15.2548   21.7042 C   0  0  0  0  0  0  0  0  0  0  0  0
   12.4388  -16.3439   22.5579 C   0  0  2  0  0  0  0  0  0  0  0  0
   11.0567  -16.1930   22.7103 N   0  0  0  0  0  0  0  0  0  0  0  0
   13.3034  -16.8281   23.6428 C   0  0  0  0  0  0  0  0  0  0  0  0
   14.3386  -17.6792   23.5225 O   0  0  0  0  0  0  0  0  0  0  0  0
   13.0172  -16.3642   24.8085 O   0  0  0  0  0  0  0  0  0  0  0  0
  2  1  1  6
  3  2  1  0
  4  5  1  6
  4  2  1  0
  6  4  1  0
  7  6  2  0
  8  6  1  0
  9 20  1  0
  9  8  1  0
  9 10  1  1
 11 10  1  0
 12 11  2  0
 13 14  1  0
 13 12  1  0
 14 19  2  0
 15 16  2  0
 15 14  1  0
 16 17  1  0
 17 18  2  0
 19 18  1  0
 19 11  1  0
 20 21  2  0
 23 22  1  0
 23 25  1  0
 24 23  2  0
 26 25  1  0
 26 27  1  0
 27 28  1  0
 29 28  1  1
 30 20  1  0
 30 29  1  0
 31 29  1  0
 31 32  1  0
 33 31  2  0
M  END
$$$$
