TWR.pdb
     RDKit          3D

 33 34  0  0  1  0  0  0  0  0999 V2000
    6.9489  -15.4642   17.9360 C   0  0  0  0  0  0  0  0  0  0  0  0
    7.7859  -15.4651   19.2020 C   0  0  1  0  0  0  0  0  0  0  0  0
    9.1609  -15.4420   18.8533 O   0  0  0  0  0  0  0  0  0  0  0  0
    7.4250  -14.3743   20.1665 C   0  0  2  0  0  0  0  0  0  0  0  0
    7.4700  -13.1102   19.4636 N   0  0  0  0  0  0  0  0  0  0  0  0
    8.2984  -14.3444   21.3679 C   0  0  0  0  0  0  0  0  0  0  0  0
    9.2162  -13.5131   21.4365 O   0  0  0  0  0  0  0  0  0  0  0  0
    8.0770  -15.2652   22.4347 N   0  0  0  0  0  0  0  0  0  0  0  0
    8.9505  -15.4327   23.5614 C   0  0  1  0  0  0  0  0  0  0  0  0
    8.2861  -15.8264   24.8563 C   0  0  0  0  0  0  0  0  0  0  0  0
    7.3164  -14.8789   25.3882 C   0  0  0  0  0  0  0  0  0  0  0  0
    5.9797  -15.0724   25.5654 C   0  0  0  0  0  0  0  0  0  0  0  0
    5.4321  -13.9437   26.1077 N   0  0  0  0  0  0  0  0  0  0  0  0
    6.4005  -13.0426   26.2765 C   0  0  0  0  0  0  0  0  0  0  0  0
    6.3707  -11.7428   26.7766 C   0  0  0  0  0  0  0  0  0  0  0  0
    7.5071  -10.9609   26.8538 C   0  0  0  0  0  0  0  0  0  0  0  0
    8.6880  -11.5328   26.4074 C   0  0  0  0  0  0  0  0  0  0  0  0
    8.7248  -12.8137   25.9129 C   0  0  0  0  0  0  0  0  0  0  0  0
    7.5825  -13.5837   25.8426 C   0  0  0  0  0  0  0  0  0  0  0  0
    9.8955  -16.5982   23.2789 C   0  0  0  0  0  0  0  0  0  0  0  0
    9.4154  -17.6450   22.7762 O   0  0  0  0  0  0  0  0  0  0  0  0
   15.9664  -13.0269   20.0885 N   0  0  0  0  0  0  0  0  0  0  0  0
   15.1200  -13.8348   19.2757 C   0  0  0  0  0  0  0  0  0  0  0  0
   15.0566  -13.6605   17.9630 N   0  0  0  0  0  0  0  0  0  0  0  0
   14.2988  -14.8672   19.8385 N   0  0  0  0  0  0  0  0  0  0  0  0
   14.0122  -14.9671   21.2277 C   0  0  0  0  0  0  0  0  0  0  0  0
   13.0853  -16.0954   21.5973 C   0  0  0  0  0  0  0  0  0  0  0  0
   13.5032  -16.9642   22.7352 C   0  0  0  0  0  0  0  0  0  0  0  0
   12.3072  -17.4468   23.5392 C   0  0  2  0  0  0  0  0  0  0  0  0
   11.2572  -16.5233   23.5690 N   0  0  0  0  0  0  0  0  0  0  0  0
   12.6607  -18.2764   24.6993 C   0  0  0  0  0  0  0  0  0  0  0  0
   12.1335  -18.1922   25.9343 O   0  0  0  0  0  0  0  0  0  0  0  0
   13.5617  -19.1665   24.4715 O   0  0  0  0  0  0  0  0  0  0  0  0
  2  1  1  6
  3  2  1  0
  4  5  1  6
  4  2  1  0
  6  4  1  0
  7  6  2  0
  8  6  1  0
  9 20  1  0
  9  8  1  0
  9 10  1  1
 11 10  1  0
 12 11  2  0
 13 14  1  0
 13 12  1  0
 14 19  2  0
 15 16  2  0
 15 14  1  0
 16 17  1  0
 17 18  2  0
 19 18  1  0
 19 11  1  0
 20 21  2  0
 23 22  1  0
 23 25  1  0
 24 23  2  0
 26 25  1  0
 26 27  1  0
 27 28  1  0
 29 28  1  1
 30 20  1  0
 30 29  1  0
 31 29  1  0
 31 32  1  0
 33 31  2  0
M  END
$$$$
