TWR.pdb
     RDKit          3D

 33 34  0  0  1  0  0  0  0  0999 V2000
    6.6871  -19.2533   20.9164 C   0  0  0  0  0  0  0  0  0  0  0  0
    7.2817  -18.9930   19.5445 C   0  0  1  0  0  0  0  0  0  0  0  0
    6.4909  -19.6422   18.5615 O   0  0  0  0  0  0  0  0  0  0  0  0
    7.4869  -17.5385   19.2402 C   0  0  2  0  0  0  0  0  0  0  0  0
    7.9142  -17.4162   17.8631 N   0  0  0  0  0  0  0  0  0  0  0  0
    8.4545  -16.8810   20.1560 C   0  0  0  0  0  0  0  0  0  0  0  0
    9.6704  -17.0659   19.9966 O   0  0  0  0  0  0  0  0  0  0  0  0
    7.9838  -16.0407   21.2083 N   0  0  0  0  0  0  0  0  0  0  0  0
    8.8252  -15.4059   22.1827 C   0  0  1  0  0  0  0  0  0  0  0  0
    8.3339  -14.0834   22.7147 C   0  0  0  0  0  0  0  0  0  0  0  0
    7.5872  -14.1374   23.9639 C   0  0  0  0  0  0  0  0  0  0  0  0
    6.9398  -15.2110   24.4966 C   0  0  0  0  0  0  0  0  0  0  0  0
    6.3801  -14.8492   25.6899 N   0  0  0  0  0  0  0  0  0  0  0  0
    6.6646  -13.5667   25.9191 C   0  0  0  0  0  0  0  0  0  0  0  0
    6.3258  -12.7237   26.9750 C   0  0  0  0  0  0  0  0  0  0  0  0
    6.7184  -11.3995   27.0108 C   0  0  0  0  0  0  0  0  0  0  0  0
    7.4708  -10.9439   25.9397 C   0  0  0  0  0  0  0  0  0  0  0  0
    7.8084  -11.7694   24.8952 C   0  0  0  0  0  0  0  0  0  0  0  0
    7.4105  -13.0900   24.8729 C   0  0  0  0  0  0  0  0  0  0  0  0
    8.8851  -16.2887   23.4271 C   0  0  0  0  0  0  0  0  0  0  0  0
    7.8661  -16.9581   23.7311 O   0  0  0  0  0  0  0  0  0  0  0  0
   14.8210  -20.1596   22.5007 N   0  0  0  0  0  0  0  0  0  0  0  0
   14.2462  -19.7303   21.2698 C   0  0  0  0  0  0  0  0  0  0  0  0
   15.0050  -19.4145   20.2296 N   0  0  0  0  0  0  0  0  0  0  0  0
   12.8264  -19.6175   21.1016 N   0  0  0  0  0  0  0  0  0  0  0  0
   11.8981  -19.7832   22.1660 C   0  0  0  0  0  0  0  0  0  0  0  0
   11.7477  -18.5804   23.0600 C   0  0  0  0  0  0  0  0  0  0  0  0
   10.7529  -18.6845   24.1663 C   0  0  0  0  0  0  0  0  0  0  0  0
   10.6449  -17.3843   24.9457 C   0  0  2  0  0  0  0  0  0  0  0  0
   10.0296  -16.3591   24.2202 N   0  0  0  0  0  0  0  0  0  0  0  0
   11.7691  -17.1386   25.8595 C   0  0  0  0  0  0  0  0  0  0  0  0
   12.3061  -18.0193   26.7233 O   0  0  0  0  0  0  0  0  0  0  0  0
   12.2694  -15.9548   25.7931 O   0  0  0  0  0  0  0  0  0  0  0  0
  2  1  1  1
  3  2  1  0
  4  5  1  6
  4  2  1  0
  6  4  1  0
  7  6  2  0
  8  6  1  0
  9 20  1  0
  9  8  1  0
  9 10  1  1
 11 10  1  0
 12 11  2  0
 13 14  1  0
 13 12  1  0
 14 19  2  0
 15 16  2  0
 15 14  1  0
 16 17  1  0
 17 18  2  0
 19 18  1  0
 19 11  1  0
 20 21  2  0
 23 22  1  0
 23 25  1  0
 24 23  2  0
 26 25  1  0
 26 27  1  0
 27 28  1  0
 29 28  1  6
 30 20  1  0
 30 29  1  0
 31 29  1  0
 31 32  1  0
 33 31  2  0
M  END
$$$$
