TWR.pdb
     RDKit          3D

 33 34  0  0  1  0  0  0  0  0999 V2000
    7.9345  -14.8808   16.4480 C   0  0  0  0  0  0  0  0  0  0  0  0
    8.3763  -14.9922   17.8956 C   0  0  1  0  0  0  0  0  0  0  0  0
    9.7771  -15.2122   17.9412 O   0  0  0  0  0  0  0  0  0  0  0  0
    7.9544  -13.8319   18.7478 C   0  0  2  0  0  0  0  0  0  0  0  0
    8.4666  -12.6172   18.1510 N   0  0  0  0  0  0  0  0  0  0  0  0
    8.3947  -13.9548   20.1613 C   0  0  0  0  0  0  0  0  0  0  0  0
    9.5651  -13.6778   20.4638 O   0  0  0  0  0  0  0  0  0  0  0  0
    7.4732  -14.3857   21.1614 N   0  0  0  0  0  0  0  0  0  0  0  0
    7.7906  -14.5319   22.5536 C   0  0  1  0  0  0  0  0  0  0  0  0
    6.6210  -14.7770   23.4730 C   0  0  0  0  0  0  0  0  0  0  0  0
    6.9232  -14.7926   24.8975 C   0  0  0  0  0  0  0  0  0  0  0  0
    7.1909  -15.8778   25.6761 C   0  0  0  0  0  0  0  0  0  0  0  0
    7.4416  -15.4613   26.9535 N   0  0  0  0  0  0  0  0  0  0  0  0
    7.3379  -14.1324   26.9932 C   0  0  0  0  0  0  0  0  0  0  0  0
    7.4857  -13.2291   28.0433 C   0  0  0  0  0  0  0  0  0  0  0  0
    7.3184  -11.8688   27.8690 C   0  0  0  0  0  0  0  0  0  0  0  0
    6.9942  -11.4398   26.5917 C   0  0  0  0  0  0  0  0  0  0  0  0
    6.8467  -12.3248   25.5517 C   0  0  0  0  0  0  0  0  0  0  0  0
    7.0177  -13.6805   25.7396 C   0  0  0  0  0  0  0  0  0  0  0  0
    8.6494  -15.7818   22.7312 C   0  0  0  0  0  0  0  0  0  0  0  0
    8.4235  -16.7693   21.9877 O   0  0  0  0  0  0  0  0  0  0  0  0
   16.0015  -14.2994   19.8832 N   0  0  0  0  0  0  0  0  0  0  0  0
   14.6073  -14.4944   19.6646 C   0  0  0  0  0  0  0  0  0  0  0  0
   14.0303  -14.1221   18.5305 N   0  0  0  0  0  0  0  0  0  0  0  0
   13.7671  -15.0970   20.6585 N   0  0  0  0  0  0  0  0  0  0  0  0
   14.2722  -15.7697   21.8049 C   0  0  0  0  0  0  0  0  0  0  0  0
   13.2178  -16.3924   22.6820 C   0  0  0  0  0  0  0  0  0  0  0  0
   11.8913  -15.7120   22.7258 C   0  0  0  0  0  0  0  0  0  0  0  0
   10.9481  -16.3879   23.7071 C   0  0  2  0  0  0  0  0  0  0  0  0
    9.6587  -15.8462   23.6909 N   0  0  0  0  0  0  0  0  0  0  0  0
   11.5966  -16.8429   24.9447 C   0  0  0  0  0  0  0  0  0  0  0  0
   12.6232  -17.7074   25.0397 O   0  0  0  0  0  0  0  0  0  0  0  0
   11.1132  -16.3367   26.0246 O   0  0  0  0  0  0  0  0  0  0  0  0
  2  1  1  6
  3  2  1  0
  4  5  1  6
  4  2  1  0
  6  4  1  0
  7  6  2  0
  8  6  1  0
  9 20  1  0
  9  8  1  0
  9 10  1  1
 11 10  1  0
 12 11  2  0
 13 14  1  0
 13 12  1  0
 14 19  2  0
 15 16  2  0
 15 14  1  0
 16 17  1  0
 17 18  2  0
 19 18  1  0
 19 11  1  0
 20 21  2  0
 23 22  1  0
 23 25  1  0
 24 23  2  0
 26 25  1  0
 26 27  1  0
 27 28  1  0
 29 28  1  1
 30 20  1  0
 30 29  1  0
 31 29  1  0
 31 32  1  0
 33 31  2  0
M  END
$$$$
