NNG.pdb
     RDKit          3D

 21 20  0  0  1  0  0  0  0  0999 V2000
   18.2182  -11.8566  -18.9195 N   0  0  0  0  0  0  0  0  0  0  0  0
   18.6170  -10.5222  -18.6690 C   0  0  0  0  0  0  0  0  0  0  0  0
   18.5901   -9.7291  -19.6715 O   0  0  0  0  0  0  0  0  0  0  0  0
   19.0495  -10.0030  -17.3661 C   0  0  0  0  0  0  0  0  0  0  0  0
   19.6679   -8.6374  -17.5452 C   0  0  2  0  0  0  0  0  0  0  0  0
   20.8813   -8.6763  -18.3127 N   0  0  0  0  0  0  0  0  0  0  0  0
   19.9782   -8.0278  -16.2095 C   0  0  0  0  0  0  0  0  0  0  0  0
   19.0924   -7.9306  -15.3274 O   0  0  0  0  0  0  0  0  0  0  0  0
   22.9935  -10.2011  -14.1502 N   0  0  0  0  0  0  0  0  0  0  0  0
   22.3309   -9.0933  -13.5555 C   0  0  0  0  0  0  0  0  0  0  0  0
   21.4303   -9.3582  -12.7214 O   0  0  0  0  0  0  0  0  0  0  0  0
   22.6552   -7.7136  -13.8745 C   0  0  0  0  0  0  0  0  0  0  0  0
   21.6961   -6.9486  -14.7018 C   0  0  2  0  0  0  0  0  0  0  0  0
   21.2831   -7.5551  -15.9325 N   0  0  0  0  0  0  0  0  0  0  0  0
   21.9578   -5.4860  -14.7850 C   0  0  0  0  0  0  0  0  0  0  0  0
   22.7021   -5.0961  -15.7190 O   0  0  0  0  0  0  0  0  0  0  0  0
   21.4428   -4.5180  -13.9004 N   0  0  0  0  0  0  0  0  0  0  0  0
   21.7561   -3.0899  -14.0784 C   0  0  0  0  0  0  0  0  0  0  0  0
   20.5680   -2.3123  -14.4028 C   0  0  0  0  0  0  0  0  0  0  0  0
   19.4730   -2.8820  -14.5756 O   0  0  0  0  0  0  0  0  0  0  0  0
   20.6293   -0.9386  -14.5246 O   0  0  0  0  0  0  0  0  0  0  0  0
  2  3  2  0
  2  1  1  0
  4  2  1  0
  5  6  1  6
  5  4  1  0
  7  5  1  0
  7  8  2  0
  9 10  1  0
 10 12  1  0
 11 10  2  0
 13 12  1  6
 13 14  1  0
 13 15  1  0
 14  7  1  0
 15 16  2  0
 15 17  1  0
 17 18  1  0
 19 21  1  0
 19 18  1  0
 20 19  2  0
M  END
$$$$
