NNG.pdb
     RDKit          3D

 21 20  0  0  1  0  0  0  0  0999 V2000
   21.0845  -12.5870  -17.4870 N   0  0  0  0  0  0  0  0  0  0  0  0
   19.7782  -12.2139  -17.8828 C   0  0  0  0  0  0  0  0  0  0  0  0
   19.1256  -13.0811  -18.5587 O   0  0  0  0  0  0  0  0  0  0  0  0
   19.1402  -10.9281  -17.5762 C   0  0  0  0  0  0  0  0  0  0  0  0
   20.0953  -10.0640  -16.7884 C   0  0  2  0  0  0  0  0  0  0  0  0
   20.3779  -10.5984  -15.4855 N   0  0  0  0  0  0  0  0  0  0  0  0
   19.5280   -8.6855  -16.6160 C   0  0  0  0  0  0  0  0  0  0  0  0
   19.2844   -7.9630  -17.6115 O   0  0  0  0  0  0  0  0  0  0  0  0
   16.0747   -6.9470  -16.5633 N   0  0  0  0  0  0  0  0  0  0  0  0
   16.2944   -7.2974  -15.2036 C   0  0  0  0  0  0  0  0  0  0  0  0
   15.4618   -8.0802  -14.6829 O   0  0  0  0  0  0  0  0  0  0  0  0
   17.4146   -6.7932  -14.4281 C   0  0  0  0  0  0  0  0  0  0  0  0
   18.7654   -6.8742  -15.0264 C   0  0  2  0  0  0  0  0  0  0  0  0
   19.2607   -8.1866  -15.3189 N   0  0  0  0  0  0  0  0  0  0  0  0
   19.7716   -5.9436  -14.4465 C   0  0  0  0  0  0  0  0  0  0  0  0
   19.3671   -4.7964  -14.1323 O   0  0  0  0  0  0  0  0  0  0  0  0
   21.1301   -6.2489  -14.2316 N   0  0  0  0  0  0  0  0  0  0  0  0
   22.0338   -5.2695  -13.6043 C   0  0  0  0  0  0  0  0  0  0  0  0
   22.4098   -4.2103  -14.5307 C   0  0  0  0  0  0  0  0  0  0  0  0
   21.9923   -4.2263  -15.7050 O   0  0  0  0  0  0  0  0  0  0  0  0
   23.2300   -3.1745  -14.1307 O   0  0  0  0  0  0  0  0  0  0  0  0
  2  3  2  0
  2  1  1  0
  4  2  1  0
  5  6  1  1
  5  4  1  0
  7  5  1  0
  7  8  2  0
  9 10  1  0
 10 12  1  0
 11 10  2  0
 13 12  1  1
 13 14  1  0
 13 15  1  0
 14  7  1  0
 15 16  2  0
 15 17  1  0
 17 18  1  0
 19 21  1  0
 19 18  1  0
 20 19  2  0
M  END
$$$$
