NNG.pdb
     RDKit          3D

 21 20  0  0  1  0  0  0  0  0999 V2000
   13.2195  -11.8618  -12.6296 N   0  0  0  0  0  0  0  0  0  0  0  0
   14.0074  -10.8221  -13.1776 C   0  0  0  0  0  0  0  0  0  0  0  0
   13.4845  -10.1695  -14.1447 O   0  0  0  0  0  0  0  0  0  0  0  0
   15.3526  -10.4541  -12.7199 C   0  0  0  0  0  0  0  0  0  0  0  0
   16.2424  -10.2026  -13.9134 C   0  0  2  0  0  0  0  0  0  0  0  0
   16.5097  -11.3970  -14.6651 N   0  0  0  0  0  0  0  0  0  0  0  0
   17.5547   -9.6245  -13.4711 C   0  0  0  0  0  0  0  0  0  0  0  0
   18.6089  -10.3001  -13.5394 O   0  0  0  0  0  0  0  0  0  0  0  0
   21.3899   -6.2600  -12.2445 N   0  0  0  0  0  0  0  0  0  0  0  0
   21.1438   -6.9814  -13.4440 C   0  0  0  0  0  0  0  0  0  0  0  0
   22.0643   -6.9830  -14.2982 O   0  0  0  0  0  0  0  0  0  0  0  0
   19.9021   -7.6909  -13.6994 C   0  0  0  0  0  0  0  0  0  0  0  0
   18.8187   -7.5766  -12.6983 C   0  0  2  0  0  0  0  0  0  0  0  0
   17.6134   -8.3021  -12.9706 N   0  0  0  0  0  0  0  0  0  0  0  0
   18.6121   -6.2118  -12.1420 C   0  0  0  0  0  0  0  0  0  0  0  0
   19.6435   -5.5621  -11.8380 O   0  0  0  0  0  0  0  0  0  0  0  0
   17.3593   -5.6038  -11.9283 N   0  0  0  0  0  0  0  0  0  0  0  0
   17.2665   -4.2185  -11.4368 C   0  0  0  0  0  0  0  0  0  0  0  0
   17.3319   -4.1553   -9.9831 C   0  0  0  0  0  0  0  0  0  0  0  0
   17.5551   -5.1866   -9.3195 O   0  0  0  0  0  0  0  0  0  0  0  0
   17.1496   -2.9613   -9.3148 O   0  0  0  0  0  0  0  0  0  0  0  0
  2  3  2  0
  2  1  1  0
  4  2  1  0
  5  6  1  1
  5  4  1  0
  7  5  1  0
  7  8  2  0
  9 10  1  0
 10 12  1  0
 11 10  2  0
 13 12  1  6
 13 14  1  0
 13 15  1  0
 14  7  1  0
 15 16  2  0
 15 17  1  0
 17 18  1  0
 19 21  1  0
 19 18  1  0
 20 19  2  0
M  END
$$$$
