NNG.pdb
     RDKit          3D

 21 20  0  0  1  0  0  0  0  0999 V2000
   18.5089  -14.2967  -15.4104 N   0  0  0  0  0  0  0  0  0  0  0  0
   18.8143  -14.0930  -16.7770 C   0  0  0  0  0  0  0  0  0  0  0  0
   18.3718  -14.9748  -17.5902 O   0  0  0  0  0  0  0  0  0  0  0  0
   19.5875  -12.9640  -17.3080 C   0  0  0  0  0  0  0  0  0  0  0  0
   19.8726  -11.9795  -16.1994 C   0  0  2  0  0  0  0  0  0  0  0  0
   18.6763  -11.4932  -15.5707 N   0  0  0  0  0  0  0  0  0  0  0  0
   20.6331  -10.8011  -16.7331 C   0  0  0  0  0  0  0  0  0  0  0  0
   21.1540  -10.8369  -17.8732 O   0  0  0  0  0  0  0  0  0  0  0  0
   22.7069   -6.5481  -19.0813 N   0  0  0  0  0  0  0  0  0  0  0  0
   21.6215   -6.6739  -18.1725 C   0  0  0  0  0  0  0  0  0  0  0  0
   21.1253   -5.6054  -17.7376 O   0  0  0  0  0  0  0  0  0  0  0  0
   21.0900   -7.9577  -17.7484 C   0  0  0  0  0  0  0  0  0  0  0  0
   21.4021   -8.4196  -16.3778 C   0  0  2  0  0  0  0  0  0  0  0  0
   20.7686   -9.6311  -15.9486 N   0  0  0  0  0  0  0  0  0  0  0  0
   21.4609   -7.3483  -15.3466 C   0  0  0  0  0  0  0  0  0  0  0  0
   20.3654   -6.9610  -14.8691 O   0  0  0  0  0  0  0  0  0  0  0  0
   22.6410   -6.7393  -14.8758 N   0  0  0  0  0  0  0  0  0  0  0  0
   22.5904   -5.7034  -13.8301 C   0  0  0  0  0  0  0  0  0  0  0  0
   22.0658   -4.4444  -14.3413 C   0  0  0  0  0  0  0  0  0  0  0  0
   22.0471   -3.4314  -13.6154 O   0  0  0  0  0  0  0  0  0  0  0  0
   21.5822   -4.3474  -15.6306 O   0  0  0  0  0  0  0  0  0  0  0  0
  2  3  2  0
  2  1  1  0
  4  2  1  0
  5  6  1  6
  5  4  1  0
  7  5  1  0
  7  8  2  0
  9 10  1  0
 10 12  1  0
 11 10  2  0
 13 12  1  6
 13 14  1  0
 13 15  1  0
 14  7  1  0
 15 16  2  0
 15 17  1  0
 17 18  1  0
 19 21  1  0
 19 18  1  0
 20 19  2  0
M  END
$$$$
