NNG.pdb
     RDKit          3D

 21 20  0  0  1  0  0  0  0  0999 V2000
   16.3128  -13.2892  -14.7705 N   0  0  0  0  0  0  0  0  0  0  0  0
   17.0898  -12.3768  -15.5228 C   0  0  0  0  0  0  0  0  0  0  0  0
   16.9583  -12.4393  -16.7930 O   0  0  0  0  0  0  0  0  0  0  0  0
   18.0144  -11.3889  -14.9538 C   0  0  0  0  0  0  0  0  0  0  0  0
   17.4802   -9.9977  -15.1952 C   0  0  2  0  0  0  0  0  0  0  0  0
   17.4267   -9.6603  -16.5903 N   0  0  0  0  0  0  0  0  0  0  0  0
   18.3401   -8.9826  -14.5009 C   0  0  0  0  0  0  0  0  0  0  0  0
   18.6705   -9.1351  -13.3009 O   0  0  0  0  0  0  0  0  0  0  0  0
   21.6052   -4.9078  -13.6373 N   0  0  0  0  0  0  0  0  0  0  0  0
   22.0365   -6.1441  -14.1899 C   0  0  0  0  0  0  0  0  0  0  0  0
   23.2747   -6.3533  -14.2022 O   0  0  0  0  0  0  0  0  0  0  0  0
   21.1177   -7.1360  -14.7214 C   0  0  0  0  0  0  0  0  0  0  0  0
   19.6691   -6.8391  -14.6687 C   0  0  2  0  0  0  0  0  0  0  0  0
   18.7892   -7.8373  -15.2003 N   0  0  0  0  0  0  0  0  0  0  0  0
   19.2973   -5.4379  -15.0050 C   0  0  0  0  0  0  0  0  0  0  0  0
   19.3703   -5.1075  -16.2149 O   0  0  0  0  0  0  0  0  0  0  0  0
   18.8797   -4.4642  -14.0764 N   0  0  0  0  0  0  0  0  0  0  0  0
   18.5105   -3.1087  -14.5187 C   0  0  0  0  0  0  0  0  0  0  0  0
   19.6723   -2.3490  -14.9600 C   0  0  0  0  0  0  0  0  0  0  0  0
   20.8037   -2.8721  -14.9532 O   0  0  0  0  0  0  0  0  0  0  0  0
   19.5458   -1.0439  -15.3918 O   0  0  0  0  0  0  0  0  0  0  0  0
  2  3  2  0
  2  1  1  0
  4  2  1  0
  5  6  1  6
  5  4  1  0
  7  5  1  0
  7  8  2  0
  9 10  1  0
 10 12  1  0
 11 10  2  0
 13 12  1  6
 13 14  1  0
 13 15  1  0
 14  7  1  0
 15 16  2  0
 15 17  1  0
 17 18  1  0
 19 21  1  0
 19 18  1  0
 20 19  2  0
M  END
$$$$
