NNG.pdb
     RDKit          3D

 21 20  0  0  1  0  0  0  0  0999 V2000
   16.0273  -11.6311  -16.1146 N   0  0  0  0  0  0  0  0  0  0  0  0
   16.6710  -11.7151  -14.8572 C   0  0  0  0  0  0  0  0  0  0  0  0
   16.5653  -12.8322  -14.2443 O   0  0  0  0  0  0  0  0  0  0  0  0
   17.4323  -10.6301  -14.2266 C   0  0  0  0  0  0  0  0  0  0  0  0
   17.4165   -9.4140  -15.1212 C   0  0  2  0  0  0  0  0  0  0  0  0
   18.1897   -9.5976  -16.3176 N   0  0  0  0  0  0  0  0  0  0  0  0
   17.9621   -8.2230  -14.3894 C   0  0  0  0  0  0  0  0  0  0  0  0
   17.4436   -7.8376  -13.3147 O   0  0  0  0  0  0  0  0  0  0  0  0
   21.0108   -4.1371  -12.9713 N   0  0  0  0  0  0  0  0  0  0  0  0
   21.7461   -5.2676  -13.4197 C   0  0  0  0  0  0  0  0  0  0  0  0
   22.9888   -5.2372  -13.2411 O   0  0  0  0  0  0  0  0  0  0  0  0
   21.1224   -6.4152  -14.0557 C   0  0  0  0  0  0  0  0  0  0  0  0
   19.6671   -6.3583  -14.3166 C   0  0  2  0  0  0  0  0  0  0  0  0
   19.0750   -7.5206  -14.9098 N   0  0  0  0  0  0  0  0  0  0  0  0
   19.1704   -5.0627  -14.8546 C   0  0  0  0  0  0  0  0  0  0  0  0
   19.1806   -4.9269  -16.1035 O   0  0  0  0  0  0  0  0  0  0  0  0
   18.7003   -3.9874  -14.0751 N   0  0  0  0  0  0  0  0  0  0  0  0
   18.2576   -2.7332  -14.7079 C   0  0  0  0  0  0  0  0  0  0  0  0
   19.2929   -2.1625  -15.5588 C   0  0  0  0  0  0  0  0  0  0  0  0
   19.2897   -2.3839  -16.7854 O   0  0  0  0  0  0  0  0  0  0  0  0
   20.2917   -1.3705  -15.0288 O   0  0  0  0  0  0  0  0  0  0  0  0
  2  3  2  0
  2  1  1  0
  4  2  1  0
  5  6  1  6
  5  4  1  0
  7  5  1  0
  7  8  2  0
  9 10  1  0
 10 12  1  0
 11 10  2  0
 13 12  1  6
 13 14  1  0
 13 15  1  0
 14  7  1  0
 15 16  2  0
 15 17  1  0
 17 18  1  0
 19 21  1  0
 19 18  1  0
 20 19  2  0
M  END
$$$$
