VNT.pdb
     RDKit          3D

 23 22  0  0  1  0  0  0  0  0999 V2000
    8.0800  -13.1759   17.6661 C   0  0  0  0  0  0  0  0  0  0  0  0
    7.6101  -13.4419   19.0859 C   0  0  1  0  0  0  0  0  0  0  0  0
    6.6186  -14.5571   19.0913 C   0  0  0  0  0  0  0  0  0  0  0  0
    8.7810  -13.6538   20.0168 C   0  0  2  0  0  0  0  0  0  0  0  0
    9.5204  -14.7726   19.4970 N   0  0  0  0  0  0  0  0  0  0  0  0
    8.3631  -13.9366   21.4002 C   0  0  0  0  0  0  0  0  0  0  0  0
    7.6568  -13.1165   22.0571 O   0  0  0  0  0  0  0  0  0  0  0  0
   10.6567  -18.0747   22.1367 N   0  0  0  0  0  0  0  0  0  0  0  0
   10.1462  -17.4539   23.3028 C   0  0  0  0  0  0  0  0  0  0  0  0
   10.9572  -17.1535   24.2151 O   0  0  0  0  0  0  0  0  0  0  0  0
    8.7140  -17.1412   23.5031 C   0  0  0  0  0  0  0  0  0  0  0  0
    8.4787  -15.6603   23.2919 C   0  0  2  0  0  0  0  0  0  0  0  0
    8.7523  -15.1385   22.0058 N   0  0  0  0  0  0  0  0  0  0  0  0
    8.8592  -14.8176   24.4317 C   0  0  0  0  0  0  0  0  0  0  0  0
   10.0061  -14.3218   24.5807 O   0  0  0  0  0  0  0  0  0  0  0  0
    6.8667  -11.6421   25.7965 C   0  0  0  0  0  0  0  0  0  0  0  0
    7.0365  -12.7359   26.8331 C   0  0  1  0  0  0  0  0  0  0  0  0
    5.9314  -13.5793   26.7007 O   0  0  0  0  0  0  0  0  0  0  0  0
    8.2587  -13.5856   26.5488 C   0  0  2  0  0  0  0  0  0  0  0  0
    7.9105  -14.5041   25.4682 N   0  0  0  0  0  0  0  0  0  0  0  0
    8.4909  -14.4402   27.7687 C   0  0  0  0  0  0  0  0  0  0  0  0
    8.3540  -15.8117   27.6280 O   0  0  0  0  0  0  0  0  0  0  0  0
    8.7993  -13.9350   28.8863 O   0  0  0  0  0  0  0  0  0  0  0  0
  2  1  1  6
  2  3  1  0
  4  2  1  0
  4  5  1  6
  6  4  1  0
  6  7  2  0
  8  9  1  0
  9 11  1  0
 10  9  2  0
 12 11  1  1
 12 13  1  0
 13  6  1  0
 14 12  1  0
 15 14  2  0
 17 16  1  6
 17 18  1  0
 19 20  1  6
 19 17  1  0
 20 14  1  0
 21 19  1  0
 22 21  1  0
 23 21  2  0
M  END
$$$$
