VNT.pdb
     RDKit          3D

 23 22  0  0  1  0  0  0  0  0999 V2000
    8.9098  -12.4600   18.7545 C   0  0  0  0  0  0  0  0  0  0  0  0
    8.3627  -13.2264   19.9464 C   0  0  1  0  0  0  0  0  0  0  0  0
    6.9209  -12.8957   20.1435 C   0  0  0  0  0  0  0  0  0  0  0  0
    8.6439  -14.7054   19.8191 C   0  0  2  0  0  0  0  0  0  0  0  0
    8.0852  -15.1219   18.5609 N   0  0  0  0  0  0  0  0  0  0  0  0
    8.0470  -15.4933   20.9106 C   0  0  0  0  0  0  0  0  0  0  0  0
    7.2907  -16.4809   20.6745 O   0  0  0  0  0  0  0  0  0  0  0  0
    7.2765  -17.1624   25.7669 N   0  0  0  0  0  0  0  0  0  0  0  0
    7.8870  -17.9171   24.7356 C   0  0  0  0  0  0  0  0  0  0  0  0
    8.0683  -19.1456   24.9312 O   0  0  0  0  0  0  0  0  0  0  0  0
    8.3207  -17.3382   23.4450 C   0  0  0  0  0  0  0  0  0  0  0  0
    8.0811  -15.8430   23.4482 C   0  0  2  0  0  0  0  0  0  0  0  0
    8.3201  -15.1467   22.2403 N   0  0  0  0  0  0  0  0  0  0  0  0
    8.4930  -15.1658   24.6834 C   0  0  0  0  0  0  0  0  0  0  0  0
    9.6853  -15.1042   25.0810 O   0  0  0  0  0  0  0  0  0  0  0  0
    6.3054  -11.7479   25.9462 C   0  0  0  0  0  0  0  0  0  0  0  0
    6.7087  -12.7862   26.9753 C   0  0  1  0  0  0  0  0  0  0  0  0
    5.6682  -13.7163   27.0254 O   0  0  0  0  0  0  0  0  0  0  0  0
    7.9432  -13.5496   26.5398 C   0  0  2  0  0  0  0  0  0  0  0  0
    7.5250  -14.5161   25.5282 N   0  0  0  0  0  0  0  0  0  0  0  0
    8.4010  -14.3561   27.7282 C   0  0  0  0  0  0  0  0  0  0  0  0
    8.8766  -13.6638   28.8300 O   0  0  0  0  0  0  0  0  0  0  0  0
    8.3580  -15.6200   27.7312 O   0  0  0  0  0  0  0  0  0  0  0  0
  2  1  1  6
  2  3  1  0
  4  2  1  0
  4  5  1  6
  6  4  1  0
  6  7  2  0
  8  9  1  0
  9 11  1  0
 10  9  2  0
 12 11  1  6
 12 13  1  0
 13  6  1  0
 14 12  1  0
 15 14  2  0
 17 16  1  6
 17 18  1  0
 19 20  1  6
 19 17  1  0
 20 14  1  0
 21 19  1  0
 22 21  1  0
 23 21  2  0
M  END
$$$$
