VNT.pdb
     RDKit          3D

 23 22  0  0  1  0  0  0  0  0999 V2000
    7.9424  -12.4968   18.7326 C   0  0  0  0  0  0  0  0  0  0  0  0
    8.2124  -13.3134   19.9846 C   0  0  1  0  0  0  0  0  0  0  0  0
    7.1270  -13.0850   20.9829 C   0  0  0  0  0  0  0  0  0  0  0  0
    8.4436  -14.7679   19.6474 C   0  0  2  0  0  0  0  0  0  0  0  0
    7.3061  -15.1959   18.8782 N   0  0  0  0  0  0  0  0  0  0  0  0
    8.5779  -15.6144   20.8448 C   0  0  0  0  0  0  0  0  0  0  0  0
    7.5724  -16.1714   21.3756 O   0  0  0  0  0  0  0  0  0  0  0  0
   11.1626  -19.2649   24.2810 N   0  0  0  0  0  0  0  0  0  0  0  0
   11.6711  -18.0190   23.8395 C   0  0  0  0  0  0  0  0  0  0  0  0
   12.4024  -17.3672   24.6272 O   0  0  0  0  0  0  0  0  0  0  0  0
   11.3882  -17.4464   22.5049 C   0  0  0  0  0  0  0  0  0  0  0  0
   10.2359  -16.4686   22.6010 C   0  0  2  0  0  0  0  0  0  0  0  0
    9.8441  -15.8113   21.4113 N   0  0  0  0  0  0  0  0  0  0  0  0
   10.2279  -15.6598   23.8256 C   0  0  0  0  0  0  0  0  0  0  0  0
   11.1494  -14.8633   24.1417 O   0  0  0  0  0  0  0  0  0  0  0  0
    7.5133  -13.1792   24.9721 C   0  0  0  0  0  0  0  0  0  0  0  0
    7.6977  -14.2750   26.0042 C   0  0  1  0  0  0  0  0  0  0  0  0
    6.8095  -15.2956   25.6584 O   0  0  0  0  0  0  0  0  0  0  0  0
    9.0871  -14.8760   25.9338 C   0  0  2  0  0  0  0  0  0  0  0  0
    9.1315  -15.7372   24.7554 N   0  0  0  0  0  0  0  0  0  0  0  0
    9.2305  -15.7872   27.1262 C   0  0  0  0  0  0  0  0  0  0  0  0
    9.3191  -15.1991   28.3774 O   0  0  0  0  0  0  0  0  0  0  0  0
    9.2706  -17.0451   27.0015 O   0  0  0  0  0  0  0  0  0  0  0  0
  2  1  1  6
  2  3  1  0
  4  2  1  0
  4  5  1  6
  6  4  1  0
  6  7  2  0
  8  9  1  0
  9 11  1  0
 10  9  2  0
 12 11  1  6
 12 13  1  0
 13  6  1  0
 14 12  1  0
 15 14  2  0
 17 16  1  6
 17 18  1  0
 19 20  1  6
 19 17  1  0
 20 14  1  0
 21 19  1  0
 22 21  1  0
 23 21  2  0
M  END
$$$$
