VNT.pdb
     RDKit          3D

 23 22  0  0  1  0  0  0  0  0999 V2000
    8.4100  -12.8287   20.7682 C   0  0  0  0  0  0  0  0  0  0  0  0
    7.7910  -13.4726   19.5395 C   0  0  1  0  0  0  0  0  0  0  0  0
    7.5444  -12.4366   18.4941 C   0  0  0  0  0  0  0  0  0  0  0  0
    8.6175  -14.6442   19.0633 C   0  0  2  0  0  0  0  0  0  0  0  0
    7.9578  -15.1630   17.8952 N   0  0  0  0  0  0  0  0  0  0  0  0
    8.7357  -15.7056   20.0771 C   0  0  0  0  0  0  0  0  0  0  0  0
    7.7796  -16.5010   20.3146 O   0  0  0  0  0  0  0  0  0  0  0  0
   12.8180  -19.0316   23.2418 N   0  0  0  0  0  0  0  0  0  0  0  0
   11.5617  -18.6053   22.7460 C   0  0  0  0  0  0  0  0  0  0  0  0
   10.5265  -19.0181   23.3276 O   0  0  0  0  0  0  0  0  0  0  0  0
   11.4040  -17.7029   21.5842 C   0  0  0  0  0  0  0  0  0  0  0  0
   10.2844  -16.7182   21.8488 C   0  0  2  0  0  0  0  0  0  0  0  0
    9.9305  -15.8424   20.7959 N   0  0  0  0  0  0  0  0  0  0  0  0
   10.2881  -16.1452   23.1999 C   0  0  0  0  0  0  0  0  0  0  0  0
   11.2463  -15.4810   23.6735 O   0  0  0  0  0  0  0  0  0  0  0  0
    7.6018  -13.9085   25.0422 C   0  0  0  0  0  0  0  0  0  0  0  0
    7.8203  -15.2335   25.7467 C   0  0  1  0  0  0  0  0  0  0  0  0
    6.8950  -16.1266   25.2023 O   0  0  0  0  0  0  0  0  0  0  0  0
    9.1918  -15.8033   25.4454 C   0  0  2  0  0  0  0  0  0  0  0  0
    9.1609  -16.3172   24.0789 N   0  0  0  0  0  0  0  0  0  0  0  0
    9.3744  -17.0017   26.3414 C   0  0  0  0  0  0  0  0  0  0  0  0
    9.4888  -16.7744   27.7032 O   0  0  0  0  0  0  0  0  0  0  0  0
    9.4236  -18.1776   25.8783 O   0  0  0  0  0  0  0  0  0  0  0  0
  2  1  1  1
  2  3  1  0
  4  2  1  0
  4  5  1  6
  6  4  1  0
  6  7  2  0
  8  9  1  0
  9 11  1  0
 10  9  2  0
 12 11  1  6
 12 13  1  0
 13  6  1  0
 14 12  1  0
 15 14  2  0
 17 16  1  6
 17 18  1  0
 19 20  1  6
 19 17  1  0
 20 14  1  0
 21 19  1  0
 22 21  1  0
 23 21  2  0
M  END
$$$$
