VNT.pdb
     RDKit          3D

 23 22  0  0  1  0  0  0  0  0999 V2000
    8.9005  -12.7047   20.2824 C   0  0  0  0  0  0  0  0  0  0  0  0
    8.0130  -13.4784   19.3226 C   0  0  1  0  0  0  0  0  0  0  0  0
    7.5992  -12.5967   18.1921 C   0  0  0  0  0  0  0  0  0  0  0  0
    8.6719  -14.7672   18.8898 C   0  0  2  0  0  0  0  0  0  0  0  0
    7.8056  -15.3602   17.9066 N   0  0  0  0  0  0  0  0  0  0  0  0
    8.8697  -15.7070   20.0060 C   0  0  0  0  0  0  0  0  0  0  0  0
    7.9312  -16.4510   20.4167 O   0  0  0  0  0  0  0  0  0  0  0  0
   11.2448  -19.4012   20.0924 N   0  0  0  0  0  0  0  0  0  0  0  0
   11.8141  -18.1091   20.2022 C   0  0  0  0  0  0  0  0  0  0  0  0
   12.2869  -17.5819   19.1635 O   0  0  0  0  0  0  0  0  0  0  0  0
   11.8812  -17.3496   21.4701 C   0  0  0  0  0  0  0  0  0  0  0  0
   10.5833  -16.6006   21.6878 C   0  0  2  0  0  0  0  0  0  0  0  0
   10.1222  -15.7835   20.6291 N   0  0  0  0  0  0  0  0  0  0  0  0
   10.4108  -16.0684   23.0446 C   0  0  0  0  0  0  0  0  0  0  0  0
   11.1142  -15.1424   23.5255 O   0  0  0  0  0  0  0  0  0  0  0  0
    7.4594  -14.3884   24.5363 C   0  0  0  0  0  0  0  0  0  0  0  0
    7.7493  -15.6220   25.3692 C   0  0  1  0  0  0  0  0  0  0  0  0
    6.9986  -16.6593   24.8117 O   0  0  0  0  0  0  0  0  0  0  0  0
    9.2020  -16.0387   25.2578 C   0  0  2  0  0  0  0  0  0  0  0  0
    9.3963  -16.5932   23.9210 N   0  0  0  0  0  0  0  0  0  0  0  0
    9.4047  -17.1810   26.2204 C   0  0  0  0  0  0  0  0  0  0  0  0
    9.3393  -16.8990   27.5753 O   0  0  0  0  0  0  0  0  0  0  0  0
    9.6280  -18.3589   25.8178 O   0  0  0  0  0  0  0  0  0  0  0  0
  2  1  1  1
  2  3  1  0
  4  2  1  0
  4  5  1  6
  6  4  1  0
  6  7  2  0
  8  9  1  0
  9 11  1  0
 10  9  2  0
 12 11  1  6
 12 13  1  0
 13  6  1  0
 14 12  1  0
 15 14  2  0
 17 16  1  6
 17 18  1  0
 19 20  1  6
 19 17  1  0
 20 14  1  0
 21 19  1  0
 22 21  1  0
 23 21  2  0
M  END
$$$$
