VNT.pdb
     RDKit          3D

 23 22  0  0  1  0  0  0  0  0999 V2000
    8.0763  -12.4317   21.0520 C   0  0  0  0  0  0  0  0  0  0  0  0
    7.5646  -13.3916   19.9916 C   0  0  1  0  0  0  0  0  0  0  0  0
    7.6165  -12.7399   18.6502 C   0  0  0  0  0  0  0  0  0  0  0  0
    8.2874  -14.7166   20.0616 C   0  0  2  0  0  0  0  0  0  0  0  0
    7.7138  -15.5505   19.0396 N   0  0  0  0  0  0  0  0  0  0  0  0
    8.1460  -15.3724   21.3724 C   0  0  0  0  0  0  0  0  0  0  0  0
    7.0232  -15.7870   21.7854 O   0  0  0  0  0  0  0  0  0  0  0  0
    9.4263  -19.0975   22.2356 N   0  0  0  0  0  0  0  0  0  0  0  0
   10.3313  -18.0435   22.5112 C   0  0  0  0  0  0  0  0  0  0  0  0
   11.2244  -17.7951   21.6621 O   0  0  0  0  0  0  0  0  0  0  0  0
   10.2811  -17.2224   23.7408 C   0  0  0  0  0  0  0  0  0  0  0  0
    9.4017  -16.0109   23.5121 C   0  0  2  0  0  0  0  0  0  0  0  0
    9.2759  -15.5443   22.1827 N   0  0  0  0  0  0  0  0  0  0  0  0
    9.5002  -14.9846   24.5566 C   0  0  0  0  0  0  0  0  0  0  0  0
   10.4460  -14.1584   24.6358 O   0  0  0  0  0  0  0  0  0  0  0  0
    6.8779  -12.3042   25.5738 C   0  0  0  0  0  0  0  0  0  0  0  0
    7.2018  -13.2136   26.7434 C   0  0  1  0  0  0  0  0  0  0  0  0
    6.2884  -14.2685   26.6870 O   0  0  0  0  0  0  0  0  0  0  0  0
    8.5779  -13.8323   26.6015 C   0  0  2  0  0  0  0  0  0  0  0  0
    8.4884  -14.8658   25.5738 N   0  0  0  0  0  0  0  0  0  0  0  0
    8.8708  -14.5493   27.8947 C   0  0  0  0  0  0  0  0  0  0  0  0
    9.1137  -13.7755   29.0179 O   0  0  0  0  0  0  0  0  0  0  0  0
    8.8972  -15.8118   27.9644 O   0  0  0  0  0  0  0  0  0  0  0  0
  2  1  1  1
  2  3  1  0
  4  2  1  0
  4  5  1  6
  6  4  1  0
  6  7  2  0
  8  9  1  0
  9 11  1  0
 10  9  2  0
 12 11  1  6
 12 13  1  0
 13  6  1  0
 14 12  1  0
 15 14  2  0
 17 16  1  6
 17 18  1  0
 19 20  1  6
 19 17  1  0
 20 14  1  0
 21 19  1  0
 22 21  1  0
 23 21  2  0
M  END
$$$$
