VNT.pdb
     RDKit          3D

 23 22  0  0  1  0  0  0  0  0999 V2000
    8.3154  -12.1399   18.6018 C   0  0  0  0  0  0  0  0  0  0  0  0
    8.6052  -13.3576   19.4625 C   0  0  1  0  0  0  0  0  0  0  0  0
    7.4404  -13.6387   20.3520 C   0  0  0  0  0  0  0  0  0  0  0  0
    9.0323  -14.5340   18.6161 C   0  0  2  0  0  0  0  0  0  0  0  0
    7.9786  -14.7569   17.6628 N   0  0  0  0  0  0  0  0  0  0  0  0
    9.2486  -15.7557   19.4092 C   0  0  0  0  0  0  0  0  0  0  0  0
    9.1146  -16.9066   18.8985 O   0  0  0  0  0  0  0  0  0  0  0  0
   11.3547  -18.5937   23.1697 N   0  0  0  0  0  0  0  0  0  0  0  0
   12.0247  -18.2473   21.9709 C   0  0  0  0  0  0  0  0  0  0  0  0
   13.0652  -18.8856   21.6704 O   0  0  0  0  0  0  0  0  0  0  0  0
   11.5662  -17.1780   21.0570 C   0  0  0  0  0  0  0  0  0  0  0  0
   10.3077  -16.5396   21.6062 C   0  0  2  0  0  0  0  0  0  0  0  0
    9.6117  -15.6469   20.7580 N   0  0  0  0  0  0  0  0  0  0  0  0
   10.3869  -16.1647   23.0229 C   0  0  0  0  0  0  0  0  0  0  0  0
   11.3195  -15.4752   23.5110 O   0  0  0  0  0  0  0  0  0  0  0  0
    7.4308  -14.3004   24.1096 C   0  0  0  0  0  0  0  0  0  0  0  0
    7.6676  -15.3806   25.1473 C   0  0  1  0  0  0  0  0  0  0  0  0
    6.9313  -16.4927   24.7336 O   0  0  0  0  0  0  0  0  0  0  0  0
    9.1190  -15.8156   25.1749 C   0  0  2  0  0  0  0  0  0  0  0  0
    9.3700  -16.5775   23.9547 N   0  0  0  0  0  0  0  0  0  0  0  0
    9.2621  -16.7901   26.3161 C   0  0  0  0  0  0  0  0  0  0  0  0
    9.4412  -18.1272   26.0008 O   0  0  0  0  0  0  0  0  0  0  0  0
    9.2213  -16.4127   27.5225 O   0  0  0  0  0  0  0  0  0  0  0  0
  2  1  1  6
  2  3  1  0
  4  2  1  0
  4  5  1  6
  6  4  1  0
  6  7  2  0
  8  9  1  0
  9 11  1  0
 10  9  2  0
 12 11  1  6
 12 13  1  0
 13  6  1  0
 14 12  1  0
 15 14  2  0
 17 16  1  6
 17 18  1  0
 19 20  1  6
 19 17  1  0
 20 14  1  0
 21 19  1  0
 22 21  1  0
 23 21  2  0
M  END
$$$$
