GHC.pdb
     RDKit          3D

 21 21  0  0  1  0  0  0  0  0999 V2000
   12.4229  -17.7752   18.3929 N   0  0  0  0  0  0  0  0  0  0  0  0
   11.1542  -17.9699   19.0306 C   0  0  0  0  0  0  0  0  0  0  0  0
   10.6908  -16.7057   19.6107 C   0  0  0  0  0  0  0  0  0  0  0  0
   11.4282  -15.7188   19.7106 O   0  0  0  0  0  0  0  0  0  0  0  0
    9.3421  -16.6068   20.0774 N   0  0  0  0  0  0  0  0  0  0  0  0
    8.8387  -15.4442   20.7399 C   0  0  1  0  0  0  0  0  0  0  0  0
    7.6499  -14.7901   20.1813 C   0  0  0  0  0  0  0  0  0  0  0  0
    7.6932  -14.2649   18.8295 C   0  0  0  0  0  0  0  0  0  0  0  0
    8.0960  -13.0336   18.4097 C   0  0  0  0  0  0  0  0  0  0  0  0
    7.9744  -13.0530   17.0471 N   0  0  0  0  0  0  0  0  0  0  0  0
    7.5152  -14.2532   16.6574 C   0  0  0  0  0  0  0  0  0  0  0  0
    7.3336  -15.0204   17.7420 N   0  0  0  0  0  0  0  0  0  0  0  0
    8.6251  -15.8315   22.1841 C   0  0  0  0  0  0  0  0  0  0  0  0
    8.5779  -17.0368   22.5550 O   0  0  0  0  0  0  0  0  0  0  0  0
    8.4651  -14.8617   23.2092 N   0  0  0  0  0  0  0  0  0  0  0  0
    8.3147  -15.2440   24.5984 C   0  0  1  0  0  0  0  0  0  0  0  0
    8.0327  -13.9846   25.4271 C   0  0  0  0  0  0  0  0  0  0  0  0
    7.9703  -14.4688   27.1612 S   0  0  0  0  0  0  0  0  0  0  0  0
    7.1248  -16.1307   24.7220 C   0  0  0  0  0  0  0  0  0  0  0  0
    6.1043  -15.9539   24.0072 O   0  0  0  0  0  0  0  0  0  0  0  0
    7.0810  -17.1866   25.6228 O   0  0  0  0  0  0  0  0  0  0  0  0
  1  2  1  0
  3  4  2  0
  3  2  1  0
  5  3  1  0
  6 13  1  0
  6  5  1  0
  6  7  1  6
  8  7  1  0
  9  8  2  0
 10 11  1  0
 10  9  1  0
 11 12  2  0
 12  8  1  0
 13 15  1  0
 14 13  2  0
 15 16  1  0
 16 17  1  1
 17 18  1  0
 19 21  1  0
 19 16  1  0
 20 19  2  0
M  END
$$$$
