GHC.pdb
     RDKit          3D

 21 21  0  0  1  0  0  0  0  0999 V2000
    4.7998  -19.1050   20.4017 N   0  0  0  0  0  0  0  0  0  0  0  0
    4.7714  -17.7271   20.7951 C   0  0  0  0  0  0  0  0  0  0  0  0
    6.1359  -17.1917   20.8272 C   0  0  0  0  0  0  0  0  0  0  0  0
    7.1305  -17.9253   20.8148 O   0  0  0  0  0  0  0  0  0  0  0  0
    6.3268  -15.7746   20.8746 N   0  0  0  0  0  0  0  0  0  0  0  0
    7.6195  -15.1680   20.8051 C   0  0  1  0  0  0  0  0  0  0  0  0
    7.7715  -13.9549   19.9937 C   0  0  0  0  0  0  0  0  0  0  0  0
    7.7879  -14.0613   18.5468 C   0  0  0  0  0  0  0  0  0  0  0  0
    7.7384  -15.1841   17.7777 C   0  0  0  0  0  0  0  0  0  0  0  0
    7.7496  -14.7422   16.4829 N   0  0  0  0  0  0  0  0  0  0  0  0
    7.8034  -13.4005   16.4701 C   0  0  0  0  0  0  0  0  0  0  0  0
    7.8278  -12.9559   17.7349 N   0  0  0  0  0  0  0  0  0  0  0  0
    8.0616  -14.9347   22.2303 C   0  0  0  0  0  0  0  0  0  0  0  0
    7.4870  -14.1001   22.9824 O   0  0  0  0  0  0  0  0  0  0  0  0
    9.1500  -15.6413   22.8075 N   0  0  0  0  0  0  0  0  0  0  0  0
    9.4427  -15.5584   24.2239 C   0  0  1  0  0  0  0  0  0  0  0  0
    8.2677  -16.1599   25.0048 C   0  0  0  0  0  0  0  0  0  0  0  0
    8.3236  -15.4991   26.6798 S   0  0  0  0  0  0  0  0  0  0  0  0
   10.6403  -16.3952   24.5122 C   0  0  0  0  0  0  0  0  0  0  0  0
   10.9853  -17.3261   23.7390 O   0  0  0  0  0  0  0  0  0  0  0  0
   11.4289  -16.1931   25.6372 O   0  0  0  0  0  0  0  0  0  0  0  0
  1  2  1  0
  3  4  2  0
  3  2  1  0
  5  3  1  0
  6 13  1  0
  6  5  1  0
  6  7  1  6
  8  7  1  0
  9  8  2  0
 10 11  1  0
 10  9  1  0
 11 12  2  0
 12  8  1  0
 13 15  1  0
 14 13  2  0
 15 16  1  0
 16 17  1  1
 17 18  1  0
 19 21  1  0
 19 16  1  0
 20 19  2  0
M  END
$$$$
