GHC.pdb
     RDKit          3D

 21 21  0  0  1  0  0  0  0  0999 V2000
    4.7730  -18.6992   20.5322 N   0  0  0  0  0  0  0  0  0  0  0  0
    4.7656  -17.3243   20.9368 C   0  0  0  0  0  0  0  0  0  0  0  0
    6.1383  -16.8110   20.9763 C   0  0  0  0  0  0  0  0  0  0  0  0
    7.1193  -17.5435   20.8067 O   0  0  0  0  0  0  0  0  0  0  0  0
    6.3539  -15.4176   21.2189 N   0  0  0  0  0  0  0  0  0  0  0  0
    7.6602  -14.8441   21.3113 C   0  0  1  0  0  0  0  0  0  0  0  0
    7.9380  -13.6282   20.5383 C   0  0  0  0  0  0  0  0  0  0  0  0
    8.0066  -13.7026   19.0909 C   0  0  0  0  0  0  0  0  0  0  0  0
    7.3533  -12.9412   18.1699 C   0  0  0  0  0  0  0  0  0  0  0  0
    7.7857  -13.3886   16.9515 N   0  0  0  0  0  0  0  0  0  0  0  0
    8.6690  -14.3843   17.1297 C   0  0  0  0  0  0  0  0  0  0  0  0
    8.8224  -14.5968   18.4447 N   0  0  0  0  0  0  0  0  0  0  0  0
    7.9344  -14.6351   22.7817 C   0  0  0  0  0  0  0  0  0  0  0  0
    7.2062  -13.8972   23.5012 O   0  0  0  0  0  0  0  0  0  0  0  0
    9.0280  -15.2569   23.4408 N   0  0  0  0  0  0  0  0  0  0  0  0
    9.1659  -15.2193   24.8824 C   0  0  1  0  0  0  0  0  0  0  0  0
    7.9770  -15.9580   25.5095 C   0  0  0  0  0  0  0  0  0  0  0  0
    6.8013  -14.7205   26.0854 S   0  0  0  0  0  0  0  0  0  0  0  0
   10.3989  -15.9629   25.2622 C   0  0  0  0  0  0  0  0  0  0  0  0
   11.0559  -16.6131   24.4082 O   0  0  0  0  0  0  0  0  0  0  0  0
   10.8816  -15.9765   26.5641 O   0  0  0  0  0  0  0  0  0  0  0  0
  1  2  1  0
  3  4  2  0
  3  2  1  0
  5  3  1  0
  6 13  1  0
  6  5  1  0
  6  7  1  6
  8  7  1  0
  9  8  2  0
 10 11  1  0
 10  9  1  0
 11 12  2  0
 12  8  1  0
 13 15  1  0
 14 13  2  0
 15 16  1  0
 16 17  1  1
 17 18  1  0
 19 21  1  0
 19 16  1  0
 20 19  2  0
M  END
$$$$
