GHC.pdb
     RDKit          3D

 21 21  0  0  1  0  0  0  0  0999 V2000
    6.5403  -19.5772   19.0291 N   0  0  0  0  0  0  0  0  0  0  0  0
    6.1965  -18.8016   20.1842 C   0  0  0  0  0  0  0  0  0  0  0  0
    7.3127  -17.9205   20.5409 C   0  0  0  0  0  0  0  0  0  0  0  0
    8.4894  -18.2284   20.3214 O   0  0  0  0  0  0  0  0  0  0  0  0
    7.0354  -16.6626   21.1634 N   0  0  0  0  0  0  0  0  0  0  0  0
    8.0662  -15.7567   21.5642 C   0  0  1  0  0  0  0  0  0  0  0  0
    7.8445  -14.3211   21.3564 C   0  0  0  0  0  0  0  0  0  0  0  0
    7.8175  -13.7911   20.0060 C   0  0  0  0  0  0  0  0  0  0  0  0
    6.7700  -13.2427   19.3302 C   0  0  0  0  0  0  0  0  0  0  0  0
    7.2727  -12.8731   18.1126 N   0  0  0  0  0  0  0  0  0  0  0  0
    8.5772  -13.1863   18.0549 C   0  0  0  0  0  0  0  0  0  0  0  0
    8.9376  -13.7552   19.2144 N   0  0  0  0  0  0  0  0  0  0  0  0
    8.3674  -16.0622   23.0123 C   0  0  0  0  0  0  0  0  0  0  0  0
    7.4704  -16.0538   23.8998 O   0  0  0  0  0  0  0  0  0  0  0  0
    9.6779  -16.3769   23.4599 N   0  0  0  0  0  0  0  0  0  0  0  0
    9.9432  -16.7362   24.8379 C   0  0  1  0  0  0  0  0  0  0  0  0
    9.7633  -18.2512   24.9946 C   0  0  0  0  0  0  0  0  0  0  0  0
   10.2607  -18.6949   26.6682 S   0  0  0  0  0  0  0  0  0  0  0  0
   11.3668  -16.4255   25.1453 C   0  0  0  0  0  0  0  0  0  0  0  0
   12.1584  -16.0428   24.2451 O   0  0  0  0  0  0  0  0  0  0  0  0
   11.8878  -16.5412   26.4273 O   0  0  0  0  0  0  0  0  0  0  0  0
  1  2  1  0
  3  4  2  0
  3  2  1  0
  5  3  1  0
  6 13  1  0
  6  5  1  0
  6  7  1  1
  8  7  1  0
  9  8  2  0
 10 11  1  0
 10  9  1  0
 11 12  2  0
 12  8  1  0
 13 15  1  0
 14 13  2  0
 15 16  1  0
 16 17  1  6
 17 18  1  0
 19 21  1  0
 19 16  1  0
 20 19  2  0
M  END
$$$$
