GHC.pdb
     RDKit          3D

 21 21  0  0  1  0  0  0  0  0999 V2000
   11.6696  -18.7202   16.5350 N   0  0  0  0  0  0  0  0  0  0  0  0
   10.5584  -18.7735   17.4385 C   0  0  0  0  0  0  0  0  0  0  0  0
   10.6747  -17.7020   18.4324 C   0  0  0  0  0  0  0  0  0  0  0  0
   11.6398  -16.9301   18.4571 O   0  0  0  0  0  0  0  0  0  0  0  0
    9.6399  -17.5410   19.4070 N   0  0  0  0  0  0  0  0  0  0  0  0
    9.7161  -16.5775   20.4605 C   0  0  1  0  0  0  0  0  0  0  0  0
    8.5466  -15.7254   20.7043 C   0  0  0  0  0  0  0  0  0  0  0  0
    8.2260  -14.6675   19.7645 C   0  0  0  0  0  0  0  0  0  0  0  0
    8.9006  -14.2969   18.6411 C   0  0  0  0  0  0  0  0  0  0  0  0
    8.1717  -13.2754   18.0961 N   0  0  0  0  0  0  0  0  0  0  0  0
    7.0949  -13.0377   18.8624 C   0  0  0  0  0  0  0  0  0  0  0  0
    7.1062  -13.8862   19.9005 N   0  0  0  0  0  0  0  0  0  0  0  0
   10.1143  -17.3335   21.7060 C   0  0  0  0  0  0  0  0  0  0  0  0
    9.5996  -18.4452   22.0087 O   0  0  0  0  0  0  0  0  0  0  0  0
   11.0915  -16.8374   22.6092 N   0  0  0  0  0  0  0  0  0  0  0  0
   11.5268  -17.6094   23.7552 C   0  0  1  0  0  0  0  0  0  0  0  0
   12.9076  -17.1047   24.1922 C   0  0  0  0  0  0  0  0  0  0  0  0
   13.3889  -18.0232   25.6653 S   0  0  0  0  0  0  0  0  0  0  0  0
   10.5869  -17.3589   24.8827 C   0  0  0  0  0  0  0  0  0  0  0  0
    9.9125  -16.2983   24.9445 O   0  0  0  0  0  0  0  0  0  0  0  0
   10.4086  -18.2732   25.9125 O   0  0  0  0  0  0  0  0  0  0  0  0
  1  2  1  0
  3  4  2  0
  3  2  1  0
  5  3  1  0
  6 13  1  0
  6  5  1  0
  6  7  1  1
  8  7  1  0
  9  8  2  0
 10 11  1  0
 10  9  1  0
 11 12  2  0
 12  8  1  0
 13 15  1  0
 14 13  2  0
 15 16  1  0
 16 17  1  1
 17 18  1  0
 19 21  1  0
 19 16  1  0
 20 19  2  0
M  END
$$$$
