GHC.pdb
     RDKit          3D

 21 21  0  0  1  0  0  0  0  0999 V2000
    7.7384  -12.9950   18.1152 N   0  0  0  0  0  0  0  0  0  0  0  0
    8.7368  -13.4770   19.0235 C   0  0  0  0  0  0  0  0  0  0  0  0
    8.0940  -14.1502   20.1563 C   0  0  0  0  0  0  0  0  0  0  0  0
    6.8662  -14.2621   20.2440 O   0  0  0  0  0  0  0  0  0  0  0  0
    8.9107  -14.6967   21.1961 N   0  0  0  0  0  0  0  0  0  0  0  0
    8.3733  -15.4653   22.2751 C   0  0  1  0  0  0  0  0  0  0  0  0
    8.8365  -16.8482   22.4371 C   0  0  0  0  0  0  0  0  0  0  0  0
    8.4874  -17.8397   21.4371 C   0  0  0  0  0  0  0  0  0  0  0  0
    7.2710  -18.3967   21.1825 C   0  0  0  0  0  0  0  0  0  0  0  0
    7.4698  -19.2448   20.1275 N   0  0  0  0  0  0  0  0  0  0  0  0
    8.7599  -19.2014   19.7574 C   0  0  0  0  0  0  0  0  0  0  0  0
    9.4097  -18.3391   20.5525 N   0  0  0  0  0  0  0  0  0  0  0  0
    8.6006  -14.6589   23.5318 C   0  0  0  0  0  0  0  0  0  0  0  0
    9.7407  -14.2223   23.8511 O   0  0  0  0  0  0  0  0  0  0  0  0
    7.5443  -14.3448   24.4276 N   0  0  0  0  0  0  0  0  0  0  0  0
    7.7701  -13.5511   25.6183 C   0  0  1  0  0  0  0  0  0  0  0  0
    6.4481  -12.8888   26.0257 C   0  0  0  0  0  0  0  0  0  0  0  0
    6.7467  -11.9422   27.5291 S   0  0  0  0  0  0  0  0  0  0  0  0
    8.1698  -14.4604   26.7277 C   0  0  0  0  0  0  0  0  0  0  0  0
    7.7391  -15.6413   26.7886 O   0  0  0  0  0  0  0  0  0  0  0  0
    9.0289  -14.0560   27.7409 O   0  0  0  0  0  0  0  0  0  0  0  0
  1  2  1  0
  3  4  2  0
  3  2  1  0
  5  3  1  0
  6 13  1  0
  6  5  1  0
  6  7  1  1
  8  7  1  0
  9  8  2  0
 10 11  1  0
 10  9  1  0
 11 12  2  0
 12  8  1  0
 13 15  1  0
 14 13  2  0
 15 16  1  0
 16 17  1  1
 17 18  1  0
 19 21  1  0
 19 16  1  0
 20 19  2  0
M  END
$$$$
