GHC.pdb
     RDKit          3D

 21 21  0  0  1  0  0  0  0  0999 V2000
    4.8461  -18.8854   20.7138 N   0  0  0  0  0  0  0  0  0  0  0  0
    4.7798  -17.6473   21.4327 C   0  0  0  0  0  0  0  0  0  0  0  0
    6.1346  -17.1498   21.6907 C   0  0  0  0  0  0  0  0  0  0  0  0
    7.1351  -17.8606   21.5439 O   0  0  0  0  0  0  0  0  0  0  0  0
    6.3088  -15.7984   22.1267 N   0  0  0  0  0  0  0  0  0  0  0  0
    7.5946  -15.1829   22.2353 C   0  0  1  0  0  0  0  0  0  0  0  0
    7.7425  -13.8019   21.7618 C   0  0  0  0  0  0  0  0  0  0  0  0
    7.8437  -13.5426   20.3378 C   0  0  0  0  0  0  0  0  0  0  0  0
    8.9069  -13.0611   19.6362 C   0  0  0  0  0  0  0  0  0  0  0  0
    8.5012  -13.0321   18.3299 N   0  0  0  0  0  0  0  0  0  0  0  0
    7.2383  -13.4806   18.2451 C   0  0  0  0  0  0  0  0  0  0  0  0
    6.8097  -13.8027   19.4741 N   0  0  0  0  0  0  0  0  0  0  0  0
    8.0139  -15.3162   23.6801 C   0  0  0  0  0  0  0  0  0  0  0  0
    7.2401  -15.0221   24.6326 O   0  0  0  0  0  0  0  0  0  0  0  0
    9.3037  -15.7805   24.0513 N   0  0  0  0  0  0  0  0  0  0  0  0
    9.6374  -16.0714   25.4306 C   0  0  1  0  0  0  0  0  0  0  0  0
    8.7804  -17.2513   25.9056 C   0  0  0  0  0  0  0  0  0  0  0  0
    9.3664  -17.7356   27.5388 S   0  0  0  0  0  0  0  0  0  0  0  0
   11.0608  -16.5043   25.4948 C   0  0  0  0  0  0  0  0  0  0  0  0
   11.7236  -16.7191   24.4470 O   0  0  0  0  0  0  0  0  0  0  0  0
   11.7222  -16.6911   26.7015 O   0  0  0  0  0  0  0  0  0  0  0  0
  1  2  1  0
  3  4  2  0
  3  2  1  0
  5  3  1  0
  6 13  1  0
  6  5  1  0
  6  7  1  1
  8  7  1  0
  9  8  2  0
 10 11  1  0
 10  9  1  0
 11 12  2  0
 12  8  1  0
 13 15  1  0
 14 13  2  0
 15 16  1  0
 16 17  1  6
 17 18  1  0
 19 21  1  0
 19 16  1  0
 20 19  2  0
M  END
$$$$
