HAR.pdb
     RDKit          3D

 27 27  0  0  1  0  0  0  0  0999 V2000
    7.9692  -17.0642   18.8003 N   0  0  0  0  0  0  0  0  0  0  0  0
    8.9574  -16.6118   19.7564 C   0  0  1  0  0  0  0  0  0  0  0  0
    8.3158  -15.7043   20.7720 C   0  0  0  0  0  0  0  0  0  0  0  0
    8.1726  -14.3498   20.1967 C   0  0  0  0  0  0  0  0  0  0  0  0
    8.5749  -13.8782   18.9684 C   0  0  0  0  0  0  0  0  0  0  0  0
    8.2433  -12.5677   18.8466 N   0  0  0  0  0  0  0  0  0  0  0  0
    7.6389  -12.2318   19.9946 C   0  0  0  0  0  0  0  0  0  0  0  0
    7.5944  -13.3100   20.8152 N   0  0  0  0  0  0  0  0  0  0  0  0
    9.6802  -17.7442   20.3852 C   0  0  0  0  0  0  0  0  0  0  0  0
    9.0901  -18.8271   20.6373 O   0  0  0  0  0  0  0  0  0  0  0  0
   13.0506  -19.0935   20.4976 C   0  0  0  0  0  0  0  0  0  0  0  0
   11.8234  -18.7625   21.2834 C   0  0  2  0  0  0  0  0  0  0  0  0
   11.0572  -17.6847   20.7375 N   0  0  0  0  0  0  0  0  0  0  0  0
   12.0960  -18.5858   22.7433 C   0  0  0  0  0  0  0  0  0  0  0  0
   12.2971  -17.4378   23.2006 O   0  0  0  0  0  0  0  0  0  0  0  0
   12.3092  -23.3361   31.2353 N   0  0  0  0  0  0  0  0  0  0  0  0
   11.5483  -22.7952   30.1793 C   0  0  0  0  0  0  0  0  0  0  0  0
   10.3488  -23.2690   29.9412 N   0  0  0  0  0  0  0  0  0  0  0  0
   12.0608  -21.7363   29.3594 N   0  0  0  0  0  0  0  0  0  0  0  0
   12.0197  -21.9444   27.9345 C   0  0  0  0  0  0  0  0  0  0  0  0
   12.6179  -20.7512   27.2010 C   0  0  0  0  0  0  0  0  0  0  0  0
   12.5397  -20.8954   25.7224 C   0  0  0  0  0  0  0  0  0  0  0  0
   12.4844  -19.5788   25.0434 C   0  0  2  0  0  0  0  0  0  0  0  0
   12.1356  -19.6808   23.6381 N   0  0  0  0  0  0  0  0  0  0  0  0
   13.6936  -18.8021   25.2760 C   0  0  0  0  0  0  0  0  0  0  0  0
   13.8280  -18.2831   26.4391 O   0  0  0  0  0  0  0  0  0  0  0  0
   14.7211  -18.5521   24.3990 O   0  0  0  0  0  0  0  0  0  0  0  0
  2  1  1  6
  2  9  1  0
  3  2  1  0
  3  4  1  0
  4  5  2  0
  4  8  1  0
  5  6  1  0
  6  7  1  0
  8  7  2  0
  9 10  2  0
 12 11  1  6
 12 14  1  0
 13 12  1  0
 13  9  1  0
 14 15  2  0
 17 18  2  0
 17 16  1  0
 19 20  1  0
 19 17  1  0
 20 21  1  0
 21 22  1  0
 23 22  1  6
 23 25  1  0
 24 23  1  0
 24 14  1  0
 25 26  2  0
 25 27  1  0
M  END
$$$$
