HAR.pdb
     RDKit          3D

 27 27  0  0  1  0  0  0  0  0999 V2000
    7.5728  -17.2016   15.8044 N   0  0  0  0  0  0  0  0  0  0  0  0
    8.7272  -16.6169   16.4531 C   0  0  1  0  0  0  0  0  0  0  0  0
    8.6203  -15.1151   16.4420 C   0  0  0  0  0  0  0  0  0  0  0  0
    8.7156  -14.6280   15.0492 C   0  0  0  0  0  0  0  0  0  0  0  0
    8.9423  -15.3370   13.8922 C   0  0  0  0  0  0  0  0  0  0  0  0
    8.9509  -14.4934   12.8289 N   0  0  0  0  0  0  0  0  0  0  0  0
    8.7305  -13.2691   13.3274 C   0  0  0  0  0  0  0  0  0  0  0  0
    8.5873  -13.3473   14.6733 N   0  0  0  0  0  0  0  0  0  0  0  0
    8.9311  -17.1602   17.8182 C   0  0  0  0  0  0  0  0  0  0  0  0
    7.9819  -17.2059   18.6437 O   0  0  0  0  0  0  0  0  0  0  0  0
   11.2574  -19.4740   19.5228 C   0  0  0  0  0  0  0  0  0  0  0  0
   10.4308  -18.2299   19.5627 C   0  0  2  0  0  0  0  0  0  0  0  0
   10.1837  -17.6552   18.2761 N   0  0  0  0  0  0  0  0  0  0  0  0
   10.9370  -17.2249   20.5481 C   0  0  0  0  0  0  0  0  0  0  0  0
   11.7763  -16.3702   20.1843 O   0  0  0  0  0  0  0  0  0  0  0  0
   10.1369  -16.2767   29.1855 N   0  0  0  0  0  0  0  0  0  0  0  0
   10.5467  -14.9760   28.8296 C   0  0  0  0  0  0  0  0  0  0  0  0
   10.9101  -14.1356   29.7686 N   0  0  0  0  0  0  0  0  0  0  0  0
   10.5739  -14.5532   27.4596 N   0  0  0  0  0  0  0  0  0  0  0  0
    9.9968  -15.4531   26.4940 C   0  0  0  0  0  0  0  0  0  0  0  0
   10.7852  -15.4189   25.1913 C   0  0  0  0  0  0  0  0  0  0  0  0
   10.2451  -16.3617   24.1751 C   0  0  0  0  0  0  0  0  0  0  0  0
   11.0174  -16.3095   22.9109 C   0  0  2  0  0  0  0  0  0  0  0  0
   10.4975  -17.2038   21.8926 N   0  0  0  0  0  0  0  0  0  0  0  0
   12.4443  -16.4794   23.1445 C   0  0  0  0  0  0  0  0  0  0  0  0
   12.8740  -17.6832   23.2245 O   0  0  0  0  0  0  0  0  0  0  0  0
   13.4003  -15.5035   23.2909 O   0  0  0  0  0  0  0  0  0  0  0  0
  2  1  1  1
  2  9  1  0
  3  2  1  0
  3  4  1  0
  4  5  2  0
  4  8  1  0
  5  6  1  0
  6  7  1  0
  8  7  2  0
  9 10  2  0
 12 11  1  6
 12 14  1  0
 13 12  1  0
 13  9  1  0
 14 15  2  0
 17 18  2  0
 17 16  1  0
 19 20  1  0
 19 17  1  0
 20 21  1  0
 21 22  1  0
 23 22  1  1
 23 25  1  0
 24 23  1  0
 24 14  1  0
 25 26  2  0
 25 27  1  0
M  END
$$$$
