HAR.pdb
     RDKit          3D

 27 27  0  0  1  0  0  0  0  0999 V2000
    7.0787  -15.3742   20.4101 N   0  0  0  0  0  0  0  0  0  0  0  0
    8.2208  -14.5015   20.5810 C   0  0  1  0  0  0  0  0  0  0  0  0
    8.0607  -13.2690   19.7313 C   0  0  0  0  0  0  0  0  0  0  0  0
    8.0793  -13.6530   18.3036 C   0  0  0  0  0  0  0  0  0  0  0  0
    8.2147  -14.9003   17.7389 C   0  0  0  0  0  0  0  0  0  0  0  0
    8.1765  -14.8003   16.3858 N   0  0  0  0  0  0  0  0  0  0  0  0
    8.0183  -13.4970   16.1165 C   0  0  0  0  0  0  0  0  0  0  0  0
    7.9589  -12.7988   17.2771 N   0  0  0  0  0  0  0  0  0  0  0  0
    8.4633  -14.1781   22.0082 C   0  0  0  0  0  0  0  0  0  0  0  0
    9.4431  -13.4663   22.3519 O   0  0  0  0  0  0  0  0  0  0  0  0
    6.7572  -13.9361   25.2444 C   0  0  0  0  0  0  0  0  0  0  0  0
    7.8945  -14.5042   24.4591 C   0  0  2  0  0  0  0  0  0  0  0  0
    7.6246  -14.6393   23.0606 N   0  0  0  0  0  0  0  0  0  0  0  0
    8.4462  -15.7593   25.0568 C   0  0  0  0  0  0  0  0  0  0  0  0
    7.7757  -16.8154   25.0064 O   0  0  0  0  0  0  0  0  0  0  0  0
   15.3896  -15.2741   22.9861 N   0  0  0  0  0  0  0  0  0  0  0  0
   14.3246  -15.5001   22.0910 C   0  0  0  0  0  0  0  0  0  0  0  0
   14.2596  -14.8074   20.9793 N   0  0  0  0  0  0  0  0  0  0  0  0
   13.3099  -16.4734   22.3725 N   0  0  0  0  0  0  0  0  0  0  0  0
   13.2298  -16.9495   23.7298 C   0  0  0  0  0  0  0  0  0  0  0  0
   11.8068  -16.8253   24.2583 C   0  0  0  0  0  0  0  0  0  0  0  0
   11.6919  -17.2364   25.6834 C   0  0  0  0  0  0  0  0  0  0  0  0
   10.3283  -17.0015   26.2154 C   0  0  2  0  0  0  0  0  0  0  0  0
    9.7132  -15.7984   25.6851 N   0  0  0  0  0  0  0  0  0  0  0  0
   10.3000  -17.0630   27.6697 C   0  0  0  0  0  0  0  0  0  0  0  0
   10.6980  -18.1558   28.2061 O   0  0  0  0  0  0  0  0  0  0  0  0
    9.8978  -16.0886   28.5507 O   0  0  0  0  0  0  0  0  0  0  0  0
  2  1  1  1
  2  9  1  0
  3  2  1  0
  3  4  1  0
  4  5  2  0
  4  8  1  0
  5  6  1  0
  6  7  1  0
  8  7  2  0
  9 10  2  0
 12 11  1  1
 12 14  1  0
 13 12  1  0
 13  9  1  0
 14 15  2  0
 17 18  2  0
 17 16  1  0
 19 20  1  0
 19 17  1  0
 20 21  1  0
 21 22  1  0
 23 22  1  1
 23 25  1  0
 24 23  1  0
 24 14  1  0
 25 26  2  0
 25 27  1  0
M  END
$$$$
