HAR.pdb
     RDKit          3D

 27 27  0  0  1  0  0  0  0  0999 V2000
    5.2627  -19.9744   24.8134 N   0  0  0  0  0  0  0  0  0  0  0  0
    6.2381  -19.0939   25.4205 C   0  0  1  0  0  0  0  0  0  0  0  0
    7.5719  -19.7863   25.5128 C   0  0  0  0  0  0  0  0  0  0  0  0
    7.6099  -20.6140   26.7374 C   0  0  0  0  0  0  0  0  0  0  0  0
    6.6623  -20.7517   27.7253 C   0  0  0  0  0  0  0  0  0  0  0  0
    7.1056  -21.6178   28.6717 N   0  0  0  0  0  0  0  0  0  0  0  0
    8.3215  -22.0129   28.2698 C   0  0  0  0  0  0  0  0  0  0  0  0
    8.6301  -21.4062   27.0973 N   0  0  0  0  0  0  0  0  0  0  0  0
    6.3237  -17.7911   24.7165 C   0  0  0  0  0  0  0  0  0  0  0  0
    6.1332  -17.7141   23.4746 O   0  0  0  0  0  0  0  0  0  0  0  0
    7.3416  -14.2466   25.6996 C   0  0  0  0  0  0  0  0  0  0  0  0
    7.2048  -15.4127   24.7753 C   0  0  2  0  0  0  0  0  0  0  0  0
    6.6198  -16.5689   25.3816 N   0  0  0  0  0  0  0  0  0  0  0  0
    8.4715  -15.7306   24.0465 C   0  0  0  0  0  0  0  0  0  0  0  0
    9.2760  -16.5562   24.5350 O   0  0  0  0  0  0  0  0  0  0  0  0
    6.8010  -12.7896   18.2096 N   0  0  0  0  0  0  0  0  0  0  0  0
    7.8943  -13.5059   17.6821 C   0  0  0  0  0  0  0  0  0  0  0  0
    7.7351  -14.2101   16.5872 N   0  0  0  0  0  0  0  0  0  0  0  0
    9.1784  -13.4797   18.3198 N   0  0  0  0  0  0  0  0  0  0  0  0
    9.2936  -12.6732   19.5079 C   0  0  0  0  0  0  0  0  0  0  0  0
    9.1461  -13.5335   20.7561 C   0  0  0  0  0  0  0  0  0  0  0  0
    9.9902  -14.7574   20.7059 C   0  0  0  0  0  0  0  0  0  0  0  0
    9.9041  -15.5371   21.9637 C   0  0  2  0  0  0  0  0  0  0  0  0
    8.7991  -15.1257   22.8102 N   0  0  0  0  0  0  0  0  0  0  0  0
   11.1792  -15.5688   22.6656 C   0  0  0  0  0  0  0  0  0  0  0  0
   11.1938  -15.0870   23.8521 O   0  0  0  0  0  0  0  0  0  0  0  0
   12.3821  -16.0555   22.2143 O   0  0  0  0  0  0  0  0  0  0  0  0
  2  1  1  6
  2  9  1  0
  3  2  1  0
  3  4  1  0
  4  5  2  0
  4  8  1  0
  5  6  1  0
  6  7  1  0
  8  7  2  0
  9 10  2  0
 12 11  1  1
 12 14  1  0
 13 12  1  0
 13  9  1  0
 14 15  2  0
 17 18  2  0
 17 16  1  0
 19 20  1  0
 19 17  1  0
 20 21  1  0
 21 22  1  0
 23 22  1  6
 23 25  1  0
 24 23  1  0
 24 14  1  0
 25 26  2  0
 25 27  1  0
M  END
$$$$
