HAR.pdb
     RDKit          3D

 27 27  0  0  1  0  0  0  0  0999 V2000
    9.1688  -12.5083   19.2755 N   0  0  0  0  0  0  0  0  0  0  0  0
    8.3305  -13.3994   20.0490 C   0  0  1  0  0  0  0  0  0  0  0  0
    8.2787  -14.7555   19.3970 C   0  0  0  0  0  0  0  0  0  0  0  0
    7.6469  -14.6346   18.0657 C   0  0  0  0  0  0  0  0  0  0  0  0
    7.2751  -13.5026   17.3776 C   0  0  0  0  0  0  0  0  0  0  0  0
    6.7294  -13.8474   16.1836 N   0  0  0  0  0  0  0  0  0  0  0  0
    6.7641  -15.1862   16.1349 C   0  0  0  0  0  0  0  0  0  0  0  0
    7.3199  -15.6665   17.2744 N   0  0  0  0  0  0  0  0  0  0  0  0
    8.7561  -13.4692   21.4683 C   0  0  0  0  0  0  0  0  0  0  0  0
    9.9579  -13.6876   21.7724 O   0  0  0  0  0  0  0  0  0  0  0  0
    7.1149  -13.0608   24.8825 C   0  0  0  0  0  0  0  0  0  0  0  0
    8.1536  -13.5597   23.9312 C   0  0  2  0  0  0  0  0  0  0  0  0
    7.8560  -13.2979   22.5565 N   0  0  0  0  0  0  0  0  0  0  0  0
    8.5265  -14.9880   24.1716 C   0  0  0  0  0  0  0  0  0  0  0  0
    7.6562  -15.8814   24.0627 O   0  0  0  0  0  0  0  0  0  0  0  0
   13.7467  -14.3739   20.4182 N   0  0  0  0  0  0  0  0  0  0  0  0
   14.2394  -15.1076   21.5162 C   0  0  0  0  0  0  0  0  0  0  0  0
   15.4516  -14.8708   21.9573 N   0  0  0  0  0  0  0  0  0  0  0  0
   13.4405  -16.1089   22.1607 N   0  0  0  0  0  0  0  0  0  0  0  0
   12.0455  -16.1512   21.8039 C   0  0  0  0  0  0  0  0  0  0  0  0
   11.3220  -17.2318   22.5965 C   0  0  0  0  0  0  0  0  0  0  0  0
   11.5218  -17.0904   24.0639 C   0  0  0  0  0  0  0  0  0  0  0  0
   10.2602  -16.7417   24.7598 C   0  0  2  0  0  0  0  0  0  0  0  0
    9.8422  -15.3722   24.5218 N   0  0  0  0  0  0  0  0  0  0  0  0
   10.3131  -17.0844   26.1738 C   0  0  0  0  0  0  0  0  0  0  0  0
   10.6415  -18.2885   26.4611 O   0  0  0  0  0  0  0  0  0  0  0  0
   10.0541  -16.2730   27.2518 O   0  0  0  0  0  0  0  0  0  0  0  0
  2  1  1  6
  2  9  1  0
  3  2  1  0
  3  4  1  0
  4  5  2  0
  4  8  1  0
  5  6  1  0
  6  7  1  0
  8  7  2  0
  9 10  2  0
 12 11  1  1
 12 14  1  0
 13 12  1  0
 13  9  1  0
 14 15  2  0
 17 18  2  0
 17 16  1  0
 19 20  1  0
 19 17  1  0
 20 21  1  0
 21 22  1  0
 23 22  1  1
 23 25  1  0
 24 23  1  0
 24 14  1  0
 25 26  2  0
 25 27  1  0
M  END
$$$$
