HAR.pdb
     RDKit          3D

 27 27  0  0  1  0  0  0  0  0999 V2000
    8.5276  -17.9297   15.2088 N   0  0  0  0  0  0  0  0  0  0  0  0
    9.7967  -17.5982   15.8210 C   0  0  1  0  0  0  0  0  0  0  0  0
   10.1569  -16.1675   15.5207 C   0  0  0  0  0  0  0  0  0  0  0  0
   10.3781  -16.0134   14.0669 C   0  0  0  0  0  0  0  0  0  0  0  0
   11.4699  -16.3699   13.3094 C   0  0  0  0  0  0  0  0  0  0  0  0
   11.2533  -16.0483   12.0087 N   0  0  0  0  0  0  0  0  0  0  0  0
   10.0333  -15.4956   11.9635 C   0  0  0  0  0  0  0  0  0  0  0  0
    9.4999  -15.4731   13.2097 N   0  0  0  0  0  0  0  0  0  0  0  0
    9.8047  -17.8911   17.2751 C   0  0  0  0  0  0  0  0  0  0  0  0
    8.9389  -17.3906   18.0397 O   0  0  0  0  0  0  0  0  0  0  0  0
   11.6320  -20.3084   19.5640 C   0  0  0  0  0  0  0  0  0  0  0  0
   10.7875  -19.1110   19.2708 C   0  0  2  0  0  0  0  0  0  0  0  0
   10.7686  -18.7377   17.8898 N   0  0  0  0  0  0  0  0  0  0  0  0
   11.0850  -17.9535   20.1700 C   0  0  0  0  0  0  0  0  0  0  0  0
   11.9572  -17.1194   19.8369 O   0  0  0  0  0  0  0  0  0  0  0  0
    7.7401  -12.4750   18.7295 N   0  0  0  0  0  0  0  0  0  0  0  0
    7.6326  -12.7360   20.1104 C   0  0  0  0  0  0  0  0  0  0  0  0
    8.2141  -11.9294   20.9656 N   0  0  0  0  0  0  0  0  0  0  0  0
    6.8992  -13.8673   20.5989 N   0  0  0  0  0  0  0  0  0  0  0  0
    7.4301  -14.5276   21.7640 C   0  0  0  0  0  0  0  0  0  0  0  0
    8.7356  -15.2373   21.4297 C   0  0  0  0  0  0  0  0  0  0  0  0
    9.3199  -15.9363   22.6057 C   0  0  0  0  0  0  0  0  0  0  0  0
   10.5936  -16.6143   22.2658 C   0  0  2  0  0  0  0  0  0  0  0  0
   10.4093  -17.7633   21.3982 N   0  0  0  0  0  0  0  0  0  0  0  0
   11.3761  -16.9175   23.4554 C   0  0  0  0  0  0  0  0  0  0  0  0
   11.3582  -18.1324   23.8605 O   0  0  0  0  0  0  0  0  0  0  0  0
   12.1407  -16.0588   24.2074 O   0  0  0  0  0  0  0  0  0  0  0  0
  2  1  1  1
  2  9  1  0
  3  2  1  0
  3  4  1  0
  4  5  2  0
  4  8  1  0
  5  6  1  0
  6  7  1  0
  8  7  2  0
  9 10  2  0
 12 11  1  6
 12 14  1  0
 13 12  1  0
 13  9  1  0
 14 15  2  0
 17 18  2  0
 17 16  1  0
 19 20  1  0
 19 17  1  0
 20 21  1  0
 21 22  1  0
 23 22  1  1
 23 25  1  0
 24 23  1  0
 24 14  1  0
 25 26  2  0
 25 27  1  0
M  END
$$$$
