HAR.pdb
     RDKit          3D

 27 27  0  0  1  0  0  0  0  0999 V2000
    9.9094  -15.6833   15.5543 N   0  0  0  0  0  0  0  0  0  0  0  0
    8.7130  -15.7952   16.3614 C   0  0  1  0  0  0  0  0  0  0  0  0
    8.2320  -17.2218   16.3767 C   0  0  0  0  0  0  0  0  0  0  0  0
    7.8096  -17.6105   15.0141 C   0  0  0  0  0  0  0  0  0  0  0  0
    6.6588  -17.2863   14.3333 C   0  0  0  0  0  0  0  0  0  0  0  0
    6.6760  -17.8559   13.1014 N   0  0  0  0  0  0  0  0  0  0  0  0
    7.8323  -18.5288   13.0222 C   0  0  0  0  0  0  0  0  0  0  0  0
    8.5219  -18.3820   14.1801 N   0  0  0  0  0  0  0  0  0  0  0  0
    8.9114  -15.2497   17.7264 C   0  0  0  0  0  0  0  0  0  0  0  0
    9.8381  -15.6758   18.4640 O   0  0  0  0  0  0  0  0  0  0  0  0
    7.1990  -12.6385   19.9211 C   0  0  0  0  0  0  0  0  0  0  0  0
    8.1428  -13.7600   19.6309 C   0  0  2  0  0  0  0  0  0  0  0  0
    8.0872  -14.2316   18.2814 N   0  0  0  0  0  0  0  0  0  0  0  0
    8.0513  -14.8717   20.6273 C   0  0  0  0  0  0  0  0  0  0  0  0
    7.7058  -16.0143   20.2495 O   0  0  0  0  0  0  0  0  0  0  0  0
   15.7419  -16.0567   22.9856 N   0  0  0  0  0  0  0  0  0  0  0  0
   15.1136  -17.1513   23.6130 C   0  0  0  0  0  0  0  0  0  0  0  0
   15.8485  -18.1125   24.1189 N   0  0  0  0  0  0  0  0  0  0  0  0
   13.6852  -17.2345   23.7087 N   0  0  0  0  0  0  0  0  0  0  0  0
   12.9295  -16.2626   22.9608 C   0  0  0  0  0  0  0  0  0  0  0  0
   11.4436  -16.3836   23.2724 C   0  0  0  0  0  0  0  0  0  0  0  0
   10.6228  -15.3973   22.5196 C   0  0  0  0  0  0  0  0  0  0  0  0
    9.1752  -15.5647   22.7915 C   0  0  2  0  0  0  0  0  0  0  0  0
    8.3439  -14.6782   21.9978 N   0  0  0  0  0  0  0  0  0  0  0  0
    8.8838  -15.4963   24.2162 C   0  0  0  0  0  0  0  0  0  0  0  0
    9.4947  -16.3337   24.9683 O   0  0  0  0  0  0  0  0  0  0  0  0
    8.0290  -14.6386   24.8653 O   0  0  0  0  0  0  0  0  0  0  0  0
  2  1  1  6
  2  9  1  0
  3  2  1  0
  3  4  1  0
  4  5  2  0
  4  8  1  0
  5  6  1  0
  6  7  1  0
  8  7  2  0
  9 10  2  0
 12 11  1  1
 12 14  1  0
 13 12  1  0
 13  9  1  0
 14 15  2  0
 17 18  2  0
 17 16  1  0
 19 20  1  0
 19 17  1  0
 20 21  1  0
 21 22  1  0
 23 22  1  1
 23 25  1  0
 24 23  1  0
 24 14  1  0
 25 26  2  0
 25 27  1  0
M  END
$$$$
