HAR.pdb
     RDKit          3D

 27 27  0  0  1  0  0  0  0  0999 V2000
   10.4280  -14.3569   18.8092 N   0  0  0  0  0  0  0  0  0  0  0  0
    9.1756  -14.9623   19.2095 C   0  0  1  0  0  0  0  0  0  0  0  0
    8.5175  -15.6187   18.0250 C   0  0  0  0  0  0  0  0  0  0  0  0
    8.2704  -14.6042   16.9781 C   0  0  0  0  0  0  0  0  0  0  0  0
    8.6932  -13.2965   16.9155 C   0  0  0  0  0  0  0  0  0  0  0  0
    8.2397  -12.7196   15.7736 N   0  0  0  0  0  0  0  0  0  0  0  0
    7.5400  -13.6671   15.1343 C   0  0  0  0  0  0  0  0  0  0  0  0
    7.5568  -14.8109   15.8619 N   0  0  0  0  0  0  0  0  0  0  0  0
    9.3496  -15.8950   20.3497 C   0  0  0  0  0  0  0  0  0  0  0  0
    8.3639  -16.5027   20.8434 O   0  0  0  0  0  0  0  0  0  0  0  0
   12.2773  -17.2765   22.3617 C   0  0  0  0  0  0  0  0  0  0  0  0
   10.8350  -17.0041   22.0819 C   0  0  2  0  0  0  0  0  0  0  0  0
   10.6126  -16.1600   20.9484 N   0  0  0  0  0  0  0  0  0  0  0  0
   10.0832  -16.5449   23.2906 C   0  0  0  0  0  0  0  0  0  0  0  0
   10.2312  -15.3720   23.7027 O   0  0  0  0  0  0  0  0  0  0  0  0
    5.3304  -22.4988   24.3237 N   0  0  0  0  0  0  0  0  0  0  0  0
    6.0376  -22.5739   25.5406 C   0  0  0  0  0  0  0  0  0  0  0  0
    6.0744  -23.7098   26.1952 N   0  0  0  0  0  0  0  0  0  0  0  0
    6.7180  -21.4315   26.0775 N   0  0  0  0  0  0  0  0  0  0  0  0
    6.5120  -20.1781   25.3978 C   0  0  0  0  0  0  0  0  0  0  0  0
    7.4363  -19.1057   25.9592 C   0  0  0  0  0  0  0  0  0  0  0  0
    7.1966  -17.7713   25.3468 C   0  0  0  0  0  0  0  0  0  0  0  0
    8.4566  -17.0085   25.1792 C   0  0  2  0  0  0  0  0  0  0  0  0
    9.2001  -17.3969   23.9946 N   0  0  0  0  0  0  0  0  0  0  0  0
    9.2632  -17.0286   26.3909 C   0  0  0  0  0  0  0  0  0  0  0  0
    8.7633  -16.4586   27.4232 O   0  0  0  0  0  0  0  0  0  0  0  0
   10.5051  -17.5874   26.5722 O   0  0  0  0  0  0  0  0  0  0  0  0
  2  1  1  6
  2  9  1  0
  3  2  1  0
  3  4  1  0
  4  5  2  0
  4  8  1  0
  5  6  1  0
  6  7  1  0
  8  7  2  0
  9 10  2  0
 12 11  1  1
 12 14  1  0
 13 12  1  0
 13  9  1  0
 14 15  2  0
 17 18  2  0
 17 16  1  0
 19 20  1  0
 19 17  1  0
 20 21  1  0
 21 22  1  0
 23 22  1  1
 23 25  1  0
 24 23  1  0
 24 14  1  0
 25 26  2  0
 25 27  1  0
M  END
$$$$
