HAR.pdb
     RDKit          3D

 27 27  0  0  1  0  0  0  0  0999 V2000
    9.6184  -13.8111   21.1009 N   0  0  0  0  0  0  0  0  0  0  0  0
    8.3137  -13.9203   21.7182 C   0  0  1  0  0  0  0  0  0  0  0  0
    7.5034  -14.9852   21.0281 C   0  0  0  0  0  0  0  0  0  0  0  0
    7.2875  -14.5986   19.6174 C   0  0  0  0  0  0  0  0  0  0  0  0
    7.7991  -13.5291   18.9194 C   0  0  0  0  0  0  0  0  0  0  0  0
    7.3428  -13.5520   17.6413 N   0  0  0  0  0  0  0  0  0  0  0  0
    6.5530  -14.6310   17.5508 C   0  0  0  0  0  0  0  0  0  0  0  0
    6.5175  -15.2677   18.7472 N   0  0  0  0  0  0  0  0  0  0  0  0
    8.4091  -14.1406   23.1820 C   0  0  0  0  0  0  0  0  0  0  0  0
    9.2413  -14.9554   23.6598 O   0  0  0  0  0  0  0  0  0  0  0  0
    6.6077  -12.8304   26.2817 C   0  0  0  0  0  0  0  0  0  0  0  0
    7.6008  -13.6643   25.5393 C   0  0  2  0  0  0  0  0  0  0  0  0
    7.5861  -13.4619   24.1231 N   0  0  0  0  0  0  0  0  0  0  0  0
    7.5384  -15.1123   25.9086 C   0  0  0  0  0  0  0  0  0  0  0  0
    6.4336  -15.7012   25.9184 O   0  0  0  0  0  0  0  0  0  0  0  0
   10.5205  -17.8811   20.3463 N   0  0  0  0  0  0  0  0  0  0  0  0
   10.7054  -18.2235   21.7010 C   0  0  0  0  0  0  0  0  0  0  0  0
   11.8329  -17.9144   22.2953 N   0  0  0  0  0  0  0  0  0  0  0  0
    9.6840  -18.9039   22.4425 N   0  0  0  0  0  0  0  0  0  0  0  0
    9.9222  -19.0882   23.8513 C   0  0  0  0  0  0  0  0  0  0  0  0
    9.1850  -18.0307   24.6624 C   0  0  0  0  0  0  0  0  0  0  0  0
    9.3898  -18.1926   26.1269 C   0  0  0  0  0  0  0  0  0  0  0  0
    8.6764  -17.1488   26.9010 C   0  0  2  0  0  0  0  0  0  0  0  0
    8.6952  -15.8507   26.2518 N   0  0  0  0  0  0  0  0  0  0  0  0
    9.1280  -17.1015   28.2842 C   0  0  0  0  0  0  0  0  0  0  0  0
    9.0354  -18.1878   28.9561 O   0  0  0  0  0  0  0  0  0  0  0  0
    9.6476  -16.0297   28.9689 O   0  0  0  0  0  0  0  0  0  0  0  0
  2  1  1  6
  2  9  1  0
  3  2  1  0
  3  4  1  0
  4  5  2  0
  4  8  1  0
  5  6  1  0
  6  7  1  0
  8  7  2  0
  9 10  2  0
 12 11  1  1
 12 14  1  0
 13 12  1  0
 13  9  1  0
 14 15  2  0
 17 18  2  0
 17 16  1  0
 19 20  1  0
 19 17  1  0
 20 21  1  0
 21 22  1  0
 23 22  1  6
 23 25  1  0
 24 23  1  0
 24 14  1  0
 25 26  2  0
 25 27  1  0
M  END
$$$$
