HAR.pdb
     RDKit          3D

 27 27  0  0  1  0  0  0  0  0999 V2000
    8.6687  -17.4537   17.8501 N   0  0  0  0  0  0  0  0  0  0  0  0
    9.2326  -16.5055   18.7872 C   0  0  1  0  0  0  0  0  0  0  0  0
    8.3153  -15.3212   18.9385 C   0  0  0  0  0  0  0  0  0  0  0  0
    8.2383  -14.5944   17.6531 C   0  0  0  0  0  0  0  0  0  0  0  0
    8.7564  -13.3656   17.3151 C   0  0  0  0  0  0  0  0  0  0  0  0
    8.4523  -13.0764   16.0243 N   0  0  0  0  0  0  0  0  0  0  0  0
    7.7495  -14.1222   15.5676 C   0  0  0  0  0  0  0  0  0  0  0  0
    7.6181  -15.0443   16.5527 N   0  0  0  0  0  0  0  0  0  0  0  0
    9.5596  -17.1386   20.0881 C   0  0  0  0  0  0  0  0  0  0  0  0
    8.6495  -17.4706   20.8919 O   0  0  0  0  0  0  0  0  0  0  0  0
   12.6953  -18.4203   21.8249 C   0  0  0  0  0  0  0  0  0  0  0  0
   11.2723  -17.9679   21.7661 C   0  0  2  0  0  0  0  0  0  0  0  0
   10.8926  -17.4074   20.5058 N   0  0  0  0  0  0  0  0  0  0  0  0
   10.8908  -17.0926   22.9172 C   0  0  0  0  0  0  0  0  0  0  0  0
   11.2917  -15.9070   22.9525 O   0  0  0  0  0  0  0  0  0  0  0  0
    5.6176  -11.9089   25.4406 N   0  0  0  0  0  0  0  0  0  0  0  0
    6.0946  -12.2348   26.7262 C   0  0  0  0  0  0  0  0  0  0  0  0
    5.8951  -11.4002   27.7180 N   0  0  0  0  0  0  0  0  0  0  0  0
    6.7947  -13.4621   26.9711 N   0  0  0  0  0  0  0  0  0  0  0  0
    7.1719  -14.2330   25.8140 C   0  0  0  0  0  0  0  0  0  0  0  0
    7.8600  -15.5258   26.2323 C   0  0  0  0  0  0  0  0  0  0  0  0
    8.2452  -16.3672   25.0675 C   0  0  0  0  0  0  0  0  0  0  0  0
    9.6759  -16.7523   25.1162 C   0  0  2  0  0  0  0  0  0  0  0  0
   10.0838  -17.5598   23.9811 N   0  0  0  0  0  0  0  0  0  0  0  0
   10.0295  -17.3483   26.3966 C   0  0  0  0  0  0  0  0  0  0  0  0
    9.7182  -16.6827   27.4455 O   0  0  0  0  0  0  0  0  0  0  0  0
   10.6604  -18.5468   26.6272 O   0  0  0  0  0  0  0  0  0  0  0  0
  2  1  1  6
  2  9  1  0
  3  2  1  0
  3  4  1  0
  4  5  2  0
  4  8  1  0
  5  6  1  0
  6  7  1  0
  8  7  2  0
  9 10  2  0
 12 11  1  6
 12 14  1  0
 13 12  1  0
 13  9  1  0
 14 15  2  0
 17 18  2  0
 17 16  1  0
 19 20  1  0
 19 17  1  0
 20 21  1  0
 21 22  1  0
 23 22  1  1
 23 25  1  0
 24 23  1  0
 24 14  1  0
 25 26  2  0
 25 27  1  0
M  END
$$$$
