ARW.pdb
     RDKit          3D

 31 32  0  0  1  0  0  0  0  0999 V2000
   17.2677  -15.5377  -16.2799 C   0  0  0  0  0  0  0  0  0  0  0  0
   16.4975  -15.1448  -17.5182 C   0  0  2  0  0  0  0  0  0  0  0  0
   17.0198  -15.9106  -18.6240 N   0  0  0  0  0  0  0  0  0  0  0  0
   16.6959  -13.6946  -17.7594 C   0  0  0  0  0  0  0  0  0  0  0  0
   17.7419  -13.2175  -18.2323 O   0  0  0  0  0  0  0  0  0  0  0  0
   10.4653   -7.3111  -17.6821 N   0  0  0  0  0  0  0  0  0  0  0  0
   11.6881   -6.6265  -17.8100 C   0  0  0  0  0  0  0  0  0  0  0  0
   11.7085   -5.3525  -17.9763 N   0  0  0  0  0  0  0  0  0  0  0  0
   12.8992   -7.3678  -17.7521 N   0  0  0  0  0  0  0  0  0  0  0  0
   12.9318   -8.7869  -17.5429 C   0  0  0  0  0  0  0  0  0  0  0  0
   14.3498   -9.2992  -17.6126 C   0  0  0  0  0  0  0  0  0  0  0  0
   14.3425  -10.7893  -17.4544 C   0  0  0  0  0  0  0  0  0  0  0  0
   15.7657  -11.3619  -17.5230 C   0  0  2  0  0  0  0  0  0  0  0  0
   15.6505  -12.7876  -17.4406 N   0  0  0  0  0  0  0  0  0  0  0  0
   16.6509  -10.7381  -16.5441 C   0  0  0  0  0  0  0  0  0  0  0  0
   16.4785  -11.0527  -15.3285 O   0  0  0  0  0  0  0  0  0  0  0  0
   12.5831   -4.8115  -18.0854 N   0  0  0  0  0  0  0  0  0  0  0  0
   17.6909   -9.8099  -16.8135 C   0  0  2  0  0  0  0  0  0  0  0  0
   18.4960   -9.2176  -15.7470 C   0  0  0  0  0  0  0  0  0  0  0  0
   19.9579   -9.3888  -16.0214 C   0  0  0  0  0  0  0  0  0  0  0  0
   20.8609   -8.6848  -15.0886 C   0  0  0  0  0  0  0  0  0  0  0  0
   21.5911   -9.3125  -14.0637 N   0  0  0  0  0  0  0  0  0  0  0  0
   22.3255   -8.3901  -13.4435 C   0  0  0  0  0  0  0  0  0  0  0  0
   22.1328   -7.1842  -13.9876 C   0  0  0  0  0  0  0  0  0  0  0  0
   22.6485   -5.9280  -13.6976 C   0  0  0  0  0  0  0  0  0  0  0  0
   22.2786   -4.8107  -14.4095 C   0  0  0  0  0  0  0  0  0  0  0  0
   21.3693   -4.9791  -15.4309 C   0  0  0  0  0  0  0  0  0  0  0  0
   20.8615   -6.2375  -15.7115 C   0  0  0  0  0  0  0  0  0  0  0  0
   21.2184   -7.3614  -15.0155 C   0  0  0  0  0  0  0  0  0  0  0  0
   18.0323   -7.8514  -15.5169 O   0  0  0  0  0  0  0  0  0  0  0  0
   17.6099   -7.0535  -16.3866 O   0  0  0  0  0  0  0  0  0  0  0  0
  2  1  1  1
  3  2  1  0
  4  2  1  0
  4  5  2  0
  7  6  1  0
  8  7  2  0
  9  7  1  0
 10 11  1  0
 10  9  1  0
 11 12  1  0
 13 12  1  1
 13 14  1  0
 14  4  1  0
 15 13  1  0
 16 15  2  0
 17 15  1  0
 18 29  1  0
 18 17  1  0
 18 19  1  6
 20 19  1  0
 21 20  2  0
 22 21  1  0
 23 22  1  0
 23 28  2  0
 24 23  1  0
 25 24  2  0
 25 26  1  0
 26 27  2  0
 27 28  1  0
 28 20  1  0
 29 31  1  0
 30 29  2  0
M  END
$$$$
