ARW.pdb
     RDKit          3D

 31 32  0  0  1  0  0  0  0  0999 V2000
   32.1248  -22.1167  -10.5737 C   0  0  0  0  0  0  0  0  0  0  0  0
   31.2574  -22.3428  -11.7892 C   0  0  2  0  0  0  0  0  0  0  0  0
   32.0949  -22.2206  -12.9577 N   0  0  0  0  0  0  0  0  0  0  0  0
   30.1930  -21.3098  -11.8106 C   0  0  0  0  0  0  0  0  0  0  0  0
   30.2252  -20.3109  -12.5499 O   0  0  0  0  0  0  0  0  0  0  0  0
   23.0398  -22.1556  -13.8137 N   0  0  0  0  0  0  0  0  0  0  0  0
   24.0856  -23.0243  -14.1769 C   0  0  0  0  0  0  0  0  0  0  0  0
   23.8850  -24.2912  -14.2533 N   0  0  0  0  0  0  0  0  0  0  0  0
   25.3666  -22.4768  -14.4578 N   0  0  0  0  0  0  0  0  0  0  0  0
   25.6517  -21.0744  -14.3531 C   0  0  0  0  0  0  0  0  0  0  0  0
   26.0009  -20.7106  -12.9306 C   0  0  0  0  0  0  0  0  0  0  0  0
   27.3564  -21.2582  -12.6017 C   0  0  0  0  0  0  0  0  0  0  0  0
   27.7927  -20.8484  -11.1875 C   0  0  2  0  0  0  0  0  0  0  0  0
   29.0715  -21.4494  -10.9505 N   0  0  0  0  0  0  0  0  0  0  0  0
   26.7614  -21.1361  -10.1953 C   0  0  0  0  0  0  0  0  0  0  0  0
   26.5339  -22.3561   -9.9379 O   0  0  0  0  0  0  0  0  0  0  0  0
   24.6298  -24.9671  -14.4939 N   0  0  0  0  0  0  0  0  0  0  0  0
   25.9819  -20.1860   -9.4844 C   0  0  1  0  0  0  0  0  0  0  0  0
   25.1466  -20.5651   -8.3464 C   0  0  0  0  0  0  0  0  0  0  0  0
   25.3297  -19.6118   -7.2065 C   0  0  0  0  0  0  0  0  0  0  0  0
   26.7313  -19.3573   -6.8169 C   0  0  0  0  0  0  0  0  0  0  0  0
   27.6276  -18.5595   -7.5503 N   0  0  0  0  0  0  0  0  0  0  0  0
   28.7871  -18.5171   -6.8958 C   0  0  0  0  0  0  0  0  0  0  0  0
   28.7245  -19.2366   -5.7708 C   0  0  0  0  0  0  0  0  0  0  0  0
   29.6528  -19.5066   -4.7739 C   0  0  0  0  0  0  0  0  0  0  0  0
   29.3471  -20.3044   -3.6959 C   0  0  0  0  0  0  0  0  0  0  0  0
   28.0764  -20.8337   -3.6358 C   0  0  0  0  0  0  0  0  0  0  0  0
   27.1583  -20.5572   -4.6362 C   0  0  0  0  0  0  0  0  0  0  0  0
   27.4431  -19.7646   -5.7159 C   0  0  0  0  0  0  0  0  0  0  0  0
   23.7777  -20.7611   -8.8178 O   0  0  0  0  0  0  0  0  0  0  0  0
   23.3230  -20.4303   -9.9382 O   0  0  0  0  0  0  0  0  0  0  0  0
  2  1  1  1
  3  2  1  0
  4  2  1  0
  4  5  2  0
  7  6  1  0
  8  7  2  0
  9  7  1  0
 10 11  1  0
 10  9  1  0
 11 12  1  0
 13 12  1  6
 13 14  1  0
 14  4  1  0
 15 13  1  0
 16 15  2  0
 17 15  1  0
 18 29  1  0
 18 17  1  0
 18 19  1  1
 20 19  1  0
 21 20  2  0
 22 21  1  0
 23 22  1  0
 23 28  2  0
 24 23  1  0
 25 24  2  0
 25 26  1  0
 26 27  2  0
 27 28  1  0
 28 20  1  0
 29 31  1  0
 30 29  2  0
M  END
$$$$
