ARW.pdb
     RDKit          3D

 31 32  0  0  1  0  0  0  0  0999 V2000
   17.3028  -15.2015  -14.5003 C   0  0  0  0  0  0  0  0  0  0  0  0
   16.2777  -14.8203  -15.5418 C   0  0  2  0  0  0  0  0  0  0  0  0
   16.3017  -15.8283  -16.5740 N   0  0  0  0  0  0  0  0  0  0  0  0
   16.6449  -13.4988  -16.1067 C   0  0  0  0  0  0  0  0  0  0  0  0
   17.6065  -13.3278  -16.8758 O   0  0  0  0  0  0  0  0  0  0  0  0
   10.1805   -8.1270  -15.4273 N   0  0  0  0  0  0  0  0  0  0  0  0
   10.7148   -8.6425  -14.2319 C   0  0  0  0  0  0  0  0  0  0  0  0
   10.0875   -8.4960  -13.1201 N   0  0  0  0  0  0  0  0  0  0  0  0
   11.9592   -9.3276  -14.2754 N   0  0  0  0  0  0  0  0  0  0  0  0
   12.6744   -9.5619  -15.4970 C   0  0  0  0  0  0  0  0  0  0  0  0
   13.9777  -10.2705  -15.2192 C   0  0  0  0  0  0  0  0  0  0  0  0
   14.7638  -10.3706  -16.4910 C   0  0  0  0  0  0  0  0  0  0  0  0
   16.1275  -11.0341  -16.2501 C   0  0  2  0  0  0  0  0  0  0  0  0
   15.8720  -12.3575  -15.7642 N   0  0  0  0  0  0  0  0  0  0  0  0
   16.9952  -10.2074  -15.4167 C   0  0  0  0  0  0  0  0  0  0  0  0
   16.9208  -10.3762  -14.1628 O   0  0  0  0  0  0  0  0  0  0  0  0
   10.4565   -8.8343  -12.2151 N   0  0  0  0  0  0  0  0  0  0  0  0
   17.9190   -9.2280  -15.8671 C   0  0  2  0  0  0  0  0  0  0  0  0
   18.7567   -8.4690  -14.9404 C   0  0  0  0  0  0  0  0  0  0  0  0
   20.1061   -8.2038  -15.5325 C   0  0  0  0  0  0  0  0  0  0  0  0
   20.9715   -7.2995  -14.7487 C   0  0  0  0  0  0  0  0  0  0  0  0
   21.8659   -7.7236  -13.7497 N   0  0  0  0  0  0  0  0  0  0  0  0
   22.5080   -6.6560  -13.2779 C   0  0  0  0  0  0  0  0  0  0  0  0
   22.0999   -5.5436  -13.8970 C   0  0  0  0  0  0  0  0  0  0  0  0
   22.4513   -4.2073  -13.7591 C   0  0  0  0  0  0  0  0  0  0  0  0
   21.8674   -3.2221  -14.5208 C   0  0  0  0  0  0  0  0  0  0  0  0
   20.9113   -3.6073  -15.4353 C   0  0  0  0  0  0  0  0  0  0  0  0
   20.5688   -4.9437  -15.5644 C   0  0  0  0  0  0  0  0  0  0  0  0
   21.1396   -5.9388  -14.8166 C   0  0  0  0  0  0  0  0  0  0  0  0
   18.0060   -7.3025  -14.4821 O   0  0  0  0  0  0  0  0  0  0  0  0
   17.2379   -6.5939  -15.1746 O   0  0  0  0  0  0  0  0  0  0  0  0
  2  1  1  1
  3  2  1  0
  4  2  1  0
  4  5  2  0
  7  6  1  0
  8  7  2  0
  9  7  1  0
 10 11  1  0
 10  9  1  0
 11 12  1  0
 13 12  1  1
 13 14  1  0
 14  4  1  0
 15 13  1  0
 16 15  2  0
 17 15  1  0
 18 29  1  0
 18 17  1  0
 18 19  1  6
 20 19  1  0
 21 20  2  0
 22 21  1  0
 23 22  1  0
 23 28  2  0
 24 23  1  0
 25 24  2  0
 25 26  1  0
 26 27  2  0
 27 28  1  0
 28 20  1  0
 29 31  1  0
 30 29  2  0
M  END
$$$$
