ARW.pdb
     RDKit          3D

 31 32  0  0  1  0  0  0  0  0999 V2000
   29.2544  -21.7652  -17.2158 C   0  0  0  0  0  0  0  0  0  0  0  0
   28.1700  -22.2731  -16.2955 C   0  0  2  0  0  0  0  0  0  0  0  0
   26.9015  -22.0621  -16.9501 N   0  0  0  0  0  0  0  0  0  0  0  0
   28.2268  -21.5056  -15.0274 C   0  0  0  0  0  0  0  0  0  0  0  0
   29.2353  -21.4584  -14.3020 O   0  0  0  0  0  0  0  0  0  0  0  0
   27.8904  -16.5997  -17.6293 N   0  0  0  0  0  0  0  0  0  0  0  0
   28.0453  -15.5774  -16.6747 C   0  0  0  0  0  0  0  0  0  0  0  0
   28.8216  -14.5801  -16.9066 N   0  0  0  0  0  0  0  0  0  0  0  0
   27.3286  -15.6668  -15.4508 N   0  0  0  0  0  0  0  0  0  0  0  0
   26.3961  -16.7211  -15.1721 C   0  0  0  0  0  0  0  0  0  0  0  0
   27.1263  -17.9872  -14.7958 C   0  0  0  0  0  0  0  0  0  0  0  0
   26.3716  -18.6843  -13.7050 C   0  0  0  0  0  0  0  0  0  0  0  0
   27.0028  -20.0447  -13.3750 C   0  0  2  0  0  0  0  0  0  0  0  0
   27.0820  -20.7810  -14.6015 N   0  0  0  0  0  0  0  0  0  0  0  0
   26.3122  -20.7127  -12.2760 C   0  0  0  0  0  0  0  0  0  0  0  0
   25.2395  -21.3263  -12.5579 O   0  0  0  0  0  0  0  0  0  0  0  0
   28.9070  -13.7710  -16.2682 N   0  0  0  0  0  0  0  0  0  0  0  0
   26.7191  -20.7468  -10.9163 C   0  0  2  0  0  0  0  0  0  0  0  0
   25.9755  -21.4938   -9.9036 C   0  0  0  0  0  0  0  0  0  0  0  0
   26.8229  -21.7478   -8.6957 C   0  0  0  0  0  0  0  0  0  0  0  0
   27.0862  -20.5656   -7.8507 C   0  0  0  0  0  0  0  0  0  0  0  0
   26.4124  -19.3370   -7.9709 N   0  0  0  0  0  0  0  0  0  0  0  0
   26.8720  -18.5105   -7.0326 C   0  0  0  0  0  0  0  0  0  0  0  0
   27.8115  -19.1074   -6.2921 C   0  0  0  0  0  0  0  0  0  0  0  0
   28.5832  -18.6728   -5.2225 C   0  0  0  0  0  0  0  0  0  0  0  0
   29.5140  -19.4883   -4.6219 C   0  0  0  0  0  0  0  0  0  0  0  0
   29.6585  -20.7645   -5.1210 C   0  0  0  0  0  0  0  0  0  0  0  0
   28.8828  -21.1873   -6.1884 C   0  0  0  0  0  0  0  0  0  0  0  0
   27.9504  -20.3912   -6.7985 C   0  0  0  0  0  0  0  0  0  0  0  0
   24.6983  -20.8227   -9.6737 O   0  0  0  0  0  0  0  0  0  0  0  0
   24.3906  -19.6644  -10.0412 O   0  0  0  0  0  0  0  0  0  0  0  0
  2  1  1  6
  3  2  1  0
  4  2  1  0
  4  5  2  0
  7  6  1  0
  8  7  2  0
  9  7  1  0
 10 11  1  0
 10  9  1  0
 11 12  1  0
 13 12  1  6
 13 14  1  0
 14  4  1  0
 15 13  1  0
 16 15  2  0
 17 15  1  0
 18 29  1  0
 18 17  1  0
 18 19  1  6
 20 19  1  0
 21 20  2  0
 22 21  1  0
 23 22  1  0
 23 28  2  0
 24 23  1  0
 25 24  2  0
 25 26  1  0
 26 27  2  0
 27 28  1  0
 28 20  1  0
 29 31  1  0
 30 29  2  0
M  END
$$$$
