ARW.pdb
     RDKit          3D

 31 32  0  0  1  0  0  0  0  0999 V2000
   23.7006  -17.8694  -17.0003 C   0  0  0  0  0  0  0  0  0  0  0  0
   24.7371  -18.6801  -16.2592 C   0  0  2  0  0  0  0  0  0  0  0  0
   24.7289  -20.0144  -16.8084 N   0  0  0  0  0  0  0  0  0  0  0  0
   24.3726  -18.7148  -14.8217 C   0  0  0  0  0  0  0  0  0  0  0  0
   24.2529  -17.6939  -14.1224 O   0  0  0  0  0  0  0  0  0  0  0  0
   17.7857  -22.3436  -13.9606 N   0  0  0  0  0  0  0  0  0  0  0  0
   19.0208  -22.7747  -14.4791 C   0  0  0  0  0  0  0  0  0  0  0  0
   19.0643  -23.5435  -15.5077 N   0  0  0  0  0  0  0  0  0  0  0  0
   20.2185  -22.3452  -13.8460 N   0  0  0  0  0  0  0  0  0  0  0  0
   20.2296  -21.4086  -12.7590 C   0  0  0  0  0  0  0  0  0  0  0  0
   21.3536  -20.4157  -12.9281 C   0  0  0  0  0  0  0  0  0  0  0  0
   22.6622  -21.1126  -12.7107 C   0  0  0  0  0  0  0  0  0  0  0  0
   23.8374  -20.1284  -12.8023 C   0  0  2  0  0  0  0  0  0  0  0  0
   24.1446  -19.9674  -14.1924 N   0  0  0  0  0  0  0  0  0  0  0  0
   24.9507  -20.5294  -11.9475 C   0  0  0  0  0  0  0  0  0  0  0  0
   25.6031  -21.5586  -12.2961 O   0  0  0  0  0  0  0  0  0  0  0  0
   19.9487  -23.8945  -15.9130 N   0  0  0  0  0  0  0  0  0  0  0  0
   25.3813  -19.8829  -10.7591 C   0  0  2  0  0  0  0  0  0  0  0  0
   26.4285  -20.4441   -9.9077 C   0  0  0  0  0  0  0  0  0  0  0  0
   26.9998  -19.3982   -9.0015 C   0  0  0  0  0  0  0  0  0  0  0  0
   28.0103  -19.8819   -8.0391 C   0  0  0  0  0  0  0  0  0  0  0  0
   28.9538  -20.8873   -8.3158 N   0  0  0  0  0  0  0  0  0  0  0  0
   29.7278  -21.0458   -7.2432 C   0  0  0  0  0  0  0  0  0  0  0  0
   29.3620  -20.2108   -6.2653 C   0  0  0  0  0  0  0  0  0  0  0  0
   29.8398  -20.0025   -4.9783 C   0  0  0  0  0  0  0  0  0  0  0  0
   29.2752  -19.0719   -4.1374 C   0  0  0  0  0  0  0  0  0  0  0  0
   28.2078  -18.3448   -4.6177 C   0  0  0  0  0  0  0  0  0  0  0  0
   27.7397  -18.5610   -5.9038 C   0  0  0  0  0  0  0  0  0  0  0  0
   28.2891  -19.4814   -6.7560 C   0  0  0  0  0  0  0  0  0  0  0  0
   25.9107  -21.6499   -9.2655 O   0  0  0  0  0  0  0  0  0  0  0  0
   24.8188  -21.7586   -8.6594 O   0  0  0  0  0  0  0  0  0  0  0  0
  2  1  1  6
  3  2  1  0
  4  2  1  0
  4  5  2  0
  7  6  1  0
  8  7  2  0
  9  7  1  0
 10 11  1  0
 10  9  1  0
 11 12  1  0
 13 12  1  6
 13 14  1  0
 14  4  1  0
 15 13  1  0
 16 15  2  0
 17 15  1  0
 18 29  1  0
 18 17  1  0
 18 19  1  1
 20 19  1  0
 21 20  2  0
 22 21  1  0
 23 22  1  0
 23 28  2  0
 24 23  1  0
 25 24  2  0
 25 26  1  0
 26 27  2  0
 27 28  1  0
 28 20  1  0
 29 31  1  0
 30 29  2  0
M  END
$$$$
