ARW.pdb
     RDKit          3D

 31 32  0  0  1  0  0  0  0  0999 V2000
   27.3429  -23.8243  -18.1721 C   0  0  0  0  0  0  0  0  0  0  0  0
   28.1362  -22.6940  -17.5603 C   0  0  2  0  0  0  0  0  0  0  0  0
   28.9672  -23.2508  -16.5204 N   0  0  0  0  0  0  0  0  0  0  0  0
   27.1893  -21.7066  -16.9869 C   0  0  0  0  0  0  0  0  0  0  0  0
   26.8397  -21.7084  -15.7939 O   0  0  0  0  0  0  0  0  0  0  0  0
   26.3181  -16.4262  -21.2804 N   0  0  0  0  0  0  0  0  0  0  0  0
   27.6206  -16.8225  -21.6363 C   0  0  0  0  0  0  0  0  0  0  0  0
   28.1963  -16.3201  -22.6693 N   0  0  0  0  0  0  0  0  0  0  0  0
   28.2879  -17.7872  -20.8340 N   0  0  0  0  0  0  0  0  0  0  0  0
   28.0089  -17.9629  -19.4375 C   0  0  0  0  0  0  0  0  0  0  0  0
   26.5394  -18.2310  -19.2216 C   0  0  0  0  0  0  0  0  0  0  0  0
   26.2707  -18.3415  -17.7515 C   0  0  0  0  0  0  0  0  0  0  0  0
   25.6916  -19.7183  -17.3949 C   0  0  2  0  0  0  0  0  0  0  0  0
   26.6424  -20.6996  -17.8260 N   0  0  0  0  0  0  0  0  0  0  0  0
   24.3326  -19.8847  -17.9010 C   0  0  0  0  0  0  0  0  0  0  0  0
   24.2073  -20.3518  -19.0725 O   0  0  0  0  0  0  0  0  0  0  0  0
   29.1525  -16.5805  -22.9651 N   0  0  0  0  0  0  0  0  0  0  0  0
   23.1294  -19.5756  -17.2137 C   0  0  1  0  0  0  0  0  0  0  0  0
   21.8149  -19.8255  -17.8022 C   0  0  0  0  0  0  0  0  0  0  0  0
   21.6825  -21.2541  -18.2301 C   0  0  0  0  0  0  0  0  0  0  0  0
   20.3725  -21.6209  -18.8049 C   0  0  0  0  0  0  0  0  0  0  0  0
   19.7685  -20.9618  -19.8905 N   0  0  0  0  0  0  0  0  0  0  0  0
   18.6179  -21.5733  -20.1678 C   0  0  0  0  0  0  0  0  0  0  0  0
   18.4125  -22.5997  -19.3362 C   0  0  0  0  0  0  0  0  0  0  0  0
   17.3794  -23.5194  -19.2142 C   0  0  0  0  0  0  0  0  0  0  0  0
   17.3909  -24.4983  -18.2480 C   0  0  0  0  0  0  0  0  0  0  0  0
   18.4721  -24.5376  -17.3947 C   0  0  0  0  0  0  0  0  0  0  0  0
   19.4973  -23.6149  -17.5260 C   0  0  0  0  0  0  0  0  0  0  0  0
   19.5047  -22.6344  -18.4820 C   0  0  0  0  0  0  0  0  0  0  0  0
   20.7920  -19.3218  -16.8887 O   0  0  0  0  0  0  0  0  0  0  0  0
   19.6411  -18.9359  -17.2017 O   0  0  0  0  0  0  0  0  0  0  0  0
  2  1  1  1
  3  2  1  0
  4  2  1  0
  4  5  2  0
  7  6  1  0
  8  7  2  0
  9  7  1  0
 10 11  1  0
 10  9  1  0
 11 12  1  0
 13 12  1  6
 13 14  1  0
 14  4  1  0
 15 13  1  0
 16 15  2  0
 17 15  1  0
 18 29  1  0
 18 17  1  0
 18 19  1  6
 20 19  1  0
 21 20  2  0
 22 21  1  0
 23 22  1  0
 23 28  2  0
 24 23  1  0
 25 24  2  0
 25 26  1  0
 26 27  2  0
 27 28  1  0
 28 20  1  0
 29 31  1  0
 30 29  2  0
M  END
$$$$
