ARW.pdb
     RDKit          3D

 31 32  0  0  1  0  0  0  0  0999 V2000
   19.2756  -20.2661  -12.0372 C   0  0  0  0  0  0  0  0  0  0  0  0
   20.3833  -20.2281  -13.0630 C   0  0  2  0  0  0  0  0  0  0  0  0
   19.8166  -20.5961  -14.3379 N   0  0  0  0  0  0  0  0  0  0  0  0
   21.4299  -21.2017  -12.6665 C   0  0  0  0  0  0  0  0  0  0  0  0
   21.2190  -22.4211  -12.5480 O   0  0  0  0  0  0  0  0  0  0  0  0
   26.2540  -25.8019  -15.7355 N   0  0  0  0  0  0  0  0  0  0  0  0
   24.8972  -25.4798  -15.9239 C   0  0  0  0  0  0  0  0  0  0  0  0
   24.0075  -26.4055  -15.9739 N   0  0  0  0  0  0  0  0  0  0  0  0
   24.5280  -24.1140  -16.0575 N   0  0  0  0  0  0  0  0  0  0  0  0
   25.4080  -23.0343  -15.7129 C   0  0  0  0  0  0  0  0  0  0  0  0
   25.3082  -22.7204  -14.2401 C   0  0  0  0  0  0  0  0  0  0  0  0
   24.0099  -22.0215  -13.9732 C   0  0  0  0  0  0  0  0  0  0  0  0
   23.9240  -21.5472  -12.5152 C   0  0  2  0  0  0  0  0  0  0  0  0
   22.7466  -20.7385  -12.4041 N   0  0  0  0  0  0  0  0  0  0  0  0
   25.1673  -20.9241  -12.0716 C   0  0  0  0  0  0  0  0  0  0  0  0
   25.4189  -19.7627  -12.5124 O   0  0  0  0  0  0  0  0  0  0  0  0
   22.9967  -26.2120  -16.0760 N   0  0  0  0  0  0  0  0  0  0  0  0
   26.1299  -21.4870  -11.1929 C   0  0  2  0  0  0  0  0  0  0  0  0
   27.3481  -20.7717  -10.8176 C   0  0  0  0  0  0  0  0  0  0  0  0
   27.9588  -21.3637   -9.5854 C   0  0  0  0  0  0  0  0  0  0  0  0
   27.6252  -20.6738   -8.3229 C   0  0  0  0  0  0  0  0  0  0  0  0
   26.3714  -20.1057   -8.0352 N   0  0  0  0  0  0  0  0  0  0  0  0
   26.4096  -19.6020   -6.8024 C   0  0  0  0  0  0  0  0  0  0  0  0
   27.6098  -19.7961   -6.2465 C   0  0  0  0  0  0  0  0  0  0  0  0
   28.1398  -19.4549   -5.0093 C   0  0  0  0  0  0  0  0  0  0  0  0
   29.4366  -19.7605   -4.6672 C   0  0  0  0  0  0  0  0  0  0  0  0
   30.2021  -20.4231   -5.6018 C   0  0  0  0  0  0  0  0  0  0  0  0
   29.6626  -20.7587   -6.8331 C   0  0  0  0  0  0  0  0  0  0  0  0
   28.3741  -20.4646   -7.1916 C   0  0  0  0  0  0  0  0  0  0  0  0
   28.2127  -20.6759  -11.9913 O   0  0  0  0  0  0  0  0  0  0  0  0
   28.9129  -19.6895  -12.3202 O   0  0  0  0  0  0  0  0  0  0  0  0
  2  1  1  1
  3  2  1  0
  4  2  1  0
  4  5  2  0
  7  6  1  0
  8  7  2  0
  9  7  1  0
 10 11  1  0
 10  9  1  0
 11 12  1  0
 13 12  1  6
 13 14  1  0
 14  4  1  0
 15 13  1  0
 16 15  2  0
 17 15  1  0
 18 29  1  0
 18 17  1  0
 18 19  1  1
 20 19  1  0
 21 20  2  0
 22 21  1  0
 23 22  1  0
 23 28  2  0
 24 23  1  0
 25 24  2  0
 25 26  1  0
 26 27  2  0
 27 28  1  0
 28 20  1  0
 29 31  1  0
 30 29  2  0
M  END
$$$$
