ARW.pdb
     RDKit          3D

 31 32  0  0  1  0  0  0  0  0999 V2000
   29.0488  -17.2673  -15.3622 C   0  0  0  0  0  0  0  0  0  0  0  0
   28.6434  -18.3610  -16.3215 C   0  0  2  0  0  0  0  0  0  0  0  0
   28.4143  -17.7544  -17.6105 N   0  0  0  0  0  0  0  0  0  0  0  0
   27.3968  -18.9912  -15.8222 C   0  0  0  0  0  0  0  0  0  0  0  0
   26.3825  -18.3444  -15.5087 O   0  0  0  0  0  0  0  0  0  0  0  0
   27.2171  -25.7102  -17.7121 N   0  0  0  0  0  0  0  0  0  0  0  0
   27.2510  -26.0171  -16.3392 C   0  0  0  0  0  0  0  0  0  0  0  0
   28.1711  -26.7771  -15.8628 N   0  0  0  0  0  0  0  0  0  0  0  0
   26.2509  -25.4724  -15.4891 N   0  0  0  0  0  0  0  0  0  0  0  0
   25.1438  -24.7056  -15.9845 C   0  0  0  0  0  0  0  0  0  0  0  0
   25.0928  -23.3554  -15.3122 C   0  0  0  0  0  0  0  0  0  0  0  0
   26.2056  -22.5014  -15.8391 C   0  0  0  0  0  0  0  0  0  0  0  0
   26.2090  -21.1189  -15.1707 C   0  0  2  0  0  0  0  0  0  0  0  0
   27.3377  -20.4038  -15.6877 N   0  0  0  0  0  0  0  0  0  0  0  0
   26.1308  -21.2176  -13.7164 C   0  0  0  0  0  0  0  0  0  0  0  0
   26.9676  -21.9788  -13.1448 O   0  0  0  0  0  0  0  0  0  0  0  0
   28.1617  -27.1343  -14.8924 N   0  0  0  0  0  0  0  0  0  0  0  0
   25.2094  -20.5459  -12.8705 C   0  0  1  0  0  0  0  0  0  0  0  0
   25.1021  -20.8507  -11.4450 C   0  0  0  0  0  0  0  0  0  0  0  0
   26.3282  -20.4075  -10.7088 C   0  0  0  0  0  0  0  0  0  0  0  0
   26.2796  -20.5793   -9.2428 C   0  0  0  0  0  0  0  0  0  0  0  0
   25.3440  -21.3834   -8.5676 N   0  0  0  0  0  0  0  0  0  0  0  0
   25.6118  -21.3372   -7.2634 C   0  0  0  0  0  0  0  0  0  0  0  0
   26.6669  -20.5525   -7.0222 C   0  0  0  0  0  0  0  0  0  0  0  0
   27.3165  -20.1831   -5.8518 C   0  0  0  0  0  0  0  0  0  0  0  0
   28.3980  -19.3332   -5.8606 C   0  0  0  0  0  0  0  0  0  0  0  0
   28.8211  -18.8541   -7.0813 C   0  0  0  0  0  0  0  0  0  0  0  0
   28.1653  -19.2298   -8.2426 C   0  0  0  0  0  0  0  0  0  0  0  0
   27.0883  -20.0754   -8.2546 C   0  0  0  0  0  0  0  0  0  0  0  0
   23.8259  -20.3369  -10.9533 O   0  0  0  0  0  0  0  0  0  0  0  0
   23.2176  -19.3269  -11.3791 O   0  0  0  0  0  0  0  0  0  0  0  0
  2  1  1  1
  3  2  1  0
  4  2  1  0
  4  5  2  0
  7  6  1  0
  8  7  2  0
  9  7  1  0
 10 11  1  0
 10  9  1  0
 11 12  1  0
 13 12  1  6
 13 14  1  0
 14  4  1  0
 15 13  1  0
 16 15  2  0
 17 15  1  0
 18 29  1  0
 18 17  1  0
 18 19  1  1
 20 19  1  0
 21 20  2  0
 22 21  1  0
 23 22  1  0
 23 28  2  0
 24 23  1  0
 25 24  2  0
 25 26  1  0
 26 27  2  0
 27 28  1  0
 28 20  1  0
 29 31  1  0
 30 29  2  0
M  END
$$$$
