ARW.pdb
     RDKit          3D

 31 32  0  0  1  0  0  0  0  0999 V2000
   25.8012  -15.7388  -16.1679 C   0  0  0  0  0  0  0  0  0  0  0  0
   26.7083  -16.6839  -15.4164 C   0  0  2  0  0  0  0  0  0  0  0  0
   27.4028  -17.4943  -16.3875 N   0  0  0  0  0  0  0  0  0  0  0  0
   25.8762  -17.5393  -14.5353 C   0  0  0  0  0  0  0  0  0  0  0  0
   25.1412  -17.0872  -13.6404 O   0  0  0  0  0  0  0  0  0  0  0  0
   23.1926  -25.6216  -13.3151 N   0  0  0  0  0  0  0  0  0  0  0  0
   22.1297  -24.7468  -13.6073 C   0  0  0  0  0  0  0  0  0  0  0  0
   20.9602  -24.9543  -13.1173 N   0  0  0  0  0  0  0  0  0  0  0  0
   22.3719  -23.6306  -14.4529 N   0  0  0  0  0  0  0  0  0  0  0  0
   23.6893  -23.2424  -14.8683 C   0  0  0  0  0  0  0  0  0  0  0  0
   24.2446  -22.1850  -13.9456 C   0  0  0  0  0  0  0  0  0  0  0  0
   24.7190  -21.0208  -14.7611 C   0  0  0  0  0  0  0  0  0  0  0  0
   25.2150  -19.8787  -13.8624 C   0  0  2  0  0  0  0  0  0  0  0  0
   25.9059  -18.9490  -14.7056 N   0  0  0  0  0  0  0  0  0  0  0  0
   25.9674  -20.3768  -12.7150 C   0  0  0  0  0  0  0  0  0  0  0  0
   26.9219  -21.1754  -12.9547 O   0  0  0  0  0  0  0  0  0  0  0  0
   20.1485  -24.3452  -13.3167 N   0  0  0  0  0  0  0  0  0  0  0  0
   25.7398  -20.0581  -11.3503 C   0  0  2  0  0  0  0  0  0  0  0  0
   26.5728  -20.6007  -10.2787 C   0  0  0  0  0  0  0  0  0  0  0  0
   27.1692  -19.5017   -9.4552 C   0  0  0  0  0  0  0  0  0  0  0  0
   28.0698  -19.9440   -8.3716 C   0  0  0  0  0  0  0  0  0  0  0  0
   29.1775  -20.7909   -8.5550 N   0  0  0  0  0  0  0  0  0  0  0  0
   29.7838  -20.9526   -7.3798 C   0  0  0  0  0  0  0  0  0  0  0  0
   29.1519  -20.2683   -6.4208 C   0  0  0  0  0  0  0  0  0  0  0  0
   29.3828  -20.1259   -5.0589 C   0  0  0  0  0  0  0  0  0  0  0  0
   28.5653  -19.3592   -4.2616 C   0  0  0  0  0  0  0  0  0  0  0  0
   27.4974  -18.7300   -4.8636 C   0  0  0  0  0  0  0  0  0  0  0  0
   27.2769  -18.8792   -6.2234 C   0  0  0  0  0  0  0  0  0  0  0  0
   28.0799  -19.6366   -7.0337 C   0  0  0  0  0  0  0  0  0  0  0  0
   25.8034  -21.6114   -9.5568 O   0  0  0  0  0  0  0  0  0  0  0  0
   24.5595  -21.6287   -9.4026 O   0  0  0  0  0  0  0  0  0  0  0  0
  2  1  1  6
  3  2  1  0
  4  2  1  0
  4  5  2  0
  7  6  1  0
  8  7  2  0
  9  7  1  0
 10 11  1  0
 10  9  1  0
 11 12  1  0
 13 12  1  6
 13 14  1  0
 14  4  1  0
 15 13  1  0
 16 15  2  0
 17 15  1  0
 18 29  1  0
 18 17  1  0
 18 19  1  1
 20 19  1  0
 21 20  2  0
 22 21  1  0
 23 22  1  0
 23 28  2  0
 24 23  1  0
 25 24  2  0
 25 26  1  0
 26 27  2  0
 27 28  1  0
 28 20  1  0
 29 31  1  0
 30 29  2  0
M  END
$$$$
