ARW.pdb
     RDKit          3D

 31 32  0  0  1  0  0  0  0  0999 V2000
   24.5788  -17.6785  -17.3311 C   0  0  0  0  0  0  0  0  0  0  0  0
   25.4835  -18.5626  -16.5060 C   0  0  2  0  0  0  0  0  0  0  0  0
   25.4788  -19.8768  -17.1018 N   0  0  0  0  0  0  0  0  0  0  0  0
   24.9522  -18.6246  -15.1224 C   0  0  0  0  0  0  0  0  0  0  0  0
   24.8417  -17.6279  -14.3877 O   0  0  0  0  0  0  0  0  0  0  0  0
   18.7467  -23.3304  -13.0428 N   0  0  0  0  0  0  0  0  0  0  0  0
   20.0928  -23.5773  -13.3707 C   0  0  0  0  0  0  0  0  0  0  0  0
   20.4011  -24.4976  -14.2127 N   0  0  0  0  0  0  0  0  0  0  0  0
   21.1045  -22.7917  -12.7552 N   0  0  0  0  0  0  0  0  0  0  0  0
   20.8241  -21.5625  -12.0702 C   0  0  0  0  0  0  0  0  0  0  0  0
   21.6322  -20.4323  -12.6597 C   0  0  0  0  0  0  0  0  0  0  0  0
   22.8214  -20.9988  -13.3742 C   0  0  0  0  0  0  0  0  0  0  0  0
   24.0332  -20.0620  -13.2644 C   0  0  2  0  0  0  0  0  0  0  0  0
   24.5435  -19.8764  -14.5903 N   0  0  0  0  0  0  0  0  0  0  0  0
   24.9960  -20.5316  -12.2727 C   0  0  0  0  0  0  0  0  0  0  0  0
   25.6901  -21.5468  -12.5794 O   0  0  0  0  0  0  0  0  0  0  0  0
   21.3765  -24.7155  -14.4786 N   0  0  0  0  0  0  0  0  0  0  0  0
   25.2370  -19.9665  -10.9928 C   0  0  2  0  0  0  0  0  0  0  0  0
   26.0965  -20.6193  -10.0071 C   0  0  0  0  0  0  0  0  0  0  0  0
   27.1501  -19.6793   -9.5091 C   0  0  0  0  0  0  0  0  0  0  0  0
   28.0747  -20.2437   -8.5053 C   0  0  0  0  0  0  0  0  0  0  0  0
   28.9821  -21.2877   -8.7591 N   0  0  0  0  0  0  0  0  0  0  0  0
   29.6805  -21.5186   -7.6483 C   0  0  0  0  0  0  0  0  0  0  0  0
   29.2977  -20.6961   -6.6664 C   0  0  0  0  0  0  0  0  0  0  0  0
   29.7060  -20.5521   -5.3470 C   0  0  0  0  0  0  0  0  0  0  0  0
   29.1381  -19.6196   -4.5104 C   0  0  0  0  0  0  0  0  0  0  0  0
   28.1396  -18.8239   -5.0285 C   0  0  0  0  0  0  0  0  0  0  0  0
   27.7405  -18.9764   -6.3467 C   0  0  0  0  0  0  0  0  0  0  0  0
   28.2944  -19.8975   -7.1952 C   0  0  0  0  0  0  0  0  0  0  0  0
   25.2511  -21.2459   -8.9937 O   0  0  0  0  0  0  0  0  0  0  0  0
   24.2144  -20.7577   -8.4853 O   0  0  0  0  0  0  0  0  0  0  0  0
  2  1  1  6
  3  2  1  0
  4  2  1  0
  4  5  2  0
  7  6  1  0
  8  7  2  0
  9  7  1  0
 10 11  1  0
 10  9  1  0
 11 12  1  0
 13 12  1  6
 13 14  1  0
 14  4  1  0
 15 13  1  0
 16 15  2  0
 17 15  1  0
 18 29  1  0
 18 17  1  0
 18 19  1  1
 20 19  1  0
 21 20  2  0
 22 21  1  0
 23 22  1  0
 23 28  2  0
 24 23  1  0
 25 24  2  0
 25 26  1  0
 26 27  2  0
 27 28  1  0
 28 20  1  0
 29 31  1  0
 30 29  2  0
M  END
$$$$
