ARW.pdb
     RDKit          3D

 31 32  0  0  1  0  0  0  0  0999 V2000
   28.6813  -22.4187  -15.4966 C   0  0  0  0  0  0  0  0  0  0  0  0
   27.3945  -21.7516  -15.9209 C   0  0  2  0  0  0  0  0  0  0  0  0
   27.6880  -20.9076  -17.0538 N   0  0  0  0  0  0  0  0  0  0  0  0
   26.8889  -20.9351  -14.7903 C   0  0  0  0  0  0  0  0  0  0  0  0
   27.5476  -20.0265  -14.2555 O   0  0  0  0  0  0  0  0  0  0  0  0
   20.3313  -18.5069  -15.5273 N   0  0  0  0  0  0  0  0  0  0  0  0
   21.3105  -18.1049  -16.4546 C   0  0  0  0  0  0  0  0  0  0  0  0
   21.1293  -17.0632  -17.1847 N   0  0  0  0  0  0  0  0  0  0  0  0
   22.5024  -18.8702  -16.5696 N   0  0  0  0  0  0  0  0  0  0  0  0
   22.8338  -19.9322  -15.6634 C   0  0  0  0  0  0  0  0  0  0  0  0
   23.0457  -19.3917  -14.2702 C   0  0  0  0  0  0  0  0  0  0  0  0
   23.4862  -20.5072  -13.3718 C   0  0  0  0  0  0  0  0  0  0  0  0
   25.0083  -20.4890  -13.1694 C   0  0  2  0  0  0  0  0  0  0  0  0
   25.5889  -21.1879  -14.2772 N   0  0  0  0  0  0  0  0  0  0  0  0
   25.3868  -20.9712  -11.8446 C   0  0  0  0  0  0  0  0  0  0  0  0
   25.2832  -22.2166  -11.6336 O   0  0  0  0  0  0  0  0  0  0  0  0
   21.8480  -16.6949  -17.8308 N   0  0  0  0  0  0  0  0  0  0  0  0
   25.8615  -20.1857  -10.7615 C   0  0  2  0  0  0  0  0  0  0  0  0
   26.0721  -20.7496   -9.4294 C   0  0  0  0  0  0  0  0  0  0  0  0
   27.1151  -19.9796   -8.6806 C   0  0  0  0  0  0  0  0  0  0  0  0
   27.2724  -20.3494   -7.2594 C   0  0  0  0  0  0  0  0  0  0  0  0
   26.5608  -21.3826   -6.6238 N   0  0  0  0  0  0  0  0  0  0  0  0
   26.9751  -21.4644   -5.3603 C   0  0  0  0  0  0  0  0  0  0  0  0
   27.9184  -20.5510   -5.1091 C   0  0  0  0  0  0  0  0  0  0  0  0
   28.6411  -20.2348   -3.9664 C   0  0  0  0  0  0  0  0  0  0  0  0
   29.5699  -19.2203   -3.9540 C   0  0  0  0  0  0  0  0  0  0  0  0
   29.7624  -18.5193   -5.1245 C   0  0  0  0  0  0  0  0  0  0  0  0
   29.0357  -18.8439   -6.2587 C   0  0  0  0  0  0  0  0  0  0  0  0
   28.1082  -19.8508   -6.2914 C   0  0  0  0  0  0  0  0  0  0  0  0
   24.7743  -20.8950   -8.7744 O   0  0  0  0  0  0  0  0  0  0  0  0
   23.8040  -20.1064   -8.8641 O   0  0  0  0  0  0  0  0  0  0  0  0
  2  1  1  1
  3  2  1  0
  4  2  1  0
  4  5  2  0
  7  6  1  0
  8  7  2  0
  9  7  1  0
 10 11  1  0
 10  9  1  0
 11 12  1  0
 13 12  1  6
 13 14  1  0
 14  4  1  0
 15 13  1  0
 16 15  2  0
 17 15  1  0
 18 29  1  0
 18 17  1  0
 18 19  1  6
 20 19  1  0
 21 20  2  0
 22 21  1  0
 23 22  1  0
 23 28  2  0
 24 23  1  0
 25 24  2  0
 25 26  1  0
 26 27  2  0
 27 28  1  0
 28 20  1  0
 29 31  1  0
 30 29  2  0
M  END
$$$$
