QMF.pdb
     RDKit          3D

 29 29  0  0  1  0  0  0  0  0999 V2000
   18.3795  -15.3189  -16.0808 N   0  0  0  0  0  0  0  0  0  0  0  0
   18.6620  -15.5663  -17.4468 C   0  0  0  0  0  0  0  0  0  0  0  0
   17.8598  -16.1981  -18.1783 O   0  0  0  0  0  0  0  0  0  0  0  0
   19.9173  -15.0805  -18.0404 C   0  0  0  0  0  0  0  0  0  0  0  0
   20.7070  -14.2269  -17.0374 C   0  0  0  0  0  0  0  0  0  0  0  0
   21.9804  -13.8357  -17.7577 C   0  0  2  0  0  0  0  0  0  0  0  0
   22.7174  -15.0636  -17.9906 N   0  0  0  0  0  0  0  0  0  0  0  0
   22.8180  -12.9118  -17.0044 C   0  0  0  0  0  0  0  0  0  0  0  0
   22.9870  -13.0733  -15.7745 O   0  0  0  0  0  0  0  0  0  0  0  0
   28.1713  -12.9748  -15.0744 C   0  0  0  0  0  0  0  0  0  0  0  0
   26.7535  -12.7765  -16.1817 S   0  0  0  0  0  0  0  0  0  0  0  0
   26.8445  -11.1312  -16.9197 C   0  0  0  0  0  0  0  0  0  0  0  0
   25.6267  -10.8386  -17.7271 C   0  0  0  0  0  0  0  0  0  0  0  0
   24.3402  -10.8829  -16.9741 C   0  0  2  0  0  0  0  0  0  0  0  0
   23.4484  -11.8244  -17.6506 N   0  0  0  0  0  0  0  0  0  0  0  0
   23.6618   -9.5531  -16.8909 C   0  0  0  0  0  0  0  0  0  0  0  0
   23.0080   -9.1322  -17.8787 O   0  0  0  0  0  0  0  0  0  0  0  0
   23.7467   -8.7747  -15.7294 N   0  0  0  0  0  0  0  0  0  0  0  0
   23.1419   -7.4716  -15.6915 C   0  0  1  0  0  0  0  0  0  0  0  0
   22.7442   -7.0957  -14.2570 C   0  0  0  0  0  0  0  0  0  0  0  0
   22.0365   -5.7987  -14.2402 C   0  0  0  0  0  0  0  0  0  0  0  0
   20.6640   -5.7181  -14.2269 C   0  0  0  0  0  0  0  0  0  0  0  0
   20.0994   -4.4532  -14.2156 C   0  0  0  0  0  0  0  0  0  0  0  0
   20.8431   -3.3079  -14.2171 C   0  0  0  0  0  0  0  0  0  0  0  0
   22.2223   -3.4334  -14.2307 C   0  0  0  0  0  0  0  0  0  0  0  0
   22.8277   -4.6524  -14.2422 C   0  0  0  0  0  0  0  0  0  0  0  0
   24.0099   -6.4019  -16.2096 C   0  0  0  0  0  0  0  0  0  0  0  0
   23.4914   -5.5224  -17.1423 O   0  0  0  0  0  0  0  0  0  0  0  0
   25.1998   -6.2475  -15.8473 O   0  0  0  0  0  0  0  0  0  0  0  0
  2  1  1  0
  2  3  2  0
  4  2  1  0
  5  6  1  0
  5  4  1  0
  6  8  1  0
  6  7  1  1
  8  9  2  0
  8 15  1  0
 11 10  1  0
 12 11  1  0
 14 13  1  6
 13 12  1  0
 14 16  1  0
 15 14  1  0
 16 17  2  0
 18 16  1  0
 18 19  1  0
 19 27  1  0
 19 20  1  1
 21 20  1  0
 22 21  2  0
 23 22  1  0
 24 25  1  0
 24 23  2  0
 25 26  2  0
 26 21  1  0
 27 28  1  0
 29 27  2  0
M  END
$$$$
