QMF.pdb
     RDKit          3D

 29 29  0  0  1  0  0  0  0  0999 V2000
   27.7714  -18.6444  -16.2583 N   0  0  0  0  0  0  0  0  0  0  0  0
   28.5522  -19.2469  -17.2754 C   0  0  0  0  0  0  0  0  0  0  0  0
   29.6304  -18.7337  -17.6650 O   0  0  0  0  0  0  0  0  0  0  0  0
   28.1073  -20.5016  -17.9014 C   0  0  0  0  0  0  0  0  0  0  0  0
   26.8107  -21.0105  -17.2548 C   0  0  0  0  0  0  0  0  0  0  0  0
   27.2438  -21.7146  -15.9859 C   0  0  2  0  0  0  0  0  0  0  0  0
   27.7912  -22.9959  -16.3905 N   0  0  0  0  0  0  0  0  0  0  0  0
   26.1578  -21.9366  -15.0405 C   0  0  0  0  0  0  0  0  0  0  0  0
   25.2339  -22.7349  -15.3173 O   0  0  0  0  0  0  0  0  0  0  0  0
   25.4690  -20.0129   -8.5992 C   0  0  0  0  0  0  0  0  0  0  0  0
   26.8988  -20.9109   -9.2508 S   0  0  0  0  0  0  0  0  0  0  0  0
   26.4288  -21.6399  -10.8344 C   0  0  0  0  0  0  0  0  0  0  0  0
   25.4613  -20.7684  -11.5588 C   0  0  0  0  0  0  0  0  0  0  0  0
   25.0006  -21.2906  -12.8776 C   0  0  2  0  0  0  0  0  0  0  0  0
   26.1332  -21.2554  -13.8025 N   0  0  0  0  0  0  0  0  0  0  0  0
   23.8764  -20.4979  -13.4635 C   0  0  0  0  0  0  0  0  0  0  0  0
   24.0835  -19.3136  -13.8304 O   0  0  0  0  0  0  0  0  0  0  0  0
   22.6007  -21.0584  -13.6071 N   0  0  0  0  0  0  0  0  0  0  0  0
   21.5454  -20.2968  -14.2167 C   0  0  1  0  0  0  0  0  0  0  0  0
   20.9312  -21.0625  -15.3973 C   0  0  0  0  0  0  0  0  0  0  0  0
   20.3091  -22.3189  -14.9305 C   0  0  0  0  0  0  0  0  0  0  0  0
   19.0309  -22.3548  -14.4252 C   0  0  0  0  0  0  0  0  0  0  0  0
   18.5429  -23.5834  -14.0115 C   0  0  0  0  0  0  0  0  0  0  0  0
   19.2718  -24.7356  -14.0867 C   0  0  0  0  0  0  0  0  0  0  0  0
   20.5549  -24.6557  -14.6020 C   0  0  0  0  0  0  0  0  0  0  0  0
   21.0824  -23.4736  -15.0226 C   0  0  0  0  0  0  0  0  0  0  0  0
   20.4543  -19.9525  -13.2910 C   0  0  0  0  0  0  0  0  0  0  0  0
   19.4272  -19.1474  -13.7487 O   0  0  0  0  0  0  0  0  0  0  0  0
   20.4088  -20.3531  -12.1042 O   0  0  0  0  0  0  0  0  0  0  0  0
  2  1  1  0
  2  3  2  0
  4  2  1  0
  5  6  1  0
  5  4  1  0
  6  8  1  0
  6  7  1  6
  8  9  2  0
  8 15  1  0
 11 10  1  0
 12 11  1  0
 14 13  1  1
 13 12  1  0
 14 16  1  0
 15 14  1  0
 16 17  2  0
 18 16  1  0
 18 19  1  0
 19 27  1  0
 19 20  1  6
 21 20  1  0
 22 21  2  0
 23 22  1  0
 24 25  1  0
 24 23  2  0
 25 26  2  0
 26 21  1  0
 27 28  1  0
 29 27  2  0
M  END
$$$$
