QMF.pdb
     RDKit          3D

 29 29  0  0  1  0  0  0  0  0999 V2000
   28.8176  -17.1836  -16.2386 N   0  0  0  0  0  0  0  0  0  0  0  0
   28.6365  -17.3445  -17.6345 C   0  0  0  0  0  0  0  0  0  0  0  0
   29.5085  -16.9682  -18.4565 O   0  0  0  0  0  0  0  0  0  0  0  0
   27.4067  -17.9639  -18.1523 C   0  0  0  0  0  0  0  0  0  0  0  0
   26.3839  -18.1819  -17.0278 C   0  0  0  0  0  0  0  0  0  0  0  0
   27.0793  -19.0719  -16.0190 C   0  0  2  0  0  0  0  0  0  0  0  0
   27.8039  -20.0721  -16.7803 N   0  0  0  0  0  0  0  0  0  0  0  0
   26.1661  -19.7397  -15.1010 C   0  0  0  0  0  0  0  0  0  0  0  0
   25.1183  -19.1666  -14.7254 O   0  0  0  0  0  0  0  0  0  0  0  0
   22.6009  -25.3169  -16.3939 C   0  0  0  0  0  0  0  0  0  0  0  0
   23.8750  -25.1227  -15.1233 S   0  0  0  0  0  0  0  0  0  0  0  0
   24.4598  -23.4152  -15.1722 C   0  0  0  0  0  0  0  0  0  0  0  0
   25.4890  -23.1716  -14.1225 C   0  0  0  0  0  0  0  0  0  0  0  0
   25.6085  -21.7565  -13.6670 C   0  0  2  0  0  0  0  0  0  0  0  0
   26.4506  -21.0393  -14.6241 N   0  0  0  0  0  0  0  0  0  0  0  0
   26.2107  -21.6263  -12.3047 C   0  0  0  0  0  0  0  0  0  0  0  0
   27.4520  -21.7664  -12.1640 O   0  0  0  0  0  0  0  0  0  0  0  0
   25.4101  -21.3514  -11.1886 N   0  0  0  0  0  0  0  0  0  0  0  0
   26.0135  -21.1800   -9.8957 C   0  0  1  0  0  0  0  0  0  0  0  0
   27.0165  -20.0175   -9.9110 C   0  0  0  0  0  0  0  0  0  0  0  0
   27.6113  -19.8309   -8.5713 C   0  0  0  0  0  0  0  0  0  0  0  0
   28.8137  -20.3995   -8.2228 C   0  0  0  0  0  0  0  0  0  0  0  0
   29.2817  -20.1658   -6.9402 C   0  0  0  0  0  0  0  0  0  0  0  0
   28.6047  -19.4064   -6.0294 C   0  0  0  0  0  0  0  0  0  0  0  0
   27.3974  -18.8519   -6.4208 C   0  0  0  0  0  0  0  0  0  0  0  0
   26.8926  -19.0504   -7.6691 C   0  0  0  0  0  0  0  0  0  0  0  0
   25.0431  -20.9190   -8.8205 C   0  0  0  0  0  0  0  0  0  0  0  0
   25.2779  -21.4627   -7.5707 O   0  0  0  0  0  0  0  0  0  0  0  0
   24.0105  -20.2268   -8.9808 O   0  0  0  0  0  0  0  0  0  0  0  0
  2  1  1  0
  2  3  2  0
  4  2  1  0
  5  6  1  0
  5  4  1  0
  6  8  1  0
  6  7  1  6
  8  9  2  0
  8 15  1  0
 11 10  1  0
 12 11  1  0
 14 13  1  6
 13 12  1  0
 14 16  1  0
 15 14  1  0
 16 17  2  0
 18 16  1  0
 18 19  1  0
 19 27  1  0
 19 20  1  6
 21 20  1  0
 22 21  2  0
 23 22  1  0
 24 25  1  0
 24 23  2  0
 25 26  2  0
 26 21  1  0
 27 28  1  0
 29 27  2  0
M  END
$$$$
