MFN.pdb
     RDKit          3D

 28 28  0  0  1  0  0  0  0  0999 V2000
    8.1450  -11.9246   19.1667 C   0  0  0  0  0  0  0  0  0  0  0  0
    7.5099  -13.3073   18.1927 S   0  0  0  0  0  0  0  0  0  0  0  0
    7.7512  -14.8273   19.1513 C   0  0  0  0  0  0  0  0  0  0  0  0
    9.2071  -14.8879   19.5611 C   0  0  0  0  0  0  0  0  0  0  0  0
    9.4758  -16.0861   20.4447 C   0  0  2  0  0  0  0  0  0  0  0  0
    8.4094  -17.0342   20.4401 N   0  0  0  0  0  0  0  0  0  0  0  0
    9.6794  -15.5600   21.8262 C   0  0  0  0  0  0  0  0  0  0  0  0
   10.6865  -14.8528   22.1194 O   0  0  0  0  0  0  0  0  0  0  0  0
    8.7742  -15.8172   22.8666 N   0  0  0  0  0  0  0  0  0  0  0  0
    8.7702  -15.0286   24.1267 C   0  0  1  0  0  0  0  0  0  0  0  0
    7.4883  -14.2811   24.0929 C   0  0  0  0  0  0  0  0  0  0  0  0
    7.1766  -13.4058   25.2192 C   0  0  0  0  0  0  0  0  0  0  0  0
    6.0979  -13.6548   26.0307 C   0  0  0  0  0  0  0  0  0  0  0  0
    5.7690  -12.8452   27.1064 C   0  0  0  0  0  0  0  0  0  0  0  0
    6.5383  -11.7443   27.3911 C   0  0  0  0  0  0  0  0  0  0  0  0
    7.6232  -11.4626   26.6045 C   0  0  0  0  0  0  0  0  0  0  0  0
    7.9426  -12.2821   25.5288 C   0  0  0  0  0  0  0  0  0  0  0  0
    9.0061  -15.9360   25.2524 C   0  0  0  0  0  0  0  0  0  0  0  0
    9.3653  -15.4134   26.3689 O   0  0  0  0  0  0  0  0  0  0  0  0
   11.9179  -20.1947   24.0342 N   0  0  0  0  0  0  0  0  0  0  0  0
   12.1532  -18.8402   24.3657 C   0  0  0  0  0  0  0  0  0  0  0  0
   13.2860  -18.4953   24.7781 O   0  0  0  0  0  0  0  0  0  0  0  0
   11.0426  -17.8320   24.2182 C   0  0  0  0  0  0  0  0  0  0  0  0
   10.0402  -18.1916   25.2957 C   0  0  2  0  0  0  0  0  0  0  0  0
    8.8725  -17.3451   25.2419 N   0  0  0  0  0  0  0  0  0  0  0  0
   10.6404  -18.1142   26.6435 C   0  0  0  0  0  0  0  0  0  0  0  0
   11.5605  -18.8352   27.0813 O   0  0  0  0  0  0  0  0  0  0  0  0
   10.1306  -17.1361   27.5215 O   0  0  0  0  0  0  0  0  0  0  0  0
  2  1  1  0
  2  3  1  0
  4  3  1  0
  5  4  1  0
  5  6  1  1
  7  5  1  0
  8  7  2  0
  9  7  1  0
 10  9  1  0
 10 11  1  1
 11 12  1  0
 12 17  2  0
 13 12  1  0
 13 14  2  0
 14 15  1  0
 15 16  2  0
 17 16  1  0
 18 25  1  0
 18 10  1  0
 19 18  2  0
 20 21  1  0
 21 22  2  0
 23 21  1  0
 24 23  1  6
 24 26  1  0
 24 25  1  0
 26 28  1  0
 27 26  2  0
M  END
$$$$
