MFN.pdb
     RDKit          3D

 28 28  0  0  1  0  0  0  0  0999 V2000
    7.9183  -11.4330   20.0071 C   0  0  0  0  0  0  0  0  0  0  0  0
    7.4025  -12.6697   18.7953 S   0  0  0  0  0  0  0  0  0  0  0  0
    7.3145  -14.2750   19.6337 C   0  0  0  0  0  0  0  0  0  0  0  0
    8.6447  -14.5125   20.3158 C   0  0  0  0  0  0  0  0  0  0  0  0
    8.7094  -15.8990   20.9177 C   0  0  2  0  0  0  0  0  0  0  0  0
    7.4702  -16.6018   20.8362 N   0  0  0  0  0  0  0  0  0  0  0  0
    9.0998  -15.7253   22.3474 C   0  0  0  0  0  0  0  0  0  0  0  0
   10.2004  -15.1909   22.6689 O   0  0  0  0  0  0  0  0  0  0  0  0
    8.2762  -16.1405   23.4045 N   0  0  0  0  0  0  0  0  0  0  0  0
    8.6753  -15.9858   24.8280 C   0  0  1  0  0  0  0  0  0  0  0  0
    7.4111  -15.6618   25.5351 C   0  0  0  0  0  0  0  0  0  0  0  0
    7.1795  -14.2729   25.9213 C   0  0  0  0  0  0  0  0  0  0  0  0
    5.9894  -13.6498   25.6395 C   0  0  0  0  0  0  0  0  0  0  0  0
    5.7344  -12.3326   25.9872 C   0  0  0  0  0  0  0  0  0  0  0  0
    6.6958  -11.6018   26.6403 C   0  0  0  0  0  0  0  0  0  0  0  0
    7.8965  -12.1886   26.9393 C   0  0  0  0  0  0  0  0  0  0  0  0
    8.1399  -13.5100   26.5852 C   0  0  0  0  0  0  0  0  0  0  0  0
    9.4079  -17.1836   25.2459 C   0  0  0  0  0  0  0  0  0  0  0  0
    8.9012  -18.3236   24.9420 O   0  0  0  0  0  0  0  0  0  0  0  0
   14.1287  -19.9513   27.4003 N   0  0  0  0  0  0  0  0  0  0  0  0
   13.2466  -19.8303   26.3017 C   0  0  0  0  0  0  0  0  0  0  0  0
   12.8983  -20.8595   25.6757 O   0  0  0  0  0  0  0  0  0  0  0  0
   12.7375  -18.4699   25.8996 C   0  0  0  0  0  0  0  0  0  0  0  0
   11.2661  -18.4790   26.2599 C   0  0  2  0  0  0  0  0  0  0  0  0
   10.6337  -17.2186   25.9528 N   0  0  0  0  0  0  0  0  0  0  0  0
   11.0586  -18.7967   27.6878 C   0  0  0  0  0  0  0  0  0  0  0  0
   10.9954  -19.9398   28.1853 O   0  0  0  0  0  0  0  0  0  0  0  0
   10.9187  -17.7113   28.5765 O   0  0  0  0  0  0  0  0  0  0  0  0
  2  1  1  0
  2  3  1  0
  4  3  1  0
  5  4  1  0
  5  6  1  1
  7  5  1  0
  8  7  2  0
  9  7  1  0
 10  9  1  0
 10 11  1  1
 11 12  1  0
 12 17  2  0
 13 12  1  0
 13 14  2  0
 14 15  1  0
 15 16  2  0
 17 16  1  0
 18 25  1  0
 18 10  1  0
 19 18  2  0
 20 21  1  0
 21 22  2  0
 23 21  1  0
 24 23  1  1
 24 26  1  0
 24 25  1  0
 26 28  1  0
 27 26  2  0
M  END
$$$$
