MFN.pdb
     RDKit          3D

 28 28  0  0  1  0  0  0  0  0999 V2000
    6.1541  -19.7423   21.1870 C   0  0  0  0  0  0  0  0  0  0  0  0
    7.5704  -20.1633   20.1475 S   0  0  0  0  0  0  0  0  0  0  0  0
    8.6867  -18.7349   20.1137 C   0  0  0  0  0  0  0  0  0  0  0  0
    7.8589  -17.5104   19.7874 C   0  0  0  0  0  0  0  0  0  0  0  0
    8.7202  -16.2678   19.7343 C   0  0  2  0  0  0  0  0  0  0  0  0
    9.9737  -16.4840   19.0877 N   0  0  0  0  0  0  0  0  0  0  0  0
    8.9459  -15.8448   21.1474 C   0  0  0  0  0  0  0  0  0  0  0  0
   10.0354  -16.0898   21.7418 O   0  0  0  0  0  0  0  0  0  0  0  0
    7.9724  -15.1584   21.8884 N   0  0  0  0  0  0  0  0  0  0  0  0
    8.2039  -14.7247   23.2913 C   0  0  1  0  0  0  0  0  0  0  0  0
    7.2560  -13.6006   23.4938 C   0  0  0  0  0  0  0  0  0  0  0  0
    7.1399  -13.0366   24.8356 C   0  0  0  0  0  0  0  0  0  0  0  0
    6.0682  -13.3375   25.6386 C   0  0  0  0  0  0  0  0  0  0  0  0
    5.9221  -12.8193   26.9157 C   0  0  0  0  0  0  0  0  0  0  0  0
    6.8748  -11.9684   27.4190 C   0  0  0  0  0  0  0  0  0  0  0  0
    7.9592  -11.6443   26.6480 C   0  0  0  0  0  0  0  0  0  0  0  0
    8.0941  -12.1706   25.3691 C   0  0  0  0  0  0  0  0  0  0  0  0
    8.0850  -15.8898   24.1714 C   0  0  0  0  0  0  0  0  0  0  0  0
    7.3054  -16.8385   23.7958 O   0  0  0  0  0  0  0  0  0  0  0  0
   12.3892  -19.0151   25.0870 N   0  0  0  0  0  0  0  0  0  0  0  0
   10.9885  -19.0025   24.8927 C   0  0  0  0  0  0  0  0  0  0  0  0
   10.3317  -20.0541   25.0799 O   0  0  0  0  0  0  0  0  0  0  0  0
   10.3057  -17.7286   24.4657 C   0  0  0  0  0  0  0  0  0  0  0  0
    9.4729  -17.3100   25.6600 C   0  0  2  0  0  0  0  0  0  0  0  0
    8.7512  -16.0865   25.4047 N   0  0  0  0  0  0  0  0  0  0  0  0
   10.3038  -17.1457   26.8706 C   0  0  0  0  0  0  0  0  0  0  0  0
   10.8095  -16.0791   27.2762 O   0  0  0  0  0  0  0  0  0  0  0  0
   10.5515  -18.2979   27.6442 O   0  0  0  0  0  0  0  0  0  0  0  0
  2  1  1  0
  2  3  1  0
  4  3  1  0
  5  4  1  0
  5  6  1  1
  7  5  1  0
  8  7  2  0
  9  7  1  0
 10  9  1  0
 10 11  1  1
 11 12  1  0
 12 17  2  0
 13 12  1  0
 13 14  2  0
 14 15  1  0
 15 16  2  0
 17 16  1  0
 18 25  1  0
 18 10  1  0
 19 18  2  0
 20 21  1  0
 21 22  2  0
 23 21  1  0
 24 23  1  6
 24 26  1  0
 24 25  1  0
 26 28  1  0
 27 26  2  0
M  END
$$$$
