MFN.pdb
     RDKit          3D

 28 28  0  0  1  0  0  0  0  0999 V2000
    7.9657  -11.2706   20.5243 C   0  0  0  0  0  0  0  0  0  0  0  0
    7.6291  -12.3210   19.0935 S   0  0  0  0  0  0  0  0  0  0  0  0
    7.3772  -14.0155   19.6875 C   0  0  0  0  0  0  0  0  0  0  0  0
    8.4552  -14.3115   20.7080 C   0  0  0  0  0  0  0  0  0  0  0  0
    8.3710  -15.7427   21.1911 C   0  0  2  0  0  0  0  0  0  0  0  0
    7.0560  -16.2882   21.0954 N   0  0  0  0  0  0  0  0  0  0  0  0
    8.8149  -15.7385   22.6158 C   0  0  0  0  0  0  0  0  0  0  0  0
    9.9691  -15.3386   22.9444 O   0  0  0  0  0  0  0  0  0  0  0  0
    7.9851  -16.1731   23.6601 N   0  0  0  0  0  0  0  0  0  0  0  0
    8.4229  -16.1543   25.0805 C   0  0  1  0  0  0  0  0  0  0  0  0
    7.2396  -15.6594   25.8275 C   0  0  0  0  0  0  0  0  0  0  0  0
    7.1757  -14.2352   26.1426 C   0  0  0  0  0  0  0  0  0  0  0  0
    6.0050  -13.5322   26.0037 C   0  0  0  0  0  0  0  0  0  0  0  0
    5.9066  -12.1797   26.2898 C   0  0  0  0  0  0  0  0  0  0  0  0
    7.0113  -11.4943   26.7311 C   0  0  0  0  0  0  0  0  0  0  0  0
    8.1978  -12.1610   26.8826 C   0  0  0  0  0  0  0  0  0  0  0  0
    8.2835  -13.5172   26.5925 C   0  0  0  0  0  0  0  0  0  0  0  0
    8.9514  -17.4753   25.4292 C   0  0  0  0  0  0  0  0  0  0  0  0
    8.1304  -18.4626   25.4209 O   0  0  0  0  0  0  0  0  0  0  0  0
   11.9390  -18.2454   22.9210 N   0  0  0  0  0  0  0  0  0  0  0  0
   12.0928  -19.1966   23.9560 C   0  0  0  0  0  0  0  0  0  0  0  0
   13.2447  -19.4958   24.3509 O   0  0  0  0  0  0  0  0  0  0  0  0
   10.8734  -19.8353   24.5698 C   0  0  0  0  0  0  0  0  0  0  0  0
   10.7101  -19.1578   25.9148 C   0  0  2  0  0  0  0  0  0  0  0  0
   10.2893  -17.7845   25.7729 N   0  0  0  0  0  0  0  0  0  0  0  0
   11.9582  -19.2091   26.7038 C   0  0  0  0  0  0  0  0  0  0  0  0
   12.4678  -20.2308   27.2083 O   0  0  0  0  0  0  0  0  0  0  0  0
   12.6422  -17.9936   26.9089 O   0  0  0  0  0  0  0  0  0  0  0  0
  2  1  1  0
  2  3  1  0
  4  3  1  0
  5  4  1  0
  5  6  1  1
  7  5  1  0
  8  7  2  0
  9  7  1  0
 10  9  1  0
 10 11  1  1
 11 12  1  0
 12 17  2  0
 13 12  1  0
 13 14  2  0
 14 15  1  0
 15 16  2  0
 17 16  1  0
 18 25  1  0
 18 10  1  0
 19 18  2  0
 20 21  1  0
 21 22  2  0
 23 21  1  0
 24 23  1  6
 24 26  1  0
 24 25  1  0
 26 28  1  0
 27 26  2  0
M  END
$$$$
