MFN.pdb
     RDKit          3D

 28 28  0  0  1  0  0  0  0  0999 V2000
    8.5030  -11.5550   20.0418 C   0  0  0  0  0  0  0  0  0  0  0  0
    7.4815  -12.6053   18.9847 S   0  0  0  0  0  0  0  0  0  0  0  0
    7.4116  -14.2557   19.7323 C   0  0  0  0  0  0  0  0  0  0  0  0
    8.3192  -14.2523   20.9436 C   0  0  0  0  0  0  0  0  0  0  0  0
    8.4474  -15.6395   21.5334 C   0  0  2  0  0  0  0  0  0  0  0  0
    7.1882  -16.2805   21.7325 N   0  0  0  0  0  0  0  0  0  0  0  0
    9.1486  -15.4836   22.8413 C   0  0  0  0  0  0  0  0  0  0  0  0
   10.2794  -14.9218   22.9191 O   0  0  0  0  0  0  0  0  0  0  0  0
    8.5983  -15.9463   24.0460 N   0  0  0  0  0  0  0  0  0  0  0  0
    9.2953  -15.7853   25.3490 C   0  0  1  0  0  0  0  0  0  0  0  0
    8.2034  -15.5592   26.3288 C   0  0  0  0  0  0  0  0  0  0  0  0
    7.5379  -14.2597   26.3241 C   0  0  0  0  0  0  0  0  0  0  0  0
    6.2256  -14.1388   25.9404 C   0  0  0  0  0  0  0  0  0  0  0  0
    5.5615  -12.9225   25.9199 C   0  0  0  0  0  0  0  0  0  0  0  0
    6.2226  -11.7788   26.2941 C   0  0  0  0  0  0  0  0  0  0  0  0
    7.5330  -11.8585   26.6836 C   0  0  0  0  0  0  0  0  0  0  0  0
    8.1876  -13.0841   26.6998 C   0  0  0  0  0  0  0  0  0  0  0  0
   10.1775  -16.9361   25.5580 C   0  0  0  0  0  0  0  0  0  0  0  0
   10.5407  -17.1927   26.7625 O   0  0  0  0  0  0  0  0  0  0  0  0
   12.7957  -19.5191   21.9260 N   0  0  0  0  0  0  0  0  0  0  0  0
   11.5433  -19.4447   22.5784 C   0  0  0  0  0  0  0  0  0  0  0  0
   10.5899  -18.8564   22.0152 O   0  0  0  0  0  0  0  0  0  0  0  0
   11.3715  -20.0726   23.9377 C   0  0  0  0  0  0  0  0  0  0  0  0
   11.5133  -18.9280   24.9198 C   0  0  2  0  0  0  0  0  0  0  0  0
   10.6736  -17.8102   24.5613 N   0  0  0  0  0  0  0  0  0  0  0  0
   12.9152  -18.4739   25.0258 C   0  0  0  0  0  0  0  0  0  0  0  0
   13.3500  -17.3486   24.7054 O   0  0  0  0  0  0  0  0  0  0  0  0
   13.8542  -19.3931   25.5366 O   0  0  0  0  0  0  0  0  0  0  0  0
  2  1  1  0
  2  3  1  0
  4  3  1  0
  5  4  1  0
  5  6  1  1
  7  5  1  0
  8  7  2  0
  9  7  1  0
 10  9  1  0
 10 11  1  1
 11 12  1  0
 12 17  2  0
 13 12  1  0
 13 14  2  0
 14 15  1  0
 15 16  2  0
 17 16  1  0
 18 25  1  0
 18 10  1  0
 19 18  2  0
 20 21  1  0
 21 22  2  0
 23 21  1  0
 24 23  1  6
 24 26  1  0
 24 25  1  0
 26 28  1  0
 27 26  2  0
M  END
$$$$
