MFN.pdb
     RDKit          3D

 28 28  0  0  1  0  0  0  0  0999 V2000
    5.3579  -19.5653   17.2203 C   0  0  0  0  0  0  0  0  0  0  0  0
    6.7885  -18.4824   17.0090 S   0  0  0  0  0  0  0  0  0  0  0  0
    7.6293  -18.3438   18.6095 C   0  0  0  0  0  0  0  0  0  0  0  0
    6.5910  -17.9685   19.6450 C   0  0  0  0  0  0  0  0  0  0  0  0
    7.0934  -18.2418   21.0455 C   0  0  2  0  0  0  0  0  0  0  0  0
    6.1655  -18.9820   21.8374 N   0  0  0  0  0  0  0  0  0  0  0  0
    7.3480  -16.9126   21.6741 C   0  0  0  0  0  0  0  0  0  0  0  0
    7.7274  -15.9211   20.9862 O   0  0  0  0  0  0  0  0  0  0  0  0
    7.1821  -16.6903   23.0493 N   0  0  0  0  0  0  0  0  0  0  0  0
    7.7192  -15.4813   23.7271 C   0  0  1  0  0  0  0  0  0  0  0  0
    6.7936  -15.2509   24.8643 C   0  0  0  0  0  0  0  0  0  0  0  0
    6.9264  -14.0046   25.6133 C   0  0  0  0  0  0  0  0  0  0  0  0
    6.1152  -12.9299   25.3470 C   0  0  0  0  0  0  0  0  0  0  0  0
    6.2138  -11.7304   26.0342 C   0  0  0  0  0  0  0  0  0  0  0  0
    7.1533  -11.5879   27.0252 C   0  0  0  0  0  0  0  0  0  0  0  0
    7.9813  -12.6379   27.3203 C   0  0  0  0  0  0  0  0  0  0  0  0
    7.8725  -13.8355   26.6241 C   0  0  0  0  0  0  0  0  0  0  0  0
    9.1361  -15.6993   24.0288 C   0  0  0  0  0  0  0  0  0  0  0  0
    9.7788  -14.7353   24.5824 O   0  0  0  0  0  0  0  0  0  0  0  0
   14.1156  -16.9193   22.8370 N   0  0  0  0  0  0  0  0  0  0  0  0
   13.4731  -15.9724   23.6679 C   0  0  0  0  0  0  0  0  0  0  0  0
   14.1370  -15.3753   24.5483 O   0  0  0  0  0  0  0  0  0  0  0  0
   12.0035  -15.6934   23.4838 C   0  0  0  0  0  0  0  0  0  0  0  0
   11.2995  -16.9154   24.0371 C   0  0  2  0  0  0  0  0  0  0  0  0
    9.8804  -16.8768   23.7774 N   0  0  0  0  0  0  0  0  0  0  0  0
   11.5285  -17.0631   25.4892 C   0  0  0  0  0  0  0  0  0  0  0  0
   10.7505  -16.7035   26.3966 O   0  0  0  0  0  0  0  0  0  0  0  0
   12.7367  -17.6664   25.8937 O   0  0  0  0  0  0  0  0  0  0  0  0
  2  1  1  0
  2  3  1  0
  4  3  1  0
  5  4  1  0
  5  6  1  1
  7  5  1  0
  8  7  2  0
  9  7  1  0
 10  9  1  0
 10 11  1  1
 11 12  1  0
 12 17  2  0
 13 12  1  0
 13 14  2  0
 14 15  1  0
 15 16  2  0
 17 16  1  0
 18 25  1  0
 18 10  1  0
 19 18  2  0
 20 21  1  0
 21 22  2  0
 23 21  1  0
 24 23  1  1
 24 26  1  0
 24 25  1  0
 26 28  1  0
 27 26  2  0
M  END
$$$$
