MFN.pdb
     RDKit          3D

 28 28  0  0  1  0  0  0  0  0999 V2000
    8.8884  -21.3748   22.3789 C   0  0  0  0  0  0  0  0  0  0  0  0
    9.9809  -21.2011   20.9505 S   0  0  0  0  0  0  0  0  0  0  0  0
    9.6190  -19.6116   20.1566 C   0  0  0  0  0  0  0  0  0  0  0  0
    9.7874  -18.5267   21.1986 C   0  0  0  0  0  0  0  0  0  0  0  0
    9.3070  -17.1902   20.6774 C   0  0  2  0  0  0  0  0  0  0  0  0
   10.0319  -16.7438   19.5322 N   0  0  0  0  0  0  0  0  0  0  0  0
    9.4717  -16.2133   21.7933 C   0  0  0  0  0  0  0  0  0  0  0  0
   10.5327  -15.5370   21.9248 O   0  0  0  0  0  0  0  0  0  0  0  0
    8.4690  -15.9920   22.7491 N   0  0  0  0  0  0  0  0  0  0  0  0
    8.6144  -14.9833   23.8312 C   0  0  1  0  0  0  0  0  0  0  0  0
    7.2515  -14.4200   23.9996 C   0  0  0  0  0  0  0  0  0  0  0  0
    7.0103  -13.5408   25.1400 C   0  0  0  0  0  0  0  0  0  0  0  0
    6.2787  -13.9682   26.2199 C   0  0  0  0  0  0  0  0  0  0  0  0
    6.0264  -13.1618   27.3184 C   0  0  0  0  0  0  0  0  0  0  0  0
    6.5177  -11.8802   27.3502 C   0  0  0  0  0  0  0  0  0  0  0  0
    7.2527  -11.4172   26.2916 C   0  0  0  0  0  0  0  0  0  0  0  0
    7.4987  -12.2356   25.1960 C   0  0  0  0  0  0  0  0  0  0  0  0
    9.2411  -15.6221   24.9911 C   0  0  0  0  0  0  0  0  0  0  0  0
    8.7239  -16.7184   25.4146 O   0  0  0  0  0  0  0  0  0  0  0  0
   11.9308  -16.8984   24.5453 N   0  0  0  0  0  0  0  0  0  0  0  0
   12.8988  -16.4287   25.4630 C   0  0  0  0  0  0  0  0  0  0  0  0
   14.1147  -16.4979   25.1645 O   0  0  0  0  0  0  0  0  0  0  0  0
   12.4571  -15.8517   26.7835 C   0  0  0  0  0  0  0  0  0  0  0  0
   10.9451  -15.9443   26.7664 C   0  0  2  0  0  0  0  0  0  0  0  0
   10.3744  -15.1567   25.7002 N   0  0  0  0  0  0  0  0  0  0  0  0
   10.3606  -15.5212   28.0556 C   0  0  0  0  0  0  0  0  0  0  0  0
    9.5880  -14.5567   28.2315 O   0  0  0  0  0  0  0  0  0  0  0  0
   10.7033  -16.2739   29.1974 O   0  0  0  0  0  0  0  0  0  0  0  0
  2  1  1  0
  2  3  1  0
  4  3  1  0
  5  4  1  0
  5  6  1  6
  7  5  1  0
  8  7  2  0
  9  7  1  0
 10  9  1  0
 10 11  1  1
 11 12  1  0
 12 17  2  0
 13 12  1  0
 13 14  2  0
 14 15  1  0
 15 16  2  0
 17 16  1  0
 18 25  1  0
 18 10  1  0
 19 18  2  0
 20 21  1  0
 21 22  2  0
 23 21  1  0
 24 23  1  1
 24 26  1  0
 24 25  1  0
 26 28  1  0
 27 26  2  0
M  END
$$$$
