MFN.pdb
     RDKit          3D

 28 28  0  0  1  0  0  0  0  0999 V2000
    7.4049  -12.0862   18.5113 C   0  0  0  0  0  0  0  0  0  0  0  0
    7.3960  -13.4304   17.3042 S   0  0  0  0  0  0  0  0  0  0  0  0
    7.9789  -14.9338   18.1333 C   0  0  0  0  0  0  0  0  0  0  0  0
    8.4453  -14.5446   19.5197 C   0  0  0  0  0  0  0  0  0  0  0  0
    8.9063  -15.7557   20.3004 C   0  0  2  0  0  0  0  0  0  0  0  0
    7.9418  -16.8070   20.3217 N   0  0  0  0  0  0  0  0  0  0  0  0
    9.1768  -15.2886   21.6915 C   0  0  0  0  0  0  0  0  0  0  0  0
   10.1488  -14.5216   21.9510 O   0  0  0  0  0  0  0  0  0  0  0  0
    8.3761  -15.6697   22.7786 N   0  0  0  0  0  0  0  0  0  0  0  0
    8.5865  -15.1273   24.1465 C   0  0  1  0  0  0  0  0  0  0  0  0
    7.2165  -14.9116   24.6754 C   0  0  0  0  0  0  0  0  0  0  0  0
    7.0461  -13.9541   25.7643 C   0  0  0  0  0  0  0  0  0  0  0  0
    7.6580  -14.1471   26.9777 C   0  0  0  0  0  0  0  0  0  0  0  0
    7.5172  -13.2624   28.0352 C   0  0  0  0  0  0  0  0  0  0  0  0
    6.7393  -12.1409   27.8866 C   0  0  0  0  0  0  0  0  0  0  0  0
    6.1125  -11.9132   26.6905 C   0  0  0  0  0  0  0  0  0  0  0  0
    6.2616  -12.8079   25.6379 C   0  0  0  0  0  0  0  0  0  0  0  0
    9.4717  -16.0331   24.8827 C   0  0  0  0  0  0  0  0  0  0  0  0
    9.6971  -15.7662   26.1183 O   0  0  0  0  0  0  0  0  0  0  0  0
    9.4092  -21.2742   25.5031 N   0  0  0  0  0  0  0  0  0  0  0  0
   10.2980  -20.2291   25.8459 C   0  0  0  0  0  0  0  0  0  0  0  0
   10.5057  -19.9695   27.0550 O   0  0  0  0  0  0  0  0  0  0  0  0
   10.9826  -19.4441   24.7566 C   0  0  0  0  0  0  0  0  0  0  0  0
   10.9407  -18.0040   25.2248 C   0  0  2  0  0  0  0  0  0  0  0  0
   10.1084  -17.1897   24.3721 N   0  0  0  0  0  0  0  0  0  0  0  0
   12.2944  -17.4161   25.2947 C   0  0  0  0  0  0  0  0  0  0  0  0
   13.0413  -17.4068   26.2948 O   0  0  0  0  0  0  0  0  0  0  0  0
   12.7949  -16.8081   24.1255 O   0  0  0  0  0  0  0  0  0  0  0  0
  2  1  1  0
  2  3  1  0
  4  3  1  0
  5  4  1  0
  5  6  1  1
  7  5  1  0
  8  7  2  0
  9  7  1  0
 10  9  1  0
 10 11  1  1
 11 12  1  0
 12 17  2  0
 13 12  1  0
 13 14  2  0
 14 15  1  0
 15 16  2  0
 17 16  1  0
 18 25  1  0
 18 10  1  0
 19 18  2  0
 20 21  1  0
 21 22  2  0
 23 21  1  0
 24 23  1  6
 24 26  1  0
 24 25  1  0
 26 28  1  0
 27 26  2  0
M  END
$$$$
