MFN.pdb
     RDKit          3D

 28 28  0  0  1  0  0  0  0  0999 V2000
    7.7976  -20.3940   21.5529 C   0  0  0  0  0  0  0  0  0  0  0  0
    9.0470  -20.4374   20.2488 S   0  0  0  0  0  0  0  0  0  0  0  0
    9.5300  -18.7298   19.8766 C   0  0  0  0  0  0  0  0  0  0  0  0
    8.2635  -17.9149   19.7248 C   0  0  0  0  0  0  0  0  0  0  0  0
    8.5790  -16.4714   19.4000 C   0  0  2  0  0  0  0  0  0  0  0  0
    9.6486  -16.3298   18.4662 N   0  0  0  0  0  0  0  0  0  0  0  0
    8.9421  -15.8138   20.6893 C   0  0  0  0  0  0  0  0  0  0  0  0
   10.1495  -15.6079   21.0060 O   0  0  0  0  0  0  0  0  0  0  0  0
    7.9747  -15.3910   21.6131 N   0  0  0  0  0  0  0  0  0  0  0  0
    8.3387  -14.7725   22.9148 C   0  0  1  0  0  0  0  0  0  0  0  0
    7.1276  -14.0150   23.3178 C   0  0  0  0  0  0  0  0  0  0  0  0
    7.1255  -13.3756   24.6304 C   0  0  0  0  0  0  0  0  0  0  0  0
    7.9569  -12.3181   24.9031 C   0  0  0  0  0  0  0  0  0  0  0  0
    7.9853  -11.6882   26.1372 C   0  0  0  0  0  0  0  0  0  0  0  0
    7.1576  -12.1221   27.1430 C   0  0  0  0  0  0  0  0  0  0  0  0
    6.3132  -13.1746   26.9096 C   0  0  0  0  0  0  0  0  0  0  0  0
    6.2942  -13.7978   25.6678 C   0  0  0  0  0  0  0  0  0  0  0  0
    8.8243  -15.8204   23.8161 C   0  0  0  0  0  0  0  0  0  0  0  0
    8.2367  -16.9611   23.7689 O   0  0  0  0  0  0  0  0  0  0  0  0
   12.3983  -19.5166   25.1929 N   0  0  0  0  0  0  0  0  0  0  0  0
   12.4212  -18.2210   25.7592 C   0  0  0  0  0  0  0  0  0  0  0  0
   12.8512  -18.0673   26.9270 O   0  0  0  0  0  0  0  0  0  0  0  0
   11.9310  -17.0455   24.9534 C   0  0  0  0  0  0  0  0  0  0  0  0
   10.4723  -16.8910   25.3318 C   0  0  2  0  0  0  0  0  0  0  0  0
    9.8901  -15.7099   24.7411 N   0  0  0  0  0  0  0  0  0  0  0  0
   10.2935  -16.8452   26.7976 C   0  0  0  0  0  0  0  0  0  0  0  0
   10.0830  -15.8222   27.4812 O   0  0  0  0  0  0  0  0  0  0  0  0
   10.3656  -18.0683   27.4949 O   0  0  0  0  0  0  0  0  0  0  0  0
  2  1  1  0
  2  3  1  0
  4  3  1  0
  5  4  1  0
  5  6  1  6
  7  5  1  0
  8  7  2  0
  9  7  1  0
 10  9  1  0
 10 11  1  1
 11 12  1  0
 12 17  2  0
 13 12  1  0
 13 14  2  0
 14 15  1  0
 15 16  2  0
 17 16  1  0
 18 25  1  0
 18 10  1  0
 19 18  2  0
 20 21  1  0
 21 22  2  0
 23 21  1  0
 24 23  1  1
 24 26  1  0
 24 25  1  0
 26 28  1  0
 27 26  2  0
M  END
$$$$
