MFN.pdb
     RDKit          3D

 28 28  0  0  1  0  0  0  0  0999 V2000
    8.9272  -11.6114   19.5903 C   0  0  0  0  0  0  0  0  0  0  0  0
    7.7100  -12.5129   18.6056 S   0  0  0  0  0  0  0  0  0  0  0  0
    7.7171  -14.2425   19.1500 C   0  0  0  0  0  0  0  0  0  0  0  0
    8.3757  -14.2947   20.5118 C   0  0  0  0  0  0  0  0  0  0  0  0
    8.4855  -15.7187   21.0106 C   0  0  2  0  0  0  0  0  0  0  0  0
    7.2352  -16.4063   21.0173 N   0  0  0  0  0  0  0  0  0  0  0  0
    9.0293  -15.6437   22.3982 C   0  0  0  0  0  0  0  0  0  0  0  0
   10.2081  -15.2429   22.6224 O   0  0  0  0  0  0  0  0  0  0  0  0
    8.2713  -16.0093   23.5206 N   0  0  0  0  0  0  0  0  0  0  0  0
    8.8069  -15.9142   24.9039 C   0  0  1  0  0  0  0  0  0  0  0  0
    7.6146  -15.6461   25.7463 C   0  0  0  0  0  0  0  0  0  0  0  0
    7.2887  -14.2553   26.0483 C   0  0  0  0  0  0  0  0  0  0  0  0
    8.2456  -13.3909   26.5186 C   0  0  0  0  0  0  0  0  0  0  0  0
    7.9732  -12.0656   26.8190 C   0  0  0  0  0  0  0  0  0  0  0  0
    6.7024  -11.5752   26.6475 C   0  0  0  0  0  0  0  0  0  0  0  0
    5.7200  -12.4068   26.1799 C   0  0  0  0  0  0  0  0  0  0  0  0
    6.0058  -13.7336   25.8822 C   0  0  0  0  0  0  0  0  0  0  0  0
    9.5927  -17.1171   25.1897 C   0  0  0  0  0  0  0  0  0  0  0  0
    9.1141  -18.2433   24.8007 O   0  0  0  0  0  0  0  0  0  0  0  0
   12.3726  -19.1076   23.3272 N   0  0  0  0  0  0  0  0  0  0  0  0
   13.2293  -19.1936   24.4491 C   0  0  0  0  0  0  0  0  0  0  0  0
   14.1572  -20.0370   24.4517 O   0  0  0  0  0  0  0  0  0  0  0  0
   13.0168  -18.2722   25.6227 C   0  0  0  0  0  0  0  0  0  0  0  0
   11.5517  -18.4208   25.9783 C   0  0  2  0  0  0  0  0  0  0  0  0
   10.8425  -17.1702   25.8521 N   0  0  0  0  0  0  0  0  0  0  0  0
   11.3760  -18.9482   27.3472 C   0  0  0  0  0  0  0  0  0  0  0  0
   11.0239  -18.2916   28.3487 O   0  0  0  0  0  0  0  0  0  0  0  0
   11.6274  -20.3209   27.5469 O   0  0  0  0  0  0  0  0  0  0  0  0
  2  1  1  0
  2  3  1  0
  4  3  1  0
  5  4  1  0
  5  6  1  1
  7  5  1  0
  8  7  2  0
  9  7  1  0
 10  9  1  0
 10 11  1  1
 11 12  1  0
 12 17  2  0
 13 12  1  0
 13 14  2  0
 14 15  1  0
 15 16  2  0
 17 16  1  0
 18 25  1  0
 18 10  1  0
 19 18  2  0
 20 21  1  0
 21 22  2  0
 23 21  1  0
 24 23  1  1
 24 26  1  0
 24 25  1  0
 26 28  1  0
 27 26  2  0
M  END
$$$$
