MFN.pdb
     RDKit          3D

 28 28  0  0  1  0  0  0  0  0999 V2000
    7.9829  -12.0014   18.7140 C   0  0  0  0  0  0  0  0  0  0  0  0
    7.8734  -13.2725   17.4348 S   0  0  0  0  0  0  0  0  0  0  0  0
    8.1288  -14.8855   18.2225 C   0  0  0  0  0  0  0  0  0  0  0  0
    8.6554  -14.6382   19.6199 C   0  0  0  0  0  0  0  0  0  0  0  0
    8.8444  -15.9384   20.3699 C   0  0  2  0  0  0  0  0  0  0  0  0
    7.6714  -16.7507   20.3842 N   0  0  0  0  0  0  0  0  0  0  0  0
    9.2248  -15.5738   21.7660 C   0  0  0  0  0  0  0  0  0  0  0  0
   10.3091  -14.9727   22.0171 O   0  0  0  0  0  0  0  0  0  0  0  0
    8.4091  -15.8740   22.8672 N   0  0  0  0  0  0  0  0  0  0  0  0
    8.6784  -15.3308   24.2244 C   0  0  1  0  0  0  0  0  0  0  0  0
    7.3523  -14.8767   24.7127 C   0  0  0  0  0  0  0  0  0  0  0  0
    7.3197  -13.9277   25.8218 C   0  0  0  0  0  0  0  0  0  0  0  0
    7.7277  -14.2958   27.0796 C   0  0  0  0  0  0  0  0  0  0  0  0
    7.7081  -13.4243   28.1569 C   0  0  0  0  0  0  0  0  0  0  0  0
    7.2665  -12.1359   27.9833 C   0  0  0  0  0  0  0  0  0  0  0  0
    6.8512  -11.7307   26.7429 C   0  0  0  0  0  0  0  0  0  0  0  0
    6.8758  -12.6142   25.6707 C   0  0  0  0  0  0  0  0  0  0  0  0
    9.3872  -16.3462   25.0072 C   0  0  0  0  0  0  0  0  0  0  0  0
    8.9011  -17.5347   25.0139 O   0  0  0  0  0  0  0  0  0  0  0  0
   12.6481  -17.8120   23.8363 N   0  0  0  0  0  0  0  0  0  0  0  0
   12.9919  -16.8691   24.8326 C   0  0  0  0  0  0  0  0  0  0  0  0
   13.5114  -15.7789   24.4952 O   0  0  0  0  0  0  0  0  0  0  0  0
   12.7288  -17.1859   26.2824 C   0  0  0  0  0  0  0  0  0  0  0  0
   11.2209  -17.2761   26.3973 C   0  0  2  0  0  0  0  0  0  0  0  0
   10.5695  -16.1558   25.7619 N   0  0  0  0  0  0  0  0  0  0  0  0
   10.7877  -17.3600   27.8073 C   0  0  0  0  0  0  0  0  0  0  0  0
   11.1205  -18.2399   28.6277 O   0  0  0  0  0  0  0  0  0  0  0  0
    9.9175  -16.3546   28.2757 O   0  0  0  0  0  0  0  0  0  0  0  0
  2  1  1  0
  2  3  1  0
  4  3  1  0
  5  4  1  0
  5  6  1  1
  7  5  1  0
  8  7  2  0
  9  7  1  0
 10  9  1  0
 10 11  1  1
 11 12  1  0
 12 17  2  0
 13 12  1  0
 13 14  2  0
 14 15  1  0
 15 16  2  0
 17 16  1  0
 18 25  1  0
 18 10  1  0
 19 18  2  0
 20 21  1  0
 21 22  2  0
 23 21  1  0
 24 23  1  1
 24 26  1  0
 24 25  1  0
 26 28  1  0
 27 26  2  0
M  END
$$$$
