MMS.pdb
     RDKit          3D

 23 22  0  0  1  0  0  0  0  0999 V2000
    7.4528  -11.6746   19.3432 C   0  0  0  0  0  0  0  0  0  0  0  0
    7.6634  -12.9863   18.1014 S   0  0  0  0  0  0  0  0  0  0  0  0
    7.8811  -14.5765   18.9399 C   0  0  0  0  0  0  0  0  0  0  0  0
    8.6424  -14.4364   20.2371 C   0  0  0  0  0  0  0  0  0  0  0  0
    8.7382  -15.7121   21.0075 C   0  0  2  0  0  0  0  0  0  0  0  0
    7.4953  -16.4326   21.0383 N   0  0  0  0  0  0  0  0  0  0  0  0
    9.1505  -15.3771   22.3950 C   0  0  0  0  0  0  0  0  0  0  0  0
   10.3658  -15.1087   22.6415 O   0  0  0  0  0  0  0  0  0  0  0  0
    6.2531  -11.4166   26.7282 C   0  0  0  0  0  0  0  0  0  0  0  0
    6.8478  -12.7681   27.7671 S   0  0  0  0  0  0  0  0  0  0  0  0
    8.0032  -13.8028   26.8436 C   0  0  0  0  0  0  0  0  0  0  0  0
    7.4360  -14.2019   25.4755 C   0  0  0  0  0  0  0  0  0  0  0  0
    8.5323  -14.9900   24.7887 C   0  0  2  0  0  0  0  0  0  0  0  0
    8.1903  -15.3560   23.4480 N   0  0  0  0  0  0  0  0  0  0  0  0
    8.9577  -16.1588   25.6104 C   0  0  0  0  0  0  0  0  0  0  0  0
    8.0845  -16.9747   25.9800 O   0  0  0  0  0  0  0  0  0  0  0  0
   13.0235  -16.7748   26.5583 O   0  0  0  0  0  0  0  0  0  0  0  0
   12.1851  -17.8620   26.3169 C   0  0  0  0  0  0  0  0  0  0  0  0
   10.7552  -17.5309   26.7322 C   0  0  2  0  0  0  0  0  0  0  0  0
   10.2973  -16.3853   25.9880 N   0  0  0  0  0  0  0  0  0  0  0  0
   10.6549  -17.3459   28.1894 C   0  0  0  0  0  0  0  0  0  0  0  0
   11.0127  -18.3390   29.0908 O   0  0  0  0  0  0  0  0  0  0  0  0
   10.2334  -16.2604   28.6667 O   0  0  0  0  0  0  0  0  0  0  0  0
  1  2  1  0
  2  3  1  0
  4  5  1  0
  4  3  1  0
  5  7  1  0
  5  6  1  1
  7  8  2  0
  9 10  1  0
 10 11  1  0
 11 12  1  0
 13 12  1  1
 13 15  1  0
 14  7  1  0
 14 13  1  0
 15 20  1  0
 16 15  2  0
 18 17  1  0
 19 18  1  1
 20 19  1  0
 21 19  1  0
 22 21  1  0
 23 21  2  0
M  END
$$$$
