MMS.pdb
     RDKit          3D

 23 22  0  0  1  0  0  0  0  0999 V2000
    8.5275  -11.3522   19.6756 C   0  0  0  0  0  0  0  0  0  0  0  0
    7.4924  -12.6059   18.8609 S   0  0  0  0  0  0  0  0  0  0  0  0
    7.4080  -14.0838   19.9038 C   0  0  0  0  0  0  0  0  0  0  0  0
    8.6436  -14.9431   19.7743 C   0  0  0  0  0  0  0  0  0  0  0  0
    8.6320  -16.1353   20.6737 C   0  0  2  0  0  0  0  0  0  0  0  0
    7.3719  -16.8259   20.6579 N   0  0  0  0  0  0  0  0  0  0  0  0
    8.9231  -15.6683   22.0537 C   0  0  0  0  0  0  0  0  0  0  0  0
   10.1038  -15.3223   22.3635 O   0  0  0  0  0  0  0  0  0  0  0  0
    7.0559  -11.1241   27.1025 C   0  0  0  0  0  0  0  0  0  0  0  0
    6.3266  -12.7756   27.1159 S   0  0  0  0  0  0  0  0  0  0  0  0
    7.4570  -13.9629   26.3604 C   0  0  0  0  0  0  0  0  0  0  0  0
    7.0249  -14.3268   24.9344 C   0  0  0  0  0  0  0  0  0  0  0  0
    8.1283  -15.2047   24.3807 C   0  0  2  0  0  0  0  0  0  0  0  0
    7.8856  -15.6074   23.0290 N   0  0  0  0  0  0  0  0  0  0  0  0
    8.4072  -16.3596   25.2810 C   0  0  0  0  0  0  0  0  0  0  0  0
    7.4383  -16.9501   25.8075 O   0  0  0  0  0  0  0  0  0  0  0  0
   12.1978  -18.1300   25.3653 O   0  0  0  0  0  0  0  0  0  0  0  0
   11.0250  -18.8465   25.5987 C   0  0  0  0  0  0  0  0  0  0  0  0
   10.0173  -17.9828   26.3508 C   0  0  2  0  0  0  0  0  0  0  0  0
    9.7113  -16.8153   25.5641 N   0  0  0  0  0  0  0  0  0  0  0  0
   10.5035  -17.6537   27.7010 C   0  0  0  0  0  0  0  0  0  0  0  0
   10.6639  -16.3449   28.1343 O   0  0  0  0  0  0  0  0  0  0  0  0
   10.7929  -18.5688   28.5151 O   0  0  0  0  0  0  0  0  0  0  0  0
  1  2  1  0
  2  3  1  0
  4  5  1  0
  4  3  1  0
  5  7  1  0
  5  6  1  1
  7  8  2  0
  9 10  1  0
 10 11  1  0
 11 12  1  0
 13 12  1  1
 13 15  1  0
 14  7  1  0
 14 13  1  0
 15 20  1  0
 16 15  2  0
 18 17  1  0
 19 18  1  6
 20 19  1  0
 21 19  1  0
 22 21  1  0
 23 21  2  0
M  END
$$$$
