MMS.pdb
     RDKit          3D

 23 22  0  0  1  0  0  0  0  0999 V2000
    6.4103  -11.7681   26.2786 C   0  0  0  0  0  0  0  0  0  0  0  0
    7.2231  -12.8450   27.4978 S   0  0  0  0  0  0  0  0  0  0  0  0
    7.4761  -14.4857   26.7743 C   0  0  0  0  0  0  0  0  0  0  0  0
    6.2751  -14.9510   25.9850 C   0  0  0  0  0  0  0  0  0  0  0  0
    6.4262  -16.3321   25.4373 C   0  0  2  0  0  0  0  0  0  0  0  0
    6.6822  -17.3068   26.4616 N   0  0  0  0  0  0  0  0  0  0  0  0
    7.5563  -16.3192   24.4728 C   0  0  0  0  0  0  0  0  0  0  0  0
    8.5212  -17.1287   24.6254 O   0  0  0  0  0  0  0  0  0  0  0  0
    8.5473  -12.0626   19.3039 C   0  0  0  0  0  0  0  0  0  0  0  0
    6.9742  -12.8928   19.6130 S   0  0  0  0  0  0  0  0  0  0  0  0
    7.2134  -14.2832   20.7390 C   0  0  0  0  0  0  0  0  0  0  0  0
    8.5412  -14.1734   21.4991 C   0  0  0  0  0  0  0  0  0  0  0  0
    8.6033  -15.3910   22.3983 C   0  0  2  0  0  0  0  0  0  0  0  0
    7.5622  -15.4041   23.3803 N   0  0  0  0  0  0  0  0  0  0  0  0
    9.9581  -15.5551   22.9980 C   0  0  0  0  0  0  0  0  0  0  0  0
   10.3222  -14.7411   23.8752 O   0  0  0  0  0  0  0  0  0  0  0  0
   11.7930  -19.0237   23.0701 O   0  0  0  0  0  0  0  0  0  0  0  0
   12.4642  -17.9975   23.7332 C   0  0  0  0  0  0  0  0  0  0  0  0
   12.2246  -16.6659   23.0287 C   0  0  2  0  0  0  0  0  0  0  0  0
   10.8449  -16.5850   22.6218 N   0  0  0  0  0  0  0  0  0  0  0  0
   13.1644  -16.4802   21.9106 C   0  0  0  0  0  0  0  0  0  0  0  0
   14.5411  -16.5201   22.0828 O   0  0  0  0  0  0  0  0  0  0  0  0
   12.7360  -16.2761   20.7450 O   0  0  0  0  0  0  0  0  0  0  0  0
  1  2  1  0
  2  3  1  0
  4  5  1  0
  4  3  1  0
  5  7  1  0
  5  6  1  1
  7  8  2  0
  9 10  1  0
 10 11  1  0
 11 12  1  0
 13 12  1  1
 13 15  1  0
 14  7  1  0
 14 13  1  0
 15 20  1  0
 16 15  2  0
 18 17  1  0
 19 18  1  6
 20 19  1  0
 21 19  1  0
 22 21  1  0
 23 21  2  0
M  END
$$$$
