MMS.pdb
     RDKit          3D

 23 22  0  0  1  0  0  0  0  0999 V2000
    7.9887  -11.4801   19.6274 C   0  0  0  0  0  0  0  0  0  0  0  0
    7.9632  -12.8118   18.3894 S   0  0  0  0  0  0  0  0  0  0  0  0
    7.8944  -14.4131   19.2324 C   0  0  0  0  0  0  0  0  0  0  0  0
    8.7311  -14.4305   20.4900 C   0  0  0  0  0  0  0  0  0  0  0  0
    8.6828  -15.7355   21.2145 C   0  0  2  0  0  0  0  0  0  0  0  0
    7.3645  -16.3069   21.2344 N   0  0  0  0  0  0  0  0  0  0  0  0
    9.1416  -15.5008   22.6080 C   0  0  0  0  0  0  0  0  0  0  0  0
   10.3628  -15.2389   22.8312 O   0  0  0  0  0  0  0  0  0  0  0  0
    5.5674  -12.6831   27.0138 C   0  0  0  0  0  0  0  0  0  0  0  0
    6.8889  -11.8522   26.1068 S   0  0  0  0  0  0  0  0  0  0  0  0
    7.9551  -13.0681   25.3048 C   0  0  0  0  0  0  0  0  0  0  0  0
    7.6892  -14.4855   25.8273 C   0  0  0  0  0  0  0  0  0  0  0  0
    8.6244  -15.3921   25.0538 C   0  0  2  0  0  0  0  0  0  0  0  0
    8.2194  -15.5685   23.6925 N   0  0  0  0  0  0  0  0  0  0  0  0
    8.8339  -16.6875   25.7612 C   0  0  0  0  0  0  0  0  0  0  0  0
    7.8475  -17.4376   25.9320 O   0  0  0  0  0  0  0  0  0  0  0  0
   12.2903  -18.6924   25.6268 O   0  0  0  0  0  0  0  0  0  0  0  0
   11.1090  -19.2912   26.0616 C   0  0  0  0  0  0  0  0  0  0  0  0
   10.3280  -18.3339   26.9565 C   0  0  2  0  0  0  0  0  0  0  0  0
   10.0915  -17.1040   26.2444 N   0  0  0  0  0  0  0  0  0  0  0  0
   11.0152  -18.1295   28.2424 C   0  0  0  0  0  0  0  0  0  0  0  0
   11.3617  -16.8684   28.7074 O   0  0  0  0  0  0  0  0  0  0  0  0
   11.3131  -19.1126   28.9694 O   0  0  0  0  0  0  0  0  0  0  0  0
  1  2  1  0
  2  3  1  0
  4  5  1  0
  4  3  1  0
  5  7  1  0
  5  6  1  1
  7  8  2  0
  9 10  1  0
 10 11  1  0
 11 12  1  0
 13 12  1  1
 13 15  1  0
 14  7  1  0
 14 13  1  0
 15 20  1  0
 16 15  2  0
 18 17  1  0
 19 18  1  6
 20 19  1  0
 21 19  1  0
 22 21  1  0
 23 21  2  0
M  END
$$$$
