MMS.pdb
     RDKit          3D

 23 22  0  0  1  0  0  0  0  0999 V2000
    9.4312  -12.1265   19.4967 C   0  0  0  0  0  0  0  0  0  0  0  0
    7.6816  -12.5754   19.2855 S   0  0  0  0  0  0  0  0  0  0  0  0
    7.5129  -14.3773   19.3498 C   0  0  0  0  0  0  0  0  0  0  0  0
    8.7965  -15.0544   19.7689 C   0  0  0  0  0  0  0  0  0  0  0  0
    8.5832  -16.2013   20.7014 C   0  0  2  0  0  0  0  0  0  0  0  0
    7.2227  -16.6637   20.7048 N   0  0  0  0  0  0  0  0  0  0  0  0
    8.9570  -15.7535   22.0679 C   0  0  0  0  0  0  0  0  0  0  0  0
   10.1634  -15.4541   22.3224 O   0  0  0  0  0  0  0  0  0  0  0  0
    6.0329  -11.5094   25.9709 C   0  0  0  0  0  0  0  0  0  0  0  0
    6.6687  -12.6925   27.1773 S   0  0  0  0  0  0  0  0  0  0  0  0
    7.7706  -13.8736   26.3716 C   0  0  0  0  0  0  0  0  0  0  0  0
    7.2613  -14.2624   24.9780 C   0  0  0  0  0  0  0  0  0  0  0  0
    8.2843  -15.2308   24.4207 C   0  0  2  0  0  0  0  0  0  0  0  0
    7.9701  -15.6593   23.0918 N   0  0  0  0  0  0  0  0  0  0  0  0
    8.5148  -16.3726   25.3509 C   0  0  0  0  0  0  0  0  0  0  0  0
    7.5210  -16.9999   25.7796 O   0  0  0  0  0  0  0  0  0  0  0  0
   12.1981  -18.2004   25.5502 O   0  0  0  0  0  0  0  0  0  0  0  0
   11.0191  -18.8625   25.8891 C   0  0  0  0  0  0  0  0  0  0  0  0
   10.0672  -17.9137   26.6107 C   0  0  2  0  0  0  0  0  0  0  0  0
    9.8001  -16.7764   25.7675 N   0  0  0  0  0  0  0  0  0  0  0  0
   10.5944  -17.5367   27.9326 C   0  0  0  0  0  0  0  0  0  0  0  0
   10.8255  -16.2158   28.2912 O   0  0  0  0  0  0  0  0  0  0  0  0
   10.8552  -18.4198   28.7905 O   0  0  0  0  0  0  0  0  0  0  0  0
  1  2  1  0
  2  3  1  0
  4  5  1  0
  4  3  1  0
  5  7  1  0
  5  6  1  1
  7  8  2  0
  9 10  1  0
 10 11  1  0
 11 12  1  0
 13 12  1  1
 13 15  1  0
 14  7  1  0
 14 13  1  0
 15 20  1  0
 16 15  2  0
 18 17  1  0
 19 18  1  6
 20 19  1  0
 21 19  1  0
 22 21  1  0
 23 21  2  0
M  END
$$$$
