YTG.pdb
     RDKit          3D

 24 24  0  0  1  0  0  0  0  0999 V2000
   29.1073  -18.5404   -4.2053 O   0  0  0  0  0  0  0  0  0  0  0  0
   28.6067  -19.0204   -5.4262 C   0  0  0  0  0  0  0  0  0  0  0  0
   27.8451  -18.2234   -6.2549 C   0  0  0  0  0  0  0  0  0  0  0  0
   27.3392  -18.6596   -7.4555 C   0  0  0  0  0  0  0  0  0  0  0  0
   27.5894  -19.9516   -7.8766 C   0  0  0  0  0  0  0  0  0  0  0  0
   27.0467  -20.4950   -9.1387 C   0  0  0  0  0  0  0  0  0  0  0  0
   25.5657  -20.4694   -9.1586 C   0  0  2  0  0  0  0  0  0  0  0  0
   25.1347  -21.4352   -8.1106 N   0  0  0  0  0  0  0  0  0  0  0  0
   24.9023  -20.8942  -10.4002 C   0  0  0  0  0  0  0  0  0  0  0  0
   24.7714  -22.1445  -10.6071 O   0  0  0  0  0  0  0  0  0  0  0  0
   28.3439  -20.7573   -7.0671 C   0  0  0  0  0  0  0  0  0  0  0  0
   28.8436  -20.3041   -5.8658 C   0  0  0  0  0  0  0  0  0  0  0  0
   21.9326  -21.7329  -11.2358 C   0  0  0  0  0  0  0  0  0  0  0  0
   22.1464  -20.6387  -12.2543 C   0  0  1  0  0  0  0  0  0  0  0  0
   21.4768  -19.5030  -11.8141 O   0  0  0  0  0  0  0  0  0  0  0  0
   23.5893  -20.4003  -12.5264 C   0  0  2  0  0  0  0  0  0  0  0  0
   24.3828  -20.0236  -11.4022 N   0  0  0  0  0  0  0  0  0  0  0  0
   23.8371  -19.5500  -13.7355 C   0  0  0  0  0  0  0  0  0  0  0  0
   23.9039  -18.3118  -13.5580 O   0  0  0  0  0  0  0  0  0  0  0  0
   23.9911  -20.0890  -15.0193 N   0  0  0  0  0  0  0  0  0  0  0  0
   24.3522  -19.1666  -16.0991 C   0  0  0  0  0  0  0  0  0  0  0  0
   23.1616  -18.8283  -16.9202 C   0  0  0  0  0  0  0  0  0  0  0  0
   22.0318  -19.2166  -16.5470 O   0  0  0  0  0  0  0  0  0  0  0  0
   23.3173  -18.0961  -18.0740 O   0  0  0  0  0  0  0  0  0  0  0  0
  2 12  2  0
  2  1  1  0
  3  2  1  0
  4  5  1  0
  4  3  2  0
  5 11  2  0
  6  5  1  0
  7  8  1  1
  7  6  1  0
  9  7  1  0
 10  9  2  0
 11 12  1  0
 14 13  1  1
 15 14  1  0
 16 17  1  1
 16 14  1  0
 17  9  1  0
 18 16  1  0
 19 18  2  0
 20 18  1  0
 21 20  1  0
 22 24  1  0
 22 21  1  0
 23 22  2  0
M  END
$$$$
