YTG.pdb
     RDKit          3D

 24 24  0  0  1  0  0  0  0  0999 V2000
   23.0937  -21.4425   -5.3954 O   0  0  0  0  0  0  0  0  0  0  0  0
   23.7567  -21.0564   -6.5715 C   0  0  0  0  0  0  0  0  0  0  0  0
   25.0170  -20.4975   -6.5368 C   0  0  0  0  0  0  0  0  0  0  0  0
   25.6948  -20.1081   -7.6666 C   0  0  0  0  0  0  0  0  0  0  0  0
   25.1105  -20.2725   -8.9079 C   0  0  0  0  0  0  0  0  0  0  0  0
   25.7689  -19.8434  -10.1590 C   0  0  0  0  0  0  0  0  0  0  0  0
   25.7710  -20.9185  -11.1780 C   0  0  2  0  0  0  0  0  0  0  0  0
   26.8145  -21.8851  -10.7378 N   0  0  0  0  0  0  0  0  0  0  0  0
   26.1227  -20.5398  -12.5546 C   0  0  0  0  0  0  0  0  0  0  0  0
   27.2306  -19.9392  -12.7419 O   0  0  0  0  0  0  0  0  0  0  0  0
   23.8598  -20.8259   -8.9620 C   0  0  0  0  0  0  0  0  0  0  0  0
   23.1937  -21.2109   -7.8190 C   0  0  0  0  0  0  0  0  0  0  0  0
   27.4538  -21.7741  -15.4530 C   0  0  0  0  0  0  0  0  0  0  0  0
   26.1879  -21.1584  -15.9995 C   0  0  1  0  0  0  0  0  0  0  0  0
   25.3588  -22.1875  -16.4301 O   0  0  0  0  0  0  0  0  0  0  0  0
   25.5358  -20.2520  -15.0166 C   0  0  2  0  0  0  0  0  0  0  0  0
   25.3292  -20.7908  -13.7118 N   0  0  0  0  0  0  0  0  0  0  0  0
   24.3310  -19.5467  -15.5617 C   0  0  0  0  0  0  0  0  0  0  0  0
   23.2307  -19.7918  -15.0152 O   0  0  0  0  0  0  0  0  0  0  0  0
   24.4025  -18.6478  -16.6337 N   0  0  0  0  0  0  0  0  0  0  0  0
   23.1556  -18.0083  -17.0620 C   0  0  0  0  0  0  0  0  0  0  0  0
   22.6901  -18.5779  -18.3523 C   0  0  0  0  0  0  0  0  0  0  0  0
   22.4425  -19.8025  -18.4255 O   0  0  0  0  0  0  0  0  0  0  0  0
   22.5384  -17.7546  -19.4435 O   0  0  0  0  0  0  0  0  0  0  0  0
  2 12  2  0
  2  1  1  0
  3  2  1  0
  4  5  1  0
  4  3  2  0
  5 11  2  0
  6  5  1  0
  7  8  1  1
  7  6  1  0
  9  7  1  0
 10  9  2  0
 11 12  1  0
 14 13  1  1
 15 14  1  0
 16 17  1  1
 16 14  1  0
 17  9  1  0
 18 16  1  0
 19 18  2  0
 20 18  1  0
 21 20  1  0
 22 24  1  0
 22 21  1  0
 23 22  2  0
M  END
$$$$
