YTG.pdb
     RDKit          3D

 24 24  0  0  1  0  0  0  0  0999 V2000
   19.5027  -23.2139   -6.6209 O   0  0  0  0  0  0  0  0  0  0  0  0
   20.3717  -22.4761   -7.4407 C   0  0  0  0  0  0  0  0  0  0  0  0
   21.6617  -22.1883   -7.0468 C   0  0  0  0  0  0  0  0  0  0  0  0
   22.5387  -21.4694   -7.8226 C   0  0  0  0  0  0  0  0  0  0  0  0
   22.1361  -21.0010   -9.0586 C   0  0  0  0  0  0  0  0  0  0  0  0
   23.0163  -20.1925   -9.9271 C   0  0  0  0  0  0  0  0  0  0  0  0
   24.3229  -20.8521  -10.1552 C   0  0  2  0  0  0  0  0  0  0  0  0
   25.1514  -20.5219   -8.9629 N   0  0  0  0  0  0  0  0  0  0  0  0
   25.1014  -20.4162  -11.3240 C   0  0  0  0  0  0  0  0  0  0  0  0
   25.9746  -19.5048  -11.1512 O   0  0  0  0  0  0  0  0  0  0  0  0
   20.8590  -21.2772   -9.4665 C   0  0  0  0  0  0  0  0  0  0  0  0
   19.9920  -21.9996   -8.6760 C   0  0  0  0  0  0  0  0  0  0  0  0
   27.7323  -21.6357  -13.2519 C   0  0  0  0  0  0  0  0  0  0  0  0
   26.7404  -21.2800  -14.3335 C   0  0  1  0  0  0  0  0  0  0  0  0
   26.3110  -22.4598  -14.9298 O   0  0  0  0  0  0  0  0  0  0  0  0
   25.6239  -20.4437  -13.8171 C   0  0  2  0  0  0  0  0  0  0  0  0
   24.9687  -20.9304  -12.6469 N   0  0  0  0  0  0  0  0  0  0  0  0
   24.6713  -19.9938  -14.8831 C   0  0  0  0  0  0  0  0  0  0  0  0
   23.5689  -20.5850  -14.9494 O   0  0  0  0  0  0  0  0  0  0  0  0
   24.9738  -18.9606  -15.7794 N   0  0  0  0  0  0  0  0  0  0  0  0
   23.9391  -18.5810  -16.7451 C   0  0  0  0  0  0  0  0  0  0  0  0
   24.4133  -18.8003  -18.1355 C   0  0  0  0  0  0  0  0  0  0  0  0
   25.4711  -19.4415  -18.3261 O   0  0  0  0  0  0  0  0  0  0  0  0
   23.6860  -18.2978  -19.1890 O   0  0  0  0  0  0  0  0  0  0  0  0
  2 12  2  0
  2  1  1  0
  3  2  1  0
  4  5  1  0
  4  3  2  0
  5 11  2  0
  6  5  1  0
  7  8  1  1
  7  6  1  0
  9  7  1  0
 10  9  2  0
 11 12  1  0
 14 13  1  1
 15 14  1  0
 16 17  1  1
 16 14  1  0
 17  9  1  0
 18 16  1  0
 19 18  2  0
 20 18  1  0
 21 20  1  0
 22 24  1  0
 22 21  1  0
 23 22  2  0
M  END
$$$$
