YTG.pdb
     RDKit          3D

 24 24  0  0  1  0  0  0  0  0999 V2000
   21.8587  -21.9773   -6.2700 O   0  0  0  0  0  0  0  0  0  0  0  0
   22.7818  -21.5061   -7.2175 C   0  0  0  0  0  0  0  0  0  0  0  0
   24.0548  -21.1210   -6.8523 C   0  0  0  0  0  0  0  0  0  0  0  0
   24.9831  -20.6554   -7.7517 C   0  0  0  0  0  0  0  0  0  0  0  0
   24.6531  -20.5583   -9.0900 C   0  0  0  0  0  0  0  0  0  0  0  0
   25.5911  -20.0332  -10.1035 C   0  0  0  0  0  0  0  0  0  0  0  0
   25.5057  -20.7858  -11.3765 C   0  0  2  0  0  0  0  0  0  0  0  0
   26.1422  -22.1043  -11.1054 N   0  0  0  0  0  0  0  0  0  0  0  0
   26.2117  -20.2250  -12.5380 C   0  0  0  0  0  0  0  0  0  0  0  0
   27.2662  -19.5437  -12.3215 O   0  0  0  0  0  0  0  0  0  0  0  0
   23.3940  -20.9364   -9.4712 C   0  0  0  0  0  0  0  0  0  0  0  0
   22.4748  -21.4011   -8.5561 C   0  0  0  0  0  0  0  0  0  0  0  0
   28.4249  -21.2149  -14.8773 C   0  0  0  0  0  0  0  0  0  0  0  0
   27.4048  -20.5724  -15.7867 C   0  0  1  0  0  0  0  0  0  0  0  0
   26.8152  -21.5740  -16.5489 O   0  0  0  0  0  0  0  0  0  0  0  0
   26.4193  -19.7522  -15.0325 C   0  0  2  0  0  0  0  0  0  0  0  0
   25.8207  -20.3804  -13.9000 N   0  0  0  0  0  0  0  0  0  0  0  0
   25.4282  -19.0510  -15.9112 C   0  0  0  0  0  0  0  0  0  0  0  0
   24.2144  -19.2502  -15.6741 O   0  0  0  0  0  0  0  0  0  0  0  0
   25.8135  -18.2043  -16.9587 N   0  0  0  0  0  0  0  0  0  0  0  0
   24.7515  -17.5010  -17.6828 C   0  0  0  0  0  0  0  0  0  0  0  0
   24.1690  -18.3716  -18.7359 C   0  0  0  0  0  0  0  0  0  0  0  0
   23.2822  -19.1978  -18.4238 O   0  0  0  0  0  0  0  0  0  0  0  0
   24.6108  -18.2578  -20.0332 O   0  0  0  0  0  0  0  0  0  0  0  0
  2 12  2  0
  2  1  1  0
  3  2  1  0
  4  5  1  0
  4  3  2  0
  5 11  2  0
  6  5  1  0
  7  8  1  1
  7  6  1  0
  9  7  1  0
 10  9  2  0
 11 12  1  0
 14 13  1  1
 15 14  1  0
 16 17  1  1
 16 14  1  0
 17  9  1  0
 18 16  1  0
 19 18  2  0
 20 18  1  0
 21 20  1  0
 22 24  1  0
 22 21  1  0
 23 22  2  0
M  END
$$$$
