YTG.pdb
     RDKit          3D

 24 24  0  0  1  0  0  0  0  0999 V2000
   26.7483  -17.7300  -15.5035 O   0  0  0  0  0  0  0  0  0  0  0  0
   26.2611  -16.4475  -15.8031 C   0  0  0  0  0  0  0  0  0  0  0  0
   25.8619  -15.5790  -14.8089 C   0  0  0  0  0  0  0  0  0  0  0  0
   25.3806  -14.3180  -15.0653 C   0  0  0  0  0  0  0  0  0  0  0  0
   25.2811  -13.8737  -16.3698 C   0  0  0  0  0  0  0  0  0  0  0  0
   24.7397  -12.5437  -16.7171 C   0  0  0  0  0  0  0  0  0  0  0  0
   23.2605  -12.5136  -16.6425 C   0  0  2  0  0  0  0  0  0  0  0  0
   22.7851  -13.3287  -17.7943 N   0  0  0  0  0  0  0  0  0  0  0  0
   22.6069  -11.2031  -16.7749 C   0  0  0  0  0  0  0  0  0  0  0  0
   22.5972  -10.6566  -17.9257 O   0  0  0  0  0  0  0  0  0  0  0  0
   25.6730  -14.7220  -17.3700 C   0  0  0  0  0  0  0  0  0  0  0  0
   26.1535  -15.9838  -17.0955 C   0  0  0  0  0  0  0  0  0  0  0  0
   19.3633   -9.7986  -14.4356 C   0  0  0  0  0  0  0  0  0  0  0  0
   19.8558   -9.2078  -15.7351 C   0  0  1  0  0  0  0  0  0  0  0  0
   19.2987   -7.9418  -15.8718 O   0  0  0  0  0  0  0  0  0  0  0  0
   21.3407   -9.2079  -15.8237 C   0  0  2  0  0  0  0  0  0  0  0  0
   21.9723  -10.4831  -15.7210 N   0  0  0  0  0  0  0  0  0  0  0  0
   21.9902   -8.1573  -14.9748 C   0  0  0  0  0  0  0  0  0  0  0  0
   22.3941   -8.5085  -13.8422 O   0  0  0  0  0  0  0  0  0  0  0  0
   22.1521   -6.8334  -15.4033 N   0  0  0  0  0  0  0  0  0  0  0  0
   22.7985   -5.8993  -14.4779 C   0  0  0  0  0  0  0  0  0  0  0  0
   21.7961   -4.9923  -13.8625 C   0  0  0  0  0  0  0  0  0  0  0  0
   20.5832   -5.1540  -14.1256 O   0  0  0  0  0  0  0  0  0  0  0  0
   22.2135   -3.9921  -13.0160 O   0  0  0  0  0  0  0  0  0  0  0  0
  2 12  2  0
  2  1  1  0
  3  2  1  0
  4  5  1  0
  4  3  2  0
  5 11  2  0
  6  5  1  0
  7  8  1  6
  7  6  1  0
  9  7  1  0
 10  9  2  0
 11 12  1  0
 14 13  1  1
 15 14  1  0
 16 17  1  1
 16 14  1  0
 17  9  1  0
 18 16  1  0
 19 18  2  0
 20 18  1  0
 21 20  1  0
 22 24  1  0
 22 21  1  0
 23 22  2  0
M  END
$$$$
