YTG.pdb
     RDKit          3D

 24 24  0  0  1  0  0  0  0  0999 V2000
   20.4639  -22.5507   -6.8056 O   0  0  0  0  0  0  0  0  0  0  0  0
   21.3620  -21.8944   -7.6626 C   0  0  0  0  0  0  0  0  0  0  0  0
   21.1432  -21.8318   -9.0229 C   0  0  0  0  0  0  0  0  0  0  0  0
   21.9999  -21.1988   -9.8906 C   0  0  0  0  0  0  0  0  0  0  0  0
   23.1407  -20.5886   -9.4054 C   0  0  0  0  0  0  0  0  0  0  0  0
   24.1212  -19.9217  -10.2867 C   0  0  0  0  0  0  0  0  0  0  0  0
   24.7936  -20.8832  -11.1909 C   0  0  2  0  0  0  0  0  0  0  0  0
   25.7932  -21.5943  -10.3470 N   0  0  0  0  0  0  0  0  0  0  0  0
   25.5434  -20.3268  -12.3269 C   0  0  0  0  0  0  0  0  0  0  0  0
   26.3180  -19.3404  -12.1027 O   0  0  0  0  0  0  0  0  0  0  0  0
   23.3744  -20.6403   -8.0577 C   0  0  0  0  0  0  0  0  0  0  0  0
   22.5048  -21.2795   -7.2012 C   0  0  0  0  0  0  0  0  0  0  0  0
   28.4194  -21.1294  -13.8397 C   0  0  0  0  0  0  0  0  0  0  0  0
   27.5174  -21.0678  -15.0492 C   0  0  1  0  0  0  0  0  0  0  0  0
   27.3021  -22.3671  -15.4933 O   0  0  0  0  0  0  0  0  0  0  0  0
   26.2579  -20.3265  -14.7719 C   0  0  2  0  0  0  0  0  0  0  0  0
   25.4845  -20.7995  -13.6703 N   0  0  0  0  0  0  0  0  0  0  0  0
   25.4380  -20.0612  -15.9982 C   0  0  0  0  0  0  0  0  0  0  0  0
   24.2000  -20.2272  -15.9036 O   0  0  0  0  0  0  0  0  0  0  0  0
   26.0043  -19.6449  -17.2101 N   0  0  0  0  0  0  0  0  0  0  0  0
   25.0939  -19.4057  -18.3330 C   0  0  0  0  0  0  0  0  0  0  0  0
   25.5539  -18.2497  -19.1443 C   0  0  0  0  0  0  0  0  0  0  0  0
   26.5626  -17.6072  -18.7752 O   0  0  0  0  0  0  0  0  0  0  0  0
   24.8676  -17.9036  -20.2847 O   0  0  0  0  0  0  0  0  0  0  0  0
  2 12  2  0
  2  1  1  0
  3  2  1  0
  4  5  1  0
  4  3  2  0
  5 11  2  0
  6  5  1  0
  7  8  1  1
  7  6  1  0
  9  7  1  0
 10  9  2  0
 11 12  1  0
 14 13  1  1
 15 14  1  0
 16 17  1  1
 16 14  1  0
 17  9  1  0
 18 16  1  0
 19 18  2  0
 20 18  1  0
 21 20  1  0
 22 24  1  0
 22 21  1  0
 23 22  2  0
M  END
$$$$
