YTG.pdb
     RDKit          3D

 24 24  0  0  1  0  0  0  0  0999 V2000
    9.6841  -12.7077  -10.3086 O   0  0  0  0  0  0  0  0  0  0  0  0
   10.8021  -12.1325  -10.9339 C   0  0  0  0  0  0  0  0  0  0  0  0
   11.1325  -10.8076  -10.7402 C   0  0  0  0  0  0  0  0  0  0  0  0
   12.2181  -10.2120  -11.3354 C   0  0  0  0  0  0  0  0  0  0  0  0
   13.0334  -10.9508  -12.1713 C   0  0  0  0  0  0  0  0  0  0  0  0
   14.1952  -10.3639  -12.8702 C   0  0  0  0  0  0  0  0  0  0  0  0
   13.7822   -9.5332  -14.0250 C   0  0  2  0  0  0  0  0  0  0  0  0
   13.3278  -10.4945  -15.0673 N   0  0  0  0  0  0  0  0  0  0  0  0
   14.8164   -8.7035  -14.6608 C   0  0  0  0  0  0  0  0  0  0  0  0
   15.4280   -9.1844  -15.6697 O   0  0  0  0  0  0  0  0  0  0  0  0
   12.7211  -12.2678  -12.3752 C   0  0  0  0  0  0  0  0  0  0  0  0
   11.6284  -12.8497  -11.7705 C   0  0  0  0  0  0  0  0  0  0  0  0
   16.9275   -4.3391  -15.6786 C   0  0  0  0  0  0  0  0  0  0  0  0
   15.8720   -5.1155  -14.9279 C   0  0  1  0  0  0  0  0  0  0  0  0
   14.6417   -4.8527  -15.5187 O   0  0  0  0  0  0  0  0  0  0  0  0
   16.1897   -6.5669  -14.8549 C   0  0  2  0  0  0  0  0  0  0  0  0
   15.1976   -7.3934  -14.2483 N   0  0  0  0  0  0  0  0  0  0  0  0
   17.5765   -6.8512  -14.3628 C   0  0  0  0  0  0  0  0  0  0  0  0
   17.7685   -6.7826  -13.1268 O   0  0  0  0  0  0  0  0  0  0  0  0
   18.6307   -7.1819  -15.2241 N   0  0  0  0  0  0  0  0  0  0  0  0
   19.9207   -7.5151  -14.6142 C   0  0  0  0  0  0  0  0  0  0  0  0
   20.0546   -8.9840  -14.4395 C   0  0  0  0  0  0  0  0  0  0  0  0
   19.1002   -9.7269  -14.7613 O   0  0  0  0  0  0  0  0  0  0  0  0
   21.2207   -9.5043  -13.9287 O   0  0  0  0  0  0  0  0  0  0  0  0
  2 12  2  0
  2  1  1  0
  3  2  1  0
  4  5  1  0
  4  3  2  0
  5 11  2  0
  6  5  1  0
  7  8  1  6
  7  6  1  0
  9  7  1  0
 10  9  2  0
 11 12  1  0
 14 13  1  6
 15 14  1  0
 16 17  1  1
 16 14  1  0
 17  9  1  0
 18 16  1  0
 19 18  2  0
 20 18  1  0
 21 20  1  0
 22 24  1  0
 22 21  1  0
 23 22  2  0
M  END
$$$$
