IDI.pdb
     RDKit          3D

 25 24  0  0  1  0  0  0  0  0999 V2000
   28.3638  -19.5636   -5.6893 C   0  0  0  0  0  0  0  0  0  0  0  0
   27.0794  -20.0783   -6.3128 C   0  0  0  0  0  0  0  0  0  0  0  0
   26.9178  -19.6808   -7.7270 C   0  0  2  0  0  0  0  0  0  0  0  0
   26.8410  -18.1849   -7.9311 C   0  0  0  0  0  0  0  0  0  0  0  0
   25.6571  -20.2808   -8.3091 C   0  0  2  0  0  0  0  0  0  0  0  0
   25.6476  -21.7293   -8.0170 N   0  0  0  0  0  0  0  0  0  0  0  0
   25.5248  -20.1149   -9.7688 C   0  0  0  0  0  0  0  0  0  0  0  0
   25.3023  -18.9437  -10.2170 O   0  0  0  0  0  0  0  0  0  0  0  0
   25.6381  -21.1822  -10.6779 N   0  0  0  0  0  0  0  0  0  0  0  0
   25.4830  -20.9491  -12.1203 C   0  0  1  0  0  0  0  0  0  0  0  0
   26.5967  -21.5953  -12.8684 C   0  0  0  0  0  0  0  0  0  0  0  0
   26.5715  -21.4218  -14.3234 C   0  0  0  0  0  0  0  0  0  0  0  0
   25.7139  -21.9611  -15.0469 O   0  0  0  0  0  0  0  0  0  0  0  0
   24.1471  -21.3901  -12.5617 C   0  0  0  0  0  0  0  0  0  0  0  0
   23.5866  -22.4146  -12.0397 O   0  0  0  0  0  0  0  0  0  0  0  0
   27.5388  -20.6261  -14.9244 O   0  0  0  0  0  0  0  0  0  0  0  0
   19.4188  -19.0569  -11.4741 C   0  0  0  0  0  0  0  0  0  0  0  0
   19.8909  -19.9986  -12.5895 C   0  0  0  0  0  0  0  0  0  0  0  0
   21.3782  -20.0110  -12.5479 C   0  0  2  0  0  0  0  0  0  0  0  0
   22.0079  -18.6741  -12.7484 C   0  0  0  0  0  0  0  0  0  0  0  0
   21.9151  -20.9640  -13.6007 C   0  0  2  0  0  0  0  0  0  0  0  0
   23.3741  -20.7491  -13.5616 N   0  0  0  0  0  0  0  0  0  0  0  0
   21.4512  -20.6453  -14.9553 C   0  0  0  0  0  0  0  0  0  0  0  0
   22.2384  -20.0974  -15.9645 O   0  0  0  0  0  0  0  0  0  0  0  0
   20.2359  -20.8685  -15.2856 O   0  0  0  0  0  0  0  0  0  0  0  0
  2  1  1  0
  3  2  1  0
  3  5  1  0
  3  4  1  1
  5  6  1  6
  7  5  1  0
  7  8  2  0
  9  7  1  0
 10  9  1  0
 10 11  1  6
 12 16  1  0
 12 11  1  0
 13 12  2  0
 14 10  1  0
 15 14  2  0
 18 17  1  0
 19 18  1  0
 19 20  1  6
 21 19  1  0
 21 22  1  6
 22 14  1  0
 23 24  1  0
 23 21  1  0
 25 23  2  0
M  END
$$$$
