IDI.pdb
     RDKit          3D

 25 24  0  0  1  0  0  0  0  0999 V2000
   29.9781  -19.2253  -19.4360 C   0  0  0  0  0  0  0  0  0  0  0  0
   29.3764  -20.0765  -18.3329 C   0  0  0  0  0  0  0  0  0  0  0  0
   28.3397  -19.3704  -17.5514 C   0  0  2  0  0  0  0  0  0  0  0  0
   28.8351  -18.1026  -16.8937 C   0  0  0  0  0  0  0  0  0  0  0  0
   27.7955  -20.2629  -16.4580 C   0  0  2  0  0  0  0  0  0  0  0  0
   27.5750  -21.6121  -17.0188 N   0  0  0  0  0  0  0  0  0  0  0  0
   26.5197  -19.8021  -15.8784 C   0  0  0  0  0  0  0  0  0  0  0  0
   26.5698  -19.0418  -14.8578 O   0  0  0  0  0  0  0  0  0  0  0  0
   25.2637  -20.1580  -16.4019 N   0  0  0  0  0  0  0  0  0  0  0  0
   24.0322  -19.6157  -15.8119 C   0  0  1  0  0  0  0  0  0  0  0  0
   22.9860  -19.4580  -16.8599 C   0  0  0  0  0  0  0  0  0  0  0  0
   21.7074  -18.9047  -16.4051 C   0  0  0  0  0  0  0  0  0  0  0  0
   21.0787  -19.3780  -15.4403 O   0  0  0  0  0  0  0  0  0  0  0  0
   23.6039  -20.4551  -14.6780 C   0  0  0  0  0  0  0  0  0  0  0  0
   23.3357  -21.6951  -14.8417 O   0  0  0  0  0  0  0  0  0  0  0  0
   21.1711  -17.8102  -17.0715 O   0  0  0  0  0  0  0  0  0  0  0  0
   26.0138  -21.0081  -10.1169 C   0  0  0  0  0  0  0  0  0  0  0  0
   25.1585  -21.2923  -11.3584 C   0  0  0  0  0  0  0  0  0  0  0  0
   23.8246  -20.6786  -11.1176 C   0  0  2  0  0  0  0  0  0  0  0  0
   23.1314  -21.1793   -9.8958 C   0  0  0  0  0  0  0  0  0  0  0  0
   22.9249  -20.9139  -12.3177 C   0  0  2  0  0  0  0  0  0  0  0  0
   23.4579  -19.9986  -13.3445 N   0  0  0  0  0  0  0  0  0  0  0  0
   21.5271  -20.5446  -12.0698 C   0  0  0  0  0  0  0  0  0  0  0  0
   20.5280  -21.4203  -11.6534 O   0  0  0  0  0  0  0  0  0  0  0  0
   21.1445  -19.3356  -12.2358 O   0  0  0  0  0  0  0  0  0  0  0  0
  2  1  1  0
  3  2  1  0
  3  5  1  0
  3  4  1  1
  5  6  1  6
  7  5  1  0
  7  8  2  0
  9  7  1  0
 10  9  1  0
 10 11  1  6
 12 16  1  0
 12 11  1  0
 13 12  2  0
 14 10  1  0
 15 14  2  0
 18 17  1  0
 19 18  1  0
 19 20  1  1
 21 19  1  0
 21 22  1  6
 22 14  1  0
 23 24  1  0
 23 21  1  0
 25 23  2  0
M  END
$$$$
