IDI.pdb
     RDKit          3D

 25 24  0  0  1  0  0  0  0  0999 V2000
   25.9970  -13.1084  -15.4931 C   0  0  0  0  0  0  0  0  0  0  0  0
   24.4921  -13.1049  -15.6892 C   0  0  0  0  0  0  0  0  0  0  0  0
   23.9332  -11.7511  -15.8870 C   0  0  2  0  0  0  0  0  0  0  0  0
   24.1332  -10.8337  -14.7022 C   0  0  0  0  0  0  0  0  0  0  0  0
   22.4464  -11.8219  -16.1568 C   0  0  2  0  0  0  0  0  0  0  0  0
   22.2196  -12.7228  -17.3060 N   0  0  0  0  0  0  0  0  0  0  0  0
   21.8254  -10.5222  -16.4741 C   0  0  0  0  0  0  0  0  0  0  0  0
   22.1030   -9.9880  -17.5965 O   0  0  0  0  0  0  0  0  0  0  0  0
   20.9450   -9.8567  -15.6020 N   0  0  0  0  0  0  0  0  0  0  0  0
   20.3310   -8.5816  -15.9967 C   0  0  1  0  0  0  0  0  0  0  0  0
   18.9103   -8.5358  -15.5527 C   0  0  0  0  0  0  0  0  0  0  0  0
   18.0183   -9.5219  -16.1692 C   0  0  0  0  0  0  0  0  0  0  0  0
   17.1754  -10.1631  -15.5148 O   0  0  0  0  0  0  0  0  0  0  0  0
   21.1387   -7.4556  -15.4934 C   0  0  0  0  0  0  0  0  0  0  0  0
   21.5717   -7.4425  -14.2898 O   0  0  0  0  0  0  0  0  0  0  0  0
   18.1119   -9.7544  -17.5356 O   0  0  0  0  0  0  0  0  0  0  0  0
   25.6377   -6.0312  -16.6559 C   0  0  0  0  0  0  0  0  0  0  0  0
   24.1609   -6.2832  -16.9865 C   0  0  0  0  0  0  0  0  0  0  0  0
   23.4280   -5.0220  -16.6931 C   0  0  2  0  0  0  0  0  0  0  0  0
   24.2958   -3.9046  -16.2218 C   0  0  0  0  0  0  0  0  0  0  0  0
   22.3571   -5.2797  -15.6482 C   0  0  2  0  0  0  0  0  0  0  0  0
   21.5105   -6.3223  -16.2586 N   0  0  0  0  0  0  0  0  0  0  0  0
   21.5113   -4.1092  -15.3907 C   0  0  0  0  0  0  0  0  0  0  0  0
   21.6310   -3.2587  -14.2949 O   0  0  0  0  0  0  0  0  0  0  0  0
   20.5749   -3.8032  -16.2064 O   0  0  0  0  0  0  0  0  0  0  0  0
  2  1  1  0
  3  2  1  0
  3  5  1  0
  3  4  1  1
  5  6  1  6
  7  5  1  0
  7  8  2  0
  9  7  1  0
 10  9  1  0
 10 11  1  1
 12 16  1  0
 12 11  1  0
 13 12  2  0
 14 10  1  0
 15 14  2  0
 18 17  1  0
 19 18  1  0
 19 20  1  1
 21 19  1  0
 21 22  1  6
 22 14  1  0
 23 24  1  0
 23 21  1  0
 25 23  2  0
M  END
$$$$
