IDI.pdb
     RDKit          3D

 25 24  0  0  1  0  0  0  0  0999 V2000
   25.0006  -12.0952  -15.9146 C   0  0  0  0  0  0  0  0  0  0  0  0
   25.7026  -13.4114  -16.1943 C   0  0  0  0  0  0  0  0  0  0  0  0
   24.8040  -14.5814  -16.1065 C   0  0  2  0  0  0  0  0  0  0  0  0
   24.2293  -14.8020  -14.7258 C   0  0  0  0  0  0  0  0  0  0  0  0
   25.5354  -15.8464  -16.4980 C   0  0  2  0  0  0  0  0  0  0  0  0
   26.0585  -15.6813  -17.8702 N   0  0  0  0  0  0  0  0  0  0  0  0
   24.6989  -17.0611  -16.4780 C   0  0  0  0  0  0  0  0  0  0  0  0
   23.7212  -17.1240  -17.2919 O   0  0  0  0  0  0  0  0  0  0  0  0
   24.9350  -18.1438  -15.6118 N   0  0  0  0  0  0  0  0  0  0  0  0
   24.0473  -19.3144  -15.6268 C   0  0  1  0  0  0  0  0  0  0  0  0
   24.8115  -20.5438  -15.2772 C   0  0  0  0  0  0  0  0  0  0  0  0
   25.8415  -20.9482  -16.2381 C   0  0  0  0  0  0  0  0  0  0  0  0
   25.7910  -20.6390  -17.4430 O   0  0  0  0  0  0  0  0  0  0  0  0
   22.8855  -19.0777  -14.7505 C   0  0  0  0  0  0  0  0  0  0  0  0
   23.0383  -18.6341  -13.5605 O   0  0  0  0  0  0  0  0  0  0  0  0
   26.9182  -21.7053  -15.7938 O   0  0  0  0  0  0  0  0  0  0  0  0
   18.2244  -15.8975  -14.5360 C   0  0  0  0  0  0  0  0  0  0  0  0
   18.6651  -17.2641  -13.9956 C   0  0  0  0  0  0  0  0  0  0  0  0
   19.8656  -17.6731  -14.7737 C   0  0  2  0  0  0  0  0  0  0  0  0
   19.6070  -17.8999  -16.2248 C   0  0  0  0  0  0  0  0  0  0  0  0
   20.4565  -18.9400  -14.1814 C   0  0  2  0  0  0  0  0  0  0  0  0
   21.5357  -19.2998  -15.1206 N   0  0  0  0  0  0  0  0  0  0  0  0
   19.5047  -20.0555  -14.1435 C   0  0  0  0  0  0  0  0  0  0  0  0
   18.5590  -20.2692  -13.1442 O   0  0  0  0  0  0  0  0  0  0  0  0
   19.5030  -20.9287  -15.0779 O   0  0  0  0  0  0  0  0  0  0  0  0
  2  1  1  0
  3  2  1  0
  3  5  1  0
  3  4  1  1
  5  6  1  6
  7  5  1  0
  7  8  2  0
  9  7  1  0
 10  9  1  0
 10 11  1  1
 12 16  1  0
 12 11  1  0
 13 12  2  0
 14 10  1  0
 15 14  2  0
 18 17  1  0
 19 18  1  0
 19 20  1  6
 21 19  1  0
 21 22  1  6
 22 14  1  0
 23 24  1  0
 23 21  1  0
 25 23  2  0
M  END
$$$$
