IDI.pdb
     RDKit          3D

 25 24  0  0  1  0  0  0  0  0999 V2000
   29.3262  -16.8241  -19.1520 C   0  0  0  0  0  0  0  0  0  0  0  0
   28.9641  -17.9161  -18.1622 C   0  0  0  0  0  0  0  0  0  0  0  0
   27.7052  -17.6498  -17.4353 C   0  0  2  0  0  0  0  0  0  0  0  0
   27.7538  -16.4087  -16.5736 C   0  0  0  0  0  0  0  0  0  0  0  0
   27.3542  -18.8121  -16.5328 C   0  0  2  0  0  0  0  0  0  0  0  0
   27.5027  -20.0654  -17.3015 N   0  0  0  0  0  0  0  0  0  0  0  0
   25.9799  -18.7713  -15.9989 C   0  0  0  0  0  0  0  0  0  0  0  0
   25.6979  -17.8651  -15.1496 O   0  0  0  0  0  0  0  0  0  0  0  0
   24.9763  -19.6772  -16.3872 N   0  0  0  0  0  0  0  0  0  0  0  0
   23.6140  -19.5511  -15.8515 C   0  0  1  0  0  0  0  0  0  0  0  0
   22.6138  -19.7986  -16.9266 C   0  0  0  0  0  0  0  0  0  0  0  0
   22.3902  -18.6881  -17.8564 C   0  0  0  0  0  0  0  0  0  0  0  0
   22.3896  -18.8397  -19.0921 O   0  0  0  0  0  0  0  0  0  0  0  0
   23.4481  -20.4337  -14.6823 C   0  0  0  0  0  0  0  0  0  0  0  0
   23.5206  -21.7052  -14.8020 O   0  0  0  0  0  0  0  0  0  0  0  0
   22.1698  -17.4151  -17.3458 O   0  0  0  0  0  0  0  0  0  0  0  0
   26.3174  -20.4129  -10.5472 C   0  0  0  0  0  0  0  0  0  0  0  0
   25.3677  -20.9045  -11.6474 C   0  0  0  0  0  0  0  0  0  0  0  0
   23.9855  -20.5680  -11.2113 C   0  0  2  0  0  0  0  0  0  0  0  0
   23.5791  -21.1987   -9.9225 C   0  0  0  0  0  0  0  0  0  0  0  0
   22.9929  -20.9745  -12.2858 C   0  0  2  0  0  0  0  0  0  0  0  0
   23.2087  -19.9860  -13.3592 N   0  0  0  0  0  0  0  0  0  0  0  0
   21.5966  -20.8654  -11.8498 C   0  0  0  0  0  0  0  0  0  0  0  0
   20.7753  -19.7606  -12.0583 O   0  0  0  0  0  0  0  0  0  0  0  0
   21.0431  -21.8336  -11.2239 O   0  0  0  0  0  0  0  0  0  0  0  0
  2  1  1  0
  3  2  1  0
  3  5  1  0
  3  4  1  1
  5  6  1  6
  7  5  1  0
  7  8  2  0
  9  7  1  0
 10  9  1  0
 10 11  1  6
 12 16  1  0
 12 11  1  0
 13 12  2  0
 14 10  1  0
 15 14  2  0
 18 17  1  0
 19 18  1  0
 19 20  1  1
 21 19  1  0
 21 22  1  6
 22 14  1  0
 23 24  1  0
 23 21  1  0
 25 23  2  0
M  END
$$$$
