IDI.pdb
     RDKit          3D

 25 24  0  0  1  0  0  0  0  0999 V2000
   26.5790  -19.5133   -7.9801 C   0  0  0  0  0  0  0  0  0  0  0  0
   26.4798  -20.6881   -8.9357 C   0  0  0  0  0  0  0  0  0  0  0  0
   25.9840  -20.3095  -10.2755 C   0  0  2  0  0  0  0  0  0  0  0  0
   24.5525  -19.8236  -10.2770 C   0  0  0  0  0  0  0  0  0  0  0  0
   26.0625  -21.4845  -11.2251 C   0  0  2  0  0  0  0  0  0  0  0  0
   27.4670  -21.9385  -11.2959 N   0  0  0  0  0  0  0  0  0  0  0  0
   25.6164  -21.1845  -12.5987 C   0  0  0  0  0  0  0  0  0  0  0  0
   26.4204  -20.5575  -13.3621 O   0  0  0  0  0  0  0  0  0  0  0  0
   24.3569  -21.5617  -13.0983 N   0  0  0  0  0  0  0  0  0  0  0  0
   23.9931  -21.2713  -14.4918 C   0  0  1  0  0  0  0  0  0  0  0  0
   22.8685  -22.1472  -14.9229 C   0  0  0  0  0  0  0  0  0  0  0  0
   23.1772  -23.5763  -15.0246 C   0  0  0  0  0  0  0  0  0  0  0  0
   22.3722  -24.4610  -14.6796 O   0  0  0  0  0  0  0  0  0  0  0  0
   23.7095  -19.8332  -14.6499 C   0  0  0  0  0  0  0  0  0  0  0  0
   22.8786  -19.2378  -13.8808 O   0  0  0  0  0  0  0  0  0  0  0  0
   24.4137  -23.9651  -15.5244 O   0  0  0  0  0  0  0  0  0  0  0  0
   26.4840  -14.7841  -15.2637 C   0  0  0  0  0  0  0  0  0  0  0  0
   25.2254  -15.4736  -15.8065 C   0  0  0  0  0  0  0  0  0  0  0  0
   25.2025  -16.8481  -15.2372 C   0  0  2  0  0  0  0  0  0  0  0  0
   26.3801  -17.6845  -15.6080 C   0  0  0  0  0  0  0  0  0  0  0  0
   23.9388  -17.5664  -15.6755 C   0  0  2  0  0  0  0  0  0  0  0  0
   24.3068  -18.9939  -15.6231 N   0  0  0  0  0  0  0  0  0  0  0  0
   23.5488  -17.2542  -17.0547 C   0  0  0  0  0  0  0  0  0  0  0  0
   23.6192  -18.1385  -18.1278 O   0  0  0  0  0  0  0  0  0  0  0  0
   23.1035  -16.0915  -17.3473 O   0  0  0  0  0  0  0  0  0  0  0  0
  2  1  1  0
  3  2  1  0
  3  5  1  0
  3  4  1  1
  5  6  1  6
  7  5  1  0
  7  8  2  0
  9  7  1  0
 10  9  1  0
 10 11  1  1
 12 16  1  0
 12 11  1  0
 13 12  2  0
 14 10  1  0
 15 14  2  0
 18 17  1  0
 19 18  1  0
 19 20  1  6
 21 19  1  0
 21 22  1  6
 22 14  1  0
 23 24  1  0
 23 21  1  0
 25 23  2  0
M  END
$$$$
