IDI.pdb
     RDKit          3D

 25 24  0  0  1  0  0  0  0  0999 V2000
   28.5571  -17.7827  -18.9007 C   0  0  0  0  0  0  0  0  0  0  0  0
   28.6936  -18.7098  -17.7068 C   0  0  0  0  0  0  0  0  0  0  0  0
   27.7479  -18.3973  -16.6150 C   0  0  2  0  0  0  0  0  0  0  0  0
   27.9360  -17.0176  -16.0266 C   0  0  0  0  0  0  0  0  0  0  0  0
   27.8899  -19.3929  -15.4850 C   0  0  2  0  0  0  0  0  0  0  0  0
   27.8065  -20.7570  -16.0471 N   0  0  0  0  0  0  0  0  0  0  0  0
   26.8573  -19.2732  -14.4384 C   0  0  0  0  0  0  0  0  0  0  0  0
   26.8185  -18.1953  -13.7610 O   0  0  0  0  0  0  0  0  0  0  0  0
   25.9201  -20.2852  -14.1629 N   0  0  0  0  0  0  0  0  0  0  0  0
   24.9286  -20.1082  -13.0931 C   0  0  1  0  0  0  0  0  0  0  0  0
   23.5725  -20.4821  -13.5819 C   0  0  0  0  0  0  0  0  0  0  0  0
   22.5105  -20.4863  -12.5720 C   0  0  0  0  0  0  0  0  0  0  0  0
   22.0778  -21.5356  -12.0603 O   0  0  0  0  0  0  0  0  0  0  0  0
   25.3446  -20.8541  -11.8913 C   0  0  0  0  0  0  0  0  0  0  0  0
   25.6144  -22.1030  -11.9526 O   0  0  0  0  0  0  0  0  0  0  0  0
   21.9614  -19.2766  -12.1657 O   0  0  0  0  0  0  0  0  0  0  0  0
   27.8602  -18.7851   -7.4307 C   0  0  0  0  0  0  0  0  0  0  0  0
   26.6713  -19.2128   -8.3010 C   0  0  0  0  0  0  0  0  0  0  0  0
   26.9564  -20.5926   -8.7793 C   0  0  2  0  0  0  0  0  0  0  0  0
   28.0984  -20.6864   -9.7337 C   0  0  0  0  0  0  0  0  0  0  0  0
   25.7202  -21.1739   -9.4419 C   0  0  2  0  0  0  0  0  0  0  0  0
   25.4902  -20.2893  -10.5998 N   0  0  0  0  0  0  0  0  0  0  0  0
   24.5286  -21.1147   -8.5887 C   0  0  0  0  0  0  0  0  0  0  0  0
   24.3526  -21.8282   -7.4061 O   0  0  0  0  0  0  0  0  0  0  0  0
   23.5449  -20.3642   -8.9127 O   0  0  0  0  0  0  0  0  0  0  0  0
  2  1  1  0
  3  2  1  0
  3  5  1  0
  3  4  1  1
  5  6  1  6
  7  5  1  0
  7  8  2  0
  9  7  1  0
 10  9  1  0
 10 11  1  6
 12 16  1  0
 12 11  1  0
 13 12  2  0
 14 10  1  0
 15 14  2  0
 18 17  1  0
 19 18  1  0
 19 20  1  6
 21 19  1  0
 21 22  1  6
 22 14  1  0
 23 24  1  0
 23 21  1  0
 25 23  2  0
M  END
$$$$
