IDI.pdb
     RDKit          3D

 25 24  0  0  1  0  0  0  0  0999 V2000
   19.7551  -14.8137  -19.7081 C   0  0  0  0  0  0  0  0  0  0  0  0
   20.4152  -14.0897  -18.5489 C   0  0  0  0  0  0  0  0  0  0  0  0
   20.0345  -12.6646  -18.4590 C   0  0  2  0  0  0  0  0  0  0  0  0
   20.3299  -11.8779  -19.7156 C   0  0  0  0  0  0  0  0  0  0  0  0
   20.7657  -11.9879  -17.3207 C   0  0  2  0  0  0  0  0  0  0  0  0
   20.5845  -12.7979  -16.0981 N   0  0  0  0  0  0  0  0  0  0  0  0
   20.2980  -10.6200  -17.0280 C   0  0  0  0  0  0  0  0  0  0  0  0
   20.6127   -9.6955  -17.8456 O   0  0  0  0  0  0  0  0  0  0  0  0
   19.5229  -10.2967  -15.8996 N   0  0  0  0  0  0  0  0  0  0  0  0
   19.1208   -8.9061  -15.6481 C   0  0  1  0  0  0  0  0  0  0  0  0
   17.8831   -8.8703  -14.8208 C   0  0  0  0  0  0  0  0  0  0  0  0
   16.6542   -9.2987  -15.4945 C   0  0  0  0  0  0  0  0  0  0  0  0
   15.8118  -10.0334  -14.9464 O   0  0  0  0  0  0  0  0  0  0  0  0
   20.2433   -8.1557  -15.0560 C   0  0  0  0  0  0  0  0  0  0  0  0
   20.8439   -8.5853  -14.0115 O   0  0  0  0  0  0  0  0  0  0  0  0
   16.4140   -8.8718  -16.7945 O   0  0  0  0  0  0  0  0  0  0  0  0
   25.1566   -5.5632  -16.8426 C   0  0  0  0  0  0  0  0  0  0  0  0
   24.1965   -5.5853  -15.6462 C   0  0  0  0  0  0  0  0  0  0  0  0
   22.9508   -6.2605  -16.1004 C   0  0  2  0  0  0  0  0  0  0  0  0
   22.2822   -5.5987  -17.2575 C   0  0  0  0  0  0  0  0  0  0  0  0
   21.9623   -6.3454  -14.9513 C   0  0  2  0  0  0  0  0  0  0  0  0
   20.7575   -6.9366  -15.5637 N   0  0  0  0  0  0  0  0  0  0  0  0
   21.5929   -5.0322  -14.4122 C   0  0  0  0  0  0  0  0  0  0  0  0
   22.3333   -4.3110  -13.4793 O   0  0  0  0  0  0  0  0  0  0  0  0
   20.5145   -4.4619  -14.7964 O   0  0  0  0  0  0  0  0  0  0  0  0
  2  1  1  0
  3  2  1  0
  3  5  1  0
  3  4  1  6
  5  6  1  1
  7  5  1  0
  7  8  2  0
  9  7  1  0
 10  9  1  0
 10 11  1  1
 12 16  1  0
 12 11  1  0
 13 12  2  0
 14 10  1  0
 15 14  2  0
 18 17  1  0
 19 18  1  0
 19 20  1  6
 21 19  1  0
 21 22  1  6
 22 14  1  0
 23 24  1  0
 23 21  1  0
 25 23  2  0
M  END
$$$$
