YCC.pdb
     RDKit          3D

 25 25  0  0  1  0  0  0  0  0999 V2000
   -0.1488  -21.0420   23.0445 O   0  0  0  0  0  0  0  0  0  0  0  0
    1.1600  -20.5493   23.0331 C   0  0  0  0  0  0  0  0  0  0  0  0
    1.3768  -19.2414   22.6795 C   0  0  0  0  0  0  0  0  0  0  0  0
    2.6630  -18.7306   22.6607 C   0  0  0  0  0  0  0  0  0  0  0  0
    3.7633  -19.4946   22.9891 C   0  0  0  0  0  0  0  0  0  0  0  0
    5.1290  -18.9113   22.9574 C   0  0  0  0  0  0  0  0  0  0  0  0
    5.4371  -18.5824   21.5077 C   0  0  2  0  0  0  0  0  0  0  0  0
    5.3665  -19.7555   20.6870 N   0  0  0  0  0  0  0  0  0  0  0  0
    6.6829  -17.8257   21.3564 C   0  0  0  0  0  0  0  0  0  0  0  0
    7.7202  -18.4318   20.9257 O   0  0  0  0  0  0  0  0  0  0  0  0
    3.5327  -20.8076   23.3429 C   0  0  0  0  0  0  0  0  0  0  0  0
    2.2413  -21.3363   23.3663 C   0  0  0  0  0  0  0  0  0  0  0  0
    6.7832  -16.4444   21.6694 N   0  0  0  0  0  0  0  0  0  0  0  0
    8.0265  -15.7632   21.4135 C   0  0  1  0  0  0  0  0  0  0  0  0
    7.7819  -14.2716   21.1674 C   0  0  0  0  0  0  0  0  0  0  0  0
    6.9918  -13.5303   22.6167 S   0  0  0  0  0  0  0  0  0  0  0  0
    8.9392  -15.8199   22.5958 C   0  0  0  0  0  0  0  0  0  0  0  0
    8.4825  -15.6674   23.7562 O   0  0  0  0  0  0  0  0  0  0  0  0
   10.3303  -16.0440   22.4532 N   0  0  0  0  0  0  0  0  0  0  0  0
   11.2818  -16.0160   23.5192 C   0  0  1  0  0  0  0  0  0  0  0  0
   11.0365  -17.1391   24.5159 C   0  0  0  0  0  0  0  0  0  0  0  0
   10.7089  -18.7027   23.6972 S   0  0  0  0  0  0  0  0  0  0  0  0
   12.6807  -16.0635   23.0643 C   0  0  0  0  0  0  0  0  0  0  0  0
   13.0113  -16.2722   21.8863 O   0  0  0  0  0  0  0  0  0  0  0  0
   13.6761  -15.8620   24.0156 O   0  0  0  0  0  0  0  0  0  0  0  0
  1  2  1  0
  2 12  2  0
  3  4  2  0
  3  2  1  0
  4  5  1  0
  5  6  1  0
  5 11  2  0
  6  7  1  0
  7  9  1  0
  7  8  1  6
  9 10  2  0
 12 11  1  0
 13  9  1  0
 13 14  1  0
 14 17  1  0
 14 15  1  1
 16 15  1  0
 17 18  2  0
 19 17  1  0
 19 20  1  0
 20 23  1  0
 20 21  1  1
 22 21  1  0
 23 24  2  0
 23 25  1  0
M  END
$$$$
