YCC.pdb
     RDKit          3D

 25 25  0  0  1  0  0  0  0  0999 V2000
   11.9834  -14.5346   29.6682 O   0  0  0  0  0  0  0  0  0  0  0  0
   10.8702  -14.8287   28.8744 C   0  0  0  0  0  0  0  0  0  0  0  0
   10.1276  -13.7965   28.3590 C   0  0  0  0  0  0  0  0  0  0  0  0
    9.0214  -14.0622   27.5705 C   0  0  0  0  0  0  0  0  0  0  0  0
    8.6220  -15.3481   27.2721 C   0  0  0  0  0  0  0  0  0  0  0  0
    7.4289  -15.5941   26.4221 C   0  0  0  0  0  0  0  0  0  0  0  0
    7.1716  -14.3189   25.6395 C   0  0  2  0  0  0  0  0  0  0  0  0
    6.1762  -13.5120   26.2821 N   0  0  0  0  0  0  0  0  0  0  0  0
    6.9040  -14.5749   24.2216 C   0  0  0  0  0  0  0  0  0  0  0  0
    5.7079  -14.4572   23.7921 O   0  0  0  0  0  0  0  0  0  0  0  0
    9.3763  -16.3771   27.7959 C   0  0  0  0  0  0  0  0  0  0  0  0
   10.4941  -16.1243   28.5924 C   0  0  0  0  0  0  0  0  0  0  0  0
    7.9221  -14.9486   23.3051 N   0  0  0  0  0  0  0  0  0  0  0  0
    7.5494  -15.2968   21.9578 C   0  0  1  0  0  0  0  0  0  0  0  0
    8.6571  -14.9057   20.9752 C   0  0  0  0  0  0  0  0  0  0  0  0
    9.4683  -13.3881   21.5347 S   0  0  0  0  0  0  0  0  0  0  0  0
    7.3864  -16.7737   21.7956 C   0  0  0  0  0  0  0  0  0  0  0  0
    8.1295  -17.5660   22.4268 O   0  0  0  0  0  0  0  0  0  0  0  0
    6.4036  -17.3251   20.9378 N   0  0  0  0  0  0  0  0  0  0  0  0
    6.1056  -18.7174   20.8157 C   0  0  1  0  0  0  0  0  0  0  0  0
    4.6242  -18.9507   20.5586 C   0  0  0  0  0  0  0  0  0  0  0  0
    4.2406  -20.6954   20.3825 S   0  0  0  0  0  0  0  0  0  0  0  0
    6.8950  -19.4023   19.7794 C   0  0  0  0  0  0  0  0  0  0  0  0
    7.5268  -18.8055   18.8933 O   0  0  0  0  0  0  0  0  0  0  0  0
    6.9264  -20.7932   19.8057 O   0  0  0  0  0  0  0  0  0  0  0  0
  1  2  1  0
  2 12  2  0
  3  4  2  0
  3  2  1  0
  4  5  1  0
  5  6  1  0
  5 11  2  0
  6  7  1  0
  7  9  1  0
  7  8  1  1
  9 10  2  0
 12 11  1  0
 13  9  1  0
 13 14  1  0
 14 17  1  0
 14 15  1  6
 16 15  1  0
 17 18  2  0
 19 17  1  0
 19 20  1  0
 20 23  1  0
 20 21  1  6
 22 21  1  0
 23 24  2  0
 23 25  1  0
M  END
$$$$
