YCC.pdb
     RDKit          3D

 25 25  0  0  1  0  0  0  0  0999 V2000
    7.0331  -13.1774   16.7593 O   0  0  0  0  0  0  0  0  0  0  0  0
    7.2044  -13.5868   18.0855 C   0  0  0  0  0  0  0  0  0  0  0  0
    6.8758  -14.8727   18.4337 C   0  0  0  0  0  0  0  0  0  0  0  0
    7.0364  -15.3016   19.7399 C   0  0  0  0  0  0  0  0  0  0  0  0
    7.5233  -14.4755   20.7312 C   0  0  0  0  0  0  0  0  0  0  0  0
    7.6820  -14.9716   22.1223 C   0  0  0  0  0  0  0  0  0  0  0  0
    9.1715  -15.0054   22.4138 C   0  0  2  0  0  0  0  0  0  0  0  0
    9.8627  -15.8327   21.4691 N   0  0  0  0  0  0  0  0  0  0  0  0
    9.4624  -15.3308   23.8128 C   0  0  0  0  0  0  0  0  0  0  0  0
   10.0880  -16.4122   24.0737 O   0  0  0  0  0  0  0  0  0  0  0  0
    7.8501  -13.1855   20.3690 C   0  0  0  0  0  0  0  0  0  0  0  0
    7.6934  -12.7392   19.0560 C   0  0  0  0  0  0  0  0  0  0  0  0
    9.0765  -14.4913   24.8909 N   0  0  0  0  0  0  0  0  0  0  0  0
    9.4853  -14.8445   26.2264 C   0  0  1  0  0  0  0  0  0  0  0  0
    9.1416  -13.7212   27.2089 C   0  0  0  0  0  0  0  0  0  0  0  0
    7.5404  -12.9960   26.7789 S   0  0  0  0  0  0  0  0  0  0  0  0
    8.7475  -16.0432   26.7294 C   0  0  0  0  0  0  0  0  0  0  0  0
    7.5835  -16.2865   26.3242 O   0  0  0  0  0  0  0  0  0  0  0  0
    9.3249  -16.9344   27.6665 N   0  0  0  0  0  0  0  0  0  0  0  0
    9.0036  -18.3215   27.7888 C   0  0  1  0  0  0  0  0  0  0  0  0
    9.2086  -19.0599   26.4743 C   0  0  0  0  0  0  0  0  0  0  0  0
    7.7942  -18.8906   25.3822 S   0  0  0  0  0  0  0  0  0  0  0  0
    9.7481  -19.0088   28.8563 C   0  0  0  0  0  0  0  0  0  0  0  0
   10.8311  -18.6031   29.3068 O   0  0  0  0  0  0  0  0  0  0  0  0
    9.1972  -20.1744   29.3800 O   0  0  0  0  0  0  0  0  0  0  0  0
  1  2  1  0
  2 12  2  0
  3  4  2  0
  3  2  1  0
  4  5  1  0
  5  6  1  0
  5 11  2  0
  6  7  1  0
  7  9  1  0
  7  8  1  6
  9 10  2  0
 12 11  1  0
 13  9  1  0
 13 14  1  0
 14 17  1  0
 14 15  1  1
 16 15  1  0
 17 18  2  0
 19 17  1  0
 19 20  1  0
 20 23  1  0
 20 21  1  6
 22 21  1  0
 23 24  2  0
 23 25  1  0
M  END
$$$$
