YCC.pdb
     RDKit          3D

 25 25  0  0  1  0  0  0  0  0999 V2000
   10.2826  -14.8139   31.0666 O   0  0  0  0  0  0  0  0  0  0  0  0
   10.3376  -14.9759   29.6786 C   0  0  0  0  0  0  0  0  0  0  0  0
    9.5883  -14.1484   28.8809 C   0  0  0  0  0  0  0  0  0  0  0  0
    9.6259  -14.2891   27.5044 C   0  0  0  0  0  0  0  0  0  0  0  0
   10.4007  -15.2461   26.8833 C   0  0  0  0  0  0  0  0  0  0  0  0
   10.4153  -15.3669   25.4028 C   0  0  0  0  0  0  0  0  0  0  0  0
    9.2597  -16.2743   25.0207 C   0  0  2  0  0  0  0  0  0  0  0  0
    9.4136  -17.5763   25.6002 N   0  0  0  0  0  0  0  0  0  0  0  0
    9.0143  -16.2924   23.5760 C   0  0  0  0  0  0  0  0  0  0  0  0
    9.5837  -17.1890   22.8683 O   0  0  0  0  0  0  0  0  0  0  0  0
   11.1494  -16.0718   27.6957 C   0  0  0  0  0  0  0  0  0  0  0  0
   11.1214  -15.9415   29.0849 C   0  0  0  0  0  0  0  0  0  0  0  0
    8.1679  -15.3525   22.9308 N   0  0  0  0  0  0  0  0  0  0  0  0
    8.0435  -15.4007   21.4964 C   0  0  1  0  0  0  0  0  0  0  0  0
    6.7752  -14.6726   21.0417 C   0  0  0  0  0  0  0  0  0  0  0  0
    6.6610  -14.7048   19.2361 S   0  0  0  0  0  0  0  0  0  0  0  0
    9.1686  -14.6845   20.8215 C   0  0  0  0  0  0  0  0  0  0  0  0
    9.4832  -13.5215   21.1776 O   0  0  0  0  0  0  0  0  0  0  0  0
    9.9094  -15.2817   19.7725 N   0  0  0  0  0  0  0  0  0  0  0  0
   11.1508  -14.7931   19.2603 C   0  0  1  0  0  0  0  0  0  0  0  0
   12.1518  -14.5335   20.3764 C   0  0  0  0  0  0  0  0  0  0  0  0
   13.7314  -13.9643   19.7417 S   0  0  0  0  0  0  0  0  0  0  0  0
   11.7616  -15.6739   18.2516 C   0  0  0  0  0  0  0  0  0  0  0  0
   11.3566  -16.8217   18.0089 O   0  0  0  0  0  0  0  0  0  0  0  0
   12.8506  -15.1813   17.5389 O   0  0  0  0  0  0  0  0  0  0  0  0
  1  2  1  0
  2 12  2  0
  3  4  2  0
  3  2  1  0
  4  5  1  0
  5  6  1  0
  5 11  2  0
  6  7  1  0
  7  9  1  0
  7  8  1  6
  9 10  2  0
 12 11  1  0
 13  9  1  0
 13 14  1  0
 14 17  1  0
 14 15  1  1
 16 15  1  0
 17 18  2  0
 19 17  1  0
 19 20  1  0
 20 23  1  0
 20 21  1  1
 22 21  1  0
 23 24  2  0
 23 25  1  0
M  END
$$$$
