YCC.pdb
     RDKit          3D

 25 25  0  0  1  0  0  0  0  0999 V2000
    6.6346  -23.0849   20.9746 O   0  0  0  0  0  0  0  0  0  0  0  0
    7.0590  -21.8634   21.5072 C   0  0  0  0  0  0  0  0  0  0  0  0
    8.0825  -21.1877   20.8920 C   0  0  0  0  0  0  0  0  0  0  0  0
    8.5203  -19.9770   21.4002 C   0  0  0  0  0  0  0  0  0  0  0  0
    7.9612  -19.4050   22.5238 C   0  0  0  0  0  0  0  0  0  0  0  0
    8.4578  -18.1037   23.0399 C   0  0  0  0  0  0  0  0  0  0  0  0
    7.4976  -17.0358   22.5474 C   0  0  2  0  0  0  0  0  0  0  0  0
    7.3455  -17.0969   21.1233 N   0  0  0  0  0  0  0  0  0  0  0  0
    7.8347  -15.7020   23.0520 C   0  0  0  0  0  0  0  0  0  0  0  0
    7.7666  -14.7087   22.2534 O   0  0  0  0  0  0  0  0  0  0  0  0
    6.9333  -20.0936   23.1333 C   0  0  0  0  0  0  0  0  0  0  0  0
    6.4815  -21.3152   22.6321 C   0  0  0  0  0  0  0  0  0  0  0  0
    8.2342  -15.4691   24.3945 N   0  0  0  0  0  0  0  0  0  0  0  0
    7.9364  -14.1945   24.9961 C   0  0  1  0  0  0  0  0  0  0  0  0
    6.4290  -14.0453   25.2218 C   0  0  0  0  0  0  0  0  0  0  0  0
    6.0881  -12.4992   26.0982 S   0  0  0  0  0  0  0  0  0  0  0  0
    8.5492  -14.0695   26.3537 C   0  0  0  0  0  0  0  0  0  0  0  0
    8.4967  -12.9783   26.9742 O   0  0  0  0  0  0  0  0  0  0  0  0
    9.2011  -15.1595   26.9802 N   0  0  0  0  0  0  0  0  0  0  0  0
   10.5644  -15.1669   27.4089 C   0  0  1  0  0  0  0  0  0  0  0  0
   10.8518  -14.0272   28.3751 C   0  0  0  0  0  0  0  0  0  0  0  0
    9.3481  -13.3667   29.0995 S   0  0  0  0  0  0  0  0  0  0  0  0
   10.9864  -16.4397   28.0155 C   0  0  0  0  0  0  0  0  0  0  0  0
   10.2104  -17.3817   28.2410 O   0  0  0  0  0  0  0  0  0  0  0  0
   12.3299  -16.5816   28.3493 O   0  0  0  0  0  0  0  0  0  0  0  0
  1  2  1  0
  2 12  2  0
  3  4  2  0
  3  2  1  0
  4  5  1  0
  5  6  1  0
  5 11  2  0
  6  7  1  0
  7  9  1  0
  7  8  1  6
  9 10  2  0
 12 11  1  0
 13  9  1  0
 13 14  1  0
 14 17  1  0
 14 15  1  1
 16 15  1  0
 17 18  2  0
 19 17  1  0
 19 20  1  0
 20 23  1  0
 20 21  1  1
 22 21  1  0
 23 24  2  0
 23 25  1  0
M  END
$$$$
