FNP.pdb
     RDKit          3D

 27 28  0  0  1  0  0  0  0  0999 V2000
    7.4997  -15.3035   20.9285 N   0  0  0  0  0  0  0  0  0  0  0  0
    7.7471  -14.6497   22.1984 C   0  0  1  0  0  0  0  0  0  0  0  0
    6.7446  -13.5916   22.5121 C   0  0  0  0  0  0  0  0  0  0  0  0
    6.8001  -12.9902   23.8174 C   0  0  0  0  0  0  0  0  0  0  0  0
    7.6777  -11.9425   24.0195 C   0  0  0  0  0  0  0  0  0  0  0  0
    7.7880  -11.3122   25.2443 C   0  0  0  0  0  0  0  0  0  0  0  0
    7.0188  -11.7178   26.3007 C   0  0  0  0  0  0  0  0  0  0  0  0
    6.1369  -12.7675   26.1049 C   0  0  0  0  0  0  0  0  0  0  0  0
    6.0280  -13.3973   24.8773 C   0  0  0  0  0  0  0  0  0  0  0  0
    7.9158  -15.6461   23.2909 C   0  0  0  0  0  0  0  0  0  0  0  0
    6.9066  -16.2282   23.8175 O   0  0  0  0  0  0  0  0  0  0  0  0
    9.0189  -19.1870   22.2450 N   0  0  0  0  0  0  0  0  0  0  0  0
    8.8477  -18.9744   23.6731 C   0  0  0  0  0  0  0  0  0  0  0  0
    7.8670  -19.5358   24.1876 O   0  0  0  0  0  0  0  0  0  0  0  0
    9.7761  -18.1623   24.3990 C   0  0  0  0  0  0  0  0  0  0  0  0
    9.2769  -16.8730   25.0576 C   0  0  2  0  0  0  0  0  0  0  0  0
    9.1678  -16.0135   23.8136 N   0  0  0  0  0  0  0  0  0  0  0  0
   10.3494  -16.3228   25.8740 C   0  0  0  0  0  0  0  0  0  0  0  0
   11.4871  -16.0950   25.3139 O   0  0  0  0  0  0  0  0  0  0  0  0
   10.2682  -16.0007   27.2267 N   0  0  0  0  0  0  0  0  0  0  0  0
    9.0736  -15.9177   28.0402 C   0  0  0  0  0  0  0  0  0  0  0  0
    9.3084  -14.6009   28.7862 C   0  0  0  0  0  0  0  0  0  0  0  0
   10.8001  -14.4865   28.9198 C   0  0  0  0  0  0  0  0  0  0  0  0
   11.3457  -15.6569   28.1520 C   0  0  1  0  0  0  0  0  0  0  0  0
   11.6280  -16.7631   29.0944 C   0  0  0  0  0  0  0  0  0  0  0  0
   10.8961  -17.9417   29.1145 O   0  0  0  0  0  0  0  0  0  0  0  0
   12.5655  -16.6907   29.9432 O   0  0  0  0  0  0  0  0  0  0  0  0
  2  1  1  6
  3  2  1  0
  4  9  1  0
  4  3  1  0
  5  4  2  0
  6  7  2  0
  6  5  1  0
  7  8  1  0
  8  9  2  0
 10  2  1  0
 11 10  2  0
 13 12  1  0
 14 13  2  0
 15 13  1  0
 16 15  1  6
 16 17  1  0
 17 10  1  0
 18 19  2  0
 18 16  1  0
 20 18  1  0
 21 20  1  0
 22 21  1  0
 23 24  1  0
 23 22  1  0
 24 20  1  0
 24 25  1  1
 26 25  1  0
 27 25  2  0
M  END
$$$$
