FNP.pdb
     RDKit          3D

 27 28  0  0  1  0  0  0  0  0999 V2000
    7.0856  -18.1329   20.1796 N   0  0  0  0  0  0  0  0  0  0  0  0
    7.5232  -16.8403   20.6684 C   0  0  1  0  0  0  0  0  0  0  0  0
    7.0760  -15.7106   19.8042 C   0  0  0  0  0  0  0  0  0  0  0  0
    7.5458  -14.3928   20.1379 C   0  0  0  0  0  0  0  0  0  0  0  0
    6.8425  -13.6649   21.0781 C   0  0  0  0  0  0  0  0  0  0  0  0
    7.2312  -12.3929   21.4529 C   0  0  0  0  0  0  0  0  0  0  0  0
    8.3385  -11.8168   20.8923 C   0  0  0  0  0  0  0  0  0  0  0  0
    9.0482  -12.5410   19.9491 C   0  0  0  0  0  0  0  0  0  0  0  0
    8.6571  -13.8149   19.5754 C   0  0  0  0  0  0  0  0  0  0  0  0
    7.1706  -16.6618   22.1032 C   0  0  0  0  0  0  0  0  0  0  0  0
    5.9654  -16.7915   22.5097 O   0  0  0  0  0  0  0  0  0  0  0  0
    6.3548  -18.2114   26.8753 N   0  0  0  0  0  0  0  0  0  0  0  0
    7.5536  -18.4134   26.0776 C   0  0  0  0  0  0  0  0  0  0  0  0
    8.4613  -19.0611   26.6238 O   0  0  0  0  0  0  0  0  0  0  0  0
    7.6371  -17.8817   24.7515 C   0  0  0  0  0  0  0  0  0  0  0  0
    7.7428  -16.3653   24.5656 C   0  0  2  0  0  0  0  0  0  0  0  0
    8.1138  -16.3449   23.0959 N   0  0  0  0  0  0  0  0  0  0  0  0
    8.8966  -15.8849   25.3124 C   0  0  0  0  0  0  0  0  0  0  0  0
   10.0605  -15.9875   24.7695 O   0  0  0  0  0  0  0  0  0  0  0  0
    8.8707  -15.3037   26.5780 N   0  0  0  0  0  0  0  0  0  0  0  0
    7.7332  -15.1790   27.4647 C   0  0  0  0  0  0  0  0  0  0  0  0
    7.8612  -13.7207   27.9151 C   0  0  0  0  0  0  0  0  0  0  0  0
    9.3345  -13.4298   27.8878 C   0  0  0  0  0  0  0  0  0  0  0  0
    9.9608  -14.6702   27.3167 C   0  0  1  0  0  0  0  0  0  0  0  0
   10.4358  -15.5263   28.4271 C   0  0  0  0  0  0  0  0  0  0  0  0
   11.4950  -15.1735   29.2510 O   0  0  0  0  0  0  0  0  0  0  0  0
    9.8927  -16.6407   28.6869 O   0  0  0  0  0  0  0  0  0  0  0  0
  2  1  1  6
  3  2  1  0
  4  9  1  0
  4  3  1  0
  5  4  2  0
  6  7  2  0
  6  5  1  0
  7  8  1  0
  8  9  2  0
 10  2  1  0
 11 10  2  0
 13 12  1  0
 14 13  2  0
 15 13  1  0
 16 15  1  1
 16 17  1  0
 17 10  1  0
 18 19  2  0
 18 16  1  0
 20 18  1  0
 21 20  1  0
 22 21  1  0
 23 24  1  0
 23 22  1  0
 24 20  1  0
 24 25  1  1
 26 25  1  0
 27 25  2  0
M  END
$$$$
