FNP.pdb
     RDKit          3D

 27 28  0  0  1  0  0  0  0  0999 V2000
    8.4952  -16.2710   16.6174 N   0  0  0  0  0  0  0  0  0  0  0  0
    8.6833  -15.5421   17.8561 C   0  0  1  0  0  0  0  0  0  0  0  0
    7.7288  -14.4074   18.0132 C   0  0  0  0  0  0  0  0  0  0  0  0
    7.6057  -13.8191   19.3199 C   0  0  0  0  0  0  0  0  0  0  0  0
    6.6558  -14.3313   20.1823 C   0  0  0  0  0  0  0  0  0  0  0  0
    6.4777  -13.8211   21.4542 C   0  0  0  0  0  0  0  0  0  0  0  0
    7.2500  -12.7810   21.8946 C   0  0  0  0  0  0  0  0  0  0  0  0
    8.2042  -12.2628   21.0350 C   0  0  0  0  0  0  0  0  0  0  0  0
    8.3809  -12.7754   19.7617 C   0  0  0  0  0  0  0  0  0  0  0  0
    8.7016  -16.4644   19.0240 C   0  0  0  0  0  0  0  0  0  0  0  0
    7.8649  -17.4263   19.1210 O   0  0  0  0  0  0  0  0  0  0  0  0
   10.4813  -19.7179   22.6875 N   0  0  0  0  0  0  0  0  0  0  0  0
   11.3629  -19.1795   21.6643 C   0  0  0  0  0  0  0  0  0  0  0  0
   12.4429  -19.7740   21.5164 O   0  0  0  0  0  0  0  0  0  0  0  0
   10.9687  -18.0354   20.9001 C   0  0  0  0  0  0  0  0  0  0  0  0
    9.6345  -17.3544   21.2186 C   0  0  2  0  0  0  0  0  0  0  0  0
    9.6185  -16.3503   20.0831 N   0  0  0  0  0  0  0  0  0  0  0  0
    9.7791  -16.6063   22.4592 C   0  0  0  0  0  0  0  0  0  0  0  0
   10.6453  -15.6534   22.4995 O   0  0  0  0  0  0  0  0  0  0  0  0
    9.0547  -16.8125   23.6309 N   0  0  0  0  0  0  0  0  0  0  0  0
    7.9922  -17.7710   23.8500 C   0  0  0  0  0  0  0  0  0  0  0  0
    6.9494  -16.9061   24.5644 C   0  0  0  0  0  0  0  0  0  0  0  0
    7.7430  -15.8776   25.3184 C   0  0  0  0  0  0  0  0  0  0  0  0
    9.1691  -16.1185   24.9118 C   0  0  1  0  0  0  0  0  0  0  0  0
    9.8258  -16.9652   25.9332 C   0  0  0  0  0  0  0  0  0  0  0  0
   10.2908  -16.4654   27.1412 O   0  0  0  0  0  0  0  0  0  0  0  0
   10.0000  -18.2072   25.7555 O   0  0  0  0  0  0  0  0  0  0  0  0
  2  1  1  6
  3  2  1  0
  4  9  1  0
  4  3  1  0
  5  4  2  0
  6  7  2  0
  6  5  1  0
  7  8  1  0
  8  9  2  0
 10  2  1  0
 11 10  2  0
 13 12  1  0
 14 13  2  0
 15 13  1  0
 16 15  1  6
 16 17  1  0
 17 10  1  0
 18 19  2  0
 18 16  1  0
 20 18  1  0
 21 20  1  0
 22 21  1  0
 23 24  1  0
 23 22  1  0
 24 20  1  0
 24 25  1  1
 26 25  1  0
 27 25  2  0
M  END
$$$$
