AMP.pdb
     RDKit          3D

 21 21  0  0  1  0  0  0  0  0999 V2000
   10.8781  -18.0673   21.7736 C   0  0  0  0  0  0  0  0  0  0  0  0
   10.2077  -16.7964   21.3734 C   0  0  2  0  0  0  0  0  0  0  0  0
   10.9284  -16.0414   20.3780 N   0  0  0  0  0  0  0  0  0  0  0  0
   10.0090  -15.9619   22.6268 C   0  0  0  0  0  0  0  0  0  0  0  0
   10.9342  -15.1410   22.8341 O   0  0  0  0  0  0  0  0  0  0  0  0
    5.9273  -11.5398   26.7255 C   0  0  0  0  0  0  0  0  0  0  0  0
    6.7763  -12.4472   25.3821 S   0  0  0  0  0  0  0  0  0  0  0  0
    6.4851  -14.2332   25.5625 C   0  0  0  0  0  0  0  0  0  0  0  0
    7.1685  -15.0637   24.5609 C   0  0  0  0  0  0  0  0  0  0  0  0
    8.6322  -15.2082   24.5427 C   0  0  2  0  0  0  0  0  0  0  0  0
    8.8654  -16.1546   23.4260 N   0  0  0  0  0  0  0  0  0  0  0  0
    9.3408  -15.7622   25.6805 C   0  0  0  0  0  0  0  0  0  0  0  0
    9.7108  -17.0172   25.5832 O   0  0  0  0  0  0  0  0  0  0  0  0
    9.7237  -15.2010   26.9017 N   0  0  0  0  0  0  0  0  0  0  0  0
    9.2930  -13.8546   27.3239 C   0  0  0  0  0  0  0  0  0  0  0  0
   10.3259  -13.4282   28.3431 C   0  0  0  0  0  0  0  0  0  0  0  0
   10.5199  -14.7101   29.1015 C   0  0  0  0  0  0  0  0  0  0  0  0
   10.5097  -15.7488   27.9614 C   0  0  1  0  0  0  0  0  0  0  0  0
    9.8746  -16.9477   28.5811 C   0  0  0  0  0  0  0  0  0  0  0  0
   10.5901  -17.7286   29.4634 O   0  0  0  0  0  0  0  0  0  0  0  0
    8.6987  -17.2472   28.3044 O   0  0  0  0  0  0  0  0  0  0  0  0
  2  1  1  1
  3  2  1  0
  4  2  1  0
  4 11  1  0
  5  4  2  0
  7  6  1  0
  8  7  1  0
  9  8  1  0
 10  9  1  1
 10 11  1  0
 10 12  1  0
 12 14  1  0
 13 12  2  0
 14 15  1  0
 14 18  1  0
 15 16  1  0
 16 17  1  0
 18 19  1  1
 18 17  1  0
 19 20  1  0
 21 19  2  0
M  END
$$$$
