AMP.pdb
     RDKit          3D

 21 21  0  0  1  0  0  0  0  0999 V2000
    7.2091  -20.2222   23.1891 C   0  0  0  0  0  0  0  0  0  0  0  0
    6.0926  -19.5323   23.8979 C   0  0  2  0  0  0  0  0  0  0  0  0
    4.7819  -20.0113   23.5337 N   0  0  0  0  0  0  0  0  0  0  0  0
    6.2094  -18.0453   23.6110 C   0  0  0  0  0  0  0  0  0  0  0  0
    5.5232  -17.6687   22.6311 O   0  0  0  0  0  0  0  0  0  0  0  0
    6.5847  -11.3418   27.2495 C   0  0  0  0  0  0  0  0  0  0  0  0
    7.6399  -12.7235   26.6782 S   0  0  0  0  0  0  0  0  0  0  0  0
    6.6156  -13.9893   25.8681 C   0  0  0  0  0  0  0  0  0  0  0  0
    7.3599  -15.1719   25.4127 C   0  0  0  0  0  0  0  0  0  0  0  0
    7.1064  -15.7896   24.1021 C   0  0  2  0  0  0  0  0  0  0  0  0
    7.0326  -17.2360   24.4177 N   0  0  0  0  0  0  0  0  0  0  0  0
    8.0694  -15.6721   23.0239 C   0  0  0  0  0  0  0  0  0  0  0  0
    8.9836  -16.6105   22.9530 O   0  0  0  0  0  0  0  0  0  0  0  0
    8.2178  -14.7246   22.0076 N   0  0  0  0  0  0  0  0  0  0  0  0
    7.3204  -13.5613   21.8726 C   0  0  0  0  0  0  0  0  0  0  0  0
    7.4435  -13.1537   20.4214 C   0  0  0  0  0  0  0  0  0  0  0  0
    8.9208  -13.3194   20.2061 C   0  0  0  0  0  0  0  0  0  0  0  0
    9.2012  -14.6261   20.9761 C   0  0  1  0  0  0  0  0  0  0  0  0
   10.5772  -14.4294   21.5170 C   0  0  0  0  0  0  0  0  0  0  0  0
   11.6686  -14.5391   20.6822 O   0  0  0  0  0  0  0  0  0  0  0  0
   10.7448  -14.1661   22.7219 O   0  0  0  0  0  0  0  0  0  0  0  0
  2  1  1  6
  3  2  1  0
  4  2  1  0
  4 11  1  0
  5  4  2  0
  7  6  1  0
  8  7  1  0
  9  8  1  0
 10  9  1  1
 10 11  1  0
 10 12  1  0
 12 14  1  0
 13 12  2  0
 14 15  1  0
 14 18  1  0
 15 16  1  0
 16 17  1  0
 18 19  1  1
 18 17  1  0
 19 20  1  0
 21 19  2  0
M  END
$$$$
