AMP.pdb
     RDKit          3D

 21 21  0  0  1  0  0  0  0  0999 V2000
   10.3021  -17.6766   21.8098 C   0  0  0  0  0  0  0  0  0  0  0  0
    9.6690  -16.3801   21.4314 C   0  0  2  0  0  0  0  0  0  0  0  0
   10.4044  -15.6361   20.4386 N   0  0  0  0  0  0  0  0  0  0  0  0
    9.5084  -15.5554   22.6968 C   0  0  0  0  0  0  0  0  0  0  0  0
   10.4045  -14.6914   22.8488 O   0  0  0  0  0  0  0  0  0  0  0  0
    6.0715  -11.4920   25.2046 C   0  0  0  0  0  0  0  0  0  0  0  0
    6.7073  -12.5516   26.5544 S   0  0  0  0  0  0  0  0  0  0  0  0
    6.3002  -14.2918   26.2180 C   0  0  0  0  0  0  0  0  0  0  0  0
    6.8741  -14.8193   24.9720 C   0  0  0  0  0  0  0  0  0  0  0  0
    8.3251  -14.9839   24.7962 C   0  0  2  0  0  0  0  0  0  0  0  0
    8.4265  -15.8019   23.5642 N   0  0  0  0  0  0  0  0  0  0  0  0
    9.1231  -15.6737   25.7916 C   0  0  0  0  0  0  0  0  0  0  0  0
    9.3176  -16.9566   25.5973 O   0  0  0  0  0  0  0  0  0  0  0  0
    9.7509  -15.2239   26.9562 N   0  0  0  0  0  0  0  0  0  0  0  0
    9.6098  -13.8399   27.4476 C   0  0  0  0  0  0  0  0  0  0  0  0
   10.8239  -13.6226   28.3230 C   0  0  0  0  0  0  0  0  0  0  0  0
   10.8991  -14.9436   29.0340 C   0  0  0  0  0  0  0  0  0  0  0  0
   10.5666  -15.9280   27.8941 C   0  0  1  0  0  0  0  0  0  0  0  0
    9.8273  -17.0267   28.5805 C   0  0  0  0  0  0  0  0  0  0  0  0
   10.5012  -17.8998   29.4074 O   0  0  0  0  0  0  0  0  0  0  0  0
    8.6016  -17.1593   28.4093 O   0  0  0  0  0  0  0  0  0  0  0  0
  2  1  1  1
  3  2  1  0
  4  2  1  0
  4 11  1  0
  5  4  2  0
  7  6  1  0
  8  7  1  0
  9  8  1  0
 10  9  1  1
 10 11  1  0
 10 12  1  0
 12 14  1  0
 13 12  2  0
 14 15  1  0
 14 18  1  0
 15 16  1  0
 16 17  1  0
 18 19  1  1
 18 17  1  0
 19 20  1  0
 21 19  2  0
M  END
$$$$
