AMP.pdb
     RDKit          3D

 21 21  0  0  1  0  0  0  0  0999 V2000
    5.0338  -20.1574   23.7074 C   0  0  0  0  0  0  0  0  0  0  0  0
    6.4275  -19.6471   23.5581 C   0  0  2  0  0  0  0  0  0  0  0  0
    7.2775  -19.9232   24.6901 N   0  0  0  0  0  0  0  0  0  0  0  0
    6.3498  -18.1508   23.3093 C   0  0  0  0  0  0  0  0  0  0  0  0
    5.6809  -17.8459   22.2933 O   0  0  0  0  0  0  0  0  0  0  0  0
    8.0400  -11.6103   26.9174 C   0  0  0  0  0  0  0  0  0  0  0  0
    7.0307  -13.1297   27.0642 S   0  0  0  0  0  0  0  0  0  0  0  0
    6.6374  -13.7726   25.4090 C   0  0  0  0  0  0  0  0  0  0  0  0
    7.0200  -15.1755   25.1963 C   0  0  0  0  0  0  0  0  0  0  0  0
    6.9324  -15.8103   23.8724 C   0  0  2  0  0  0  0  0  0  0  0  0
    6.9965  -17.2577   24.1856 N   0  0  0  0  0  0  0  0  0  0  0  0
    7.9522  -15.5812   22.8668 C   0  0  0  0  0  0  0  0  0  0  0  0
    8.9484  -16.4345   22.8408 O   0  0  0  0  0  0  0  0  0  0  0  0
    8.0850  -14.5976   21.8831 N   0  0  0  0  0  0  0  0  0  0  0  0
    7.1516  -13.4607   21.7693 C   0  0  0  0  0  0  0  0  0  0  0  0
    7.2840  -13.0036   20.3337 C   0  0  0  0  0  0  0  0  0  0  0  0
    8.7691  -13.1139   20.1382 C   0  0  0  0  0  0  0  0  0  0  0  0
    9.0806  -14.4344   20.8717 C   0  0  1  0  0  0  0  0  0  0  0  0
   10.4406  -14.2099   21.4416 C   0  0  0  0  0  0  0  0  0  0  0  0
   11.5450  -14.2247   20.6167 O   0  0  0  0  0  0  0  0  0  0  0  0
   10.5833  -14.0090   22.6616 O   0  0  0  0  0  0  0  0  0  0  0  0
  2  1  1  1
  3  2  1  0
  4  2  1  0
  4 11  1  0
  5  4  2  0
  7  6  1  0
  8  7  1  0
  9  8  1  0
 10  9  1  1
 10 11  1  0
 10 12  1  0
 12 14  1  0
 13 12  2  0
 14 15  1  0
 14 18  1  0
 15 16  1  0
 16 17  1  0
 18 19  1  1
 18 17  1  0
 19 20  1  0
 21 19  2  0
M  END
$$$$
