AMP.pdb
     RDKit          3D

 21 21  0  0  1  0  0  0  0  0999 V2000
    7.2253  -19.8703   23.0940 C   0  0  0  0  0  0  0  0  0  0  0  0
    6.0897  -19.2019   23.7928 C   0  0  2  0  0  0  0  0  0  0  0  0
    4.7900  -19.6799   23.3897 N   0  0  0  0  0  0  0  0  0  0  0  0
    6.2039  -17.7084   23.5406 C   0  0  0  0  0  0  0  0  0  0  0  0
    5.3935  -17.2815   22.6840 O   0  0  0  0  0  0  0  0  0  0  0  0
    6.3054  -12.5197   27.6012 C   0  0  0  0  0  0  0  0  0  0  0  0
    6.6578  -12.3751   25.8113 S   0  0  0  0  0  0  0  0  0  0  0  0
    8.0153  -13.4965   25.3561 C   0  0  0  0  0  0  0  0  0  0  0  0
    7.6220  -14.9073   25.2348 C   0  0  0  0  0  0  0  0  0  0  0  0
    7.2503  -15.4995   23.9407 C   0  0  2  0  0  0  0  0  0  0  0  0
    7.1570  -16.9472   24.2448 N   0  0  0  0  0  0  0  0  0  0  0  0
    8.1310  -15.3958   22.7930 C   0  0  0  0  0  0  0  0  0  0  0  0
    9.0299  -16.3421   22.6597 O   0  0  0  0  0  0  0  0  0  0  0  0
    8.2107  -14.4549   21.7629 N   0  0  0  0  0  0  0  0  0  0  0  0
    7.3916  -13.2279   21.7464 C   0  0  0  0  0  0  0  0  0  0  0  0
    7.3478  -12.8208   20.2904 C   0  0  0  0  0  0  0  0  0  0  0  0
    8.7663  -13.0932   19.8784 C   0  0  0  0  0  0  0  0  0  0  0  0
    9.0506  -14.4222   20.6078 C   0  0  1  0  0  0  0  0  0  0  0  0
   10.4977  -14.3309   20.9576 C   0  0  0  0  0  0  0  0  0  0  0  0
   10.8798  -14.1449   22.2690 O   0  0  0  0  0  0  0  0  0  0  0  0
   11.3640  -14.4219   20.0686 O   0  0  0  0  0  0  0  0  0  0  0  0
  2  1  1  6
  3  2  1  0
  4  2  1  0
  4 11  1  0
  5  4  2  0
  7  6  1  0
  8  7  1  0
  9  8  1  0
 10  9  1  1
 10 11  1  0
 10 12  1  0
 12 14  1  0
 13 12  2  0
 14 15  1  0
 14 18  1  0
 15 16  1  0
 16 17  1  0
 18 19  1  1
 18 17  1  0
 19 20  1  0
 21 19  2  0
M  END
$$$$
