AMP.pdb
     RDKit          3D

 21 21  0  0  1  0  0  0  0  0999 V2000
    7.4174  -18.3133   20.5889 C   0  0  0  0  0  0  0  0  0  0  0  0
    7.2980  -16.8325   20.4549 C   0  0  2  0  0  0  0  0  0  0  0  0
    7.8987  -16.3018   19.2559 N   0  0  0  0  0  0  0  0  0  0  0  0
    7.9294  -16.2028   21.6845 C   0  0  0  0  0  0  0  0  0  0  0  0
    9.1111  -15.8242   21.5028 O   0  0  0  0  0  0  0  0  0  0  0  0
    7.6916  -11.6209   27.4671 C   0  0  0  0  0  0  0  0  0  0  0  0
    7.4923  -12.3885   25.8179 S   0  0  0  0  0  0  0  0  0  0  0  0
    6.8401  -14.0767   25.9967 C   0  0  0  0  0  0  0  0  0  0  0  0
    6.6763  -14.8014   24.7287 C   0  0  0  0  0  0  0  0  0  0  0  0
    7.8209  -15.4000   24.0250 C   0  0  2  0  0  0  0  0  0  0  0  0
    7.1884  -16.0926   22.8772 N   0  0  0  0  0  0  0  0  0  0  0  0
    8.6561  -16.3943   24.6712 C   0  0  0  0  0  0  0  0  0  0  0  0
    8.1046  -17.5635   24.8952 O   0  0  0  0  0  0  0  0  0  0  0  0
    9.9807  -16.3513   25.1142 N   0  0  0  0  0  0  0  0  0  0  0  0
   10.8250  -15.1500   24.9704 C   0  0  0  0  0  0  0  0  0  0  0  0
   12.2427  -15.6742   25.0246 C   0  0  0  0  0  0  0  0  0  0  0  0
   12.1231  -16.6992   26.1159 C   0  0  0  0  0  0  0  0  0  0  0  0
   10.7588  -17.3408   25.7898 C   0  0  1  0  0  0  0  0  0  0  0  0
   10.2019  -17.6871   27.1294 C   0  0  0  0  0  0  0  0  0  0  0  0
    9.2389  -16.8855   27.7041 O   0  0  0  0  0  0  0  0  0  0  0  0
   10.6037  -18.6991   27.7323 O   0  0  0  0  0  0  0  0  0  0  0  0
  2  1  1  1
  3  2  1  0
  4  2  1  0
  4 11  1  0
  5  4  2  0
  7  6  1  0
  8  7  1  0
  9  8  1  0
 10  9  1  1
 10 11  1  0
 10 12  1  0
 12 14  1  0
 13 12  2  0
 14 15  1  0
 14 18  1  0
 15 16  1  0
 16 17  1  0
 18 19  1  1
 18 17  1  0
 19 20  1  0
 21 19  2  0
M  END
$$$$
