AMP.pdb
     RDKit          3D

 21 21  0  0  1  0  0  0  0  0999 V2000
    6.3746  -20.1991   22.6404 C   0  0  0  0  0  0  0  0  0  0  0  0
    5.3485  -19.4855   23.4545 C   0  0  2  0  0  0  0  0  0  0  0  0
    3.9930  -19.7066   23.0144 N   0  0  0  0  0  0  0  0  0  0  0  0
    5.6787  -18.0032   23.4217 C   0  0  0  0  0  0  0  0  0  0  0  0
    5.0608  -17.3719   22.5316 O   0  0  0  0  0  0  0  0  0  0  0  0
    6.6460  -11.5898   27.0743 C   0  0  0  0  0  0  0  0  0  0  0  0
    7.5864  -12.9944   26.3731 S   0  0  0  0  0  0  0  0  0  0  0  0
    6.5021  -14.4457   26.2133 C   0  0  0  0  0  0  0  0  0  0  0  0
    7.1530  -15.6283   25.6322 C   0  0  0  0  0  0  0  0  0  0  0  0
    6.9305  -16.0265   24.2338 C   0  0  2  0  0  0  0  0  0  0  0  0
    6.6030  -17.4682   24.3399 N   0  0  0  0  0  0  0  0  0  0  0  0
    7.9970  -15.9377   23.2547 C   0  0  0  0  0  0  0  0  0  0  0  0
    8.8944  -16.8944   23.2808 O   0  0  0  0  0  0  0  0  0  0  0  0
    8.2637  -15.0024   22.2513 N   0  0  0  0  0  0  0  0  0  0  0  0
    7.4022  -13.8286   22.0138 C   0  0  0  0  0  0  0  0  0  0  0  0
    7.6812  -13.4372   20.5798 C   0  0  0  0  0  0  0  0  0  0  0  0
    9.1702  -13.6250   20.5206 C   0  0  0  0  0  0  0  0  0  0  0  0
    9.3502  -14.9277   21.3267 C   0  0  1  0  0  0  0  0  0  0  0  0
   10.6653  -14.7442   22.0060 C   0  0  0  0  0  0  0  0  0  0  0  0
   11.8357  -14.8738   21.2893 O   0  0  0  0  0  0  0  0  0  0  0  0
   10.7110  -14.4741   23.2201 O   0  0  0  0  0  0  0  0  0  0  0  0
  2  1  1  6
  3  2  1  0
  4  2  1  0
  4 11  1  0
  5  4  2  0
  7  6  1  0
  8  7  1  0
  9  8  1  0
 10  9  1  1
 10 11  1  0
 10 12  1  0
 12 14  1  0
 13 12  2  0
 14 15  1  0
 14 18  1  0
 15 16  1  0
 16 17  1  0
 18 19  1  1
 18 17  1  0
 19 20  1  0
 21 19  2  0
M  END
$$$$
