AMP.pdb
     RDKit          3D

 21 21  0  0  1  0  0  0  0  0999 V2000
    7.6454  -20.2458   23.9503 C   0  0  0  0  0  0  0  0  0  0  0  0
    6.5810  -19.5892   24.7632 C   0  0  2  0  0  0  0  0  0  0  0  0
    5.2779  -20.1900   24.6184 N   0  0  0  0  0  0  0  0  0  0  0  0
    6.5329  -18.1234   24.3679 C   0  0  0  0  0  0  0  0  0  0  0  0
    5.7636  -17.8890   23.4056 O   0  0  0  0  0  0  0  0  0  0  0  0
    5.6183  -11.7967   26.6412 C   0  0  0  0  0  0  0  0  0  0  0  0
    7.1581  -12.6431   27.1527 S   0  0  0  0  0  0  0  0  0  0  0  0
    7.8597  -13.5541   25.7437 C   0  0  0  0  0  0  0  0  0  0  0  0
    7.6414  -15.0067   25.7911 C   0  0  0  0  0  0  0  0  0  0  0  0
    7.2997  -15.7785   24.5865 C   0  0  2  0  0  0  0  0  0  0  0  0
    7.3104  -17.1804   25.0679 N   0  0  0  0  0  0  0  0  0  0  0  0
    8.1604  -15.7582   23.4192 C   0  0  0  0  0  0  0  0  0  0  0  0
    9.1130  -16.6595   23.3805 O   0  0  0  0  0  0  0  0  0  0  0  0
    8.1723  -14.9409   22.2858 N   0  0  0  0  0  0  0  0  0  0  0  0
    7.2463  -13.8044   22.1194 C   0  0  0  0  0  0  0  0  0  0  0  0
    7.1907  -13.5760   20.6254 C   0  0  0  0  0  0  0  0  0  0  0  0
    8.6348  -13.7638   20.2573 C   0  0  0  0  0  0  0  0  0  0  0  0
    9.0254  -14.9667   21.1401 C   0  0  1  0  0  0  0  0  0  0  0  0
   10.4522  -14.7030   21.4857 C   0  0  0  0  0  0  0  0  0  0  0  0
   11.4302  -14.8318   20.5228 O   0  0  0  0  0  0  0  0  0  0  0  0
   10.7646  -14.3666   22.6426 O   0  0  0  0  0  0  0  0  0  0  0  0
  2  1  1  6
  3  2  1  0
  4  2  1  0
  4 11  1  0
  5  4  2  0
  7  6  1  0
  8  7  1  0
  9  8  1  0
 10  9  1  1
 10 11  1  0
 10 12  1  0
 12 14  1  0
 13 12  2  0
 14 15  1  0
 14 18  1  0
 15 16  1  0
 16 17  1  0
 18 19  1  1
 18 17  1  0
 19 20  1  0
 21 19  2  0
M  END
$$$$
