AMP.pdb
     RDKit          3D

 21 21  0  0  1  0  0  0  0  0999 V2000
    5.4540  -19.2201   22.7706 C   0  0  0  0  0  0  0  0  0  0  0  0
    5.2633  -17.8262   22.2752 C   0  0  2  0  0  0  0  0  0  0  0  0
    5.1508  -17.7237   20.8410 N   0  0  0  0  0  0  0  0  0  0  0  0
    6.4312  -16.9927   22.7736 C   0  0  0  0  0  0  0  0  0  0  0  0
    7.3750  -16.9107   21.9519 O   0  0  0  0  0  0  0  0  0  0  0  0
    5.3925  -11.9210   26.6470 C   0  0  0  0  0  0  0  0  0  0  0  0
    7.2013  -12.0321   26.3920 S   0  0  0  0  0  0  0  0  0  0  0  0
    7.7092  -13.7769   26.3198 C   0  0  0  0  0  0  0  0  0  0  0  0
    6.8993  -14.6078   25.4178 C   0  0  0  0  0  0  0  0  0  0  0  0
    7.5149  -15.5448   24.4657 C   0  0  2  0  0  0  0  0  0  0  0  0
    6.3789  -16.4019   24.0511 N   0  0  0  0  0  0  0  0  0  0  0  0
    8.5606  -16.4568   24.8880 C   0  0  0  0  0  0  0  0  0  0  0  0
    8.1813  -17.4884   25.6045 O   0  0  0  0  0  0  0  0  0  0  0  0
    9.9411  -16.4548   24.6707 N   0  0  0  0  0  0  0  0  0  0  0  0
   10.6201  -15.3936   23.9030 C   0  0  0  0  0  0  0  0  0  0  0  0
   11.9085  -16.0310   23.4327 C   0  0  0  0  0  0  0  0  0  0  0  0
   12.3062  -16.8017   24.6590 C   0  0  0  0  0  0  0  0  0  0  0  0
   10.9470  -17.3604   25.1278 C   0  0  1  0  0  0  0  0  0  0  0  0
   11.0657  -17.3775   26.6145 C   0  0  0  0  0  0  0  0  0  0  0  0
   11.8784  -18.3049   27.2308 O   0  0  0  0  0  0  0  0  0  0  0  0
   10.4326  -16.5564   27.3030 O   0  0  0  0  0  0  0  0  0  0  0  0
  2  1  1  6
  3  2  1  0
  4  2  1  0
  4 11  1  0
  5  4  2  0
  7  6  1  0
  8  7  1  0
  9  8  1  0
 10  9  1  1
 10 11  1  0
 10 12  1  0
 12 14  1  0
 13 12  2  0
 14 15  1  0
 14 18  1  0
 15 16  1  0
 16 17  1  0
 18 19  1  1
 18 17  1  0
 19 20  1  0
 21 19  2  0
M  END
$$$$
