AMP.pdb
     RDKit          3D

 21 21  0  0  1  0  0  0  0  0999 V2000
    6.1928  -20.2049   22.6429 C   0  0  0  0  0  0  0  0  0  0  0  0
    5.1589  -19.4046   23.3609 C   0  0  2  0  0  0  0  0  0  0  0  0
    3.8226  -19.5763   22.8464 N   0  0  0  0  0  0  0  0  0  0  0  0
    5.5689  -17.9440   23.2874 C   0  0  0  0  0  0  0  0  0  0  0  0
    5.0307  -17.3194   22.3425 O   0  0  0  0  0  0  0  0  0  0  0  0
    6.8905  -11.6113   27.2581 C   0  0  0  0  0  0  0  0  0  0  0  0
    7.6384  -13.2296   26.8447 S   0  0  0  0  0  0  0  0  0  0  0  0
    6.4005  -14.2969   26.0473 C   0  0  0  0  0  0  0  0  0  0  0  0
    6.9292  -15.5771   25.5561 C   0  0  0  0  0  0  0  0  0  0  0  0
    6.8049  -15.9769   24.1461 C   0  0  2  0  0  0  0  0  0  0  0  0
    6.4737  -17.4192   24.2307 N   0  0  0  0  0  0  0  0  0  0  0  0
    7.9364  -15.8868   23.2432 C   0  0  0  0  0  0  0  0  0  0  0  0
    8.8031  -16.8705   23.2934 O   0  0  0  0  0  0  0  0  0  0  0  0
    8.2956  -14.9261   22.2940 N   0  0  0  0  0  0  0  0  0  0  0  0
    7.5186  -13.6892   22.0864 C   0  0  0  0  0  0  0  0  0  0  0  0
    7.8700  -13.2519   20.6819 C   0  0  0  0  0  0  0  0  0  0  0  0
    9.3453  -13.5330   20.6596 C   0  0  0  0  0  0  0  0  0  0  0  0
    9.4151  -14.8800   21.4078 C   0  0  1  0  0  0  0  0  0  0  0  0
   10.7156  -14.8134   22.1351 C   0  0  0  0  0  0  0  0  0  0  0  0
   11.8990  -14.9835   21.4489 O   0  0  0  0  0  0  0  0  0  0  0  0
   10.7373  -14.6045   23.3619 O   0  0  0  0  0  0  0  0  0  0  0  0
  2  1  1  6
  3  2  1  0
  4  2  1  0
  4 11  1  0
  5  4  2  0
  7  6  1  0
  8  7  1  0
  9  8  1  0
 10  9  1  1
 10 11  1  0
 10 12  1  0
 12 14  1  0
 13 12  2  0
 14 15  1  0
 14 18  1  0
 15 16  1  0
 16 17  1  0
 18 19  1  1
 18 17  1  0
 19 20  1  0
 21 19  2  0
M  END
$$$$
