GPM.pdb
     RDKit          3D

 20 20  0  0  1  0  0  0  0  0999 V2000
   12.0771  -13.9317   19.3159 N   0  0  0  0  0  0  0  0  0  0  0  0
   11.6993  -15.2576   19.6119 C   0  0  0  0  0  0  0  0  0  0  0  0
   10.8662  -15.5220   20.7655 C   0  0  0  0  0  0  0  0  0  0  0  0
   11.1328  -14.8013   21.8055 O   0  0  0  0  0  0  0  0  0  0  0  0
    9.8302  -16.4343   20.9045 N   0  0  0  0  0  0  0  0  0  0  0  0
    9.0449  -17.0194   19.8396 C   0  0  0  0  0  0  0  0  0  0  0  0
    9.1924  -18.5174   20.1721 C   0  0  0  0  0  0  0  0  0  0  0  0
    9.0832  -18.4844   21.6777 C   0  0  0  0  0  0  0  0  0  0  0  0
    9.2816  -17.0553   22.1044 C   0  0  1  0  0  0  0  0  0  0  0  0
   10.0757  -16.9490   23.3083 C   0  0  0  0  0  0  0  0  0  0  0  0
   11.2310  -17.4993   23.3827 O   0  0  0  0  0  0  0  0  0  0  0  0
   10.1395  -12.8849   28.8961 C   0  0  0  0  0  0  0  0  0  0  0  0
    9.9549  -14.6121   29.4136 S   0  0  0  0  0  0  0  0  0  0  0  0
   10.6387  -15.6668   28.1032 C   0  0  0  0  0  0  0  0  0  0  0  0
    9.8598  -15.4682   26.8100 C   0  0  0  0  0  0  0  0  0  0  0  0
   10.4702  -16.3180   25.7171 C   0  0  2  0  0  0  0  0  0  0  0  0
    9.6916  -16.2595   24.4974 N   0  0  0  0  0  0  0  0  0  0  0  0
   10.5596  -17.7291   26.1375 C   0  0  0  0  0  0  0  0  0  0  0  0
    9.4670  -18.5581   26.0159 O   0  0  0  0  0  0  0  0  0  0  0  0
   11.6256  -18.1921   26.6089 O   0  0  0  0  0  0  0  0  0  0  0  0
  2  1  1  0
  3  2  1  0
  4  3  2  0
  5  9  1  0
  5  3  1  0
  6  5  1  0
  7  6  1  0
  7  8  1  0
  8  9  1  0
  9 10  1  1
 10 17  1  0
 10 11  2  0
 13 12  1  0
 14 15  1  0
 14 13  1  0
 16 15  1  1
 16 18  1  0
 17 16  1  0
 18 20  2  0
 18 19  1  0
M  END
$$$$
