GPM.pdb
     RDKit          3D

 20 20  0  0  1  0  0  0  0  0999 V2000
   14.2545  -17.5119   19.8542 N   0  0  0  0  0  0  0  0  0  0  0  0
   13.2364  -18.2544   20.4871 C   0  0  0  0  0  0  0  0  0  0  0  0
   12.4461  -17.6373   21.5307 C   0  0  0  0  0  0  0  0  0  0  0  0
   13.1194  -16.9221   22.3718 O   0  0  0  0  0  0  0  0  0  0  0  0
   11.0776  -17.7078   21.7479 N   0  0  0  0  0  0  0  0  0  0  0  0
   10.0596  -17.9972   20.7616 C   0  0  0  0  0  0  0  0  0  0  0  0
    9.3093  -19.1476   21.4614 C   0  0  0  0  0  0  0  0  0  0  0  0
    9.2962  -18.6502   22.8870 C   0  0  0  0  0  0  0  0  0  0  0  0
   10.3135  -17.5454   22.9793 C   0  0  1  0  0  0  0  0  0  0  0  0
   11.0620  -17.5928   24.2157 C   0  0  0  0  0  0  0  0  0  0  0  0
   11.9314  -18.5120   24.4213 O   0  0  0  0  0  0  0  0  0  0  0  0
    8.7552  -13.1440   29.1696 C   0  0  0  0  0  0  0  0  0  0  0  0
   10.4561  -13.5382   28.6836 S   0  0  0  0  0  0  0  0  0  0  0  0
   10.4137  -15.0351   27.6565 C   0  0  0  0  0  0  0  0  0  0  0  0
   11.8185  -15.3899   27.1881 C   0  0  0  0  0  0  0  0  0  0  0  0
   11.7895  -16.7191   26.4659 C   0  0  2  0  0  0  0  0  0  0  0  0
   10.9303  -16.6752   25.3009 N   0  0  0  0  0  0  0  0  0  0  0  0
   11.3019  -17.7896   27.3559 C   0  0  0  0  0  0  0  0  0  0  0  0
   10.0294  -18.2922   27.2015 O   0  0  0  0  0  0  0  0  0  0  0  0
   12.0347  -18.2553   28.2610 O   0  0  0  0  0  0  0  0  0  0  0  0
  2  1  1  0
  3  2  1  0
  4  3  2  0
  5  9  1  0
  5  3  1  0
  6  5  1  0
  7  6  1  0
  7  8  1  0
  8  9  1  0
  9 10  1  1
 10 17  1  0
 10 11  2  0
 13 12  1  0
 14 15  1  0
 14 13  1  0
 16 15  1  1
 16 18  1  0
 17 16  1  0
 18 20  2  0
 18 19  1  0
M  END
$$$$
