GPM.pdb
     RDKit          3D

 20 20  0  0  1  0  0  0  0  0999 V2000
    7.8979  -18.6092   19.0431 N   0  0  0  0  0  0  0  0  0  0  0  0
    7.3409  -17.4422   19.6055 C   0  0  0  0  0  0  0  0  0  0  0  0
    8.2095  -16.4606   20.2192 C   0  0  0  0  0  0  0  0  0  0  0  0
    9.0896  -16.9462   21.0328 O   0  0  0  0  0  0  0  0  0  0  0  0
    8.2259  -15.0832   20.0535 N   0  0  0  0  0  0  0  0  0  0  0  0
    7.7018  -14.3418   18.9273 C   0  0  0  0  0  0  0  0  0  0  0  0
    6.7960  -13.3287   19.6549 C   0  0  0  0  0  0  0  0  0  0  0  0
    7.6579  -12.9835   20.8455 C   0  0  0  0  0  0  0  0  0  0  0  0
    8.7273  -14.0378   20.9379 C   0  0  1  0  0  0  0  0  0  0  0  0
    8.9993  -14.4229   22.3050 C   0  0  0  0  0  0  0  0  0  0  0  0
   10.1867  -14.7327   22.6754 O   0  0  0  0  0  0  0  0  0  0  0  0
    6.3296  -11.1911   27.7595 C   0  0  0  0  0  0  0  0  0  0  0  0
    5.6434  -12.2646   26.4705 S   0  0  0  0  0  0  0  0  0  0  0  0
    7.0125  -12.8189   25.4142 C   0  0  0  0  0  0  0  0  0  0  0  0
    7.3261  -14.2836   25.6875 C   0  0  0  0  0  0  0  0  0  0  0  0
    8.3976  -14.7578   24.7303 C   0  0  2  0  0  0  0  0  0  0  0  0
    8.0327  -14.5042   23.3520 N   0  0  0  0  0  0  0  0  0  0  0  0
    8.6351  -16.2056   24.8834 C   0  0  0  0  0  0  0  0  0  0  0  0
    9.5256  -16.6648   25.8278 O   0  0  0  0  0  0  0  0  0  0  0  0
    8.0329  -17.0348   24.1604 O   0  0  0  0  0  0  0  0  0  0  0  0
  2  1  1  0
  3  2  1  0
  4  3  2  0
  5  9  1  0
  5  3  1  0
  6  5  1  0
  7  6  1  0
  7  8  1  0
  8  9  1  0
  9 10  1  1
 10 17  1  0
 10 11  2  0
 13 12  1  0
 14 15  1  0
 14 13  1  0
 16 15  1  1
 16 18  1  0
 17 16  1  0
 18 20  2  0
 18 19  1  0
M  END
$$$$
