GPM.pdb
     RDKit          3D

 20 20  0  0  1  0  0  0  0  0999 V2000
    9.5212  -17.8832   18.2350 N   0  0  0  0  0  0  0  0  0  0  0  0
    8.5248  -17.1390   18.8997 C   0  0  0  0  0  0  0  0  0  0  0  0
    8.9075  -16.1758   19.9097 C   0  0  0  0  0  0  0  0  0  0  0  0
    9.6661  -16.6430   20.8471 O   0  0  0  0  0  0  0  0  0  0  0  0
    8.5748  -14.8324   20.0067 N   0  0  0  0  0  0  0  0  0  0  0  0
    8.2853  -13.9323   18.9118 C   0  0  0  0  0  0  0  0  0  0  0  0
    6.9267  -13.3638   19.3669 C   0  0  0  0  0  0  0  0  0  0  0  0
    7.1740  -13.1918   20.8464 C   0  0  0  0  0  0  0  0  0  0  0  0
    8.4028  -13.9912   21.1854 C   0  0  1  0  0  0  0  0  0  0  0  0
    8.2786  -14.6736   22.4543 C   0  0  0  0  0  0  0  0  0  0  0  0
    7.4517  -15.6421   22.6001 O   0  0  0  0  0  0  0  0  0  0  0  0
    6.0997  -10.5891   26.8944 C   0  0  0  0  0  0  0  0  0  0  0  0
    6.2795  -12.3925   26.8741 S   0  0  0  0  0  0  0  0  0  0  0  0
    6.9897  -12.8677   25.2718 C   0  0  0  0  0  0  0  0  0  0  0  0
    7.1181  -14.3824   25.1834 C   0  0  0  0  0  0  0  0  0  0  0  0
    8.5673  -14.7540   24.9576 C   0  0  2  0  0  0  0  0  0  0  0  0
    9.0178  -14.3682   23.6364 N   0  0  0  0  0  0  0  0  0  0  0  0
    8.7652  -16.2084   25.1037 C   0  0  0  0  0  0  0  0  0  0  0  0
    9.7697  -16.6926   25.9113 O   0  0  0  0  0  0  0  0  0  0  0  0
    8.0259  -17.0208   24.4983 O   0  0  0  0  0  0  0  0  0  0  0  0
  2  1  1  0
  3  2  1  0
  4  3  2  0
  5  9  1  0
  5  3  1  0
  6  5  1  0
  7  6  1  0
  7  8  1  0
  8  9  1  0
  9 10  1  1
 10 17  1  0
 10 11  2  0
 13 12  1  0
 14 15  1  0
 14 13  1  0
 16 15  1  6
 16 18  1  0
 17 16  1  0
 18 20  2  0
 18 19  1  0
M  END
$$$$
