GPM.pdb
     RDKit          3D

 20 20  0  0  1  0  0  0  0  0999 V2000
    8.1520  -18.1041   18.3614 N   0  0  0  0  0  0  0  0  0  0  0  0
    7.4480  -17.0881   19.0401 C   0  0  0  0  0  0  0  0  0  0  0  0
    8.1486  -16.2395   19.9801 C   0  0  0  0  0  0  0  0  0  0  0  0
    8.6767  -16.8603   20.9841 O   0  0  0  0  0  0  0  0  0  0  0  0
    8.3290  -14.8643   19.9495 N   0  0  0  0  0  0  0  0  0  0  0  0
    8.3869  -14.0261   18.7717 C   0  0  0  0  0  0  0  0  0  0  0  0
    7.3299  -12.9632   19.1311 C   0  0  0  0  0  0  0  0  0  0  0  0
    7.6244  -12.7566   20.5975 C   0  0  0  0  0  0  0  0  0  0  0  0
    8.4771  -13.9128   21.0446 C   0  0  1  0  0  0  0  0  0  0  0  0
    8.1137  -14.3828   22.3630 C   0  0  0  0  0  0  0  0  0  0  0  0
    6.8854  -14.5721   22.6765 O   0  0  0  0  0  0  0  0  0  0  0  0
    6.4120  -11.6305   27.6504 C   0  0  0  0  0  0  0  0  0  0  0  0
    6.9567  -12.4181   26.1115 S   0  0  0  0  0  0  0  0  0  0  0  0
    6.6800  -14.2059   26.2675 C   0  0  0  0  0  0  0  0  0  0  0  0
    7.1966  -14.9267   25.0297 C   0  0  0  0  0  0  0  0  0  0  0  0
    8.6548  -14.5837   24.8172 C   0  0  2  0  0  0  0  0  0  0  0  0
    9.0267  -14.6747   23.4206 N   0  0  0  0  0  0  0  0  0  0  0  0
    9.5254  -15.4943   25.5845 C   0  0  0  0  0  0  0  0  0  0  0  0
   10.4972  -16.2280   24.9418 O   0  0  0  0  0  0  0  0  0  0  0  0
    9.3945  -15.6129   26.8262 O   0  0  0  0  0  0  0  0  0  0  0  0
  2  1  1  0
  3  2  1  0
  4  3  2  0
  5  9  1  0
  5  3  1  0
  6  5  1  0
  7  6  1  0
  7  8  1  0
  8  9  1  0
  9 10  1  1
 10 17  1  0
 10 11  2  0
 13 12  1  0
 14 15  1  0
 14 13  1  0
 16 15  1  6
 16 18  1  0
 17 16  1  0
 18 20  2  0
 18 19  1  0
M  END
$$$$
