INT.pdb
     RDKit          3D

 24 23  0  0  1  0  0  0  0  0999 V2000
   19.7757  -17.5648  -18.1631 C   0  0  0  0  0  0  0  0  0  0  0  0
   18.8262  -16.8568  -17.2405 C   0  0  0  0  0  0  0  0  0  0  0  0
   18.8318  -15.3892  -17.5588 C   0  0  2  0  0  0  0  0  0  0  0  0
   20.1711  -14.7456  -17.2581 C   0  0  0  0  0  0  0  0  0  0  0  0
   17.7983  -14.6291  -16.7579 C   0  0  2  0  0  0  0  0  0  0  0  0
   16.5036  -15.2603  -16.9328 N   0  0  0  0  0  0  0  0  0  0  0  0
   17.7531  -13.1976  -17.0850 C   0  0  0  0  0  0  0  0  0  0  0  0
   17.1086  -12.8296  -18.0953 O   0  0  0  0  0  0  0  0  0  0  0  0
   17.7496   -8.0766  -17.1141 N   0  0  0  0  0  0  0  0  0  0  0  0
   16.6411   -8.8961  -16.8098 C   0  0  0  0  0  0  0  0  0  0  0  0
   15.5068   -8.3792  -16.7935 O   0  0  0  0  0  0  0  0  0  0  0  0
   16.8301  -10.3060  -16.5245 C   0  0  0  0  0  0  0  0  0  0  0  0
   18.2469  -10.7769  -16.5600 C   0  0  2  0  0  0  0  0  0  0  0  0
   18.4021  -12.1814  -16.3202 N   0  0  0  0  0  0  0  0  0  0  0  0
   19.0048   -9.9656  -15.5392 C   0  0  0  0  0  0  0  0  0  0  0  0
   18.7089  -10.0442  -14.3196 O   0  0  0  0  0  0  0  0  0  0  0  0
   22.7579  -10.0849  -15.1041 C   0  0  0  0  0  0  0  0  0  0  0  0
   22.4024   -8.6341  -15.3334 C   0  0  1  0  0  0  0  0  0  0  0  0
   22.6291   -8.3311  -16.6753 O   0  0  0  0  0  0  0  0  0  0  0  0
   20.9448   -8.4529  -14.9610 C   0  0  2  0  0  0  0  0  0  0  0  0
   20.0645   -9.0958  -15.9108 N   0  0  0  0  0  0  0  0  0  0  0  0
   20.7025   -6.9669  -14.9358 C   0  0  0  0  0  0  0  0  0  0  0  0
   21.3388   -6.2683  -14.0861 O   0  0  0  0  0  0  0  0  0  0  0  0
   19.8329   -6.3289  -15.7801 O   0  0  0  0  0  0  0  0  0  0  0  0
  1  2  1  0
  3  2  1  0
  3  5  1  0
  3  4  1  1
  5  7  1  0
  5  6  1  6
  7  8  2  0
  9 10  1  0
 10 12  1  0
 11 10  2  0
 13 12  1  1
 14 13  1  0
 14  7  1  0
 15 21  1  0
 15 13  1  0
 16 15  2  0
 18 17  1  6
 19 18  1  0
 20 18  1  0
 20 21  1  6
 22 24  1  0
 22 20  1  0
 23 22  2  0
M  END
$$$$
