INT.pdb
     RDKit          3D

 24 23  0  0  1  0  0  0  0  0999 V2000
   26.5242  -10.6029  -15.4465 C   0  0  0  0  0  0  0  0  0  0  0  0
   25.3056  -11.4258  -15.7498 C   0  0  0  0  0  0  0  0  0  0  0  0
   24.1128  -10.5198  -15.8563 C   0  0  2  0  0  0  0  0  0  0  0  0
   23.8164   -9.8114  -14.5491 C   0  0  0  0  0  0  0  0  0  0  0  0
   22.8570  -11.2738  -16.2327 C   0  0  2  0  0  0  0  0  0  0  0  0
   23.1472  -12.1510  -17.3515 N   0  0  0  0  0  0  0  0  0  0  0  0
   21.7171  -10.3915  -16.5161 C   0  0  0  0  0  0  0  0  0  0  0  0
   21.7107   -9.7388  -17.5863 O   0  0  0  0  0  0  0  0  0  0  0  0
   17.0022   -8.2530  -16.6843 N   0  0  0  0  0  0  0  0  0  0  0  0
   16.9359   -9.4128  -15.8821 C   0  0  0  0  0  0  0  0  0  0  0  0
   15.8164   -9.8121  -15.5061 O   0  0  0  0  0  0  0  0  0  0  0  0
   18.1497  -10.1153  -15.5102 C   0  0  0  0  0  0  0  0  0  0  0  0
   19.4181   -9.4885  -15.9881 C   0  0  2  0  0  0  0  0  0  0  0  0
   20.5993  -10.2236  -15.6436 N   0  0  0  0  0  0  0  0  0  0  0  0
   19.4614   -8.0938  -15.4157 C   0  0  0  0  0  0  0  0  0  0  0  0
   18.5006   -7.3032  -15.5976 O   0  0  0  0  0  0  0  0  0  0  0  0
   23.0849   -6.3954  -14.2775 C   0  0  0  0  0  0  0  0  0  0  0  0
   21.9469   -6.0968  -13.3290 C   0  0  1  0  0  0  0  0  0  0  0  0
   22.0758   -4.7813  -12.8856 O   0  0  0  0  0  0  0  0  0  0  0  0
   20.6505   -6.3041  -14.0857 C   0  0  2  0  0  0  0  0  0  0  0  0
   20.5713   -7.6278  -14.6616 N   0  0  0  0  0  0  0  0  0  0  0  0
   20.6252   -5.2543  -15.1649 C   0  0  0  0  0  0  0  0  0  0  0  0
   20.7314   -5.6319  -16.3737 O   0  0  0  0  0  0  0  0  0  0  0  0
   20.4936   -3.9145  -14.9125 O   0  0  0  0  0  0  0  0  0  0  0  0
  1  2  1  0
  3  2  1  0
  3  5  1  0
  3  4  1  1
  5  7  1  0
  5  6  1  6
  7  8  2  0
  9 10  1  0
 10 12  1  0
 11 10  2  0
 13 12  1  1
 14 13  1  0
 14  7  1  0
 15 21  1  0
 15 13  1  0
 16 15  2  0
 18 17  1  6
 19 18  1  0
 20 18  1  0
 20 21  1  6
 22 24  1  0
 22 20  1  0
 23 22  2  0
M  END
$$$$
