INT.pdb
     RDKit          3D

 24 23  0  0  1  0  0  0  0  0999 V2000
   19.7863  -13.7186  -16.2954 C   0  0  0  0  0  0  0  0  0  0  0  0
   18.5085  -12.9491  -16.1243 C   0  0  0  0  0  0  0  0  0  0  0  0
   18.7844  -11.4858  -16.3181 C   0  0  2  0  0  0  0  0  0  0  0  0
   19.7974  -10.9595  -15.3205 C   0  0  0  0  0  0  0  0  0  0  0  0
   17.5385  -10.6447  -16.1523 C   0  0  2  0  0  0  0  0  0  0  0  0
   16.5064  -11.1443  -17.0414 N   0  0  0  0  0  0  0  0  0  0  0  0
   17.7800   -9.2096  -16.3530 C   0  0  0  0  0  0  0  0  0  0  0  0
   18.3029   -8.8302  -17.4273 O   0  0  0  0  0  0  0  0  0  0  0  0
   14.3196   -6.1591  -16.5552 N   0  0  0  0  0  0  0  0  0  0  0  0
   15.7157   -6.0206  -16.7122 C   0  0  0  0  0  0  0  0  0  0  0  0
   16.1839   -5.9922  -17.8672 O   0  0  0  0  0  0  0  0  0  0  0  0
   16.5756   -5.9146  -15.5484 C   0  0  0  0  0  0  0  0  0  0  0  0
   17.7686   -6.8129  -15.5562 C   0  0  2  0  0  0  0  0  0  0  0  0
   17.4553   -8.2021  -15.3947 N   0  0  0  0  0  0  0  0  0  0  0  0
   18.6865   -6.3331  -14.4598 C   0  0  0  0  0  0  0  0  0  0  0  0
   18.6399   -6.8580  -13.3182 O   0  0  0  0  0  0  0  0  0  0  0  0
   22.2387   -6.2809  -14.9453 C   0  0  0  0  0  0  0  0  0  0  0  0
   21.6994   -5.9795  -13.5661 C   0  0  1  0  0  0  0  0  0  0  0  0
   22.7548   -5.5463  -12.7648 O   0  0  0  0  0  0  0  0  0  0  0  0
   20.6359   -4.9099  -13.7112 C   0  0  2  0  0  0  0  0  0  0  0  0
   19.6235   -5.2868  -14.6720 N   0  0  0  0  0  0  0  0  0  0  0  0
   21.3549   -3.6652  -14.1598 C   0  0  0  0  0  0  0  0  0  0  0  0
   21.0881   -3.1987  -15.3113 O   0  0  0  0  0  0  0  0  0  0  0  0
   22.2808   -3.0096  -13.3923 O   0  0  0  0  0  0  0  0  0  0  0  0
  1  2  1  0
  3  2  1  0
  3  5  1  0
  3  4  1  1
  5  7  1  0
  5  6  1  6
  7  8  2  0
  9 10  1  0
 10 12  1  0
 11 10  2  0
 13 12  1  1
 14 13  1  0
 14  7  1  0
 15 21  1  0
 15 13  1  0
 16 15  2  0
 18 17  1  6
 19 18  1  0
 20 18  1  0
 20 21  1  6
 22 24  1  0
 22 20  1  0
 23 22  2  0
M  END
$$$$
