INT.pdb
     RDKit          3D

 24 23  0  0  1  0  0  0  0  0999 V2000
   26.9129  -14.2229  -15.7460 C   0  0  0  0  0  0  0  0  0  0  0  0
   25.4769  -14.3766  -15.3354 C   0  0  0  0  0  0  0  0  0  0  0  0
   24.7287  -13.1209  -15.6797 C   0  0  2  0  0  0  0  0  0  0  0  0
   25.2548  -11.9177  -14.9222 C   0  0  0  0  0  0  0  0  0  0  0  0
   23.2563  -13.2275  -15.3512 C   0  0  2  0  0  0  0  0  0  0  0  0
   22.7022  -14.3872  -16.0245 N   0  0  0  0  0  0  0  0  0  0  0  0
   22.5045  -12.0056  -15.6673 C   0  0  0  0  0  0  0  0  0  0  0  0
   22.3557  -11.6826  -16.8694 O   0  0  0  0  0  0  0  0  0  0  0  0
   19.1299  -11.4562  -16.1355 N   0  0  0  0  0  0  0  0  0  0  0  0
   18.8235  -10.6836  -14.9944 C   0  0  0  0  0  0  0  0  0  0  0  0
   17.6594  -10.7163  -14.5497 O   0  0  0  0  0  0  0  0  0  0  0  0
   19.8484   -9.8740  -14.3624 C   0  0  0  0  0  0  0  0  0  0  0  0
   21.1986   -9.9506  -14.9958 C   0  0  2  0  0  0  0  0  0  0  0  0
   21.9229  -11.1476  -14.6851 N   0  0  0  0  0  0  0  0  0  0  0  0
   21.9605   -8.7259  -14.5546 C   0  0  0  0  0  0  0  0  0  0  0  0
   22.5935   -8.7298  -13.4682 O   0  0  0  0  0  0  0  0  0  0  0  0
   24.3648   -6.6491  -16.8343 C   0  0  0  0  0  0  0  0  0  0  0  0
   23.3510   -5.7057  -16.2290 C   0  0  1  0  0  0  0  0  0  0  0  0
   22.3637   -5.4502  -17.1797 O   0  0  0  0  0  0  0  0  0  0  0  0
   22.7768   -6.3757  -14.9972 C   0  0  2  0  0  0  0  0  0  0  0  0
   21.9913   -7.5409  -15.3371 N   0  0  0  0  0  0  0  0  0  0  0  0
   21.9207   -5.3388  -14.3194 C   0  0  0  0  0  0  0  0  0  0  0  0
   20.6582   -5.4760  -14.3683 O   0  0  0  0  0  0  0  0  0  0  0  0
   22.4307   -4.2562  -13.6531 O   0  0  0  0  0  0  0  0  0  0  0  0
  1  2  1  0
  3  2  1  0
  3  5  1  0
  3  4  1  1
  5  7  1  0
  5  6  1  6
  7  8  2  0
  9 10  1  0
 10 12  1  0
 11 10  2  0
 13 12  1  1
 14 13  1  0
 14  7  1  0
 15 21  1  0
 15 13  1  0
 16 15  2  0
 18 17  1  6
 19 18  1  0
 20 18  1  0
 20 21  1  6
 22 24  1  0
 22 20  1  0
 23 22  2  0
M  END
$$$$
