INT.pdb
     RDKit          3D

 24 23  0  0  1  0  0  0  0  0999 V2000
   17.5061  -14.4644  -17.1555 C   0  0  0  0  0  0  0  0  0  0  0  0
   18.7927  -13.7516  -17.4568 C   0  0  0  0  0  0  0  0  0  0  0  0
   18.8556  -12.4861  -16.6509 C   0  0  2  0  0  0  0  0  0  0  0  0
   17.7289  -11.5327  -16.9975 C   0  0  0  0  0  0  0  0  0  0  0  0
   20.1456  -11.7301  -16.8779 C   0  0  2  0  0  0  0  0  0  0  0  0
   21.2663  -12.6112  -16.6073 N   0  0  0  0  0  0  0  0  0  0  0  0
   20.2313  -10.4877  -16.0987 C   0  0  0  0  0  0  0  0  0  0  0  0
   20.2131  -10.5578  -14.8472 O   0  0  0  0  0  0  0  0  0  0  0  0
   22.8449   -8.5407  -14.1557 N   0  0  0  0  0  0  0  0  0  0  0  0
   22.7853   -8.0534  -15.4794 C   0  0  0  0  0  0  0  0  0  0  0  0
   23.7238   -8.3226  -16.2544 O   0  0  0  0  0  0  0  0  0  0  0  0
   21.6526   -7.2587  -15.9159 C   0  0  0  0  0  0  0  0  0  0  0  0
   20.3400   -7.9708  -15.9177 C   0  0  2  0  0  0  0  0  0  0  0  0
   20.3355   -9.1863  -16.6771 N   0  0  0  0  0  0  0  0  0  0  0  0
   19.3140   -6.9987  -16.4443 C   0  0  0  0  0  0  0  0  0  0  0  0
   19.3235   -6.6603  -17.6553 O   0  0  0  0  0  0  0  0  0  0  0  0
   15.5859   -7.2203  -16.4367 C   0  0  0  0  0  0  0  0  0  0  0  0
   15.9097   -5.9617  -15.6654 C   0  0  1  0  0  0  0  0  0  0  0  0
   15.8417   -6.2496  -14.3029 O   0  0  0  0  0  0  0  0  0  0  0  0
   17.3005   -5.5180  -16.0712 C   0  0  2  0  0  0  0  0  0  0  0  0
   18.3142   -6.4377  -15.6057 N   0  0  0  0  0  0  0  0  0  0  0  0
   17.4990   -4.1565  -15.4593 C   0  0  0  0  0  0  0  0  0  0  0  0
   18.3884   -4.0248  -14.5611 O   0  0  0  0  0  0  0  0  0  0  0  0
   16.7720   -3.0530  -15.8199 O   0  0  0  0  0  0  0  0  0  0  0  0
  1  2  1  0
  3  2  1  0
  3  5  1  0
  3  4  1  6
  5  7  1  0
  5  6  1  1
  7  8  2  0
  9 10  1  0
 10 12  1  0
 11 10  2  0
 13 12  1  6
 14 13  1  0
 14  7  1  0
 15 21  1  0
 15 13  1  0
 16 15  2  0
 18 17  1  6
 19 18  1  0
 20 18  1  0
 20 21  1  1
 22 24  1  0
 22 20  1  0
 23 22  2  0
M  END
$$$$
