INT.pdb
     RDKit          3D

 24 23  0  0  1  0  0  0  0  0999 V2000
   21.0394  -11.1293    7.4137 C   0  0  0  0  0  0  0  0  0  0  0  0
   20.2591  -11.5148    6.1903 C   0  0  0  0  0  0  0  0  0  0  0  0
   19.3566  -12.6677    6.5242 C   0  0  2  0  0  0  0  0  0  0  0  0
   20.1308  -13.8716    7.0238 C   0  0  0  0  0  0  0  0  0  0  0  0
   18.5610  -13.1336    5.3253 C   0  0  2  0  0  0  0  0  0  0  0  0
   17.6531  -12.0774    4.9184 N   0  0  0  0  0  0  0  0  0  0  0  0
   17.8520  -14.3987    5.5593 C   0  0  0  0  0  0  0  0  0  0  0  0
   16.8236  -14.3905    6.2761 O   0  0  0  0  0  0  0  0  0  0  0  0
   15.1906  -18.2508    4.7647 N   0  0  0  0  0  0  0  0  0  0  0  0
   16.2594  -18.4410    3.8622 C   0  0  0  0  0  0  0  0  0  0  0  0
   16.0658  -19.1451    2.8519 O   0  0  0  0  0  0  0  0  0  0  0  0
   17.5488  -17.8259    4.1154 C   0  0  0  0  0  0  0  0  0  0  0  0
   17.5906  -16.8956    5.2829 C   0  0  2  0  0  0  0  0  0  0  0  0
   18.2595  -15.6560    5.0187 N   0  0  0  0  0  0  0  0  0  0  0  0
   18.2551  -17.6401    6.4138 C   0  0  0  0  0  0  0  0  0  0  0  0
   19.4964  -17.8407    6.3986 O   0  0  0  0  0  0  0  0  0  0  0  0
   18.4633  -16.9532   10.1219 C   0  0  0  0  0  0  0  0  0  0  0  0
   17.7159  -18.2570    9.9619 C   0  0  1  0  0  0  0  0  0  0  0  0
   16.3484  -17.9914   10.0195 O   0  0  0  0  0  0  0  0  0  0  0  0
   18.1108  -18.8531    8.6260 C   0  0  2  0  0  0  0  0  0  0  0  0
   17.5159  -18.1349    7.5212 N   0  0  0  0  0  0  0  0  0  0  0  0
   17.6326  -20.2808    8.6488 C   0  0  0  0  0  0  0  0  0  0  0  0
   16.7208  -20.6226    7.8322 O   0  0  0  0  0  0  0  0  0  0  0  0
   18.1287  -21.2300    9.5026 O   0  0  0  0  0  0  0  0  0  0  0  0
  1  2  1  0
  3  2  1  0
  3  5  1  0
  3  4  1  6
  5  7  1  0
  5  6  1  1
  7  8  2  0
  9 10  1  0
 10 12  1  0
 11 10  2  0
 13 12  1  6
 14 13  1  0
 14  7  1  0
 15 21  1  0
 15 13  1  0
 16 15  2  0
 18 17  1  6
 19 18  1  0
 20 18  1  0
 20 21  1  6
 22 24  1  0
 22 20  1  0
 23 22  2  0
M  END
$$$$
