PGR.pdb
     RDKit          3D

 23 23  0  0  1  0  0  0  0  0999 V2000
   13.8305  -20.4552   21.5617 N   0  0  0  0  0  0  0  0  0  0  0  0
   12.7817  -20.5724   20.5827 C   0  0  0  0  0  0  0  0  0  0  0  0
   13.3910  -19.7512   19.4382 C   0  0  0  0  0  0  0  0  0  0  0  0
   13.9121  -18.5418   20.1772 C   0  0  0  0  0  0  0  0  0  0  0  0
   14.3085  -19.1193   21.5230 C   0  0  1  0  0  0  0  0  0  0  0  0
   13.8979  -18.2507   22.6335 C   0  0  0  0  0  0  0  0  0  0  0  0
   13.9415  -16.9785   22.4683 O   0  0  0  0  0  0  0  0  0  0  0  0
   13.4439  -18.6766   23.9082 N   0  0  0  0  0  0  0  0  0  0  0  0
   13.0281  -17.7654   24.9416 C   0  0  0  0  0  0  0  0  0  0  0  0
   11.7250  -17.1182   24.7117 C   0  0  0  0  0  0  0  0  0  0  0  0
   11.3095  -16.3046   25.5748 O   0  0  0  0  0  0  0  0  0  0  0  0
    7.0412  -13.3760   17.6501 N   0  0  0  0  0  0  0  0  0  0  0  0
    7.2810  -12.8406   18.9415 C   0  0  0  0  0  0  0  0  0  0  0  0
    7.4716  -11.5787   19.1122 N   0  0  0  0  0  0  0  0  0  0  0  0
    7.3145  -13.7087   20.0865 N   0  0  0  0  0  0  0  0  0  0  0  0
    8.5963  -14.2476   20.4625 C   0  0  0  0  0  0  0  0  0  0  0  0
    8.5817  -15.1521   21.6079 C   0  0  0  0  0  0  0  0  0  0  0  0
    9.6778  -15.9125   22.1333 C   0  0  0  0  0  0  0  0  0  0  0  0
    9.5914  -16.6119   23.4301 C   0  0  2  0  0  0  0  0  0  0  0  0
   10.9245  -17.3636   23.5844 N   0  0  0  0  0  0  0  0  0  0  0  0
    8.6841  -17.8112   23.3364 C   0  0  0  0  0  0  0  0  0  0  0  0
    9.2350  -18.9343   23.0214 O   0  0  0  0  0  0  0  0  0  0  0  0
    7.3636  -17.8331   23.5476 O   0  0  0  0  0  0  0  0  0  0  0  0
  2  1  1  0
  3  2  1  0
  4  3  1  0
  4  5  1  0
  5  1  1  0
  6  7  2  0
  5  6  1  1
  8  6  1  0
  9 10  1  0
  9  8  1  0
 10 20  1  0
 11 10  2  0
 13 12  1  0
 13 14  2  0
 15 13  1  0
 16 17  1  0
 16 15  1  0
 18 17  1  0
 19 18  1  6
 20 19  1  0
 21 19  1  0
 21 23  1  0
 22 21  2  0
M  END
$$$$
