PGR.pdb
     RDKit          3D

 23 23  0  0  1  0  0  0  0  0999 V2000
    7.4061  -15.7069   18.0534 N   0  0  0  0  0  0  0  0  0  0  0  0
    6.7894  -15.1608   16.8728 C   0  0  0  0  0  0  0  0  0  0  0  0
    8.0375  -14.8768   16.0260 C   0  0  0  0  0  0  0  0  0  0  0  0
    8.9526  -14.2344   17.0410 C   0  0  0  0  0  0  0  0  0  0  0  0
    8.5658  -14.9363   18.3292 C   0  0  1  0  0  0  0  0  0  0  0  0
    8.4694  -13.9990   19.4555 C   0  0  0  0  0  0  0  0  0  0  0  0
    9.5500  -13.4937   19.9297 O   0  0  0  0  0  0  0  0  0  0  0  0
    7.2762  -13.5774   20.0965 N   0  0  0  0  0  0  0  0  0  0  0  0
    7.2620  -12.6981   21.2357 C   0  0  0  0  0  0  0  0  0  0  0  0
    7.5547  -13.3472   22.5251 C   0  0  0  0  0  0  0  0  0  0  0  0
    7.5572  -12.6323   23.5588 O   0  0  0  0  0  0  0  0  0  0  0  0
    6.1303  -21.4463   23.9325 N   0  0  0  0  0  0  0  0  0  0  0  0
    7.2816  -20.9660   24.6075 C   0  0  0  0  0  0  0  0  0  0  0  0
    8.4454  -21.4640   24.3721 N   0  0  0  0  0  0  0  0  0  0  0  0
    7.1620  -19.9070   25.5719 N   0  0  0  0  0  0  0  0  0  0  0  0
    6.3773  -18.7605   25.1917 C   0  0  0  0  0  0  0  0  0  0  0  0
    7.1101  -17.5008   25.1123 C   0  0  0  0  0  0  0  0  0  0  0  0
    7.1946  -16.6095   23.9923 C   0  0  0  0  0  0  0  0  0  0  0  0
    7.9286  -15.3313   24.0661 C   0  0  2  0  0  0  0  0  0  0  0  0
    7.8326  -14.7171   22.6592 N   0  0  0  0  0  0  0  0  0  0  0  0
    9.4169  -15.5650   24.0918 C   0  0  0  0  0  0  0  0  0  0  0  0
   10.0224  -15.5844   22.9529 O   0  0  0  0  0  0  0  0  0  0  0  0
   10.1779  -15.7537   25.1753 O   0  0  0  0  0  0  0  0  0  0  0  0
  2  1  1  0
  3  2  1  0
  4  3  1  0
  4  5  1  0
  5  1  1  0
  6  7  2  0
  5  6  1  1
  8  6  1  0
  9 10  1  0
  9  8  1  0
 10 20  1  0
 11 10  2  0
 13 12  1  0
 13 14  2  0
 15 13  1  0
 16 17  1  0
 16 15  1  0
 18 17  1  0
 19 18  1  6
 20 19  1  0
 21 19  1  0
 21 23  1  0
 22 21  2  0
M  END
$$$$
