PGR.pdb
     RDKit          3D

 23 23  0  0  1  0  0  0  0  0999 V2000
    7.2458  -14.8810   20.3785 N   0  0  0  0  0  0  0  0  0  0  0  0
    7.1460  -13.4455   20.4143 C   0  0  0  0  0  0  0  0  0  0  0  0
    7.3680  -13.1247   18.9299 C   0  0  0  0  0  0  0  0  0  0  0  0
    8.5393  -14.0184   18.5988 C   0  0  0  0  0  0  0  0  0  0  0  0
    8.3086  -15.2171   19.4997 C   0  0  1  0  0  0  0  0  0  0  0  0
    9.5528  -15.6746   20.1312 C   0  0  0  0  0  0  0  0  0  0  0  0
   10.4597  -16.2031   19.3923 O   0  0  0  0  0  0  0  0  0  0  0  0
    9.8726  -15.5936   21.5109 N   0  0  0  0  0  0  0  0  0  0  0  0
   11.0851  -16.1288   22.0716 C   0  0  0  0  0  0  0  0  0  0  0  0
   10.9655  -16.6211   23.4547 C   0  0  0  0  0  0  0  0  0  0  0  0
   12.0220  -16.9028   24.0745 O   0  0  0  0  0  0  0  0  0  0  0  0
    7.0479  -11.4486   25.5495 N   0  0  0  0  0  0  0  0  0  0  0  0
    6.2956  -12.2249   26.4678 C   0  0  0  0  0  0  0  0  0  0  0  0
    5.7513  -11.6862   27.5028 N   0  0  0  0  0  0  0  0  0  0  0  0
    6.1301  -13.6362   26.2519 N   0  0  0  0  0  0  0  0  0  0  0  0
    6.7133  -14.1887   25.0564 C   0  0  0  0  0  0  0  0  0  0  0  0
    7.5015  -15.4019   25.2492 C   0  0  0  0  0  0  0  0  0  0  0  0
    8.7700  -15.5232   25.9063 C   0  0  0  0  0  0  0  0  0  0  0  0
    9.6792  -16.6559   25.6445 C   0  0  2  0  0  0  0  0  0  0  0  0
    9.7377  -16.7941   24.1137 N   0  0  0  0  0  0  0  0  0  0  0  0
    9.0056  -17.9690   25.9480 C   0  0  0  0  0  0  0  0  0  0  0  0
    8.6360  -18.6806   24.9375 O   0  0  0  0  0  0  0  0  0  0  0  0
    8.7514  -18.4760   27.1593 O   0  0  0  0  0  0  0  0  0  0  0  0
  2  1  1  0
  3  2  1  0
  4  3  1  0
  4  5  1  0
  5  1  1  0
  6  7  2  0
  5  6  1  1
  8  6  1  0
  9 10  1  0
  9  8  1  0
 10 20  1  0
 11 10  2  0
 13 12  1  0
 13 14  2  0
 15 13  1  0
 16 17  1  0
 16 15  1  0
 18 17  1  0
 19 18  1  6
 20 19  1  0
 21 19  1  0
 21 23  1  0
 22 21  2  0
M  END
$$$$
