PGR.pdb
     RDKit          3D

 23 23  0  0  1  0  0  0  0  0999 V2000
   10.0825  -19.6617   19.5859 N   0  0  0  0  0  0  0  0  0  0  0  0
    8.7896  -19.6225   20.2175 C   0  0  0  0  0  0  0  0  0  0  0  0
    8.1062  -18.5473   19.3615 C   0  0  0  0  0  0  0  0  0  0  0  0
    9.1875  -17.4968   19.2747 C   0  0  0  0  0  0  0  0  0  0  0  0
   10.4584  -18.3252   19.2908 C   0  0  1  0  0  0  0  0  0  0  0  0
   11.4861  -17.7338   20.1571 C   0  0  0  0  0  0  0  0  0  0  0  0
   11.7800  -16.4935   20.0048 O   0  0  0  0  0  0  0  0  0  0  0  0
   12.2118  -18.4034   21.1756 N   0  0  0  0  0  0  0  0  0  0  0  0
   13.1477  -17.7385   22.0435 C   0  0  0  0  0  0  0  0  0  0  0  0
   12.5618  -17.1693   23.2692 C   0  0  0  0  0  0  0  0  0  0  0  0
   13.3309  -16.5907   24.0775 O   0  0  0  0  0  0  0  0  0  0  0  0
    6.2617  -14.1191   20.4421 N   0  0  0  0  0  0  0  0  0  0  0  0
    7.3942  -13.2866   20.6317 C   0  0  0  0  0  0  0  0  0  0  0  0
    7.8238  -12.5246   19.6869 N   0  0  0  0  0  0  0  0  0  0  0  0
    8.0830  -13.2834   21.8933 N   0  0  0  0  0  0  0  0  0  0  0  0
    7.9504  -14.4590   22.7148 C   0  0  0  0  0  0  0  0  0  0  0  0
    9.1877  -14.9394   23.3218 C   0  0  0  0  0  0  0  0  0  0  0  0
    9.3291  -15.9354   24.3435 C   0  0  0  0  0  0  0  0  0  0  0  0
   10.6515  -16.4315   24.7716 C   0  0  2  0  0  0  0  0  0  0  0  0
   11.1948  -17.2411   23.5820 N   0  0  0  0  0  0  0  0  0  0  0  0
   10.5098  -17.5675   25.7512 C   0  0  0  0  0  0  0  0  0  0  0  0
   10.3736  -18.7503   25.2547 O   0  0  0  0  0  0  0  0  0  0  0  0
   10.5117  -17.4774   27.0857 O   0  0  0  0  0  0  0  0  0  0  0  0
  2  1  1  0
  3  2  1  0
  4  3  1  0
  4  5  1  0
  5  1  1  0
  6  7  2  0
  5  6  1  1
  8  6  1  0
  9 10  1  0
  9  8  1  0
 10 20  1  0
 11 10  2  0
 13 12  1  0
 13 14  2  0
 15 13  1  0
 16 17  1  0
 16 15  1  0
 18 17  1  0
 19 18  1  6
 20 19  1  0
 21 19  1  0
 21 23  1  0
 22 21  2  0
M  END
$$$$
