PGR.pdb
     RDKit          3D

 23 23  0  0  1  0  0  0  0  0999 V2000
    5.0677  -19.8903   21.0122 N   0  0  0  0  0  0  0  0  0  0  0  0
    4.3250  -19.5822   22.2062 C   0  0  0  0  0  0  0  0  0  0  0  0
    3.5089  -18.3804   21.7110 C   0  0  0  0  0  0  0  0  0  0  0  0
    4.5599  -17.5826   20.9765 C   0  0  0  0  0  0  0  0  0  0  0  0
    5.4750  -18.6619   20.4293 C   0  0  1  0  0  0  0  0  0  0  0  0
    6.8918  -18.3083   20.5843 C   0  0  0  0  0  0  0  0  0  0  0  0
    7.3288  -17.2496   20.0046 O   0  0  0  0  0  0  0  0  0  0  0  0
    7.8604  -19.0306   21.3275 N   0  0  0  0  0  0  0  0  0  0  0  0
    9.2332  -18.6153   21.4463 C   0  0  0  0  0  0  0  0  0  0  0  0
    9.4726  -17.5311   22.4142 C   0  0  0  0  0  0  0  0  0  0  0  0
   10.6310  -17.0488   22.4857 O   0  0  0  0  0  0  0  0  0  0  0  0
    8.7420  -13.9938   18.9538 N   0  0  0  0  0  0  0  0  0  0  0  0
    7.9561  -12.9601   19.5245 C   0  0  0  0  0  0  0  0  0  0  0  0
    7.3166  -12.1251   18.7818 N   0  0  0  0  0  0  0  0  0  0  0  0
    7.8631  -12.8309   20.9530 N   0  0  0  0  0  0  0  0  0  0  0  0
    7.9616  -14.0411   21.7278 C   0  0  0  0  0  0  0  0  0  0  0  0
    7.7521  -13.8822   23.1635 C   0  0  0  0  0  0  0  0  0  0  0  0
    7.7581  -14.9081   24.1651 C   0  0  0  0  0  0  0  0  0  0  0  0
    8.8460  -15.9010   24.2584 C   0  0  2  0  0  0  0  0  0  0  0  0
    8.4792  -17.0120   23.2599 N   0  0  0  0  0  0  0  0  0  0  0  0
    8.7302  -16.7102   25.5242 C   0  0  0  0  0  0  0  0  0  0  0  0
    8.2323  -17.8951   25.4138 O   0  0  0  0  0  0  0  0  0  0  0  0
    9.0921  -16.3274   26.7536 O   0  0  0  0  0  0  0  0  0  0  0  0
  2  1  1  0
  3  2  1  0
  4  3  1  0
  4  5  1  0
  5  1  1  0
  6  7  2  0
  5  6  1  1
  8  6  1  0
  9 10  1  0
  9  8  1  0
 10 20  1  0
 11 10  2  0
 13 12  1  0
 13 14  2  0
 15 13  1  0
 16 17  1  0
 16 15  1  0
 18 17  1  0
 19 18  1  1
 20 19  1  0
 21 19  1  0
 21 23  1  0
 22 21  2  0
M  END
$$$$
