PGR.pdb
     RDKit          3D

 23 23  0  0  1  0  0  0  0  0999 V2000
    6.8260  -19.0429   19.0197 N   0  0  0  0  0  0  0  0  0  0  0  0
    5.9296  -19.0338   17.8935 C   0  0  0  0  0  0  0  0  0  0  0  0
    6.9363  -19.2117   16.7487 C   0  0  0  0  0  0  0  0  0  0  0  0
    8.0217  -18.2399   17.1461 C   0  0  0  0  0  0  0  0  0  0  0  0
    7.9750  -18.2904   18.6617 C   0  0  1  0  0  0  0  0  0  0  0  0
    8.0862  -16.9528   19.2574 C   0  0  0  0  0  0  0  0  0  0  0  0
    9.1637  -16.2817   19.0666 O   0  0  0  0  0  0  0  0  0  0  0  0
    7.1028  -16.3006   20.0448 N   0  0  0  0  0  0  0  0  0  0  0  0
    7.3108  -15.0168   20.6610 C   0  0  0  0  0  0  0  0  0  0  0  0
    8.2795  -15.0101   21.7706 C   0  0  0  0  0  0  0  0  0  0  0  0
    8.4296  -13.9425   22.4167 O   0  0  0  0  0  0  0  0  0  0  0  0
    8.5270  -13.1088   28.0287 N   0  0  0  0  0  0  0  0  0  0  0  0
    9.2619  -14.2507   28.4382 C   0  0  0  0  0  0  0  0  0  0  0  0
   10.0739  -14.1952   29.4359 N   0  0  0  0  0  0  0  0  0  0  0  0
    9.1076  -15.4962   27.7376 N   0  0  0  0  0  0  0  0  0  0  0  0
    9.7601  -15.6135   26.4589 C   0  0  0  0  0  0  0  0  0  0  0  0
    9.2351  -16.6565   25.5833 C   0  0  0  0  0  0  0  0  0  0  0  0
    9.7001  -17.0132   24.2747 C   0  0  0  0  0  0  0  0  0  0  0  0
   10.0740  -15.9939   23.2749 C   0  0  2  0  0  0  0  0  0  0  0  0
    9.0431  -16.1286   22.1413 N   0  0  0  0  0  0  0  0  0  0  0  0
   11.2941  -16.4205   22.5006 C   0  0  0  0  0  0  0  0  0  0  0  0
   11.1400  -17.3833   21.6560 O   0  0  0  0  0  0  0  0  0  0  0  0
   12.5235  -15.9026   22.5969 O   0  0  0  0  0  0  0  0  0  0  0  0
  2  1  1  0
  3  2  1  0
  4  3  1  0
  4  5  1  0
  5  1  1  0
  6  7  2  0
  5  6  1  1
  8  6  1  0
  9 10  1  0
  9  8  1  0
 10 20  1  0
 11 10  2  0
 13 12  1  0
 13 14  2  0
 15 13  1  0
 16 17  1  0
 16 15  1  0
 18 17  1  0
 19 18  1  1
 20 19  1  0
 21 19  1  0
 21 23  1  0
 22 21  2  0
M  END
$$$$
