PGR.pdb
     RDKit          3D

 23 23  0  0  1  0  0  0  0  0999 V2000
    6.7434  -19.1892   19.7330 N   0  0  0  0  0  0  0  0  0  0  0  0
    6.4510  -17.9258   19.1081 C   0  0  0  0  0  0  0  0  0  0  0  0
    7.7442  -17.7171   18.3084 C   0  0  0  0  0  0  0  0  0  0  0  0
    8.7943  -18.0868   19.3286 C   0  0  0  0  0  0  0  0  0  0  0  0
    8.1015  -19.1619   20.1448 C   0  0  1  0  0  0  0  0  0  0  0  0
    8.3400  -18.9951   21.5841 C   0  0  0  0  0  0  0  0  0  0  0  0
    9.5507  -18.9030   22.0006 O   0  0  0  0  0  0  0  0  0  0  0  0
    7.3485  -18.9219   22.5959 N   0  0  0  0  0  0  0  0  0  0  0  0
    7.6580  -18.7685   23.9930 C   0  0  0  0  0  0  0  0  0  0  0  0
    8.4538  -17.5745   24.3254 C   0  0  0  0  0  0  0  0  0  0  0  0
    9.6347  -17.5147   23.8993 O   0  0  0  0  0  0  0  0  0  0  0  0
    7.9860  -11.7910   19.8756 N   0  0  0  0  0  0  0  0  0  0  0  0
    7.5342  -13.1183   20.0898 C   0  0  0  0  0  0  0  0  0  0  0  0
    7.5982  -14.0007   19.1543 N   0  0  0  0  0  0  0  0  0  0  0  0
    6.9940  -13.4983   21.3664 N   0  0  0  0  0  0  0  0  0  0  0  0
    7.8908  -13.4653   22.4930 C   0  0  0  0  0  0  0  0  0  0  0  0
    7.3402  -13.9757   23.7446 C   0  0  0  0  0  0  0  0  0  0  0  0
    8.0118  -14.1058   25.0047 C   0  0  0  0  0  0  0  0  0  0  0  0
    8.8577  -15.2731   25.3211 C   0  0  2  0  0  0  0  0  0  0  0  0
    7.9653  -16.5049   25.0928 N   0  0  0  0  0  0  0  0  0  0  0  0
    9.0400  -15.4191   26.8096 C   0  0  0  0  0  0  0  0  0  0  0  0
    8.2476  -16.2373   27.4153 O   0  0  0  0  0  0  0  0  0  0  0  0
    9.9410  -14.7882   27.5704 O   0  0  0  0  0  0  0  0  0  0  0  0
  2  1  1  0
  3  2  1  0
  4  3  1  0
  4  5  1  0
  5  1  1  0
  6  7  2  0
  5  6  1  1
  8  6  1  0
  9 10  1  0
  9  8  1  0
 10 20  1  0
 11 10  2  0
 13 12  1  0
 13 14  2  0
 15 13  1  0
 16 17  1  0
 16 15  1  0
 18 17  1  0
 19 18  1  1
 20 19  1  0
 21 19  1  0
 21 23  1  0
 22 21  2  0
M  END
$$$$
