PGR.pdb
     RDKit          3D

 23 23  0  0  1  0  0  0  0  0999 V2000
    9.0857  -14.5925   17.8685 N   0  0  0  0  0  0  0  0  0  0  0  0
    7.8076  -14.4555   17.2204 C   0  0  0  0  0  0  0  0  0  0  0  0
    7.4490  -13.0223   17.6362 C   0  0  0  0  0  0  0  0  0  0  0  0
    7.8088  -13.0334   19.1028 C   0  0  0  0  0  0  0  0  0  0  0  0
    8.9858  -13.9895   19.1496 C   0  0  1  0  0  0  0  0  0  0  0  0
    8.9009  -14.9064   20.2934 C   0  0  0  0  0  0  0  0  0  0  0  0
    8.6693  -14.4179   21.4577 O   0  0  0  0  0  0  0  0  0  0  0  0
    9.0510  -16.3164   20.2516 N   0  0  0  0  0  0  0  0  0  0  0  0
    8.9596  -17.1536   21.4186 C   0  0  0  0  0  0  0  0  0  0  0  0
    9.6876  -16.6562   22.5985 C   0  0  0  0  0  0  0  0  0  0  0  0
   10.4558  -15.6731   22.4470 O   0  0  0  0  0  0  0  0  0  0  0  0
    7.0113  -12.1601   27.6537 N   0  0  0  0  0  0  0  0  0  0  0  0
    6.4291  -12.2204   26.3617 C   0  0  0  0  0  0  0  0  0  0  0  0
    5.9335  -11.1694   25.8070 N   0  0  0  0  0  0  0  0  0  0  0  0
    6.3848  -13.4678   25.6490 N   0  0  0  0  0  0  0  0  0  0  0  0
    7.0379  -14.5958   26.2618 C   0  0  0  0  0  0  0  0  0  0  0  0
    7.9102  -15.3664   25.3813 C   0  0  0  0  0  0  0  0  0  0  0  0
    9.3380  -15.2854   25.2783 C   0  0  0  0  0  0  0  0  0  0  0  0
   10.1757  -16.4850   25.0852 C   0  0  2  0  0  0  0  0  0  0  0  0
    9.5708  -17.2221   23.8782 N   0  0  0  0  0  0  0  0  0  0  0  0
    9.8795  -17.5240   26.1354 C   0  0  0  0  0  0  0  0  0  0  0  0
    9.0504  -18.4580   25.8123 O   0  0  0  0  0  0  0  0  0  0  0  0
   10.3891  -17.5799   27.3708 O   0  0  0  0  0  0  0  0  0  0  0  0
  2  1  1  0
  3  2  1  0
  4  3  1  0
  4  5  1  0
  5  1  1  0
  6  7  2  0
  5  6  1  1
  8  6  1  0
  9 10  1  0
  9  8  1  0
 10 20  1  0
 11 10  2  0
 13 12  1  0
 13 14  2  0
 15 13  1  0
 16 17  1  0
 16 15  1  0
 18 17  1  0
 19 18  1  1
 20 19  1  0
 21 19  1  0
 21 23  1  0
 22 21  2  0
M  END
$$$$
