PGR.pdb
     RDKit          3D

 23 23  0  0  1  0  0  0  0  0999 V2000
    7.8606  -15.2756   18.6855 N   0  0  0  0  0  0  0  0  0  0  0  0
    7.0921  -14.5131   17.7368 C   0  0  0  0  0  0  0  0  0  0  0  0
    8.1768  -13.5585   17.2194 C   0  0  0  0  0  0  0  0  0  0  0  0
    8.8463  -13.1354   18.5051 C   0  0  0  0  0  0  0  0  0  0  0  0
    8.7149  -14.3735   19.3719 C   0  0  1  0  0  0  0  0  0  0  0  0
    8.3327  -14.0389   20.7497 C   0  0  0  0  0  0  0  0  0  0  0  0
    9.1485  -13.3531   21.4653 O   0  0  0  0  0  0  0  0  0  0  0  0
    7.1233  -14.4012   21.3966 N   0  0  0  0  0  0  0  0  0  0  0  0
    6.8131  -14.0310   22.7522 C   0  0  0  0  0  0  0  0  0  0  0  0
    7.4036  -14.9005   23.7842 C   0  0  0  0  0  0  0  0  0  0  0  0
    7.0761  -14.7021   24.9813 O   0  0  0  0  0  0  0  0  0  0  0  0
    4.3329  -21.5796   23.0669 N   0  0  0  0  0  0  0  0  0  0  0  0
    5.4529  -20.9105   22.5105 C   0  0  0  0  0  0  0  0  0  0  0  0
    5.3368  -20.1914   21.4488 N   0  0  0  0  0  0  0  0  0  0  0  0
    6.7440  -21.0282   23.1313 N   0  0  0  0  0  0  0  0  0  0  0  0
    6.9857  -20.2191   24.2981 C   0  0  0  0  0  0  0  0  0  0  0  0
    7.3430  -18.8294   24.0314 C   0  0  0  0  0  0  0  0  0  0  0  0
    8.6351  -18.2208   24.1577 C   0  0  0  0  0  0  0  0  0  0  0  0
    8.8017  -16.8380   24.6458 C   0  0  2  0  0  0  0  0  0  0  0  0
    8.3117  -15.9337   23.5021 N   0  0  0  0  0  0  0  0  0  0  0  0
   10.2524  -16.4312   24.6279 C   0  0  0  0  0  0  0  0  0  0  0  0
   10.6715  -15.8172   23.5736 O   0  0  0  0  0  0  0  0  0  0  0  0
   11.1532  -16.6398   25.5943 O   0  0  0  0  0  0  0  0  0  0  0  0
  2  1  1  0
  3  2  1  0
  4  3  1  0
  4  5  1  0
  5  1  1  0
  6  7  2  0
  5  6  1  1
  8  6  1  0
  9 10  1  0
  9  8  1  0
 10 20  1  0
 11 10  2  0
 13 12  1  0
 13 14  2  0
 15 13  1  0
 16 17  1  0
 16 15  1  0
 18 17  1  0
 19 18  1  6
 20 19  1  0
 21 19  1  0
 21 23  1  0
 22 21  2  0
M  END
$$$$
