CNY.pdb
     RDKit          3D

 27 27  0  0  1  0  0  0  0  0999 V2000
   18.9609  -15.0497  -17.3286 N   0  0  0  0  0  0  0  0  0  0  0  0
   18.4504  -14.2272  -16.2533 C   0  0  1  0  0  0  0  0  0  0  0  0
   19.1742  -14.6533  -14.9746 C   0  0  0  0  0  0  0  0  0  0  0  0
   20.9469  -14.4671  -15.2162 S   0  0  0  0  0  0  0  0  0  0  0  0
   18.6690  -12.7800  -16.5000 C   0  0  0  0  0  0  0  0  0  0  0  0
   19.5389  -12.4766  -17.3608 O   0  0  0  0  0  0  0  0  0  0  0  0
   14.6431  -10.2643  -17.1723 N   0  0  0  0  0  0  0  0  0  0  0  0
   16.0039   -9.8814  -17.3018 C   0  0  0  0  0  0  0  0  0  0  0  0
   16.4632   -9.7447  -18.4616 O   0  0  0  0  0  0  0  0  0  0  0  0
   16.7895   -9.6693  -16.0721 C   0  0  0  0  0  0  0  0  0  0  0  0
   18.1165  -10.4015  -16.0754 C   0  0  2  0  0  0  0  0  0  0  0  0
   17.9422  -11.8112  -15.8076 N   0  0  0  0  0  0  0  0  0  0  0  0
   19.1260   -9.7918  -15.1867 C   0  0  0  0  0  0  0  0  0  0  0  0
   19.1207  -10.0307  -13.9531 O   0  0  0  0  0  0  0  0  0  0  0  0
   23.8647  -13.8153  -16.4751 O   0  0  0  0  0  0  0  0  0  0  0  0
   23.5372  -12.4879  -16.1841 C   0  0  0  0  0  0  0  0  0  0  0  0
   23.0287  -11.6783  -17.1722 C   0  0  0  0  0  0  0  0  0  0  0  0
   22.6897  -10.3644  -16.9408 C   0  0  0  0  0  0  0  0  0  0  0  0
   22.8777   -9.8673  -15.6601 C   0  0  0  0  0  0  0  0  0  0  0  0
   22.5055   -8.4359  -15.3984 C   0  0  0  0  0  0  0  0  0  0  0  0
   21.1249   -8.3391  -14.7505 C   0  0  2  0  0  0  0  0  0  0  0  0
   20.1451   -8.9189  -15.6438 N   0  0  0  0  0  0  0  0  0  0  0  0
   20.8629   -6.9243  -14.4618 C   0  0  0  0  0  0  0  0  0  0  0  0
   21.5070   -6.2053  -13.4665 O   0  0  0  0  0  0  0  0  0  0  0  0
   23.3879  -10.6852  -14.6746 C   0  0  0  0  0  0  0  0  0  0  0  0
   23.7291  -12.0129  -14.9136 C   0  0  0  0  0  0  0  0  0  0  0  0
   20.0012   -6.3307  -15.1616 O   0  0  0  0  0  0  0  0  0  0  0  0
  2  1  1  6
  2  5  1  0
  3  2  1  0
  3  4  1  0
  5  6  2  0
  7  8  1  0
  8  9  2  0
 10  8  1  0
 11 10  1  1
 11 13  1  0
 12 11  1  0
 12  5  1  0
 13 14  2  0
 15 16  1  0
 16 26  2  0
 17 18  2  0
 17 16  1  0
 18 19  1  0
 19 20  1  0
 19 25  2  0
 21 20  1  6
 21 23  1  0
 22 13  1  0
 22 21  1  0
 23 27  2  0
 23 24  1  0
 26 25  1  0
M  END
$$$$
