CNY.pdb
     RDKit          3D

 27 27  0  0  1  0  0  0  0  0999 V2000
   29.3770  -21.0233  -18.1236 N   0  0  0  0  0  0  0  0  0  0  0  0
   28.1377  -21.6819  -17.7719 C   0  0  1  0  0  0  0  0  0  0  0  0
   28.4296  -22.5852  -16.5722 C   0  0  0  0  0  0  0  0  0  0  0  0
   29.7349  -23.7412  -17.0143 S   0  0  0  0  0  0  0  0  0  0  0  0
   27.0652  -20.7152  -17.4281 C   0  0  0  0  0  0  0  0  0  0  0  0
   27.0666  -19.6205  -18.0537 O   0  0  0  0  0  0  0  0  0  0  0  0
   23.6835  -18.2764  -19.0721 N   0  0  0  0  0  0  0  0  0  0  0  0
   23.3464  -19.0667  -17.9421 C   0  0  0  0  0  0  0  0  0  0  0  0
   22.4033  -18.6714  -17.2147 O   0  0  0  0  0  0  0  0  0  0  0  0
   24.1211  -20.2965  -17.6942 C   0  0  0  0  0  0  0  0  0  0  0  0
   24.8649  -20.2799  -16.3736 C   0  0  2  0  0  0  0  0  0  0  0  0
   26.1075  -21.0133  -16.4584 N   0  0  0  0  0  0  0  0  0  0  0  0
   24.0412  -20.7203  -15.2299 C   0  0  0  0  0  0  0  0  0  0  0  0
   23.6987  -21.9236  -15.1135 O   0  0  0  0  0  0  0  0  0  0  0  0
   20.6528  -21.2153   -7.1553 O   0  0  0  0  0  0  0  0  0  0  0  0
   21.2076  -20.7306   -8.3431 C   0  0  0  0  0  0  0  0  0  0  0  0
   22.5551  -20.8745   -8.5753 C   0  0  0  0  0  0  0  0  0  0  0  0
   23.1532  -20.4159   -9.7272 C   0  0  0  0  0  0  0  0  0  0  0  0
   22.3464  -19.7924  -10.6669 C   0  0  0  0  0  0  0  0  0  0  0  0
   22.9909  -19.2937  -11.9286 C   0  0  0  0  0  0  0  0  0  0  0  0
   22.8592  -20.3201  -13.0530 C   0  0  2  0  0  0  0  0  0  0  0  0
   23.5892  -19.8465  -14.2093 N   0  0  0  0  0  0  0  0  0  0  0  0
   21.4291  -20.5091  -13.3228 C   0  0  0  0  0  0  0  0  0  0  0  0
   20.6589  -19.6288  -14.0674 O   0  0  0  0  0  0  0  0  0  0  0  0
   20.9962  -19.6519  -10.4270 C   0  0  0  0  0  0  0  0  0  0  0  0
   20.3963  -20.1173   -9.2608 C   0  0  0  0  0  0  0  0  0  0  0  0
   20.8710  -21.5328  -12.8483 O   0  0  0  0  0  0  0  0  0  0  0  0
  2  1  1  1
  2  5  1  0
  3  2  1  0
  3  4  1  0
  5  6  2  0
  7  8  1  0
  8  9  2  0
 10  8  1  0
 11 10  1  6
 11 13  1  0
 12 11  1  0
 12  5  1  0
 13 14  2  0
 15 16  1  0
 16 26  2  0
 17 18  2  0
 17 16  1  0
 18 19  1  0
 19 20  1  0
 19 25  2  0
 21 20  1  1
 21 23  1  0
 22 13  1  0
 22 21  1  0
 23 27  2  0
 23 24  1  0
 26 25  1  0
M  END
$$$$
