CNY.pdb
     RDKit          3D

 27 27  0  0  1  0  0  0  0  0999 V2000
   45.9684  -10.7903   -5.8641 N   0  0  0  0  0  0  0  0  0  0  0  0
   44.5563  -10.7459   -5.5522 C   0  0  1  0  0  0  0  0  0  0  0  0
   44.4244  -10.2109   -4.1251 C   0  0  0  0  0  0  0  0  0  0  0  0
   44.8496   -8.4632   -4.1139 S   0  0  0  0  0  0  0  0  0  0  0  0
   43.8005   -9.8781   -6.4896 C   0  0  0  0  0  0  0  0  0  0  0  0
   44.4801   -9.1929   -7.3011 O   0  0  0  0  0  0  0  0  0  0  0  0
   41.8077  -11.0653   -9.0626 N   0  0  0  0  0  0  0  0  0  0  0  0
   40.5069  -10.7392   -8.5971 C   0  0  0  0  0  0  0  0  0  0  0  0
   39.5619  -11.4944   -8.9310 O   0  0  0  0  0  0  0  0  0  0  0  0
   40.3473   -9.5396   -7.7546 C   0  0  0  0  0  0  0  0  0  0  0  0
   41.6666   -8.9315   -7.3222 C   0  0  2  0  0  0  0  0  0  0  0  0
   42.4064   -9.8302   -6.4654 N   0  0  0  0  0  0  0  0  0  0  0  0
   41.5265   -7.5889   -6.7237 C   0  0  0  0  0  0  0  0  0  0  0  0
   41.0329   -7.4477   -5.5768 O   0  0  0  0  0  0  0  0  0  0  0  0
   42.5743    0.6269   -4.1139 O   0  0  0  0  0  0  0  0  0  0  0  0
   42.7016   -0.6513   -4.6652 C   0  0  0  0  0  0  0  0  0  0  0  0
   42.8517   -0.7964   -6.0241 C   0  0  0  0  0  0  0  0  0  0  0  0
   42.9811   -2.0308   -6.6194 C   0  0  0  0  0  0  0  0  0  0  0  0
   42.9556   -3.1474   -5.7975 C   0  0  0  0  0  0  0  0  0  0  0  0
   43.1011   -4.4976   -6.4391 C   0  0  0  0  0  0  0  0  0  0  0  0
   41.7353   -5.0892   -6.7851 C   0  0  2  0  0  0  0  0  0  0  0  0
   41.9257   -6.3959   -7.3771 N   0  0  0  0  0  0  0  0  0  0  0  0
   41.0554   -4.1513   -7.6862 C   0  0  0  0  0  0  0  0  0  0  0  0
   40.4011   -3.0055   -7.2605 O   0  0  0  0  0  0  0  0  0  0  0  0
   42.8048   -2.9939   -4.4359 C   0  0  0  0  0  0  0  0  0  0  0  0
   42.6744   -1.7437   -3.8389 C   0  0  0  0  0  0  0  0  0  0  0  0
   41.0690   -4.4053   -8.9190 O   0  0  0  0  0  0  0  0  0  0  0  0
  2  1  1  6
  2  5  1  0
  3  2  1  0
  3  4  1  0
  5  6  2  0
  7  8  1  0
  8  9  2  0
 10  8  1  0
 11 10  1  1
 11 13  1  0
 12 11  1  0
 12  5  1  0
 13 14  2  0
 15 16  1  0
 16 26  2  0
 17 18  2  0
 17 16  1  0
 18 19  1  0
 19 20  1  0
 19 25  2  0
 21 20  1  6
 21 23  1  0
 22 13  1  0
 22 21  1  0
 23 27  2  0
 23 24  1  0
 26 25  1  0
M  END
$$$$
