CNY.pdb
     RDKit          3D

 27 27  0  0  1  0  0  0  0  0999 V2000
   27.4936  -23.2711  -16.1164 N   0  0  0  0  0  0  0  0  0  0  0  0
   26.0763  -23.3264  -16.4020 C   0  0  1  0  0  0  0  0  0  0  0  0
   25.5670  -24.6809  -15.9057 C   0  0  0  0  0  0  0  0  0  0  0  0
   25.4318  -25.8034  -17.3047 S   0  0  0  0  0  0  0  0  0  0  0  0
   25.3261  -22.2303  -15.7396 C   0  0  0  0  0  0  0  0  0  0  0  0
   25.7408  -21.8631  -14.6069 O   0  0  0  0  0  0  0  0  0  0  0  0
   25.2083  -17.7418  -16.6081 N   0  0  0  0  0  0  0  0  0  0  0  0
   24.1112  -18.2602  -15.8715 C   0  0  0  0  0  0  0  0  0  0  0  0
   23.8653  -17.7469  -14.7530 O   0  0  0  0  0  0  0  0  0  0  0  0
   23.3325  -19.3639  -16.4627 C   0  0  0  0  0  0  0  0  0  0  0  0
   23.4176  -20.6507  -15.6664 C   0  0  2  0  0  0  0  0  0  0  0  0
   24.2177  -21.6421  -16.3492 N   0  0  0  0  0  0  0  0  0  0  0  0
   22.0991  -21.1840  -15.2691 C   0  0  0  0  0  0  0  0  0  0  0  0
   21.4004  -21.8363  -16.0846 O   0  0  0  0  0  0  0  0  0  0  0  0
   14.9153  -23.1743  -10.5391 O   0  0  0  0  0  0  0  0  0  0  0  0
   16.1674  -22.7003  -10.9409 C   0  0  0  0  0  0  0  0  0  0  0  0
   16.3266  -21.3699  -11.2492 C   0  0  0  0  0  0  0  0  0  0  0  0
   17.5366  -20.8504  -11.6500 C   0  0  0  0  0  0  0  0  0  0  0  0
   18.6132  -21.7199  -11.7371 C   0  0  0  0  0  0  0  0  0  0  0  0
   19.9381  -21.1595  -12.1690 C   0  0  0  0  0  0  0  0  0  0  0  0
   20.2203  -21.4892  -13.6342 C   0  0  2  0  0  0  0  0  0  0  0  0
   21.5402  -21.0059  -13.9786 N   0  0  0  0  0  0  0  0  0  0  0  0
   19.1617  -20.8752  -14.4441 C   0  0  0  0  0  0  0  0  0  0  0  0
   19.1378  -19.5353  -14.7997 O   0  0  0  0  0  0  0  0  0  0  0  0
   18.4458  -23.0525  -11.4262 C   0  0  0  0  0  0  0  0  0  0  0  0
   17.2204  -23.5729  -11.0214 C   0  0  0  0  0  0  0  0  0  0  0  0
   18.2202  -21.6120  -14.8382 O   0  0  0  0  0  0  0  0  0  0  0  0
  2  1  1  1
  2  5  1  0
  3  2  1  0
  3  4  1  0
  5  6  2  0
  7  8  1  0
  8  9  2  0
 10  8  1  0
 11 10  1  6
 11 13  1  0
 12 11  1  0
 12  5  1  0
 13 14  2  0
 15 16  1  0
 16 26  2  0
 17 18  2  0
 17 16  1  0
 18 19  1  0
 19 20  1  0
 19 25  2  0
 21 20  1  1
 21 23  1  0
 22 13  1  0
 22 21  1  0
 23 27  2  0
 23 24  1  0
 26 25  1  0
M  END
$$$$
