CNY.pdb
     RDKit          3D

 27 27  0  0  1  0  0  0  0  0999 V2000
   28.9108  -22.1824  -17.3408 N   0  0  0  0  0  0  0  0  0  0  0  0
   28.5899  -21.0180  -16.5443 C   0  0  1  0  0  0  0  0  0  0  0  0
   28.3347  -19.8625  -17.5139 C   0  0  0  0  0  0  0  0  0  0  0  0
   27.9387  -18.3834  -16.5700 S   0  0  0  0  0  0  0  0  0  0  0  0
   27.3964  -21.2335  -15.6888 C   0  0  0  0  0  0  0  0  0  0  0  0
   26.5086  -22.0077  -16.1386 O   0  0  0  0  0  0  0  0  0  0  0  0
   25.3687  -22.1959  -10.4897 N   0  0  0  0  0  0  0  0  0  0  0  0
   25.3709  -20.9786  -11.2199 C   0  0  0  0  0  0  0  0  0  0  0  0
   24.4068  -20.1939  -11.0480 O   0  0  0  0  0  0  0  0  0  0  0  0
   26.4999  -20.7128  -12.1304 C   0  0  0  0  0  0  0  0  0  0  0  0
   26.1304  -20.8382  -13.5950 C   0  0  2  0  0  0  0  0  0  0  0  0
   27.2728  -20.6052  -14.4493 N   0  0  0  0  0  0  0  0  0  0  0  0
   24.9732  -20.0066  -13.9822 C   0  0  0  0  0  0  0  0  0  0  0  0
   25.1182  -18.7833  -14.2295 O   0  0  0  0  0  0  0  0  0  0  0  0
   22.3279  -23.9561  -19.1710 O   0  0  0  0  0  0  0  0  0  0  0  0
   22.4378  -22.8094  -18.3793 C   0  0  0  0  0  0  0  0  0  0  0  0
   21.3015  -22.1690  -17.9446 C   0  0  0  0  0  0  0  0  0  0  0  0
   21.3520  -21.0368  -17.1632 C   0  0  0  0  0  0  0  0  0  0  0  0
   22.6030  -20.5481  -16.8185 C   0  0  0  0  0  0  0  0  0  0  0  0
   22.6663  -19.3159  -15.9619 C   0  0  0  0  0  0  0  0  0  0  0  0
   22.5371  -19.6713  -14.4814 C   0  0  2  0  0  0  0  0  0  0  0  0
   23.6533  -20.5100  -14.1005 N   0  0  0  0  0  0  0  0  0  0  0  0
   21.2402  -20.3308  -14.2898 C   0  0  0  0  0  0  0  0  0  0  0  0
   20.0191  -19.7274  -14.5493 O   0  0  0  0  0  0  0  0  0  0  0  0
   23.7378  -21.1958  -17.2580 C   0  0  0  0  0  0  0  0  0  0  0  0
   23.6814  -22.3402  -18.0477 C   0  0  0  0  0  0  0  0  0  0  0  0
   21.2397  -21.5155  -13.8642 O   0  0  0  0  0  0  0  0  0  0  0  0
  2  1  1  6
  2  5  1  0
  3  2  1  0
  3  4  1  0
  5  6  2  0
  7  8  1  0
  8  9  2  0
 10  8  1  0
 11 10  1  1
 11 13  1  0
 12 11  1  0
 12  5  1  0
 13 14  2  0
 15 16  1  0
 16 26  2  0
 17 18  2  0
 17 16  1  0
 18 19  1  0
 19 20  1  0
 19 25  2  0
 21 20  1  6
 21 23  1  0
 22 13  1  0
 22 21  1  0
 23 27  2  0
 23 24  1  0
 26 25  1  0
M  END
$$$$
