CNY.pdb
     RDKit          3D

 27 27  0  0  1  0  0  0  0  0999 V2000
   15.6574  -15.4037  -17.7395 N   0  0  0  0  0  0  0  0  0  0  0  0
   15.4568  -14.1891  -16.9793 C   0  0  1  0  0  0  0  0  0  0  0  0
   15.7941  -14.5067  -15.5213 C   0  0  0  0  0  0  0  0  0  0  0  0
   14.3380  -15.1955  -14.7208 S   0  0  0  0  0  0  0  0  0  0  0  0
   16.3091  -13.0750  -17.4645 C   0  0  0  0  0  0  0  0  0  0  0  0
   17.5243  -13.3396  -17.6722 O   0  0  0  0  0  0  0  0  0  0  0  0
   14.7132   -7.6262  -18.9074 N   0  0  0  0  0  0  0  0  0  0  0  0
   14.8453   -8.9679  -18.4628 C   0  0  0  0  0  0  0  0  0  0  0  0
   14.0932   -9.3510  -17.5342 O   0  0  0  0  0  0  0  0  0  0  0  0
   15.8526   -9.8238  -19.1161 C   0  0  0  0  0  0  0  0  0  0  0  0
   16.6061  -10.7103  -18.1447 C   0  0  2  0  0  0  0  0  0  0  0  0
   15.7813  -11.8012  -17.6770 N   0  0  0  0  0  0  0  0  0  0  0  0
   17.2227   -9.9666  -17.0278 C   0  0  0  0  0  0  0  0  0  0  0  0
   16.6004   -9.7996  -15.9491 O   0  0  0  0  0  0  0  0  0  0  0  0
   22.8183   -5.1012  -12.2424 O   0  0  0  0  0  0  0  0  0  0  0  0
   22.2580   -5.9400  -13.2100 C   0  0  0  0  0  0  0  0  0  0  0  0
   21.9879   -5.4485  -14.4654 C   0  0  0  0  0  0  0  0  0  0  0  0
   21.4368   -6.2302  -15.4553 C   0  0  0  0  0  0  0  0  0  0  0  0
   21.1547   -7.5528  -15.1488 C   0  0  0  0  0  0  0  0  0  0  0  0
   20.5578   -8.4134  -16.2253 C   0  0  0  0  0  0  0  0  0  0  0  0
   19.0494   -8.5637  -16.0322 C   0  0  2  0  0  0  0  0  0  0  0  0
   18.5222   -9.4031  -17.0865 N   0  0  0  0  0  0  0  0  0  0  0  0
   18.4612   -7.2192  -16.0294 C   0  0  0  0  0  0  0  0  0  0  0  0
   18.1753   -6.5018  -14.8778 O   0  0  0  0  0  0  0  0  0  0  0  0
   21.4284   -8.0383  -13.8879 C   0  0  0  0  0  0  0  0  0  0  0  0
   21.9858   -7.2440  -12.8906 C   0  0  0  0  0  0  0  0  0  0  0  0
   18.2020   -6.6880  -17.1408 O   0  0  0  0  0  0  0  0  0  0  0  0
  2  1  1  6
  2  5  1  0
  3  2  1  0
  3  4  1  0
  5  6  2  0
  7  8  1  0
  8  9  2  0
 10  8  1  0
 11 10  1  1
 11 13  1  0
 12 11  1  0
 12  5  1  0
 13 14  2  0
 15 16  1  0
 16 26  2  0
 17 18  2  0
 17 16  1  0
 18 19  1  0
 19 20  1  0
 19 25  2  0
 21 20  1  6
 21 23  1  0
 22 13  1  0
 22 21  1  0
 23 27  2  0
 23 24  1  0
 26 25  1  0
M  END
$$$$
