CNY.pdb
     RDKit          3D

 27 27  0  0  1  0  0  0  0  0999 V2000
   28.0427  -19.2702  -17.1125 N   0  0  0  0  0  0  0  0  0  0  0  0
   27.0851  -20.2658  -16.6823 C   0  0  1  0  0  0  0  0  0  0  0  0
   27.7288  -21.0473  -15.5354 C   0  0  0  0  0  0  0  0  0  0  0  0
   28.6701  -22.4195  -16.2184 S   0  0  0  0  0  0  0  0  0  0  0  0
   25.8092  -19.6591  -16.2276 C   0  0  0  0  0  0  0  0  0  0  0  0
   25.8862  -18.5370  -15.6578 O   0  0  0  0  0  0  0  0  0  0  0  0
   20.0070  -19.0555  -17.1940 N   0  0  0  0  0  0  0  0  0  0  0  0
   21.2256  -18.6242  -16.6074 C   0  0  0  0  0  0  0  0  0  0  0  0
   21.1649  -17.7330  -15.7260 O   0  0  0  0  0  0  0  0  0  0  0  0
   22.4806  -19.2464  -17.0676 C   0  0  0  0  0  0  0  0  0  0  0  0
   23.3499  -19.7512  -15.9333 C   0  0  2  0  0  0  0  0  0  0  0  0
   24.5898  -20.3074  -16.4258 N   0  0  0  0  0  0  0  0  0  0  0  0
   22.6496  -20.6822  -15.0259 C   0  0  0  0  0  0  0  0  0  0  0  0
   22.4882  -21.8868  -15.3447 O   0  0  0  0  0  0  0  0  0  0  0  0
   27.5962  -21.2415  -10.7551 O   0  0  0  0  0  0  0  0  0  0  0  0
   26.2115  -21.1204  -10.9020 C   0  0  0  0  0  0  0  0  0  0  0  0
   25.5282  -22.0156  -11.6907 C   0  0  0  0  0  0  0  0  0  0  0  0
   24.1653  -21.9427  -11.8701 C   0  0  0  0  0  0  0  0  0  0  0  0
   23.4847  -20.9228  -11.2224 C   0  0  0  0  0  0  0  0  0  0  0  0
   21.9967  -20.8396  -11.4093 C   0  0  0  0  0  0  0  0  0  0  0  0
   21.5982  -21.2622  -12.8227 C   0  0  2  0  0  0  0  0  0  0  0  0
   22.1234  -20.2992  -13.7666 N   0  0  0  0  0  0  0  0  0  0  0  0
   20.1346  -21.3595  -12.8660 C   0  0  0  0  0  0  0  0  0  0  0  0
   19.4095  -22.3872  -12.2824 O   0  0  0  0  0  0  0  0  0  0  0  0
   24.1768  -20.0291  -10.4333 C   0  0  0  0  0  0  0  0  0  0  0  0
   25.5546  -20.1072  -10.2551 C   0  0  0  0  0  0  0  0  0  0  0  0
   19.5022  -20.4540  -13.4700 O   0  0  0  0  0  0  0  0  0  0  0  0
  2  1  1  1
  2  5  1  0
  3  2  1  0
  3  4  1  0
  5  6  2  0
  7  8  1  0
  8  9  2  0
 10  8  1  0
 11 10  1  6
 11 13  1  0
 12 11  1  0
 12  5  1  0
 13 14  2  0
 15 16  1  0
 16 26  2  0
 17 18  2  0
 17 16  1  0
 18 19  1  0
 19 20  1  0
 19 25  2  0
 21 20  1  1
 21 23  1  0
 22 13  1  0
 22 21  1  0
 23 27  2  0
 23 24  1  0
 26 25  1  0
M  END
$$$$
