CNY.pdb
     RDKit          3D

 27 27  0  0  1  0  0  0  0  0999 V2000
   18.4285    0.5069  -17.5571 N   0  0  0  0  0  0  0  0  0  0  0  0
   19.8341    0.6513  -17.2464 C   0  0  1  0  0  0  0  0  0  0  0  0
   20.4634    1.4779  -18.3694 C   0  0  0  0  0  0  0  0  0  0  0  0
   20.4328    0.5176  -19.8902 S   0  0  0  0  0  0  0  0  0  0  0  0
   20.0554    1.3211  -15.9405 C   0  0  0  0  0  0  0  0  0  0  0  0
   19.0732    1.9382  -15.4461 O   0  0  0  0  0  0  0  0  0  0  0  0
   19.4844    3.5404  -13.1797 N   0  0  0  0  0  0  0  0  0  0  0  0
   19.4881    2.2592  -12.5684 C   0  0  0  0  0  0  0  0  0  0  0  0
   18.6043    2.0203  -11.7101 O   0  0  0  0  0  0  0  0  0  0  0  0
   20.5247    1.2936  -12.9773 C   0  0  0  0  0  0  0  0  0  0  0  0
   21.4969    1.8541  -13.9961 C   0  0  2  0  0  0  0  0  0  0  0  0
   21.2934    1.2645  -15.2999 N   0  0  0  0  0  0  0  0  0  0  0  0
   22.9079    1.7732  -13.5680 C   0  0  0  0  0  0  0  0  0  0  0  0
   23.4263    0.6660  -13.2779 O   0  0  0  0  0  0  0  0  0  0  0  0
   23.8441    8.8722  -11.7431 O   0  0  0  0  0  0  0  0  0  0  0  0
   24.3740    7.6607  -12.1961 C   0  0  0  0  0  0  0  0  0  0  0  0
   23.8400    7.0563  -13.3097 C   0  0  0  0  0  0  0  0  0  0  0  0
   24.3230    5.8636  -13.7986 C   0  0  0  0  0  0  0  0  0  0  0  0
   25.3831    5.2747  -13.1264 C   0  0  0  0  0  0  0  0  0  0  0  0
   25.9189    3.9755  -13.6568 C   0  0  0  0  0  0  0  0  0  0  0  0
   25.1493    2.7891  -13.0779 C   0  0  2  0  0  0  0  0  0  0  0  0
   23.7570    2.9028  -13.4559 N   0  0  0  0  0  0  0  0  0  0  0  0
   25.3448    2.7940  -11.6234 C   0  0  0  0  0  0  0  0  0  0  0  0
   24.3289    3.0167  -10.7066 O   0  0  0  0  0  0  0  0  0  0  0  0
   25.9132    5.8867  -12.0107 C   0  0  0  0  0  0  0  0  0  0  0  0
   25.4214    7.0925  -11.5204 C   0  0  0  0  0  0  0  0  0  0  0  0
   26.5059    2.5831  -11.1851 O   0  0  0  0  0  0  0  0  0  0  0  0
  2  1  1  6
  2  5  1  0
  3  2  1  0
  3  4  1  0
  5  6  2  0
  7  8  1  0
  8  9  2  0
 10  8  1  0
 11 10  1  1
 11 13  1  0
 12 11  1  0
 12  5  1  0
 13 14  2  0
 15 16  1  0
 16 26  2  0
 17 18  2  0
 17 16  1  0
 18 19  1  0
 19 20  1  0
 19 25  2  0
 21 20  1  6
 21 23  1  0
 22 13  1  0
 22 21  1  0
 23 27  2  0
 23 24  1  0
 26 25  1  0
M  END
$$$$
