QMK.pdb
     RDKit          3D

 27 26  0  0  1  0  0  0  0  0999 V2000
    9.4545  -20.7441   20.3672 N   0  0  0  0  0  0  0  0  0  0  0  0
    9.7971  -19.9695   19.1922 C   0  0  0  0  0  0  0  0  0  0  0  0
   10.3387  -20.6074   18.2697 O   0  0  0  0  0  0  0  0  0  0  0  0
    9.4676  -18.5438   19.2238 C   0  0  0  0  0  0  0  0  0  0  0  0
    8.8537  -18.0883   20.5001 C   0  0  0  0  0  0  0  0  0  0  0  0
    8.4181  -16.6512   20.4866 C   0  0  2  0  0  0  0  0  0  0  0  0
    8.9420  -15.8492   19.4428 N   0  0  0  0  0  0  0  0  0  0  0  0
    8.8206  -16.0330   21.7971 C   0  0  0  0  0  0  0  0  0  0  0  0
   10.0421  -15.8837   22.0818 O   0  0  0  0  0  0  0  0  0  0  0  0
    6.9891  -11.5873   27.6616 C   0  0  0  0  0  0  0  0  0  0  0  0
    6.7841  -12.2380   25.9756 S   0  0  0  0  0  0  0  0  0  0  0  0
    6.9657  -14.0478   25.9815 C   0  0  0  0  0  0  0  0  0  0  0  0
    6.9015  -14.5451   24.5747 C   0  0  0  0  0  0  0  0  0  0  0  0
    8.2392  -15.0408   24.0603 C   0  0  2  0  0  0  0  0  0  0  0  0
    7.8855  -15.6047   22.7389 N   0  0  0  0  0  0  0  0  0  0  0  0
    8.8177  -16.0556   24.9152 C   0  0  0  0  0  0  0  0  0  0  0  0
    8.2422  -17.1688   25.0329 O   0  0  0  0  0  0  0  0  0  0  0  0
   10.0090  -15.8727   25.6308 N   0  0  0  0  0  0  0  0  0  0  0  0
   10.6175  -16.9681   26.4093 C   0  0  1  0  0  0  0  0  0  0  0  0
   12.0164  -17.2240   25.9019 C   0  0  0  0  0  0  0  0  0  0  0  0
   12.7047  -18.3337   26.6499 C   0  0  0  0  0  0  0  0  0  0  0  0
   14.0967  -18.5824   26.0518 C   0  0  0  0  0  0  0  0  0  0  0  0
   14.6956  -19.7416   26.8070 C   0  0  0  0  0  0  0  0  0  0  0  0
   15.9528  -20.1530   26.1982 N   0  0  0  0  0  0  0  0  0  0  0  0
   10.5886  -16.6691   27.8405 C   0  0  0  0  0  0  0  0  0  0  0  0
   10.3507  -15.4965   28.2242 O   0  0  0  0  0  0  0  0  0  0  0  0
   10.8088  -17.6158   28.8171 O   0  0  0  0  0  0  0  0  0  0  0  0
  2  1  1  0
  2  3  2  0
  4  5  1  0
  4  2  1  0
  5  6  1  0
  6  7  1  6
  8  6  1  0
  8  9  2  0
 11 12  1  0
 11 10  1  0
 14 13  1  1
 13 12  1  0
 15 14  1  0
 15  8  1  0
 16 14  1  0
 17 16  2  0
 18 16  1  0
 19 25  1  0
 19 18  1  0
 19 20  1  6
 21 20  1  0
 22 21  1  0
 23 22  1  0
 23 24  1  0
 25 27  1  0
 26 25  2  0
M  END
$$$$
