QMK.pdb
     RDKit          3D

 27 26  0  0  1  0  0  0  0  0999 V2000
    7.7213  -12.2598   18.2954 N   0  0  0  0  0  0  0  0  0  0  0  0
    7.9586  -13.6833   18.1707 C   0  0  0  0  0  0  0  0  0  0  0  0
    8.3359  -14.0667   17.0473 O   0  0  0  0  0  0  0  0  0  0  0  0
    7.7333  -14.4961   19.3668 C   0  0  0  0  0  0  0  0  0  0  0  0
    8.3986  -15.8263   19.3341 C   0  0  0  0  0  0  0  0  0  0  0  0
    8.1336  -16.6689   20.5485 C   0  0  2  0  0  0  0  0  0  0  0  0
    6.7769  -16.9873   20.8044 N   0  0  0  0  0  0  0  0  0  0  0  0
    8.6753  -15.9384   21.7463 C   0  0  0  0  0  0  0  0  0  0  0  0
    9.8890  -15.5909   21.7845 O   0  0  0  0  0  0  0  0  0  0  0  0
    6.3826  -11.5222   27.8140 C   0  0  0  0  0  0  0  0  0  0  0  0
    6.0797  -12.4045   26.2527 S   0  0  0  0  0  0  0  0  0  0  0  0
    7.5126  -13.4456   25.8390 C   0  0  0  0  0  0  0  0  0  0  0  0
    7.2437  -14.1484   24.5488 C   0  0  0  0  0  0  0  0  0  0  0  0
    8.4003  -15.0187   24.0964 C   0  0  2  0  0  0  0  0  0  0  0  0
    7.8813  -15.6174   22.8468 N   0  0  0  0  0  0  0  0  0  0  0  0
    8.7288  -16.0459   25.0619 C   0  0  0  0  0  0  0  0  0  0  0  0
    7.8767  -16.9291   25.3416 O   0  0  0  0  0  0  0  0  0  0  0  0
    9.9671  -16.1226   25.7140 N   0  0  0  0  0  0  0  0  0  0  0  0
   10.3162  -17.2685   26.5751 C   0  0  1  0  0  0  0  0  0  0  0  0
   11.6005  -17.8908   26.0820 C   0  0  0  0  0  0  0  0  0  0  0  0
   11.5546  -19.3948   26.1017 C   0  0  0  0  0  0  0  0  0  0  0  0
   12.8028  -19.9650   25.4130 C   0  0  0  0  0  0  0  0  0  0  0  0
   12.6631  -21.4660   25.4293 C   0  0  0  0  0  0  0  0  0  0  0  0
   13.6559  -22.0808   24.5595 N   0  0  0  0  0  0  0  0  0  0  0  0
   10.3952  -16.8617   27.9776 C   0  0  0  0  0  0  0  0  0  0  0  0
   10.5942  -15.6542   28.2625 O   0  0  0  0  0  0  0  0  0  0  0  0
   10.2593  -17.7402   29.0303 O   0  0  0  0  0  0  0  0  0  0  0  0
  2  1  1  0
  2  3  2  0
  4  5  1  0
  4  2  1  0
  5  6  1  0
  6  7  1  1
  8  6  1  0
  8  9  2  0
 11 12  1  0
 11 10  1  0
 14 13  1  1
 13 12  1  0
 15 14  1  0
 15  8  1  0
 16 14  1  0
 17 16  2  0
 18 16  1  0
 19 25  1  0
 19 18  1  0
 19 20  1  6
 21 20  1  0
 22 21  1  0
 23 22  1  0
 23 24  1  0
 25 27  1  0
 26 25  2  0
M  END
$$$$
