QMK.pdb
     RDKit          3D

 27 26  0  0  1  0  0  0  0  0999 V2000
    8.6415  -12.4980   17.7620 N   0  0  0  0  0  0  0  0  0  0  0  0
    8.0120  -13.6213   17.0985 C   0  0  0  0  0  0  0  0  0  0  0  0
    8.0733  -13.6112   15.8546 O   0  0  0  0  0  0  0  0  0  0  0  0
    7.3871  -14.6281   17.9576 C   0  0  0  0  0  0  0  0  0  0  0  0
    7.5718  -14.3862   19.4138 C   0  0  0  0  0  0  0  0  0  0  0  0
    8.0017  -15.6025   20.1827 C   0  0  2  0  0  0  0  0  0  0  0  0
    6.9885  -16.5499   20.4710 N   0  0  0  0  0  0  0  0  0  0  0  0
    8.5938  -15.1413   21.4859 C   0  0  0  0  0  0  0  0  0  0  0  0
    9.8453  -15.0259   21.6109 O   0  0  0  0  0  0  0  0  0  0  0  0
    6.7097  -11.2857   28.0646 C   0  0  0  0  0  0  0  0  0  0  0  0
    6.3427  -11.8913   26.3894 S   0  0  0  0  0  0  0  0  0  0  0  0
    7.5890  -13.1161   25.8843 C   0  0  0  0  0  0  0  0  0  0  0  0
    7.2943  -13.5590   24.4888 C   0  0  0  0  0  0  0  0  0  0  0  0
    8.3509  -14.4911   23.9278 C   0  0  2  0  0  0  0  0  0  0  0  0
    7.8069  -14.8262   22.5932 N   0  0  0  0  0  0  0  0  0  0  0  0
    8.5170  -15.6841   24.7306 C   0  0  0  0  0  0  0  0  0  0  0  0
    7.5645  -16.5008   24.8319 O   0  0  0  0  0  0  0  0  0  0  0  0
    9.7016  -15.9955   25.4121 N   0  0  0  0  0  0  0  0  0  0  0  0
    9.8560  -17.2623   26.1521 C   0  0  1  0  0  0  0  0  0  0  0  0
   10.9721  -18.0693   25.5332 C   0  0  0  0  0  0  0  0  0  0  0  0
   11.2391  -19.3479   26.2804 C   0  0  0  0  0  0  0  0  0  0  0  0
   12.4672  -20.0533   25.6875 C   0  0  0  0  0  0  0  0  0  0  0  0
   12.6594  -21.3272   26.4705 C   0  0  0  0  0  0  0  0  0  0  0  0
   13.7255  -22.1293   25.8871 N   0  0  0  0  0  0  0  0  0  0  0  0
   10.0720  -17.0111   27.5765 C   0  0  0  0  0  0  0  0  0  0  0  0
   10.5393  -15.9051   27.9470 O   0  0  0  0  0  0  0  0  0  0  0  0
    9.7860  -17.9323   28.5604 O   0  0  0  0  0  0  0  0  0  0  0  0
  2  1  1  0
  2  3  2  0
  4  5  1  0
  4  2  1  0
  5  6  1  0
  6  7  1  1
  8  6  1  0
  8  9  2  0
 11 12  1  0
 11 10  1  0
 14 13  1  1
 13 12  1  0
 15 14  1  0
 15  8  1  0
 16 14  1  0
 17 16  2  0
 18 16  1  0
 19 25  1  0
 19 18  1  0
 19 20  1  6
 21 20  1  0
 22 21  1  0
 23 22  1  0
 23 24  1  0
 25 27  1  0
 26 25  2  0
M  END
$$$$
