QMK.pdb
     RDKit          3D

 27 26  0  0  1  0  0  0  0  0999 V2000
    8.3166  -20.1857   19.7235 N   0  0  0  0  0  0  0  0  0  0  0  0
    8.7763  -19.3721   18.6167 C   0  0  0  0  0  0  0  0  0  0  0  0
    9.2254  -20.0013   17.6402 O   0  0  0  0  0  0  0  0  0  0  0  0
    8.6577  -17.9215   18.7715 C   0  0  0  0  0  0  0  0  0  0  0  0
    8.0666  -17.4932   20.0678 C   0  0  0  0  0  0  0  0  0  0  0  0
    7.8480  -16.0115   20.1766 C   0  0  2  0  0  0  0  0  0  0  0  0
    8.4026  -15.2202   19.1403 N   0  0  0  0  0  0  0  0  0  0  0  0
    8.4370  -15.5510   21.4815 C   0  0  0  0  0  0  0  0  0  0  0  0
    9.6833  -15.6167   21.6756 O   0  0  0  0  0  0  0  0  0  0  0  0
    6.2109  -11.5439   27.9340 C   0  0  0  0  0  0  0  0  0  0  0  0
    5.8466  -12.3493   26.3446 S   0  0  0  0  0  0  0  0  0  0  0  0
    7.3143  -13.2447   25.7507 C   0  0  0  0  0  0  0  0  0  0  0  0
    7.0216  -13.8118   24.4004 C   0  0  0  0  0  0  0  0  0  0  0  0
    8.1925  -14.5753   23.8123 C   0  0  2  0  0  0  0  0  0  0  0  0
    7.6528  -15.0411   22.5158 N   0  0  0  0  0  0  0  0  0  0  0  0
    8.5908  -15.6962   24.6370 C   0  0  0  0  0  0  0  0  0  0  0  0
    7.7895  -16.6505   24.8150 O   0  0  0  0  0  0  0  0  0  0  0  0
    9.8439  -15.7890   25.2580 N   0  0  0  0  0  0  0  0  0  0  0  0
   10.2281  -16.9746   26.0474 C   0  0  1  0  0  0  0  0  0  0  0  0
   11.5942  -17.4451   25.6091 C   0  0  0  0  0  0  0  0  0  0  0  0
   11.6324  -17.8206   24.1523 C   0  0  0  0  0  0  0  0  0  0  0  0
   13.0646  -18.1967   23.7466 C   0  0  0  0  0  0  0  0  0  0  0  0
   13.0404  -18.4726   22.2647 C   0  0  0  0  0  0  0  0  0  0  0  0
   14.3605  -18.8728   21.7982 N   0  0  0  0  0  0  0  0  0  0  0  0
   10.1692  -16.6885   27.4803 C   0  0  0  0  0  0  0  0  0  0  0  0
    9.9532  -15.5134   27.8694 O   0  0  0  0  0  0  0  0  0  0  0  0
   10.3372  -17.6501   28.4527 O   0  0  0  0  0  0  0  0  0  0  0  0
  2  1  1  0
  2  3  2  0
  4  5  1  0
  4  2  1  0
  5  6  1  0
  6  7  1  6
  8  6  1  0
  8  9  2  0
 11 12  1  0
 11 10  1  0
 14 13  1  1
 13 12  1  0
 15 14  1  0
 15  8  1  0
 16 14  1  0
 17 16  2  0
 18 16  1  0
 19 25  1  0
 19 18  1  0
 19 20  1  6
 21 20  1  0
 22 21  1  0
 23 22  1  0
 23 24  1  0
 25 27  1  0
 26 25  2  0
M  END
$$$$
