QMK.pdb
     RDKit          3D

 27 26  0  0  1  0  0  0  0  0999 V2000
    7.6926  -12.3218   18.3450 N   0  0  0  0  0  0  0  0  0  0  0  0
    7.9285  -13.6737   17.8812 C   0  0  0  0  0  0  0  0  0  0  0  0
    7.3791  -13.9737   16.8045 O   0  0  0  0  0  0  0  0  0  0  0  0
    8.7783  -14.5193   18.7208 C   0  0  0  0  0  0  0  0  0  0  0  0
    8.5902  -14.3126   20.1820 C   0  0  0  0  0  0  0  0  0  0  0  0
    8.4779  -15.5877   20.9672 C   0  0  2  0  0  0  0  0  0  0  0  0
    7.1810  -16.1501   21.0635 N   0  0  0  0  0  0  0  0  0  0  0  0
    8.9745  -15.3187   22.3610 C   0  0  0  0  0  0  0  0  0  0  0  0
   10.1495  -14.8943   22.5471 O   0  0  0  0  0  0  0  0  0  0  0  0
    6.7034  -11.8327   27.4696 C   0  0  0  0  0  0  0  0  0  0  0  0
    6.1862  -12.1330   25.7520 S   0  0  0  0  0  0  0  0  0  0  0  0
    7.4619  -13.0898   24.8770 C   0  0  0  0  0  0  0  0  0  0  0  0
    7.5287  -14.4602   25.4670 C   0  0  0  0  0  0  0  0  0  0  0  0
    8.6416  -15.3051   24.8776 C   0  0  2  0  0  0  0  0  0  0  0  0
    8.1793  -15.5204   23.4886 N   0  0  0  0  0  0  0  0  0  0  0  0
    8.8017  -16.5670   25.5685 C   0  0  0  0  0  0  0  0  0  0  0  0
    7.8518  -17.3927   25.5793 O   0  0  0  0  0  0  0  0  0  0  0  0
    9.9778  -16.9363   26.2356 N   0  0  0  0  0  0  0  0  0  0  0  0
   10.0698  -18.1962   26.9975 C   0  0  1  0  0  0  0  0  0  0  0  0
   10.7887  -19.2313   26.1659 C   0  0  0  0  0  0  0  0  0  0  0  0
   11.9494  -18.6509   25.4039 C   0  0  0  0  0  0  0  0  0  0  0  0
   12.7425  -19.7754   24.7229 C   0  0  0  0  0  0  0  0  0  0  0  0
   13.8448  -19.1161   23.9336 C   0  0  0  0  0  0  0  0  0  0  0  0
   14.6096  -20.1110   23.1951 N   0  0  0  0  0  0  0  0  0  0  0  0
   10.7117  -17.9765   28.2929 C   0  0  0  0  0  0  0  0  0  0  0  0
   11.1134  -16.8258   28.5984 O   0  0  0  0  0  0  0  0  0  0  0  0
   10.9056  -18.9755   29.2218 O   0  0  0  0  0  0  0  0  0  0  0  0
  2  1  1  0
  2  3  2  0
  4  5  1  0
  4  2  1  0
  5  6  1  0
  6  7  1  1
  8  6  1  0
  8  9  2  0
 11 12  1  0
 11 10  1  0
 14 13  1  1
 13 12  1  0
 15 14  1  0
 15  8  1  0
 16 14  1  0
 17 16  2  0
 18 16  1  0
 19 25  1  0
 19 18  1  0
 19 20  1  6
 21 20  1  0
 22 21  1  0
 23 22  1  0
 23 24  1  0
 25 27  1  0
 26 25  2  0
M  END
$$$$
