QMK.pdb
     RDKit          3D

 27 26  0  0  1  0  0  0  0  0999 V2000
    9.4364  -12.9916   17.7393 N   0  0  0  0  0  0  0  0  0  0  0  0
    8.0703  -13.4731   17.7529 C   0  0  0  0  0  0  0  0  0  0  0  0
    7.7879  -14.3073   16.8722 O   0  0  0  0  0  0  0  0  0  0  0  0
    7.1913  -12.9318   18.7905 C   0  0  0  0  0  0  0  0  0  0  0  0
    7.8177  -12.8485   20.1373 C   0  0  0  0  0  0  0  0  0  0  0  0
    8.3149  -14.1658   20.6595 C   0  0  2  0  0  0  0  0  0  0  0  0
    7.4344  -15.2667   20.5178 N   0  0  0  0  0  0  0  0  0  0  0  0
    8.6211  -13.9984   22.1223 C   0  0  0  0  0  0  0  0  0  0  0  0
    8.8021  -12.8461   22.6069 O   0  0  0  0  0  0  0  0  0  0  0  0
    6.3095  -10.8658   26.7865 C   0  0  0  0  0  0  0  0  0  0  0  0
    6.3919  -12.6612   26.5083 S   0  0  0  0  0  0  0  0  0  0  0  0
    7.1574  -13.0058   24.8947 C   0  0  0  0  0  0  0  0  0  0  0  0
    7.2445  -14.4848   24.7064 C   0  0  0  0  0  0  0  0  0  0  0  0
    8.6617  -14.9689   24.4677 C   0  0  2  0  0  0  0  0  0  0  0  0
    8.7176  -15.0830   22.9936 N   0  0  0  0  0  0  0  0  0  0  0  0
    8.9207  -16.2482   25.0935 C   0  0  0  0  0  0  0  0  0  0  0  0
    8.5805  -16.4328   26.2912 O   0  0  0  0  0  0  0  0  0  0  0  0
    9.5350  -17.3197   24.4308 N   0  0  0  0  0  0  0  0  0  0  0  0
   10.2125  -18.3998   25.1729 C   0  0  1  0  0  0  0  0  0  0  0  0
   10.1447  -19.6764   24.3694 C   0  0  0  0  0  0  0  0  0  0  0  0
    8.7323  -20.1572   24.1729 C   0  0  0  0  0  0  0  0  0  0  0  0
    8.7259  -21.4150   23.2925 C   0  0  0  0  0  0  0  0  0  0  0  0
    7.2816  -21.7885   23.0752 C   0  0  0  0  0  0  0  0  0  0  0  0
    7.1818  -22.9858   22.2525 N   0  0  0  0  0  0  0  0  0  0  0  0
   11.5853  -18.0219   25.5062 C   0  0  0  0  0  0  0  0  0  0  0  0
   12.1503  -17.1050   24.8591 O   0  0  0  0  0  0  0  0  0  0  0  0
   12.3136  -18.6211   26.5108 O   0  0  0  0  0  0  0  0  0  0  0  0
  2  1  1  0
  2  3  2  0
  4  5  1  0
  4  2  1  0
  5  6  1  0
  6  7  1  1
  8  6  1  0
  8  9  2  0
 11 12  1  0
 11 10  1  0
 14 13  1  6
 13 12  1  0
 15 14  1  0
 15  8  1  0
 16 14  1  0
 17 16  2  0
 18 16  1  0
 19 25  1  0
 19 18  1  0
 19 20  1  6
 21 20  1  0
 22 21  1  0
 23 22  1  0
 23 24  1  0
 25 27  1  0
 26 25  2  0
M  END
$$$$
