QMK.pdb
     RDKit          3D

 27 26  0  0  1  0  0  0  0  0999 V2000
    6.3688  -19.0738   20.1859 N   0  0  0  0  0  0  0  0  0  0  0  0
    6.6721  -18.2781   19.0141 C   0  0  0  0  0  0  0  0  0  0  0  0
    6.5060  -18.8508   17.9207 O   0  0  0  0  0  0  0  0  0  0  0  0
    7.1300  -16.9080   19.2487 C   0  0  0  0  0  0  0  0  0  0  0  0
    7.0775  -16.4833   20.6735 C   0  0  0  0  0  0  0  0  0  0  0  0
    7.3390  -15.0192   20.8818 C   0  0  2  0  0  0  0  0  0  0  0  0
    8.0873  -14.3680   19.8702 N   0  0  0  0  0  0  0  0  0  0  0  0
    8.0766  -14.8610   22.1828 C   0  0  0  0  0  0  0  0  0  0  0  0
    9.3394  -14.8735   22.2041 O   0  0  0  0  0  0  0  0  0  0  0  0
    7.4638  -11.5086   27.9598 C   0  0  0  0  0  0  0  0  0  0  0  0
    6.2659  -11.4919   26.5915 S   0  0  0  0  0  0  0  0  0  0  0  0
    6.9320  -12.4124   25.1710 C   0  0  0  0  0  0  0  0  0  0  0  0
    7.0799  -13.8490   25.5517 C   0  0  0  0  0  0  0  0  0  0  0  0
    8.1023  -14.5834   24.7061 C   0  0  2  0  0  0  0  0  0  0  0  0
    7.4162  -14.6968   23.4000 N   0  0  0  0  0  0  0  0  0  0  0  0
    8.4196  -15.8923   25.2365 C   0  0  0  0  0  0  0  0  0  0  0  0
    7.5210  -16.7717   25.2958 O   0  0  0  0  0  0  0  0  0  0  0  0
    9.6957  -16.2502   25.6925 N   0  0  0  0  0  0  0  0  0  0  0  0
    9.9700  -17.5902   26.2453 C   0  0  1  0  0  0  0  0  0  0  0  0
   11.0144  -18.2759   25.3973 C   0  0  0  0  0  0  0  0  0  0  0  0
   10.7264  -19.7403   25.2040 C   0  0  0  0  0  0  0  0  0  0  0  0
   11.8382  -20.3853   24.3643 C   0  0  0  0  0  0  0  0  0  0  0  0
   11.5091  -21.8526   24.2575 C   0  0  0  0  0  0  0  0  0  0  0  0
   12.4509  -22.5242   23.3729 N   0  0  0  0  0  0  0  0  0  0  0  0
   10.3611  -17.5040   27.6517 C   0  0  0  0  0  0  0  0  0  0  0  0
    9.9834  -18.3927   28.4557 O   0  0  0  0  0  0  0  0  0  0  0  0
   11.1381  -16.4866   28.1613 O   0  0  0  0  0  0  0  0  0  0  0  0
  2  1  1  0
  2  3  2  0
  4  5  1  0
  4  2  1  0
  5  6  1  0
  6  7  1  6
  8  6  1  0
  8  9  2  0
 11 12  1  0
 11 10  1  0
 14 13  1  1
 13 12  1  0
 15 14  1  0
 15  8  1  0
 16 14  1  0
 17 16  2  0
 18 16  1  0
 19 25  1  0
 19 18  1  0
 19 20  1  6
 21 20  1  0
 22 21  1  0
 23 22  1  0
 23 24  1  0
 25 27  1  0
 26 25  2  0
M  END
$$$$
