NIY.pdb
     RDKit          3D

 29 29  0  0  1  0  0  0  0  0999 V2000
   29.3955  -19.7332  -16.7467 N   0  0  0  0  0  0  0  0  0  0  0  0
   28.0713  -19.3459  -17.0263 C   0  0  0  0  0  0  0  0  0  0  0  0
   27.8486  -18.4394  -17.8556 O   0  0  0  0  0  0  0  0  0  0  0  0
   26.9347  -20.0057  -16.3439 C   0  0  0  0  0  0  0  0  0  0  0  0
   27.5605  -20.9588  -15.3236 C   0  0  2  0  0  0  0  0  0  0  0  0
   28.2849  -22.0147  -15.9844 N   0  0  0  0  0  0  0  0  0  0  0  0
   26.4903  -21.4736  -14.4361 C   0  0  0  0  0  0  0  0  0  0  0  0
   25.8411  -22.4698  -14.7686 O   0  0  0  0  0  0  0  0  0  0  0  0
   27.6150  -20.7452   -9.4276 C   0  0  0  0  0  0  0  0  0  0  0  0
   26.9466  -21.2307  -10.6552 C   0  0  0  0  0  0  0  0  0  0  0  0
   25.6000  -20.6060  -10.9296 C   0  0  2  0  0  0  0  0  0  0  0  0
   24.5732  -20.9332   -9.9199 C   0  0  0  0  0  0  0  0  0  0  0  0
   25.1743  -21.2032  -12.2829 C   0  0  2  0  0  0  0  0  0  0  0  0
   26.2426  -20.8046  -13.2257 N   0  0  0  0  0  0  0  0  0  0  0  0
   23.9314  -20.5982  -12.8092 C   0  0  0  0  0  0  0  0  0  0  0  0
   23.8257  -19.3153  -12.8245 O   0  0  0  0  0  0  0  0  0  0  0  0
   16.7139  -18.2252  -16.9550 O   0  0  0  0  0  0  0  0  0  0  0  0
   17.8942  -18.8277  -16.5348 C   0  0  0  0  0  0  0  0  0  0  0  0
   19.0755  -18.1119  -16.4158 C   0  0  0  0  0  0  0  0  0  0  0  0
   20.2464  -18.6967  -16.0010 C   0  0  0  0  0  0  0  0  0  0  0  0
   20.2770  -20.0360  -15.6862 C   0  0  0  0  0  0  0  0  0  0  0  0
   21.5244  -20.6829  -15.2640 C   0  0  0  0  0  0  0  0  0  0  0  0
   21.6547  -20.5945  -13.7621 C   0  0  2  0  0  0  0  0  0  0  0  0
   22.8310  -21.3286  -13.3087 N   0  0  0  0  0  0  0  0  0  0  0  0
   20.4950  -21.1317  -13.0619 C   0  0  0  0  0  0  0  0  0  0  0  0
   20.3563  -22.4595  -12.7503 O   0  0  0  0  0  0  0  0  0  0  0  0
   19.1247  -20.7698  -15.7946 C   0  0  0  0  0  0  0  0  0  0  0  0
   17.9351  -20.1690  -16.2175 C   0  0  0  0  0  0  0  0  0  0  0  0
   19.5447  -20.3668  -12.7081 O   0  0  0  0  0  0  0  0  0  0  0  0
  2  1  1  0
  2  3  2  0
  4  5  1  0
  4  2  1  0
  5  6  1  6
  7  5  1  0
  8  7  2  0
 10  9  1  0
 11 10  1  0
 11 13  1  0
 11 12  1  1
 13 14  1  6
 14  7  1  0
 15 24  1  0
 15 13  1  0
 16 15  2  0
 17 18  1  0
 18 28  2  0
 19 18  1  0
 19 20  2  0
 20 21  1  0
 21 27  2  0
 21 22  1  0
 23 22  1  6
 23 24  1  0
 23 25  1  0
 25 26  1  0
 28 27  1  0
 29 25  2  0
M  END
$$$$
