NIY.pdb
     RDKit          3D

 29 29  0  0  1  0  0  0  0  0999 V2000
   18.8053  -11.2060  -16.1614 N   0  0  0  0  0  0  0  0  0  0  0  0
   20.0744  -11.7786  -15.9536 C   0  0  0  0  0  0  0  0  0  0  0  0
   21.0200  -11.0696  -15.5509 O   0  0  0  0  0  0  0  0  0  0  0  0
   20.3002  -13.2197  -16.2088 C   0  0  0  0  0  0  0  0  0  0  0  0
   21.6064  -13.3006  -17.0013 C   0  0  2  0  0  0  0  0  0  0  0  0
   21.4189  -12.8287  -18.3499 N   0  0  0  0  0  0  0  0  0  0  0  0
   22.1059  -14.6956  -16.9524 C   0  0  0  0  0  0  0  0  0  0  0  0
   21.6112  -15.5528  -17.6905 O   0  0  0  0  0  0  0  0  0  0  0  0
   27.1239  -14.7987  -15.6403 C   0  0  0  0  0  0  0  0  0  0  0  0
   25.9191  -15.4488  -16.2018 C   0  0  0  0  0  0  0  0  0  0  0  0
   25.0526  -16.1554  -15.1875 C   0  0  2  0  0  0  0  0  0  0  0  0
   25.5771  -17.4705  -14.7673 C   0  0  0  0  0  0  0  0  0  0  0  0
   23.7121  -16.3643  -15.9146 C   0  0  2  0  0  0  0  0  0  0  0  0
   23.1421  -15.0063  -16.0558 N   0  0  0  0  0  0  0  0  0  0  0  0
   22.7353  -17.1250  -15.1054 C   0  0  0  0  0  0  0  0  0  0  0  0
   22.4853  -16.7312  -13.9056 O   0  0  0  0  0  0  0  0  0  0  0  0
   15.7989  -20.5433  -11.5507 O   0  0  0  0  0  0  0  0  0  0  0  0
   16.8456  -19.8982  -12.1995 C   0  0  0  0  0  0  0  0  0  0  0  0
   17.9758  -19.4754  -11.5170 C   0  0  0  0  0  0  0  0  0  0  0  0
   19.0156  -18.8382  -12.1481 C   0  0  0  0  0  0  0  0  0  0  0  0
   18.9604  -18.5987  -13.5021 C   0  0  0  0  0  0  0  0  0  0  0  0
   20.0515  -17.8982  -14.1888 C   0  0  0  0  0  0  0  0  0  0  0  0
   21.0825  -18.9006  -14.6500 C   0  0  2  0  0  0  0  0  0  0  0  0
   22.0389  -18.2691  -15.5527 N   0  0  0  0  0  0  0  0  0  0  0  0
   20.4935  -20.0371  -15.3464 C   0  0  0  0  0  0  0  0  0  0  0  0
   20.0497  -21.1630  -14.7023 O   0  0  0  0  0  0  0  0  0  0  0  0
   17.8554  -19.0049  -14.2035 C   0  0  0  0  0  0  0  0  0  0  0  0
   16.7996  -19.6534  -13.5557 C   0  0  0  0  0  0  0  0  0  0  0  0
   20.3693  -20.0242  -16.6105 O   0  0  0  0  0  0  0  0  0  0  0  0
  2  1  1  0
  2  3  2  0
  4  5  1  0
  4  2  1  0
  5  6  1  6
  7  5  1  0
  8  7  2  0
 10  9  1  0
 11 10  1  0
 11 13  1  0
 11 12  1  6
 13 14  1  1
 14  7  1  0
 15 24  1  0
 15 13  1  0
 16 15  2  0
 17 18  1  0
 18 28  2  0
 19 18  1  0
 19 20  2  0
 20 21  1  0
 21 27  2  0
 21 22  1  0
 23 22  1  6
 23 24  1  0
 23 25  1  0
 25 26  1  0
 28 27  1  0
 29 25  2  0
M  END
$$$$
