NIY.pdb
     RDKit          3D

 29 29  0  0  1  0  0  0  0  0999 V2000
   23.4513   -3.2165  -21.2311 N   0  0  0  0  0  0  0  0  0  0  0  0
   24.4896   -3.8568  -20.5285 C   0  0  0  0  0  0  0  0  0  0  0  0
   25.2368   -4.6643  -21.1190 O   0  0  0  0  0  0  0  0  0  0  0  0
   24.7055   -3.5812  -19.0896 C   0  0  0  0  0  0  0  0  0  0  0  0
   23.5979   -2.6070  -18.6834 C   0  0  2  0  0  0  0  0  0  0  0  0
   23.9914   -1.2452  -18.9426 N   0  0  0  0  0  0  0  0  0  0  0  0
   23.2605   -2.8390  -17.2586 C   0  0  0  0  0  0  0  0  0  0  0  0
   23.9357   -2.3081  -16.3717 O   0  0  0  0  0  0  0  0  0  0  0  0
   18.6574   -2.6276  -13.6955 C   0  0  0  0  0  0  0  0  0  0  0  0
   19.8635   -3.3899  -14.0877 C   0  0  0  0  0  0  0  0  0  0  0  0
   20.4062   -3.0525  -15.4553 C   0  0  2  0  0  0  0  0  0  0  0  0
   19.4953   -3.4057  -16.5628 C   0  0  0  0  0  0  0  0  0  0  0  0
   21.6856   -3.9000  -15.5747 C   0  0  2  0  0  0  0  0  0  0  0  0
   22.1670   -3.6671  -16.9541 N   0  0  0  0  0  0  0  0  0  0  0  0
   21.4199   -5.3522  -15.4845 C   0  0  0  0  0  0  0  0  0  0  0  0
   21.1056   -5.9917  -16.5566 O   0  0  0  0  0  0  0  0  0  0  0  0
   22.4494  -13.6950  -15.5307 O   0  0  0  0  0  0  0  0  0  0  0  0
   22.5122  -12.3092  -15.4398 C   0  0  0  0  0  0  0  0  0  0  0  0
   23.2494  -11.6765  -14.4508 C   0  0  0  0  0  0  0  0  0  0  0  0
   23.3190  -10.3088  -14.3525 C   0  0  0  0  0  0  0  0  0  0  0  0
   22.6445   -9.5154  -15.2522 C   0  0  0  0  0  0  0  0  0  0  0  0
   22.6882   -8.0526  -15.1481 C   0  0  0  0  0  0  0  0  0  0  0  0
   21.4754   -7.5647  -14.3921 C   0  0  2  0  0  0  0  0  0  0  0  0
   21.4875   -6.1091  -14.2944 N   0  0  0  0  0  0  0  0  0  0  0  0
   21.3983   -8.1029  -13.0401 C   0  0  0  0  0  0  0  0  0  0  0  0
   21.7640   -7.3903  -11.9275 O   0  0  0  0  0  0  0  0  0  0  0  0
   21.9068  -10.1125  -16.2408 C   0  0  0  0  0  0  0  0  0  0  0  0
   21.8396  -11.5058  -16.3362 C   0  0  0  0  0  0  0  0  0  0  0  0
   20.9797   -9.2855  -12.8403 O   0  0  0  0  0  0  0  0  0  0  0  0
  2  1  1  0
  2  3  2  0
  4  5  1  0
  4  2  1  0
  5  6  1  1
  7  5  1  0
  8  7  2  0
 10  9  1  0
 11 10  1  0
 11 13  1  0
 11 12  1  6
 13 14  1  6
 14  7  1  0
 15 24  1  0
 15 13  1  0
 16 15  2  0
 17 18  1  0
 18 28  2  0
 19 18  1  0
 19 20  2  0
 20 21  1  0
 21 27  2  0
 21 22  1  0
 23 22  1  1
 23 24  1  0
 23 25  1  0
 25 26  1  0
 28 27  1  0
 29 25  2  0
M  END
$$$$
