NIY.pdb
     RDKit          3D

 29 29  0  0  1  0  0  0  0  0999 V2000
   19.5035  -23.9087  -12.1175 N   0  0  0  0  0  0  0  0  0  0  0  0
   19.4649  -22.5305  -12.4013 C   0  0  0  0  0  0  0  0  0  0  0  0
   18.3833  -21.9103  -12.3354 O   0  0  0  0  0  0  0  0  0  0  0  0
   20.6998  -21.8055  -12.7789 C   0  0  0  0  0  0  0  0  0  0  0  0
   21.3406  -21.3642  -11.4616 C   0  0  2  0  0  0  0  0  0  0  0  0
   20.4205  -20.5756  -10.6818 N   0  0  0  0  0  0  0  0  0  0  0  0
   22.5963  -20.6367  -11.7646 C   0  0  0  0  0  0  0  0  0  0  0  0
   22.5490  -19.4862  -12.2100 O   0  0  0  0  0  0  0  0  0  0  0  0
   26.4043  -21.3746   -8.3243 C   0  0  0  0  0  0  0  0  0  0  0  0
   25.5879  -20.9096   -9.4674 C   0  0  0  0  0  0  0  0  0  0  0  0
   26.1051  -21.3262  -10.8231 C   0  0  2  0  0  0  0  0  0  0  0  0
   27.4748  -20.8545  -11.1102 C   0  0  0  0  0  0  0  0  0  0  0  0
   25.1335  -20.6664  -11.8181 C   0  0  2  0  0  0  0  0  0  0  0  0
   23.8206  -21.2859  -11.5329 N   0  0  0  0  0  0  0  0  0  0  0  0
   25.4380  -21.0063  -13.2251 C   0  0  0  0  0  0  0  0  0  0  0  0
   25.4189  -22.2432  -13.5812 O   0  0  0  0  0  0  0  0  0  0  0  0
   23.6546  -22.0113  -21.4217 O   0  0  0  0  0  0  0  0  0  0  0  0
   23.7956  -21.7786  -20.0584 C   0  0  0  0  0  0  0  0  0  0  0  0
   23.2446  -20.6619  -19.4490 C   0  0  0  0  0  0  0  0  0  0  0  0
   23.3771  -20.4230  -18.1034 C   0  0  0  0  0  0  0  0  0  0  0  0
   24.0745  -21.3047  -17.3097 C   0  0  0  0  0  0  0  0  0  0  0  0
   24.2463  -21.0533  -15.8744 C   0  0  0  0  0  0  0  0  0  0  0  0
   25.6140  -20.4632  -15.6263 C   0  0  2  0  0  0  0  0  0  0  0  0
   25.7511  -20.0646  -14.2296 N   0  0  0  0  0  0  0  0  0  0  0  0
   25.8833  -19.2940  -16.4534 C   0  0  0  0  0  0  0  0  0  0  0  0
   25.5263  -18.0210  -16.0910 O   0  0  0  0  0  0  0  0  0  0  0  0
   24.6309  -22.4175  -17.8841 C   0  0  0  0  0  0  0  0  0  0  0  0
   24.4928  -22.6559  -19.2549 C   0  0  0  0  0  0  0  0  0  0  0  0
   26.4729  -19.4179  -17.5716 O   0  0  0  0  0  0  0  0  0  0  0  0
  2  1  1  0
  2  3  2  0
  4  5  1  0
  4  2  1  0
  5  6  1  6
  7  5  1  0
  8  7  2  0
 10  9  1  0
 11 10  1  0
 11 13  1  0
 11 12  1  6
 13 14  1  1
 14  7  1  0
 15 24  1  0
 15 13  1  0
 16 15  2  0
 17 18  1  0
 18 28  2  0
 19 18  1  0
 19 20  2  0
 20 21  1  0
 21 27  2  0
 21 22  1  0
 23 22  1  1
 23 24  1  0
 23 25  1  0
 25 26  1  0
 28 27  1  0
 29 25  2  0
M  END
$$$$
