NIY.pdb
     RDKit          3D

 29 29  0  0  1  0  0  0  0  0999 V2000
   17.8120   -9.0238  -20.0975 N   0  0  0  0  0  0  0  0  0  0  0  0
   18.8869   -9.5671  -19.3687 C   0  0  0  0  0  0  0  0  0  0  0  0
   19.7108  -10.3142  -19.9362 O   0  0  0  0  0  0  0  0  0  0  0  0
   19.0511   -9.2602  -17.9293 C   0  0  0  0  0  0  0  0  0  0  0  0
   20.1378  -10.2114  -17.4240 C   0  0  2  0  0  0  0  0  0  0  0  0
   19.6820  -11.5778  -17.4612 N   0  0  0  0  0  0  0  0  0  0  0  0
   20.5461   -9.7860  -16.0638 C   0  0  0  0  0  0  0  0  0  0  0  0
   19.7512   -9.8826  -15.1241 O   0  0  0  0  0  0  0  0  0  0  0  0
   25.8704   -9.2407  -15.9921 C   0  0  0  0  0  0  0  0  0  0  0  0
   24.4356   -8.9236  -15.8185 C   0  0  0  0  0  0  0  0  0  0  0  0
   23.8214   -9.4547  -14.5459 C   0  0  2  0  0  0  0  0  0  0  0  0
   23.7614  -10.9289  -14.4820 C   0  0  0  0  0  0  0  0  0  0  0  0
   22.3860   -8.8989  -14.5575 C   0  0  2  0  0  0  0  0  0  0  0  0
   21.8434   -9.2787  -15.8804 N   0  0  0  0  0  0  0  0  0  0  0  0
   22.3449   -7.4209  -14.5186 C   0  0  0  0  0  0  0  0  0  0  0  0
   23.3732   -6.7845  -14.0772 O   0  0  0  0  0  0  0  0  0  0  0  0
   22.4770    0.9760  -15.7913 O   0  0  0  0  0  0  0  0  0  0  0  0
   22.5009   -0.4117  -15.7119 C   0  0  0  0  0  0  0  0  0  0  0  0
   22.6751   -1.0696  -14.5042 C   0  0  0  0  0  0  0  0  0  0  0  0
   22.6993   -2.4394  -14.4144 C   0  0  0  0  0  0  0  0  0  0  0  0
   22.5479   -3.2095  -15.5448 C   0  0  0  0  0  0  0  0  0  0  0  0
   22.5949   -4.6741  -15.4711 C   0  0  0  0  0  0  0  0  0  0  0  0
   21.3386   -5.1859  -14.8077 C   0  0  2  0  0  0  0  0  0  0  0  0
   21.2484   -6.6362  -14.9376 N   0  0  0  0  0  0  0  0  0  0  0  0
   20.1258   -4.6099  -15.3742 C   0  0  0  0  0  0  0  0  0  0  0  0
   19.2558   -5.3192  -16.1613 O   0  0  0  0  0  0  0  0  0  0  0  0
   22.3744   -2.5872  -16.7534 C   0  0  0  0  0  0  0  0  0  0  0  0
   22.3504   -1.1919  -16.8389 C   0  0  0  0  0  0  0  0  0  0  0  0
   19.8254   -3.3956  -15.1537 O   0  0  0  0  0  0  0  0  0  0  0  0
  2  1  1  0
  2  3  2  0
  4  5  1  0
  4  2  1  0
  5  6  1  1
  7  5  1  0
  8  7  2  0
 10  9  1  0
 11 10  1  0
 11 13  1  0
 11 12  1  6
 13 14  1  6
 14  7  1  0
 15 24  1  0
 15 13  1  0
 16 15  2  0
 17 18  1  0
 18 28  2  0
 19 18  1  0
 19 20  2  0
 20 21  1  0
 21 27  2  0
 21 22  1  0
 23 22  1  6
 23 24  1  0
 23 25  1  0
 25 26  1  0
 28 27  1  0
 29 25  2  0
M  END
$$$$
