ANL.pdb
     RDKit          3D

 22 21  0  0  1  0  0  0  0  0999 V2000
    7.4011  -13.1361   18.9854 C   0  0  0  0  0  0  0  0  0  0  0  0
    8.5430  -13.8158   19.7191 C   0  0  2  0  0  0  0  0  0  0  0  0
    8.9810  -14.9269   18.8818 N   0  0  0  0  0  0  0  0  0  0  0  0
    7.9681  -14.3345   21.0030 C   0  0  0  0  0  0  0  0  0  0  0  0
    7.3459  -13.5674   21.7456 O   0  0  0  0  0  0  0  0  0  0  0  0
    5.6849  -18.5651   23.7455 N   0  0  0  0  0  0  0  0  0  0  0  0
    7.0919  -18.4660   23.6703 C   0  0  0  0  0  0  0  0  0  0  0  0
    7.8115  -18.9566   24.5944 O   0  0  0  0  0  0  0  0  0  0  0  0
    7.6640  -17.7780   22.4878 C   0  0  0  0  0  0  0  0  0  0  0  0
    7.5600  -16.2818   22.5671 C   0  0  2  0  0  0  0  0  0  0  0  0
    8.1344  -15.7098   21.3743 N   0  0  0  0  0  0  0  0  0  0  0  0
    8.2633  -15.7666   23.7968 C   0  0  0  0  0  0  0  0  0  0  0  0
    9.5120  -15.8434   23.8924 O   0  0  0  0  0  0  0  0  0  0  0  0
    8.2570  -11.6922   25.4187 C   0  0  0  0  0  0  0  0  0  0  0  0
    7.0260  -12.5171   25.8045 C   0  0  2  0  0  0  0  0  0  0  0  0
    5.9630  -11.6408   26.4068 C   0  0  0  0  0  0  0  0  0  0  0  0
    7.3973  -13.6279   26.7424 C   0  0  0  0  0  0  0  0  0  0  0  0
    8.2222  -14.6474   26.0480 C   0  0  2  0  0  0  0  0  0  0  0  0
    7.5468  -15.1861   24.8712 N   0  0  0  0  0  0  0  0  0  0  0  0
    8.6897  -15.6946   26.9393 C   0  0  0  0  0  0  0  0  0  0  0  0
    9.7604  -15.6360   27.8070 O   0  0  0  0  0  0  0  0  0  0  0  0
    8.0538  -16.8112   26.9356 O   0  0  0  0  0  0  0  0  0  0  0  0
  2  1  1  6
  2  4  1  0
  2  3  1  0
  4 11  1  0
  5  4  2  0
  7  8  2  0
  7  6  1  0
  9  7  1  0
 10  9  1  6
 10 12  1  0
 11 10  1  0
 12 13  2  0
 12 19  1  0
 15 14  1  1
 15 16  1  0
 18 17  1  1
 17 15  1  0
 18 20  1  0
 19 18  1  0
 20 22  2  0
 20 21  1  0
M  END
$$$$
