ANL.pdb
     RDKit          3D

 22 21  0  0  1  0  0  0  0  0999 V2000
    8.3570  -12.2545   19.3206 C   0  0  0  0  0  0  0  0  0  0  0  0
    8.5381  -13.6934   18.8722 C   0  0  2  0  0  0  0  0  0  0  0  0
    7.5312  -13.9463   17.8475 N   0  0  0  0  0  0  0  0  0  0  0  0
    8.2717  -14.5457   20.0766 C   0  0  0  0  0  0  0  0  0  0  0  0
    7.1071  -14.7320   20.4455 O   0  0  0  0  0  0  0  0  0  0  0  0
    8.8429  -18.0640   20.1617 N   0  0  0  0  0  0  0  0  0  0  0  0
   10.0013  -18.1539   20.9650 C   0  0  0  0  0  0  0  0  0  0  0  0
   10.7839  -19.1460   20.8389 O   0  0  0  0  0  0  0  0  0  0  0  0
   10.2449  -17.0583   21.9341 C   0  0  0  0  0  0  0  0  0  0  0  0
    9.1624  -16.0171   21.9331 C   0  0  2  0  0  0  0  0  0  0  0  0
    9.3550  -15.1443   20.8013 N   0  0  0  0  0  0  0  0  0  0  0  0
    9.1814  -15.2324   23.2200 C   0  0  0  0  0  0  0  0  0  0  0  0
   10.1625  -14.5037   23.5044 O   0  0  0  0  0  0  0  0  0  0  0  0
    5.3708  -12.6145   27.2395 C   0  0  0  0  0  0  0  0  0  0  0  0
    6.7896  -13.0397   26.8512 C   0  0  2  0  0  0  0  0  0  0  0  0
    7.6933  -11.8435   26.7367 C   0  0  0  0  0  0  0  0  0  0  0  0
    6.7827  -13.8280   25.5746 C   0  0  0  0  0  0  0  0  0  0  0  0
    8.0914  -14.4946   25.3624 C   0  0  2  0  0  0  0  0  0  0  0  0
    8.1059  -15.2910   24.1390 N   0  0  0  0  0  0  0  0  0  0  0  0
    8.5277  -15.2579   26.5187 C   0  0  0  0  0  0  0  0  0  0  0  0
    8.7956  -16.6099   26.5740 O   0  0  0  0  0  0  0  0  0  0  0  0
    8.6863  -14.6268   27.6268 O   0  0  0  0  0  0  0  0  0  0  0  0
  2  1  1  1
  2  4  1  0
  2  3  1  0
  4 11  1  0
  5  4  2  0
  7  8  2  0
  7  6  1  0
  9  7  1  0
 10  9  1  1
 10 12  1  0
 11 10  1  0
 12 13  2  0
 12 19  1  0
 15 14  1  6
 15 16  1  0
 18 17  1  1
 17 15  1  0
 18 20  1  0
 19 18  1  0
 20 22  2  0
 20 21  1  0
M  END
$$$$
