ANL.pdb
     RDKit          3D

 22 21  0  0  1  0  0  0  0  0999 V2000
    6.0332  -20.1753   22.5484 C   0  0  0  0  0  0  0  0  0  0  0  0
    6.2081  -19.1229   23.6282 C   0  0  2  0  0  0  0  0  0  0  0  0
    5.1219  -18.1636   23.4628 N   0  0  0  0  0  0  0  0  0  0  0  0
    7.5256  -18.4597   23.3594 C   0  0  0  0  0  0  0  0  0  0  0  0
    8.5675  -19.1190   23.4422 O   0  0  0  0  0  0  0  0  0  0  0  0
    9.5807  -16.7000   19.5698 N   0  0  0  0  0  0  0  0  0  0  0  0
    8.4425  -16.3091   20.3093 C   0  0  0  0  0  0  0  0  0  0  0  0
    7.2833  -16.6383   19.9084 O   0  0  0  0  0  0  0  0  0  0  0  0
    8.6701  -15.5172   21.5420 C   0  0  0  0  0  0  0  0  0  0  0  0
    8.8219  -16.3674   22.7709 C   0  0  2  0  0  0  0  0  0  0  0  0
    7.5854  -17.0705   23.0081 N   0  0  0  0  0  0  0  0  0  0  0  0
    9.1881  -15.5175   23.9608 C   0  0  0  0  0  0  0  0  0  0  0  0
   10.3095  -14.9577   24.0195 O   0  0  0  0  0  0  0  0  0  0  0  0
    7.6999  -11.8907   25.4627 C   0  0  0  0  0  0  0  0  0  0  0  0
    6.8157  -13.0617   25.9005 C   0  0  2  0  0  0  0  0  0  0  0  0
    5.5134  -12.5658   26.4653 C   0  0  0  0  0  0  0  0  0  0  0  0
    7.5306  -13.9323   26.8916 C   0  0  0  0  0  0  0  0  0  0  0  0
    8.6817  -14.6178   26.2534 C   0  0  2  0  0  0  0  0  0  0  0  0
    8.2898  -15.3253   25.0381 N   0  0  0  0  0  0  0  0  0  0  0  0
    9.4085  -15.4730   27.1755 C   0  0  0  0  0  0  0  0  0  0  0  0
   10.1542  -15.0800   28.2674 O   0  0  0  0  0  0  0  0  0  0  0  0
    9.3710  -16.7411   26.9712 O   0  0  0  0  0  0  0  0  0  0  0  0
  2  1  1  6
  2  4  1  0
  2  3  1  0
  4 11  1  0
  5  4  2  0
  7  8  2  0
  7  6  1  0
  9  7  1  0
 10  9  1  6
 10 12  1  0
 11 10  1  0
 12 13  2  0
 12 19  1  0
 15 14  1  1
 15 16  1  0
 18 17  1  1
 17 15  1  0
 18 20  1  0
 19 18  1  0
 20 22  2  0
 20 21  1  0
M  END
$$$$
