ANL.pdb
     RDKit          3D

 22 21  0  0  1  0  0  0  0  0999 V2000
    8.0660  -12.3849   19.5593 C   0  0  0  0  0  0  0  0  0  0  0  0
    8.5143  -13.7291   19.0151 C   0  0  2  0  0  0  0  0  0  0  0  0
    7.5988  -14.0731   17.9330 N   0  0  0  0  0  0  0  0  0  0  0  0
    8.3702  -14.7079   20.1416 C   0  0  0  0  0  0  0  0  0  0  0  0
    7.2417  -15.0545   20.5069 O   0  0  0  0  0  0  0  0  0  0  0  0
    9.5813  -19.1429   21.1732 N   0  0  0  0  0  0  0  0  0  0  0  0
   10.5107  -18.1100   20.9192 C   0  0  0  0  0  0  0  0  0  0  0  0
   11.2003  -18.1267   19.8530 O   0  0  0  0  0  0  0  0  0  0  0  0
   10.6323  -17.0379   21.9363 C   0  0  0  0  0  0  0  0  0  0  0  0
    9.4573  -16.1025   21.9522 C   0  0  2  0  0  0  0  0  0  0  0  0
    9.5287  -15.2431   20.7963 N   0  0  0  0  0  0  0  0  0  0  0  0
    9.4456  -15.2886   23.2210 C   0  0  0  0  0  0  0  0  0  0  0  0
   10.3999  -14.5198   23.4904 O   0  0  0  0  0  0  0  0  0  0  0  0
    5.7228  -12.3544   27.0085 C   0  0  0  0  0  0  0  0  0  0  0  0
    7.1151  -12.9143   26.7039 C   0  0  2  0  0  0  0  0  0  0  0  0
    8.1188  -11.8034   26.5644 C   0  0  0  0  0  0  0  0  0  0  0  0
    7.0911  -13.7704   25.4720 C   0  0  0  0  0  0  0  0  0  0  0  0
    8.3402  -14.5637   25.3599 C   0  0  2  0  0  0  0  0  0  0  0  0
    8.3705  -15.3639   24.1393 N   0  0  0  0  0  0  0  0  0  0  0  0
    8.6084  -15.3604   26.5445 C   0  0  0  0  0  0  0  0  0  0  0  0
    8.2096  -16.6587   26.7854 O   0  0  0  0  0  0  0  0  0  0  0  0
    9.2887  -14.8168   27.4894 O   0  0  0  0  0  0  0  0  0  0  0  0
  2  1  1  1
  2  4  1  0
  2  3  1  0
  4 11  1  0
  5  4  2  0
  7  8  2  0
  7  6  1  0
  9  7  1  0
 10  9  1  1
 10 12  1  0
 11 10  1  0
 12 13  2  0
 12 19  1  0
 15 14  1  6
 15 16  1  0
 18 17  1  1
 17 15  1  0
 18 20  1  0
 19 18  1  0
 20 22  2  0
 20 21  1  0
M  END
$$$$
