ANL.pdb
     RDKit          3D

 22 21  0  0  1  0  0  0  0  0999 V2000
    5.7908  -20.5271   22.7256 C   0  0  0  0  0  0  0  0  0  0  0  0
    5.8817  -19.0411   23.0222 C   0  0  2  0  0  0  0  0  0  0  0  0
    5.5964  -18.3431   21.7736 N   0  0  0  0  0  0  0  0  0  0  0  0
    7.2969  -18.7826   23.4444 C   0  0  0  0  0  0  0  0  0  0  0  0
    7.7285  -19.3022   24.4791 O   0  0  0  0  0  0  0  0  0  0  0  0
   12.4697  -17.7783   22.8461 N   0  0  0  0  0  0  0  0  0  0  0  0
   11.6826  -16.8353   22.1488 C   0  0  0  0  0  0  0  0  0  0  0  0
   12.1834  -15.7180   21.8120 O   0  0  0  0  0  0  0  0  0  0  0  0
   10.2816  -17.2116   21.8415 C   0  0  0  0  0  0  0  0  0  0  0  0
    9.4838  -17.5672   23.0634 C   0  0  2  0  0  0  0  0  0  0  0  0
    8.1506  -17.9394   22.6587 N   0  0  0  0  0  0  0  0  0  0  0  0
    9.4441  -16.4076   24.0257 C   0  0  0  0  0  0  0  0  0  0  0  0
   10.5044  -15.9647   24.5296 O   0  0  0  0  0  0  0  0  0  0  0  0
    5.4032  -12.3785   26.5674 C   0  0  0  0  0  0  0  0  0  0  0  0
    6.8233  -12.9203   26.3820 C   0  0  2  0  0  0  0  0  0  0  0  0
    7.7669  -11.8201   25.9819 C   0  0  0  0  0  0  0  0  0  0  0  0
    6.8452  -14.0344   25.3772 C   0  0  0  0  0  0  0  0  0  0  0  0
    8.1683  -14.7063   25.3675 C   0  0  2  0  0  0  0  0  0  0  0  0
    8.2239  -15.7875   24.3882 N   0  0  0  0  0  0  0  0  0  0  0  0
    8.5878  -15.1410   26.6885 C   0  0  0  0  0  0  0  0  0  0  0  0
    8.5758  -16.4270   27.1872 O   0  0  0  0  0  0  0  0  0  0  0  0
    9.0195  -14.2463   27.5035 O   0  0  0  0  0  0  0  0  0  0  0  0
  2  1  1  6
  2  4  1  0
  2  3  1  0
  4 11  1  0
  5  4  2  0
  7  8  2  0
  7  6  1  0
  9  7  1  0
 10  9  1  6
 10 12  1  0
 11 10  1  0
 12 13  2  0
 12 19  1  0
 15 14  1  6
 15 16  1  0
 18 17  1  1
 17 15  1  0
 18 20  1  0
 19 18  1  0
 20 22  2  0
 20 21  1  0
M  END
$$$$
