ANL.pdb
     RDKit          3D

 22 21  0  0  1  0  0  0  0  0999 V2000
    7.3745  -13.3533   18.2692 C   0  0  0  0  0  0  0  0  0  0  0  0
    8.5586  -13.1864   19.2042 C   0  0  2  0  0  0  0  0  0  0  0  0
    9.7410  -13.6232   18.4703 N   0  0  0  0  0  0  0  0  0  0  0  0
    8.3082  -14.0994   20.3667 C   0  0  0  0  0  0  0  0  0  0  0  0
    7.2743  -13.9702   21.0311 O   0  0  0  0  0  0  0  0  0  0  0  0
   11.0632  -18.8185   23.1815 N   0  0  0  0  0  0  0  0  0  0  0  0
    9.8837  -18.2464   22.6555 C   0  0  0  0  0  0  0  0  0  0  0  0
    8.7496  -18.6430   23.0669 O   0  0  0  0  0  0  0  0  0  0  0  0
   10.0393  -17.1893   21.6274 C   0  0  0  0  0  0  0  0  0  0  0  0
    9.0363  -16.0797   21.7644 C   0  0  2  0  0  0  0  0  0  0  0  0
    9.2566  -15.1183   20.7123 N   0  0  0  0  0  0  0  0  0  0  0  0
    9.1526  -15.4248   23.1171 C   0  0  0  0  0  0  0  0  0  0  0  0
   10.2649  -15.0183   23.5316 O   0  0  0  0  0  0  0  0  0  0  0  0
    5.7204  -12.2410   27.1187 C   0  0  0  0  0  0  0  0  0  0  0  0
    7.0374  -12.9260   26.7431 C   0  0  2  0  0  0  0  0  0  0  0  0
    8.1423  -11.9166   26.5986 C   0  0  0  0  0  0  0  0  0  0  0  0
    6.8832  -13.7326   25.4873 C   0  0  0  0  0  0  0  0  0  0  0  0
    8.1075  -14.5276   25.2207 C   0  0  2  0  0  0  0  0  0  0  0  0
    8.0243  -15.2491   23.9543 N   0  0  0  0  0  0  0  0  0  0  0  0
    8.4634  -15.3999   26.3263 C   0  0  0  0  0  0  0  0  0  0  0  0
    8.3300  -16.7716   26.3839 O   0  0  0  0  0  0  0  0  0  0  0  0
    8.9567  -14.8572   27.3814 O   0  0  0  0  0  0  0  0  0  0  0  0
  2  1  1  6
  2  4  1  0
  2  3  1  0
  4 11  1  0
  5  4  2  0
  7  8  2  0
  7  6  1  0
  9  7  1  0
 10  9  1  1
 10 12  1  0
 11 10  1  0
 12 13  2  0
 12 19  1  0
 15 14  1  6
 15 16  1  0
 18 17  1  1
 17 15  1  0
 18 20  1  0
 19 18  1  0
 20 22  2  0
 20 21  1  0
M  END
$$$$
