ANL.pdb
     RDKit          3D

 22 21  0  0  1  0  0  0  0  0999 V2000
    7.2097  -20.0950   20.7953 C   0  0  0  0  0  0  0  0  0  0  0  0
    7.1995  -19.3460   22.1155 C   0  0  2  0  0  0  0  0  0  0  0  0
    5.8753  -18.7498   22.2525 N   0  0  0  0  0  0  0  0  0  0  0  0
    8.2379  -18.2711   21.9971 C   0  0  0  0  0  0  0  0  0  0  0  0
    9.4194  -18.5831   21.8131 O   0  0  0  0  0  0  0  0  0  0  0  0
    9.0577  -15.2104   18.8943 N   0  0  0  0  0  0  0  0  0  0  0  0
    7.9903  -15.1579   19.8180 C   0  0  0  0  0  0  0  0  0  0  0  0
    6.8197  -15.4874   19.4524 O   0  0  0  0  0  0  0  0  0  0  0  0
    8.3039  -14.7100   21.1964 C   0  0  0  0  0  0  0  0  0  0  0  0
    8.8313  -15.8119   22.0701 C   0  0  2  0  0  0  0  0  0  0  0  0
    7.8715  -16.8879   22.0954 N   0  0  0  0  0  0  0  0  0  0  0  0
    9.0963  -15.3018   23.4636 C   0  0  0  0  0  0  0  0  0  0  0  0
   10.1895  -14.7517   23.7406 O   0  0  0  0  0  0  0  0  0  0  0  0
    8.2269  -12.0448   26.4253 C   0  0  0  0  0  0  0  0  0  0  0  0
    7.1121  -12.9773   25.9432 C   0  0  2  0  0  0  0  0  0  0  0  0
    5.7602  -12.4172   26.2887 C   0  0  0  0  0  0  0  0  0  0  0  0
    7.2812  -14.3548   26.5136 C   0  0  0  0  0  0  0  0  0  0  0  0
    8.4248  -15.0510   25.8736 C   0  0  2  0  0  0  0  0  0  0  0  0
    8.1323  -15.4252   24.4932 N   0  0  0  0  0  0  0  0  0  0  0  0
    8.9076  -16.1756   26.6560 C   0  0  0  0  0  0  0  0  0  0  0  0
    9.5371  -16.1305   27.8825 O   0  0  0  0  0  0  0  0  0  0  0  0
    8.7448  -17.3547   26.1719 O   0  0  0  0  0  0  0  0  0  0  0  0
  2  1  1  6
  2  4  1  0
  2  3  1  0
  4 11  1  0
  5  4  2  0
  7  8  2  0
  7  6  1  0
  9  7  1  0
 10  9  1  6
 10 12  1  0
 11 10  1  0
 12 13  2  0
 12 19  1  0
 15 14  1  1
 15 16  1  0
 18 17  1  1
 17 15  1  0
 18 20  1  0
 19 18  1  0
 20 22  2  0
 20 21  1  0
M  END
$$$$
