ANL.pdb
     RDKit          3D

 22 21  0  0  1  0  0  0  0  0999 V2000
    8.1450  -12.4576   19.3282 C   0  0  0  0  0  0  0  0  0  0  0  0
    8.4962  -13.8487   18.8324 C   0  0  2  0  0  0  0  0  0  0  0  0
    7.5176  -14.1908   17.8064 N   0  0  0  0  0  0  0  0  0  0  0  0
    8.3483  -14.7644   20.0103 C   0  0  0  0  0  0  0  0  0  0  0  0
    7.2232  -15.1527   20.3425 O   0  0  0  0  0  0  0  0  0  0  0  0
    9.6879  -19.2286   21.3890 N   0  0  0  0  0  0  0  0  0  0  0  0
   10.4147  -18.0976   20.9555 C   0  0  0  0  0  0  0  0  0  0  0  0
   10.8961  -18.0664   19.7808 O   0  0  0  0  0  0  0  0  0  0  0  0
   10.5791  -16.9831   21.9196 C   0  0  0  0  0  0  0  0  0  0  0  0
    9.4190  -16.0290   21.9232 C   0  0  2  0  0  0  0  0  0  0  0  0
    9.4993  -15.1917   20.7518 N   0  0  0  0  0  0  0  0  0  0  0  0
    9.4253  -15.1925   23.1773 C   0  0  0  0  0  0  0  0  0  0  0  0
   10.3805  -14.4147   23.4162 O   0  0  0  0  0  0  0  0  0  0  0  0
    6.2651  -13.1644   27.6329 C   0  0  0  0  0  0  0  0  0  0  0  0
    7.2835  -12.6553   26.6090 C   0  0  2  0  0  0  0  0  0  0  0  0
    7.0492  -11.2027   26.2993 C   0  0  0  0  0  0  0  0  0  0  0  0
    7.2442  -13.4814   25.3572 C   0  0  0  0  0  0  0  0  0  0  0  0
    8.3658  -14.4529   25.3342 C   0  0  2  0  0  0  0  0  0  0  0  0
    8.3667  -15.2562   24.1153 N   0  0  0  0  0  0  0  0  0  0  0  0
    8.4238  -15.2732   26.5315 C   0  0  0  0  0  0  0  0  0  0  0  0
    7.7357  -16.4435   26.7759 O   0  0  0  0  0  0  0  0  0  0  0  0
    9.1922  -14.8854   27.4857 O   0  0  0  0  0  0  0  0  0  0  0  0
  2  1  1  1
  2  4  1  0
  2  3  1  0
  4 11  1  0
  5  4  2  0
  7  8  2  0
  7  6  1  0
  9  7  1  0
 10  9  1  1
 10 12  1  0
 11 10  1  0
 12 13  2  0
 12 19  1  0
 15 14  1  1
 15 16  1  0
 18 17  1  1
 17 15  1  0
 18 20  1  0
 19 18  1  0
 20 22  2  0
 20 21  1  0
M  END
$$$$
