ANL.pdb
     RDKit          3D

 22 21  0  0  1  0  0  0  0  0999 V2000
    8.0167  -12.6452   19.6532 C   0  0  0  0  0  0  0  0  0  0  0  0
    8.7551  -13.8506   20.2064 C   0  0  2  0  0  0  0  0  0  0  0  0
    8.9738  -14.7615   19.0883 N   0  0  0  0  0  0  0  0  0  0  0  0
    7.8379  -14.4806   21.2113 C   0  0  0  0  0  0  0  0  0  0  0  0
    6.7087  -14.0094   21.3848 O   0  0  0  0  0  0  0  0  0  0  0  0
    5.7828  -19.2487   23.2649 N   0  0  0  0  0  0  0  0  0  0  0  0
    6.9818  -18.6596   23.7238 C   0  0  0  0  0  0  0  0  0  0  0  0
    7.3688  -18.8582   24.9168 O   0  0  0  0  0  0  0  0  0  0  0  0
    7.7401  -17.8218   22.7635 C   0  0  0  0  0  0  0  0  0  0  0  0
    7.3786  -16.3658   22.8360 C   0  0  2  0  0  0  0  0  0  0  0  0
    8.2600  -15.6221   21.9701 N   0  0  0  0  0  0  0  0  0  0  0  0
    7.4785  -15.8654   24.2544 C   0  0  0  0  0  0  0  0  0  0  0  0
    6.6717  -16.2674   25.1273 O   0  0  0  0  0  0  0  0  0  0  0  0
    7.7873  -11.7219   26.0965 C   0  0  0  0  0  0  0  0  0  0  0  0
    6.7848  -12.8741   25.9869 C   0  0  2  0  0  0  0  0  0  0  0  0
    5.4611  -12.4894   26.5875 C   0  0  0  0  0  0  0  0  0  0  0  0
    7.3234  -14.1167   26.6328 C   0  0  0  0  0  0  0  0  0  0  0  0
    8.6235  -14.5006   26.0289 C   0  0  2  0  0  0  0  0  0  0  0  0
    8.4739  -14.9368   24.6438 N   0  0  0  0  0  0  0  0  0  0  0  0
    9.3532  -15.4662   26.8320 C   0  0  0  0  0  0  0  0  0  0  0  0
    9.9695  -15.2464   28.0463 O   0  0  0  0  0  0  0  0  0  0  0  0
    9.4527  -16.6655   26.3814 O   0  0  0  0  0  0  0  0  0  0  0  0
  2  1  1  6
  2  4  1  0
  2  3  1  0
  4 11  1  0
  5  4  2  0
  7  8  2  0
  7  6  1  0
  9  7  1  0
 10  9  1  1
 10 12  1  0
 11 10  1  0
 12 13  2  0
 12 19  1  0
 15 14  1  1
 15 16  1  0
 18 17  1  1
 17 15  1  0
 18 20  1  0
 19 18  1  0
 20 22  2  0
 20 21  1  0
M  END
$$$$
