ANL.pdb
     RDKit          3D

 22 21  0  0  1  0  0  0  0  0999 V2000
    8.4389  -12.2161   19.5227 C   0  0  0  0  0  0  0  0  0  0  0  0
    8.4783  -13.6003   18.9010 C   0  0  2  0  0  0  0  0  0  0  0  0
    7.4064  -13.6501   17.9130 N   0  0  0  0  0  0  0  0  0  0  0  0
    8.1996  -14.5680   20.0117 C   0  0  0  0  0  0  0  0  0  0  0  0
    7.0309  -14.7945   20.3434 O   0  0  0  0  0  0  0  0  0  0  0  0
   11.1668  -18.8407   23.2669 N   0  0  0  0  0  0  0  0  0  0  0  0
    9.9913  -18.2879   22.7122 C   0  0  0  0  0  0  0  0  0  0  0  0
    8.8543  -18.7115   23.0871 O   0  0  0  0  0  0  0  0  0  0  0  0
   10.1543  -17.2179   21.6986 C   0  0  0  0  0  0  0  0  0  0  0  0
    9.0731  -16.1771   21.7589 C   0  0  2  0  0  0  0  0  0  0  0  0
    9.2757  -15.2306   20.6899 N   0  0  0  0  0  0  0  0  0  0  0  0
    9.0825  -15.4807   23.0958 C   0  0  0  0  0  0  0  0  0  0  0  0
   10.0894  -14.8291   23.4646 O   0  0  0  0  0  0  0  0  0  0  0  0
    5.4834  -12.2856   26.7200 C   0  0  0  0  0  0  0  0  0  0  0  0
    6.8171  -13.0043   26.4976 C   0  0  2  0  0  0  0  0  0  0  0  0
    7.9502  -12.0184   26.4288 C   0  0  0  0  0  0  0  0  0  0  0  0
    6.7700  -13.8511   25.2598 C   0  0  0  0  0  0  0  0  0  0  0  0
    7.9259  -14.7806   25.2158 C   0  0  2  0  0  0  0  0  0  0  0  0
    7.9693  -15.5384   23.9687 N   0  0  0  0  0  0  0  0  0  0  0  0
    7.9999  -15.6416   26.3833 C   0  0  0  0  0  0  0  0  0  0  0  0
    8.7881  -15.4659   27.5016 O   0  0  0  0  0  0  0  0  0  0  0  0
    7.2607  -16.6925   26.3994 O   0  0  0  0  0  0  0  0  0  0  0  0
  2  1  1  1
  2  4  1  0
  2  3  1  0
  4 11  1  0
  5  4  2  0
  7  8  2  0
  7  6  1  0
  9  7  1  0
 10  9  1  1
 10 12  1  0
 11 10  1  0
 12 13  2  0
 12 19  1  0
 15 14  1  6
 15 16  1  0
 18 17  1  1
 17 15  1  0
 18 20  1  0
 19 18  1  0
 20 22  2  0
 20 21  1  0
M  END
$$$$
