KRD.pdb
     RDKit          3D

 29 28  0  0  1  0  0  0  0  0999 V2000
   28.9295  -21.8242  -18.2954 N   0  0  0  0  0  0  0  0  0  0  0  0
   28.4089  -20.7717  -17.4390 C   0  0  1  0  0  0  0  0  0  0  0  0
   27.8079  -19.7393  -18.3552 C   0  0  0  0  0  0  0  0  0  0  0  0
   28.8865  -18.9009  -18.9645 C   0  0  0  0  0  0  0  0  0  0  0  0
   29.0384  -19.2165  -20.4264 C   0  0  0  0  0  0  0  0  0  0  0  0
   30.1458  -18.3513  -21.0455 C   0  0  0  0  0  0  0  0  0  0  0  0
   29.6367  -16.9998  -21.1384 N   0  0  0  0  0  0  0  0  0  0  0  0
   27.3621  -21.3283  -16.5150 C   0  0  0  0  0  0  0  0  0  0  0  0
   26.6222  -22.2494  -16.9157 O   0  0  0  0  0  0  0  0  0  0  0  0
   23.7566  -19.5766   -9.8316 N   0  0  0  0  0  0  0  0  0  0  0  0
   24.2902  -20.6151   -8.9845 C   0  0  0  0  0  0  0  0  0  0  0  0
   23.7010  -20.9280   -7.8911 N   0  0  0  0  0  0  0  0  0  0  0  0
   25.4753  -21.3094   -9.3372 N   0  0  0  0  0  0  0  0  0  0  0  0
   26.2833  -20.9837  -10.4599 C   0  0  0  0  0  0  0  0  0  0  0  0
   25.7352  -21.3872  -11.8010 C   0  0  0  0  0  0  0  0  0  0  0  0
   26.6374  -21.0339  -12.9242 C   0  0  0  0  0  0  0  0  0  0  0  0
   26.1432  -21.3901  -14.3077 C   0  0  2  0  0  0  0  0  0  0  0  0
   27.1827  -20.8462  -15.2059 N   0  0  0  0  0  0  0  0  0  0  0  0
   24.8955  -20.7374  -14.7046 C   0  0  0  0  0  0  0  0  0  0  0  0
   24.8556  -19.4528  -14.8079 O   0  0  0  0  0  0  0  0  0  0  0  0
   24.1107  -21.6793   -7.2975 N   0  0  0  0  0  0  0  0  0  0  0  0
   23.6640  -21.3509  -15.0090 C   0  0  1  0  0  0  0  0  0  0  0  0
   22.4629  -20.6003  -15.3571 C   0  0  0  0  0  0  0  0  0  0  0  0
   22.0050  -20.8761  -16.7443 C   0  0  0  0  0  0  0  0  0  0  0  0
   20.8057  -20.0712  -17.0496 O   0  0  0  0  0  0  0  0  0  0  0  0
   20.3212  -19.2436  -16.1963 C   0  0  0  0  0  0  0  0  0  0  0  0
   21.3744  -20.9840  -14.4019 O   0  0  0  0  0  0  0  0  0  0  0  0
   20.2174  -20.5281  -14.4885 O   0  0  0  0  0  0  0  0  0  0  0  0
   20.1147  -20.1372  -18.2461 O   0  0  0  0  0  0  0  0  0  0  0  0
  2  1  1  6
  3  2  1  0
  4  5  1  0
  4  3  1  0
  5  6  1  0
  7  6  1  0
  8  9  2  0
  8  2  1  0
 10 11  1  0
 11 12  2  0
 13 11  1  0
 13 14  1  0
 14 15  1  0
 16 15  1  0
 17 16  1  1
 17 18  1  0
 18  8  1  0
 19 21  1  0
 19 17  1  0
 20 19  2  0
 22 21  1  0
 22 26  1  0
 23 24  1  0
 22 23  1  6
 24 25  2  0
 26 29  1  0
 27 26  2  0
 28 24  1  0
M  END
$$$$
