KRD.pdb
     RDKit          3D

 29 28  0  0  1  0  0  0  0  0999 V2000
   25.3714  -21.3362  -11.5787 N   0  0  0  0  0  0  0  0  0  0  0  0
   24.5042  -21.3486  -12.7449 C   0  0  1  0  0  0  0  0  0  0  0  0
   24.1092  -22.7849  -12.9632 C   0  0  0  0  0  0  0  0  0  0  0  0
   24.2824  -23.1536  -14.4025 C   0  0  0  0  0  0  0  0  0  0  0  0
   25.6990  -22.9109  -14.8431 C   0  0  0  0  0  0  0  0  0  0  0  0
   25.8679  -23.2858  -16.3227 C   0  0  0  0  0  0  0  0  0  0  0  0
   25.5064  -24.6805  -16.4587 N   0  0  0  0  0  0  0  0  0  0  0  0
   23.2885  -20.5011  -12.4935 C   0  0  0  0  0  0  0  0  0  0  0  0
   23.3731  -19.5281  -11.7172 O   0  0  0  0  0  0  0  0  0  0  0  0
   21.5323  -16.6346  -18.6608 N   0  0  0  0  0  0  0  0  0  0  0  0
   22.6144  -15.9014  -18.0506 C   0  0  0  0  0  0  0  0  0  0  0  0
   22.8508  -14.6894  -18.3909 N   0  0  0  0  0  0  0  0  0  0  0  0
   23.4408  -16.5015  -17.0668 N   0  0  0  0  0  0  0  0  0  0  0  0
   23.2925  -17.8397  -16.6125 C   0  0  0  0  0  0  0  0  0  0  0  0
   22.3216  -18.0444  -15.4823 C   0  0  0  0  0  0  0  0  0  0  0  0
   22.2211  -19.4616  -15.0559 C   0  0  0  0  0  0  0  0  0  0  0  0
   21.3208  -19.7349  -13.8728 C   0  0  2  0  0  0  0  0  0  0  0  0
   22.0493  -20.7652  -13.1041 N   0  0  0  0  0  0  0  0  0  0  0  0
   20.0267  -20.3304  -14.2063 C   0  0  0  0  0  0  0  0  0  0  0  0
   19.9554  -21.5917  -14.4637 O   0  0  0  0  0  0  0  0  0  0  0  0
   23.6399  -14.1851  -17.9352 N   0  0  0  0  0  0  0  0  0  0  0  0
   18.7782  -19.6823  -14.2874 C   0  0  1  0  0  0  0  0  0  0  0  0
   17.5135  -20.3987  -14.4097 C   0  0  0  0  0  0  0  0  0  0  0  0
   17.6249  -21.8200  -13.9883 C   0  0  0  0  0  0  0  0  0  0  0  0
   16.5663  -22.6221  -14.6326 O   0  0  0  0  0  0  0  0  0  0  0  0
   15.6808  -22.0783  -15.3862 C   0  0  0  0  0  0  0  0  0  0  0  0
   16.4992  -19.7146  -13.5452 O   0  0  0  0  0  0  0  0  0  0  0  0
   15.3226  -20.1153  -13.4501 O   0  0  0  0  0  0  0  0  0  0  0  0
   16.4352  -23.9911  -14.4836 O   0  0  0  0  0  0  0  0  0  0  0  0
  2  1  1  1
  3  2  1  0
  4  5  1  0
  4  3  1  0
  5  6  1  0
  7  6  1  0
  8  9  2  0
  8  2  1  0
 10 11  1  0
 11 12  2  0
 13 11  1  0
 13 14  1  0
 14 15  1  0
 16 15  1  0
 17 16  1  6
 17 18  1  0
 18  8  1  0
 19 21  1  0
 19 17  1  0
 20 19  2  0
 22 21  1  0
 22 26  1  0
 23 24  1  0
 22 23  1  1
 24 25  2  0
 26 29  1  0
 27 26  2  0
 28 24  1  0
M  END
$$$$
