KRD.pdb
     RDKit          3D

 29 28  0  0  1  0  0  0  0  0999 V2000
   27.1654  -20.7359  -17.0784 N   0  0  0  0  0  0  0  0  0  0  0  0
   26.4117  -19.8411  -16.2163 C   0  0  1  0  0  0  0  0  0  0  0  0
   25.4262  -19.1287  -17.1039 C   0  0  0  0  0  0  0  0  0  0  0  0
   26.1499  -18.2710  -18.0927 C   0  0  0  0  0  0  0  0  0  0  0  0
   25.1744  -17.5571  -18.9864 C   0  0  0  0  0  0  0  0  0  0  0  0
   25.9231  -16.6567  -19.9799 C   0  0  0  0  0  0  0  0  0  0  0  0
   24.9329  -16.0488  -20.8427 N   0  0  0  0  0  0  0  0  0  0  0  0
   25.6921  -20.6287  -15.1573 C   0  0  0  0  0  0  0  0  0  0  0  0
   25.8238  -21.8688  -15.1244 O   0  0  0  0  0  0  0  0  0  0  0  0
   28.0171  -20.7869   -8.0286 N   0  0  0  0  0  0  0  0  0  0  0  0
   27.9557  -21.1585   -9.4211 C   0  0  0  0  0  0  0  0  0  0  0  0
   28.9985  -21.5949  -10.0234 N   0  0  0  0  0  0  0  0  0  0  0  0
   26.7472  -21.0475  -10.1547 N   0  0  0  0  0  0  0  0  0  0  0  0
   25.4937  -20.7113   -9.5758 C   0  0  0  0  0  0  0  0  0  0  0  0
   24.3431  -20.5790  -10.5352 C   0  0  0  0  0  0  0  0  0  0  0  0
   24.7449  -20.0099  -11.8448 C   0  0  0  0  0  0  0  0  0  0  0  0
   24.2884  -20.7737  -13.0669 C   0  0  2  0  0  0  0  0  0  0  0  0
   24.8691  -20.0165  -14.1949 N   0  0  0  0  0  0  0  0  0  0  0  0
   22.8427  -20.7726  -13.2912 C   0  0  0  0  0  0  0  0  0  0  0  0
   22.1618  -19.7070  -13.0400 O   0  0  0  0  0  0  0  0  0  0  0  0
   28.9311  -21.8318  -11.0353 N   0  0  0  0  0  0  0  0  0  0  0  0
   22.0473  -21.8314  -13.7726 C   0  0  2  0  0  0  0  0  0  0  0  0
   20.6639  -22.0414  -13.3609 C   0  0  0  0  0  0  0  0  0  0  0  0
   20.5612  -22.8029  -12.0882 C   0  0  0  0  0  0  0  0  0  0  0  0
   19.1959  -23.3419  -11.9309 O   0  0  0  0  0  0  0  0  0  0  0  0
   18.5664  -23.2524  -10.8158 C   0  0  0  0  0  0  0  0  0  0  0  0
   20.0184  -20.7020  -13.1780 O   0  0  0  0  0  0  0  0  0  0  0  0
   20.3332  -19.9289  -12.2521 O   0  0  0  0  0  0  0  0  0  0  0  0
   18.4943  -23.9761  -12.9404 O   0  0  0  0  0  0  0  0  0  0  0  0
  2  1  1  6
  3  2  1  0
  4  5  1  0
  4  3  1  0
  5  6  1  0
  7  6  1  0
  8  9  2  0
  8  2  1  0
 10 11  1  0
 11 12  2  0
 13 11  1  0
 13 14  1  0
 14 15  1  0
 16 15  1  0
 17 16  1  1
 17 18  1  0
 18  8  1  0
 19 21  1  0
 19 17  1  0
 20 19  2  0
 22 21  1  0
 22 26  1  0
 23 24  1  0
 22 23  1  6
 24 25  2  0
 26 29  1  0
 27 26  2  0
 28 24  1  0
M  END
$$$$
