KRD.pdb
     RDKit          3D

 29 28  0  0  1  0  0  0  0  0999 V2000
   16.8168  -12.2226    6.2393 N   0  0  0  0  0  0  0  0  0  0  0  0
   17.6762  -13.3072    5.7952 C   0  0  1  0  0  0  0  0  0  0  0  0
   18.9597  -13.1747    6.5710 C   0  0  0  0  0  0  0  0  0  0  0  0
   19.7418  -11.9997    6.0760 C   0  0  0  0  0  0  0  0  0  0  0  0
   21.0446  -11.8826    6.8168 C   0  0  0  0  0  0  0  0  0  0  0  0
   21.8963  -10.7524    6.2206 C   0  0  0  0  0  0  0  0  0  0  0  0
   23.1458  -10.7223    6.9501 N   0  0  0  0  0  0  0  0  0  0  0  0
   17.0245  -14.6317    6.0787 C   0  0  0  0  0  0  0  0  0  0  0  0
   16.2185  -14.7245    7.0264 O   0  0  0  0  0  0  0  0  0  0  0  0
   17.4967  -21.9099    2.3025 N   0  0  0  0  0  0  0  0  0  0  0  0
   16.1170  -22.1706    2.6330 C   0  0  0  0  0  0  0  0  0  0  0  0
   15.6162  -23.3364    2.4573 N   0  0  0  0  0  0  0  0  0  0  0  0
   15.2843  -21.1481    3.1545 N   0  0  0  0  0  0  0  0  0  0  0  0
   15.6246  -19.7684    3.1546 C   0  0  0  0  0  0  0  0  0  0  0  0
   15.9495  -19.1735    4.4971 C   0  0  0  0  0  0  0  0  0  0  0  0
   16.3971  -17.7619    4.4109 C   0  0  0  0  0  0  0  0  0  0  0  0
   16.8131  -17.1184    5.7139 C   0  0  2  0  0  0  0  0  0  0  0  0
   17.2909  -15.7796    5.3108 N   0  0  0  0  0  0  0  0  0  0  0  0
   17.9453  -17.7580    6.3845 C   0  0  0  0  0  0  0  0  0  0  0  0
   19.1370  -17.5841    5.9241 O   0  0  0  0  0  0  0  0  0  0  0  0
   14.6046  -23.4832    2.6566 N   0  0  0  0  0  0  0  0  0  0  0  0
   17.9133  -18.5808    7.5279 C   0  0  1  0  0  0  0  0  0  0  0  0
   19.1033  -19.2036    8.0965 C   0  0  0  0  0  0  0  0  0  0  0  0
   19.5609  -18.5232    9.3366 C   0  0  0  0  0  0  0  0  0  0  0  0
   20.7328  -19.2260    9.8952 O   0  0  0  0  0  0  0  0  0  0  0  0
   21.3583  -20.1222    9.2218 C   0  0  0  0  0  0  0  0  0  0  0  0
   18.7803  -20.6308    8.4175 O   0  0  0  0  0  0  0  0  0  0  0  0
   17.6341  -21.1029    8.2858 O   0  0  0  0  0  0  0  0  0  0  0  0
   21.2449  -18.9913   11.1586 O   0  0  0  0  0  0  0  0  0  0  0  0
  2  1  1  1
  3  2  1  0
  4  5  1  0
  4  3  1  0
  5  6  1  0
  7  6  1  0
  8  9  2  0
  8  2  1  0
 10 11  1  0
 11 12  2  0
 13 11  1  0
 13 14  1  0
 14 15  1  0
 16 15  1  0
 17 16  1  6
 17 18  1  0
 18  8  1  0
 19 21  1  0
 19 17  1  0
 20 19  2  0
 22 21  1  0
 22 26  1  0
 23 24  1  0
 22 23  1  1
 24 25  2  0
 26 29  1  0
 27 26  2  0
 28 24  1  0
M  END
$$$$
