KRD.pdb
     RDKit          3D

 29 28  0  0  1  0  0  0  0  0999 V2000
   17.5890  -22.7667  -10.6722 N   0  0  0  0  0  0  0  0  0  0  0  0
   18.2248  -23.0103  -11.9562 C   0  0  1  0  0  0  0  0  0  0  0  0
   17.1221  -23.3853  -12.9101 C   0  0  0  0  0  0  0  0  0  0  0  0
   17.0715  -24.8704  -13.0808 C   0  0  0  0  0  0  0  0  0  0  0  0
   15.9265  -25.2608  -13.9733 C   0  0  0  0  0  0  0  0  0  0  0  0
   15.8642  -26.7879  -14.1220 C   0  0  0  0  0  0  0  0  0  0  0  0
   14.8013  -27.0876  -15.0574 N   0  0  0  0  0  0  0  0  0  0  0  0
   18.9288  -21.7687  -12.4277 C   0  0  0  0  0  0  0  0  0  0  0  0
   18.5303  -20.6544  -12.0328 O   0  0  0  0  0  0  0  0  0  0  0  0
   27.2000  -21.8976  -12.1944 N   0  0  0  0  0  0  0  0  0  0  0  0
   26.5527  -21.5186  -13.4266 C   0  0  0  0  0  0  0  0  0  0  0  0
   27.1757  -21.6095  -14.5420 N   0  0  0  0  0  0  0  0  0  0  0  0
   25.2195  -21.0354  -13.4335 N   0  0  0  0  0  0  0  0  0  0  0  0
   24.5262  -20.6317  -14.6063 C   0  0  0  0  0  0  0  0  0  0  0  0
   23.1486  -20.0678  -14.3920 C   0  0  0  0  0  0  0  0  0  0  0  0
   22.1854  -21.0735  -13.8808 C   0  0  0  0  0  0  0  0  0  0  0  0
   20.7619  -20.5967  -13.7034 C   0  0  2  0  0  0  0  0  0  0  0  0
   20.0276  -21.8152  -13.3044 N   0  0  0  0  0  0  0  0  0  0  0  0
   20.1120  -20.1249  -14.9262 C   0  0  0  0  0  0  0  0  0  0  0  0
   19.8193  -20.9686  -15.8562 O   0  0  0  0  0  0  0  0  0  0  0  0
   26.6854  -21.3238  -15.4153 N   0  0  0  0  0  0  0  0  0  0  0  0
   19.7383  -18.8044  -15.2458 C   0  0  1  0  0  0  0  0  0  0  0  0
   19.1094  -18.4365  -16.5094 C   0  0  0  0  0  0  0  0  0  0  0  0
   18.3605  -17.1555  -16.4173 C   0  0  0  0  0  0  0  0  0  0  0  0
   17.0536  -17.3801  -15.7688 O   0  0  0  0  0  0  0  0  0  0  0  0
   16.6064  -18.5649  -15.5587 C   0  0  0  0  0  0  0  0  0  0  0  0
   20.1815  -18.2980  -17.5464 O   0  0  0  0  0  0  0  0  0  0  0  0
   21.3479  -17.9628  -17.2616 O   0  0  0  0  0  0  0  0  0  0  0  0
   16.2164  -16.3638  -15.3448 O   0  0  0  0  0  0  0  0  0  0  0  0
  2  1  1  1
  3  2  1  0
  4  5  1  0
  4  3  1  0
  5  6  1  0
  7  6  1  0
  8  9  2  0
  8  2  1  0
 10 11  1  0
 11 12  2  0
 13 11  1  0
 13 14  1  0
 14 15  1  0
 16 15  1  0
 17 16  1  6
 17 18  1  0
 18  8  1  0
 19 21  1  0
 19 17  1  0
 20 19  2  0
 22 21  1  0
 22 26  1  0
 23 24  1  0
 22 23  1  6
 24 25  2  0
 26 29  1  0
 27 26  2  0
 28 24  1  0
M  END
$$$$
