KRD.pdb
     RDKit          3D

 29 28  0  0  1  0  0  0  0  0999 V2000
   29.8916  -22.1807  -17.6875 N   0  0  0  0  0  0  0  0  0  0  0  0
   28.4662  -22.1931  -17.9710 C   0  0  1  0  0  0  0  0  0  0  0  0
   28.2000  -23.4554  -18.7471 C   0  0  0  0  0  0  0  0  0  0  0  0
   29.1966  -23.5998  -19.8531 C   0  0  0  0  0  0  0  0  0  0  0  0
   28.6553  -23.0212  -21.1306 C   0  0  0  0  0  0  0  0  0  0  0  0
   29.6919  -23.1528  -22.2559 C   0  0  0  0  0  0  0  0  0  0  0  0
   29.0893  -22.6265  -23.4619 N   0  0  0  0  0  0  0  0  0  0  0  0
   27.6843  -22.1901  -16.6872 C   0  0  0  0  0  0  0  0  0  0  0  0
   27.0259  -23.2017  -16.3717 O   0  0  0  0  0  0  0  0  0  0  0  0
   26.0100  -20.2541   -8.6469 N   0  0  0  0  0  0  0  0  0  0  0  0
   25.1057  -20.7147   -9.6720 C   0  0  0  0  0  0  0  0  0  0  0  0
   23.8395  -20.6883   -9.4807 N   0  0  0  0  0  0  0  0  0  0  0  0
   25.5931  -21.2086  -10.9087 N   0  0  0  0  0  0  0  0  0  0  0  0
   26.8998  -20.9558  -11.4064 C   0  0  0  0  0  0  0  0  0  0  0  0
   27.0230  -19.8099  -12.3726 C   0  0  0  0  0  0  0  0  0  0  0  0
   27.6872  -20.1932  -13.6423 C   0  0  0  0  0  0  0  0  0  0  0  0
   26.8868  -21.0829  -14.5660 C   0  0  2  0  0  0  0  0  0  0  0  0
   27.6659  -21.0818  -15.8215 N   0  0  0  0  0  0  0  0  0  0  0  0
   25.5626  -20.5721  -14.9208 C   0  0  0  0  0  0  0  0  0  0  0  0
   25.4637  -19.4796  -15.5981 O   0  0  0  0  0  0  0  0  0  0  0  0
   23.2121  -21.0638  -10.2222 N   0  0  0  0  0  0  0  0  0  0  0  0
   24.3111  -21.1407  -14.6106 C   0  0  2  0  0  0  0  0  0  0  0  0
   23.0414  -20.5270  -14.9829 C   0  0  0  0  0  0  0  0  0  0  0  0
   22.3046  -21.3227  -15.9999 C   0  0  0  0  0  0  0  0  0  0  0  0
   21.0347  -20.6524  -16.3424 O   0  0  0  0  0  0  0  0  0  0  0  0
   20.7264  -19.5100  -15.8447 C   0  0  0  0  0  0  0  0  0  0  0  0
   22.1955  -20.4111  -13.7520 O   0  0  0  0  0  0  0  0  0  0  0  0
   22.3592  -21.1436  -12.7567 O   0  0  0  0  0  0  0  0  0  0  0  0
   20.0891  -21.1814  -17.2024 O   0  0  0  0  0  0  0  0  0  0  0  0
  2  1  1  1
  3  2  1  0
  4  5  1  0
  4  3  1  0
  5  6  1  0
  7  6  1  0
  8  9  2  0
  8  2  1  0
 10 11  1  0
 11 12  2  0
 13 11  1  0
 13 14  1  0
 14 15  1  0
 16 15  1  0
 17 16  1  1
 17 18  1  0
 18  8  1  0
 19 21  1  0
 19 17  1  0
 20 19  2  0
 22 21  1  0
 22 26  1  0
 23 24  1  0
 22 23  1  6
 24 25  2  0
 26 29  1  0
 27 26  2  0
 28 24  1  0
M  END
$$$$
