KRD.pdb
     RDKit          3D

 29 28  0  0  1  0  0  0  0  0999 V2000
   28.4774  -22.3192  -17.4805 N   0  0  0  0  0  0  0  0  0  0  0  0
   28.1722  -21.2317  -16.5660 C   0  0  1  0  0  0  0  0  0  0  0  0
   28.0305  -19.9945  -17.4121 C   0  0  0  0  0  0  0  0  0  0  0  0
   27.9108  -20.3684  -18.8554 C   0  0  0  0  0  0  0  0  0  0  0  0
   28.4723  -19.2827  -19.7306 C   0  0  0  0  0  0  0  0  0  0  0  0
   28.2462  -19.6221  -21.2111 C   0  0  0  0  0  0  0  0  0  0  0  0
   28.8284  -18.5526  -21.9931 N   0  0  0  0  0  0  0  0  0  0  0  0
   26.8913  -21.5173  -15.8331 C   0  0  0  0  0  0  0  0  0  0  0  0
   26.0623  -22.3019  -16.3368 O   0  0  0  0  0  0  0  0  0  0  0  0
   25.7645  -20.6108   -7.0960 N   0  0  0  0  0  0  0  0  0  0  0  0
   24.4508  -20.9701   -7.5714 C   0  0  0  0  0  0  0  0  0  0  0  0
   23.4730  -21.0862   -6.7522 N   0  0  0  0  0  0  0  0  0  0  0  0
   24.2110  -21.2057   -8.9490 N   0  0  0  0  0  0  0  0  0  0  0  0
   25.1700  -20.9797   -9.9729 C   0  0  0  0  0  0  0  0  0  0  0  0
   24.7165  -21.2834  -11.3743 C   0  0  0  0  0  0  0  0  0  0  0  0
   25.7771  -21.0587  -12.3867 C   0  0  0  0  0  0  0  0  0  0  0  0
   25.3802  -21.2973  -13.8257 C   0  0  2  0  0  0  0  0  0  0  0  0
   26.5887  -20.9290  -14.5919 N   0  0  0  0  0  0  0  0  0  0  0  0
   24.3145  -20.4279  -14.3245 C   0  0  0  0  0  0  0  0  0  0  0  0
   24.5516  -19.1740  -14.5087 O   0  0  0  0  0  0  0  0  0  0  0  0
   22.5504  -21.4061   -7.1142 N   0  0  0  0  0  0  0  0  0  0  0  0
   22.9928  -20.7904  -14.6521 C   0  0  1  0  0  0  0  0  0  0  0  0
   22.0025  -19.8386  -15.1428 C   0  0  0  0  0  0  0  0  0  0  0  0
   21.4129  -20.2546  -16.4426 C   0  0  0  0  0  0  0  0  0  0  0  0
   22.0409  -19.5016  -17.5461 O   0  0  0  0  0  0  0  0  0  0  0  0
   22.9331  -18.6064  -17.3216 C   0  0  0  0  0  0  0  0  0  0  0  0
   20.9078  -19.7315  -14.1258 O   0  0  0  0  0  0  0  0  0  0  0  0
   20.6403  -20.6544  -13.3317 O   0  0  0  0  0  0  0  0  0  0  0  0
   21.7310  -19.6853  -18.8817 O   0  0  0  0  0  0  0  0  0  0  0  0
  2  1  1  6
  3  2  1  0
  4  5  1  0
  4  3  1  0
  5  6  1  0
  7  6  1  0
  8  9  2  0
  8  2  1  0
 10 11  1  0
 11 12  2  0
 13 11  1  0
 13 14  1  0
 14 15  1  0
 16 15  1  0
 17 16  1  1
 17 18  1  0
 18  8  1  0
 19 21  1  0
 19 17  1  0
 20 19  2  0
 22 21  1  0
 22 26  1  0
 23 24  1  0
 22 23  1  6
 24 25  2  0
 26 29  1  0
 27 26  2  0
 28 24  1  0
M  END
$$$$
