KRD.pdb
     RDKit          3D

 29 28  0  0  1  0  0  0  0  0999 V2000
   13.6031  -13.3984  -11.6434 N   0  0  0  0  0  0  0  0  0  0  0  0
   13.1570  -12.0162  -11.5908 C   0  0  1  0  0  0  0  0  0  0  0  0
   12.0464  -11.9683  -10.5755 C   0  0  0  0  0  0  0  0  0  0  0  0
   10.7686  -12.4488  -11.1869 C   0  0  0  0  0  0  0  0  0  0  0  0
    9.6546  -12.4140  -10.1781 C   0  0  0  0  0  0  0  0  0  0  0  0
    8.3700  -12.9988  -10.7832 C   0  0  0  0  0  0  0  0  0  0  0  0
    7.3476  -12.9449   -9.7604 N   0  0  0  0  0  0  0  0  0  0  0  0
   14.2913  -11.1231  -11.1721 C   0  0  0  0  0  0  0  0  0  0  0  0
   15.2040  -11.5891  -10.4606 O   0  0  0  0  0  0  0  0  0  0  0  0
   21.5248   -9.1757  -13.0530 N   0  0  0  0  0  0  0  0  0  0  0  0
   21.1564   -7.8058  -12.7911 C   0  0  0  0  0  0  0  0  0  0  0  0
   22.0555   -6.8989  -12.6931 N   0  0  0  0  0  0  0  0  0  0  0  0
   19.7977   -7.4316  -12.6331 N   0  0  0  0  0  0  0  0  0  0  0  0
   18.7077   -8.3389  -12.7215 C   0  0  0  0  0  0  0  0  0  0  0  0
   17.3412   -7.7431  -12.5230 C   0  0  0  0  0  0  0  0  0  0  0  0
   16.2629   -8.7617  -12.5088 C   0  0  0  0  0  0  0  0  0  0  0  0
   15.5186   -8.9199  -11.2026 C   0  0  2  0  0  0  0  0  0  0  0  0
   14.3635   -9.7714  -11.5542 N   0  0  0  0  0  0  0  0  0  0  0  0
   14.9506   -7.6847  -10.6622 C   0  0  0  0  0  0  0  0  0  0  0  0
   14.0228   -7.0730  -11.3160 O   0  0  0  0  0  0  0  0  0  0  0  0
   21.7627   -5.9235  -12.4752 N   0  0  0  0  0  0  0  0  0  0  0  0
   15.2932   -7.0360   -9.4591 C   0  0  2  0  0  0  0  0  0  0  0  0
   14.7466   -5.7419   -9.0665 C   0  0  0  0  0  0  0  0  0  0  0  0
   14.3849   -5.6938   -7.6253 C   0  0  0  0  0  0  0  0  0  0  0  0
   13.8193   -4.3720   -7.2905 O   0  0  0  0  0  0  0  0  0  0  0  0
   13.4249   -3.5625   -8.2054 C   0  0  0  0  0  0  0  0  0  0  0  0
   15.7783   -4.6914   -9.3428 O   0  0  0  0  0  0  0  0  0  0  0  0
   17.0014   -4.9176   -9.2607 O   0  0  0  0  0  0  0  0  0  0  0  0
   13.6713   -3.8993   -5.9989 O   0  0  0  0  0  0  0  0  0  0  0  0
  2  1  1  1
  3  2  1  0
  4  5  1  0
  4  3  1  0
  5  6  1  0
  7  6  1  0
  8  9  2  0
  8  2  1  0
 10 11  1  0
 11 12  2  0
 13 11  1  0
 13 14  1  0
 14 15  1  0
 16 15  1  0
 17 16  1  6
 17 18  1  0
 18  8  1  0
 19 21  1  0
 19 17  1  0
 20 19  2  0
 22 21  1  0
 22 26  1  0
 23 24  1  0
 22 23  1  1
 24 25  2  0
 26 29  1  0
 27 26  2  0
 28 24  1  0
M  END
$$$$
