KRD.pdb
     RDKit          3D

 29 28  0  0  1  0  0  0  0  0999 V2000
   28.1136  -21.0955  -17.7631 N   0  0  0  0  0  0  0  0  0  0  0  0
   27.6566  -22.4543  -17.5246 C   0  0  1  0  0  0  0  0  0  0  0  0
   28.8873  -23.2686  -17.2266 C   0  0  0  0  0  0  0  0  0  0  0  0
   29.7510  -23.3611  -18.4443 C   0  0  0  0  0  0  0  0  0  0  0  0
   30.1922  -21.9929  -18.8841 C   0  0  0  0  0  0  0  0  0  0  0  0
   31.0416  -22.0919  -20.1595 C   0  0  0  0  0  0  0  0  0  0  0  0
   31.5080  -20.7581  -20.4724 N   0  0  0  0  0  0  0  0  0  0  0  0
   26.7109  -22.4836  -16.3565 C   0  0  0  0  0  0  0  0  0  0  0  0
   26.2041  -23.5693  -16.0091 O   0  0  0  0  0  0  0  0  0  0  0  0
   23.3152  -20.4881  -10.0056 N   0  0  0  0  0  0  0  0  0  0  0  0
   24.4327  -20.7099   -9.1208 C   0  0  0  0  0  0  0  0  0  0  0  0
   24.2381  -20.9815   -7.8844 N   0  0  0  0  0  0  0  0  0  0  0  0
   25.7670  -20.6298   -9.5942 N   0  0  0  0  0  0  0  0  0  0  0  0
   26.1187  -20.2776  -10.9252 C   0  0  0  0  0  0  0  0  0  0  0  0
   25.9319  -21.3536  -11.9591 C   0  0  0  0  0  0  0  0  0  0  0  0
   26.3676  -20.9354  -13.3140 C   0  0  0  0  0  0  0  0  0  0  0  0
   25.4799  -21.3689  -14.4583 C   0  0  2  0  0  0  0  0  0  0  0  0
   26.3724  -21.3247  -15.6350 N   0  0  0  0  0  0  0  0  0  0  0  0
   24.3766  -20.4578  -14.7631 C   0  0  0  0  0  0  0  0  0  0  0  0
   24.1844  -19.4220  -14.0199 O   0  0  0  0  0  0  0  0  0  0  0  0
   25.0598  -21.0329   -7.2466 N   0  0  0  0  0  0  0  0  0  0  0  0
   23.4450  -20.5586  -15.8155 C   0  0  2  0  0  0  0  0  0  0  0  0
   22.1084  -21.1177  -15.6472 C   0  0  0  0  0  0  0  0  0  0  0  0
   22.1396  -22.5475  -15.2411 C   0  0  0  0  0  0  0  0  0  0  0  0
   20.7689  -23.0948  -15.2140 O   0  0  0  0  0  0  0  0  0  0  0  0
   19.8011  -22.5036  -15.8156 C   0  0  0  0  0  0  0  0  0  0  0  0
   21.3975  -20.3289  -14.5905 O   0  0  0  0  0  0  0  0  0  0  0  0
   21.8011  -20.2737  -13.4123 O   0  0  0  0  0  0  0  0  0  0  0  0
   20.4139  -24.2577  -14.5544 O   0  0  0  0  0  0  0  0  0  0  0  0
  2  1  1  1
  3  2  1  0
  4  5  1  0
  4  3  1  0
  5  6  1  0
  7  6  1  0
  8  9  2  0
  8  2  1  0
 10 11  1  0
 11 12  2  0
 13 11  1  0
 13 14  1  0
 14 15  1  0
 16 15  1  0
 17 16  1  1
 17 18  1  0
 18  8  1  0
 19 21  1  0
 19 17  1  0
 20 19  2  0
 22 21  1  0
 22 26  1  0
 23 24  1  0
 22 23  1  6
 24 25  2  0
 26 29  1  0
 27 26  2  0
 28 24  1  0
M  END
$$$$
