KRD.pdb
     RDKit          3D

 29 28  0  0  1  0  0  0  0  0999 V2000
   26.3306  -23.4170  -16.3293 N   0  0  0  0  0  0  0  0  0  0  0  0
   25.9011  -22.0738  -15.9779 C   0  0  1  0  0  0  0  0  0  0  0  0
   25.2085  -21.5193  -17.1943 C   0  0  0  0  0  0  0  0  0  0  0  0
   26.2034  -21.2630  -18.2814 C   0  0  0  0  0  0  0  0  0  0  0  0
   27.0001  -20.0228  -17.9865 C   0  0  0  0  0  0  0  0  0  0  0  0
   28.0120  -19.7602  -19.1114 C   0  0  0  0  0  0  0  0  0  0  0  0
   28.7944  -18.6049  -18.7273 N   0  0  0  0  0  0  0  0  0  0  0  0
   24.9553  -22.1228  -14.8106 C   0  0  0  0  0  0  0  0  0  0  0  0
   24.2415  -23.1326  -14.6459 O   0  0  0  0  0  0  0  0  0  0  0  0
   29.4164  -20.4780  -11.8736 N   0  0  0  0  0  0  0  0  0  0  0  0
   28.9418  -21.1499  -10.6887 C   0  0  0  0  0  0  0  0  0  0  0  0
   29.7241  -21.3399   -9.6924 N   0  0  0  0  0  0  0  0  0  0  0  0
   27.6060  -21.6174  -10.5989 N   0  0  0  0  0  0  0  0  0  0  0  0
   26.5625  -21.2161  -11.4760 C   0  0  0  0  0  0  0  0  0  0  0  0
   25.4300  -20.4557  -10.8428 C   0  0  0  0  0  0  0  0  0  0  0  0
   24.3970  -20.0362  -11.8211 C   0  0  0  0  0  0  0  0  0  0  0  0
   23.8956  -21.1122  -12.7571 C   0  0  2  0  0  0  0  0  0  0  0  0
   24.8428  -21.0654  -13.8901 N   0  0  0  0  0  0  0  0  0  0  0  0
   22.5747  -20.8620  -13.3342 C   0  0  0  0  0  0  0  0  0  0  0  0
   22.4330  -19.9338  -14.2177 O   0  0  0  0  0  0  0  0  0  0  0  0
   29.3576  -21.8380   -8.8545 N   0  0  0  0  0  0  0  0  0  0  0  0
   21.3698  -21.5329  -13.0450 C   0  0  1  0  0  0  0  0  0  0  0  0
   20.0961  -21.1900  -13.6674 C   0  0  0  0  0  0  0  0  0  0  0  0
   19.4126  -22.3753  -14.2488 C   0  0  0  0  0  0  0  0  0  0  0  0
   18.1039  -21.9806  -14.8063 O   0  0  0  0  0  0  0  0  0  0  0  0
   18.0172  -21.1774  -15.8038 C   0  0  0  0  0  0  0  0  0  0  0  0
   19.2098  -20.5831  -12.6231 O   0  0  0  0  0  0  0  0  0  0  0  0
   19.5030  -20.5892  -11.4115 O   0  0  0  0  0  0  0  0  0  0  0  0
   16.8892  -22.4251  -14.3160 O   0  0  0  0  0  0  0  0  0  0  0  0
  2  1  1  6
  3  2  1  0
  4  5  1  0
  4  3  1  0
  5  6  1  0
  7  6  1  0
  8  9  2  0
  8  2  1  0
 10 11  1  0
 11 12  2  0
 13 11  1  0
 13 14  1  0
 14 15  1  0
 16 15  1  0
 17 16  1  1
 17 18  1  0
 18  8  1  0
 19 21  1  0
 19 17  1  0
 20 19  2  0
 22 21  1  0
 22 26  1  0
 23 24  1  0
 22 23  1  1
 24 25  2  0
 26 29  1  0
 27 26  2  0
 28 24  1  0
M  END
$$$$
