RIK.pdb
     RDKit          3D

 29 28  0  0  1  0  0  0  0  0999 V2000
    8.9069  -22.6112   21.0038 N   0  0  0  0  0  0  0  0  0  0  0  0
    8.4819  -21.8884   19.8354 C   0  0  0  0  0  0  0  0  0  0  0  0
    8.2106  -22.5100   18.7478 N   0  0  0  0  0  0  0  0  0  0  0  0
    8.3662  -20.4777   19.8974 N   0  0  0  0  0  0  0  0  0  0  0  0
    8.6697  -19.7785   21.1443 C   0  0  0  0  0  0  0  0  0  0  0  0
    8.3690  -18.3265   20.9196 C   0  0  0  0  0  0  0  0  0  0  0  0
    8.6058  -17.4388   22.0800 C   0  0  0  0  0  0  0  0  0  0  0  0
    8.1889  -16.0032   21.9297 C   0  0  2  0  0  0  0  0  0  0  0  0
    8.6714  -15.3932   20.7167 N   0  0  0  0  0  0  0  0  0  0  0  0
    8.7815  -15.2869   23.1168 C   0  0  0  0  0  0  0  0  0  0  0  0
    9.8998  -14.7367   22.9850 O   0  0  0  0  0  0  0  0  0  0  0  0
    7.9675  -22.0325   17.8676 C   0  0  0  0  0  0  0  0  0  0  0  0
    5.3333  -12.5855   26.2340 C   0  0  0  0  0  0  0  0  0  0  0  0
    6.6351  -12.8842   25.4600 C   0  0  2  0  0  0  0  0  0  0  0  0
    7.4812  -13.8393   26.2244 C   0  0  0  0  0  0  0  0  0  0  0  0
    7.9340  -13.1085   27.4973 C   0  0  2  0  0  0  0  0  0  0  0  0
    8.6480  -14.4323   25.4969 N   0  0  0  0  0  0  0  0  0  0  0  0
    8.1118  -15.2250   24.3552 C   0  0  0  0  0  0  0  0  0  0  0  0
    9.5032  -15.3267   26.3099 O   0  0  0  0  0  0  0  0  0  0  0  0
    9.0949  -16.5215   26.5598 N   0  0  0  0  0  0  0  0  0  0  0  0
   10.7622  -14.9863   26.8493 C   0  0  2  0  0  0  0  0  0  0  0  0
   11.7222  -16.0612   27.3152 C   0  0  0  0  0  0  0  0  0  0  0  0
   11.1852  -16.4625   28.6143 C   0  0  0  0  0  0  0  0  0  0  0  0
   11.5896  -17.6112   29.4005 C   0  0  0  0  0  0  0  0  0  0  0  0
   11.0023  -17.7173   30.7632 C   0  0  0  0  0  0  0  0  0  0  0  0
   11.5597  -18.9805   31.4524 N   0  0  0  0  0  0  0  0  0  0  0  0
   11.0820  -19.0178   32.8038 C   0  0  0  0  0  0  0  0  0  0  0  0
   11.9340  -16.9899   26.2271 O   0  0  0  0  0  0  0  0  0  0  0  0
   11.1249  -17.3037   25.3085 O   0  0  0  0  0  0  0  0  0  0  0  0
  1  2  1  0
  2  3  2  0
  4  5  1  0
  4  2  1  0
  6  5  1  0
  7  6  1  0
  8  7  1  0
  8  9  1  6
 10  8  1  0
 10 17  1  0
 11 10  2  0
 12 13  1  0
 13 14  1  0
 14 16  1  0
 14 15  1  1
 16 17  1  6
 18 16  1  0
 19 18  2  0
 20 18  1  0
 21 20  1  0
 21 27  1  0
 21 22  1  1
 23 22  1  0
 24 23  1  0
 25 24  1  0
 26 25  1  0
 27 29  1  0
 28 27  2  0
M  END
$$$$
