RIK.pdb
     RDKit          3D

 29 28  0  0  1  0  0  0  0  0999 V2000
    7.8849  -22.3659   20.1306 N   0  0  0  0  0  0  0  0  0  0  0  0
    7.2556  -21.5352   19.1397 C   0  0  0  0  0  0  0  0  0  0  0  0
    6.7419  -22.0536   18.0860 N   0  0  0  0  0  0  0  0  0  0  0  0
    7.2090  -20.1333   19.3390 N   0  0  0  0  0  0  0  0  0  0  0  0
    7.7678  -19.5545   20.5590 C   0  0  0  0  0  0  0  0  0  0  0  0
    7.5573  -18.0718   20.4798 C   0  0  0  0  0  0  0  0  0  0  0  0
    8.0799  -17.2911   21.6234 C   0  0  0  0  0  0  0  0  0  0  0  0
    7.8031  -15.8143   21.6173 C   0  0  2  0  0  0  0  0  0  0  0  0
    8.3163  -15.1427   20.4503 N   0  0  0  0  0  0  0  0  0  0  0  0
    8.4895  -15.2723   22.8455 C   0  0  0  0  0  0  0  0  0  0  0  0
    9.7140  -15.0132   22.7800 O   0  0  0  0  0  0  0  0  0  0  0  0
    6.2585  -21.5031   17.3614 C   0  0  0  0  0  0  0  0  0  0  0  0
    6.0563  -11.6475   25.9207 C   0  0  0  0  0  0  0  0  0  0  0  0
    7.1971  -12.4000   25.2028 C   0  0  2  0  0  0  0  0  0  0  0  0
    7.5765  -13.6153   25.9719 C   0  0  0  0  0  0  0  0  0  0  0  0
    8.1861  -13.1291   27.2953 C   0  0  2  0  0  0  0  0  0  0  0  0
    8.4831  -14.5885   25.2838 N   0  0  0  0  0  0  0  0  0  0  0  0
    7.7908  -15.0546   24.0499 C   0  0  0  0  0  0  0  0  0  0  0  0
    8.8414  -15.7823   26.0831 O   0  0  0  0  0  0  0  0  0  0  0  0
    7.8996  -16.5219   26.5549 N   0  0  0  0  0  0  0  0  0  0  0  0
   10.1553  -16.2020   26.3821 C   0  0  1  0  0  0  0  0  0  0  0  0
   10.4020  -17.4350   27.2263 C   0  0  0  0  0  0  0  0  0  0  0  0
   11.4990  -18.1110   26.5356 C   0  0  0  0  0  0  0  0  0  0  0  0
   11.5812  -18.4004   25.1177 C   0  0  0  0  0  0  0  0  0  0  0  0
   12.8073  -19.1071   24.6590 C   0  0  0  0  0  0  0  0  0  0  0  0
   12.6882  -19.3870   23.1462 N   0  0  0  0  0  0  0  0  0  0  0  0
   13.9479  -19.8763   22.6668 C   0  0  0  0  0  0  0  0  0  0  0  0
   10.4702  -17.0345   28.6142 O   0  0  0  0  0  0  0  0  0  0  0  0
   10.5800  -15.8640   29.0777 O   0  0  0  0  0  0  0  0  0  0  0  0
  1  2  1  0
  2  3  2  0
  4  5  1  0
  4  2  1  0
  6  5  1  0
  7  6  1  0
  8  7  1  0
  8  9  1  6
 10  8  1  0
 10 17  1  0
 11 10  2  0
 12 13  1  0
 13 14  1  0
 14 16  1  0
 14 15  1  6
 16 17  1  6
 18 16  1  0
 19 18  2  0
 20 18  1  0
 21 20  1  0
 21 27  1  0
 21 22  1  1
 23 22  1  0
 24 23  1  0
 25 24  1  0
 26 25  1  0
 27 29  1  0
 28 27  2  0
M  END
$$$$
