RIK.pdb
     RDKit          3D

 29 28  0  0  1  0  0  0  0  0999 V2000
   11.2727  -17.5568   20.1101 N   0  0  0  0  0  0  0  0  0  0  0  0
   11.3307  -16.5508   19.0840 C   0  0  0  0  0  0  0  0  0  0  0  0
   12.4262  -15.9319   18.8397 N   0  0  0  0  0  0  0  0  0  0  0  0
   10.1613  -16.2483   18.3435 N   0  0  0  0  0  0  0  0  0  0  0  0
    8.8624  -16.2303   19.0129 C   0  0  0  0  0  0  0  0  0  0  0  0
    8.6953  -14.8663   19.6136 C   0  0  0  0  0  0  0  0  0  0  0  0
    7.4001  -14.6195   20.2859 C   0  0  0  0  0  0  0  0  0  0  0  0
    7.2187  -13.2753   20.9323 C   0  0  2  0  0  0  0  0  0  0  0  0
    7.7980  -12.1953   20.1746 N   0  0  0  0  0  0  0  0  0  0  0  0
    7.9126  -13.3751   22.2672 C   0  0  0  0  0  0  0  0  0  0  0  0
    9.1072  -13.0046   22.3484 O   0  0  0  0  0  0  0  0  0  0  0  0
   12.5041  -15.1667   18.1540 C   0  0  0  0  0  0  0  0  0  0  0  0
    5.4986  -11.4425   26.4892 C   0  0  0  0  0  0  0  0  0  0  0  0
    6.6441  -11.8589   25.5419 C   0  0  2  0  0  0  0  0  0  0  0  0
    6.9754  -13.2961   25.7349 C   0  0  0  0  0  0  0  0  0  0  0  0
    7.5095  -13.4385   27.1679 C   0  0  2  0  0  0  0  0  0  0  0  0
    7.9173  -13.9061   24.7433 N   0  0  0  0  0  0  0  0  0  0  0  0
    7.2535  -13.8705   23.4101 C   0  0  0  0  0  0  0  0  0  0  0  0
    8.2989  -15.3089   25.0242 O   0  0  0  0  0  0  0  0  0  0  0  0
    7.3873  -16.2175   25.0101 N   0  0  0  0  0  0  0  0  0  0  0  0
    9.6056  -15.7594   25.3098 C   0  0  1  0  0  0  0  0  0  0  0  0
    9.8720  -17.2171   25.6229 C   0  0  0  0  0  0  0  0  0  0  0  0
   10.9950  -17.5567   24.7507 C   0  0  0  0  0  0  0  0  0  0  0  0
   11.6624  -18.8402   24.6593 C   0  0  0  0  0  0  0  0  0  0  0  0
   12.8204  -18.9164   23.7285 C   0  0  0  0  0  0  0  0  0  0  0  0
   13.3358  -20.3703   23.6874 N   0  0  0  0  0  0  0  0  0  0  0  0
   14.4427  -20.4421   22.7789 C   0  0  0  0  0  0  0  0  0  0  0  0
    9.9112  -17.3778   27.0596 O   0  0  0  0  0  0  0  0  0  0  0  0
    9.9930  -16.4729   27.9379 O   0  0  0  0  0  0  0  0  0  0  0  0
  1  2  1  0
  2  3  2  0
  4  5  1  0
  4  2  1  0
  6  5  1  0
  7  6  1  0
  8  7  1  0
  8  9  1  6
 10  8  1  0
 10 17  1  0
 11 10  2  0
 12 13  1  0
 13 14  1  0
 14 16  1  0
 14 15  1  6
 16 17  1  6
 18 16  1  0
 19 18  2  0
 20 18  1  0
 21 20  1  0
 21 27  1  0
 21 22  1  1
 23 22  1  0
 24 23  1  0
 25 24  1  0
 26 25  1  0
 27 29  1  0
 28 27  2  0
M  END
$$$$
