RIK.pdb
     RDKit          3D

 29 28  0  0  1  0  0  0  0  0999 V2000
    7.6449  -14.3160   16.0758 N   0  0  0  0  0  0  0  0  0  0  0  0
    8.1662  -13.6815   17.2564 C   0  0  0  0  0  0  0  0  0  0  0  0
    8.1788  -12.4038   17.3576 N   0  0  0  0  0  0  0  0  0  0  0  0
    8.6685  -14.4844   18.3101 N   0  0  0  0  0  0  0  0  0  0  0  0
    7.9909  -15.7312   18.6591 C   0  0  0  0  0  0  0  0  0  0  0  0
    7.1019  -15.4365   19.8304 C   0  0  0  0  0  0  0  0  0  0  0  0
    7.7910  -14.9611   21.0509 C   0  0  0  0  0  0  0  0  0  0  0  0
    8.2528  -16.0124   22.0200 C   0  0  2  0  0  0  0  0  0  0  0  0
    7.1833  -16.8424   22.5133 N   0  0  0  0  0  0  0  0  0  0  0  0
    8.8667  -15.2556   23.1705 C   0  0  0  0  0  0  0  0  0  0  0  0
    9.8344  -14.4944   22.9361 O   0  0  0  0  0  0  0  0  0  0  0  0
    8.5653  -11.9035   18.1714 C   0  0  0  0  0  0  0  0  0  0  0  0
    5.9716  -12.5561   26.3492 C   0  0  0  0  0  0  0  0  0  0  0  0
    7.2998  -12.9021   25.6425 C   0  0  2  0  0  0  0  0  0  0  0  0
    8.0249  -13.9589   26.3973 C   0  0  0  0  0  0  0  0  0  0  0  0
    8.6328  -13.2811   27.6343 C   0  0  2  0  0  0  0  0  0  0  0  0
    9.0599  -14.7328   25.6409 N   0  0  0  0  0  0  0  0  0  0  0  0
    8.3806  -15.3857   24.4869 C   0  0  0  0  0  0  0  0  0  0  0  0
    9.7462  -15.7877   26.4210 O   0  0  0  0  0  0  0  0  0  0  0  0
    9.0977  -16.8556   26.7303 N   0  0  0  0  0  0  0  0  0  0  0  0
   11.0842  -15.7351   26.8671 C   0  0  2  0  0  0  0  0  0  0  0  0
   11.7011  -16.9036   27.6073 C   0  0  0  0  0  0  0  0  0  0  0  0
   11.0920  -16.8304   28.9344 C   0  0  0  0  0  0  0  0  0  0  0  0
   10.9371  -17.9209   29.8767 C   0  0  0  0  0  0  0  0  0  0  0  0
   12.0025  -18.0592   30.9059 C   0  0  0  0  0  0  0  0  0  0  0  0
   11.6929  -19.2886   31.7857 N   0  0  0  0  0  0  0  0  0  0  0  0
   12.6717  -19.3665   32.8306 C   0  0  0  0  0  0  0  0  0  0  0  0
   11.6188  -18.0756   26.7642 O   0  0  0  0  0  0  0  0  0  0  0  0
   10.6333  -18.4672   26.0768 O   0  0  0  0  0  0  0  0  0  0  0  0
  1  2  1  0
  2  3  2  0
  4  5  1  0
  4  2  1  0
  6  5  1  0
  7  6  1  0
  8  7  1  0
  8  9  1  1
 10  8  1  0
 10 17  1  0
 11 10  2  0
 12 13  1  0
 13 14  1  0
 14 16  1  0
 14 15  1  6
 16 17  1  6
 18 16  1  0
 19 18  2  0
 20 18  1  0
 21 20  1  0
 21 27  1  0
 21 22  1  1
 23 22  1  0
 24 23  1  0
 25 24  1  0
 26 25  1  0
 27 29  1  0
 28 27  2  0
M  END
$$$$
