RIK.pdb
     RDKit          3D

 29 28  0  0  1  0  0  0  0  0999 V2000
    6.6785  -18.0693   16.8605 N   0  0  0  0  0  0  0  0  0  0  0  0
    6.7631  -19.3049   17.5915 C   0  0  0  0  0  0  0  0  0  0  0  0
    6.2027  -20.3668   17.1430 N   0  0  0  0  0  0  0  0  0  0  0  0
    7.4736  -19.3377   18.8169 N   0  0  0  0  0  0  0  0  0  0  0  0
    8.1287  -18.1275   19.3088 C   0  0  0  0  0  0  0  0  0  0  0  0
    7.0784  -17.3059   19.9951 C   0  0  0  0  0  0  0  0  0  0  0  0
    7.4648  -16.7447   21.3090 C   0  0  0  0  0  0  0  0  0  0  0  0
    7.4544  -15.2475   21.4346 C   0  0  2  0  0  0  0  0  0  0  0  0
    8.1118  -14.5789   20.3405 N   0  0  0  0  0  0  0  0  0  0  0  0
    8.1904  -14.9472   22.7158 C   0  0  0  0  0  0  0  0  0  0  0  0
    9.4329  -14.7904   22.6680 O   0  0  0  0  0  0  0  0  0  0  0  0
    6.2856  -21.2872   17.5990 C   0  0  0  0  0  0  0  0  0  0  0  0
    5.6029  -11.8854   26.3193 C   0  0  0  0  0  0  0  0  0  0  0  0
    6.8139  -12.3977   25.5105 C   0  0  2  0  0  0  0  0  0  0  0  0
    7.2872  -13.6968   26.0590 C   0  0  0  0  0  0  0  0  0  0  0  0
    7.8981  -13.3994   27.4365 C   0  0  2  0  0  0  0  0  0  0  0  0
    8.2352  -14.4800   25.2043 N   0  0  0  0  0  0  0  0  0  0  0  0
    7.5177  -14.8410   23.9496 C   0  0  0  0  0  0  0  0  0  0  0  0
    8.7409  -15.7304   25.8152 O   0  0  0  0  0  0  0  0  0  0  0  0
    7.8964  -16.6255   26.1925 N   0  0  0  0  0  0  0  0  0  0  0  0
   10.1003  -16.0462   26.0253 C   0  0  1  0  0  0  0  0  0  0  0  0
   10.5011  -17.3584   26.6667 C   0  0  0  0  0  0  0  0  0  0  0  0
   11.6131  -17.8210   25.8379 C   0  0  0  0  0  0  0  0  0  0  0  0
   11.6016  -18.0083   24.4006 C   0  0  0  0  0  0  0  0  0  0  0  0
   12.8448  -18.5597   23.7976 C   0  0  0  0  0  0  0  0  0  0  0  0
   12.7105  -18.5341   22.2606 N   0  0  0  0  0  0  0  0  0  0  0  0
   13.9163  -19.0525   21.6833 C   0  0  0  0  0  0  0  0  0  0  0  0
   10.6111  -17.1563   28.0944 O   0  0  0  0  0  0  0  0  0  0  0  0
   10.6663  -16.0592   28.7191 O   0  0  0  0  0  0  0  0  0  0  0  0
  1  2  1  0
  2  3  2  0
  4  5  1  0
  4  2  1  0
  6  5  1  0
  7  6  1  0
  8  7  1  0
  8  9  1  6
 10  8  1  0
 10 17  1  0
 11 10  2  0
 12 13  1  0
 13 14  1  0
 14 16  1  0
 14 15  1  6
 16 17  1  6
 18 16  1  0
 19 18  2  0
 20 18  1  0
 21 20  1  0
 21 27  1  0
 21 22  1  1
 23 22  1  0
 24 23  1  0
 25 24  1  0
 26 25  1  0
 27 29  1  0
 28 27  2  0
M  END
$$$$
