PDH.pdb
     RDKit          3D

 26 27  0  0  1  0  0  0  0  0999 V2000
   25.9879  -33.7067   -8.2422 N   0  0  0  0  0  0  0  0  0  0  0  0
   25.9170  -33.8796   -9.6877 C   0  0  0  0  0  0  0  0  0  0  0  0
   25.3831  -32.5799  -10.2353 C   0  0  0  0  0  0  0  0  0  0  0  0
   25.1226  -31.7110   -9.0271 C   0  0  0  0  0  0  0  0  0  0  0  0
   24.9722  -32.7229   -7.9179 C   0  0  1  0  0  0  0  0  0  0  0  0
   23.6715  -33.3946   -7.9232 C   0  0  0  0  0  0  0  0  0  0  0  0
   22.5830  -32.7738   -7.6844 O   0  0  0  0  0  0  0  0  0  0  0  0
   23.5160  -34.7995   -8.1961 N   0  0  0  0  0  0  0  0  0  0  0  0
   22.2187  -35.4172   -8.2139 C   0  0  1  0  0  0  0  0  0  0  0  0
   22.1771  -36.4388   -9.3151 C   0  0  0  0  0  0  0  0  0  0  0  0
   20.8041  -36.9237   -9.5744 C   0  0  0  0  0  0  0  0  0  0  0  0
   19.8687  -36.9141   -8.7374 O   0  0  0  0  0  0  0  0  0  0  0  0
   21.8260  -36.0469   -6.9324 C   0  0  0  0  0  0  0  0  0  0  0  0
   22.5854  -36.9491   -6.5001 O   0  0  0  0  0  0  0  0  0  0  0  0
   20.5161  -37.4342  -10.8475 O   0  0  0  0  0  0  0  0  0  0  0  0
   20.6745  -35.6997   -6.1893 N   0  0  0  0  0  0  0  0  0  0  0  0
   20.3307  -36.3130   -4.8918 C   0  0  1  0  0  0  0  0  0  0  0  0
   19.4207  -35.4341   -4.1190 C   0  0  0  0  0  0  0  0  0  0  0  0
   20.0254  -34.2749   -3.4626 C   0  0  0  0  0  0  0  0  0  0  0  0
   21.2955  -33.8680   -3.2161 C   0  0  0  0  0  0  0  0  0  0  0  0
   21.2889  -32.6404   -2.6159 N   0  0  0  0  0  0  0  0  0  0  0  0
   20.0127  -32.3166   -2.5069 C   0  0  0  0  0  0  0  0  0  0  0  0
   19.2309  -33.2593   -2.9977 N   0  0  0  0  0  0  0  0  0  0  0  0
   19.6209  -37.6011   -5.1801 C   0  0  0  0  0  0  0  0  0  0  0  0
   19.3593  -38.1023   -6.4195 O   0  0  0  0  0  0  0  0  0  0  0  0
   19.2314  -38.2864   -4.2006 O   0  0  0  0  0  0  0  0  0  0  0  0
  1  2  1  0
  2  3  1  0
  4  3  1  0
  5  1  1  0
  5  4  1  0
  5  6  1  6
  7  6  2  0
  8  6  1  0
  9  8  1  0
  9 10  1  6
 11 10  1  0
 11 15  1  0
 12 11  2  0
 13  9  1  0
 13 16  1  0
 14 13  2  0
 17 16  1  0
 17 24  1  0
 17 18  1  6
 19 18  1  0
 19 20  2  0
 21 20  1  0
 22 21  1  0
 23 22  2  0
 23 19  1  0
 24 25  1  0
 26 24  2  0
M  END
$$$$
