PDH.pdb
     RDKit          3D

 26 27  0  0  1  0  0  0  0  0999 V2000
   25.1370  -15.8893  -15.3743 N   0  0  0  0  0  0  0  0  0  0  0  0
   26.4958  -15.9229  -14.8480 C   0  0  0  0  0  0  0  0  0  0  0  0
   27.3942  -15.5288  -15.9932 C   0  0  0  0  0  0  0  0  0  0  0  0
   26.4746  -15.3254  -17.1745 C   0  0  0  0  0  0  0  0  0  0  0  0
   25.2646  -16.1440  -16.7968 C   0  0  1  0  0  0  0  0  0  0  0  0
   25.4607  -17.5826  -16.9846 C   0  0  0  0  0  0  0  0  0  0  0  0
   25.5798  -18.1089  -18.1405 O   0  0  0  0  0  0  0  0  0  0  0  0
   25.5345  -18.5131  -15.8887 N   0  0  0  0  0  0  0  0  0  0  0  0
   25.7398  -19.9173  -16.1146 C   0  0  1  0  0  0  0  0  0  0  0  0
   27.0068  -20.3441  -15.4284 C   0  0  0  0  0  0  0  0  0  0  0  0
   27.6878  -21.4425  -16.1477 C   0  0  0  0  0  0  0  0  0  0  0  0
   27.2619  -21.9881  -17.1948 O   0  0  0  0  0  0  0  0  0  0  0  0
   24.6177  -20.7762  -15.6721 C   0  0  0  0  0  0  0  0  0  0  0  0
   24.8553  -22.0073  -15.5972 O   0  0  0  0  0  0  0  0  0  0  0  0
   28.9004  -21.9164  -15.6289 O   0  0  0  0  0  0  0  0  0  0  0  0
   23.3283  -20.3011  -15.3396 N   0  0  0  0  0  0  0  0  0  0  0  0
   22.6825  -20.5512  -14.0364 C   0  0  1  0  0  0  0  0  0  0  0  0
   23.4123  -19.8605  -12.9463 C   0  0  0  0  0  0  0  0  0  0  0  0
   24.3421  -20.6712  -12.1600 C   0  0  0  0  0  0  0  0  0  0  0  0
   24.8155  -21.9393  -12.2450 C   0  0  0  0  0  0  0  0  0  0  0  0
   25.7402  -22.1637  -11.2642 N   0  0  0  0  0  0  0  0  0  0  0  0
   25.8175  -21.0266  -10.5963 C   0  0  0  0  0  0  0  0  0  0  0  0
   25.0044  -20.1157  -11.0962 N   0  0  0  0  0  0  0  0  0  0  0  0
   21.2938  -19.9926  -14.1111 C   0  0  0  0  0  0  0  0  0  0  0  0
   20.3047  -20.2016  -13.1979 O   0  0  0  0  0  0  0  0  0  0  0  0
   21.0077  -19.2656  -15.0962 O   0  0  0  0  0  0  0  0  0  0  0  0
  1  2  1  0
  2  3  1  0
  4  3  1  0
  5  1  1  0
  5  4  1  0
  5  6  1  1
  7  6  2  0
  8  6  1  0
  9  8  1  0
  9 10  1  1
 11 10  1  0
 11 15  1  0
 12 11  2  0
 13  9  1  0
 13 16  1  0
 14 13  2  0
 17 16  1  0
 17 24  1  0
 17 18  1  1
 19 18  1  0
 19 20  2  0
 21 20  1  0
 22 21  1  0
 23 22  2  0
 23 19  1  0
 24 25  1  0
 26 24  2  0
M  END
$$$$
