PDH.pdb
     RDKit          3D

 26 27  0  0  1  0  0  0  0  0999 V2000
   23.2354  -11.0557  -15.7653 N   0  0  0  0  0  0  0  0  0  0  0  0
   22.1639  -12.0436  -15.7451 C   0  0  0  0  0  0  0  0  0  0  0  0
   21.9171  -12.4175  -17.1850 C   0  0  0  0  0  0  0  0  0  0  0  0
   22.8640  -11.5598  -17.9914 C   0  0  0  0  0  0  0  0  0  0  0  0
   23.1411  -10.4061  -17.0591 C   0  0  1  0  0  0  0  0  0  0  0  0
   22.0462   -9.4361  -17.0014 C   0  0  0  0  0  0  0  0  0  0  0  0
   21.5815   -8.8701  -18.0459 O   0  0  0  0  0  0  0  0  0  0  0  0
   21.4098   -9.0449  -15.7708 N   0  0  0  0  0  0  0  0  0  0  0  0
   20.3555   -8.0686  -15.7534 C   0  0  1  0  0  0  0  0  0  0  0  0
   19.4061   -8.3923  -14.6345 C   0  0  0  0  0  0  0  0  0  0  0  0
   18.5857   -9.5875  -14.9275 C   0  0  0  0  0  0  0  0  0  0  0  0
   17.7246   -9.6624  -15.8377 O   0  0  0  0  0  0  0  0  0  0  0  0
   20.8227   -6.6694  -15.6239 C   0  0  0  0  0  0  0  0  0  0  0  0
   21.8238   -6.4829  -14.8887 O   0  0  0  0  0  0  0  0  0  0  0  0
   18.7768  -10.7273  -14.1345 O   0  0  0  0  0  0  0  0  0  0  0  0
   20.2203   -5.5616  -16.2631 N   0  0  0  0  0  0  0  0  0  0  0  0
   20.7728   -4.1942  -16.2087 C   0  0  1  0  0  0  0  0  0  0  0  0
   21.0457   -3.6823  -17.5730 C   0  0  0  0  0  0  0  0  0  0  0  0
   21.5926   -2.3290  -17.6711 C   0  0  0  0  0  0  0  0  0  0  0  0
   21.0853   -1.0786  -17.5348 C   0  0  0  0  0  0  0  0  0  0  0  0
   22.0795   -0.1501  -17.6647 N   0  0  0  0  0  0  0  0  0  0  0  0
   23.1796   -0.8501  -17.8768 C   0  0  0  0  0  0  0  0  0  0  0  0
   22.9337   -2.1463  -17.8876 N   0  0  0  0  0  0  0  0  0  0  0  0
   19.7387   -3.3192  -15.5675 C   0  0  0  0  0  0  0  0  0  0  0  0
   19.9801   -2.1321  -14.9444 O   0  0  0  0  0  0  0  0  0  0  0  0
   18.5423   -3.7039  -15.6045 O   0  0  0  0  0  0  0  0  0  0  0  0
  1  2  1  0
  2  3  1  0
  4  3  1  0
  5  1  1  0
  5  4  1  0
  5  6  1  1
  7  6  2  0
  8  6  1  0
  9  8  1  0
  9 10  1  1
 11 10  1  0
 11 15  1  0
 12 11  2  0
 13  9  1  0
 13 16  1  0
 14 13  2  0
 17 16  1  0
 17 24  1  0
 17 18  1  6
 19 18  1  0
 19 20  2  0
 21 20  1  0
 22 21  1  0
 23 22  2  0
 23 19  1  0
 24 25  1  0
 26 24  2  0
M  END
$$$$
