PDH.pdb
     RDKit          3D

 26 27  0  0  1  0  0  0  0  0999 V2000
   25.3853  -11.6803  -16.1958 N   0  0  0  0  0  0  0  0  0  0  0  0
   26.2637  -11.3097  -17.2983 C   0  0  0  0  0  0  0  0  0  0  0  0
   27.1217  -10.1813  -16.7839 C   0  0  0  0  0  0  0  0  0  0  0  0
   26.6430   -9.9221  -15.3745 C   0  0  0  0  0  0  0  0  0  0  0  0
   25.2414  -10.4804  -15.3931 C   0  0  1  0  0  0  0  0  0  0  0  0
   24.2795   -9.6009  -16.0596 C   0  0  0  0  0  0  0  0  0  0  0  0
   24.3017   -9.3965  -17.3186 O   0  0  0  0  0  0  0  0  0  0  0  0
   23.2384   -8.9003  -15.3541 N   0  0  0  0  0  0  0  0  0  0  0  0
   22.2347   -8.1501  -16.0574 C   0  0  1  0  0  0  0  0  0  0  0  0
   20.9658   -8.1539  -15.2524 C   0  0  0  0  0  0  0  0  0  0  0  0
   20.3214   -9.4850  -15.2334 C   0  0  0  0  0  0  0  0  0  0  0  0
   19.9988  -10.1122  -14.1951 O   0  0  0  0  0  0  0  0  0  0  0  0
   22.6239   -6.7562  -16.3710 C   0  0  0  0  0  0  0  0  0  0  0  0
   23.0777   -6.0771  -15.4167 O   0  0  0  0  0  0  0  0  0  0  0  0
   20.0463  -10.1005  -16.4622 O   0  0  0  0  0  0  0  0  0  0  0  0
   22.5149   -6.1625  -17.6494 N   0  0  0  0  0  0  0  0  0  0  0  0
   22.8955   -4.7646  -17.9300 C   0  0  1  0  0  0  0  0  0  0  0  0
   23.2415   -4.5906  -19.3611 C   0  0  0  0  0  0  0  0  0  0  0  0
   23.6630   -3.2533  -19.7784 C   0  0  0  0  0  0  0  0  0  0  0  0
   24.0900   -2.1389  -19.1341 C   0  0  0  0  0  0  0  0  0  0  0  0
   24.4275   -1.1719  -20.0388 N   0  0  0  0  0  0  0  0  0  0  0  0
   24.2022   -1.7132  -21.2226 C   0  0  0  0  0  0  0  0  0  0  0  0
   23.7484   -2.9471  -21.1118 N   0  0  0  0  0  0  0  0  0  0  0  0
   21.7073   -3.9063  -17.6175 C   0  0  0  0  0  0  0  0  0  0  0  0
   20.4787   -4.3591  -17.2414 O   0  0  0  0  0  0  0  0  0  0  0  0
   21.8467   -2.6598  -17.7049 O   0  0  0  0  0  0  0  0  0  0  0  0
  1  2  1  0
  2  3  1  0
  4  3  1  0
  5  1  1  0
  5  4  1  0
  5  6  1  6
  7  6  2  0
  8  6  1  0
  9  8  1  0
  9 10  1  1
 11 10  1  0
 11 15  1  0
 12 11  2  0
 13  9  1  0
 13 16  1  0
 14 13  2  0
 17 16  1  0
 17 24  1  0
 17 18  1  6
 19 18  1  0
 19 20  2  0
 21 20  1  0
 22 21  1  0
 23 22  2  0
 23 19  1  0
 24 25  1  0
 26 24  2  0
M  END
$$$$
