PDH.pdb
     RDKit          3D

 26 27  0  0  1  0  0  0  0  0999 V2000
   17.4591  -14.2390  -14.9334 N   0  0  0  0  0  0  0  0  0  0  0  0
   16.3138  -14.6400  -15.7408 C   0  0  0  0  0  0  0  0  0  0  0  0
   16.8642  -14.9756  -17.1040 C   0  0  0  0  0  0  0  0  0  0  0  0
   18.3466  -14.6964  -17.0193 C   0  0  0  0  0  0  0  0  0  0  0  0
   18.4343  -13.7188  -15.8733 C   0  0  1  0  0  0  0  0  0  0  0  0
   18.0302  -12.3609  -16.2419 C   0  0  0  0  0  0  0  0  0  0  0  0
   18.5004  -11.7645  -17.2669 O   0  0  0  0  0  0  0  0  0  0  0  0
   17.0765  -11.5940  -15.4837 N   0  0  0  0  0  0  0  0  0  0  0  0
   16.7874  -10.2258  -15.8144 C   0  0  1  0  0  0  0  0  0  0  0  0
   15.3327   -9.9550  -15.5524 C   0  0  0  0  0  0  0  0  0  0  0  0
   14.4527  -10.6640  -16.5066 C   0  0  0  0  0  0  0  0  0  0  0  0
   14.5432  -10.5927  -17.7565 O   0  0  0  0  0  0  0  0  0  0  0  0
   17.6184   -9.2356  -15.0922 C   0  0  0  0  0  0  0  0  0  0  0  0
   17.5936   -9.2975  -13.8379 O   0  0  0  0  0  0  0  0  0  0  0  0
   13.4386  -11.4791  -15.9856 O   0  0  0  0  0  0  0  0  0  0  0  0
   18.4156   -8.2502  -15.7185 N   0  0  0  0  0  0  0  0  0  0  0  0
   19.1952   -7.2429  -14.9731 C   0  0  1  0  0  0  0  0  0  0  0  0
   20.2939   -6.7034  -15.8095 C   0  0  0  0  0  0  0  0  0  0  0  0
   21.0899   -5.6204  -15.2320 C   0  0  0  0  0  0  0  0  0  0  0  0
   21.8445   -5.4772  -14.1141 C   0  0  0  0  0  0  0  0  0  0  0  0
   22.4396   -4.2471  -14.1019 N   0  0  0  0  0  0  0  0  0  0  0  0
   22.0392   -3.6591  -15.2151 C   0  0  0  0  0  0  0  0  0  0  0  0
   21.2377   -4.4404  -15.9136 N   0  0  0  0  0  0  0  0  0  0  0  0
   18.2626   -6.1218  -14.6273 C   0  0  0  0  0  0  0  0  0  0  0  0
   18.3806   -5.2954  -13.5508 O   0  0  0  0  0  0  0  0  0  0  0  0
   17.2853   -5.9169  -15.3914 O   0  0  0  0  0  0  0  0  0  0  0  0
  1  2  1  0
  2  3  1  0
  4  3  1  0
  5  1  1  0
  5  4  1  0
  5  6  1  6
  7  6  2  0
  8  6  1  0
  9  8  1  0
  9 10  1  1
 11 10  1  0
 11 15  1  0
 12 11  2  0
 13  9  1  0
 13 16  1  0
 14 13  2  0
 17 16  1  0
 17 24  1  0
 17 18  1  6
 19 18  1  0
 19 20  2  0
 21 20  1  0
 22 21  1  0
 23 22  2  0
 23 19  1  0
 24 25  1  0
 26 24  2  0
M  END
$$$$
