PDH.pdb
     RDKit          3D

 26 27  0  0  1  0  0  0  0  0999 V2000
   41.7369  -11.1317   -6.5034 N   0  0  0  0  0  0  0  0  0  0  0  0
   42.5870  -11.6406   -7.5725 C   0  0  0  0  0  0  0  0  0  0  0  0
   43.8598  -10.8343   -7.5099 C   0  0  0  0  0  0  0  0  0  0  0  0
   43.6494   -9.8362   -6.3953 C   0  0  0  0  0  0  0  0  0  0  0  0
   42.1455   -9.7540   -6.3042 C   0  0  1  0  0  0  0  0  0  0  0  0
   41.5472   -8.9446   -7.3672 C   0  0  0  0  0  0  0  0  0  0  0  0
   41.9291   -7.7527   -7.6132 O   0  0  0  0  0  0  0  0  0  0  0  0
   40.4871   -9.4244   -8.2150 N   0  0  0  0  0  0  0  0  0  0  0  0
   39.8797   -8.5757   -9.2028 C   0  0  1  0  0  0  0  0  0  0  0  0
   39.2209   -9.4325  -10.2468 C   0  0  0  0  0  0  0  0  0  0  0  0
   40.2013  -10.2357  -11.0091 C   0  0  0  0  0  0  0  0  0  0  0  0
   41.2768   -9.7954  -11.4837 O   0  0  0  0  0  0  0  0  0  0  0  0
   38.8990   -7.6100   -8.6566 C   0  0  0  0  0  0  0  0  0  0  0  0
   37.7989   -8.0862   -8.2816 O   0  0  0  0  0  0  0  0  0  0  0  0
   39.9172  -11.5914  -11.2228 O   0  0  0  0  0  0  0  0  0  0  0  0
   39.1250   -6.2195   -8.5381 N   0  0  0  0  0  0  0  0  0  0  0  0
   38.1764   -5.2958   -7.8864 C   0  0  1  0  0  0  0  0  0  0  0  0
   38.8333   -4.5623   -6.7782 C   0  0  0  0  0  0  0  0  0  0  0  0
   38.1573   -4.5863   -5.4810 C   0  0  0  0  0  0  0  0  0  0  0  0
   37.0901   -5.2485   -4.9691 C   0  0  0  0  0  0  0  0  0  0  0  0
   36.9337   -4.9392   -3.6473 N   0  0  0  0  0  0  0  0  0  0  0  0
   37.9104   -4.0931   -3.3730 C   0  0  0  0  0  0  0  0  0  0  0  0
   38.6588   -3.8579   -4.4338 N   0  0  0  0  0  0  0  0  0  0  0  0
   37.7352   -4.3049   -8.9206 C   0  0  0  0  0  0  0  0  0  0  0  0
   36.7268   -3.4008   -8.7735 O   0  0  0  0  0  0  0  0  0  0  0  0
   38.3431   -4.2978  -10.0211 O   0  0  0  0  0  0  0  0  0  0  0  0
  1  2  1  0
  2  3  1  0
  4  3  1  0
  5  1  1  0
  5  4  1  0
  5  6  1  6
  7  6  2  0
  8  6  1  0
  9  8  1  0
  9 10  1  6
 11 10  1  0
 11 15  1  0
 12 11  2  0
 13  9  1  0
 13 16  1  0
 14 13  2  0
 17 16  1  0
 17 24  1  0
 17 18  1  1
 19 18  1  0
 19 20  2  0
 21 20  1  0
 22 21  1  0
 23 22  2  0
 23 19  1  0
 24 25  1  0
 26 24  2  0
M  END
$$$$
