PDH.pdb
     RDKit          3D

 26 27  0  0  1  0  0  0  0  0999 V2000
   26.7224  -19.4295  -16.3520 N   0  0  0  0  0  0  0  0  0  0  0  0
   26.5563  -18.3832  -17.3531 C   0  0  0  0  0  0  0  0  0  0  0  0
   26.8727  -17.0855  -16.6533 C   0  0  0  0  0  0  0  0  0  0  0  0
   27.1716  -17.4629  -15.2212 C   0  0  0  0  0  0  0  0  0  0  0  0
   26.4680  -18.7897  -15.0750 C   0  0  1  0  0  0  0  0  0  0  0  0
   25.0189  -18.6588  -14.9134 C   0  0  0  0  0  0  0  0  0  0  0  0
   24.4967  -18.0175  -13.9422 O   0  0  0  0  0  0  0  0  0  0  0  0
   24.0726  -19.2386  -15.8304 N   0  0  0  0  0  0  0  0  0  0  0  0
   22.6568  -19.0909  -15.6341 C   0  0  1  0  0  0  0  0  0  0  0  0
   21.9831  -18.9989  -16.9742 C   0  0  0  0  0  0  0  0  0  0  0  0
   20.5357  -18.7196  -16.8528 C   0  0  0  0  0  0  0  0  0  0  0  0
   20.0306  -17.8686  -16.0806 O   0  0  0  0  0  0  0  0  0  0  0  0
   22.0361  -20.1725  -14.8355 C   0  0  0  0  0  0  0  0  0  0  0  0
   22.1337  -21.3346  -15.3019 O   0  0  0  0  0  0  0  0  0  0  0  0
   19.6539  -19.4553  -17.6562 O   0  0  0  0  0  0  0  0  0  0  0  0
   21.3569  -19.9753  -13.6114 N   0  0  0  0  0  0  0  0  0  0  0  0
   20.7126  -21.0671  -12.8559 C   0  0  1  0  0  0  0  0  0  0  0  0
   20.9272  -20.8968  -11.3989 C   0  0  0  0  0  0  0  0  0  0  0  0
   20.1958  -21.8049  -10.5153 C   0  0  0  0  0  0  0  0  0  0  0  0
   19.3602  -22.8567  -10.7019 C   0  0  0  0  0  0  0  0  0  0  0  0
   19.0109  -23.4003   -9.4978 N   0  0  0  0  0  0  0  0  0  0  0  0
   19.6414  -22.6712   -8.5944 C   0  0  0  0  0  0  0  0  0  0  0  0
   20.3552  -21.7148   -9.1569 N   0  0  0  0  0  0  0  0  0  0  0  0
   19.2417  -20.9960  -13.1342 C   0  0  0  0  0  0  0  0  0  0  0  0
   18.5512  -19.8702  -13.4685 O   0  0  0  0  0  0  0  0  0  0  0  0
   18.5795  -22.0620  -13.0574 O   0  0  0  0  0  0  0  0  0  0  0  0
  1  2  1  0
  2  3  1  0
  4  3  1  0
  5  1  1  0
  5  4  1  0
  5  6  1  6
  7  6  2  0
  8  6  1  0
  9  8  1  0
  9 10  1  6
 11 10  1  0
 11 15  1  0
 12 11  2  0
 13  9  1  0
 13 16  1  0
 14 13  2  0
 17 16  1  0
 17 24  1  0
 17 18  1  1
 19 18  1  0
 19 20  2  0
 21 20  1  0
 22 21  1  0
 23 22  2  0
 23 19  1  0
 24 25  1  0
 26 24  2  0
M  END
$$$$
