PDH.pdb
     RDKit          3D

 26 27  0  0  1  0  0  0  0  0999 V2000
   28.0349  -21.5170   -8.7133 N   0  0  0  0  0  0  0  0  0  0  0  0
   28.9879  -20.4506   -8.9942 C   0  0  0  0  0  0  0  0  0  0  0  0
   28.4967  -19.2442   -8.2343 C   0  0  0  0  0  0  0  0  0  0  0  0
   27.2142  -19.6836   -7.5674 C   0  0  0  0  0  0  0  0  0  0  0  0
   26.7802  -20.8500   -8.4206 C   0  0  1  0  0  0  0  0  0  0  0  0
   26.1760  -20.4419   -9.6901 C   0  0  0  0  0  0  0  0  0  0  0  0
   25.5388  -19.3445   -9.8200 O   0  0  0  0  0  0  0  0  0  0  0  0
   26.2512  -21.2397  -10.8861 N   0  0  0  0  0  0  0  0  0  0  0  0
   25.6227  -20.8156  -12.1067 C   0  0  1  0  0  0  0  0  0  0  0  0
   26.0057  -21.7617  -13.2097 C   0  0  0  0  0  0  0  0  0  0  0  0
   26.3514  -21.0504  -14.4595 C   0  0  0  0  0  0  0  0  0  0  0  0
   25.5678  -20.3142  -15.1075 O   0  0  0  0  0  0  0  0  0  0  0  0
   24.1477  -20.7102  -12.0280 C   0  0  0  0  0  0  0  0  0  0  0  0
   23.6735  -20.3570  -10.9198 O   0  0  0  0  0  0  0  0  0  0  0  0
   27.6490  -21.2035  -14.9665 O   0  0  0  0  0  0  0  0  0  0  0  0
   23.2672  -20.9788  -13.1009 N   0  0  0  0  0  0  0  0  0  0  0  0
   22.0379  -20.2032  -13.3555 C   0  0  1  0  0  0  0  0  0  0  0  0
   22.3601  -18.7837  -13.6368 C   0  0  0  0  0  0  0  0  0  0  0  0
   21.2281  -17.8794  -13.8394 C   0  0  0  0  0  0  0  0  0  0  0  0
   19.8807  -17.9927  -13.7336 C   0  0  0  0  0  0  0  0  0  0  0  0
   19.2861  -16.7864  -13.9759 N   0  0  0  0  0  0  0  0  0  0  0  0
   20.2819  -15.9547  -14.2245 C   0  0  0  0  0  0  0  0  0  0  0  0
   21.4501  -16.5637  -14.1531 N   0  0  0  0  0  0  0  0  0  0  0  0
   21.3795  -20.7930  -14.5658 C   0  0  0  0  0  0  0  0  0  0  0  0
   20.0401  -20.8030  -14.8145 O   0  0  0  0  0  0  0  0  0  0  0  0
   22.1184  -21.3248  -15.4331 O   0  0  0  0  0  0  0  0  0  0  0  0
  1  2  1  0
  2  3  1  0
  4  3  1  0
  5  1  1  0
  5  4  1  0
  5  6  1  6
  7  6  2  0
  8  6  1  0
  9  8  1  0
  9 10  1  6
 11 10  1  0
 11 15  1  0
 12 11  2  0
 13  9  1  0
 13 16  1  0
 14 13  2  0
 17 16  1  0
 17 24  1  0
 17 18  1  6
 19 18  1  0
 19 20  2  0
 21 20  1  0
 22 21  1  0
 23 22  2  0
 23 19  1  0
 24 25  1  0
 26 24  2  0
M  END
$$$$
