TYT.pdb
     RDKit          3D

 27 27  0  0  1  0  0  0  0  0999 V2000
    7.1464  -14.1217   17.3596 C   0  0  0  0  0  0  0  0  0  0  0  0
    7.5131  -14.4073   18.7882 C   0  0  1  0  0  0  0  0  0  0  0  0
    8.3520  -15.5068   18.8770 O   0  0  0  0  0  0  0  0  0  0  0  0
    8.0776  -13.1864   19.4832 C   0  0  2  0  0  0  0  0  0  0  0  0
    9.1985  -12.7008   18.7289 N   0  0  0  0  0  0  0  0  0  0  0  0
    8.4311  -13.4733   20.8994 C   0  0  0  0  0  0  0  0  0  0  0  0
    9.6058  -13.7951   21.1462 O   0  0  0  0  0  0  0  0  0  0  0  0
    8.0618  -13.6459   29.8013 O   0  0  0  0  0  0  0  0  0  0  0  0
    7.7654  -13.4870   28.4325 C   0  0  0  0  0  0  0  0  0  0  0  0
    7.6292  -12.2336   27.8793 C   0  0  0  0  0  0  0  0  0  0  0  0
    7.3379  -12.1094   26.5319 C   0  0  0  0  0  0  0  0  0  0  0  0
    7.1762  -13.2013   25.7101 C   0  0  0  0  0  0  0  0  0  0  0  0
    6.8723  -13.0068   24.3013 C   0  0  0  0  0  0  0  0  0  0  0  0
    7.8157  -13.6885   23.3457 C   0  0  2  0  0  0  0  0  0  0  0  0
    7.5077  -13.3992   21.9670 N   0  0  0  0  0  0  0  0  0  0  0  0
    8.0528  -15.1106   23.6157 C   0  0  0  0  0  0  0  0  0  0  0  0
    7.0727  -15.9037   23.6462 O   0  0  0  0  0  0  0  0  0  0  0  0
    7.3086  -14.4566   26.2458 C   0  0  0  0  0  0  0  0  0  0  0  0
    7.6034  -14.5800   27.6092 C   0  0  0  0  0  0  0  0  0  0  0  0
    9.8962  -17.8128   21.8772 C   0  0  0  0  0  0  0  0  0  0  0  0
   10.4595  -17.7248   23.2781 C   0  0  1  0  0  0  0  0  0  0  0  0
   11.5944  -16.9428   23.2243 O   0  0  0  0  0  0  0  0  0  0  0  0
    9.4573  -17.1051   24.2394 C   0  0  2  0  0  0  0  0  0  0  0  0
    9.3250  -15.7018   23.8520 N   0  0  0  0  0  0  0  0  0  0  0  0
    9.9994  -17.2019   25.6115 C   0  0  0  0  0  0  0  0  0  0  0  0
   10.3669  -16.1776   26.2375 O   0  0  0  0  0  0  0  0  0  0  0  0
   10.1212  -18.4123   26.2530 O   0  0  0  0  0  0  0  0  0  0  0  0
  2  1  1  6
  2  3  1  0
  4  2  1  0
  4  5  1  6
  6  7  2  0
  6  4  1  0
  8  9  1  0
  9 10  2  0
 10 11  1  0
 12 11  2  0
 12 13  1  0
 14 13  1  1
 14 15  1  0
 15  6  1  0
 16 14  1  0
 17 16  2  0
 18 12  1  0
 19  9  1  0
 19 18  2  0
 21 22  1  0
 21 20  1  6
 23 21  1  0
 23 24  1  6
 24 16  1  0
 25 23  1  0
 26 25  2  0
 27 25  1  0
M  END
$$$$
