TYT.pdb
     RDKit          3D

 27 27  0  0  1  0  0  0  0  0999 V2000
    6.5964  -15.9311   20.1803 C   0  0  0  0  0  0  0  0  0  0  0  0
    7.3778  -14.8814   19.4425 C   0  0  1  0  0  0  0  0  0  0  0  0
    6.8426  -14.6542   18.1846 O   0  0  0  0  0  0  0  0  0  0  0  0
    7.5236  -13.6102   20.2518 C   0  0  2  0  0  0  0  0  0  0  0  0
    8.0893  -12.5903   19.4145 N   0  0  0  0  0  0  0  0  0  0  0  0
    8.3205  -13.8330   21.4880 C   0  0  0  0  0  0  0  0  0  0  0  0
    9.5570  -13.8861   21.3746 O   0  0  0  0  0  0  0  0  0  0  0  0
   10.5315  -15.0678   30.0319 O   0  0  0  0  0  0  0  0  0  0  0  0
    9.8431  -14.7848   28.8349 C   0  0  0  0  0  0  0  0  0  0  0  0
    9.9119  -13.5367   28.2577 C   0  0  0  0  0  0  0  0  0  0  0  0
    9.2250  -13.2887   27.0820 C   0  0  0  0  0  0  0  0  0  0  0  0
    8.4653  -14.2507   26.4565 C   0  0  0  0  0  0  0  0  0  0  0  0
    7.7674  -13.9304   25.2215 C   0  0  0  0  0  0  0  0  0  0  0  0
    8.4762  -14.3512   23.9612 C   0  0  2  0  0  0  0  0  0  0  0  0
    7.7482  -13.9856   22.7713 N   0  0  0  0  0  0  0  0  0  0  0  0
    8.9666  -15.7335   23.9565 C   0  0  0  0  0  0  0  0  0  0  0  0
    8.1404  -16.6800   23.8476 O   0  0  0  0  0  0  0  0  0  0  0  0
    8.3865  -15.4989   27.0186 C   0  0  0  0  0  0  0  0  0  0  0  0
    9.0823  -15.7477   28.2082 C   0  0  0  0  0  0  0  0  0  0  0  0
   10.3328  -17.6896   21.5870 C   0  0  0  0  0  0  0  0  0  0  0  0
   11.3576  -17.7898   22.6949 C   0  0  1  0  0  0  0  0  0  0  0  0
   12.3345  -16.8480   22.4475 O   0  0  0  0  0  0  0  0  0  0  0  0
   10.7292  -17.5289   24.0548 C   0  0  2  0  0  0  0  0  0  0  0  0
   10.3308  -16.1224   24.0641 N   0  0  0  0  0  0  0  0  0  0  0  0
   11.7477  -17.7727   25.0984 C   0  0  0  0  0  0  0  0  0  0  0  0
   12.2008  -16.8318   25.7951 O   0  0  0  0  0  0  0  0  0  0  0  0
   12.2360  -19.0344   25.3461 O   0  0  0  0  0  0  0  0  0  0  0  0
  2  1  1  1
  2  3  1  0
  4  2  1  0
  4  5  1  6
  6  7  2  0
  6  4  1  0
  8  9  1  0
  9 10  2  0
 10 11  1  0
 12 11  2  0
 12 13  1  0
 14 13  1  1
 14 15  1  0
 15  6  1  0
 16 14  1  0
 17 16  2  0
 18 12  1  0
 19  9  1  0
 19 18  2  0
 21 22  1  0
 21 20  1  6
 23 21  1  0
 23 24  1  6
 24 16  1  0
 25 23  1  0
 26 25  2  0
 27 25  1  0
M  END
$$$$
