TYT.pdb
     RDKit          3D

 27 27  0  0  1  0  0  0  0  0999 V2000
    7.5803  -18.5323   20.2799 C   0  0  0  0  0  0  0  0  0  0  0  0
    8.9097  -18.3374   19.6079 C   0  0  1  0  0  0  0  0  0  0  0  0
    8.9308  -18.9414   18.3608 O   0  0  0  0  0  0  0  0  0  0  0  0
    9.3093  -16.8780   19.5551 C   0  0  2  0  0  0  0  0  0  0  0  0
   10.5246  -16.7575   18.8003 N   0  0  0  0  0  0  0  0  0  0  0  0
    9.4289  -16.2904   20.9165 C   0  0  0  0  0  0  0  0  0  0  0  0
   10.4745  -16.5128   21.5502 O   0  0  0  0  0  0  0  0  0  0  0  0
    7.2730  -12.0668   28.4762 O   0  0  0  0  0  0  0  0  0  0  0  0
    7.3193  -12.5287   27.1453 C   0  0  0  0  0  0  0  0  0  0  0  0
    8.3680  -12.1962   26.3174 C   0  0  0  0  0  0  0  0  0  0  0  0
    8.3857  -12.6648   25.0153 C   0  0  0  0  0  0  0  0  0  0  0  0
    7.3851  -13.4604   24.5056 C   0  0  0  0  0  0  0  0  0  0  0  0
    7.4605  -13.9234   23.1291 C   0  0  0  0  0  0  0  0  0  0  0  0
    8.4484  -15.0330   22.8830 C   0  0  2  0  0  0  0  0  0  0  0  0
    8.4236  -15.5002   21.5189 N   0  0  0  0  0  0  0  0  0  0  0  0
    8.4349  -16.1089   23.8798 C   0  0  0  0  0  0  0  0  0  0  0  0
    7.3917  -16.8031   24.0230 O   0  0  0  0  0  0  0  0  0  0  0  0
    6.3337  -13.8006   25.3173 C   0  0  0  0  0  0  0  0  0  0  0  0
    6.3177  -13.3253   26.6346 C   0  0  0  0  0  0  0  0  0  0  0  0
    9.6690  -19.2986   23.9767 C   0  0  0  0  0  0  0  0  0  0  0  0
   10.2609  -18.6763   25.2217 C   0  0  1  0  0  0  0  0  0  0  0  0
   11.5204  -18.2149   24.9004 O   0  0  0  0  0  0  0  0  0  0  0  0
    9.4067  -17.5224   25.7230 C   0  0  2  0  0  0  0  0  0  0  0  0
    9.5226  -16.4582   24.7275 N   0  0  0  0  0  0  0  0  0  0  0  0
    9.9496  -17.0635   27.0193 C   0  0  0  0  0  0  0  0  0  0  0  0
   10.4960  -15.9388   27.1321 O   0  0  0  0  0  0  0  0  0  0  0  0
    9.8770  -17.8469   28.1473 O   0  0  0  0  0  0  0  0  0  0  0  0
  2  1  1  6
  2  3  1  0
  4  2  1  0
  4  5  1  1
  6  7  2  0
  6  4  1  0
  8  9  1  0
  9 10  2  0
 10 11  1  0
 12 11  2  0
 12 13  1  0
 14 13  1  1
 14 15  1  0
 15  6  1  0
 16 14  1  0
 17 16  2  0
 18 12  1  0
 19  9  1  0
 19 18  2  0
 21 22  1  0
 21 20  1  6
 23 21  1  0
 23 24  1  6
 24 16  1  0
 25 23  1  0
 26 25  2  0
 27 25  1  0
M  END
$$$$
