TYT.pdb
     RDKit          3D

 27 27  0  0  1  0  0  0  0  0999 V2000
   11.6953  -18.2851   18.9336 C   0  0  0  0  0  0  0  0  0  0  0  0
   11.1157  -17.6959   20.1881 C   0  0  1  0  0  0  0  0  0  0  0  0
    9.9438  -17.0066   19.9196 O   0  0  0  0  0  0  0  0  0  0  0  0
   10.9440  -18.7353   21.2755 C   0  0  2  0  0  0  0  0  0  0  0  0
   10.1382  -19.8091   20.7668 N   0  0  0  0  0  0  0  0  0  0  0  0
   10.3785  -18.1440   22.5179 C   0  0  0  0  0  0  0  0  0  0  0  0
    9.1517  -18.2364   22.6933 O   0  0  0  0  0  0  0  0  0  0  0  0
    9.7045  -14.4497   30.5813 O   0  0  0  0  0  0  0  0  0  0  0  0
   10.1924  -14.9927   29.3755 C   0  0  0  0  0  0  0  0  0  0  0  0
   10.4723  -14.1831   28.2975 C   0  0  0  0  0  0  0  0  0  0  0  0
   10.9503  -14.7453   27.1266 C   0  0  0  0  0  0  0  0  0  0  0  0
   11.1607  -16.0987   26.9923 C   0  0  0  0  0  0  0  0  0  0  0  0
   11.6664  -16.6303   25.7368 C   0  0  0  0  0  0  0  0  0  0  0  0
   10.6296  -16.8202   24.6612 C   0  0  2  0  0  0  0  0  0  0  0  0
   11.1582  -17.4893   23.4983 N   0  0  0  0  0  0  0  0  0  0  0  0
    9.8322  -15.6290   24.3502 C   0  0  0  0  0  0  0  0  0  0  0  0
   10.4053  -14.6105   23.8762 O   0  0  0  0  0  0  0  0  0  0  0  0
   10.8869  -16.9186   28.0567 C   0  0  0  0  0  0  0  0  0  0  0  0
   10.4033  -16.3477   29.2405 C   0  0  0  0  0  0  0  0  0  0  0  0
    8.0405  -14.4165   21.7667 C   0  0  0  0  0  0  0  0  0  0  0  0
    7.0395  -14.4559   22.8998 C   0  0  1  0  0  0  0  0  0  0  0  0
    6.4188  -15.6871   22.8671 O   0  0  0  0  0  0  0  0  0  0  0  0
    7.7200  -14.2625   24.2459 C   0  0  2  0  0  0  0  0  0  0  0  0
    8.4269  -15.5088   24.5355 N   0  0  0  0  0  0  0  0  0  0  0  0
    6.6800  -14.0216   25.2687 C   0  0  0  0  0  0  0  0  0  0  0  0
    6.0103  -12.9598   25.2755 O   0  0  0  0  0  0  0  0  0  0  0  0
    6.4062  -14.9477   26.2479 O   0  0  0  0  0  0  0  0  0  0  0  0
  2  1  1  6
  2  3  1  0
  4  2  1  0
  4  5  1  6
  6  7  2  0
  6  4  1  0
  8  9  1  0
  9 10  2  0
 10 11  1  0
 12 11  2  0
 12 13  1  0
 14 13  1  1
 14 15  1  0
 15  6  1  0
 16 14  1  0
 17 16  2  0
 18 12  1  0
 19  9  1  0
 19 18  2  0
 21 22  1  0
 21 20  1  6
 23 21  1  0
 23 24  1  1
 24 16  1  0
 25 23  1  0
 26 25  2  0
 27 25  1  0
M  END
$$$$
