TYT.pdb
     RDKit          3D

 27 27  0  0  1  0  0  0  0  0999 V2000
    7.9387  -18.9295   20.0862 C   0  0  0  0  0  0  0  0  0  0  0  0
    9.0028  -18.4092   19.1623 C   0  0  1  0  0  0  0  0  0  0  0  0
    8.9332  -19.0275   17.9240 O   0  0  0  0  0  0  0  0  0  0  0  0
    8.9766  -16.8988   19.0614 C   0  0  2  0  0  0  0  0  0  0  0  0
    9.9531  -16.4820   18.0951 N   0  0  0  0  0  0  0  0  0  0  0  0
    9.1823  -16.2549   20.3866 C   0  0  0  0  0  0  0  0  0  0  0  0
   10.3313  -16.2653   20.8600 O   0  0  0  0  0  0  0  0  0  0  0  0
    7.4059  -12.1371   28.1103 O   0  0  0  0  0  0  0  0  0  0  0  0
    7.3547  -12.6342   26.7923 C   0  0  0  0  0  0  0  0  0  0  0  0
    8.0340  -12.0061   25.7727 C   0  0  0  0  0  0  0  0  0  0  0  0
    7.9647  -12.5178   24.4886 C   0  0  0  0  0  0  0  0  0  0  0  0
    7.2350  -13.6440   24.1834 C   0  0  0  0  0  0  0  0  0  0  0  0
    7.2020  -14.1347   22.8149 C   0  0  0  0  0  0  0  0  0  0  0  0
    8.2868  -15.1186   22.4642 C   0  0  2  0  0  0  0  0  0  0  0  0
    8.1475  -15.6385   21.1263 N   0  0  0  0  0  0  0  0  0  0  0  0
    8.5436  -16.1473   23.4777 C   0  0  0  0  0  0  0  0  0  0  0  0
    7.6563  -17.0109   23.7176 O   0  0  0  0  0  0  0  0  0  0  0  0
    6.5528  -14.2812   25.1877 C   0  0  0  0  0  0  0  0  0  0  0  0
    6.6242  -13.7618   26.4863 C   0  0  0  0  0  0  0  0  0  0  0  0
   10.7531  -18.9249   23.5771 C   0  0  0  0  0  0  0  0  0  0  0  0
   11.0606  -18.1653   24.8484 C   0  0  1  0  0  0  0  0  0  0  0  0
   12.1614  -17.3707   24.6050 O   0  0  0  0  0  0  0  0  0  0  0  0
    9.8866  -17.2961   25.2711 C   0  0  2  0  0  0  0  0  0  0  0  0
    9.7383  -16.2704   24.2401 N   0  0  0  0  0  0  0  0  0  0  0  0
   10.2109  -16.6657   26.5685 C   0  0  0  0  0  0  0  0  0  0  0  0
   10.3789  -15.4252   26.6629 O   0  0  0  0  0  0  0  0  0  0  0  0
   10.3398  -17.4103   27.7176 O   0  0  0  0  0  0  0  0  0  0  0  0
  2  1  1  1
  2  3  1  0
  4  2  1  0
  4  5  1  6
  6  7  2  0
  6  4  1  0
  8  9  1  0
  9 10  2  0
 10 11  1  0
 12 11  2  0
 12 13  1  0
 14 13  1  1
 14 15  1  0
 15  6  1  0
 16 14  1  0
 17 16  2  0
 18 12  1  0
 19  9  1  0
 19 18  2  0
 21 22  1  0
 21 20  1  6
 23 21  1  0
 23 24  1  6
 24 16  1  0
 25 23  1  0
 26 25  2  0
 27 25  1  0
M  END
$$$$
