TYT.pdb
     RDKit          3D

 27 27  0  0  1  0  0  0  0  0999 V2000
    6.4982  -15.8336   20.3002 C   0  0  0  0  0  0  0  0  0  0  0  0
    7.3649  -14.8288   19.5960 C   0  0  1  0  0  0  0  0  0  0  0  0
    6.8999  -14.5811   18.3142 O   0  0  0  0  0  0  0  0  0  0  0  0
    7.5381  -13.5624   20.4075 C   0  0  2  0  0  0  0  0  0  0  0  0
    8.1340  -12.5563   19.5745 N   0  0  0  0  0  0  0  0  0  0  0  0
    8.3224  -13.8064   21.6478 C   0  0  0  0  0  0  0  0  0  0  0  0
    9.5613  -13.8224   21.5524 O   0  0  0  0  0  0  0  0  0  0  0  0
   10.4377  -15.2562   30.1823 O   0  0  0  0  0  0  0  0  0  0  0  0
    9.7664  -14.9399   28.9840 C   0  0  0  0  0  0  0  0  0  0  0  0
    9.8836  -13.6910   28.4162 C   0  0  0  0  0  0  0  0  0  0  0  0
    9.2124  -13.4099   27.2389 C   0  0  0  0  0  0  0  0  0  0  0  0
    8.4214  -14.3391   26.6027 C   0  0  0  0  0  0  0  0  0  0  0  0
    7.7422  -13.9849   25.3666 C   0  0  0  0  0  0  0  0  0  0  0  0
    8.4565  -14.3961   24.1063 C   0  0  2  0  0  0  0  0  0  0  0  0
    7.7352  -14.0186   22.9160 N   0  0  0  0  0  0  0  0  0  0  0  0
    8.9441  -15.7793   24.0919 C   0  0  0  0  0  0  0  0  0  0  0  0
    8.1124  -16.7263   24.1374 O   0  0  0  0  0  0  0  0  0  0  0  0
    8.2944  -15.5876   27.1553 C   0  0  0  0  0  0  0  0  0  0  0  0
    8.9744  -15.8699   28.3465 C   0  0  0  0  0  0  0  0  0  0  0  0
   10.6360  -17.5841   21.4968 C   0  0  0  0  0  0  0  0  0  0  0  0
   11.5030  -17.7758   22.7211 C   0  0  1  0  0  0  0  0  0  0  0  0
   12.5225  -16.8486   22.6610 O   0  0  0  0  0  0  0  0  0  0  0  0
   10.7057  -17.5761   24.0004 C   0  0  2  0  0  0  0  0  0  0  0  0
   10.3108  -16.1689   24.0269 N   0  0  0  0  0  0  0  0  0  0  0  0
   11.5816  -17.8773   25.1528 C   0  0  0  0  0  0  0  0  0  0  0  0
   12.0108  -19.0396   25.3549 O   0  0  0  0  0  0  0  0  0  0  0  0
   11.9592  -16.9002   26.0439 O   0  0  0  0  0  0  0  0  0  0  0  0
  2  1  1  1
  2  3  1  0
  4  2  1  0
  4  5  1  6
  6  7  2  0
  6  4  1  0
  8  9  1  0
  9 10  2  0
 10 11  1  0
 12 11  2  0
 12 13  1  0
 14 13  1  1
 14 15  1  0
 15  6  1  0
 16 14  1  0
 17 16  2  0
 18 12  1  0
 19  9  1  0
 19 18  2  0
 21 22  1  0
 21 20  1  6
 23 21  1  0
 23 24  1  1
 24 16  1  0
 25 23  1  0
 26 25  2  0
 27 25  1  0
M  END
$$$$
