TYT.pdb
     RDKit          3D

 27 27  0  0  1  0  0  0  0  0999 V2000
    7.0205  -18.2939   20.3004 C   0  0  0  0  0  0  0  0  0  0  0  0
    8.3607  -18.1699   19.6333 C   0  0  1  0  0  0  0  0  0  0  0  0
    8.3339  -18.7096   18.3572 O   0  0  0  0  0  0  0  0  0  0  0  0
    8.8735  -16.7454   19.6526 C   0  0  2  0  0  0  0  0  0  0  0  0
   10.1108  -16.6887   18.9266 N   0  0  0  0  0  0  0  0  0  0  0  0
    9.0084  -16.2277   21.0406 C   0  0  0  0  0  0  0  0  0  0  0  0
   10.0060  -16.5800   21.6926 O   0  0  0  0  0  0  0  0  0  0  0  0
    7.1959  -11.8290   28.5947 O   0  0  0  0  0  0  0  0  0  0  0  0
    7.2145  -12.2902   27.2628 C   0  0  0  0  0  0  0  0  0  0  0  0
    8.2921  -12.0404   26.4429 C   0  0  0  0  0  0  0  0  0  0  0  0
    8.2815  -12.5060   25.1396 C   0  0  0  0  0  0  0  0  0  0  0  0
    7.2243  -13.2183   24.6211 C   0  0  0  0  0  0  0  0  0  0  0  0
    7.2721  -13.6828   23.2439 C   0  0  0  0  0  0  0  0  0  0  0  0
    8.1463  -14.8859   23.0069 C   0  0  2  0  0  0  0  0  0  0  0  0
    8.0688  -15.3643   21.6486 N   0  0  0  0  0  0  0  0  0  0  0  0
    8.0338  -15.9438   24.0166 C   0  0  0  0  0  0  0  0  0  0  0  0
    6.9068  -16.4631   24.2421 O   0  0  0  0  0  0  0  0  0  0  0  0
    6.1435  -13.4755   25.4248 C   0  0  0  0  0  0  0  0  0  0  0  0
    6.1563  -13.0034   26.7431 C   0  0  0  0  0  0  0  0  0  0  0  0
    8.9144  -19.2785   23.9928 C   0  0  0  0  0  0  0  0  0  0  0  0
    9.6061  -18.7550   25.2317 C   0  0  1  0  0  0  0  0  0  0  0  0
   10.9026  -18.4372   24.8842 O   0  0  0  0  0  0  0  0  0  0  0  0
    8.9058  -17.5198   25.7761 C   0  0  2  0  0  0  0  0  0  0  0  0
    9.1102  -16.4597   24.7905 N   0  0  0  0  0  0  0  0  0  0  0  0
    9.5391  -17.1466   27.0588 C   0  0  0  0  0  0  0  0  0  0  0  0
   10.2062  -16.0889   27.1694 O   0  0  0  0  0  0  0  0  0  0  0  0
    9.4222  -17.9398   28.1763 O   0  0  0  0  0  0  0  0  0  0  0  0
  2  1  1  6
  2  3  1  0
  4  2  1  0
  4  5  1  1
  6  7  2  0
  6  4  1  0
  8  9  1  0
  9 10  2  0
 10 11  1  0
 12 11  2  0
 12 13  1  0
 14 13  1  1
 14 15  1  0
 15  6  1  0
 16 14  1  0
 17 16  2  0
 18 12  1  0
 19  9  1  0
 19 18  2  0
 21 22  1  0
 21 20  1  6
 23 21  1  0
 23 24  1  6
 24 16  1  0
 25 23  1  0
 26 25  2  0
 27 25  1  0
M  END
$$$$
