TYT.pdb
     RDKit          3D

 27 27  0  0  1  0  0  0  0  0999 V2000
    9.8603  -20.2411   19.8747 C   0  0  0  0  0  0  0  0  0  0  0  0
    9.7930  -19.2063   20.9616 C   0  0  1  0  0  0  0  0  0  0  0  0
   10.6468  -19.5243   22.0058 O   0  0  0  0  0  0  0  0  0  0  0  0
   10.0216  -17.8080   20.4277 C   0  0  2  0  0  0  0  0  0  0  0  0
   11.2993  -17.7647   19.7745 N   0  0  0  0  0  0  0  0  0  0  0  0
    9.8994  -16.7830   21.4988 C   0  0  0  0  0  0  0  0  0  0  0  0
   10.9381  -16.2098   21.8690 O   0  0  0  0  0  0  0  0  0  0  0  0
    7.6754  -12.0925   17.7424 O   0  0  0  0  0  0  0  0  0  0  0  0
    7.6183  -12.6814   19.0217 C   0  0  0  0  0  0  0  0  0  0  0  0
    8.3597  -12.1766   20.0664 C   0  0  0  0  0  0  0  0  0  0  0  0
    8.2829  -12.7764   21.3113 C   0  0  0  0  0  0  0  0  0  0  0  0
    7.4855  -13.8717   21.5527 C   0  0  0  0  0  0  0  0  0  0  0  0
    7.4455  -14.4573   22.8832 C   0  0  0  0  0  0  0  0  0  0  0  0
    8.5282  -15.4643   23.1692 C   0  0  2  0  0  0  0  0  0  0  0  0
    8.6742  -16.4320   22.1102 N   0  0  0  0  0  0  0  0  0  0  0  0
    8.4888  -16.0540   24.5116 C   0  0  0  0  0  0  0  0  0  0  0  0
    7.5932  -15.6866   25.3200 O   0  0  0  0  0  0  0  0  0  0  0  0
    6.7408  -14.3865   20.5228 C   0  0  0  0  0  0  0  0  0  0  0  0
    6.8200  -13.7781   19.2640 C   0  0  0  0  0  0  0  0  0  0  0  0
    7.8221  -19.4578   25.6470 C   0  0  0  0  0  0  0  0  0  0  0  0
    9.1578  -19.0678   26.2397 C   0  0  1  0  0  0  0  0  0  0  0  0
   10.1432  -19.5483   25.4027 O   0  0  0  0  0  0  0  0  0  0  0  0
    9.2869  -17.5580   26.3666 C   0  0  2  0  0  0  0  0  0  0  0  0
    9.3925  -17.0354   25.0055 N   0  0  0  0  0  0  0  0  0  0  0  0
   10.5204  -17.2530   27.1225 C   0  0  0  0  0  0  0  0  0  0  0  0
   11.5048  -16.7087   26.5652 O   0  0  0  0  0  0  0  0  0  0  0  0
   10.6367  -17.5516   28.4599 O   0  0  0  0  0  0  0  0  0  0  0  0
  2  1  1  6
  2  3  1  0
  4  2  1  0
  4  5  1  1
  6  7  2  0
  6  4  1  0
  8  9  1  0
  9 10  2  0
 10 11  1  0
 12 11  2  0
 12 13  1  0
 14 13  1  6
 14 15  1  0
 15  6  1  0
 16 14  1  0
 17 16  2  0
 18 12  1  0
 19  9  1  0
 19 18  2  0
 21 22  1  0
 21 20  1  6
 23 21  1  0
 23 24  1  6
 24 16  1  0
 25 23  1  0
 26 25  2  0
 27 25  1  0
M  END
$$$$
