PRC.pdb
     RDKit          3D

 25 25  0  0  1  0  0  0  0  0999 V2000
   21.2399  -22.8469  -13.9529 N   0  0  0  0  0  0  0  0  0  0  0  0
   22.0961  -22.9635  -15.0887 C   0  0  0  0  0  0  0  0  0  0  0  0
   21.2846  -23.4423  -16.2533 C   0  0  0  0  0  0  0  0  0  0  0  0
   19.8874  -23.4323  -15.7299 C   0  0  0  0  0  0  0  0  0  0  0  0
   19.8758  -22.8411  -14.3686 C   0  0  1  0  0  0  0  0  0  0  0  0
   18.9469  -23.5048  -13.4310 C   0  0  0  0  0  0  0  0  0  0  0  0
   17.7183  -23.2190  -13.5746 O   0  0  0  0  0  0  0  0  0  0  0  0
   21.5196  -29.3860  -12.0485 N   0  0  0  0  0  0  0  0  0  0  0  0
   21.3047  -29.4093  -10.6177 C   0  0  0  0  0  0  0  0  0  0  0  0
   21.9265  -30.2676   -9.9672 N   0  0  0  0  0  0  0  0  0  0  0  0
   20.4237  -28.4939  -10.0026 N   0  0  0  0  0  0  0  0  0  0  0  0
   19.0172  -28.5164  -10.0207 C   0  0  0  0  0  0  0  0  0  0  0  0
   18.2614  -27.5238  -10.8135 C   0  0  0  0  0  0  0  0  0  0  0  0
   19.0700  -26.2377  -10.8980 C   0  0  0  0  0  0  0  0  0  0  0  0
   18.3654  -25.1218  -11.5642 C   0  0  2  0  0  0  0  0  0  0  0  0
   19.3046  -24.4027  -12.4202 N   0  0  0  0  0  0  0  0  0  0  0  0
   17.9139  -24.1594  -10.4904 C   0  0  0  0  0  0  0  0  0  0  0  0
   18.7382  -23.5904   -9.7728 O   0  0  0  0  0  0  0  0  0  0  0  0
   21.9135  -30.4486   -8.9880 N   0  0  0  0  0  0  0  0  0  0  0  0
   16.5439  -23.9338  -10.3345 C   0  0  1  0  0  0  0  0  0  0  0  0
   15.9656  -23.0206   -9.3753 C   0  0  0  0  0  0  0  0  0  0  0  0
   14.7634  -22.3059   -9.8822 S   0  0  0  0  0  0  0  0  0  0  0  0
   15.2899  -21.1730  -11.2006 C   0  0  0  0  0  0  0  0  0  0  0  0
   15.6135  -23.7601   -8.1556 O   0  0  0  0  0  0  0  0  0  0  0  0
   15.4074  -23.1225   -6.9624 O   0  0  0  0  0  0  0  0  0  0  0  0
  1  2  1  0
  3  2  1  0
  4  3  1  0
  5  4  1  0
  5  1  1  0
  6 16  1  0
  5  6  1  1
  7  6  2  0
  9  8  1  0
  9 11  1  0
 10  9  2  0
 12 11  1  0
 13 12  1  0
 14 13  1  0
 15 14  1  1
 15 16  1  0
 17 18  2  0
 17 15  1  0
 19 17  1  0
 20 23  1  0
 20 19  1  0
 20 21  1  1
 22 21  1  0
 23 24  1  0
 25 23  2  0
M  END
$$$$
