PRC.pdb
     RDKit          3D

 25 25  0  0  1  0  0  0  0  0999 V2000
   23.7200  -24.6448  -14.1333 N   0  0  0  0  0  0  0  0  0  0  0  0
   24.6369  -24.5625  -15.2238 C   0  0  0  0  0  0  0  0  0  0  0  0
   24.6247  -23.1620  -15.7555 C   0  0  0  0  0  0  0  0  0  0  0  0
   23.7574  -22.4307  -14.7862 C   0  0  0  0  0  0  0  0  0  0  0  0
   23.3981  -23.3363  -13.6666 C   0  0  1  0  0  0  0  0  0  0  0  0
   22.0091  -23.1813  -13.1879 C   0  0  0  0  0  0  0  0  0  0  0  0
   21.7084  -22.0384  -12.7241 O   0  0  0  0  0  0  0  0  0  0  0  0
   14.7148  -25.9995  -16.6764 N   0  0  0  0  0  0  0  0  0  0  0  0
   15.9402  -26.5954  -16.1894 C   0  0  0  0  0  0  0  0  0  0  0  0
   16.2788  -27.6813  -16.6921 N   0  0  0  0  0  0  0  0  0  0  0  0
   16.7052  -25.9616  -15.1866 N   0  0  0  0  0  0  0  0  0  0  0  0
   16.4071  -24.7630  -14.5129 C   0  0  0  0  0  0  0  0  0  0  0  0
   17.2438  -24.3108  -13.3813 C   0  0  0  0  0  0  0  0  0  0  0  0
   18.7071  -24.3638  -13.7948 C   0  0  0  0  0  0  0  0  0  0  0  0
   19.6542  -24.0013  -12.7191 C   0  0  2  0  0  0  0  0  0  0  0  0
   21.0209  -24.1708  -13.2042 N   0  0  0  0  0  0  0  0  0  0  0  0
   19.4580  -24.9822  -11.5867 C   0  0  0  0  0  0  0  0  0  0  0  0
   19.8400  -26.1487  -11.6955 O   0  0  0  0  0  0  0  0  0  0  0  0
   17.0436  -28.2741  -16.4566 N   0  0  0  0  0  0  0  0  0  0  0  0
   18.8352  -24.5329  -10.4194 C   0  0  1  0  0  0  0  0  0  0  0  0
   18.6085  -25.3436   -9.2448 C   0  0  0  0  0  0  0  0  0  0  0  0
   18.3666  -24.5499   -8.0102 S   0  0  0  0  0  0  0  0  0  0  0  0
   19.8597  -23.5775   -7.6581 C   0  0  0  0  0  0  0  0  0  0  0  0
   17.4630  -26.2318   -9.4844 O   0  0  0  0  0  0  0  0  0  0  0  0
   17.3244  -27.4212   -8.8219 O   0  0  0  0  0  0  0  0  0  0  0  0
  1  2  1  0
  3  2  1  0
  4  3  1  0
  5  4  1  0
  5  1  1  0
  6 16  1  0
  5  6  1  6
  7  6  2  0
  9  8  1  0
  9 11  1  0
 10  9  2  0
 12 11  1  0
 13 12  1  0
 14 13  1  0
 15 14  1  6
 15 16  1  0
 17 18  2  0
 17 15  1  0
 19 17  1  0
 20 23  1  0
 20 19  1  0
 20 21  1  1
 22 21  1  0
 23 24  1  0
 25 23  2  0
M  END
$$$$
