PRC.pdb
     RDKit          3D

 25 25  0  0  1  0  0  0  0  0999 V2000
   26.2649  -21.2621  -14.3388 N   0  0  0  0  0  0  0  0  0  0  0  0
   27.2752  -20.8973  -15.2785 C   0  0  0  0  0  0  0  0  0  0  0  0
   28.0979  -19.7912  -14.6922 C   0  0  0  0  0  0  0  0  0  0  0  0
   27.5774  -19.6729  -13.2988 C   0  0  0  0  0  0  0  0  0  0  0  0
   26.5943  -20.7559  -13.0469 C   0  0  1  0  0  0  0  0  0  0  0  0
   25.4309  -20.3378  -12.2380 C   0  0  0  0  0  0  0  0  0  0  0  0
   25.6992  -19.8156  -11.1123 O   0  0  0  0  0  0  0  0  0  0  0  0
   22.0798  -16.5986  -17.0143 N   0  0  0  0  0  0  0  0  0  0  0  0
   21.9451  -18.0129  -17.2892 C   0  0  0  0  0  0  0  0  0  0  0  0
   22.4592  -18.4354  -18.3397 N   0  0  0  0  0  0  0  0  0  0  0  0
   21.2563  -18.8619  -16.3963 N   0  0  0  0  0  0  0  0  0  0  0  0
   21.2473  -18.7986  -14.9909 C   0  0  0  0  0  0  0  0  0  0  0  0
   22.2979  -19.4772  -14.2030 C   0  0  0  0  0  0  0  0  0  0  0  0
   22.0060  -19.2883  -12.7217 C   0  0  0  0  0  0  0  0  0  0  0  0
   22.9528  -19.9839  -11.8242 C   0  0  2  0  0  0  0  0  0  0  0  0
   24.0877  -20.4683  -12.6048 N   0  0  0  0  0  0  0  0  0  0  0  0
   22.2462  -21.1965  -11.2645 C   0  0  0  0  0  0  0  0  0  0  0  0
   22.0189  -22.1741  -11.9794 O   0  0  0  0  0  0  0  0  0  0  0  0
   22.4463  -19.3546  -18.7229 N   0  0  0  0  0  0  0  0  0  0  0  0
   21.8599  -21.1790   -9.9219 C   0  0  2  0  0  0  0  0  0  0  0  0
   21.1269  -22.2365   -9.2641 C   0  0  0  0  0  0  0  0  0  0  0  0
   21.2504  -22.2148   -7.7818 S   0  0  0  0  0  0  0  0  0  0  0  0
   20.6609  -20.6035   -7.1861 C   0  0  0  0  0  0  0  0  0  0  0  0
   19.7084  -22.1447   -9.6354 O   0  0  0  0  0  0  0  0  0  0  0  0
   18.8482  -23.1935   -9.4538 O   0  0  0  0  0  0  0  0  0  0  0  0
  1  2  1  0
  3  2  1  0
  4  3  1  0
  5  4  1  0
  5  1  1  0
  6 16  1  0
  5  6  1  6
  7  6  2  0
  9  8  1  0
  9 11  1  0
 10  9  2  0
 12 11  1  0
 13 12  1  0
 14 13  1  0
 15 14  1  6
 15 16  1  0
 17 18  2  0
 17 15  1  0
 19 17  1  0
 20 23  1  0
 20 19  1  0
 20 21  1  1
 22 21  1  0
 23 24  1  0
 25 23  2  0
M  END
$$$$
