PRC.pdb
     RDKit          3D

 25 25  0  0  1  0  0  0  0  0999 V2000
   25.6370  -18.2221  -16.6854 N   0  0  0  0  0  0  0  0  0  0  0  0
   25.4781  -18.1721  -18.1028 C   0  0  0  0  0  0  0  0  0  0  0  0
   24.0150  -18.1140  -18.4191 C   0  0  0  0  0  0  0  0  0  0  0  0
   23.3756  -17.9746  -17.0781 C   0  0  0  0  0  0  0  0  0  0  0  0
   24.4289  -17.8183  -16.0443 C   0  0  1  0  0  0  0  0  0  0  0  0
   24.1413  -18.5247  -14.7791 C   0  0  0  0  0  0  0  0  0  0  0  0
   23.0723  -18.1829  -14.1856 O   0  0  0  0  0  0  0  0  0  0  0  0
   24.4377  -26.4780  -15.4460 N   0  0  0  0  0  0  0  0  0  0  0  0
   23.7617  -25.2083  -15.6039 C   0  0  0  0  0  0  0  0  0  0  0  0
   22.8801  -25.1429  -16.4784 N   0  0  0  0  0  0  0  0  0  0  0  0
   24.1005  -24.1020  -14.7953 N   0  0  0  0  0  0  0  0  0  0  0  0
   25.3901  -23.6520  -14.4581 C   0  0  0  0  0  0  0  0  0  0  0  0
   25.6330  -22.2237  -14.1649 C   0  0  0  0  0  0  0  0  0  0  0  0
   24.4992  -21.6960  -13.2983 C   0  0  0  0  0  0  0  0  0  0  0  0
   24.5991  -20.2555  -12.9811 C   0  0  2  0  0  0  0  0  0  0  0  0
   24.9346  -19.5178  -14.1957 N   0  0  0  0  0  0  0  0  0  0  0  0
   25.7503  -20.0775  -12.0188 C   0  0  0  0  0  0  0  0  0  0  0  0
   26.8811  -19.8210  -12.4358 O   0  0  0  0  0  0  0  0  0  0  0  0
   22.3018  -24.3736  -16.7346 N   0  0  0  0  0  0  0  0  0  0  0  0
   25.4989  -20.2109  -10.6509 C   0  0  2  0  0  0  0  0  0  0  0  0
   26.4990  -20.0838   -9.6155 C   0  0  0  0  0  0  0  0  0  0  0  0
   25.9459  -20.1768   -8.2377 S   0  0  0  0  0  0  0  0  0  0  0  0
   26.9242  -19.0921   -7.1583 C   0  0  0  0  0  0  0  0  0  0  0  0
   27.5208  -21.1230   -9.8006 O   0  0  0  0  0  0  0  0  0  0  0  0
   28.8432  -20.8857   -9.5399 O   0  0  0  0  0  0  0  0  0  0  0  0
  1  2  1  0
  3  2  1  0
  4  3  1  0
  5  4  1  0
  5  1  1  0
  6 16  1  0
  5  6  1  1
  7  6  2  0
  9  8  1  0
  9 11  1  0
 10  9  2  0
 12 11  1  0
 13 12  1  0
 14 13  1  0
 15 14  1  6
 15 16  1  0
 17 18  2  0
 17 15  1  0
 19 17  1  0
 20 23  1  0
 20 19  1  0
 20 21  1  1
 22 21  1  0
 23 24  1  0
 25 23  2  0
M  END
$$$$
