PRC.pdb
     RDKit          3D

 25 25  0  0  1  0  0  0  0  0999 V2000
   27.2128  -22.9918  -16.7704 N   0  0  0  0  0  0  0  0  0  0  0  0
   27.6540  -24.2533  -16.2699 C   0  0  0  0  0  0  0  0  0  0  0  0
   26.4553  -25.0493  -15.8533 C   0  0  0  0  0  0  0  0  0  0  0  0
   25.3074  -24.2087  -16.3031 C   0  0  0  0  0  0  0  0  0  0  0  0
   25.8196  -23.0458  -17.0700 C   0  0  1  0  0  0  0  0  0  0  0  0
   25.0892  -21.7871  -16.8157 C   0  0  0  0  0  0  0  0  0  0  0  0
   24.4192  -21.3296  -17.7923 O   0  0  0  0  0  0  0  0  0  0  0  0
   24.8041  -22.5719  -11.7035 N   0  0  0  0  0  0  0  0  0  0  0  0
   24.6008  -21.3471  -10.9601 C   0  0  0  0  0  0  0  0  0  0  0  0
   25.4162  -21.0933  -10.0561 N   0  0  0  0  0  0  0  0  0  0  0  0
   23.5195  -20.4901  -11.2579 N   0  0  0  0  0  0  0  0  0  0  0  0
   22.5284  -20.6730  -12.2394 C   0  0  0  0  0  0  0  0  0  0  0  0
   22.8992  -20.8038  -13.6643 C   0  0  0  0  0  0  0  0  0  0  0  0
   23.9116  -19.7231  -14.0141 C   0  0  0  0  0  0  0  0  0  0  0  0
   24.4145  -19.7906  -15.4026 C   0  0  2  0  0  0  0  0  0  0  0  0
   25.0770  -21.0748  -15.6122 N   0  0  0  0  0  0  0  0  0  0  0  0
   25.4644  -18.7158  -15.5620 C   0  0  0  0  0  0  0  0  0  0  0  0
   26.3579  -18.5841  -14.7238 O   0  0  0  0  0  0  0  0  0  0  0  0
   25.5272  -20.2597   -9.5227 N   0  0  0  0  0  0  0  0  0  0  0  0
   25.3947  -17.8802  -16.6797 C   0  0  1  0  0  0  0  0  0  0  0  0
   26.4780  -17.0488  -17.1526 C   0  0  0  0  0  0  0  0  0  0  0  0
   27.7268  -17.8037  -17.4415 S   0  0  0  0  0  0  0  0  0  0  0  0
   28.9498  -16.6424  -18.1154 C   0  0  0  0  0  0  0  0  0  0  0  0
   26.0480  -16.3380  -18.3644 O   0  0  0  0  0  0  0  0  0  0  0  0
   26.7756  -15.3038  -18.8878 O   0  0  0  0  0  0  0  0  0  0  0  0
  1  2  1  0
  3  2  1  0
  4  3  1  0
  5  4  1  0
  5  1  1  0
  6 16  1  0
  5  6  1  1
  7  6  2  0
  9  8  1  0
  9 11  1  0
 10  9  2  0
 12 11  1  0
 13 12  1  0
 14 13  1  0
 15 14  1  1
 15 16  1  0
 17 18  2  0
 17 15  1  0
 19 17  1  0
 20 23  1  0
 20 19  1  0
 20 21  1  1
 22 21  1  0
 23 24  1  0
 25 23  2  0
M  END
$$$$
