PRC.pdb
     RDKit          3D

 25 25  0  0  1  0  0  0  0  0999 V2000
   28.5850  -19.9699  -17.0636 N   0  0  0  0  0  0  0  0  0  0  0  0
   28.9863  -19.7286  -18.4117 C   0  0  0  0  0  0  0  0  0  0  0  0
   28.5953  -18.3315  -18.7852 C   0  0  0  0  0  0  0  0  0  0  0  0
   28.0918  -17.7578  -17.5031 C   0  0  0  0  0  0  0  0  0  0  0  0
   28.3121  -18.7339  -16.4069 C   0  0  1  0  0  0  0  0  0  0  0  0
   27.2123  -18.7932  -15.4223 C   0  0  0  0  0  0  0  0  0  0  0  0
   26.9475  -17.7057  -14.8231 O   0  0  0  0  0  0  0  0  0  0  0  0
   25.2040  -25.1766  -16.2378 N   0  0  0  0  0  0  0  0  0  0  0  0
   24.1326  -25.4820  -15.3143 C   0  0  0  0  0  0  0  0  0  0  0  0
   24.0065  -26.6699  -14.9686 N   0  0  0  0  0  0  0  0  0  0  0  0
   23.2758  -24.4665  -14.8377 N   0  0  0  0  0  0  0  0  0  0  0  0
   23.3829  -23.0819  -15.0621 C   0  0  0  0  0  0  0  0  0  0  0  0
   24.5007  -22.3116  -14.4771 C   0  0  0  0  0  0  0  0  0  0  0  0
   24.2689  -20.8298  -14.7332 C   0  0  0  0  0  0  0  0  0  0  0  0
   25.3219  -19.9484  -14.1856 C   0  0  2  0  0  0  0  0  0  0  0  0
   26.4563  -19.9260  -15.1046 N   0  0  0  0  0  0  0  0  0  0  0  0
   25.8070  -20.5630  -12.8933 C   0  0  0  0  0  0  0  0  0  0  0  0
   26.6403  -21.4706  -12.9056 O   0  0  0  0  0  0  0  0  0  0  0  0
   23.3358  -27.0812  -14.3580 N   0  0  0  0  0  0  0  0  0  0  0  0
   25.2877  -20.0767  -11.6908 C   0  0  1  0  0  0  0  0  0  0  0  0
   25.6550  -20.5635  -10.3807 C   0  0  0  0  0  0  0  0  0  0  0  0
   26.6077  -19.6766   -9.6605 S   0  0  0  0  0  0  0  0  0  0  0  0
   26.7829  -20.2921   -7.9607 C   0  0  0  0  0  0  0  0  0  0  0  0
   24.4412  -20.7334   -9.5705 O   0  0  0  0  0  0  0  0  0  0  0  0
   24.4220  -21.5388   -8.4642 O   0  0  0  0  0  0  0  0  0  0  0  0
  1  2  1  0
  3  2  1  0
  4  3  1  0
  5  4  1  0
  5  1  1  0
  6 16  1  0
  5  6  1  1
  7  6  2  0
  9  8  1  0
  9 11  1  0
 10  9  2  0
 12 11  1  0
 13 12  1  0
 14 13  1  0
 15 14  1  6
 15 16  1  0
 17 18  2  0
 17 15  1  0
 19 17  1  0
 20 23  1  0
 20 19  1  0
 20 21  1  1
 22 21  1  0
 23 24  1  0
 25 23  2  0
M  END
$$$$
