NTR.pdb
     RDKit          3D

 27 26  0  0  1  0  0  0  0  0999 V2000
   29.9332  -25.0636  -18.3338 N   0  0  0  0  0  0  0  0  0  0  0  0
   29.1183  -25.7476  -17.4067 C   0  0  0  0  0  0  0  0  0  0  0  0
   29.3482  -26.9463  -17.1310 O   0  0  0  0  0  0  0  0  0  0  0  0
   27.9762  -25.0378  -16.7513 C   0  0  0  0  0  0  0  0  0  0  0  0
   27.9667  -23.6033  -17.2368 C   0  0  2  0  0  0  0  0  0  0  0  0
   29.2420  -22.9991  -16.8256 N   0  0  0  0  0  0  0  0  0  0  0  0
   26.9003  -22.8094  -16.5906 C   0  0  0  0  0  0  0  0  0  0  0  0
   27.0867  -22.1584  -15.5043 O   0  0  0  0  0  0  0  0  0  0  0  0
   23.6909  -21.1696  -18.6496 C   0  0  0  0  0  0  0  0  0  0  0  0
   24.1719  -20.7764  -17.2752 C   0  0  1  0  0  0  0  0  0  0  0  0
   23.2270  -19.9597  -16.7038 O   0  0  0  0  0  0  0  0  0  0  0  0
   24.5364  -21.9738  -16.4255 C   0  0  2  0  0  0  0  0  0  0  0  0
   25.5726  -22.7049  -17.1280 N   0  0  0  0  0  0  0  0  0  0  0  0
   23.3538  -22.8316  -16.1518 C   0  0  0  0  0  0  0  0  0  0  0  0
   22.9340  -23.6619  -17.0108 O   0  0  0  0  0  0  0  0  0  0  0  0
   18.1780  -24.3175   -8.8992 N   0  0  0  0  0  0  0  0  0  0  0  0
   17.5746  -25.0092   -9.9825 C   0  0  0  0  0  0  0  0  0  0  0  0
   16.4573  -25.6765   -9.8361 N   0  0  0  0  0  0  0  0  0  0  0  0
   18.1659  -24.9976  -11.2804 N   0  0  0  0  0  0  0  0  0  0  0  0
   19.4281  -24.3901  -11.5067 C   0  0  0  0  0  0  0  0  0  0  0  0
   19.8719  -24.3529  -12.9338 C   0  0  0  0  0  0  0  0  0  0  0  0
   21.1346  -23.6325  -13.2095 C   0  0  0  0  0  0  0  0  0  0  0  0
   21.4130  -23.5710  -14.6927 C   0  0  2  0  0  0  0  0  0  0  0  0
   22.6355  -22.7723  -14.9298 N   0  0  0  0  0  0  0  0  0  0  0  0
   20.3545  -22.9021  -15.4679 C   0  0  0  0  0  0  0  0  0  0  0  0
   20.2751  -21.4967  -15.5595 O   0  0  0  0  0  0  0  0  0  0  0  0
   19.4519  -23.5036  -16.0994 O   0  0  0  0  0  0  0  0  0  0  0  0
  2  1  1  0
  3  2  2  0
  4  2  1  0
  5  4  1  0
  5  6  1  1
  7  5  1  0
  7  8  2  0
 10  9  1  6
 10 12  1  0
 11 10  1  0
 12 13  1  6
 13  7  1  0
 14 12  1  0
 15 14  2  0
 16 17  1  0
 17 18  2  0
 19 17  1  0
 20 19  1  0
 21 20  1  0
 23 22  1  1
 22 21  1  0
 23 24  1  0
 24 14  1  0
 25 23  1  0
 26 25  1  0
 27 25  2  0
M  END
$$$$
