NTR.pdb
     RDKit          3D

 27 26  0  0  1  0  0  0  0  0999 V2000
   30.2971  -18.5045  -19.4421 N   0  0  0  0  0  0  0  0  0  0  0  0
   30.4834  -17.3524  -18.6488 C   0  0  0  0  0  0  0  0  0  0  0  0
   31.5954  -16.7794  -18.6224 O   0  0  0  0  0  0  0  0  0  0  0  0
   29.3481  -16.8142  -17.8367 C   0  0  0  0  0  0  0  0  0  0  0  0
   28.2085  -17.8099  -17.8946 C   0  0  2  0  0  0  0  0  0  0  0  0
   27.5070  -17.5908  -19.1676 N   0  0  0  0  0  0  0  0  0  0  0  0
   27.2161  -17.5751  -16.8246 C   0  0  0  0  0  0  0  0  0  0  0  0
   27.4771  -17.7697  -15.5865 O   0  0  0  0  0  0  0  0  0  0  0  0
   25.5642  -14.5201  -15.7283 C   0  0  0  0  0  0  0  0  0  0  0  0
   24.4601  -15.4946  -16.0541 C   0  0  1  0  0  0  0  0  0  0  0  0
   23.9018  -15.1298  -17.2547 O   0  0  0  0  0  0  0  0  0  0  0  0
   24.9270  -16.9330  -16.0113 C   0  0  2  0  0  0  0  0  0  0  0  0
   25.8825  -17.1111  -17.0869 N   0  0  0  0  0  0  0  0  0  0  0  0
   23.7892  -17.8819  -16.1300 C   0  0  0  0  0  0  0  0  0  0  0  0
   23.5664  -18.5057  -17.2093 O   0  0  0  0  0  0  0  0  0  0  0  0
   25.8423  -22.4038  -11.8316 N   0  0  0  0  0  0  0  0  0  0  0  0
   24.9823  -21.4544  -11.2192 C   0  0  0  0  0  0  0  0  0  0  0  0
   25.1981  -21.0126  -10.0054 N   0  0  0  0  0  0  0  0  0  0  0  0
   23.8465  -20.9399  -11.9117 N   0  0  0  0  0  0  0  0  0  0  0  0
   23.4165  -21.5064  -13.1395 C   0  0  0  0  0  0  0  0  0  0  0  0
   23.4493  -20.5832  -14.3149 C   0  0  0  0  0  0  0  0  0  0  0  0
   22.2010  -20.4793  -15.1025 C   0  0  0  0  0  0  0  0  0  0  0  0
   21.7354  -19.0456  -15.1972 C   0  0  2  0  0  0  0  0  0  0  0  0
   22.8981  -18.1418  -15.0570 N   0  0  0  0  0  0  0  0  0  0  0  0
   20.8049  -18.6520  -14.1257 C   0  0  0  0  0  0  0  0  0  0  0  0
   19.5321  -19.2449  -13.9911 O   0  0  0  0  0  0  0  0  0  0  0  0
   21.0517  -17.7779  -13.2594 O   0  0  0  0  0  0  0  0  0  0  0  0
  2  1  1  0
  3  2  2  0
  4  2  1  0
  5  4  1  0
  5  6  1  6
  7  5  1  0
  7  8  2  0
 10  9  1  6
 10 12  1  0
 11 10  1  0
 12 13  1  6
 13  7  1  0
 14 12  1  0
 15 14  2  0
 16 17  1  0
 17 18  2  0
 19 17  1  0
 20 19  1  0
 21 20  1  0
 23 22  1  1
 22 21  1  0
 23 24  1  0
 24 14  1  0
 25 23  1  0
 26 25  1  0
 27 25  2  0
M  END
$$$$
