NTR.pdb
     RDKit          3D

 27 26  0  0  1  0  0  0  0  0999 V2000
   16.1651  -13.9213  -15.5455 N   0  0  0  0  0  0  0  0  0  0  0  0
   17.5115  -14.0302  -15.1372 C   0  0  0  0  0  0  0  0  0  0  0  0
   18.0390  -15.1567  -15.0020 O   0  0  0  0  0  0  0  0  0  0  0  0
   18.3109  -12.7953  -14.8653 C   0  0  0  0  0  0  0  0  0  0  0  0
   17.3991  -11.5958  -15.0178 C   0  0  2  0  0  0  0  0  0  0  0  0
   17.2216  -11.3678  -16.4590 N   0  0  0  0  0  0  0  0  0  0  0  0
   18.0102  -10.3655  -14.4719 C   0  0  0  0  0  0  0  0  0  0  0  0
   19.2200  -10.0278  -14.7189 O   0  0  0  0  0  0  0  0  0  0  0  0
   19.2272   -8.2015  -15.3636 C   0  0  0  0  0  0  0  0  0  0  0  0
   18.2249   -7.4461  -14.5270 C   0  0  1  0  0  0  0  0  0  0  0  0
   17.1386   -7.1525  -15.3143 O   0  0  0  0  0  0  0  0  0  0  0  0
   17.8722   -8.1748  -13.2491 C   0  0  2  0  0  0  0  0  0  0  0  0
   17.2979   -9.4525  -13.6226 N   0  0  0  0  0  0  0  0  0  0  0  0
   16.9384   -7.3826  -12.4067 C   0  0  0  0  0  0  0  0  0  0  0  0
   15.9323   -7.9222  -11.8588 O   0  0  0  0  0  0  0  0  0  0  0  0
   11.9459   -5.9022   -6.7875 N   0  0  0  0  0  0  0  0  0  0  0  0
   12.7337   -6.7472   -7.6128 C   0  0  0  0  0  0  0  0  0  0  0  0
   12.2942   -7.9096   -8.0262 N   0  0  0  0  0  0  0  0  0  0  0  0
   14.0404   -6.3549   -8.0287 N   0  0  0  0  0  0  0  0  0  0  0  0
   14.2808   -5.0689   -8.5779 C   0  0  0  0  0  0  0  0  0  0  0  0
   15.7068   -4.7769   -8.9192 C   0  0  0  0  0  0  0  0  0  0  0  0
   16.3576   -5.7065   -9.8687 C   0  0  0  0  0  0  0  0  0  0  0  0
   16.2108   -5.2217  -11.2916 C   0  0  2  0  0  0  0  0  0  0  0  0
   17.1161   -5.9952  -12.1694 N   0  0  0  0  0  0  0  0  0  0  0  0
   16.5948   -3.8126  -11.4809 C   0  0  0  0  0  0  0  0  0  0  0  0
   17.8786   -3.4465  -11.9365 O   0  0  0  0  0  0  0  0  0  0  0  0
   15.8372   -2.8366  -11.2603 O   0  0  0  0  0  0  0  0  0  0  0  0
  2  1  1  0
  3  2  2  0
  4  2  1  0
  5  4  1  0
  5  6  1  6
  7  5  1  0
  7  8  2  0
 10  9  1  6
 10 12  1  0
 11 10  1  0
 12 13  1  6
 13  7  1  0
 14 12  1  0
 15 14  2  0
 16 17  1  0
 17 18  2  0
 19 17  1  0
 20 19  1  0
 21 20  1  0
 23 22  1  1
 22 21  1  0
 23 24  1  0
 24 14  1  0
 25 23  1  0
 26 25  1  0
 27 25  2  0
M  END
$$$$
