RDF.pdb
     RDKit          3D

 31 31  0  0  1  0  0  0  0  0999 V2000
    8.7591  -15.6484   16.1865 N   0  0  0  0  0  0  0  0  0  0  0  0
    8.1916  -14.4622   15.6368 C   0  0  0  0  0  0  0  0  0  0  0  0
    7.8494  -14.4092   14.3940 N   0  0  0  0  0  0  0  0  0  0  0  0
    8.0236  -13.3493   16.5133 N   0  0  0  0  0  0  0  0  0  0  0  0
    8.5114  -13.4682   17.8632 C   0  0  0  0  0  0  0  0  0  0  0  0
    7.4330  -14.0452   18.7540 C   0  0  0  0  0  0  0  0  0  0  0  0
    7.1297  -13.1171   19.9200 C   0  0  0  0  0  0  0  0  0  0  0  0
    8.1100  -13.4570   21.0160 C   0  0  2  0  0  0  0  0  0  0  0  0
    9.4271  -13.3808   20.4498 N   0  0  0  0  0  0  0  0  0  0  0  0
    7.8286  -14.7397   21.6902 C   0  0  0  0  0  0  0  0  0  0  0  0
    6.6746  -14.9572   22.1402 O   0  0  0  0  0  0  0  0  0  0  0  0
    7.6663  -13.4753   13.9812 N   0  0  0  0  0  0  0  0  0  0  0  0
    8.7766  -15.7641   21.8722 C   0  0  1  0  0  0  0  0  0  0  0  0
    8.4325  -17.0350   22.5762 C   0  0  0  0  0  0  0  0  0  0  0  0
    9.2948  -18.1254   21.9916 C   0  0  0  0  0  0  0  0  0  0  0  0
    9.0046  -19.4199   22.6151 O   0  0  0  0  0  0  0  0  0  0  0  0
    7.8062  -19.7534   22.9152 C   0  0  0  0  0  0  0  0  0  0  0  0
    8.7858  -16.8460   23.9979 O   0  0  0  0  0  0  0  0  0  0  0  0
    8.4661  -17.7846   24.8041 O   0  0  0  0  0  0  0  0  0  0  0  0
    9.9942  -20.3606   22.9198 N   0  0  0  0  0  0  0  0  0  0  0  0
    9.4334  -15.7887   24.6484 C   0  0  2  0  0  0  0  0  0  0  0  0
    9.6192  -15.6934   26.0682 C   0  0  0  0  0  0  0  0  0  0  0  0
    8.4014  -15.5084   26.8902 C   0  0  0  0  0  0  0  0  0  0  0  0
    7.8603  -14.1364   26.6732 C   0  0  0  0  0  0  0  0  0  0  0  0
    6.5043  -13.8682   26.7072 C   0  0  0  0  0  0  0  0  0  0  0  0
    5.9806  -12.6083   26.4982 C   0  0  0  0  0  0  0  0  0  0  0  0
    6.8262  -11.5527   26.2420 C   0  0  0  0  0  0  0  0  0  0  0  0
    8.1726  -11.7882   26.2018 C   0  0  0  0  0  0  0  0  0  0  0  0
    8.6900  -13.0609   26.4137 C   0  0  0  0  0  0  0  0  0  0  0  0
   10.2720  -16.9748   26.4969 O   0  0  0  0  0  0  0  0  0  0  0  0
   10.7057  -17.0344   27.8202 O   0  0  0  0  0  0  0  0  0  0  0  0
  2  1  1  0
  3  2  2  0
  4  2  1  0
  5  4  1  0
  6  5  1  0
  7  6  1  0
  8  7  1  0
  8  9  1  6
 10  8  1  0
 10 11  2  0
 12 10  1  0
 13 12  1  0
 13 17  1  0
 13 14  1  1
 15 16  2  0
 15 14  1  0
 17 20  1  0
 18 17  2  0
 19 15  1  0
 20 21  1  0
 21 29  1  0
 22 23  1  0
 21 22  1  6
 23 28  2  0
 24 25  2  0
 24 23  1  0
 25 26  1  0
 26 27  2  0
 28 27  1  0
 29 31  2  0
 29 30  1  0
M  END
$$$$
