RDF.pdb
     RDKit          3D

 31 31  0  0  1  0  0  0  0  0999 V2000
   10.9625  -17.1823   20.1609 N   0  0  0  0  0  0  0  0  0  0  0  0
   11.3070  -17.4350   18.8013 C   0  0  0  0  0  0  0  0  0  0  0  0
   11.8174  -18.5665   18.4494 N   0  0  0  0  0  0  0  0  0  0  0  0
   11.0662  -16.3910   17.8594 N   0  0  0  0  0  0  0  0  0  0  0  0
   10.4603  -15.1739   18.3348 C   0  0  0  0  0  0  0  0  0  0  0  0
    9.0152  -15.4261   18.7058 C   0  0  0  0  0  0  0  0  0  0  0  0
    8.7092  -14.9090   20.1029 C   0  0  0  0  0  0  0  0  0  0  0  0
    7.2911  -15.3172   20.4195 C   0  0  2  0  0  0  0  0  0  0  0  0
    6.4318  -14.2569   19.9740 N   0  0  0  0  0  0  0  0  0  0  0  0
    7.0813  -15.6960   21.8307 C   0  0  0  0  0  0  0  0  0  0  0  0
    6.6169  -14.8458   22.6327 O   0  0  0  0  0  0  0  0  0  0  0  0
   12.0227  -18.7134   17.4432 N   0  0  0  0  0  0  0  0  0  0  0  0
    7.3677  -16.9680   22.3609 C   0  0  2  0  0  0  0  0  0  0  0  0
    7.1127  -17.2955   23.7951 C   0  0  0  0  0  0  0  0  0  0  0  0
    6.9537  -18.7916   23.8977 C   0  0  0  0  0  0  0  0  0  0  0  0
    6.7451  -19.2067   25.2880 O   0  0  0  0  0  0  0  0  0  0  0  0
    6.5635  -18.3425   26.2141 C   0  0  0  0  0  0  0  0  0  0  0  0
    8.3139  -16.8818   24.5487 O   0  0  0  0  0  0  0  0  0  0  0  0
    9.4475  -17.2018   24.0531 O   0  0  0  0  0  0  0  0  0  0  0  0
    6.7306  -20.5460   25.6919 N   0  0  0  0  0  0  0  0  0  0  0  0
    8.4434  -16.1745   25.7501 C   0  0  2  0  0  0  0  0  0  0  0  0
    9.6910  -15.8807   26.3955 C   0  0  0  0  0  0  0  0  0  0  0  0
    9.9878  -14.4538   26.6573 C   0  0  0  0  0  0  0  0  0  0  0  0
    8.7501  -13.6460   26.4630 C   0  0  0  0  0  0  0  0  0  0  0  0
    8.7243  -12.2799   26.6748 C   0  0  0  0  0  0  0  0  0  0  0  0
    7.5874  -11.5142   26.5118 C   0  0  0  0  0  0  0  0  0  0  0  0
    6.4119  -12.1143   26.1210 C   0  0  0  0  0  0  0  0  0  0  0  0
    6.4073  -13.4645   25.9046 C   0  0  0  0  0  0  0  0  0  0  0  0
    7.5577  -14.2267   26.0716 C   0  0  0  0  0  0  0  0  0  0  0  0
    9.6630  -16.5935   27.7159 O   0  0  0  0  0  0  0  0  0  0  0  0
    8.5403  -17.3794   27.9697 O   0  0  0  0  0  0  0  0  0  0  0  0
  2  1  1  0
  3  2  2  0
  4  2  1  0
  5  4  1  0
  6  5  1  0
  7  6  1  0
  8  7  1  0
  8  9  1  1
 10  8  1  0
 10 11  2  0
 12 10  1  0
 13 12  1  0
 13 17  1  0
 13 14  1  6
 15 16  2  0
 15 14  1  0
 17 20  1  0
 18 17  2  0
 19 15  1  0
 20 21  1  0
 21 29  1  0
 22 23  1  0
 21 22  1  6
 23 28  2  0
 24 25  2  0
 24 23  1  0
 25 26  1  0
 26 27  2  0
 28 27  1  0
 29 31  2  0
 29 30  1  0
M  END
$$$$
