RDF.pdb
     RDKit          3D

 31 31  0  0  1  0  0  0  0  0999 V2000
    7.5500  -14.5503   14.2753 N   0  0  0  0  0  0  0  0  0  0  0  0
    8.5083  -14.2368   15.2826 C   0  0  0  0  0  0  0  0  0  0  0  0
    9.7339  -14.6241   15.1704 N   0  0  0  0  0  0  0  0  0  0  0  0
    8.0547  -13.4860   16.4076 N   0  0  0  0  0  0  0  0  0  0  0  0
    8.0195  -14.1394   17.6906 C   0  0  0  0  0  0  0  0  0  0  0  0
    7.4589  -13.1988   18.7348 C   0  0  0  0  0  0  0  0  0  0  0  0
    7.1892  -13.9280   20.0420 C   0  0  0  0  0  0  0  0  0  0  0  0
    8.5124  -14.0452   20.7585 C   0  0  2  0  0  0  0  0  0  0  0  0
    9.5355  -14.1314   19.7550 N   0  0  0  0  0  0  0  0  0  0  0  0
    8.5593  -15.1400   21.7475 C   0  0  0  0  0  0  0  0  0  0  0  0
    7.6352  -15.2433   22.5943 O   0  0  0  0  0  0  0  0  0  0  0  0
   10.3514  -14.5236   15.9980 N   0  0  0  0  0  0  0  0  0  0  0  0
    9.5846  -16.1019   21.8170 C   0  0  1  0  0  0  0  0  0  0  0  0
    9.6460  -17.1043   22.9219 C   0  0  0  0  0  0  0  0  0  0  0  0
   10.5453  -18.2262   22.4673 C   0  0  0  0  0  0  0  0  0  0  0  0
   10.6709  -19.2555   23.5034 O   0  0  0  0  0  0  0  0  0  0  0  0
    9.9546  -19.2155   24.5630 C   0  0  0  0  0  0  0  0  0  0  0  0
   10.2625  -16.4267   24.0807 O   0  0  0  0  0  0  0  0  0  0  0  0
   11.3940  -15.8646   23.8886 O   0  0  0  0  0  0  0  0  0  0  0  0
   11.5625  -20.3294   23.4099 N   0  0  0  0  0  0  0  0  0  0  0  0
    9.8167  -16.2794   25.3998 C   0  0  1  0  0  0  0  0  0  0  0  0
   10.5862  -15.6986   26.4627 C   0  0  0  0  0  0  0  0  0  0  0  0
   10.4861  -14.2313   26.6350 C   0  0  0  0  0  0  0  0  0  0  0  0
    9.0501  -13.8317   26.6601 C   0  0  0  0  0  0  0  0  0  0  0  0
    8.0471  -14.6695   26.2089 C   0  0  0  0  0  0  0  0  0  0  0  0
    6.7127  -14.3162   26.2124 C   0  0  0  0  0  0  0  0  0  0  0  0
    6.3368  -13.0780   26.6817 C   0  0  0  0  0  0  0  0  0  0  0  0
    7.3076  -12.2277   27.1340 C   0  0  0  0  0  0  0  0  0  0  0  0
    8.6488  -12.5931   27.1262 C   0  0  0  0  0  0  0  0  0  0  0  0
   10.1100  -16.3433   27.7315 O   0  0  0  0  0  0  0  0  0  0  0  0
   10.7695  -15.9673   28.9004 O   0  0  0  0  0  0  0  0  0  0  0  0
  2  1  1  0
  3  2  2  0
  4  2  1  0
  5  4  1  0
  6  5  1  0
  7  6  1  0
  8  7  1  0
  8  9  1  6
 10  8  1  0
 10 11  2  0
 12 10  1  0
 13 12  1  0
 13 17  1  0
 13 14  1  6
 15 16  2  0
 15 14  1  0
 17 20  1  0
 18 17  2  0
 19 15  1  0
 20 21  1  0
 21 29  1  0
 22 23  1  0
 21 22  1  1
 23 28  2  0
 24 25  2  0
 24 23  1  0
 25 26  1  0
 26 27  2  0
 28 27  1  0
 29 31  2  0
 29 30  1  0
M  END
$$$$
