RDF.pdb
     RDKit          3D

 31 31  0  0  1  0  0  0  0  0999 V2000
    8.8936  -12.3346   17.6115 N   0  0  0  0  0  0  0  0  0  0  0  0
    8.4041  -13.5925   17.1539 C   0  0  0  0  0  0  0  0  0  0  0  0
    8.8427  -14.1116   16.0573 N   0  0  0  0  0  0  0  0  0  0  0  0
    7.4174  -14.2418   17.9538 N   0  0  0  0  0  0  0  0  0  0  0  0
    7.1116  -13.6797   19.2441 C   0  0  0  0  0  0  0  0  0  0  0  0
    8.2891  -13.8567   20.1777 C   0  0  0  0  0  0  0  0  0  0  0  0
    7.8855  -14.6163   21.4320 C   0  0  0  0  0  0  0  0  0  0  0  0
    8.4417  -16.0127   21.2956 C   0  0  2  0  0  0  0  0  0  0  0  0
    7.4552  -16.8007   20.6124 N   0  0  0  0  0  0  0  0  0  0  0  0
    8.8903  -16.6025   22.5723 C   0  0  0  0  0  0  0  0  0  0  0  0
    8.0317  -16.9873   23.4068 O   0  0  0  0  0  0  0  0  0  0  0  0
    8.4976  -15.0543   15.7955 N   0  0  0  0  0  0  0  0  0  0  0  0
   10.2394  -16.7721   22.9363 C   0  0  2  0  0  0  0  0  0  0  0  0
   10.6298  -17.4730   24.1956 C   0  0  0  0  0  0  0  0  0  0  0  0
   11.8827  -18.2609   23.9066 C   0  0  0  0  0  0  0  0  0  0  0  0
   11.5947  -19.4169   23.0525 O   0  0  0  0  0  0  0  0  0  0  0  0
   10.4335  -19.9545   23.0398 C   0  0  0  0  0  0  0  0  0  0  0  0
   10.9335  -16.4256   25.1919 O   0  0  0  0  0  0  0  0  0  0  0  0
   11.7155  -15.4846   24.8232 O   0  0  0  0  0  0  0  0  0  0  0  0
   12.5469  -20.0013   22.2106 N   0  0  0  0  0  0  0  0  0  0  0  0
   10.5035  -16.2673   26.5149 C   0  0  1  0  0  0  0  0  0  0  0  0
   11.0701  -15.3412   27.4534 C   0  0  0  0  0  0  0  0  0  0  0  0
   10.5806  -13.9449   27.3922 C   0  0  0  0  0  0  0  0  0  0  0  0
    9.0900  -13.9406   27.4119 C   0  0  0  0  0  0  0  0  0  0  0  0
    8.3711  -13.3375   28.4274 C   0  0  0  0  0  0  0  0  0  0  0  0
    6.9914  -13.3310   28.4717 C   0  0  0  0  0  0  0  0  0  0  0  0
    6.2745  -13.9465   27.4707 C   0  0  0  0  0  0  0  0  0  0  0  0
    6.9590  -14.5518   26.4534 C   0  0  0  0  0  0  0  0  0  0  0  0
    8.3487  -14.5528   26.4180 C   0  0  0  0  0  0  0  0  0  0  0  0
   10.7573  -15.8778   28.8195 O   0  0  0  0  0  0  0  0  0  0  0  0
   10.1009  -17.1065   28.8650 O   0  0  0  0  0  0  0  0  0  0  0  0
  2  1  1  0
  3  2  2  0
  4  2  1  0
  5  4  1  0
  6  5  1  0
  7  6  1  0
  8  7  1  0
  8  9  1  1
 10  8  1  0
 10 11  2  0
 12 10  1  0
 13 12  1  0
 13 17  1  0
 13 14  1  1
 15 16  2  0
 15 14  1  0
 17 20  1  0
 18 17  2  0
 19 15  1  0
 20 21  1  0
 21 29  1  0
 22 23  1  0
 21 22  1  6
 23 28  2  0
 24 25  2  0
 24 23  1  0
 25 26  1  0
 26 27  2  0
 28 27  1  0
 29 31  2  0
 29 30  1  0
M  END
$$$$
