RDF.pdb
     RDKit          3D

 31 31  0  0  1  0  0  0  0  0999 V2000
    6.8556  -13.6852   19.1350 N   0  0  0  0  0  0  0  0  0  0  0  0
    7.9151  -13.4036   18.2243 C   0  0  0  0  0  0  0  0  0  0  0  0
    8.5086  -12.2581   18.2366 N   0  0  0  0  0  0  0  0  0  0  0  0
    8.2830  -14.4336   17.3084 N   0  0  0  0  0  0  0  0  0  0  0  0
    7.7822  -15.7631   17.5446 C   0  0  0  0  0  0  0  0  0  0  0  0
    8.6278  -16.4562   18.5906 C   0  0  0  0  0  0  0  0  0  0  0  0
    8.6262  -15.6811   19.8991 C   0  0  0  0  0  0  0  0  0  0  0  0
    9.4945  -16.4507   20.8643 C   0  0  2  0  0  0  0  0  0  0  0  0
    9.8024  -17.7113   20.2502 N   0  0  0  0  0  0  0  0  0  0  0  0
    8.9156  -16.5764   22.2164 C   0  0  0  0  0  0  0  0  0  0  0  0
    8.5717  -15.5378   22.8367 O   0  0  0  0  0  0  0  0  0  0  0  0
    9.2769  -12.1031   17.5570 N   0  0  0  0  0  0  0  0  0  0  0  0
    8.7132  -17.8004   22.8812 C   0  0  1  0  0  0  0  0  0  0  0  0
    8.1858  -17.8570   24.2769 C   0  0  0  0  0  0  0  0  0  0  0  0
    7.9686  -19.3090   24.6214 C   0  0  0  0  0  0  0  0  0  0  0  0
    7.4629  -19.4576   25.9892 O   0  0  0  0  0  0  0  0  0  0  0  0
    7.3173  -18.4409   26.7525 C   0  0  0  0  0  0  0  0  0  0  0  0
    9.2362  -17.3014   25.1543 O   0  0  0  0  0  0  0  0  0  0  0  0
   10.4281  -17.2868   24.6935 O   0  0  0  0  0  0  0  0  0  0  0  0
    7.1122  -20.6927   26.5446 N   0  0  0  0  0  0  0  0  0  0  0  0
    9.1626  -16.7652   26.4456 C   0  0  2  0  0  0  0  0  0  0  0  0
   10.2493  -16.1214   27.1266 C   0  0  0  0  0  0  0  0  0  0  0  0
   10.5593  -14.7304   26.7244 C   0  0  0  0  0  0  0  0  0  0  0  0
    9.2997  -13.9344   26.6806 C   0  0  0  0  0  0  0  0  0  0  0  0
    8.9506  -13.0566   27.6903 C   0  0  0  0  0  0  0  0  0  0  0  0
    7.7845  -12.3181   27.6760 C   0  0  0  0  0  0  0  0  0  0  0  0
    6.9117  -12.4430   26.6189 C   0  0  0  0  0  0  0  0  0  0  0  0
    7.2306  -13.3042   25.6057 C   0  0  0  0  0  0  0  0  0  0  0  0
    8.4076  -14.0435   25.6297 C   0  0  0  0  0  0  0  0  0  0  0  0
    9.8880  -16.1083   28.5832 O   0  0  0  0  0  0  0  0  0  0  0  0
   10.8585  -15.6190   29.4557 O   0  0  0  0  0  0  0  0  0  0  0  0
  2  1  1  0
  3  2  2  0
  4  2  1  0
  5  4  1  0
  6  5  1  0
  7  6  1  0
  8  7  1  0
  8  9  1  6
 10  8  1  0
 10 11  2  0
 12 10  1  0
 13 12  1  0
 13 17  1  0
 13 14  1  1
 15 16  2  0
 15 14  1  0
 17 20  1  0
 18 17  2  0
 19 15  1  0
 20 21  1  0
 21 29  1  0
 22 23  1  0
 21 22  1  6
 23 28  2  0
 24 25  2  0
 24 23  1  0
 25 26  1  0
 26 27  2  0
 28 27  1  0
 29 31  2  0
 29 30  1  0
M  END
$$$$
