RDF.pdb
     RDKit          3D

 31 31  0  0  1  0  0  0  0  0999 V2000
    7.8028  -12.3466   20.6667 N   0  0  0  0  0  0  0  0  0  0  0  0
    8.1892  -13.0078   19.4648 C   0  0  0  0  0  0  0  0  0  0  0  0
    9.1178  -12.5206   18.7131 N   0  0  0  0  0  0  0  0  0  0  0  0
    7.5087  -14.2173   19.1345 N   0  0  0  0  0  0  0  0  0  0  0  0
    6.4419  -14.6539   19.9979 C   0  0  0  0  0  0  0  0  0  0  0  0
    6.9814  -15.5978   21.0502 C   0  0  0  0  0  0  0  0  0  0  0  0
    6.8426  -17.0471   20.6102 C   0  0  0  0  0  0  0  0  0  0  0  0
    7.4102  -17.8975   21.7204 C   0  0  2  0  0  0  0  0  0  0  0  0
    6.5484  -17.7450   22.8585 N   0  0  0  0  0  0  0  0  0  0  0  0
    8.8311  -17.6246   22.0128 C   0  0  0  0  0  0  0  0  0  0  0  0
    9.6888  -17.7986   21.1096 O   0  0  0  0  0  0  0  0  0  0  0  0
    9.2674  -12.9566   17.7837 N   0  0  0  0  0  0  0  0  0  0  0  0
    9.3118  -17.1726   23.2562 C   0  0  2  0  0  0  0  0  0  0  0  0
   10.7408  -16.7862   23.4511 C   0  0  0  0  0  0  0  0  0  0  0  0
   11.0465  -15.6736   22.4801 C   0  0  0  0  0  0  0  0  0  0  0  0
   12.2431  -15.9762   21.6894 O   0  0  0  0  0  0  0  0  0  0  0  0
   12.1898  -16.0451   20.4127 C   0  0  0  0  0  0  0  0  0  0  0  0
   10.8611  -16.2734   24.8311 O   0  0  0  0  0  0  0  0  0  0  0  0
   11.0675  -15.0197   24.9673 O   0  0  0  0  0  0  0  0  0  0  0  0
   13.4990  -16.2063   22.2610 N   0  0  0  0  0  0  0  0  0  0  0  0
   10.7851  -16.9332   26.0637 C   0  0  1  0  0  0  0  0  0  0  0  0
    9.9550  -16.5238   27.1603 C   0  0  0  0  0  0  0  0  0  0  0  0
    8.4965  -16.4697   26.9100 C   0  0  0  0  0  0  0  0  0  0  0  0
    8.0926  -15.0615   26.6342 C   0  0  0  0  0  0  0  0  0  0  0  0
    7.1529  -14.7426   25.6714 C   0  0  0  0  0  0  0  0  0  0  0  0
    6.7721  -13.4456   25.3917 C   0  0  0  0  0  0  0  0  0  0  0  0
    7.3391  -12.4033   26.0895 C   0  0  0  0  0  0  0  0  0  0  0  0
    8.2720  -12.6887   27.0477 C   0  0  0  0  0  0  0  0  0  0  0  0
    8.6487  -13.9984   27.3218 C   0  0  0  0  0  0  0  0  0  0  0  0
   10.1948  -17.5112   28.2647 O   0  0  0  0  0  0  0  0  0  0  0  0
   10.8657  -18.6810   27.9124 O   0  0  0  0  0  0  0  0  0  0  0  0
  2  1  1  0
  3  2  2  0
  4  2  1  0
  5  4  1  0
  6  5  1  0
  7  6  1  0
  8  7  1  0
  8  9  1  1
 10  8  1  0
 10 11  2  0
 12 10  1  0
 13 12  1  0
 13 17  1  0
 13 14  1  6
 15 16  2  0
 15 14  1  0
 17 20  1  0
 18 17  2  0
 19 15  1  0
 20 21  1  0
 21 29  1  0
 22 23  1  0
 21 22  1  1
 23 28  2  0
 24 25  2  0
 24 23  1  0
 25 26  1  0
 26 27  2  0
 28 27  1  0
 29 31  2  0
 29 30  1  0
M  END
$$$$
