RDF.pdb
     RDKit          3D

 31 31  0  0  1  0  0  0  0  0999 V2000
    9.2428  -13.9491   18.8126 N   0  0  0  0  0  0  0  0  0  0  0  0
    8.1847  -13.5203   17.9594 C   0  0  0  0  0  0  0  0  0  0  0  0
    8.4221  -12.7568   16.9469 N   0  0  0  0  0  0  0  0  0  0  0  0
    6.8672  -13.9673   18.2743 N   0  0  0  0  0  0  0  0  0  0  0  0
    6.7179  -14.9837   19.2837 C   0  0  0  0  0  0  0  0  0  0  0  0
    6.9959  -14.3994   20.6514 C   0  0  0  0  0  0  0  0  0  0  0  0
    6.2647  -15.1731   21.7376 C   0  0  0  0  0  0  0  0  0  0  0  0
    6.7864  -16.5886   21.6928 C   0  0  2  0  0  0  0  0  0  0  0  0
    6.0634  -17.3418   22.6783 N   0  0  0  0  0  0  0  0  0  0  0  0
    8.2528  -16.6876   21.8303 C   0  0  0  0  0  0  0  0  0  0  0  0
    8.9395  -17.0534   20.8422 O   0  0  0  0  0  0  0  0  0  0  0  0
    7.6099  -12.3863   16.4185 N   0  0  0  0  0  0  0  0  0  0  0  0
    8.9595  -16.3961   23.0123 C   0  0  1  0  0  0  0  0  0  0  0  0
   10.4474  -16.4982   23.0818 C   0  0  0  0  0  0  0  0  0  0  0  0
   11.0168  -15.5059   22.0993 C   0  0  0  0  0  0  0  0  0  0  0  0
   12.4821  -15.5067   22.1367 O   0  0  0  0  0  0  0  0  0  0  0  0
   13.1239  -16.3778   22.8198 C   0  0  0  0  0  0  0  0  0  0  0  0
   10.8399  -16.1063   24.4508 O   0  0  0  0  0  0  0  0  0  0  0  0
   11.2945  -14.9222   24.6066 O   0  0  0  0  0  0  0  0  0  0  0  0
   13.2649  -14.5764   21.4447 N   0  0  0  0  0  0  0  0  0  0  0  0
   10.8012  -16.8199   25.6548 C   0  0  1  0  0  0  0  0  0  0  0  0
    9.9640  -16.4917   26.7732 C   0  0  0  0  0  0  0  0  0  0  0  0
    8.5107  -16.3835   26.5103 C   0  0  0  0  0  0  0  0  0  0  0  0
    8.1158  -14.9461   26.4913 C   0  0  0  0  0  0  0  0  0  0  0  0
    7.0118  -14.4974   25.7902 C   0  0  0  0  0  0  0  0  0  0  0  0
    6.6342  -13.1703   25.7496 C   0  0  0  0  0  0  0  0  0  0  0  0
    7.3743  -12.2301   26.4301 C   0  0  0  0  0  0  0  0  0  0  0  0
    8.4721  -12.6448   27.1320 C   0  0  0  0  0  0  0  0  0  0  0  0
    8.8440  -13.9838   27.1666 C   0  0  0  0  0  0  0  0  0  0  0  0
   10.1672  -17.5786   27.7878 O   0  0  0  0  0  0  0  0  0  0  0  0
   10.9549  -18.6569   27.3884 O   0  0  0  0  0  0  0  0  0  0  0  0
  2  1  1  0
  3  2  2  0
  4  2  1  0
  5  4  1  0
  6  5  1  0
  7  6  1  0
  8  7  1  0
  8  9  1  1
 10  8  1  0
 10 11  2  0
 12 10  1  0
 13 12  1  0
 13 17  1  0
 13 14  1  6
 15 16  2  0
 15 14  1  0
 17 20  1  0
 18 17  2  0
 19 15  1  0
 20 21  1  0
 21 29  1  0
 22 23  1  0
 21 22  1  1
 23 28  2  0
 24 25  2  0
 24 23  1  0
 25 26  1  0
 26 27  2  0
 28 27  1  0
 29 31  2  0
 29 30  1  0
M  END
$$$$
