RDF.pdb
     RDKit          3D

 31 31  0  0  1  0  0  0  0  0999 V2000
    8.7803  -13.6851   15.6655 N   0  0  0  0  0  0  0  0  0  0  0  0
    7.5864  -13.8357   16.4293 C   0  0  0  0  0  0  0  0  0  0  0  0
    6.8907  -12.8059   16.7758 N   0  0  0  0  0  0  0  0  0  0  0  0
    7.2023  -15.1613   16.7901 N   0  0  0  0  0  0  0  0  0  0  0  0
    7.4581  -15.5994   18.1381 C   0  0  0  0  0  0  0  0  0  0  0  0
    6.8779  -14.6080   19.1230 C   0  0  0  0  0  0  0  0  0  0  0  0
    6.7376  -15.2263   20.5055 C   0  0  0  0  0  0  0  0  0  0  0  0
    7.8965  -14.7213   21.3301 C   0  0  2  0  0  0  0  0  0  0  0  0
    8.9355  -14.3375   20.4168 N   0  0  0  0  0  0  0  0  0  0  0  0
    8.3432  -15.6670   22.3717 C   0  0  0  0  0  0  0  0  0  0  0  0
    7.4897  -16.1933   23.1309 O   0  0  0  0  0  0  0  0  0  0  0  0
    6.0039  -12.9704   17.2883 N   0  0  0  0  0  0  0  0  0  0  0  0
    9.6850  -16.0347   22.5856 C   0  0  1  0  0  0  0  0  0  0  0  0
   10.0622  -17.0811   23.5817 C   0  0  0  0  0  0  0  0  0  0  0  0
   11.4410  -17.5743   23.2216 C   0  0  0  0  0  0  0  0  0  0  0  0
   11.8320  -18.7100   24.0617 O   0  0  0  0  0  0  0  0  0  0  0  0
   10.9924  -19.2662   24.8512 C   0  0  0  0  0  0  0  0  0  0  0  0
   10.1125  -16.4181   24.9007 O   0  0  0  0  0  0  0  0  0  0  0  0
   10.8297  -15.3644   24.9925 O   0  0  0  0  0  0  0  0  0  0  0  0
   13.1210  -19.2537   24.0606 N   0  0  0  0  0  0  0  0  0  0  0  0
    9.4932  -16.7429   26.1137 C   0  0  1  0  0  0  0  0  0  0  0  0
    9.7314  -16.0707   27.3590 C   0  0  0  0  0  0  0  0  0  0  0  0
    8.5605  -15.4447   28.0147 C   0  0  0  0  0  0  0  0  0  0  0  0
    8.1556  -14.2297   27.2518 C   0  0  0  0  0  0  0  0  0  0  0  0
    8.9414  -13.0928   27.2111 C   0  0  0  0  0  0  0  0  0  0  0  0
    8.5813  -11.9531   26.5206 C   0  0  0  0  0  0  0  0  0  0  0  0
    7.3895  -11.9212   25.8325 C   0  0  0  0  0  0  0  0  0  0  0  0
    6.5913  -13.0313   25.8552 C   0  0  0  0  0  0  0  0  0  0  0  0
    6.9632  -14.1742   26.5537 C   0  0  0  0  0  0  0  0  0  0  0  0
   10.2863  -17.1019   28.2976 O   0  0  0  0  0  0  0  0  0  0  0  0
   10.6926  -16.6427   29.5492 O   0  0  0  0  0  0  0  0  0  0  0  0
  2  1  1  0
  3  2  2  0
  4  2  1  0
  5  4  1  0
  6  5  1  0
  7  6  1  0
  8  7  1  0
  8  9  1  6
 10  8  1  0
 10 11  2  0
 12 10  1  0
 13 12  1  0
 13 17  1  0
 13 14  1  1
 15 16  2  0
 15 14  1  0
 17 20  1  0
 18 17  2  0
 19 15  1  0
 20 21  1  0
 21 29  1  0
 22 23  1  0
 21 22  1  1
 23 28  2  0
 24 25  2  0
 24 23  1  0
 25 26  1  0
 26 27  2  0
 28 27  1  0
 29 31  2  0
 29 30  1  0
M  END
$$$$
