ANP.pdb
     RDKit          3D

 21 21  0  0  1  0  0  0  0  0999 V2000
   11.4368  -18.3699   16.9220 C   0  0  0  0  0  0  0  0  0  0  0  0
   10.0457  -18.4671   16.3055 C   0  0  2  0  0  0  0  0  0  0  0  0
   10.0817  -18.1283   14.9039 N   0  0  0  0  0  0  0  0  0  0  0  0
    9.1360  -17.5321   17.0386 C   0  0  0  0  0  0  0  0  0  0  0  0
    8.9982  -16.3420   16.6586 O   0  0  0  0  0  0  0  0  0  0  0  0
    5.7688  -18.3461   17.4067 N   0  0  0  0  0  0  0  0  0  0  0  0
    5.6451  -18.4759   18.8226 C   0  0  0  0  0  0  0  0  0  0  0  0
    4.7261  -19.1698   19.3546 O   0  0  0  0  0  0  0  0  0  0  0  0
    6.5941  -17.7988   19.7188 C   0  0  0  0  0  0  0  0  0  0  0  0
    7.6482  -17.0192   18.9378 C   0  0  2  0  0  0  0  0  0  0  0  0
    8.4033  -17.9535   18.1794 N   0  0  0  0  0  0  0  0  0  0  0  0
    8.3810  -16.1521   19.8561 C   0  0  0  0  0  0  0  0  0  0  0  0
    9.5713  -16.5750   20.1110 O   0  0  0  0  0  0  0  0  0  0  0  0
    7.9625  -14.9626   20.4701 N   0  0  0  0  0  0  0  0  0  0  0  0
    6.7223  -14.2356   20.5359 C   0  0  0  0  0  0  0  0  0  0  0  0
    7.2144  -12.8850   19.9914 C   0  0  0  0  0  0  0  0  0  0  0  0
    8.4180  -12.6808   20.9225 C   0  0  0  0  0  0  0  0  0  0  0  0
    8.8291  -14.1018   21.2995 C   0  0  1  0  0  0  0  0  0  0  0  0
    8.6418  -14.3968   22.7207 C   0  0  0  0  0  0  0  0  0  0  0  0
    7.6567  -15.0432   23.1397 O   0  0  0  0  0  0  0  0  0  0  0  0
    9.5779  -13.9496   23.6318 O   0  0  0  0  0  0  0  0  0  0  0  0
  2  4  1  0
  2  1  1  1
  3  2  1  0
  4  5  2  0
  7  6  1  0
  8  7  2  0
  9  7  1  0
 10  9  1  1
 11 10  1  0
 11  4  1  0
 12 14  1  0
 12 10  1  0
 13 12  2  0
 14 18  1  0
 15 16  1  0
 15 14  1  0
 16 17  1  0
 17 18  1  0
 18 19  1  1
 19 20  2  0
 19 21  1  0
M  END
$$$$
