ANP.pdb
     RDKit          3D

 21 21  0  0  1  0  0  0  0  0999 V2000
    2.6246  -19.4408   21.2380 C   0  0  0  0  0  0  0  0  0  0  0  0
    4.0923  -19.0821   21.0336 C   0  0  2  0  0  0  0  0  0  0  0  0
    4.8840  -20.2681   20.8160 N   0  0  0  0  0  0  0  0  0  0  0  0
    4.5761  -18.3552   22.2488 C   0  0  0  0  0  0  0  0  0  0  0  0
    4.0224  -17.2903   22.6219 O   0  0  0  0  0  0  0  0  0  0  0  0
    8.7817  -18.5475   26.4191 N   0  0  0  0  0  0  0  0  0  0  0  0
    7.3749  -18.3720   26.2547 C   0  0  0  0  0  0  0  0  0  0  0  0
    6.6973  -17.6277   27.0267 O   0  0  0  0  0  0  0  0  0  0  0  0
    6.6600  -19.0591   25.1689 C   0  0  0  0  0  0  0  0  0  0  0  0
    6.1807  -18.0793   24.1015 C   0  0  2  0  0  0  0  0  0  0  0  0
    5.6683  -18.8392   23.0160 N   0  0  0  0  0  0  0  0  0  0  0  0
    7.2495  -17.1283   23.8096 C   0  0  0  0  0  0  0  0  0  0  0  0
    8.0205  -17.5115   22.8508 O   0  0  0  0  0  0  0  0  0  0  0  0
    7.5275  -15.8977   24.4223 N   0  0  0  0  0  0  0  0  0  0  0  0
    7.0246  -15.2018   25.5772 C   0  0  0  0  0  0  0  0  0  0  0  0
    6.5904  -13.8962   24.8920 C   0  0  0  0  0  0  0  0  0  0  0  0
    7.8975  -13.5717   24.1548 C   0  0  0  0  0  0  0  0  0  0  0  0
    8.5438  -14.9387   23.9455 C   0  0  1  0  0  0  0  0  0  0  0  0
    9.7958  -15.1024   24.6856 C   0  0  0  0  0  0  0  0  0  0  0  0
    9.8664  -15.7952   25.7243 O   0  0  0  0  0  0  0  0  0  0  0  0
   10.9372  -14.4744   24.2282 O   0  0  0  0  0  0  0  0  0  0  0  0
  2  4  1  0
  2  1  1  1
  3  2  1  0
  4  5  2  0
  7  6  1  0
  8  7  2  0
  9  7  1  0
 10  9  1  1
 11 10  1  0
 11  4  1  0
 12 14  1  0
 12 10  1  0
 13 12  2  0
 14 18  1  0
 15 16  1  0
 15 14  1  0
 16 17  1  0
 17 18  1  0
 18 19  1  1
 19 20  2  0
 19 21  1  0
M  END
$$$$
