ANP.pdb
     RDKit          3D

 21 21  0  0  1  0  0  0  0  0999 V2000
    7.4576  -13.0446   19.2135 C   0  0  0  0  0  0  0  0  0  0  0  0
    8.4987  -13.7350   20.0876 C   0  0  2  0  0  0  0  0  0  0  0  0
    8.8776  -15.0079   19.5246 N   0  0  0  0  0  0  0  0  0  0  0  0
    7.9183  -13.9276   21.4533 C   0  0  0  0  0  0  0  0  0  0  0  0
    7.4802  -12.9481   22.1079 O   0  0  0  0  0  0  0  0  0  0  0  0
    7.4065  -18.0773   25.7516 N   0  0  0  0  0  0  0  0  0  0  0  0
    6.6666  -17.1361   24.9747 C   0  0  0  0  0  0  0  0  0  0  0  0
    5.6658  -16.5161   25.4470 O   0  0  0  0  0  0  0  0  0  0  0  0
    7.0496  -16.8536   23.5833 C   0  0  0  0  0  0  0  0  0  0  0  0
    7.3224  -15.3681   23.3647 C   0  0  2  0  0  0  0  0  0  0  0  0
    7.8430  -15.2128   22.0520 N   0  0  0  0  0  0  0  0  0  0  0  0
    8.1295  -14.8613   24.4709 C   0  0  0  0  0  0  0  0  0  0  0  0
    9.3801  -15.1517   24.3601 O   0  0  0  0  0  0  0  0  0  0  0  0
    7.7244  -14.1266   25.5948 N   0  0  0  0  0  0  0  0  0  0  0  0
    6.4558  -13.7175   26.1372 C   0  0  0  0  0  0  0  0  0  0  0  0
    6.6995  -12.2006   26.1822 C   0  0  0  0  0  0  0  0  0  0  0  0
    8.0350  -12.1996   26.9396 C   0  0  0  0  0  0  0  0  0  0  0  0
    8.6474  -13.5548   26.5953 C   0  0  1  0  0  0  0  0  0  0  0  0
    8.7685  -14.4421   27.7529 C   0  0  0  0  0  0  0  0  0  0  0  0
    8.0175  -15.4291   27.9134 O   0  0  0  0  0  0  0  0  0  0  0  0
    9.7394  -14.1862   28.7007 O   0  0  0  0  0  0  0  0  0  0  0  0
  2  4  1  0
  2  1  1  6
  3  2  1  0
  4  5  2  0
  7  6  1  0
  8  7  2  0
  9  7  1  0
 10  9  1  1
 11 10  1  0
 11  4  1  0
 12 14  1  0
 12 10  1  0
 13 12  2  0
 14 18  1  0
 15 16  1  0
 15 14  1  0
 16 17  1  0
 17 18  1  0
 18 19  1  1
 19 20  2  0
 19 21  1  0
M  END
$$$$
