ANP.pdb
     RDKit          3D

 21 21  0  0  1  0  0  0  0  0999 V2000
    7.3727  -12.9099   19.3209 C   0  0  0  0  0  0  0  0  0  0  0  0
    8.4626  -13.6215   20.1149 C   0  0  2  0  0  0  0  0  0  0  0  0
    8.7917  -14.8893   19.5107 N   0  0  0  0  0  0  0  0  0  0  0  0
    7.9714  -13.8289   21.5131 C   0  0  0  0  0  0  0  0  0  0  0  0
    7.5974  -12.8540   22.2127 O   0  0  0  0  0  0  0  0  0  0  0  0
    7.5037  -17.9500   25.7189 N   0  0  0  0  0  0  0  0  0  0  0  0
    6.6534  -17.1233   24.9249 C   0  0  0  0  0  0  0  0  0  0  0  0
    5.5659  -16.6511   25.3758 O   0  0  0  0  0  0  0  0  0  0  0  0
    7.0197  -16.7899   23.5403 C   0  0  0  0  0  0  0  0  0  0  0  0
    7.3566  -15.3094   23.3877 C   0  0  2  0  0  0  0  0  0  0  0  0
    7.9113  -15.1235   22.0931 N   0  0  0  0  0  0  0  0  0  0  0  0
    8.1592  -14.8805   24.5295 C   0  0  0  0  0  0  0  0  0  0  0  0
    9.4003  -15.2126   24.4296 O   0  0  0  0  0  0  0  0  0  0  0  0
    7.7587  -14.1792   25.6762 N   0  0  0  0  0  0  0  0  0  0  0  0
    6.4916  -13.8387   26.2673 C   0  0  0  0  0  0  0  0  0  0  0  0
    6.6631  -12.3122   26.3236 C   0  0  0  0  0  0  0  0  0  0  0  0
    8.0227  -12.2547   27.0345 C   0  0  0  0  0  0  0  0  0  0  0  0
    8.6874  -13.5745   26.6517 C   0  0  1  0  0  0  0  0  0  0  0  0
    8.8918  -14.4679   27.7927 C   0  0  0  0  0  0  0  0  0  0  0  0
    9.6403  -14.1640   28.7473 O   0  0  0  0  0  0  0  0  0  0  0  0
    8.2412  -15.6855   27.8214 O   0  0  0  0  0  0  0  0  0  0  0  0
  2  4  1  0
  2  1  1  6
  3  2  1  0
  4  5  2  0
  7  6  1  0
  8  7  2  0
  9  7  1  0
 10  9  1  1
 11 10  1  0
 11  4  1  0
 12 14  1  0
 12 10  1  0
 13 12  2  0
 14 18  1  0
 15 16  1  0
 15 14  1  0
 16 17  1  0
 17 18  1  0
 18 19  1  1
 19 20  2  0
 19 21  1  0
M  END
$$$$
