ANP.pdb
     RDKit          3D

 21 21  0  0  1  0  0  0  0  0999 V2000
    7.8838  -12.6132   19.0781 C   0  0  0  0  0  0  0  0  0  0  0  0
    8.8593  -13.4216   19.9263 C   0  0  2  0  0  0  0  0  0  0  0  0
    9.1196  -14.7060   19.3237 N   0  0  0  0  0  0  0  0  0  0  0  0
    8.2662  -13.6018   21.2883 C   0  0  0  0  0  0  0  0  0  0  0  0
    7.8998  -12.6079   21.9649 O   0  0  0  0  0  0  0  0  0  0  0  0
    6.7667  -18.0278   21.2991 N   0  0  0  0  0  0  0  0  0  0  0  0
    6.2774  -17.0235   22.1872 C   0  0  0  0  0  0  0  0  0  0  0  0
    5.1155  -16.5292   22.0658 O   0  0  0  0  0  0  0  0  0  0  0  0
    7.1190  -16.5257   23.2855 C   0  0  0  0  0  0  0  0  0  0  0  0
    7.4518  -15.0462   23.1142 C   0  0  2  0  0  0  0  0  0  0  0  0
    8.0982  -14.8911   21.8587 N   0  0  0  0  0  0  0  0  0  0  0  0
    8.1641  -14.5751   24.2985 C   0  0  0  0  0  0  0  0  0  0  0  0
    9.4445  -14.6747   24.1925 O   0  0  0  0  0  0  0  0  0  0  0  0
    7.6441  -14.0489   25.4901 N   0  0  0  0  0  0  0  0  0  0  0  0
    6.3214  -13.7813   25.9898 C   0  0  0  0  0  0  0  0  0  0  0  0
    6.4860  -12.2838   26.2952 C   0  0  0  0  0  0  0  0  0  0  0  0
    7.7624  -12.3562   27.1452 C   0  0  0  0  0  0  0  0  0  0  0  0
    8.4641  -13.6135   26.6381 C   0  0  1  0  0  0  0  0  0  0  0  0
    8.5463  -14.6723   27.6451 C   0  0  0  0  0  0  0  0  0  0  0  0
    7.7830  -15.6627   27.6300 O   0  0  0  0  0  0  0  0  0  0  0  0
    9.4933  -14.5799   28.6457 O   0  0  0  0  0  0  0  0  0  0  0  0
  2  4  1  0
  2  1  1  6
  3  2  1  0
  4  5  2  0
  7  6  1  0
  8  7  2  0
  9  7  1  0
 10  9  1  1
 11 10  1  0
 11  4  1  0
 12 14  1  0
 12 10  1  0
 13 12  2  0
 14 18  1  0
 15 16  1  0
 15 14  1  0
 16 17  1  0
 17 18  1  0
 18 19  1  1
 19 20  2  0
 19 21  1  0
M  END
$$$$
