ANP.pdb
     RDKit          3D

 21 21  0  0  1  0  0  0  0  0999 V2000
   12.8836  -16.9867   14.9817 C   0  0  0  0  0  0  0  0  0  0  0  0
   11.5394  -17.0582   14.2655 C   0  0  2  0  0  0  0  0  0  0  0  0
   11.6023  -16.3876   12.9900 N   0  0  0  0  0  0  0  0  0  0  0  0
   10.5045  -16.4163   15.1350 C   0  0  0  0  0  0  0  0  0  0  0  0
   10.2504  -15.1898   15.0306 O   0  0  0  0  0  0  0  0  0  0  0  0
    6.7772  -17.1038   19.6022 N   0  0  0  0  0  0  0  0  0  0  0  0
    6.7316  -16.9890   18.1804 C   0  0  0  0  0  0  0  0  0  0  0  0
    5.7860  -16.3877   17.5862 O   0  0  0  0  0  0  0  0  0  0  0  0
    7.7963  -17.5730   17.3511 C   0  0  0  0  0  0  0  0  0  0  0  0
    8.8296  -16.5271   16.9422 C   0  0  2  0  0  0  0  0  0  0  0  0
    9.7797  -17.1643   16.0999 N   0  0  0  0  0  0  0  0  0  0  0  0
    9.3346  -15.8593   18.1385 C   0  0  0  0  0  0  0  0  0  0  0  0
   10.5113  -16.2569   18.4819 O   0  0  0  0  0  0  0  0  0  0  0  0
    8.7184  -14.8772   18.9276 N   0  0  0  0  0  0  0  0  0  0  0  0
    7.4403  -14.2160   18.9113 C   0  0  0  0  0  0  0  0  0  0  0  0
    7.9311  -12.7614   18.8353 C   0  0  0  0  0  0  0  0  0  0  0  0
    8.9095  -12.7814   20.0183 C   0  0  0  0  0  0  0  0  0  0  0  0
    9.3398  -14.2433   20.1073 C   0  0  1  0  0  0  0  0  0  0  0  0
    8.8979  -14.8990   21.3388 C   0  0  0  0  0  0  0  0  0  0  0  0
    7.9348  -15.6964   21.3567 O   0  0  0  0  0  0  0  0  0  0  0  0
    9.5605  -14.6324   22.5205 O   0  0  0  0  0  0  0  0  0  0  0  0
  2  4  1  0
  2  1  1  1
  3  2  1  0
  4  5  2  0
  7  6  1  0
  8  7  2  0
  9  7  1  0
 10  9  1  1
 11 10  1  0
 11  4  1  0
 12 14  1  0
 12 10  1  0
 13 12  2  0
 14 18  1  0
 15 16  1  0
 15 14  1  0
 16 17  1  0
 17 18  1  0
 18 19  1  1
 19 20  2  0
 19 21  1  0
M  END
$$$$
