ANP.pdb
     RDKit          3D

 21 21  0  0  1  0  0  0  0  0999 V2000
    8.4589  -12.6271   19.3568 C   0  0  0  0  0  0  0  0  0  0  0  0
    8.3605  -14.1243   19.6278 C   0  0  2  0  0  0  0  0  0  0  0  0
    7.7499  -14.8075   18.5138 N   0  0  0  0  0  0  0  0  0  0  0  0
    7.5468  -14.3290   20.8669 C   0  0  0  0  0  0  0  0  0  0  0  0
    6.2962  -14.2064   20.8404 O   0  0  0  0  0  0  0  0  0  0  0  0
    8.7090  -17.5136   22.7830 N   0  0  0  0  0  0  0  0  0  0  0  0
    7.7907  -17.0691   23.7810 C   0  0  0  0  0  0  0  0  0  0  0  0
    7.8144  -17.5244   24.9647 O   0  0  0  0  0  0  0  0  0  0  0  0
    6.7755  -16.0546   23.4607 C   0  0  0  0  0  0  0  0  0  0  0  0
    7.3941  -14.6682   23.3051 C   0  0  2  0  0  0  0  0  0  0  0  0
    8.1543  -14.6662   22.1051 N   0  0  0  0  0  0  0  0  0  0  0  0
    8.0877  -14.3118   24.5396 C   0  0  0  0  0  0  0  0  0  0  0  0
    9.3616  -14.4951   24.4758 O   0  0  0  0  0  0  0  0  0  0  0  0
    7.5563  -13.8144   25.7385 N   0  0  0  0  0  0  0  0  0  0  0  0
    6.2303  -13.6687   26.2782 C   0  0  0  0  0  0  0  0  0  0  0  0
    6.2542  -12.1561   26.5506 C   0  0  0  0  0  0  0  0  0  0  0  0
    7.5582  -12.0834   27.3578 C   0  0  0  0  0  0  0  0  0  0  0  0
    8.3652  -13.2754   26.8498 C   0  0  1  0  0  0  0  0  0  0  0  0
    8.5850  -14.2991   27.8724 C   0  0  0  0  0  0  0  0  0  0  0  0
    7.9688  -15.3872   27.8648 O   0  0  0  0  0  0  0  0  0  0  0  0
    9.4992  -14.0614   28.8796 O   0  0  0  0  0  0  0  0  0  0  0  0
  2  4  1  0
  2  1  1  6
  3  2  1  0
  4  5  2  0
  7  6  1  0
  8  7  2  0
  9  7  1  0
 10  9  1  1
 11 10  1  0
 11  4  1  0
 12 14  1  0
 12 10  1  0
 13 12  2  0
 14 18  1  0
 15 16  1  0
 15 14  1  0
 16 17  1  0
 17 18  1  0
 18 19  1  1
 19 20  2  0
 19 21  1  0
M  END
$$$$
