ANP.pdb
     RDKit          3D

 21 21  0  0  1  0  0  0  0  0999 V2000
    7.4440  -12.8720   19.2254 C   0  0  0  0  0  0  0  0  0  0  0  0
    8.5696  -13.3341   20.1441 C   0  0  2  0  0  0  0  0  0  0  0  0
    9.2607  -14.4666   19.5779 N   0  0  0  0  0  0  0  0  0  0  0  0
    7.9794  -13.7004   21.4694 C   0  0  0  0  0  0  0  0  0  0  0  0
    7.3215  -12.8596   22.1328 O   0  0  0  0  0  0  0  0  0  0  0  0
    5.8297  -17.7253   24.9971 N   0  0  0  0  0  0  0  0  0  0  0  0
    7.1547  -17.2387   24.7868 C   0  0  0  0  0  0  0  0  0  0  0  0
    7.9934  -17.1463   25.7340 O   0  0  0  0  0  0  0  0  0  0  0  0
    7.5924  -16.8247   23.4454 C   0  0  0  0  0  0  0  0  0  0  0  0
    7.6332  -15.3052   23.3102 C   0  0  2  0  0  0  0  0  0  0  0  0
    8.1407  -14.9996   22.0189 N   0  0  0  0  0  0  0  0  0  0  0  0
    8.3365  -14.7407   24.4585 C   0  0  0  0  0  0  0  0  0  0  0  0
    9.6185  -14.8218   24.3573 O   0  0  0  0  0  0  0  0  0  0  0  0
    7.8065  -14.1451   25.6124 N   0  0  0  0  0  0  0  0  0  0  0  0
    6.4801  -13.9396   26.1314 C   0  0  0  0  0  0  0  0  0  0  0  0
    6.5246  -12.4111   26.2869 C   0  0  0  0  0  0  0  0  0  0  0  0
    7.8256  -12.2948   27.0938 C   0  0  0  0  0  0  0  0  0  0  0  0
    8.6177  -13.5336   26.6838 C   0  0  1  0  0  0  0  0  0  0  0  0
    8.8177  -14.4785   27.7834 C   0  0  0  0  0  0  0  0  0  0  0  0
    8.1755  -15.5485   27.8634 O   0  0  0  0  0  0  0  0  0  0  0  0
    9.7420  -14.1845   28.7661 O   0  0  0  0  0  0  0  0  0  0  0  0
  2  4  1  0
  2  1  1  6
  3  2  1  0
  4  5  2  0
  7  6  1  0
  8  7  2  0
  9  7  1  0
 10  9  1  1
 11 10  1  0
 11  4  1  0
 12 14  1  0
 12 10  1  0
 13 12  2  0
 14 18  1  0
 15 16  1  0
 15 14  1  0
 16 17  1  0
 17 18  1  0
 18 19  1  1
 19 20  2  0
 19 21  1  0
M  END
$$$$
