EFM.pdb
     RDKit          3D

 29 29  0  0  1  0  0  0  0  0999 V2000
   24.5216  -21.8133  -18.3348 N   0  0  0  0  0  0  0  0  0  0  0  0
   23.3848  -20.9440  -18.1050 C   0  0  1  0  0  0  0  0  0  0  0  0
   22.2594  -21.1977  -19.0491 C   0  0  0  0  0  0  0  0  0  0  0  0
   22.5381  -20.9251  -20.4863 C   0  0  0  0  0  0  0  0  0  0  0  0
   22.5170  -19.4881  -20.8407 C   0  0  0  0  0  0  0  0  0  0  0  0
   22.1034  -18.6013  -20.0448 O   0  0  0  0  0  0  0  0  0  0  0  0
   22.8289  -21.1607  -16.7194 C   0  0  0  0  0  0  0  0  0  0  0  0
   22.8475  -22.3578  -16.3245 O   0  0  0  0  0  0  0  0  0  0  0  0
   22.9524  -19.0191  -22.0758 O   0  0  0  0  0  0  0  0  0  0  0  0
   22.3287  -20.0942  -15.9342 N   0  0  0  0  0  0  0  0  0  0  0  0
   21.9118  -20.3497  -14.5798 C   0  0  1  0  0  0  0  0  0  0  0  0
   22.0760  -19.1569  -13.6998 C   0  0  0  0  0  0  0  0  0  0  0  0
   21.7266  -19.3619  -12.2826 C   0  0  0  0  0  0  0  0  0  0  0  0
   22.6138  -19.9822  -11.3952 C   0  0  0  0  0  0  0  0  0  0  0  0
   22.2843  -20.1867  -10.0703 C   0  0  0  0  0  0  0  0  0  0  0  0
   21.0530  -19.7804   -9.5725 C   0  0  0  0  0  0  0  0  0  0  0  0
   20.1665  -19.1688  -10.4282 C   0  0  0  0  0  0  0  0  0  0  0  0
   20.5157  -18.9738  -11.7503 C   0  0  0  0  0  0  0  0  0  0  0  0
   20.5778  -21.0030  -14.4985 C   0  0  0  0  0  0  0  0  0  0  0  0
   19.6248  -20.5245  -15.1646 O   0  0  0  0  0  0  0  0  0  0  0  0
   20.0751  -27.1436  -13.3496 C   0  0  0  0  0  0  0  0  0  0  0  0
   19.8516  -26.5284  -15.0300 S   0  0  0  0  0  0  0  0  0  0  0  0
   19.4450  -24.7750  -15.0066 C   0  0  0  0  0  0  0  0  0  0  0  0
   19.1354  -24.2337  -13.6668 C   0  0  0  0  0  0  0  0  0  0  0  0
   19.0032  -22.7667  -13.5787 C   0  0  2  0  0  0  0  0  0  0  0  0
   20.3346  -22.1398  -13.7000 N   0  0  0  0  0  0  0  0  0  0  0  0
   18.2827  -22.2710  -12.4335 C   0  0  0  0  0  0  0  0  0  0  0  0
   16.8807  -22.2478  -12.4754 O   0  0  0  0  0  0  0  0  0  0  0  0
   18.7955  -21.8523  -11.3877 O   0  0  0  0  0  0  0  0  0  0  0  0
  2  1  1  6
  2  3  1  0
  3  4  1  0
  5  4  1  0
  6  5  2  0
  7  2  1  0
  7  8  2  0
  9  5  1  0
 10  7  1  0
 11 10  1  0
 11 12  1  1
 12 13  1  0
 13 14  2  0
 13 18  1  0
 14 15  1  0
 15 16  2  0
 17 16  1  0
 18 17  2  0
 19 11  1  0
 20 19  2  0
 22 21  1  0
 22 23  1  0
 24 23  1  0
 25 24  1  1
 25 26  1  0
 26 19  1  0
 27 28  1  0
 27 25  1  0
 29 27  2  0
M  END
$$$$
