EFM.pdb
     RDKit          3D

 29 29  0  0  1  0  0  0  0  0999 V2000
   30.2634  -36.3202    4.4481 N   0  0  0  0  0  0  0  0  0  0  0  0
   30.4706  -34.9794    3.9381 C   0  0  1  0  0  0  0  0  0  0  0  0
   30.1626  -34.8567    2.4848 C   0  0  0  0  0  0  0  0  0  0  0  0
   28.7461  -35.0991    2.0944 C   0  0  0  0  0  0  0  0  0  0  0  0
   28.4800  -34.9113    0.6504 C   0  0  0  0  0  0  0  0  0  0  0  0
   29.3872  -34.6028   -0.1699 O   0  0  0  0  0  0  0  0  0  0  0  0
   29.5639  -34.0023    4.6446 C   0  0  0  0  0  0  0  0  0  0  0  0
   28.5614  -34.5226    5.2046 O   0  0  0  0  0  0  0  0  0  0  0  0
   27.2111  -35.0630    0.1010 O   0  0  0  0  0  0  0  0  0  0  0  0
   29.8297  -32.6120    4.6694 N   0  0  0  0  0  0  0  0  0  0  0  0
   28.9653  -31.7412    5.4231 C   0  0  1  0  0  0  0  0  0  0  0  0
   29.6535  -30.4899    5.8528 C   0  0  0  0  0  0  0  0  0  0  0  0
   28.8499  -29.5796    6.6885 C   0  0  0  0  0  0  0  0  0  0  0  0
   28.2370  -28.4433    6.1475 C   0  0  0  0  0  0  0  0  0  0  0  0
   27.4942  -27.5823    6.9301 C   0  0  0  0  0  0  0  0  0  0  0  0
   27.3304  -27.8181    8.2890 C   0  0  0  0  0  0  0  0  0  0  0  0
   27.9247  -28.9294    8.8404 C   0  0  0  0  0  0  0  0  0  0  0  0
   28.6639  -29.7782    8.0398 C   0  0  0  0  0  0  0  0  0  0  0  0
   27.6445  -31.5316    4.7715 C   0  0  0  0  0  0  0  0  0  0  0  0
   27.5966  -31.4025    3.5218 O   0  0  0  0  0  0  0  0  0  0  0  0
   19.9518  -33.0787    5.1311 C   0  0  0  0  0  0  0  0  0  0  0  0
   21.5781  -33.1716    5.9049 S   0  0  0  0  0  0  0  0  0  0  0  0
   22.7601  -32.1571    5.0028 C   0  0  0  0  0  0  0  0  0  0  0  0
   24.1264  -32.1575    5.5661 C   0  0  0  0  0  0  0  0  0  0  0  0
   25.1172  -31.3265    4.8554 C   0  0  2  0  0  0  0  0  0  0  0  0
   26.4383  -31.4686    5.4996 N   0  0  0  0  0  0  0  0  0  0  0  0
   24.7585  -29.9428    4.6738 C   0  0  0  0  0  0  0  0  0  0  0  0
   24.7956  -29.0841    5.7825 O   0  0  0  0  0  0  0  0  0  0  0  0
   24.4113  -29.4246    3.6048 O   0  0  0  0  0  0  0  0  0  0  0  0
  2  1  1  1
  2  3  1  0
  3  4  1  0
  5  4  1  0
  6  5  2  0
  7  2  1  0
  7  8  2  0
  9  5  1  0
 10  7  1  0
 11 10  1  0
 11 12  1  6
 12 13  1  0
 13 14  2  0
 13 18  1  0
 14 15  1  0
 15 16  2  0
 17 16  1  0
 18 17  2  0
 19 11  1  0
 20 19  2  0
 22 21  1  0
 22 23  1  0
 24 23  1  0
 25 24  1  1
 25 26  1  0
 26 19  1  0
 27 28  1  0
 27 25  1  0
 29 27  2  0
M  END
$$$$
