EFM.pdb
     RDKit          3D

 29 29  0  0  1  0  0  0  0  0999 V2000
   28.0567  -20.3292  -18.8993 N   0  0  0  0  0  0  0  0  0  0  0  0
   27.3136  -19.3524  -18.1283 C   0  0  1  0  0  0  0  0  0  0  0  0
   26.1017  -18.8524  -18.8377 C   0  0  0  0  0  0  0  0  0  0  0  0
   26.3494  -18.0187  -20.0464 C   0  0  0  0  0  0  0  0  0  0  0  0
   26.9844  -16.7134  -19.7566 C   0  0  0  0  0  0  0  0  0  0  0  0
   26.4046  -15.8122  -19.0912 O   0  0  0  0  0  0  0  0  0  0  0  0
   26.8245  -19.9627  -16.8382 C   0  0  0  0  0  0  0  0  0  0  0  0
   26.3319  -21.1173  -16.9540 O   0  0  0  0  0  0  0  0  0  0  0  0
   28.2639  -16.3931  -20.1983 O   0  0  0  0  0  0  0  0  0  0  0  0
   26.9176  -19.2813  -15.6008 N   0  0  0  0  0  0  0  0  0  0  0  0
   26.4132  -19.9111  -14.4082 C   0  0  1  0  0  0  0  0  0  0  0  0
   27.1561  -19.4906  -13.1854 C   0  0  0  0  0  0  0  0  0  0  0  0
   26.6644  -20.0601  -11.9178 C   0  0  0  0  0  0  0  0  0  0  0  0
   25.8067  -19.3392  -11.0787 C   0  0  0  0  0  0  0  0  0  0  0  0
   25.3546  -19.8651   -9.8851 C   0  0  0  0  0  0  0  0  0  0  0  0
   25.7394  -21.1355   -9.4762 C   0  0  0  0  0  0  0  0  0  0  0  0
   26.5820  -21.8606  -10.2865 C   0  0  0  0  0  0  0  0  0  0  0  0
   27.0229  -21.3159  -11.4768 C   0  0  0  0  0  0  0  0  0  0  0  0
   24.9321  -19.8311  -14.2938 C   0  0  0  0  0  0  0  0  0  0  0  0
   24.3721  -18.7123  -14.4186 O   0  0  0  0  0  0  0  0  0  0  0  0
   21.0168  -24.2885  -16.5820 C   0  0  0  0  0  0  0  0  0  0  0  0
   19.9138  -23.6817  -15.2906 S   0  0  0  0  0  0  0  0  0  0  0  0
   20.5911  -22.1943  -14.5360 C   0  0  0  0  0  0  0  0  0  0  0  0
   22.0670  -22.1202  -14.5405 C   0  0  0  0  0  0  0  0  0  0  0  0
   22.6530  -20.8953  -13.9629 C   0  0  2  0  0  0  0  0  0  0  0  0
   24.1257  -20.9616  -14.0473 N   0  0  0  0  0  0  0  0  0  0  0  0
   22.2097  -20.5557  -12.6346 C   0  0  0  0  0  0  0  0  0  0  0  0
   20.9333  -19.9973  -12.4703 O   0  0  0  0  0  0  0  0  0  0  0  0
   22.8642  -20.7137  -11.5961 O   0  0  0  0  0  0  0  0  0  0  0  0
  2  1  1  6
  2  3  1  0
  3  4  1  0
  5  4  1  0
  6  5  2  0
  7  2  1  0
  7  8  2  0
  9  5  1  0
 10  7  1  0
 11 10  1  0
 11 12  1  1
 12 13  1  0
 13 14  2  0
 13 18  1  0
 14 15  1  0
 15 16  2  0
 17 16  1  0
 18 17  2  0
 19 11  1  0
 20 19  2  0
 22 21  1  0
 22 23  1  0
 24 23  1  0
 25 24  1  1
 25 26  1  0
 26 19  1  0
 27 28  1  0
 27 25  1  0
 29 27  2  0
M  END
$$$$
