EFM.pdb
     RDKit          3D

 29 29  0  0  1  0  0  0  0  0999 V2000
   18.5480  -10.6358  -15.3927 N   0  0  0  0  0  0  0  0  0  0  0  0
   18.0222   -9.3025  -15.1771 C   0  0  1  0  0  0  0  0  0  0  0  0
   16.5632   -9.1999  -15.4651 C   0  0  0  0  0  0  0  0  0  0  0  0
   16.1679   -9.3392  -16.8940 C   0  0  0  0  0  0  0  0  0  0  0  0
   16.0325  -10.7421  -17.3464 C   0  0  0  0  0  0  0  0  0  0  0  0
   15.2432  -11.5572  -16.7953 O   0  0  0  0  0  0  0  0  0  0  0  0
   18.1962   -8.8957  -13.7348 C   0  0  0  0  0  0  0  0  0  0  0  0
   18.0339   -9.8268  -12.9005 O   0  0  0  0  0  0  0  0  0  0  0  0
   16.7668  -11.2558  -18.4103 O   0  0  0  0  0  0  0  0  0  0  0  0
   18.5169   -7.5685  -13.3610 N   0  0  0  0  0  0  0  0  0  0  0  0
   18.6886   -7.2493  -11.9674 C   0  0  1  0  0  0  0  0  0  0  0  0
   20.0599   -6.7483  -11.6636 C   0  0  0  0  0  0  0  0  0  0  0  0
   21.1445   -7.7339  -11.8223 C   0  0  0  0  0  0  0  0  0  0  0  0
   21.8658   -7.8383  -13.0173 C   0  0  0  0  0  0  0  0  0  0  0  0
   22.8736   -8.7687  -13.1731 C   0  0  0  0  0  0  0  0  0  0  0  0
   23.2059   -9.6370  -12.1413 C   0  0  0  0  0  0  0  0  0  0  0  0
   22.5090   -9.5509  -10.9585 C   0  0  0  0  0  0  0  0  0  0  0  0
   21.5041   -8.6129  -10.8233 C   0  0  0  0  0  0  0  0  0  0  0  0
   17.5862   -6.4099  -11.4259 C   0  0  0  0  0  0  0  0  0  0  0  0
   17.1573   -5.4504  -12.1160 O   0  0  0  0  0  0  0  0  0  0  0  0
   13.2853   -8.6467   -7.2290 C   0  0  0  0  0  0  0  0  0  0  0  0
   13.0666   -6.9023   -6.8273 S   0  0  0  0  0  0  0  0  0  0  0  0
   14.0625   -5.8776   -7.9220 C   0  0  0  0  0  0  0  0  0  0  0  0
   15.1651   -6.5921   -8.5986 C   0  0  0  0  0  0  0  0  0  0  0  0
   15.8942   -5.8264   -9.6279 C   0  0  2  0  0  0  0  0  0  0  0  0
   17.0007   -6.6439  -10.1644 N   0  0  0  0  0  0  0  0  0  0  0  0
   16.3430   -4.5156   -9.2319 C   0  0  0  0  0  0  0  0  0  0  0  0
   15.4168   -3.4623   -9.2101 O   0  0  0  0  0  0  0  0  0  0  0  0
   17.4985   -4.2214   -8.8999 O   0  0  0  0  0  0  0  0  0  0  0  0
  2  1  1  1
  2  3  1  0
  3  4  1  0
  5  4  1  0
  6  5  2  0
  7  2  1  0
  7  8  2  0
  9  5  1  0
 10  7  1  0
 11 10  1  0
 11 12  1  6
 12 13  1  0
 13 14  2  0
 13 18  1  0
 14 15  1  0
 15 16  2  0
 17 16  1  0
 18 17  2  0
 19 11  1  0
 20 19  2  0
 22 21  1  0
 22 23  1  0
 24 23  1  0
 25 24  1  1
 25 26  1  0
 26 19  1  0
 27 28  1  0
 27 25  1  0
 29 27  2  0
M  END
$$$$
