EFM.pdb
     RDKit          3D

 29 29  0  0  1  0  0  0  0  0999 V2000
   25.0494  -22.0207  -15.2923 N   0  0  0  0  0  0  0  0  0  0  0  0
   24.4150  -21.2192  -14.2648 C   0  0  1  0  0  0  0  0  0  0  0  0
   22.9786  -21.5634  -14.0638 C   0  0  0  0  0  0  0  0  0  0  0  0
   22.0003  -20.7813  -14.8692 C   0  0  0  0  0  0  0  0  0  0  0  0
   22.0683  -21.0492  -16.3235 C   0  0  0  0  0  0  0  0  0  0  0  0
   21.6808  -22.1377  -16.8294 O   0  0  0  0  0  0  0  0  0  0  0  0
   25.0908  -21.4394  -12.9341 C   0  0  0  0  0  0  0  0  0  0  0  0
   25.3141  -22.6470  -12.6490 O   0  0  0  0  0  0  0  0  0  0  0  0
   22.5638  -20.1178  -17.2301 O   0  0  0  0  0  0  0  0  0  0  0  0
   25.4418  -20.3651  -12.0817 N   0  0  0  0  0  0  0  0  0  0  0  0
   26.1507  -20.6371  -10.8581 C   0  0  1  0  0  0  0  0  0  0  0  0
   27.2736  -19.6832  -10.6276 C   0  0  0  0  0  0  0  0  0  0  0  0
   28.0771  -19.9308   -9.4168 C   0  0  0  0  0  0  0  0  0  0  0  0
   27.8565  -19.2125   -8.2358 C   0  0  0  0  0  0  0  0  0  0  0  0
   28.6156  -19.4336   -7.1042 C   0  0  0  0  0  0  0  0  0  0  0  0
   29.6297  -20.3827   -7.1019 C   0  0  0  0  0  0  0  0  0  0  0  0
   29.8628  -21.0994   -8.2526 C   0  0  0  0  0  0  0  0  0  0  0  0
   29.0918  -20.8628   -9.3739 C   0  0  0  0  0  0  0  0  0  0  0  0
   25.2442  -20.8230   -9.6933 C   0  0  0  0  0  0  0  0  0  0  0  0
   24.2465  -20.0675   -9.5726 O   0  0  0  0  0  0  0  0  0  0  0  0
   28.0087  -21.0883   -4.1684 C   0  0  0  0  0  0  0  0  0  0  0  0
   26.3436  -20.5054   -3.7939 S   0  0  0  0  0  0  0  0  0  0  0  0
   25.1731  -21.1286   -5.0111 C   0  0  0  0  0  0  0  0  0  0  0  0
   25.7114  -21.2354   -6.3832 C   0  0  0  0  0  0  0  0  0  0  0  0
   24.7943  -21.7962   -7.3940 C   0  0  2  0  0  0  0  0  0  0  0  0
   25.4589  -21.8135   -8.7126 N   0  0  0  0  0  0  0  0  0  0  0  0
   23.4902  -21.1871   -7.4621 C   0  0  0  0  0  0  0  0  0  0  0  0
   22.4813  -21.6530   -6.6060 O   0  0  0  0  0  0  0  0  0  0  0  0
   23.1654  -20.2672   -8.2239 O   0  0  0  0  0  0  0  0  0  0  0  0
  2  1  1  6
  2  3  1  0
  3  4  1  0
  5  4  1  0
  6  5  2  0
  7  2  1  0
  7  8  2  0
  9  5  1  0
 10  7  1  0
 11 10  1  0
 11 12  1  1
 12 13  1  0
 13 14  2  0
 13 18  1  0
 14 15  1  0
 15 16  2  0
 17 16  1  0
 18 17  2  0
 19 11  1  0
 20 19  2  0
 22 21  1  0
 22 23  1  0
 24 23  1  0
 25 24  1  1
 25 26  1  0
 26 19  1  0
 27 28  1  0
 27 25  1  0
 29 27  2  0
M  END
$$$$
