EFM.pdb
     RDKit          3D

 29 29  0  0  1  0  0  0  0  0999 V2000
   27.9149  -22.9029  -17.7748 N   0  0  0  0  0  0  0  0  0  0  0  0
   27.9474  -21.6511  -17.0449 C   0  0  1  0  0  0  0  0  0  0  0  0
   27.4773  -20.4929  -17.8570 C   0  0  0  0  0  0  0  0  0  0  0  0
   26.5713  -20.8166  -18.9936 C   0  0  0  0  0  0  0  0  0  0  0  0
   25.1443  -20.9206  -18.6142 C   0  0  0  0  0  0  0  0  0  0  0  0
   24.5061  -19.9556  -18.1118 O   0  0  0  0  0  0  0  0  0  0  0  0
   27.0381  -21.7195  -15.8431 C   0  0  0  0  0  0  0  0  0  0  0  0
   26.1777  -22.6399  -15.8841 O   0  0  0  0  0  0  0  0  0  0  0  0
   24.4110  -22.0900  -18.7870 O   0  0  0  0  0  0  0  0  0  0  0  0
   27.1528  -20.8145  -14.7605 N   0  0  0  0  0  0  0  0  0  0  0  0
   26.3042  -20.9800  -13.6090 C   0  0  1  0  0  0  0  0  0  0  0  0
   26.8464  -20.2956  -12.4001 C   0  0  0  0  0  0  0  0  0  0  0  0
   26.0006  -20.3726  -11.1952 C   0  0  0  0  0  0  0  0  0  0  0  0
   24.8724  -19.5582  -11.0430 C   0  0  0  0  0  0  0  0  0  0  0  0
   24.0857  -19.6194   -9.9104 C   0  0  0  0  0  0  0  0  0  0  0  0
   24.3911  -20.4975   -8.8785 C   0  0  0  0  0  0  0  0  0  0  0  0
   25.4959  -21.3067   -9.0083 C   0  0  0  0  0  0  0  0  0  0  0  0
   26.2698  -21.2297  -10.1498 C   0  0  0  0  0  0  0  0  0  0  0  0
   24.8738  -20.6906  -13.8979 C   0  0  0  0  0  0  0  0  0  0  0  0
   24.5819  -19.6509  -14.5419 O   0  0  0  0  0  0  0  0  0  0  0  0
   18.0131  -22.2610  -16.6859 C   0  0  0  0  0  0  0  0  0  0  0  0
   19.6368  -22.8676  -16.1877 S   0  0  0  0  0  0  0  0  0  0  0  0
   20.3605  -21.7780  -14.9512 C   0  0  0  0  0  0  0  0  0  0  0  0
   21.7765  -22.0605  -14.6363 C   0  0  0  0  0  0  0  0  0  0  0  0
   22.4000  -21.1834  -13.6267 C   0  0  2  0  0  0  0  0  0  0  0  0
   23.8262  -21.5352  -13.4758 N   0  0  0  0  0  0  0  0  0  0  0  0
   21.7290  -21.1195  -12.3531 C   0  0  0  0  0  0  0  0  0  0  0  0
   20.6449  -20.2418  -12.2038 O   0  0  0  0  0  0  0  0  0  0  0  0
   22.0247  -21.7826  -11.3508 O   0  0  0  0  0  0  0  0  0  0  0  0
  2  1  1  6
  2  3  1  0
  3  4  1  0
  5  4  1  0
  6  5  2  0
  7  2  1  0
  7  8  2  0
  9  5  1  0
 10  7  1  0
 11 10  1  0
 11 12  1  1
 12 13  1  0
 13 14  2  0
 13 18  1  0
 14 15  1  0
 15 16  2  0
 17 16  1  0
 18 17  2  0
 19 11  1  0
 20 19  2  0
 22 21  1  0
 22 23  1  0
 24 23  1  0
 25 24  1  6
 25 26  1  0
 26 19  1  0
 27 28  1  0
 27 25  1  0
 29 27  2  0
M  END
$$$$
