VTE.pdb
     RDKit          3D

 24 23  0  0  1  0  0  0  0  0999 V2000
   17.5852  -15.1164  -18.2504 C   0  0  0  0  0  0  0  0  0  0  0  0
   18.2182  -14.2400  -17.1898 C   0  0  2  0  0  0  0  0  0  0  0  0
   18.1553  -12.8147  -17.6948 C   0  0  0  0  0  0  0  0  0  0  0  0
   19.6774  -14.6806  -17.0184 C   0  0  2  0  0  0  0  0  0  0  0  0
   19.7282  -16.0270  -16.5406 N   0  0  0  0  0  0  0  0  0  0  0  0
   20.4096  -13.7293  -16.1446 C   0  0  0  0  0  0  0  0  0  0  0  0
   20.2754  -13.7995  -14.8958 O   0  0  0  0  0  0  0  0  0  0  0  0
   24.1393  -10.7298  -15.1452 C   0  0  0  0  0  0  0  0  0  0  0  0
   23.4330  -11.7687  -15.9853 C   0  0  1  0  0  0  0  0  0  0  0  0
   23.9012  -13.0114  -15.5805 O   0  0  0  0  0  0  0  0  0  0  0  0
   21.9502  -11.7505  -15.8094 C   0  0  2  0  0  0  0  0  0  0  0  0
   21.2670  -12.7265  -16.6265 N   0  0  0  0  0  0  0  0  0  0  0  0
   21.4018  -10.4244  -16.1310 C   0  0  0  0  0  0  0  0  0  0  0  0
   20.6339  -10.2877  -17.1552 O   0  0  0  0  0  0  0  0  0  0  0  0
   21.6293   -9.2323  -15.4139 N   0  0  0  0  0  0  0  0  0  0  0  0
   20.9233   -7.9696  -15.6827 C   0  0  1  0  0  0  0  0  0  0  0  0
   19.4462   -8.2377  -15.5387 C   0  0  0  0  0  0  0  0  0  0  0  0
   18.5943   -7.0017  -15.6843 C   0  0  0  0  0  0  0  0  0  0  0  0
   17.1514   -7.3621  -15.5074 C   0  0  0  0  0  0  0  0  0  0  0  0
   16.4658   -6.9245  -14.5505 O   0  0  0  0  0  0  0  0  0  0  0  0
   21.4225   -6.8904  -14.8383 C   0  0  0  0  0  0  0  0  0  0  0  0
   22.0654   -7.1137  -13.7930 O   0  0  0  0  0  0  0  0  0  0  0  0
   16.5298   -8.2009  -16.4114 O   0  0  0  0  0  0  0  0  0  0  0  0
   21.1855   -5.5726  -15.1912 O   0  0  0  0  0  0  0  0  0  0  0  0
  2  1  1  6
  2  3  1  0
  4  2  1  0
  4  6  1  0
  4  5  1  1
  6 12  1  0
  7  6  2  0
  9 11  1  0
  9  8  1  1
 10  9  1  0
 11 12  1  6
 13 14  2  0
 13 11  1  0
 15 13  1  0
 16 15  1  0
 16 21  1  0
 16 17  1  1
 18 17  1  0
 19 18  1  0
 20 19  2  0
 21 24  1  0
 22 21  2  0
 23 19  1  0
M  END
$$$$
