VTE.pdb
     RDKit          3D

 24 23  0  0  1  0  0  0  0  0999 V2000
   19.6147  -12.7777  -16.8169 C   0  0  0  0  0  0  0  0  0  0  0  0
   18.2025  -12.2861  -16.5771 C   0  0  2  0  0  0  0  0  0  0  0  0
   17.3416  -12.8466  -17.6885 C   0  0  0  0  0  0  0  0  0  0  0  0
   18.2168  -10.7534  -16.6355 C   0  0  2  0  0  0  0  0  0  0  0  0
   18.4846  -10.3179  -17.9706 N   0  0  0  0  0  0  0  0  0  0  0  0
   19.1762  -10.2032  -15.6448 C   0  0  0  0  0  0  0  0  0  0  0  0
   19.0156  -10.4444  -14.4206 O   0  0  0  0  0  0  0  0  0  0  0  0
   22.6223  -10.8737  -14.7467 C   0  0  0  0  0  0  0  0  0  0  0  0
   22.5824   -9.4123  -15.1296 C   0  0  1  0  0  0  0  0  0  0  0  0
   23.0124   -9.3212  -16.4465 O   0  0  0  0  0  0  0  0  0  0  0  0
   21.2118   -8.8252  -15.0462 C   0  0  2  0  0  0  0  0  0  0  0  0
   20.2832   -9.4090  -15.9862 N   0  0  0  0  0  0  0  0  0  0  0  0
   21.2491   -7.3746  -15.2851 C   0  0  0  0  0  0  0  0  0  0  0  0
   20.7390   -6.8973  -16.3665 O   0  0  0  0  0  0  0  0  0  0  0  0
   21.8026   -6.4028  -14.4272 N   0  0  0  0  0  0  0  0  0  0  0  0
   21.6048   -4.9546  -14.5974 C   0  0  1  0  0  0  0  0  0  0  0  0
   20.1190   -4.7061  -14.6671 C   0  0  0  0  0  0  0  0  0  0  0  0
   19.7584   -3.2453  -14.7706 C   0  0  0  0  0  0  0  0  0  0  0  0
   18.2686   -3.0974  -14.8173 C   0  0  0  0  0  0  0  0  0  0  0  0
   17.5764   -2.9742  -13.7767 O   0  0  0  0  0  0  0  0  0  0  0  0
   22.2918   -4.1975  -13.5574 C   0  0  0  0  0  0  0  0  0  0  0  0
   22.5146   -4.6792  -12.4285 O   0  0  0  0  0  0  0  0  0  0  0  0
   17.6095   -3.0932  -16.0308 O   0  0  0  0  0  0  0  0  0  0  0  0
   22.7166   -2.9045  -13.8119 O   0  0  0  0  0  0  0  0  0  0  0  0
  2  1  1  6
  2  3  1  0
  4  2  1  0
  4  6  1  0
  4  5  1  6
  6 12  1  0
  7  6  2  0
  9 11  1  0
  9  8  1  6
 10  9  1  0
 11 12  1  6
 13 14  2  0
 13 11  1  0
 15 13  1  0
 16 15  1  0
 16 21  1  0
 16 17  1  1
 18 17  1  0
 19 18  1  0
 20 19  2  0
 21 24  1  0
 22 21  2  0
 23 19  1  0
M  END
$$$$
