VTE.pdb
     RDKit          3D

 24 23  0  0  1  0  0  0  0  0999 V2000
   20.1283  -16.3185  -17.5015 C   0  0  0  0  0  0  0  0  0  0  0  0
   19.9151  -14.8365  -17.7289 C   0  0  2  0  0  0  0  0  0  0  0  0
   20.8611  -14.1037  -16.8022 C   0  0  0  0  0  0  0  0  0  0  0  0
   18.4597  -14.5061  -17.3746 C   0  0  2  0  0  0  0  0  0  0  0  0
   17.5734  -15.1856  -18.2670 N   0  0  0  0  0  0  0  0  0  0  0  0
   18.2483  -13.0365  -17.3579 C   0  0  0  0  0  0  0  0  0  0  0  0
   18.4482  -12.3657  -18.4032 O   0  0  0  0  0  0  0  0  0  0  0  0
   15.7544   -9.1608  -15.8550 C   0  0  0  0  0  0  0  0  0  0  0  0
   16.0610  -10.6343  -15.9931 C   0  0  1  0  0  0  0  0  0  0  0  0
   15.3706  -11.0946  -17.1061 O   0  0  0  0  0  0  0  0  0  0  0  0
   17.5139  -10.9103  -16.2000 C   0  0  2  0  0  0  0  0  0  0  0  0
   17.8287  -12.3199  -16.2251 N   0  0  0  0  0  0  0  0  0  0  0  0
   18.3209  -10.2829  -15.1426 C   0  0  0  0  0  0  0  0  0  0  0  0
   18.4602  -10.8826  -14.0120 O   0  0  0  0  0  0  0  0  0  0  0  0
   18.9907   -9.0456  -15.2290 N   0  0  0  0  0  0  0  0  0  0  0  0
   19.7061   -8.4234  -14.1037 C   0  0  1  0  0  0  0  0  0  0  0  0
   20.6664   -7.4139  -14.6808 C   0  0  0  0  0  0  0  0  0  0  0  0
   21.4790   -6.6916  -13.6355 C   0  0  0  0  0  0  0  0  0  0  0  0
   22.3506   -5.6678  -14.2952 C   0  0  0  0  0  0  0  0  0  0  0  0
   23.0287   -5.9278  -15.3199 O   0  0  0  0  0  0  0  0  0  0  0  0
   18.7786   -7.8756  -13.1207 C   0  0  0  0  0  0  0  0  0  0  0  0
   17.7545   -7.2481  -13.4576 O   0  0  0  0  0  0  0  0  0  0  0  0
   22.4297   -4.3886  -13.7808 O   0  0  0  0  0  0  0  0  0  0  0  0
   19.0252   -8.0469  -11.7690 O   0  0  0  0  0  0  0  0  0  0  0  0
  2  1  1  1
  2  3  1  0
  4  2  1  0
  4  6  1  0
  4  5  1  6
  6 12  1  0
  7  6  2  0
  9 11  1  0
  9  8  1  6
 10  9  1  0
 11 12  1  1
 13 14  2  0
 13 11  1  0
 15 13  1  0
 16 15  1  0
 16 21  1  0
 16 17  1  6
 18 17  1  0
 19 18  1  0
 20 19  2  0
 21 24  1  0
 22 21  2  0
 23 19  1  0
M  END
$$$$
