VTE.pdb
     RDKit          3D

 24 23  0  0  1  0  0  0  0  0999 V2000
   14.2856   -8.5675  -15.3889 C   0  0  0  0  0  0  0  0  0  0  0  0
   15.6302   -8.1022  -14.8702 C   0  0  2  0  0  0  0  0  0  0  0  0
   16.3634   -7.4740  -16.0357 C   0  0  0  0  0  0  0  0  0  0  0  0
   16.3937   -9.3309  -14.3603 C   0  0  2  0  0  0  0  0  0  0  0  0
   15.7147   -9.8963  -13.2365 N   0  0  0  0  0  0  0  0  0  0  0  0
   17.8064   -8.9812  -14.0660 C   0  0  0  0  0  0  0  0  0  0  0  0
   18.0891   -8.3681  -13.0045 O   0  0  0  0  0  0  0  0  0  0  0  0
   22.6570   -9.2187  -15.3171 C   0  0  0  0  0  0  0  0  0  0  0  0
   21.2396   -9.7291  -15.4367 C   0  0  1  0  0  0  0  0  0  0  0  0
   21.2113  -10.9977  -14.8734 O   0  0  0  0  0  0  0  0  0  0  0  0
   20.2502   -8.8766  -14.7125 C   0  0  2  0  0  0  0  0  0  0  0  0
   18.8822   -9.2951  -14.9128 N   0  0  0  0  0  0  0  0  0  0  0  0
   20.3625   -7.4722  -15.1345 C   0  0  0  0  0  0  0  0  0  0  0  0
   20.0235   -7.1414  -16.3316 O   0  0  0  0  0  0  0  0  0  0  0  0
   20.8177   -6.3982  -14.3431 N   0  0  0  0  0  0  0  0  0  0  0  0
   20.9665   -5.0217  -14.8414 C   0  0  1  0  0  0  0  0  0  0  0  0
   19.7588   -4.2423  -14.3851 C   0  0  0  0  0  0  0  0  0  0  0  0
   19.7912   -2.7907  -14.7930 C   0  0  0  0  0  0  0  0  0  0  0  0
   18.5322   -2.1145  -14.3447 C   0  0  0  0  0  0  0  0  0  0  0  0
   17.6344   -2.7246  -13.7130 O   0  0  0  0  0  0  0  0  0  0  0  0
   22.2423   -4.4436  -14.4354 C   0  0  0  0  0  0  0  0  0  0  0  0
   22.8546   -4.8404  -13.4236 O   0  0  0  0  0  0  0  0  0  0  0  0
   18.3263   -0.7773  -14.6218 O   0  0  0  0  0  0  0  0  0  0  0  0
   22.8063   -3.4232  -15.1825 O   0  0  0  0  0  0  0  0  0  0  0  0
  2  1  1  6
  2  3  1  0
  4  2  1  0
  4  6  1  0
  4  5  1  1
  6 12  1  0
  7  6  2  0
  9 11  1  0
  9  8  1  1
 10  9  1  0
 11 12  1  6
 13 14  2  0
 13 11  1  0
 15 13  1  0
 16 15  1  0
 16 21  1  0
 16 17  1  1
 18 17  1  0
 19 18  1  0
 20 19  2  0
 21 24  1  0
 22 21  2  0
 23 19  1  0
M  END
$$$$
