VTE.pdb
     RDKit          3D

 24 23  0  0  1  0  0  0  0  0999 V2000
   25.2906  -12.0813  -17.5138 C   0  0  0  0  0  0  0  0  0  0  0  0
   24.8272  -12.5151  -16.1389 C   0  0  2  0  0  0  0  0  0  0  0  0
   25.6578  -13.7186  -15.7487 C   0  0  0  0  0  0  0  0  0  0  0  0
   23.3454  -12.8992  -16.2362 C   0  0  2  0  0  0  0  0  0  0  0  0
   23.1895  -14.0304  -17.0964 N   0  0  0  0  0  0  0  0  0  0  0  0
   22.5317  -11.7326  -16.6625 C   0  0  0  0  0  0  0  0  0  0  0  0
   22.1868  -11.6194  -17.8670 O   0  0  0  0  0  0  0  0  0  0  0  0
   19.2438  -10.9339  -16.6136 C   0  0  0  0  0  0  0  0  0  0  0  0
   19.8489   -9.7597  -15.8793 C   0  0  1  0  0  0  0  0  0  0  0  0
   19.7071  -10.0079  -14.5208 O   0  0  0  0  0  0  0  0  0  0  0  0
   21.3023   -9.5771  -16.1695 C   0  0  2  0  0  0  0  0  0  0  0  0
   22.1067  -10.7159  -15.7916 N   0  0  0  0  0  0  0  0  0  0  0  0
   21.8304   -8.3955  -15.4711 C   0  0  0  0  0  0  0  0  0  0  0  0
   22.5287   -8.5516  -14.4009 O   0  0  0  0  0  0  0  0  0  0  0  0
   21.6532   -7.0513  -15.8567 N   0  0  0  0  0  0  0  0  0  0  0  0
   22.1527   -5.9057  -15.0798 C   0  0  1  0  0  0  0  0  0  0  0  0
   22.0512   -4.6844  -15.9587 C   0  0  0  0  0  0  0  0  0  0  0  0
   22.4535   -3.4083  -15.2628 C   0  0  0  0  0  0  0  0  0  0  0  0
   21.8354   -2.2375  -15.9632 C   0  0  0  0  0  0  0  0  0  0  0  0
   22.0078   -2.0248  -17.1889 O   0  0  0  0  0  0  0  0  0  0  0  0
   21.4588   -5.7854  -13.8028 C   0  0  0  0  0  0  0  0  0  0  0  0
   22.0036   -5.2809  -12.8005 O   0  0  0  0  0  0  0  0  0  0  0  0
   21.0459   -1.3473  -15.2621 O   0  0  0  0  0  0  0  0  0  0  0  0
   20.1562   -6.2389  -13.6800 O   0  0  0  0  0  0  0  0  0  0  0  0
  2  1  1  6
  2  3  1  0
  4  2  1  0
  4  6  1  0
  4  5  1  6
  6 12  1  0
  7  6  2  0
  9 11  1  0
  9  8  1  6
 10  9  1  0
 11 12  1  1
 13 14  2  0
 13 11  1  0
 15 13  1  0
 16 15  1  0
 16 21  1  0
 16 17  1  6
 18 17  1  0
 19 18  1  0
 20 19  2  0
 21 24  1  0
 22 21  2  0
 23 19  1  0
M  END
$$$$
