VTE.pdb
     RDKit          3D

 24 23  0  0  1  0  0  0  0  0999 V2000
   17.1319   -9.4429  -16.8383 C   0  0  0  0  0  0  0  0  0  0  0  0
   17.8019  -10.2778  -17.9096 C   0  0  2  0  0  0  0  0  0  0  0  0
   16.7165  -10.7384  -18.8583 C   0  0  0  0  0  0  0  0  0  0  0  0
   18.4615  -11.4836  -17.2288 C   0  0  2  0  0  0  0  0  0  0  0  0
   17.4627  -12.3155  -16.6339 N   0  0  0  0  0  0  0  0  0  0  0  0
   19.4925  -11.0349  -16.2590 C   0  0  0  0  0  0  0  0  0  0  0  0
   19.2586  -11.1011  -15.0247 O   0  0  0  0  0  0  0  0  0  0  0  0
   24.1664  -10.2553  -14.9991 C   0  0  0  0  0  0  0  0  0  0  0  0
   23.0797  -10.7764  -15.9110 C   0  0  1  0  0  0  0  0  0  0  0  0
   22.9037  -12.1209  -15.6131 O   0  0  0  0  0  0  0  0  0  0  0  0
   21.7723  -10.0818  -15.7157 C   0  0  2  0  0  0  0  0  0  0  0  0
   20.7477  -10.5265  -16.6318 N   0  0  0  0  0  0  0  0  0  0  0  0
   21.9241   -8.6276  -15.8745 C   0  0  0  0  0  0  0  0  0  0  0  0
   21.9755   -8.1214  -17.0571 O   0  0  0  0  0  0  0  0  0  0  0  0
   22.0229   -7.6816  -14.8342 N   0  0  0  0  0  0  0  0  0  0  0  0
   22.1798   -6.2355  -15.0569 C   0  0  1  0  0  0  0  0  0  0  0  0
   21.0017   -5.7738  -15.8775 C   0  0  0  0  0  0  0  0  0  0  0  0
   19.6867   -5.8642  -15.1446 C   0  0  0  0  0  0  0  0  0  0  0  0
   18.5832   -5.3719  -16.0297 C   0  0  0  0  0  0  0  0  0  0  0  0
   18.5018   -4.1721  -16.3917 O   0  0  0  0  0  0  0  0  0  0  0  0
   22.3525   -5.5187  -13.7987 C   0  0  0  0  0  0  0  0  0  0  0  0
   22.2440   -6.0883  -12.6943 O   0  0  0  0  0  0  0  0  0  0  0  0
   17.6105   -6.2445  -16.4765 O   0  0  0  0  0  0  0  0  0  0  0  0
   22.6461   -4.1656  -13.8103 O   0  0  0  0  0  0  0  0  0  0  0  0
  2  1  1  1
  2  3  1  0
  4  2  1  0
  4  6  1  0
  4  5  1  1
  6 12  1  0
  7  6  2  0
  9 11  1  0
  9  8  1  1
 10  9  1  0
 11 12  1  6
 13 14  2  0
 13 11  1  0
 15 13  1  0
 16 15  1  0
 16 21  1  0
 16 17  1  1
 18 17  1  0
 19 18  1  0
 20 19  2  0
 21 24  1  0
 22 21  2  0
 23 19  1  0
M  END
$$$$
