IDA.pdb
     RDKit          3D

 22 21  0  0  1  0  0  0  0  0999 V2000
    5.5248  -11.8904   26.7228 C   0  0  0  0  0  0  0  0  0  0  0  0
    5.4473  -13.1113   25.8245 C   0  0  0  0  0  0  0  0  0  0  0  0
    6.7406  -13.8577   25.7888 C   0  0  2  0  0  0  0  0  0  0  0  0
    7.8372  -12.9099   25.3463 C   0  0  0  0  0  0  0  0  0  0  0  0
    6.7011  -15.0982   24.9261 C   0  0  2  0  0  0  0  0  0  0  0  0
    5.5447  -15.8878   25.3749 N   0  0  0  0  0  0  0  0  0  0  0  0
    7.9411  -15.8809   25.0017 C   0  0  0  0  0  0  0  0  0  0  0  0
    8.0689  -16.8508   25.7727 O   0  0  0  0  0  0  0  0  0  0  0  0
    9.0241  -15.5128   24.1651 N   0  0  0  0  0  0  0  0  0  0  0  0
   10.2923  -16.2701   24.2639 C   0  0  1  0  0  0  0  0  0  0  0  0
   11.1767  -15.8381   23.1175 C   0  0  0  0  0  0  0  0  0  0  0  0
   12.4508  -16.5346   23.0010 C   0  0  0  0  0  0  0  0  0  0  0  0
   12.5410  -17.7495   23.2748 O   0  0  0  0  0  0  0  0  0  0  0  0
   10.9385  -16.0198   25.5493 C   0  0  0  0  0  0  0  0  0  0  0  0
   12.0269  -16.6608   25.7902 O   0  0  0  0  0  0  0  0  0  0  0  0
   13.6130  -15.8653   22.5793 O   0  0  0  0  0  0  0  0  0  0  0  0
   10.9559  -13.7421   28.5303 C   0  0  0  0  0  0  0  0  0  0  0  0
   11.2436  -15.0751   27.8541 C   0  0  2  0  0  0  0  0  0  0  0  0
   10.5317  -15.1529   26.5801 N   0  0  0  0  0  0  0  0  0  0  0  0
   10.8768  -16.2028   28.7087 C   0  0  0  0  0  0  0  0  0  0  0  0
   11.4118  -16.3147   29.8415 O   0  0  0  0  0  0  0  0  0  0  0  0
    9.9642  -17.1479   28.3190 O   0  0  0  0  0  0  0  0  0  0  0  0
  1  2  1  0
  3  4  1  6
  3  5  1  0
  3  2  1  0
  5  7  1  0
  5  6  1  1
  7  9  1  0
  7  8  2  0
  9 10  1  0
 10 14  1  0
 10 11  1  6
 12 16  1  0
 12 11  1  0
 13 12  2  0
 14 15  2  0
 18 17  1  1
 19 18  1  0
 19 14  1  0
 20 22  1  0
 20 18  1  0
 21 20  2  0
M  END
$$$$
