IDA.pdb
     RDKit          3D

 22 21  0  0  1  0  0  0  0  0999 V2000
    5.7722  -11.4482   26.4318 C   0  0  0  0  0  0  0  0  0  0  0  0
    5.7581  -12.6599   25.5179 C   0  0  0  0  0  0  0  0  0  0  0  0
    6.9578  -13.5255   25.7244 C   0  0  2  0  0  0  0  0  0  0  0  0
    8.2017  -12.7098   25.4346 C   0  0  0  0  0  0  0  0  0  0  0  0
    6.9320  -14.8009   24.9136 C   0  0  2  0  0  0  0  0  0  0  0  0
    5.6551  -15.4657   25.2131 N   0  0  0  0  0  0  0  0  0  0  0  0
    8.0709  -15.6807   25.2048 C   0  0  0  0  0  0  0  0  0  0  0  0
    8.0883  -16.4410   26.1912 O   0  0  0  0  0  0  0  0  0  0  0  0
    9.1839  -15.6572   24.3279 N   0  0  0  0  0  0  0  0  0  0  0  0
   10.3436  -16.5292   24.6223 C   0  0  1  0  0  0  0  0  0  0  0  0
   11.3196  -16.3993   23.4761 C   0  0  0  0  0  0  0  0  0  0  0  0
   10.8421  -16.8617   22.1800 C   0  0  0  0  0  0  0  0  0  0  0  0
   10.0943  -17.8580   22.0940 O   0  0  0  0  0  0  0  0  0  0  0  0
   10.9642  -16.1450   25.8871 C   0  0  0  0  0  0  0  0  0  0  0  0
   11.4693  -14.9643   25.9545 O   0  0  0  0  0  0  0  0  0  0  0  0
   11.2057  -16.2052   20.9911 O   0  0  0  0  0  0  0  0  0  0  0  0
   10.6085  -15.2123   28.7724 C   0  0  0  0  0  0  0  0  0  0  0  0
   11.5596  -16.3109   28.3193 C   0  0  2  0  0  0  0  0  0  0  0  0
   11.0838  -16.8991   27.0688 N   0  0  0  0  0  0  0  0  0  0  0  0
   11.7121  -17.3461   29.3398 C   0  0  0  0  0  0  0  0  0  0  0  0
   11.2521  -18.4963   29.1219 O   0  0  0  0  0  0  0  0  0  0  0  0
   12.3435  -17.1083   30.5326 O   0  0  0  0  0  0  0  0  0  0  0  0
  1  2  1  0
  3  4  1  6
  3  5  1  0
  3  2  1  0
  5  7  1  0
  5  6  1  1
  7  9  1  0
  7  8  2  0
  9 10  1  0
 10 14  1  0
 10 11  1  6
 12 16  1  0
 12 11  1  0
 13 12  2  0
 14 15  2  0
 18 17  1  1
 19 18  1  0
 19 14  1  0
 20 22  1  0
 20 18  1  0
 21 20  2  0
M  END
$$$$
