IDA.pdb
     RDKit          3D

 22 21  0  0  1  0  0  0  0  0999 V2000
    7.4375  -12.0851   19.7015 C   0  0  0  0  0  0  0  0  0  0  0  0
    7.7327  -13.5736   19.7307 C   0  0  0  0  0  0  0  0  0  0  0  0
    7.8571  -14.0879   21.1275 C   0  0  2  0  0  0  0  0  0  0  0  0
    8.9885  -13.3529   21.8176 C   0  0  0  0  0  0  0  0  0  0  0  0
    8.0413  -15.5860   21.2077 C   0  0  2  0  0  0  0  0  0  0  0  0
    6.8298  -16.1916   20.6354 N   0  0  0  0  0  0  0  0  0  0  0  0
    8.2737  -16.0558   22.5793 C   0  0  0  0  0  0  0  0  0  0  0  0
    7.3519  -16.1640   23.4100 O   0  0  0  0  0  0  0  0  0  0  0  0
    9.5952  -16.3955   22.9620 N   0  0  0  0  0  0  0  0  0  0  0  0
    9.8235  -16.9731   24.3059 C   0  0  1  0  0  0  0  0  0  0  0  0
   10.9549  -17.9682   24.1930 C   0  0  0  0  0  0  0  0  0  0  0  0
   11.3533  -18.6200   25.4333 C   0  0  0  0  0  0  0  0  0  0  0  0
   10.4969  -18.9898   26.2633 O   0  0  0  0  0  0  0  0  0  0  0  0
   10.1429  -15.9210   25.2670 C   0  0  0  0  0  0  0  0  0  0  0  0
   11.1646  -15.1844   25.0079 O   0  0  0  0  0  0  0  0  0  0  0  0
   12.7069  -18.8522   25.7341 O   0  0  0  0  0  0  0  0  0  0  0  0
    8.8903  -13.4301   27.4439 C   0  0  0  0  0  0  0  0  0  0  0  0
    9.9421  -14.5258   27.3431 C   0  0  2  0  0  0  0  0  0  0  0  0
    9.4719  -15.5897   26.4583 N   0  0  0  0  0  0  0  0  0  0  0  0
   10.2789  -15.0715   28.6566 C   0  0  0  0  0  0  0  0  0  0  0  0
   10.7035  -14.2979   29.5529 O   0  0  0  0  0  0  0  0  0  0  0  0
   10.1468  -16.4036   28.9497 O   0  0  0  0  0  0  0  0  0  0  0  0
  1  2  1  0
  3  4  1  6
  3  5  1  0
  3  2  1  0
  5  7  1  0
  5  6  1  1
  7  9  1  0
  7  8  2  0
  9 10  1  0
 10 14  1  0
 10 11  1  6
 12 16  1  0
 12 11  1  0
 13 12  2  0
 14 15  2  0
 18 17  1  1
 19 18  1  0
 19 14  1  0
 20 22  1  0
 20 18  1  0
 21 20  2  0
M  END
$$$$
