IDA.pdb
     RDKit          3D

 22 21  0  0  1  0  0  0  0  0999 V2000
    7.6316  -11.9580   19.8210 C   0  0  0  0  0  0  0  0  0  0  0  0
    7.5920  -13.4751   19.8391 C   0  0  0  0  0  0  0  0  0  0  0  0
    7.7544  -14.0187   21.2208 C   0  0  2  0  0  0  0  0  0  0  0  0
    9.0177  -13.4402   21.8257 C   0  0  0  0  0  0  0  0  0  0  0  0
    7.7538  -15.5290   21.2821 C   0  0  2  0  0  0  0  0  0  0  0  0
    6.4466  -15.9715   20.7745 N   0  0  0  0  0  0  0  0  0  0  0  0
    7.9999  -16.0414   22.6359 C   0  0  0  0  0  0  0  0  0  0  0  0
    7.1171  -16.0484   23.5146 O   0  0  0  0  0  0  0  0  0  0  0  0
    9.2889  -16.5432   22.9441 N   0  0  0  0  0  0  0  0  0  0  0  0
    9.5428  -17.0734   24.3029 C   0  0  1  0  0  0  0  0  0  0  0  0
   10.6688  -18.0759   24.2026 C   0  0  0  0  0  0  0  0  0  0  0  0
   11.0995  -18.6748   25.4587 C   0  0  0  0  0  0  0  0  0  0  0  0
   10.3198  -18.7473   26.4312 O   0  0  0  0  0  0  0  0  0  0  0  0
    9.8848  -15.9890   25.2191 C   0  0  0  0  0  0  0  0  0  0  0  0
   10.8897  -15.2519   24.9021 O   0  0  0  0  0  0  0  0  0  0  0  0
   12.3994  -19.1870   25.6156 O   0  0  0  0  0  0  0  0  0  0  0  0
    8.6749  -13.4562   27.3873 C   0  0  0  0  0  0  0  0  0  0  0  0
    9.7432  -14.5327   27.2580 C   0  0  2  0  0  0  0  0  0  0  0  0
    9.2518  -15.6263   26.4221 N   0  0  0  0  0  0  0  0  0  0  0  0
   10.1569  -15.0407   28.5646 C   0  0  0  0  0  0  0  0  0  0  0  0
    9.9588  -16.2509   28.8442 O   0  0  0  0  0  0  0  0  0  0  0  0
   10.7582  -14.2418   29.5017 O   0  0  0  0  0  0  0  0  0  0  0  0
  1  2  1  0
  3  4  1  6
  3  5  1  0
  3  2  1  0
  5  7  1  0
  5  6  1  1
  7  9  1  0
  7  8  2  0
  9 10  1  0
 10 14  1  0
 10 11  1  6
 12 16  1  0
 12 11  1  0
 13 12  2  0
 14 15  2  0
 18 17  1  1
 19 18  1  0
 19 14  1  0
 20 22  1  0
 20 18  1  0
 21 20  2  0
M  END
$$$$
