IDA.pdb
     RDKit          3D

 22 21  0  0  1  0  0  0  0  0999 V2000
    6.8002  -12.0978   19.9556 C   0  0  0  0  0  0  0  0  0  0  0  0
    7.2368  -13.1879   18.9941 C   0  0  0  0  0  0  0  0  0  0  0  0
    8.3999  -13.9618   19.5227 C   0  0  2  0  0  0  0  0  0  0  0  0
    9.5165  -12.9935   19.8580 C   0  0  0  0  0  0  0  0  0  0  0  0
    8.8758  -15.0530   18.5913 C   0  0  2  0  0  0  0  0  0  0  0  0
    7.7110  -15.9049   18.3092 N   0  0  0  0  0  0  0  0  0  0  0  0
    9.9833  -15.8357   19.1544 C   0  0  0  0  0  0  0  0  0  0  0  0
    9.8125  -16.9622   19.6575 O   0  0  0  0  0  0  0  0  0  0  0  0
   11.2874  -15.2823   19.1196 N   0  0  0  0  0  0  0  0  0  0  0  0
   12.3990  -16.0339   19.7449 C   0  0  1  0  0  0  0  0  0  0  0  0
   13.6947  -15.4115   19.2790 C   0  0  0  0  0  0  0  0  0  0  0  0
   14.9137  -16.0443   19.7643 C   0  0  0  0  0  0  0  0  0  0  0  0
   15.0460  -17.2854   19.7285 O   0  0  0  0  0  0  0  0  0  0  0  0
   12.2895  -15.9920   21.2005 C   0  0  0  0  0  0  0  0  0  0  0  0
   13.2191  -16.5728   21.8728 O   0  0  0  0  0  0  0  0  0  0  0  0
   15.9740  -15.2826   20.2859 O   0  0  0  0  0  0  0  0  0  0  0  0
   10.0823  -14.7496   24.0126 C   0  0  0  0  0  0  0  0  0  0  0  0
   11.2881  -15.4849   23.4450 C   0  0  2  0  0  0  0  0  0  0  0  0
   11.2917  -15.3872   21.9867 N   0  0  0  0  0  0  0  0  0  0  0  0
   11.3078  -16.8867   23.8585 C   0  0  0  0  0  0  0  0  0  0  0  0
   11.8325  -17.1953   24.9592 O   0  0  0  0  0  0  0  0  0  0  0  0
   10.7708  -17.8835   23.0866 O   0  0  0  0  0  0  0  0  0  0  0  0
  1  2  1  0
  3  4  1  6
  3  5  1  0
  3  2  1  0
  5  7  1  0
  5  6  1  1
  7  9  1  0
  7  8  2  0
  9 10  1  0
 10 14  1  0
 10 11  1  1
 12 16  1  0
 12 11  1  0
 13 12  2  0
 14 15  2  0
 18 17  1  6
 19 18  1  0
 19 14  1  0
 20 22  1  0
 20 18  1  0
 21 20  2  0
M  END
$$$$
