IDA.pdb
     RDKit          3D

 22 21  0  0  1  0  0  0  0  0999 V2000
    5.8645  -11.5977   26.3874 C   0  0  0  0  0  0  0  0  0  0  0  0
    5.5762  -13.0744   26.1882 C   0  0  0  0  0  0  0  0  0  0  0  0
    6.8317  -13.8726   26.0550 C   0  0  2  0  0  0  0  0  0  0  0  0
    7.9755  -12.9305   25.7373 C   0  0  0  0  0  0  0  0  0  0  0  0
    6.7361  -14.9881   25.0395 C   0  0  2  0  0  0  0  0  0  0  0  0
    5.5584  -15.7899   25.4029 N   0  0  0  0  0  0  0  0  0  0  0  0
    7.9483  -15.8153   24.9906 C   0  0  0  0  0  0  0  0  0  0  0  0
    8.0737  -16.8514   25.6703 O   0  0  0  0  0  0  0  0  0  0  0  0
    9.0063  -15.4132   24.1378 N   0  0  0  0  0  0  0  0  0  0  0  0
   10.2854  -16.1569   24.1874 C   0  0  1  0  0  0  0  0  0  0  0  0
   11.1581  -15.6466   23.0644 C   0  0  0  0  0  0  0  0  0  0  0  0
   12.4543  -16.2960   22.9222 C   0  0  0  0  0  0  0  0  0  0  0  0
   13.5037  -15.6212   22.8720 O   0  0  0  0  0  0  0  0  0  0  0  0
   10.9343  -15.9723   25.4825 C   0  0  0  0  0  0  0  0  0  0  0  0
   12.0788  -16.5349   25.6475 O   0  0  0  0  0  0  0  0  0  0  0  0
   12.5647  -17.6949   22.8371 O   0  0  0  0  0  0  0  0  0  0  0  0
   10.8114  -13.9267   28.6267 C   0  0  0  0  0  0  0  0  0  0  0  0
   11.2507  -15.1480   27.8316 C   0  0  2  0  0  0  0  0  0  0  0  0
   10.4759  -15.2449   26.5961 N   0  0  0  0  0  0  0  0  0  0  0  0
   11.1148  -16.3763   28.6120 C   0  0  0  0  0  0  0  0  0  0  0  0
   11.7519  -16.4928   29.6903 O   0  0  0  0  0  0  0  0  0  0  0  0
   10.3122  -17.4119   28.2102 O   0  0  0  0  0  0  0  0  0  0  0  0
  1  2  1  0
  3  4  1  6
  3  5  1  0
  3  2  1  0
  5  7  1  0
  5  6  1  1
  7  9  1  0
  7  8  2  0
  9 10  1  0
 10 14  1  0
 10 11  1  6
 12 16  1  0
 12 11  1  0
 13 12  2  0
 14 15  2  0
 18 17  1  1
 19 18  1  0
 19 14  1  0
 20 22  1  0
 20 18  1  0
 21 20  2  0
M  END
$$$$
