IDA.pdb
     RDKit          3D

 22 21  0  0  1  0  0  0  0  0999 V2000
    7.2269  -12.0685   26.7057 C   0  0  0  0  0  0  0  0  0  0  0  0
    7.0918  -13.5495   26.4025 C   0  0  0  0  0  0  0  0  0  0  0  0
    7.0286  -13.8123   24.9335 C   0  0  2  0  0  0  0  0  0  0  0  0
    5.8354  -13.0758   24.3585 C   0  0  0  0  0  0  0  0  0  0  0  0
    6.9930  -15.2819   24.5815 C   0  0  2  0  0  0  0  0  0  0  0  0
    5.9112  -15.8805   25.3774 N   0  0  0  0  0  0  0  0  0  0  0  0
    8.2733  -15.9558   24.8321 C   0  0  0  0  0  0  0  0  0  0  0  0
    8.3794  -16.9049   25.6317 O   0  0  0  0  0  0  0  0  0  0  0  0
    9.4218  -15.5043   24.1356 N   0  0  0  0  0  0  0  0  0  0  0  0
   10.7125  -16.1924   24.3648 C   0  0  1  0  0  0  0  0  0  0  0  0
   11.6982  -15.6737   23.3437 C   0  0  0  0  0  0  0  0  0  0  0  0
   13.0082  -16.3106   23.3452 C   0  0  0  0  0  0  0  0  0  0  0  0
   14.0388  -15.6503   23.0978 O   0  0  0  0  0  0  0  0  0  0  0  0
   11.1872  -15.9490   25.7242 C   0  0  0  0  0  0  0  0  0  0  0  0
   12.3273  -16.4512   26.0430 O   0  0  0  0  0  0  0  0  0  0  0  0
   13.1536  -17.6810   23.6232 O   0  0  0  0  0  0  0  0  0  0  0  0
   10.4762  -13.9773   28.8552 C   0  0  0  0  0  0  0  0  0  0  0  0
   11.1449  -15.1097   28.0888 C   0  0  2  0  0  0  0  0  0  0  0  0
   10.5617  -15.2219   26.7534 N   0  0  0  0  0  0  0  0  0  0  0  0
   11.0311  -16.3819   28.7995 C   0  0  0  0  0  0  0  0  0  0  0  0
   11.5406  -16.4940   29.9440 O   0  0  0  0  0  0  0  0  0  0  0  0
   10.3841  -17.4636   28.2616 O   0  0  0  0  0  0  0  0  0  0  0  0
  1  2  1  0
  3  4  1  1
  3  5  1  0
  3  2  1  0
  5  7  1  0
  5  6  1  1
  7  9  1  0
  7  8  2  0
  9 10  1  0
 10 14  1  0
 10 11  1  6
 12 16  1  0
 12 11  1  0
 13 12  2  0
 14 15  2  0
 18 17  1  1
 19 18  1  0
 19 14  1  0
 20 22  1  0
 20 18  1  0
 21 20  2  0
M  END
$$$$
