IDA.pdb
     RDKit          3D

 22 21  0  0  1  0  0  0  0  0999 V2000
    8.0520  -12.3510   19.9705 C   0  0  0  0  0  0  0  0  0  0  0  0
    7.0011  -13.3409   20.4388 C   0  0  0  0  0  0  0  0  0  0  0  0
    7.4535  -14.1046   21.6402 C   0  0  2  0  0  0  0  0  0  0  0  0
    8.0433  -13.1316   22.6413 C   0  0  0  0  0  0  0  0  0  0  0  0
    8.4201  -15.2217   21.3199 C   0  0  2  0  0  0  0  0  0  0  0  0
    7.7300  -16.1216   20.3841 N   0  0  0  0  0  0  0  0  0  0  0  0
    8.8699  -15.9427   22.5174 C   0  0  0  0  0  0  0  0  0  0  0  0
    8.0757  -16.5253   23.2798 O   0  0  0  0  0  0  0  0  0  0  0  0
   10.2567  -15.9712   22.8074 N   0  0  0  0  0  0  0  0  0  0  0  0
   10.7112  -16.6162   24.0601 C   0  0  1  0  0  0  0  0  0  0  0  0
   12.0791  -17.2049   23.8044 C   0  0  0  0  0  0  0  0  0  0  0  0
   12.1283  -18.3075   22.8537 C   0  0  0  0  0  0  0  0  0  0  0  0
   12.9717  -18.3188   21.9330 O   0  0  0  0  0  0  0  0  0  0  0  0
   10.7525  -15.6447   25.1495 C   0  0  0  0  0  0  0  0  0  0  0  0
   11.5670  -14.6580   25.0212 O   0  0  0  0  0  0  0  0  0  0  0  0
   11.2330  -19.3879   22.9414 O   0  0  0  0  0  0  0  0  0  0  0  0
    9.0799  -13.6961   27.5090 C   0  0  0  0  0  0  0  0  0  0  0  0
   10.2536  -14.6595   27.4030 C   0  0  2  0  0  0  0  0  0  0  0  0
   10.0060  -15.6337   26.3420 N   0  0  0  0  0  0  0  0  0  0  0  0
   10.5050  -15.3437   28.6699 C   0  0  0  0  0  0  0  0  0  0  0  0
   10.7697  -14.6629   29.6939 O   0  0  0  0  0  0  0  0  0  0  0  0
   10.4609  -16.7086   28.7841 O   0  0  0  0  0  0  0  0  0  0  0  0
  1  2  1  0
  3  4  1  1
  3  5  1  0
  3  2  1  0
  5  7  1  0
  5  6  1  6
  7  9  1  0
  7  8  2  0
  9 10  1  0
 10 14  1  0
 10 11  1  6
 12 16  1  0
 12 11  1  0
 13 12  2  0
 14 15  2  0
 18 17  1  1
 19 18  1  0
 19 14  1  0
 20 22  1  0
 20 18  1  0
 21 20  2  0
M  END
$$$$
