IDA.pdb
     RDKit          3D

 22 21  0  0  1  0  0  0  0  0999 V2000
    5.8200  -11.8767   26.6353 C   0  0  0  0  0  0  0  0  0  0  0  0
    5.7473  -13.0569   25.6836 C   0  0  0  0  0  0  0  0  0  0  0  0
    6.9774  -13.9014   25.7510 C   0  0  2  0  0  0  0  0  0  0  0  0
    8.1856  -13.0221   25.4980 C   0  0  0  0  0  0  0  0  0  0  0  0
    6.9509  -15.0870   24.8138 C   0  0  2  0  0  0  0  0  0  0  0  0
    5.6996  -15.8106   25.0837 N   0  0  0  0  0  0  0  0  0  0  0  0
    8.1178  -15.9636   24.9756 C   0  0  0  0  0  0  0  0  0  0  0  0
    8.0885  -16.9841   25.6891 O   0  0  0  0  0  0  0  0  0  0  0  0
    9.3136  -15.6291   24.2928 N   0  0  0  0  0  0  0  0  0  0  0  0
   10.5208  -16.4554   24.5200 C   0  0  1  0  0  0  0  0  0  0  0  0
   11.5205  -16.1165   23.4388 C   0  0  0  0  0  0  0  0  0  0  0  0
   11.0597  -16.2968   22.0688 C   0  0  0  0  0  0  0  0  0  0  0  0
   11.2069  -15.3912   21.2219 O   0  0  0  0  0  0  0  0  0  0  0  0
   11.0742  -16.1981   25.8467 C   0  0  0  0  0  0  0  0  0  0  0  0
   12.1746  -16.7925   26.1455 O   0  0  0  0  0  0  0  0  0  0  0  0
   10.4378  -17.4890   21.6585 O   0  0  0  0  0  0  0  0  0  0  0  0
   10.7499  -14.0065   28.8833 C   0  0  0  0  0  0  0  0  0  0  0  0
   11.1906  -15.2827   28.1803 C   0  0  2  0  0  0  0  0  0  0  0  0
   10.5645  -15.3689   26.8626 N   0  0  0  0  0  0  0  0  0  0  0  0
   10.8726  -16.4703   28.9708 C   0  0  0  0  0  0  0  0  0  0  0  0
   10.0027  -17.2747   28.5484 O   0  0  0  0  0  0  0  0  0  0  0  0
   11.4926  -16.7422   30.1622 O   0  0  0  0  0  0  0  0  0  0  0  0
  1  2  1  0
  3  4  1  6
  3  5  1  0
  3  2  1  0
  5  7  1  0
  5  6  1  1
  7  9  1  0
  7  8  2  0
  9 10  1  0
 10 14  1  0
 10 11  1  6
 12 16  1  0
 12 11  1  0
 13 12  2  0
 14 15  2  0
 18 17  1  1
 19 18  1  0
 19 14  1  0
 20 22  1  0
 20 18  1  0
 21 20  2  0
M  END
$$$$
