FSK.pdb
     RDKit          3D

 27 27  0  0  1  0  0  0  0  0999 V2000
    7.4194  -16.0243   26.1483 N   0  0  0  0  0  0  0  0  0  0  0  0
    6.7884  -16.2829   24.8914 C   0  0  1  0  0  0  0  0  0  0  0  0
    5.9832  -15.1035   24.4326 C   0  0  0  0  0  0  0  0  0  0  0  0
    6.4841  -13.8971   25.1354 C   0  0  0  0  0  0  0  0  0  0  0  0
    7.5323  -13.1704   24.6209 C   0  0  0  0  0  0  0  0  0  0  0  0
    7.9953  -12.0424   25.2851 C   0  0  0  0  0  0  0  0  0  0  0  0
    7.4210  -11.6268   26.4658 C   0  0  0  0  0  0  0  0  0  0  0  0
    6.3733  -12.3475   26.9862 C   0  0  0  0  0  0  0  0  0  0  0  0
    5.9229  -13.4660   26.3166 C   0  0  0  0  0  0  0  0  0  0  0  0
    7.7289  -16.7709   23.8481 C   0  0  0  0  0  0  0  0  0  0  0  0
    7.2931  -17.5430   22.9781 O   0  0  0  0  0  0  0  0  0  0  0  0
   10.9875  -15.2657   22.0613 O   0  0  0  0  0  0  0  0  0  0  0  0
   10.6934  -16.6135   21.9420 C   0  0  0  0  0  0  0  0  0  0  0  0
   10.1316  -17.1935   23.2119 C   0  0  2  0  0  0  0  0  0  0  0  0
    9.0956  -16.4039   23.7910 N   0  0  0  0  0  0  0  0  0  0  0  0
   11.1813  -17.4404   24.2295 C   0  0  0  0  0  0  0  0  0  0  0  0
   11.4166  -16.5830   25.1066 O   0  0  0  0  0  0  0  0  0  0  0  0
   11.9554  -18.6249   24.2671 N   0  0  0  0  0  0  0  0  0  0  0  0
   13.1592  -18.7273   25.1183 C   0  0  1  0  0  0  0  0  0  0  0  0
   13.6224  -20.1388   25.2060 C   0  0  0  0  0  0  0  0  0  0  0  0
   12.6982  -20.9702   26.0121 C   0  0  0  0  0  0  0  0  0  0  0  0
   11.8976  -21.9529   25.1915 C   0  0  0  0  0  0  0  0  0  0  0  0
   11.0993  -22.8415   26.1297 C   0  0  0  0  0  0  0  0  0  0  0  0
   10.3972  -23.8794   25.4005 N   0  0  0  0  0  0  0  0  0  0  0  0
   14.1534  -17.7739   24.6350 C   0  0  0  0  0  0  0  0  0  0  0  0
   14.9009  -17.1545   25.4463 O   0  0  0  0  0  0  0  0  0  0  0  0
   14.3277  -17.5043   23.2869 O   0  0  0  0  0  0  0  0  0  0  0  0
  2  1  1  1
  2  3  1  0
  4  3  1  0
  4  9  2  0
  5  4  1  0
  6  5  2  0
  6  7  1  0
  7  8  2  0
  8  9  1  0
 10  2  1  0
 11 10  2  0
 12 13  1  0
 14 13  1  6
 14 15  1  0
 15 10  1  0
 16 14  1  0
 16 18  1  0
 17 16  2  0
 19 18  1  0
 19 25  1  0
 19 20  1  6
 21 20  1  0
 22 21  1  0
 23 22  1  0
 24 23  1  0
 25 27  1  0
 26 25  2  0
M  END
$$$$
