FSK.pdb
     RDKit          3D

 27 27  0  0  1  0  0  0  0  0999 V2000
   -5.7001  -19.1835   22.7395 N   0  0  0  0  0  0  0  0  0  0  0  0
   -5.4672  -20.5240   23.1796 C   0  0  1  0  0  0  0  0  0  0  0  0
   -4.0871  -20.6800   23.7460 C   0  0  0  0  0  0  0  0  0  0  0  0
   -3.1078  -20.3817   22.6726 C   0  0  0  0  0  0  0  0  0  0  0  0
   -2.9736  -21.2223   21.5924 C   0  0  0  0  0  0  0  0  0  0  0  0
   -2.0543  -20.9358   20.5920 C   0  0  0  0  0  0  0  0  0  0  0  0
   -1.2606  -19.8121   20.6563 C   0  0  0  0  0  0  0  0  0  0  0  0
   -1.3888  -18.9674   21.7323 C   0  0  0  0  0  0  0  0  0  0  0  0
   -2.3058  -19.2634   22.7192 C   0  0  0  0  0  0  0  0  0  0  0  0
   -6.5202  -21.0357   24.0964 C   0  0  0  0  0  0  0  0  0  0  0  0
   -6.7193  -20.4274   25.1611 O   0  0  0  0  0  0  0  0  0  0  0  0
   -9.1177  -24.2868   23.0704 O   0  0  0  0  0  0  0  0  0  0  0  0
   -9.4833  -23.3052   23.9758 C   0  0  0  0  0  0  0  0  0  0  0  0
   -8.2996  -22.7181   24.6959 C   0  0  2  0  0  0  0  0  0  0  0  0
   -7.3097  -22.1791   23.8230 N   0  0  0  0  0  0  0  0  0  0  0  0
   -7.6605  -23.6919   25.6134 C   0  0  0  0  0  0  0  0  0  0  0  0
   -6.5322  -24.1559   25.3463 O   0  0  0  0  0  0  0  0  0  0  0  0
   -8.2712  -24.1400   26.8093 N   0  0  0  0  0  0  0  0  0  0  0  0
   -7.6704  -25.2209   27.6185 C   0  0  1  0  0  0  0  0  0  0  0  0
   -6.2775  -24.8723   28.0099 C   0  0  0  0  0  0  0  0  0  0  0  0
   -5.6479  -25.9475   28.8117 C   0  0  0  0  0  0  0  0  0  0  0  0
   -4.2446  -25.6214   29.2636 C   0  0  0  0  0  0  0  0  0  0  0  0
   -3.6752  -26.8198   30.0031 C   0  0  0  0  0  0  0  0  0  0  0  0
   -2.2650  -26.6408   30.2875 N   0  0  0  0  0  0  0  0  0  0  0  0
   -8.5705  -25.5286   28.7258 C   0  0  0  0  0  0  0  0  0  0  0  0
   -8.9812  -26.7103   28.9139 O   0  0  0  0  0  0  0  0  0  0  0  0
   -9.0121  -24.5599   29.6130 O   0  0  0  0  0  0  0  0  0  0  0  0
  2  1  1  1
  2  3  1  0
  4  3  1  0
  4  9  2  0
  5  4  1  0
  6  5  2  0
  6  7  1  0
  7  8  2  0
  8  9  1  0
 10  2  1  0
 11 10  2  0
 12 13  1  0
 14 13  1  6
 14 15  1  0
 15 10  1  0
 16 14  1  0
 16 18  1  0
 17 16  2  0
 19 18  1  0
 19 25  1  0
 19 20  1  1
 21 20  1  0
 22 21  1  0
 23 22  1  0
 24 23  1  0
 25 27  1  0
 26 25  2  0
M  END
$$$$
