FSK.pdb
     RDKit          3D

 27 27  0  0  1  0  0  0  0  0999 V2000
    6.2094  -16.4549   25.2798 N   0  0  0  0  0  0  0  0  0  0  0  0
    7.2641  -15.6965   24.6822 C   0  0  1  0  0  0  0  0  0  0  0  0
    8.1004  -15.0117   25.7222 C   0  0  0  0  0  0  0  0  0  0  0  0
    7.3934  -13.7798   26.1498 C   0  0  0  0  0  0  0  0  0  0  0  0
    7.5670  -12.5988   25.4667 C   0  0  0  0  0  0  0  0  0  0  0  0
    6.9017  -11.4500   25.8736 C   0  0  0  0  0  0  0  0  0  0  0  0
    6.0585  -11.4647   26.9625 C   0  0  0  0  0  0  0  0  0  0  0  0
    5.8799  -12.6408   27.6501 C   0  0  0  0  0  0  0  0  0  0  0  0
    6.5466  -13.7748   27.2356 C   0  0  0  0  0  0  0  0  0  0  0  0
    8.0822  -16.4801   23.7190 C   0  0  0  0  0  0  0  0  0  0  0  0
    8.2852  -17.6815   23.9609 O   0  0  0  0  0  0  0  0  0  0  0  0
   10.4150  -14.6261   20.4738 O   0  0  0  0  0  0  0  0  0  0  0  0
    9.9017  -15.9115   20.4345 C   0  0  0  0  0  0  0  0  0  0  0  0
    9.7257  -16.5021   21.8074 C   0  0  2  0  0  0  0  0  0  0  0  0
    8.6435  -15.9324   22.5398 N   0  0  0  0  0  0  0  0  0  0  0  0
   10.9627  -16.4135   22.6200 C   0  0  0  0  0  0  0  0  0  0  0  0
   11.0536  -15.5639   23.5309 O   0  0  0  0  0  0  0  0  0  0  0  0
   12.0797  -17.2595   22.4188 N   0  0  0  0  0  0  0  0  0  0  0  0
   13.1367  -17.3903   23.4434 C   0  0  1  0  0  0  0  0  0  0  0  0
   12.9952  -18.6735   24.1837 C   0  0  0  0  0  0  0  0  0  0  0  0
   14.0741  -18.8516   25.1835 C   0  0  0  0  0  0  0  0  0  0  0  0
   13.9471  -20.1218   25.9899 C   0  0  0  0  0  0  0  0  0  0  0  0
   15.0996  -20.1952   26.9766 C   0  0  0  0  0  0  0  0  0  0  0  0
   15.0199  -21.3926   27.7900 N   0  0  0  0  0  0  0  0  0  0  0  0
   14.4323  -17.1785   22.8051 C   0  0  0  0  0  0  0  0  0  0  0  0
   14.6342  -17.5558   21.6145 O   0  0  0  0  0  0  0  0  0  0  0  0
   15.4883  -16.5627   23.4580 O   0  0  0  0  0  0  0  0  0  0  0  0
  2  1  1  1
  2  3  1  0
  4  3  1  0
  4  9  2  0
  5  4  1  0
  6  5  2  0
  6  7  1  0
  7  8  2  0
  8  9  1  0
 10  2  1  0
 11 10  2  0
 12 13  1  0
 14 13  1  6
 14 15  1  0
 15 10  1  0
 16 14  1  0
 16 18  1  0
 17 16  2  0
 19 18  1  0
 19 25  1  0
 19 20  1  6
 21 20  1  0
 22 21  1  0
 23 22  1  0
 24 23  1  0
 25 27  1  0
 26 25  2  0
M  END
$$$$
