FSK.pdb
     RDKit          3D

 27 27  0  0  1  0  0  0  0  0999 V2000
    6.3469  -17.0118   25.6682 N   0  0  0  0  0  0  0  0  0  0  0  0
    6.5462  -16.6011   24.3130 C   0  0  1  0  0  0  0  0  0  0  0  0
    6.0094  -15.2205   24.0771 C   0  0  0  0  0  0  0  0  0  0  0  0
    6.5859  -14.3163   25.1019 C   0  0  0  0  0  0  0  0  0  0  0  0
    5.9916  -14.1848   26.3352 C   0  0  0  0  0  0  0  0  0  0  0  0
    6.5376  -13.3361   27.2888 C   0  0  0  0  0  0  0  0  0  0  0  0
    7.6784  -12.6109   27.0254 C   0  0  0  0  0  0  0  0  0  0  0  0
    8.2780  -12.7368   25.7956 C   0  0  0  0  0  0  0  0  0  0  0  0
    7.7256  -13.5832   24.8572 C   0  0  0  0  0  0  0  0  0  0  0  0
    7.9515  -16.7523   23.8509 C   0  0  0  0  0  0  0  0  0  0  0  0
    8.7979  -17.1570   24.6650 O   0  0  0  0  0  0  0  0  0  0  0  0
    9.4256  -14.9619   20.3386 O   0  0  0  0  0  0  0  0  0  0  0  0
    9.8764  -16.2443   20.6022 C   0  0  0  0  0  0  0  0  0  0  0  0
    9.7094  -16.6261   22.0482 C   0  0  2  0  0  0  0  0  0  0  0  0
    8.3790  -16.4604   22.5327 N   0  0  0  0  0  0  0  0  0  0  0  0
   10.6446  -15.8927   22.9346 C   0  0  0  0  0  0  0  0  0  0  0  0
   10.2380  -14.9222   23.6074 O   0  0  0  0  0  0  0  0  0  0  0  0
   12.0112  -16.2372   23.0677 N   0  0  0  0  0  0  0  0  0  0  0  0
   12.7918  -15.8321   24.2554 C   0  0  1  0  0  0  0  0  0  0  0  0
   12.0929  -16.2348   25.5060 C   0  0  0  0  0  0  0  0  0  0  0  0
   11.9168  -15.0891   26.4290 C   0  0  0  0  0  0  0  0  0  0  0  0
   11.2011  -15.4488   27.7090 C   0  0  0  0  0  0  0  0  0  0  0  0
   10.9945  -14.1865   28.5281 C   0  0  0  0  0  0  0  0  0  0  0  0
   10.2595  -14.4647   29.7464 N   0  0  0  0  0  0  0  0  0  0  0  0
   14.1537  -16.3378   24.1118 C   0  0  0  0  0  0  0  0  0  0  0  0
   15.1043  -15.8271   24.7722 O   0  0  0  0  0  0  0  0  0  0  0  0
   14.4694  -17.3856   23.2616 O   0  0  0  0  0  0  0  0  0  0  0  0
  2  1  1  1
  2  3  1  0
  4  3  1  0
  4  9  2  0
  5  4  1  0
  6  5  2  0
  6  7  1  0
  7  8  2  0
  8  9  1  0
 10  2  1  0
 11 10  2  0
 12 13  1  0
 14 13  1  6
 14 15  1  0
 15 10  1  0
 16 14  1  0
 16 18  1  0
 17 16  2  0
 19 18  1  0
 19 25  1  0
 19 20  1  1
 21 20  1  0
 22 21  1  0
 23 22  1  0
 24 23  1  0
 25 27  1  0
 26 25  2  0
M  END
$$$$
