FSK.pdb
     RDKit          3D

 27 27  0  0  1  0  0  0  0  0999 V2000
    6.0860  -16.7736   25.4511 N   0  0  0  0  0  0  0  0  0  0  0  0
    7.0956  -16.0709   24.7217 C   0  0  1  0  0  0  0  0  0  0  0  0
    8.0388  -15.3582   25.6448 C   0  0  0  0  0  0  0  0  0  0  0  0
    7.4983  -14.0015   25.9046 C   0  0  0  0  0  0  0  0  0  0  0  0
    7.8023  -12.9534   25.0676 C   0  0  0  0  0  0  0  0  0  0  0  0
    7.2924  -11.6864   25.3181 C   0  0  0  0  0  0  0  0  0  0  0  0
    6.4763  -11.4499   26.4020 C   0  0  0  0  0  0  0  0  0  0  0  0
    6.1680  -12.4919   27.2428 C   0  0  0  0  0  0  0  0  0  0  0  0
    6.6810  -13.7455   26.9829 C   0  0  0  0  0  0  0  0  0  0  0  0
    7.8044  -16.9199   23.7276 C   0  0  0  0  0  0  0  0  0  0  0  0
    7.9999  -18.1142   24.0073 O   0  0  0  0  0  0  0  0  0  0  0  0
    9.4106  -15.4457   19.9592 O   0  0  0  0  0  0  0  0  0  0  0  0
    8.8240  -16.6917   20.1022 C   0  0  0  0  0  0  0  0  0  0  0  0
    8.9490  -17.2282   21.5026 C   0  0  2  0  0  0  0  0  0  0  0  0
    8.2694  -16.4418   22.4783 N   0  0  0  0  0  0  0  0  0  0  0  0
   10.3630  -17.3989   21.9148 C   0  0  0  0  0  0  0  0  0  0  0  0
   11.2728  -17.3630   21.0599 O   0  0  0  0  0  0  0  0  0  0  0  0
   10.7546  -17.6063   23.2593 N   0  0  0  0  0  0  0  0  0  0  0  0
   12.1805  -17.6353   23.6466 C   0  0  1  0  0  0  0  0  0  0  0  0
   12.8763  -16.4042   23.1829 C   0  0  0  0  0  0  0  0  0  0  0  0
   14.2371  -16.2936   23.7587 C   0  0  0  0  0  0  0  0  0  0  0  0
   15.2614  -15.7541   22.7893 C   0  0  0  0  0  0  0  0  0  0  0  0
   16.6264  -15.7728   23.4554 C   0  0  0  0  0  0  0  0  0  0  0  0
   17.6280  -15.1406   22.6195 N   0  0  0  0  0  0  0  0  0  0  0  0
   12.2682  -17.8985   25.0798 C   0  0  0  0  0  0  0  0  0  0  0  0
   11.3846  -17.4592   25.8716 O   0  0  0  0  0  0  0  0  0  0  0  0
   13.3041  -18.6315   25.6367 O   0  0  0  0  0  0  0  0  0  0  0  0
  2  1  1  1
  2  3  1  0
  4  3  1  0
  4  9  2  0
  5  4  1  0
  6  5  2  0
  6  7  1  0
  7  8  2  0
  8  9  1  0
 10  2  1  0
 11 10  2  0
 12 13  1  0
 14 13  1  6
 14 15  1  0
 15 10  1  0
 16 14  1  0
 16 18  1  0
 17 16  2  0
 19 18  1  0
 19 25  1  0
 19 20  1  1
 21 20  1  0
 22 21  1  0
 23 22  1  0
 24 23  1  0
 25 27  1  0
 26 25  2  0
M  END
$$$$
