GIV.pdb
     RDKit          3D

 20 19  0  0  1  0  0  0  0  0999 V2000
    9.0823  -16.1903   20.3978 N   0  0  0  0  0  0  0  0  0  0  0  0
    8.0829  -16.2907   21.4381 C   0  0  0  0  0  0  0  0  0  0  0  0
    8.5413  -15.5988   22.6333 C   0  0  0  0  0  0  0  0  0  0  0  0
    9.7522  -15.2961   22.7559 O   0  0  0  0  0  0  0  0  0  0  0  0
    6.5985  -11.7346   27.0317 C   0  0  0  0  0  0  0  0  0  0  0  0
    7.6996  -12.6396   26.5305 C   0  0  0  0  0  0  0  0  0  0  0  0
    7.1653  -13.5717   25.5030 C   0  0  2  0  0  0  0  0  0  0  0  0
    5.9026  -14.2752   25.9590 C   0  0  0  0  0  0  0  0  0  0  0  0
    8.1197  -14.5228   24.8824 C   0  0  2  0  0  0  0  0  0  0  0  0
    7.6700  -15.2255   23.7209 N   0  0  0  0  0  0  0  0  0  0  0  0
    8.7289  -15.4569   25.8938 C   0  0  0  0  0  0  0  0  0  0  0  0
    8.1897  -16.5551   26.1768 O   0  0  0  0  0  0  0  0  0  0  0  0
   11.9915  -14.3882   28.4573 C   0  0  0  0  0  0  0  0  0  0  0  0
   12.0939  -15.6555   27.6320 C   0  0  2  0  0  0  0  0  0  0  0  0
   12.8604  -15.3219   26.3741 C   0  0  0  0  0  0  0  0  0  0  0  0
   10.6879  -16.1179   27.3344 C   0  0  2  0  0  0  0  0  0  0  0  0
    9.9451  -15.1314   26.5724 N   0  0  0  0  0  0  0  0  0  0  0  0
    9.9245  -16.4364   28.5505 C   0  0  0  0  0  0  0  0  0  0  0  0
   10.0379  -17.6431   29.2297 O   0  0  0  0  0  0  0  0  0  0  0  0
    9.1208  -15.6017   29.0287 O   0  0  0  0  0  0  0  0  0  0  0  0
  2  1  1  0
  3  2  1  0
  4  3  2  0
  5  6  1  0
  7  8  1  1
  7  6  1  0
  9  7  1  0
  9 10  1  6
 10  3  1  0
 11 17  1  0
 11  9  1  0
 12 11  2  0
 14 15  1  6
 14 13  1  0
 16 17  1  1
 16 14  1  0
 18 19  1  0
 18 16  1  0
 20 18  2  0
M  END
$$$$
