GIV.pdb
     RDKit          3D

 20 19  0  0  1  0  0  0  0  0999 V2000
    7.4770  -14.8362   19.9877 N   0  0  0  0  0  0  0  0  0  0  0  0
    6.6881  -14.9348   21.1957 C   0  0  0  0  0  0  0  0  0  0  0  0
    7.5362  -14.7238   22.3592 C   0  0  0  0  0  0  0  0  0  0  0  0
    8.7829  -14.6905   22.2275 O   0  0  0  0  0  0  0  0  0  0  0  0
    6.0669  -11.7319   26.8975 C   0  0  0  0  0  0  0  0  0  0  0  0
    6.7785  -12.2843   25.6846 C   0  0  0  0  0  0  0  0  0  0  0  0
    7.3270  -13.6329   25.9856 C   0  0  2  0  0  0  0  0  0  0  0  0
    8.2962  -13.6178   27.1508 C   0  0  0  0  0  0  0  0  0  0  0  0
    7.8615  -14.4216   24.8485 C   0  0  2  0  0  0  0  0  0  0  0  0
    7.0239  -14.5447   23.6959 N   0  0  0  0  0  0  0  0  0  0  0  0
    8.3999  -15.7572   25.2874 C   0  0  0  0  0  0  0  0  0  0  0  0
    7.6335  -16.6829   25.6516 O   0  0  0  0  0  0  0  0  0  0  0  0
   11.2364  -17.6396   23.3489 C   0  0  0  0  0  0  0  0  0  0  0  0
   11.5963  -17.6281   24.8214 C   0  0  2  0  0  0  0  0  0  0  0  0
   12.1810  -18.9788   25.1603 C   0  0  0  0  0  0  0  0  0  0  0  0
   10.3310  -17.3466   25.5954 C   0  0  2  0  0  0  0  0  0  0  0  0
    9.8046  -16.0254   25.3074 N   0  0  0  0  0  0  0  0  0  0  0  0
   10.5153  -17.4661   27.0496 C   0  0  0  0  0  0  0  0  0  0  0  0
   10.3171  -18.6494   27.7502 O   0  0  0  0  0  0  0  0  0  0  0  0
   10.8688  -16.4714   27.7256 O   0  0  0  0  0  0  0  0  0  0  0  0
  2  1  1  0
  3  2  1  0
  4  3  2  0
  5  6  1  0
  7  8  1  1
  7  6  1  0
  9  7  1  0
  9 10  1  6
 10  3  1  0
 11 17  1  0
 11  9  1  0
 12 11  2  0
 14 15  1  1
 14 13  1  0
 16 17  1  1
 16 14  1  0
 18 19  1  0
 18 16  1  0
 20 18  2  0
M  END
$$$$
