GIV.pdb
     RDKit          3D

 20 19  0  0  1  0  0  0  0  0999 V2000
    5.5063  -20.0917   24.5954 N   0  0  0  0  0  0  0  0  0  0  0  0
    6.1887  -19.1788   25.4855 C   0  0  0  0  0  0  0  0  0  0  0  0
    6.1975  -17.8417   24.9115 C   0  0  0  0  0  0  0  0  0  0  0  0
    5.6609  -17.6353   23.7969 O   0  0  0  0  0  0  0  0  0  0  0  0
    6.4321  -11.8973   26.4552 C   0  0  0  0  0  0  0  0  0  0  0  0
    6.4336  -12.9321   25.3543 C   0  0  0  0  0  0  0  0  0  0  0  0
    6.8926  -14.2421   25.8867 C   0  0  2  0  0  0  0  0  0  0  0  0
    8.2242  -14.1420   26.6036 C   0  0  0  0  0  0  0  0  0  0  0  0
    6.8619  -15.4025   24.9631 C   0  0  2  0  0  0  0  0  0  0  0  0
    6.8005  -16.7016   25.5579 N   0  0  0  0  0  0  0  0  0  0  0  0
    7.9406  -15.3231   23.9158 C   0  0  0  0  0  0  0  0  0  0  0  0
    9.0093  -15.9728   24.0281 O   0  0  0  0  0  0  0  0  0  0  0  0
    8.6207  -12.4201   20.9136 C   0  0  0  0  0  0  0  0  0  0  0  0
    8.1696  -13.7868   20.4377 C   0  0  2  0  0  0  0  0  0  0  0  0
    6.6829  -13.7144   20.1811 C   0  0  0  0  0  0  0  0  0  0  0  0
    8.5109  -14.7802   21.5221 C   0  0  2  0  0  0  0  0  0  0  0  0
    7.7917  -14.5052   22.7520 N   0  0  0  0  0  0  0  0  0  0  0  0
    9.9496  -14.8202   21.8245 C   0  0  0  0  0  0  0  0  0  0  0  0
   10.8965  -15.3613   20.9637 O   0  0  0  0  0  0  0  0  0  0  0  0
   10.3816  -14.3518   22.9040 O   0  0  0  0  0  0  0  0  0  0  0  0
  2  1  1  0
  3  2  1  0
  4  3  2  0
  5  6  1  0
  7  8  1  6
  7  6  1  0
  9  7  1  0
  9 10  1  1
 10  3  1  0
 11 17  1  0
 11  9  1  0
 12 11  2  0
 14 15  1  1
 14 13  1  0
 16 17  1  1
 16 14  1  0
 18 19  1  0
 18 16  1  0
 20 18  2  0
M  END
$$$$
