GIV.pdb
     RDKit          3D

 20 19  0  0  1  0  0  0  0  0999 V2000
    7.1854  -14.5964   19.8927 N   0  0  0  0  0  0  0  0  0  0  0  0
    6.4246  -14.7760   21.1093 C   0  0  0  0  0  0  0  0  0  0  0  0
    7.2611  -14.4843   22.2637 C   0  0  0  0  0  0  0  0  0  0  0  0
    8.5038  -14.3855   22.1275 O   0  0  0  0  0  0  0  0  0  0  0  0
    5.6972  -11.3898   26.6361 C   0  0  0  0  0  0  0  0  0  0  0  0
    6.4253  -11.9864   25.4543 C   0  0  0  0  0  0  0  0  0  0  0  0
    7.0512  -13.2784   25.8404 C   0  0  2  0  0  0  0  0  0  0  0  0
    8.0687  -13.1202   26.9525 C   0  0  0  0  0  0  0  0  0  0  0  0
    7.5728  -14.1371   24.7489 C   0  0  2  0  0  0  0  0  0  0  0  0
    6.7413  -14.2950   23.5962 N   0  0  0  0  0  0  0  0  0  0  0  0
    8.0708  -15.4632   25.2587 C   0  0  0  0  0  0  0  0  0  0  0  0
    7.2764  -16.3476   25.6633 O   0  0  0  0  0  0  0  0  0  0  0  0
   12.1046  -16.5395   24.5903 C   0  0  0  0  0  0  0  0  0  0  0  0
   10.9824  -17.5586   24.5845 C   0  0  2  0  0  0  0  0  0  0  0  0
   10.4211  -17.6132   23.1834 C   0  0  0  0  0  0  0  0  0  0  0  0
    9.9529  -17.1055   25.5915 C   0  0  2  0  0  0  0  0  0  0  0  0
    9.4673  -15.7688   25.3028 N   0  0  0  0  0  0  0  0  0  0  0  0
   10.4595  -17.1274   26.9720 C   0  0  0  0  0  0  0  0  0  0  0  0
   10.6500  -18.2969   27.6974 O   0  0  0  0  0  0  0  0  0  0  0  0
   10.7449  -16.0563   27.5574 O   0  0  0  0  0  0  0  0  0  0  0  0
  2  1  1  0
  3  2  1  0
  4  3  2  0
  5  6  1  0
  7  8  1  1
  7  6  1  0
  9  7  1  0
  9 10  1  6
 10  3  1  0
 11 17  1  0
 11  9  1  0
 12 11  2  0
 14 15  1  6
 14 13  1  0
 16 17  1  6
 16 14  1  0
 18 19  1  0
 18 16  1  0
 20 18  2  0
M  END
$$$$
