GIV.pdb
     RDKit          3D

 20 19  0  0  1  0  0  0  0  0999 V2000
    6.9432  -15.2794   19.8198 N   0  0  0  0  0  0  0  0  0  0  0  0
    6.5788  -15.7514   21.1372 C   0  0  0  0  0  0  0  0  0  0  0  0
    7.4502  -15.1518   22.1364 C   0  0  0  0  0  0  0  0  0  0  0  0
    8.6680  -14.9861   21.8866 O   0  0  0  0  0  0  0  0  0  0  0  0
    7.7095  -11.6887   27.2591 C   0  0  0  0  0  0  0  0  0  0  0  0
    8.3699  -12.7460   26.4055 C   0  0  0  0  0  0  0  0  0  0  0  0
    7.3924  -13.2986   25.4313 C   0  0  2  0  0  0  0  0  0  0  0  0
    6.0905  -13.7126   26.0878 C   0  0  0  0  0  0  0  0  0  0  0  0
    7.8786  -14.3388   24.4921 C   0  0  2  0  0  0  0  0  0  0  0  0
    6.9940  -14.7214   23.4356 N   0  0  0  0  0  0  0  0  0  0  0  0
    8.4336  -15.5389   25.2120 C   0  0  0  0  0  0  0  0  0  0  0  0
    7.6778  -16.4120   25.7054 O   0  0  0  0  0  0  0  0  0  0  0  0
   11.5986  -17.2671   23.6218 C   0  0  0  0  0  0  0  0  0  0  0  0
   11.7717  -17.2287   25.1272 C   0  0  2  0  0  0  0  0  0  0  0  0
   12.3849  -18.5423   25.5511 C   0  0  0  0  0  0  0  0  0  0  0  0
   10.4063  -17.0169   25.7356 C   0  0  2  0  0  0  0  0  0  0  0  0
    9.8425  -15.7328   25.3630 N   0  0  0  0  0  0  0  0  0  0  0  0
   10.4166  -17.1113   27.2032 C   0  0  0  0  0  0  0  0  0  0  0  0
   10.6120  -16.0178   28.0377 O   0  0  0  0  0  0  0  0  0  0  0  0
   10.2437  -18.2177   27.7665 O   0  0  0  0  0  0  0  0  0  0  0  0
  2  1  1  0
  3  2  1  0
  4  3  2  0
  5  6  1  0
  7  8  1  1
  7  6  1  0
  9  7  1  0
  9 10  1  6
 10  3  1  0
 11 17  1  0
 11  9  1  0
 12 11  2  0
 14 15  1  1
 14 13  1  0
 16 17  1  1
 16 14  1  0
 18 19  1  0
 18 16  1  0
 20 18  2  0
M  END
$$$$
