IAM.pdb
     RDKit          3D

 22 21  0  0  1  0  0  0  0  0999 V2000
   23.6834  -13.7869  -17.2571 C   0  0  0  0  0  0  0  0  0  0  0  0
   24.5692  -14.1878  -16.1275 C   0  0  0  0  0  0  0  0  0  0  0  0
   24.6951  -15.6612  -15.9290 C   0  0  2  0  0  0  0  0  0  0  0  0
   23.2959  -16.2138  -15.6606 C   0  0  0  0  0  0  0  0  0  0  0  0
   25.5564  -16.0654  -14.7710 C   0  0  2  0  0  0  0  0  0  0  0  0
   26.8861  -15.4997  -15.0329 N   0  0  0  0  0  0  0  0  0  0  0  0
   25.6895  -17.5363  -14.6917 C   0  0  0  0  0  0  0  0  0  0  0  0
   24.7092  -18.2916  -14.4048 O   0  0  0  0  0  0  0  0  0  0  0  0
   28.4136  -20.0285  -15.5206 C   0  0  0  0  0  0  0  0  0  0  0  0
   27.1387  -19.5975  -14.8301 C   0  0  2  0  0  0  0  0  0  0  0  0
   26.9204  -18.1709  -14.9335 N   0  0  0  0  0  0  0  0  0  0  0  0
   27.3016  -19.9170  -13.3875 C   0  0  0  0  0  0  0  0  0  0  0  0
   28.3275  -19.5887  -12.7375 O   0  0  0  0  0  0  0  0  0  0  0  0
   27.3006  -19.0831   -6.3272 C   0  0  0  0  0  0  0  0  0  0  0  0
   27.0721  -18.6343   -8.0782 S   0  0  0  0  0  0  0  0  0  0  0  0
   26.8228  -20.2175   -8.9728 C   0  0  0  0  0  0  0  0  0  0  0  0
   26.8164  -19.8591  -10.4426 C   0  0  0  0  0  0  0  0  0  0  0  0
   26.5260  -21.0557  -11.3297 C   0  0  2  0  0  0  0  0  0  0  0  0
   26.2825  -20.6166  -12.6875 N   0  0  0  0  0  0  0  0  0  0  0  0
   25.3872  -21.8408  -10.8660 C   0  0  0  0  0  0  0  0  0  0  0  0
   24.3050  -21.8208  -11.4940 O   0  0  0  0  0  0  0  0  0  0  0  0
   25.4778  -22.6206   -9.7283 O   0  0  0  0  0  0  0  0  0  0  0  0
  1  2  1  0
  3  2  1  0
  3  5  1  0
  3  4  1  1
  5  7  1  0
  5  6  1  6
  7 11  1  0
  7  8  2  0
 10  9  1  6
 10 12  1  0
 11 10  1  0
 12 13  2  0
 15 14  1  0
 15 16  1  0
 16 17  1  0
 18 17  1  1
 19 18  1  0
 19 12  1  0
 20 18  1  0
 20 22  1  0
 21 20  2  0
M  END
$$$$
