IAM.pdb
     RDKit          3D

 22 21  0  0  1  0  0  0  0  0999 V2000
   21.6396  -15.7440  -16.7510 C   0  0  0  0  0  0  0  0  0  0  0  0
   22.7223  -16.5730  -17.3526 C   0  0  0  0  0  0  0  0  0  0  0  0
   23.3953  -17.5032  -16.3997 C   0  0  2  0  0  0  0  0  0  0  0  0
   24.0246  -16.6577  -15.2933 C   0  0  0  0  0  0  0  0  0  0  0  0
   24.4931  -18.3281  -17.0002 C   0  0  2  0  0  0  0  0  0  0  0  0
   23.8710  -19.1228  -18.0671 N   0  0  0  0  0  0  0  0  0  0  0  0
   25.0657  -19.2611  -16.0056 C   0  0  0  0  0  0  0  0  0  0  0  0
   24.3659  -20.1503  -15.4283 O   0  0  0  0  0  0  0  0  0  0  0  0
   28.5475  -19.8792  -14.6193 C   0  0  0  0  0  0  0  0  0  0  0  0
   27.0447  -20.0475  -14.6516 C   0  0  2  0  0  0  0  0  0  0  0  0
   26.4249  -19.2048  -15.6513 N   0  0  0  0  0  0  0  0  0  0  0  0
   26.5342  -19.6100  -13.3258 C   0  0  0  0  0  0  0  0  0  0  0  0
   26.1687  -18.4270  -13.1027 O   0  0  0  0  0  0  0  0  0  0  0  0
   21.7318  -20.1263  -12.7548 C   0  0  0  0  0  0  0  0  0  0  0  0
   21.5869  -19.6636  -10.9985 S   0  0  0  0  0  0  0  0  0  0  0  0
   23.2879  -19.7537  -10.3146 C   0  0  0  0  0  0  0  0  0  0  0  0
   24.1887  -20.0349  -11.4971 C   0  0  0  0  0  0  0  0  0  0  0  0
   25.6420  -20.1999  -11.0922 C   0  0  2  0  0  0  0  0  0  0  0  0
   26.4428  -20.5343  -12.2510 N   0  0  0  0  0  0  0  0  0  0  0  0
   25.8313  -21.2190  -10.0657 C   0  0  0  0  0  0  0  0  0  0  0  0
   25.7264  -20.9259   -8.8537 O   0  0  0  0  0  0  0  0  0  0  0  0
   26.1291  -22.5249  -10.4073 O   0  0  0  0  0  0  0  0  0  0  0  0
  1  2  1  0
  3  2  1  0
  3  5  1  0
  3  4  1  1
  5  7  1  0
  5  6  1  6
  7 11  1  0
  7  8  2  0
 10  9  1  1
 10 12  1  0
 11 10  1  0
 12 13  2  0
 15 14  1  0
 15 16  1  0
 16 17  1  0
 18 17  1  6
 19 18  1  0
 19 12  1  0
 20 18  1  0
 20 22  1  0
 21 20  2  0
M  END
$$$$
