IAM.pdb
     RDKit          3D

 22 21  0  0  1  0  0  0  0  0999 V2000
   28.4612  -19.3315  -18.8932 C   0  0  0  0  0  0  0  0  0  0  0  0
   27.7313  -20.1837  -17.9122 C   0  0  0  0  0  0  0  0  0  0  0  0
   28.5864  -21.1676  -17.1862 C   0  0  2  0  0  0  0  0  0  0  0  0
   29.1143  -22.1689  -18.2126 C   0  0  0  0  0  0  0  0  0  0  0  0
   27.8738  -21.9562  -16.1295 C   0  0  2  0  0  0  0  0  0  0  0  0
   26.6378  -22.4494  -16.7507 N   0  0  0  0  0  0  0  0  0  0  0  0
   27.5024  -21.0995  -14.9825 C   0  0  0  0  0  0  0  0  0  0  0  0
   28.3677  -20.6222  -14.1842 O   0  0  0  0  0  0  0  0  0  0  0  0
   24.3030  -19.4147  -13.8650 C   0  0  0  0  0  0  0  0  0  0  0  0
   25.7261  -19.8862  -13.6633 C   0  0  2  0  0  0  0  0  0  0  0  0
   26.1605  -20.7713  -14.7222 N   0  0  0  0  0  0  0  0  0  0  0  0
   25.7455  -20.6666  -12.3982 C   0  0  0  0  0  0  0  0  0  0  0  0
   25.5477  -21.9088  -12.3711 O   0  0  0  0  0  0  0  0  0  0  0  0
   27.6372  -18.2164   -6.5811 C   0  0  0  0  0  0  0  0  0  0  0  0
   28.1795  -19.9557   -6.5604 S   0  0  0  0  0  0  0  0  0  0  0  0
   26.9778  -20.8677   -7.6060 C   0  0  0  0  0  0  0  0  0  0  0  0
   26.9465  -20.1323   -8.9278 C   0  0  0  0  0  0  0  0  0  0  0  0
   26.0403  -20.8038   -9.9432 C   0  0  2  0  0  0  0  0  0  0  0  0
   25.9930  -20.0186  -11.1586 N   0  0  0  0  0  0  0  0  0  0  0  0
   24.6835  -21.0037   -9.4460 C   0  0  0  0  0  0  0  0  0  0  0  0
   23.7467  -20.2787   -9.8493 O   0  0  0  0  0  0  0  0  0  0  0  0
   24.4037  -21.9938   -8.5229 O   0  0  0  0  0  0  0  0  0  0  0  0
  1  2  1  0
  3  2  1  0
  3  5  1  0
  3  4  1  6
  5  7  1  0
  5  6  1  6
  7 11  1  0
  7  8  2  0
 10  9  1  6
 10 12  1  0
 11 10  1  0
 12 13  2  0
 15 14  1  0
 15 16  1  0
 16 17  1  0
 18 17  1  1
 19 18  1  0
 19 12  1  0
 20 18  1  0
 20 22  1  0
 21 20  2  0
M  END
$$$$
