IAM.pdb
     RDKit          3D

 22 21  0  0  1  0  0  0  0  0999 V2000
   34.2052  -22.1861  -10.5374 C   0  0  0  0  0  0  0  0  0  0  0  0
   32.9661  -22.8150  -11.0764 C   0  0  0  0  0  0  0  0  0  0  0  0
   31.7528  -21.9486  -11.0171 C   0  0  2  0  0  0  0  0  0  0  0  0
   31.4649  -21.6547   -9.5455 C   0  0  0  0  0  0  0  0  0  0  0  0
   30.5141  -22.5660  -11.5922 C   0  0  2  0  0  0  0  0  0  0  0  0
   30.8535  -22.9613  -12.9653 N   0  0  0  0  0  0  0  0  0  0  0  0
   29.4084  -21.5858  -11.6555 C   0  0  0  0  0  0  0  0  0  0  0  0
   28.9472  -21.0156  -10.6181 O   0  0  0  0  0  0  0  0  0  0  0  0
   27.2235  -20.2243  -14.4531 C   0  0  0  0  0  0  0  0  0  0  0  0
   27.6179  -20.4306  -13.0075 C   0  0  2  0  0  0  0  0  0  0  0  0
   28.8123  -21.2373  -12.8800 N   0  0  0  0  0  0  0  0  0  0  0  0
   26.5077  -21.1785  -12.3612 C   0  0  0  0  0  0  0  0  0  0  0  0
   26.5744  -22.4131  -12.1281 O   0  0  0  0  0  0  0  0  0  0  0  0
   25.9804  -18.6430   -6.4847 C   0  0  0  0  0  0  0  0  0  0  0  0
   26.3137  -20.3605   -6.9934 S   0  0  0  0  0  0  0  0  0  0  0  0
   25.0152  -20.7805   -8.2208 C   0  0  0  0  0  0  0  0  0  0  0  0
   25.6551  -20.5792   -9.5769 C   0  0  0  0  0  0  0  0  0  0  0  0
   24.6874  -20.8338  -10.7178 C   0  0  2  0  0  0  0  0  0  0  0  0
   25.3153  -20.5067  -11.9806 N   0  0  0  0  0  0  0  0  0  0  0  0
   23.4467  -20.0777  -10.5870 C   0  0  0  0  0  0  0  0  0  0  0  0
   23.3029  -18.9865  -11.1823 O   0  0  0  0  0  0  0  0  0  0  0  0
   22.4071  -20.5476   -9.8064 O   0  0  0  0  0  0  0  0  0  0  0  0
  1  2  1  0
  3  2  1  0
  3  5  1  0
  3  4  1  1
  5  7  1  0
  5  6  1  6
  7 11  1  0
  7  8  2  0
 10  9  1  6
 10 12  1  0
 11 10  1  0
 12 13  2  0
 15 14  1  0
 15 16  1  0
 16 17  1  0
 18 17  1  1
 19 18  1  0
 19 12  1  0
 20 18  1  0
 20 22  1  0
 21 20  2  0
M  END
$$$$
