IAM.pdb
     RDKit          3D

 22 21  0  0  1  0  0  0  0  0999 V2000
   23.6632  -17.2913  -17.4131 C   0  0  0  0  0  0  0  0  0  0  0  0
   24.6185  -18.2447  -16.7808 C   0  0  0  0  0  0  0  0  0  0  0  0
   24.7642  -18.0909  -15.3038 C   0  0  2  0  0  0  0  0  0  0  0  0
   25.2285  -16.6610  -15.0304 C   0  0  0  0  0  0  0  0  0  0  0  0
   25.7702  -19.0070  -14.6754 C   0  0  2  0  0  0  0  0  0  0  0  0
   25.4911  -20.3474  -15.2067 N   0  0  0  0  0  0  0  0  0  0  0  0
   25.6080  -19.0514  -13.2060 C   0  0  0  0  0  0  0  0  0  0  0  0
   25.7839  -18.0290  -12.4730 O   0  0  0  0  0  0  0  0  0  0  0  0
   24.3612  -21.6505  -10.7450 C   0  0  0  0  0  0  0  0  0  0  0  0
   25.0475  -20.3557  -11.1197 C   0  0  2  0  0  0  0  0  0  0  0  0
   25.2475  -20.2403  -12.5480 N   0  0  0  0  0  0  0  0  0  0  0  0
   26.3916  -20.3819  -10.4853 C   0  0  0  0  0  0  0  0  0  0  0  0
   27.4420  -20.5968  -11.1436 O   0  0  0  0  0  0  0  0  0  0  0  0
   27.5422  -17.9248   -4.7846 C   0  0  0  0  0  0  0  0  0  0  0  0
   28.8222  -19.2136   -4.6428 S   0  0  0  0  0  0  0  0  0  0  0  0
   29.1199  -19.8143   -6.3515 C   0  0  0  0  0  0  0  0  0  0  0  0
   27.7678  -19.8016   -7.0299 C   0  0  0  0  0  0  0  0  0  0  0  0
   27.8482  -20.2069   -8.4902 C   0  0  2  0  0  0  0  0  0  0  0  0
   26.5310  -20.1608   -9.0890 N   0  0  0  0  0  0  0  0  0  0  0  0
   28.4160  -21.5375   -8.6777 C   0  0  0  0  0  0  0  0  0  0  0  0
   27.6870  -22.5528   -8.6172 O   0  0  0  0  0  0  0  0  0  0  0  0
   29.7655  -21.7058   -8.9255 O   0  0  0  0  0  0  0  0  0  0  0  0
  1  2  1  0
  3  2  1  0
  3  5  1  0
  3  4  1  6
  5  7  1  0
  5  6  1  6
  7 11  1  0
  7  8  2  0
 10  9  1  6
 10 12  1  0
 11 10  1  0
 12 13  2  0
 15 14  1  0
 15 16  1  0
 16 17  1  0
 18 17  1  1
 19 18  1  0
 19 12  1  0
 20 18  1  0
 20 22  1  0
 21 20  2  0
M  END
$$$$
