IAM.pdb
     RDKit          3D

 22 21  0  0  1  0  0  0  0  0999 V2000
   12.0252   -3.1427   -5.0464 C   0  0  0  0  0  0  0  0  0  0  0  0
   13.1373   -2.5322   -5.8286 C   0  0  0  0  0  0  0  0  0  0  0  0
   13.6310   -3.3667   -6.9626 C   0  0  2  0  0  0  0  0  0  0  0  0
   14.0963   -4.7032   -6.3862 C   0  0  0  0  0  0  0  0  0  0  0  0
   14.7914   -2.7832   -7.7104 C   0  0  2  0  0  0  0  0  0  0  0  0
   14.3388   -1.4809   -8.2166 N   0  0  0  0  0  0  0  0  0  0  0  0
   15.1582   -3.6254   -8.8695 C   0  0  0  0  0  0  0  0  0  0  0  0
   14.3362   -3.8934   -9.8003 O   0  0  0  0  0  0  0  0  0  0  0  0
   18.2921   -4.8067  -10.4840 C   0  0  0  0  0  0  0  0  0  0  0  0
   16.8605   -5.0552  -10.0637 C   0  0  2  0  0  0  0  0  0  0  0  0
   16.4471   -4.1724   -8.9944 N   0  0  0  0  0  0  0  0  0  0  0  0
   16.8012   -6.4446   -9.5386 C   0  0  0  0  0  0  0  0  0  0  0  0
   16.8109   -6.6989   -8.3064 O   0  0  0  0  0  0  0  0  0  0  0  0
   11.2456  -10.6083   -8.3156 C   0  0  0  0  0  0  0  0  0  0  0  0
   12.1311   -9.1456   -8.9451 S   0  0  0  0  0  0  0  0  0  0  0  0
   13.8381   -9.7124   -9.3112 C   0  0  0  0  0  0  0  0  0  0  0  0
   14.6137   -8.4648   -9.6725 C   0  0  0  0  0  0  0  0  0  0  0  0
   16.0633   -8.7610  -10.0102 C   0  0  2  0  0  0  0  0  0  0  0  0
   16.7305   -7.5472  -10.4314 N   0  0  0  0  0  0  0  0  0  0  0  0
   16.2065   -9.7746  -11.0496 C   0  0  0  0  0  0  0  0  0  0  0  0
   16.0541   -9.4736  -12.2546 O   0  0  0  0  0  0  0  0  0  0  0  0
   16.5126  -11.0837  -10.7281 O   0  0  0  0  0  0  0  0  0  0  0  0
  1  2  1  0
  3  2  1  0
  3  5  1  0
  3  4  1  1
  5  7  1  0
  5  6  1  6
  7 11  1  0
  7  8  2  0
 10  9  1  1
 10 12  1  0
 11 10  1  0
 12 13  2  0
 15 14  1  0
 15 16  1  0
 16 17  1  0
 18 17  1  6
 19 18  1  0
 19 12  1  0
 20 18  1  0
 20 22  1  0
 21 20  2  0
M  END
$$$$
