IAM.pdb
     RDKit          3D

 22 21  0  0  1  0  0  0  0  0999 V2000
   17.9886  -12.5044  -20.3653 C   0  0  0  0  0  0  0  0  0  0  0  0
   18.9948  -13.1216  -19.4553 C   0  0  0  0  0  0  0  0  0  0  0  0
   19.3725  -12.2790  -18.2833 C   0  0  2  0  0  0  0  0  0  0  0  0
   20.0233  -11.0046  -18.8193 C   0  0  0  0  0  0  0  0  0  0  0  0
   20.3557  -12.9138  -17.3470 C   0  0  2  0  0  0  0  0  0  0  0  0
   19.7224  -14.1476  -16.8635 N   0  0  0  0  0  0  0  0  0  0  0  0
   20.6202  -12.0445  -16.1800 C   0  0  0  0  0  0  0  0  0  0  0  0
   19.6855  -11.5635  -15.4667 O   0  0  0  0  0  0  0  0  0  0  0  0
   23.6704  -10.9647  -14.2382 C   0  0  0  0  0  0  0  0  0  0  0  0
   22.2672  -10.7594  -14.7644 C   0  0  2  0  0  0  0  0  0  0  0  0
   21.9324  -11.7085  -15.8039 N   0  0  0  0  0  0  0  0  0  0  0  0
   22.2302   -9.4040  -15.3738 C   0  0  0  0  0  0  0  0  0  0  0  0
   22.5371   -9.1988  -16.5766 O   0  0  0  0  0  0  0  0  0  0  0  0
   17.5335   -4.9738  -15.9027 C   0  0  0  0  0  0  0  0  0  0  0  0
   18.6633   -5.3475  -17.2825 S   0  0  0  0  0  0  0  0  0  0  0  0
   20.3459   -5.4035  -16.5512 C   0  0  0  0  0  0  0  0  0  0  0  0
   20.4885   -6.7892  -15.9611 C   0  0  0  0  0  0  0  0  0  0  0  0
   21.7989   -6.9705  -15.2175 C   0  0  2  0  0  0  0  0  0  0  0  0
   21.8395   -8.2790  -14.5995 N   0  0  0  0  0  0  0  0  0  0  0  0
   22.0172   -5.9498  -14.1983 C   0  0  0  0  0  0  0  0  0  0  0  0
   21.8405   -6.2138  -12.9880 O   0  0  0  0  0  0  0  0  0  0  0  0
   22.4221   -4.6744  -14.5452 O   0  0  0  0  0  0  0  0  0  0  0  0
  1  2  1  0
  3  2  1  0
  3  5  1  0
  3  4  1  6
  5  7  1  0
  5  6  1  1
  7 11  1  0
  7  8  2  0
 10  9  1  6
 10 12  1  0
 11 10  1  0
 12 13  2  0
 15 14  1  0
 15 16  1  0
 16 17  1  0
 18 17  1  1
 19 18  1  0
 19 12  1  0
 20 18  1  0
 20 22  1  0
 21 20  2  0
M  END
$$$$
