NPE.pdb
     RDKit          3D

 25 25  0  0  1  0  0  0  0  0999 V2000
   25.9974  -23.5394  -11.9095 N   0  0  0  0  0  0  0  0  0  0  0  0
   25.5991  -23.5032  -13.2661 C   0  0  0  0  0  0  0  0  0  0  0  0
   25.4360  -24.5559  -13.9102 O   0  0  0  0  0  0  0  0  0  0  0  0
   25.3832  -22.1783  -13.8928 C   0  0  0  0  0  0  0  0  0  0  0  0
   25.6477  -21.0978  -12.8514 C   0  0  2  0  0  0  0  0  0  0  0  0
   24.8305  -21.3274  -11.7005 N   0  0  0  0  0  0  0  0  0  0  0  0
   25.4166  -19.8035  -13.4995 C   0  0  0  0  0  0  0  0  0  0  0  0
   24.4786  -19.0948  -13.0265 O   0  0  0  0  0  0  0  0  0  0  0  0
   26.1611  -19.2983  -14.6049 N   0  0  0  0  0  0  0  0  0  0  0  0
   27.3245  -20.0162  -15.1091 C   0  0  0  0  0  0  0  0  0  0  0  0
   28.0285  -19.0757  -16.0276 C   0  0  0  0  0  0  0  0  0  0  0  0
   27.4052  -17.7099  -15.7466 C   0  0  0  0  0  0  0  0  0  0  0  0
   25.9784  -18.1330  -15.3939 C   0  0  1  0  0  0  0  0  0  0  0  0
   25.1855  -18.3922  -16.6141 C   0  0  0  0  0  0  0  0  0  0  0  0
   25.3914  -19.4264  -17.3237 O   0  0  0  0  0  0  0  0  0  0  0  0
   24.1868  -17.5131  -17.0282 N   0  0  0  0  0  0  0  0  0  0  0  0
   22.9890  -18.0042  -17.7302 C   0  0  1  0  0  0  0  0  0  0  0  0
   22.2575  -18.9869  -16.8772 C   0  0  0  0  0  0  0  0  0  0  0  0
   21.6562  -18.3708  -15.6636 C   0  0  0  0  0  0  0  0  0  0  0  0
   20.7596  -19.3647  -14.9595 C   0  0  0  0  0  0  0  0  0  0  0  0
   21.2617  -20.0133  -14.0271 O   0  0  0  0  0  0  0  0  0  0  0  0
   22.1289  -16.8803  -18.1341 C   0  0  0  0  0  0  0  0  0  0  0  0
   22.4376  -15.7215  -17.7239 O   0  0  0  0  0  0  0  0  0  0  0  0
   19.4433  -19.5388  -15.3406 O   0  0  0  0  0  0  0  0  0  0  0  0
   21.0221  -17.0159  -18.9262 O   0  0  0  0  0  0  0  0  0  0  0  0
  1  2  1  0
  2  3  2  0
  4  2  1  0
  5  4  1  0
  5  6  1  1
  7  5  1  0
  8  7  2  0
  9  7  1  0
  9 13  1  0
 10  9  1  0
 11 12  1  0
 11 10  1  0
 12 13  1  0
 13 14  1  6
 14 15  2  0
 16 14  1  0
 16 17  1  0
 17 22  1  0
 17 18  1  1
 19 18  1  0
 20 21  2  0
 20 19  1  0
 22 23  2  0
 22 25  1  0
 24 20  1  0
M  END
$$$$
