NPE.pdb
     RDKit          3D

 25 25  0  0  1  0  0  0  0  0999 V2000
   16.3623  -13.0381  -16.8592 N   0  0  0  0  0  0  0  0  0  0  0  0
   16.6981  -12.3418  -15.6749 C   0  0  0  0  0  0  0  0  0  0  0  0
   16.1120  -12.5865  -14.6043 O   0  0  0  0  0  0  0  0  0  0  0  0
   17.7649  -11.3164  -15.7493 C   0  0  0  0  0  0  0  0  0  0  0  0
   18.9510  -11.9015  -16.5062 C   0  0  2  0  0  0  0  0  0  0  0  0
   19.4394  -13.0563  -15.8183 N   0  0  0  0  0  0  0  0  0  0  0  0
   19.9418  -10.8316  -16.6555 C   0  0  0  0  0  0  0  0  0  0  0  0
   20.7758  -10.6986  -15.7107 O   0  0  0  0  0  0  0  0  0  0  0  0
   20.0286   -9.9475  -17.7701 N   0  0  0  0  0  0  0  0  0  0  0  0
   19.0309   -9.9875  -18.8313 C   0  0  0  0  0  0  0  0  0  0  0  0
   19.5865   -9.1814  -19.9560 C   0  0  0  0  0  0  0  0  0  0  0  0
   21.0607   -8.9839  -19.6086 C   0  0  0  0  0  0  0  0  0  0  0  0
   20.9731   -8.9355  -18.0824 C   0  0  1  0  0  0  0  0  0  0  0  0
   20.5470   -7.5985  -17.6181 C   0  0  0  0  0  0  0  0  0  0  0  0
   19.3356   -7.3646  -17.3128 O   0  0  0  0  0  0  0  0  0  0  0  0
   21.4570   -6.5499  -17.4995 N   0  0  0  0  0  0  0  0  0  0  0  0
   21.1248   -5.3430  -16.7239 C   0  0  1  0  0  0  0  0  0  0  0  0
   20.9634   -5.6856  -15.2799 C   0  0  0  0  0  0  0  0  0  0  0  0
   22.2529   -6.0039  -14.6092 C   0  0  0  0  0  0  0  0  0  0  0  0
   22.0397   -6.1915  -13.1236 C   0  0  0  0  0  0  0  0  0  0  0  0
   20.9012   -5.9599  -12.6849 O   0  0  0  0  0  0  0  0  0  0  0  0
   22.1417   -4.2992  -16.9303 C   0  0  0  0  0  0  0  0  0  0  0  0
   21.8958   -3.1375  -16.4872 O   0  0  0  0  0  0  0  0  0  0  0  0
   23.0680   -6.6015  -12.2975 O   0  0  0  0  0  0  0  0  0  0  0  0
   23.3327   -4.5131  -17.5680 O   0  0  0  0  0  0  0  0  0  0  0  0
  1  2  1  0
  2  3  2  0
  4  2  1  0
  5  4  1  0
  5  6  1  1
  7  5  1  0
  8  7  2  0
  9  7  1  0
  9 13  1  0
 10  9  1  0
 11 12  1  0
 11 10  1  0
 12 13  1  0
 13 14  1  6
 14 15  2  0
 16 14  1  0
 16 17  1  0
 17 22  1  0
 17 18  1  1
 19 18  1  0
 20 21  2  0
 20 19  1  0
 22 23  2  0
 22 25  1  0
 24 20  1  0
M  END
$$$$
