NPE.pdb
     RDKit          3D

 25 25  0  0  1  0  0  0  0  0999 V2000
   13.4501  -11.5024  -11.9630 N   0  0  0  0  0  0  0  0  0  0  0  0
   14.6343  -11.5243  -12.7360 C   0  0  0  0  0  0  0  0  0  0  0  0
   15.1003  -12.5991  -13.1571 O   0  0  0  0  0  0  0  0  0  0  0  0
   15.2993  -10.2327  -13.0270 C   0  0  0  0  0  0  0  0  0  0  0  0
   14.5012   -9.1145  -12.3678 C   0  0  2  0  0  0  0  0  0  0  0  0
   13.2750   -8.9153  -13.0764 N   0  0  0  0  0  0  0  0  0  0  0  0
   15.3651   -7.9311  -12.3246 C   0  0  0  0  0  0  0  0  0  0  0  0
   15.4448   -7.2510  -13.3908 O   0  0  0  0  0  0  0  0  0  0  0  0
   16.1077   -7.5023  -11.1860 N   0  0  0  0  0  0  0  0  0  0  0  0
   16.1119   -8.2901   -9.9603 C   0  0  0  0  0  0  0  0  0  0  0  0
   16.7057   -7.4179   -8.9066 C   0  0  0  0  0  0  0  0  0  0  0  0
   16.7112   -6.0159   -9.5127 C   0  0  0  0  0  0  0  0  0  0  0  0
   16.9274   -6.3612  -10.9868 C   0  0  1  0  0  0  0  0  0  0  0  0
   18.3538   -6.6314  -11.2643 C   0  0  0  0  0  0  0  0  0  0  0  0
   18.9902   -7.5241  -10.6212 O   0  0  0  0  0  0  0  0  0  0  0  0
   19.0491   -5.9179  -12.2385 N   0  0  0  0  0  0  0  0  0  0  0  0
   20.4324   -6.2750  -12.5960 C   0  0  1  0  0  0  0  0  0  0  0  0
   20.5067   -6.6784  -14.0313 C   0  0  0  0  0  0  0  0  0  0  0  0
   20.1017   -5.5917  -14.9635 C   0  0  0  0  0  0  0  0  0  0  0  0
   20.3027   -6.0282  -16.3977 C   0  0  0  0  0  0  0  0  0  0  0  0
   20.8614   -7.1222  -16.5799 O   0  0  0  0  0  0  0  0  0  0  0  0
   21.3489   -5.1650  -12.2894 C   0  0  0  0  0  0  0  0  0  0  0  0
   22.5915   -5.4135  -12.2631 O   0  0  0  0  0  0  0  0  0  0  0  0
   19.8821   -5.2416  -17.4524 O   0  0  0  0  0  0  0  0  0  0  0  0
   20.9363   -3.8859  -12.0354 O   0  0  0  0  0  0  0  0  0  0  0  0
  1  2  1  0
  2  3  2  0
  4  2  1  0
  5  4  1  0
  5  6  1  6
  7  5  1  0
  8  7  2  0
  9  7  1  0
  9 13  1  0
 10  9  1  0
 11 12  1  0
 11 10  1  0
 12 13  1  0
 13 14  1  1
 14 15  2  0
 16 14  1  0
 16 17  1  0
 17 22  1  0
 17 18  1  6
 19 18  1  0
 20 21  2  0
 20 19  1  0
 22 23  2  0
 22 25  1  0
 24 20  1  0
M  END
$$$$
