NPE.pdb
     RDKit          3D

 25 25  0  0  1  0  0  0  0  0999 V2000
   29.3772  -10.3888  -18.5310 N   0  0  0  0  0  0  0  0  0  0  0  0
   29.0293   -9.2162  -17.8209 C   0  0  0  0  0  0  0  0  0  0  0  0
   29.9086   -8.4435  -17.3975 O   0  0  0  0  0  0  0  0  0  0  0  0
   27.5911   -8.9385  -17.5982 C   0  0  0  0  0  0  0  0  0  0  0  0
   26.7747  -10.0562  -18.2357 C   0  0  2  0  0  0  0  0  0  0  0  0
   26.8691   -9.9698  -19.6601 N   0  0  0  0  0  0  0  0  0  0  0  0
   25.4073   -9.9443  -17.7198 C   0  0  0  0  0  0  0  0  0  0  0  0
   24.6002   -9.2487  -18.4058 O   0  0  0  0  0  0  0  0  0  0  0  0
   24.9334  -10.5529  -16.5212 N   0  0  0  0  0  0  0  0  0  0  0  0
   25.8349  -11.3141  -15.6662 C   0  0  0  0  0  0  0  0  0  0  0  0
   24.9698  -12.0545  -14.7034 C   0  0  0  0  0  0  0  0  0  0  0  0
   23.5579  -11.9418  -15.2751 C   0  0  0  0  0  0  0  0  0  0  0  0
   23.6428  -10.5629  -15.9312 C   0  0  1  0  0  0  0  0  0  0  0  0
   23.4674   -9.4885  -14.9313 C   0  0  0  0  0  0  0  0  0  0  0  0
   24.4509   -9.0570  -14.2517 O   0  0  0  0  0  0  0  0  0  0  0  0
   22.2199   -8.9126  -14.6996 N   0  0  0  0  0  0  0  0  0  0  0  0
   22.0989   -7.4949  -14.3201 C   0  0  1  0  0  0  0  0  0  0  0  0
   22.8445   -6.6364  -15.2873 C   0  0  0  0  0  0  0  0  0  0  0  0
   22.7468   -5.1852  -14.9736 C   0  0  0  0  0  0  0  0  0  0  0  0
   23.6852   -4.3928  -15.8564 C   0  0  0  0  0  0  0  0  0  0  0  0
   23.3215   -4.1919  -17.0267 O   0  0  0  0  0  0  0  0  0  0  0  0
   20.6832   -7.1055  -14.2183 C   0  0  0  0  0  0  0  0  0  0  0  0
   19.8676   -7.6186  -15.0415 O   0  0  0  0  0  0  0  0  0  0  0  0
   24.8903   -3.9171  -15.3774 O   0  0  0  0  0  0  0  0  0  0  0  0
   20.2009   -6.2273  -13.2871 O   0  0  0  0  0  0  0  0  0  0  0  0
  1  2  1  0
  2  3  2  0
  4  2  1  0
  5  4  1  0
  5  6  1  6
  7  5  1  0
  8  7  2  0
  9  7  1  0
  9 13  1  0
 10  9  1  0
 11 12  1  0
 11 10  1  0
 12 13  1  0
 13 14  1  1
 14 15  2  0
 16 14  1  0
 16 17  1  0
 17 22  1  0
 17 18  1  6
 19 18  1  0
 20 21  2  0
 20 19  1  0
 22 23  2  0
 22 25  1  0
 24 20  1  0
M  END
$$$$
