NPE.pdb
     RDKit          3D

 25 25  0  0  1  0  0  0  0  0999 V2000
   24.1446  -15.8671  -18.6474 N   0  0  0  0  0  0  0  0  0  0  0  0
   23.7233  -14.7049  -19.3347 C   0  0  0  0  0  0  0  0  0  0  0  0
   23.6218  -14.7003  -20.5754 O   0  0  0  0  0  0  0  0  0  0  0  0
   23.4082  -13.4989  -18.5340 C   0  0  0  0  0  0  0  0  0  0  0  0
   23.5619  -13.8408  -17.0570 C   0  0  2  0  0  0  0  0  0  0  0  0
   22.6605  -14.8956  -16.7102 N   0  0  0  0  0  0  0  0  0  0  0  0
   23.3523  -12.6031  -16.3002 C   0  0  0  0  0  0  0  0  0  0  0  0
   22.1868  -12.4127  -15.8408 O   0  0  0  0  0  0  0  0  0  0  0  0
   24.3518  -11.6178  -16.0515 N   0  0  0  0  0  0  0  0  0  0  0  0
   25.7073  -11.7883  -16.5580 C   0  0  0  0  0  0  0  0  0  0  0  0
   26.5428  -10.7661  -15.8646 C   0  0  0  0  0  0  0  0  0  0  0  0
   25.6729  -10.2597  -14.7157 C   0  0  0  0  0  0  0  0  0  0  0  0
   24.2877  -10.3847  -15.3520 C   0  0  1  0  0  0  0  0  0  0  0  0
   24.0091   -9.2398  -16.2443 C   0  0  0  0  0  0  0  0  0  0  0  0
   24.3078   -9.2815  -17.4790 O   0  0  0  0  0  0  0  0  0  0  0  0
   23.4104   -8.0770  -15.7635 N   0  0  0  0  0  0  0  0  0  0  0  0
   22.3161   -7.4267  -16.5040 C   0  0  1  0  0  0  0  0  0  0  0  0
   21.1694   -8.3690  -16.6632 C   0  0  0  0  0  0  0  0  0  0  0  0
   20.1315   -8.2068  -15.6094 C   0  0  0  0  0  0  0  0  0  0  0  0
   18.8247   -8.8203  -16.0607 C   0  0  0  0  0  0  0  0  0  0  0  0
   18.6867   -9.0174  -17.2790 O   0  0  0  0  0  0  0  0  0  0  0  0
   21.9121   -6.1775  -15.8388 C   0  0  0  0  0  0  0  0  0  0  0  0
   22.0607   -6.1011  -14.5824 O   0  0  0  0  0  0  0  0  0  0  0  0
   17.8337   -9.1442  -15.1546 O   0  0  0  0  0  0  0  0  0  0  0  0
   21.3905   -5.0987  -16.4984 O   0  0  0  0  0  0  0  0  0  0  0  0
  1  2  1  0
  2  3  2  0
  4  2  1  0
  5  4  1  0
  5  6  1  1
  7  5  1  0
  8  7  2  0
  9  7  1  0
  9 13  1  0
 10  9  1  0
 11 12  1  0
 11 10  1  0
 12 13  1  0
 13 14  1  6
 14 15  2  0
 16 14  1  0
 16 17  1  0
 17 22  1  0
 17 18  1  1
 19 18  1  0
 20 21  2  0
 20 19  1  0
 22 23  2  0
 22 25  1  0
 24 20  1  0
M  END
$$$$
