NPE.pdb
     RDKit          3D

 25 25  0  0  1  0  0  0  0  0999 V2000
   20.4146  -19.4647  -15.8841 N   0  0  0  0  0  0  0  0  0  0  0  0
   20.2387  -20.8662  -15.9559 C   0  0  0  0  0  0  0  0  0  0  0  0
   19.4008  -21.3641  -16.7303 O   0  0  0  0  0  0  0  0  0  0  0  0
   21.0800  -21.7187  -15.0839 C   0  0  0  0  0  0  0  0  0  0  0  0
   21.9991  -20.8206  -14.2648 C   0  0  2  0  0  0  0  0  0  0  0  0
   23.3225  -20.8648  -14.8049 N   0  0  0  0  0  0  0  0  0  0  0  0
   21.9081  -21.2619  -12.8701 C   0  0  0  0  0  0  0  0  0  0  0  0
   22.5724  -22.2957  -12.5605 O   0  0  0  0  0  0  0  0  0  0  0  0
   21.1371  -20.6193  -11.8579 N   0  0  0  0  0  0  0  0  0  0  0  0
   20.2873  -19.4805  -12.1802 C   0  0  0  0  0  0  0  0  0  0  0  0
   19.8900  -18.8752  -10.8766 C   0  0  0  0  0  0  0  0  0  0  0  0
   20.8225  -19.5100   -9.8469 C   0  0  0  0  0  0  0  0  0  0  0  0
   21.0105  -20.8935  -10.4713 C   0  0  1  0  0  0  0  0  0  0  0  0
   19.8610  -21.7721  -10.1690 C   0  0  0  0  0  0  0  0  0  0  0  0
   18.8873  -21.8814  -10.9785 O   0  0  0  0  0  0  0  0  0  0  0  0
   19.8052  -22.5096   -8.9881 N   0  0  0  0  0  0  0  0  0  0  0  0
   18.7558  -23.5207   -8.7756 C   0  0  1  0  0  0  0  0  0  0  0  0
   18.9590  -24.2079   -7.4660 C   0  0  0  0  0  0  0  0  0  0  0  0
   17.9102  -25.2213   -7.1711 C   0  0  0  0  0  0  0  0  0  0  0  0
   18.2297  -25.9483   -5.8838 C   0  0  0  0  0  0  0  0  0  0  0  0
   17.3829  -26.7564   -5.4689 O   0  0  0  0  0  0  0  0  0  0  0  0
   17.4207  -22.9091   -8.8735 C   0  0  0  0  0  0  0  0  0  0  0  0
   16.4886  -23.6011   -9.3821 O   0  0  0  0  0  0  0  0  0  0  0  0
   19.4108  -25.7197   -5.2051 O   0  0  0  0  0  0  0  0  0  0  0  0
   17.1308  -21.6428   -8.4453 O   0  0  0  0  0  0  0  0  0  0  0  0
  1  2  1  0
  2  3  2  0
  4  2  1  0
  5  4  1  0
  5  6  1  6
  7  5  1  0
  8  7  2  0
  9  7  1  0
  9 13  1  0
 10  9  1  0
 11 12  1  0
 11 10  1  0
 12 13  1  0
 13 14  1  6
 14 15  2  0
 16 14  1  0
 16 17  1  0
 17 22  1  0
 17 18  1  1
 19 18  1  0
 20 21  2  0
 20 19  1  0
 22 23  2  0
 22 25  1  0
 24 20  1  0
M  END
$$$$
