CKD.pdb
     RDKit          3D

 24 23  0  0  1  0  0  0  0  0999 V2000
   34.6728   -9.0812  -15.2380 N   0  0  0  0  0  0  0  0  0  0  0  0
   35.0034   -8.8752  -16.6281 C   0  0  1  0  0  0  0  0  0  0  0  0
   36.0659   -9.8528  -17.0530 C   0  0  0  0  0  0  0  0  0  0  0  0
   37.5430   -9.8032  -16.0450 S   0  0  0  0  0  0  0  0  0  0  0  0
   33.7893   -8.9211  -17.4394 C   0  0  0  0  0  0  0  0  0  0  0  0
   33.7548   -8.2698  -18.5153 O   0  0  0  0  0  0  0  0  0  0  0  0
   32.6203   -9.6446  -17.1244 N   0  0  0  0  0  0  0  0  0  0  0  0
   31.4013   -9.6564  -17.9087 C   0  0  1  0  0  0  0  0  0  0  0  0
   30.5583  -10.8738  -17.6108 C   0  0  0  0  0  0  0  0  0  0  0  0
   31.1131  -12.1163  -18.2748 C   0  0  0  0  0  0  0  0  0  0  0  0
   30.3559  -13.3511  -17.9100 C   0  0  0  0  0  0  0  0  0  0  0  0
   30.9203  -14.6015  -18.5330 C   0  0  0  0  0  0  0  0  0  0  0  0
   30.0981  -15.7164  -18.1009 N   0  0  0  0  0  0  0  0  0  0  0  0
   30.5916   -8.4593  -17.7369 C   0  0  0  0  0  0  0  0  0  0  0  0
   30.3452   -7.9620  -16.6163 O   0  0  0  0  0  0  0  0  0  0  0  0
   30.0496   -7.8127  -18.8719 N   0  0  0  0  0  0  0  0  0  0  0  0
   29.2375   -6.6319  -18.7087 C   0  0  1  0  0  0  0  0  0  0  0  0
   30.1062   -5.4183  -18.8099 C   0  0  0  0  0  0  0  0  0  0  0  0
   29.3218   -4.1865  -18.7784 C   0  0  0  0  0  0  0  0  0  0  0  0
   28.1447   -4.0885  -18.3779 O   0  0  0  0  0  0  0  0  0  0  0  0
   28.1126   -6.6020  -19.6739 C   0  0  0  0  0  0  0  0  0  0  0  0
   26.8985   -6.0590  -19.3172 O   0  0  0  0  0  0  0  0  0  0  0  0
   29.9748   -3.0224  -19.2463 O   0  0  0  0  0  0  0  0  0  0  0  0
   28.2889   -7.0802  -20.8191 O   0  0  0  0  0  0  0  0  0  0  0  0
  2  1  1  1
  2  5  1  0
  3  2  1  0
  3  4  1  0
  5  6  2  0
  7  5  1  0
  7  8  1  0
  8  9  1  1
 10  9  1  0
 11 10  1  0
 12 11  1  0
 13 12  1  0
 14  8  1  0
 14 15  2  0
 16 14  1  0
 17 16  1  0
 17 18  1  6
 19 18  1  0
 19 20  2  0
 21 22  1  0
 21 17  1  0
 23 19  1  0
 24 21  2  0
M  END
$$$$
