CKD.pdb
     RDKit          3D

 24 23  0  0  1  0  0  0  0  0999 V2000
   13.7008   -8.7686   -7.8523 N   0  0  0  0  0  0  0  0  0  0  0  0
   14.4273   -7.5953   -8.2762 C   0  0  1  0  0  0  0  0  0  0  0  0
   14.8924   -6.8179   -7.0743 C   0  0  0  0  0  0  0  0  0  0  0  0
   13.5622   -6.2026   -6.0484 S   0  0  0  0  0  0  0  0  0  0  0  0
   15.4990   -7.9788   -9.1920 C   0  0  0  0  0  0  0  0  0  0  0  0
   16.3800   -8.7825   -8.7908 O   0  0  0  0  0  0  0  0  0  0  0  0
   15.6455   -7.5228  -10.5186 N   0  0  0  0  0  0  0  0  0  0  0  0
   16.6555   -7.9726  -11.4561 C   0  0  1  0  0  0  0  0  0  0  0  0
   16.0375   -8.6053  -12.6805 C   0  0  0  0  0  0  0  0  0  0  0  0
   15.4282   -9.9555  -12.3672 C   0  0  0  0  0  0  0  0  0  0  0  0
   14.8295  -10.6100  -13.5689 C   0  0  0  0  0  0  0  0  0  0  0  0
   14.1658  -11.9271  -13.2610 C   0  0  0  0  0  0  0  0  0  0  0  0
   13.6959  -12.4854  -14.5153 N   0  0  0  0  0  0  0  0  0  0  0  0
   17.5695   -6.9188  -11.8710 C   0  0  0  0  0  0  0  0  0  0  0  0
   17.2047   -5.7363  -12.0509 O   0  0  0  0  0  0  0  0  0  0  0  0
   18.9343   -7.2211  -12.0855 N   0  0  0  0  0  0  0  0  0  0  0  0
   19.8429   -6.1852  -12.5123 C   0  0  1  0  0  0  0  0  0  0  0  0
   21.2499   -6.6693  -12.3582 C   0  0  0  0  0  0  0  0  0  0  0  0
   22.2191   -5.6572  -12.7702 C   0  0  0  0  0  0  0  0  0  0  0  0
   23.2632   -5.8760  -13.4163 O   0  0  0  0  0  0  0  0  0  0  0  0
   19.5502   -5.7339  -13.8938 C   0  0  0  0  0  0  0  0  0  0  0  0
   18.9571   -6.5865  -14.7978 O   0  0  0  0  0  0  0  0  0  0  0  0
   21.9254   -4.3261  -12.3925 O   0  0  0  0  0  0  0  0  0  0  0  0
   19.8531   -4.5624  -14.2215 O   0  0  0  0  0  0  0  0  0  0  0  0
  2  1  1  1
  2  5  1  0
  3  2  1  0
  3  4  1  0
  5  6  2  0
  7  5  1  0
  7  8  1  0
  8  9  1  6
 10  9  1  0
 11 10  1  0
 12 11  1  0
 13 12  1  0
 14  8  1  0
 14 15  2  0
 16 14  1  0
 17 16  1  0
 17 18  1  6
 19 18  1  0
 19 20  2  0
 21 22  1  0
 21 17  1  0
 23 19  1  0
 24 21  2  0
M  END
$$$$
