CKD.pdb
     RDKit          3D

 24 23  0  0  1  0  0  0  0  0999 V2000
   14.6182  -11.6116  -11.1391 N   0  0  0  0  0  0  0  0  0  0  0  0
   14.7865  -10.3144  -11.7501 C   0  0  1  0  0  0  0  0  0  0  0  0
   14.3265   -9.2383  -10.8038 C   0  0  0  0  0  0  0  0  0  0  0  0
   12.7026   -9.5264  -10.1107 S   0  0  0  0  0  0  0  0  0  0  0  0
   16.1640  -10.1574  -12.2106 C   0  0  0  0  0  0  0  0  0  0  0  0
   17.1012  -10.5119  -11.4496 O   0  0  0  0  0  0  0  0  0  0  0  0
   16.5555   -9.6326  -13.4598 N   0  0  0  0  0  0  0  0  0  0  0  0
   17.9196   -9.5316  -13.9396 C   0  0  1  0  0  0  0  0  0  0  0  0
   18.0806  -10.1668  -15.3005 C   0  0  0  0  0  0  0  0  0  0  0  0
   17.9099  -11.6701  -15.2415 C   0  0  0  0  0  0  0  0  0  0  0  0
   17.8859  -12.3006  -16.5953 C   0  0  0  0  0  0  0  0  0  0  0  0
   17.8020  -13.8043  -16.5506 C   0  0  0  0  0  0  0  0  0  0  0  0
   17.7275  -14.2804  -17.9193 N   0  0  0  0  0  0  0  0  0  0  0  0
   18.4160   -8.1643  -13.9875 C   0  0  0  0  0  0  0  0  0  0  0  0
   17.6796   -7.1834  -14.2312 O   0  0  0  0  0  0  0  0  0  0  0  0
   19.7867   -7.9091  -13.7507 N   0  0  0  0  0  0  0  0  0  0  0  0
   20.2940   -6.5617  -13.8385 C   0  0  1  0  0  0  0  0  0  0  0  0
   21.6296   -6.4931  -13.1684 C   0  0  0  0  0  0  0  0  0  0  0  0
   22.1998   -5.1499  -13.2332 C   0  0  0  0  0  0  0  0  0  0  0  0
   21.7692   -4.1510  -12.6231 O   0  0  0  0  0  0  0  0  0  0  0  0
   20.3419   -6.0839  -15.2411 C   0  0  0  0  0  0  0  0  0  0  0  0
   20.0757   -4.7667  -15.5413 O   0  0  0  0  0  0  0  0  0  0  0  0
   23.3342   -4.9964  -14.0640 O   0  0  0  0  0  0  0  0  0  0  0  0
   20.6291   -6.9019  -16.1465 O   0  0  0  0  0  0  0  0  0  0  0  0
  2  1  1  1
  2  5  1  0
  3  2  1  0
  3  4  1  0
  5  6  2  0
  7  5  1  0
  7  8  1  0
  8  9  1  6
 10  9  1  0
 11 10  1  0
 12 11  1  0
 13 12  1  0
 14  8  1  0
 14 15  2  0
 16 14  1  0
 17 16  1  0
 17 18  1  6
 19 18  1  0
 19 20  2  0
 21 22  1  0
 21 17  1  0
 23 19  1  0
 24 21  2  0
M  END
$$$$
