CKD.pdb
     RDKit          3D

 24 23  0  0  1  0  0  0  0  0999 V2000
   17.9826  -11.8903  -15.1635 N   0  0  0  0  0  0  0  0  0  0  0  0
   18.1200  -10.6280  -15.8505 C   0  0  1  0  0  0  0  0  0  0  0  0
   16.8454   -9.8369  -15.7296 C   0  0  0  0  0  0  0  0  0  0  0  0
   15.6142  -10.2513  -16.9597 S   0  0  0  0  0  0  0  0  0  0  0  0
   19.3074   -9.9267  -15.3681 C   0  0  0  0  0  0  0  0  0  0  0  0
   19.3314   -9.5257  -14.1758 O   0  0  0  0  0  0  0  0  0  0  0  0
   20.4608   -9.6484  -16.1305 N   0  0  0  0  0  0  0  0  0  0  0  0
   21.6233   -8.9200  -15.6622 C   0  0  1  0  0  0  0  0  0  0  0  0
   22.8836   -9.3720  -16.3613 C   0  0  0  0  0  0  0  0  0  0  0  0
   23.4137  -10.6660  -15.7806 C   0  0  0  0  0  0  0  0  0  0  0  0
   24.5407  -11.2361  -16.5781 C   0  0  0  0  0  0  0  0  0  0  0  0
   24.9768  -12.5980  -16.1036 C   0  0  0  0  0  0  0  0  0  0  0  0
   26.0579  -13.0375  -16.9660 N   0  0  0  0  0  0  0  0  0  0  0  0
   21.4933   -7.4765  -15.7949 C   0  0  0  0  0  0  0  0  0  0  0  0
   21.2347   -6.9158  -16.8824 O   0  0  0  0  0  0  0  0  0  0  0  0
   21.6619   -6.6516  -14.6586 N   0  0  0  0  0  0  0  0  0  0  0  0
   21.5359   -5.2201  -14.7828 C   0  0  1  0  0  0  0  0  0  0  0  0
   20.1058   -4.8725  -15.0505 C   0  0  0  0  0  0  0  0  0  0  0  0
   19.9037   -3.4276  -15.1211 C   0  0  0  0  0  0  0  0  0  0  0  0
   20.6333   -2.6242  -15.7359 O   0  0  0  0  0  0  0  0  0  0  0  0
   22.0739   -4.5169  -13.5938 C   0  0  0  0  0  0  0  0  0  0  0  0
   22.2533   -3.1517  -13.6097 O   0  0  0  0  0  0  0  0  0  0  0  0
   18.7800   -2.9232  -14.4259 O   0  0  0  0  0  0  0  0  0  0  0  0
   22.3616   -5.1890  -12.5755 O   0  0  0  0  0  0  0  0  0  0  0  0
  2  1  1  1
  2  5  1  0
  3  2  1  0
  3  4  1  0
  5  6  2  0
  7  5  1  0
  7  8  1  0
  8  9  1  6
 10  9  1  0
 11 10  1  0
 12 11  1  0
 13 12  1  0
 14  8  1  0
 14 15  2  0
 16 14  1  0
 17 16  1  0
 17 18  1  1
 19 18  1  0
 19 20  2  0
 21 22  1  0
 21 17  1  0
 23 19  1  0
 24 21  2  0
M  END
$$$$
