CKD.pdb
     RDKit          3D

 24 23  0  0  1  0  0  0  0  0999 V2000
   26.2885  -21.8470  -15.1584 N   0  0  0  0  0  0  0  0  0  0  0  0
   26.2733  -20.9766  -14.0068 C   0  0  1  0  0  0  0  0  0  0  0  0
   27.5362  -20.1590  -13.9650 C   0  0  0  0  0  0  0  0  0  0  0  0
   27.8366  -19.2107  -15.4519 S   0  0  0  0  0  0  0  0  0  0  0  0
   25.0465  -20.1833  -14.0002 C   0  0  0  0  0  0  0  0  0  0  0  0
   24.7927  -19.4687  -12.9962 O   0  0  0  0  0  0  0  0  0  0  0  0
   24.0933  -20.1398  -15.0387 N   0  0  0  0  0  0  0  0  0  0  0  0
   22.8358  -19.4200  -14.9969 C   0  0  1  0  0  0  0  0  0  0  0  0
   22.6673  -18.5213  -16.1992 C   0  0  0  0  0  0  0  0  0  0  0  0
   21.4194  -17.6705  -16.0930 C   0  0  0  0  0  0  0  0  0  0  0  0
   21.1548  -16.8791  -17.3318 C   0  0  0  0  0  0  0  0  0  0  0  0
   19.9096  -16.0354  -17.2448 C   0  0  0  0  0  0  0  0  0  0  0  0
   19.7407  -15.3695  -18.5230 N   0  0  0  0  0  0  0  0  0  0  0  0
   21.6749  -20.2903  -14.8830 C   0  0  0  0  0  0  0  0  0  0  0  0
   21.5324  -21.3248  -15.5709 O   0  0  0  0  0  0  0  0  0  0  0  0
   20.6508  -19.9731  -13.9606 N   0  0  0  0  0  0  0  0  0  0  0  0
   19.5187  -20.8543  -13.8103 C   0  0  1  0  0  0  0  0  0  0  0  0
   19.2512  -21.0693  -12.3544 C   0  0  0  0  0  0  0  0  0  0  0  0
   18.1115  -21.9570  -12.1385 C   0  0  0  0  0  0  0  0  0  0  0  0
   17.3925  -22.4423  -13.0346 O   0  0  0  0  0  0  0  0  0  0  0  0
   18.3284  -20.3462  -14.5332 C   0  0  0  0  0  0  0  0  0  0  0  0
   17.4466  -21.2191  -15.1303 O   0  0  0  0  0  0  0  0  0  0  0  0
   17.8204  -22.2773  -10.7919 O   0  0  0  0  0  0  0  0  0  0  0  0
   18.1413  -19.1080  -14.5898 O   0  0  0  0  0  0  0  0  0  0  0  0
  2  1  1  6
  2  5  1  0
  3  2  1  0
  3  4  1  0
  5  6  2  0
  7  5  1  0
  7  8  1  0
  8  9  1  6
 10  9  1  0
 11 10  1  0
 12 11  1  0
 13 12  1  0
 14  8  1  0
 14 15  2  0
 16 14  1  0
 17 16  1  0
 17 18  1  1
 19 18  1  0
 19 20  2  0
 21 22  1  0
 21 17  1  0
 23 19  1  0
 24 21  2  0
M  END
$$$$
