CKD.pdb
     RDKit          3D

 24 23  0  0  1  0  0  0  0  0999 V2000
   26.3429  -11.3946  -17.7755 N   0  0  0  0  0  0  0  0  0  0  0  0
   25.7169  -11.0605  -16.5183 C   0  0  1  0  0  0  0  0  0  0  0  0
   26.7247  -10.4305  -15.5949 C   0  0  0  0  0  0  0  0  0  0  0  0
   28.0315  -11.5392  -15.0814 S   0  0  0  0  0  0  0  0  0  0  0  0
   24.5302  -10.2423  -16.7564 C   0  0  0  0  0  0  0  0  0  0  0  0
   24.5170   -9.4687  -17.7485 O   0  0  0  0  0  0  0  0  0  0  0  0
   23.3662  -10.2358  -15.9600 N   0  0  0  0  0  0  0  0  0  0  0  0
   22.1897   -9.4226  -16.1964 C   0  0  1  0  0  0  0  0  0  0  0  0
   20.9232  -10.2435  -16.1365 C   0  0  0  0  0  0  0  0  0  0  0  0
   19.7092   -9.4316  -16.5361 C   0  0  0  0  0  0  0  0  0  0  0  0
   18.4317  -10.1887  -16.3755 C   0  0  0  0  0  0  0  0  0  0  0  0
   17.2304   -9.4484  -16.9036 C   0  0  0  0  0  0  0  0  0  0  0  0
   16.0680  -10.2910  -16.6920 N   0  0  0  0  0  0  0  0  0  0  0  0
   22.0733   -8.2950  -15.2836 C   0  0  0  0  0  0  0  0  0  0  0  0
   22.2040   -8.4084  -14.0452 O   0  0  0  0  0  0  0  0  0  0  0  0
   21.8015   -7.0053  -15.7964 N   0  0  0  0  0  0  0  0  0  0  0  0
   21.6719   -5.8853  -14.8967 C   0  0  1  0  0  0  0  0  0  0  0  0
   22.2618   -4.6684  -15.5362 C   0  0  0  0  0  0  0  0  0  0  0  0
   22.0974   -3.4829  -14.6990 C   0  0  0  0  0  0  0  0  0  0  0  0
   21.7149   -2.3642  -15.0960 O   0  0  0  0  0  0  0  0  0  0  0  0
   20.2648   -5.6768  -14.4795 C   0  0  0  0  0  0  0  0  0  0  0  0
   19.2292   -5.9716  -15.3378 O   0  0  0  0  0  0  0  0  0  0  0  0
   22.4043   -3.6439  -13.3276 O   0  0  0  0  0  0  0  0  0  0  0  0
   20.0372   -5.2276  -13.3315 O   0  0  0  0  0  0  0  0  0  0  0  0
  2  1  1  6
  2  5  1  0
  3  2  1  0
  3  4  1  0
  5  6  2  0
  7  5  1  0
  7  8  1  0
  8  9  1  1
 10  9  1  0
 11 10  1  0
 12 11  1  0
 13 12  1  0
 14  8  1  0
 14 15  2  0
 16 14  1  0
 17 16  1  0
 17 18  1  6
 19 18  1  0
 19 20  2  0
 21 22  1  0
 21 17  1  0
 23 19  1  0
 24 21  2  0
M  END
$$$$
