CKD.pdb
     RDKit          3D

 24 23  0  0  1  0  0  0  0  0999 V2000
   26.8973  -14.9740  -17.0532 N   0  0  0  0  0  0  0  0  0  0  0  0
   25.9343  -14.9575  -15.9778 C   0  0  1  0  0  0  0  0  0  0  0  0
   25.7752  -13.5558  -15.4533 C   0  0  0  0  0  0  0  0  0  0  0  0
   27.2276  -12.9221  -14.6230 S   0  0  0  0  0  0  0  0  0  0  0  0
   24.6866  -15.5765  -16.4189 C   0  0  0  0  0  0  0  0  0  0  0  0
   24.3589  -15.4823  -17.6299 O   0  0  0  0  0  0  0  0  0  0  0  0
   23.7898  -16.2889  -15.5960 N   0  0  0  0  0  0  0  0  0  0  0  0
   22.4912  -16.7888  -16.0022 C   0  0  1  0  0  0  0  0  0  0  0  0
   22.1081  -18.0332  -15.2364 C   0  0  0  0  0  0  0  0  0  0  0  0
   20.7736  -18.5839  -15.6927 C   0  0  0  0  0  0  0  0  0  0  0  0
   20.4093  -19.8569  -15.0016 C   0  0  0  0  0  0  0  0  0  0  0  0
   19.1158  -20.4526  -15.4936 C   0  0  0  0  0  0  0  0  0  0  0  0
   18.9502  -21.7395  -14.8438 N   0  0  0  0  0  0  0  0  0  0  0  0
   21.4274  -15.8034  -15.8779 C   0  0  0  0  0  0  0  0  0  0  0  0
   21.3027  -15.0622  -14.8784 O   0  0  0  0  0  0  0  0  0  0  0  0
   20.4824  -15.6590  -16.9201 N   0  0  0  0  0  0  0  0  0  0  0  0
   19.4089  -14.7042  -16.7916 C   0  0  1  0  0  0  0  0  0  0  0  0
   18.7038  -14.9271  -15.4913 C   0  0  0  0  0  0  0  0  0  0  0  0
   17.5646  -14.0271  -15.3317 C   0  0  0  0  0  0  0  0  0  0  0  0
   16.6100  -13.9202  -16.1272 O   0  0  0  0  0  0  0  0  0  0  0  0
   19.8936  -13.3109  -16.9385 C   0  0  0  0  0  0  0  0  0  0  0  0
   21.2358  -13.0502  -17.1007 O   0  0  0  0  0  0  0  0  0  0  0  0
   17.5685  -13.2206  -14.1697 O   0  0  0  0  0  0  0  0  0  0  0  0
   19.0581  -12.3767  -16.9120 O   0  0  0  0  0  0  0  0  0  0  0  0
  2  1  1  6
  2  5  1  0
  3  2  1  0
  3  4  1  0
  5  6  2  0
  7  5  1  0
  7  8  1  0
  8  9  1  1
 10  9  1  0
 11 10  1  0
 12 11  1  0
 13 12  1  0
 14  8  1  0
 14 15  2  0
 16 14  1  0
 17 16  1  0
 17 18  1  1
 19 18  1  0
 19 20  2  0
 21 22  1  0
 21 17  1  0
 23 19  1  0
 24 21  2  0
M  END
$$$$
