CKD.pdb
     RDKit          3D

 24 23  0  0  1  0  0  0  0  0999 V2000
   25.6375  -14.3808  -17.4143 N   0  0  0  0  0  0  0  0  0  0  0  0
   25.0392  -13.7780  -16.2469 C   0  0  1  0  0  0  0  0  0  0  0  0
   26.1005  -13.1144  -15.4113 C   0  0  0  0  0  0  0  0  0  0  0  0
   27.3942  -14.2233  -14.8662 S   0  0  0  0  0  0  0  0  0  0  0  0
   23.9517  -12.8891  -16.6491 C   0  0  0  0  0  0  0  0  0  0  0  0
   24.1193  -12.1396  -17.6456 O   0  0  0  0  0  0  0  0  0  0  0  0
   22.6981  -12.7874  -16.0110 N   0  0  0  0  0  0  0  0  0  0  0  0
   21.6239  -11.8969  -16.4040 C   0  0  1  0  0  0  0  0  0  0  0  0
   20.2690  -12.4797  -16.0781 C   0  0  0  0  0  0  0  0  0  0  0  0
   19.9474  -13.6740  -16.9515 C   0  0  0  0  0  0  0  0  0  0  0  0
   19.3491  -14.8058  -16.1820 C   0  0  0  0  0  0  0  0  0  0  0  0
   18.9503  -15.9710  -17.0499 C   0  0  0  0  0  0  0  0  0  0  0  0
   18.5373  -17.0504  -16.1725 N   0  0  0  0  0  0  0  0  0  0  0  0
   21.7285  -10.5698  -15.8159 C   0  0  0  0  0  0  0  0  0  0  0  0
   22.1340  -10.3749  -14.6491 O   0  0  0  0  0  0  0  0  0  0  0  0
   21.3621   -9.4362  -16.5780 N   0  0  0  0  0  0  0  0  0  0  0  0
   21.5098   -8.1145  -16.0194 C   0  0  1  0  0  0  0  0  0  0  0  0
   21.2700   -7.0973  -17.0896 C   0  0  0  0  0  0  0  0  0  0  0  0
   21.4136   -5.7346  -16.5837 C   0  0  0  0  0  0  0  0  0  0  0  0
   20.5772   -4.8197  -16.7218 O   0  0  0  0  0  0  0  0  0  0  0  0
   20.6291   -7.9143  -14.8438 C   0  0  0  0  0  0  0  0  0  0  0  0
   21.0850   -7.2370  -13.7350 O   0  0  0  0  0  0  0  0  0  0  0  0
   22.6098   -5.4556  -15.8824 O   0  0  0  0  0  0  0  0  0  0  0  0
   19.4632   -8.3733  -14.8797 O   0  0  0  0  0  0  0  0  0  0  0  0
  2  1  1  6
  2  5  1  0
  3  2  1  0
  3  4  1  0
  5  6  2  0
  7  5  1  0
  7  8  1  0
  8  9  1  1
 10  9  1  0
 11 10  1  0
 12 11  1  0
 13 12  1  0
 14  8  1  0
 14 15  2  0
 16 14  1  0
 17 16  1  0
 17 18  1  6
 19 18  1  0
 19 20  2  0
 21 22  1  0
 21 17  1  0
 23 19  1  0
 24 21  2  0
M  END
$$$$
