KYQ.pdb
     RDKit          3D

 31 31  0  0  1  0  0  0  0  0999 V2000
   19.2875  -20.9271  -11.5844 N   0  0  0  0  0  0  0  0  0  0  0  0
   19.9356  -21.6653  -12.6487 C   0  0  1  0  0  0  0  0  0  0  0  0
   18.9290  -21.7443  -13.7899 C   0  0  0  0  0  0  0  0  0  0  0  0
   17.9955  -22.8716  -13.4458 C   0  0  0  0  0  0  0  0  0  0  0  0
   17.0537  -23.2907  -14.5145 C   0  0  0  0  0  0  0  0  0  0  0  0
   16.1316  -24.4113  -14.1402 C   0  0  0  0  0  0  0  0  0  0  0  0
   15.1987  -24.7168  -15.1701 N   0  0  0  0  0  0  0  0  0  0  0  0
   21.1542  -20.9312  -13.0487 C   0  0  0  0  0  0  0  0  0  0  0  0
   21.1194  -19.6804  -13.1100 O   0  0  0  0  0  0  0  0  0  0  0  0
   29.6058  -19.8589  -15.7698 O   0  0  0  0  0  0  0  0  0  0  0  0
   28.4310  -20.2825  -15.2017 C   0  0  0  0  0  0  0  0  0  0  0  0
   27.8690  -19.5611  -14.1498 C   0  0  0  0  0  0  0  0  0  0  0  0
   26.6898  -19.9855  -13.5787 C   0  0  0  0  0  0  0  0  0  0  0  0
   26.0243  -21.1120  -14.0053 C   0  0  0  0  0  0  0  0  0  0  0  0
   24.7724  -21.6343  -13.4616 C   0  0  0  0  0  0  0  0  0  0  0  0
   23.5460  -20.8846  -13.8684 C   0  0  2  0  0  0  0  0  0  0  0  0
   22.3720  -21.5672  -13.3701 N   0  0  0  0  0  0  0  0  0  0  0  0
   23.4898  -20.5226  -15.2825 C   0  0  0  0  0  0  0  0  0  0  0  0
   23.1324  -21.2948  -16.2105 O   0  0  0  0  0  0  0  0  0  0  0  0
   26.5894  -21.8416  -15.0666 C   0  0  0  0  0  0  0  0  0  0  0  0
   27.7696  -21.4224  -15.6428 C   0  0  0  0  0  0  0  0  0  0  0  0
   23.3693  -14.5711  -17.0740 N   0  0  0  0  0  0  0  0  0  0  0  0
   22.1829  -15.2760  -17.3339 C   0  0  0  0  0  0  0  0  0  0  0  0
   21.1072  -14.6596  -17.5559 O   0  0  0  0  0  0  0  0  0  0  0  0
   22.2428  -16.7828  -17.3373 C   0  0  0  0  0  0  0  0  0  0  0  0
   23.6224  -17.2681  -17.0550 C   0  0  0  0  0  0  0  0  0  0  0  0
   23.7595  -18.7871  -17.0570 C   0  0  2  0  0  0  0  0  0  0  0  0
   23.8615  -19.2004  -15.6579 N   0  0  0  0  0  0  0  0  0  0  0  0
   25.0379  -19.1323  -17.7117 C   0  0  0  0  0  0  0  0  0  0  0  0
   25.0787  -19.7712  -18.7945 O   0  0  0  0  0  0  0  0  0  0  0  0
   26.2513  -18.7587  -17.1485 O   0  0  0  0  0  0  0  0  0  0  0  0
  2  1  1  1
  2  3  1  0
  3  4  1  0
  5  4  1  0
  5  6  1  0
  7  6  1  0
  8  2  1  0
  8  9  2  0
 10 11  1  0
 11 12  2  0
 12 13  1  0
 14 15  1  0
 14 13  2  0
 16 17  1  0
 16 15  1  6
 17  8  1  0
 18 16  1  0
 19 18  2  0
 20 14  1  0
 21 20  2  0
 21 11  1  0
 22 23  1  0
 23 25  1  0
 23 24  2  0
 25 26  1  0
 27 26  1  1
 27 28  1  0
 28 18  1  0
 29 27  1  0
 29 31  1  0
 30 29  2  0
M  END
$$$$
