KYQ.pdb
     RDKit          3D

 31 31  0  0  1  0  0  0  0  0999 V2000
   27.9547  -20.2922  -15.8726 N   0  0  0  0  0  0  0  0  0  0  0  0
   27.0366  -21.3898  -15.6489 C   0  0  1  0  0  0  0  0  0  0  0  0
   27.5814  -22.5723  -16.4406 C   0  0  0  0  0  0  0  0  0  0  0  0
   27.9439  -22.0349  -17.7972 C   0  0  0  0  0  0  0  0  0  0  0  0
   27.5607  -22.8771  -18.9584 C   0  0  0  0  0  0  0  0  0  0  0  0
   28.0572  -22.3876  -20.2851 C   0  0  0  0  0  0  0  0  0  0  0  0
   27.6517  -23.2247  -21.3617 N   0  0  0  0  0  0  0  0  0  0  0  0
   26.9993  -21.6769  -14.1997 C   0  0  0  0  0  0  0  0  0  0  0  0
   26.3257  -22.6500  -13.7887 O   0  0  0  0  0  0  0  0  0  0  0  0
   27.3174  -19.6486   -5.5546 O   0  0  0  0  0  0  0  0  0  0  0  0
   27.5957  -19.8016   -6.8893 C   0  0  0  0  0  0  0  0  0  0  0  0
   28.4328  -20.8336   -7.3100 C   0  0  0  0  0  0  0  0  0  0  0  0
   28.7129  -20.9881   -8.6495 C   0  0  0  0  0  0  0  0  0  0  0  0
   28.1952  -20.1548   -9.6147 C   0  0  0  0  0  0  0  0  0  0  0  0
   28.4360  -20.2440  -11.0533 C   0  0  0  0  0  0  0  0  0  0  0  0
   27.2955  -20.7853  -11.8520 C   0  0  2  0  0  0  0  0  0  0  0  0
   27.6884  -20.9072  -13.2387 N   0  0  0  0  0  0  0  0  0  0  0  0
   26.0192  -20.1087  -11.6344 C   0  0  0  0  0  0  0  0  0  0  0  0
   25.7352  -18.9547  -12.0501 O   0  0  0  0  0  0  0  0  0  0  0  0
   27.3503  -19.1127   -9.1928 C   0  0  0  0  0  0  0  0  0  0  0  0
   27.0657  -18.9523   -7.8533 C   0  0  0  0  0  0  0  0  0  0  0  0
   21.8236  -22.5227  -14.1435 N   0  0  0  0  0  0  0  0  0  0  0  0
   20.9790  -21.5982  -13.5080 C   0  0  0  0  0  0  0  0  0  0  0  0
   19.7861  -21.4551  -13.8860 O   0  0  0  0  0  0  0  0  0  0  0  0
   21.5465  -20.7907  -12.3678 C   0  0  0  0  0  0  0  0  0  0  0  0
   22.9735  -21.1373  -12.1195 C   0  0  0  0  0  0  0  0  0  0  0  0
   23.6186  -20.3424  -10.9891 C   0  0  2  0  0  0  0  0  0  0  0  0
   25.0077  -20.7913  -10.9008 N   0  0  0  0  0  0  0  0  0  0  0  0
   22.9539  -20.7191   -9.7248 C   0  0  0  0  0  0  0  0  0  0  0  0
   21.7754  -20.3657   -9.4628 O   0  0  0  0  0  0  0  0  0  0  0  0
   23.6140  -21.4849   -8.7725 O   0  0  0  0  0  0  0  0  0  0  0  0
  2  1  1  1
  2  3  1  0
  3  4  1  0
  5  4  1  0
  5  6  1  0
  7  6  1  0
  8  2  1  0
  8  9  2  0
 10 11  1  0
 11 12  2  0
 12 13  1  0
 14 15  1  0
 14 13  2  0
 16 17  1  0
 16 15  1  1
 17  8  1  0
 18 16  1  0
 19 18  2  0
 20 14  1  0
 21 20  2  0
 21 11  1  0
 22 23  1  0
 23 25  1  0
 23 24  2  0
 25 26  1  0
 27 26  1  6
 27 28  1  0
 28 18  1  0
 29 27  1  0
 29 31  1  0
 30 29  2  0
M  END
$$$$
