KYQ.pdb
     RDKit          3D

 31 31  0  0  1  0  0  0  0  0999 V2000
   27.6954  -22.5373  -17.2513 N   0  0  0  0  0  0  0  0  0  0  0  0
   27.7394  -21.2507  -16.5877 C   0  0  1  0  0  0  0  0  0  0  0  0
   26.8397  -20.3218  -17.3937 C   0  0  0  0  0  0  0  0  0  0  0  0
   27.5027  -20.1571  -18.7331 C   0  0  0  0  0  0  0  0  0  0  0  0
   26.9021  -20.9172  -19.8584 C   0  0  0  0  0  0  0  0  0  0  0  0
   27.4900  -20.6220  -21.2050 C   0  0  0  0  0  0  0  0  0  0  0  0
   26.8788  -21.3776  -22.2442 N   0  0  0  0  0  0  0  0  0  0  0  0
   27.2443  -21.4228  -15.2060 C   0  0  0  0  0  0  0  0  0  0  0  0
   26.2327  -22.1341  -15.0056 O   0  0  0  0  0  0  0  0  0  0  0  0
   26.8458  -20.4291   -6.3286 O   0  0  0  0  0  0  0  0  0  0  0  0
   27.2029  -20.4152   -7.6532 C   0  0  0  0  0  0  0  0  0  0  0  0
   26.5824  -19.5270   -8.5301 C   0  0  0  0  0  0  0  0  0  0  0  0
   26.9400  -19.5123   -9.8599 C   0  0  0  0  0  0  0  0  0  0  0  0
   27.9014  -20.3503  -10.3771 C   0  0  0  0  0  0  0  0  0  0  0  0
   28.3440  -20.4032  -11.7688 C   0  0  0  0  0  0  0  0  0  0  0  0
   27.3010  -20.8355  -12.7471 C   0  0  2  0  0  0  0  0  0  0  0  0
   27.8541  -20.8235  -14.0835 N   0  0  0  0  0  0  0  0  0  0  0  0
   26.0143  -20.1575  -12.6107 C   0  0  0  0  0  0  0  0  0  0  0  0
   25.7954  -18.9574  -12.9222 O   0  0  0  0  0  0  0  0  0  0  0  0
   28.5289  -21.2474   -9.4943 C   0  0  0  0  0  0  0  0  0  0  0  0
   28.1758  -21.2675   -8.1618 C   0  0  0  0  0  0  0  0  0  0  0  0
   20.2405  -21.8334  -13.5789 N   0  0  0  0  0  0  0  0  0  0  0  0
   20.4749  -20.5210  -14.0197 C   0  0  0  0  0  0  0  0  0  0  0  0
   19.5585  -19.8582  -14.5741 O   0  0  0  0  0  0  0  0  0  0  0  0
   21.8500  -19.9394  -13.8074 C   0  0  0  0  0  0  0  0  0  0  0  0
   22.7382  -20.9012  -13.0971 C   0  0  0  0  0  0  0  0  0  0  0  0
   23.5944  -20.2671  -12.0058 C   0  0  2  0  0  0  0  0  0  0  0  0
   24.9128  -20.8944  -12.0901 N   0  0  0  0  0  0  0  0  0  0  0  0
   23.0162  -20.6336  -10.6969 C   0  0  0  0  0  0  0  0  0  0  0  0
   23.5902  -21.4384   -9.9188 O   0  0  0  0  0  0  0  0  0  0  0  0
   21.8067  -20.0961  -10.2757 O   0  0  0  0  0  0  0  0  0  0  0  0
  2  1  1  6
  2  3  1  0
  3  4  1  0
  5  4  1  0
  5  6  1  0
  7  6  1  0
  8  2  1  0
  8  9  2  0
 10 11  1  0
 11 12  2  0
 12 13  1  0
 14 15  1  0
 14 13  2  0
 16 17  1  0
 16 15  1  1
 17  8  1  0
 18 16  1  0
 19 18  2  0
 20 14  1  0
 21 20  2  0
 21 11  1  0
 22 23  1  0
 23 25  1  0
 23 24  2  0
 25 26  1  0
 27 26  1  6
 27 28  1  0
 28 18  1  0
 29 27  1  0
 29 31  1  0
 30 29  2  0
M  END
$$$$
