KYQ.pdb
     RDKit          3D

 31 31  0  0  1  0  0  0  0  0999 V2000
   28.7045  -22.0450  -18.1660 N   0  0  0  0  0  0  0  0  0  0  0  0
   28.3467  -20.8002  -17.5178 C   0  0  1  0  0  0  0  0  0  0  0  0
   27.5532  -19.9969  -18.5410 C   0  0  0  0  0  0  0  0  0  0  0  0
   28.5650  -19.4052  -19.4827 C   0  0  0  0  0  0  0  0  0  0  0  0
   29.0587  -18.0466  -19.1434 C   0  0  0  0  0  0  0  0  0  0  0  0
   29.9881  -17.4420  -20.1518 C   0  0  0  0  0  0  0  0  0  0  0  0
   30.4914  -16.1766  -19.7397 N   0  0  0  0  0  0  0  0  0  0  0  0
   27.5335  -21.1141  -16.3244 C   0  0  0  0  0  0  0  0  0  0  0  0
   26.5388  -21.8660  -16.4456 O   0  0  0  0  0  0  0  0  0  0  0  0
   24.6840  -20.5363   -7.8746 O   0  0  0  0  0  0  0  0  0  0  0  0
   25.4155  -20.5104   -9.0349 C   0  0  0  0  0  0  0  0  0  0  0  0
   25.8810  -21.7018   -9.5887 C   0  0  0  0  0  0  0  0  0  0  0  0
   26.6155  -21.6770  -10.7534 C   0  0  0  0  0  0  0  0  0  0  0  0
   26.9192  -20.5074  -11.4120 C   0  0  0  0  0  0  0  0  0  0  0  0
   27.6885  -20.3864  -12.6487 C   0  0  0  0  0  0  0  0  0  0  0  0
   26.9442  -20.7465  -13.8929 C   0  0  2  0  0  0  0  0  0  0  0  0
   27.8172  -20.6086  -15.0380 N   0  0  0  0  0  0  0  0  0  0  0  0
   25.6408  -20.1025  -14.0355 C   0  0  0  0  0  0  0  0  0  0  0  0
   25.4620  -18.9085  -14.3926 O   0  0  0  0  0  0  0  0  0  0  0  0
   26.4507  -19.3039  -10.8552 C   0  0  0  0  0  0  0  0  0  0  0  0
   25.7149  -19.3215   -9.6895 C   0  0  0  0  0  0  0  0  0  0  0  0
   21.1898  -22.3932  -17.0054 N   0  0  0  0  0  0  0  0  0  0  0  0
   20.4668  -21.3091  -16.4821 C   0  0  0  0  0  0  0  0  0  0  0  0
   19.3342  -21.0110  -16.9455 O   0  0  0  0  0  0  0  0  0  0  0  0
   21.0894  -20.5223  -15.3563 C   0  0  0  0  0  0  0  0  0  0  0  0
   22.4619  -21.0131  -15.0503 C   0  0  0  0  0  0  0  0  0  0  0  0
   23.1520  -20.2624  -13.9161 C   0  0  2  0  0  0  0  0  0  0  0  0
   24.4734  -20.8682  -13.7557 N   0  0  0  0  0  0  0  0  0  0  0  0
   22.3981  -20.5162  -12.6714 C   0  0  0  0  0  0  0  0  0  0  0  0
   22.6106  -21.5326  -11.9614 O   0  0  0  0  0  0  0  0  0  0  0  0
   21.4192  -19.6315  -12.2375 O   0  0  0  0  0  0  0  0  0  0  0  0
  2  1  1  6
  2  3  1  0
  3  4  1  0
  5  4  1  0
  5  6  1  0
  7  6  1  0
  8  2  1  0
  8  9  2  0
 10 11  1  0
 11 12  2  0
 12 13  1  0
 14 15  1  0
 14 13  2  0
 16 17  1  0
 16 15  1  1
 17  8  1  0
 18 16  1  0
 19 18  2  0
 20 14  1  0
 21 20  2  0
 21 11  1  0
 22 23  1  0
 23 25  1  0
 23 24  2  0
 25 26  1  0
 27 26  1  6
 27 28  1  0
 28 18  1  0
 29 27  1  0
 29 31  1  0
 30 29  2  0
M  END
$$$$
