KYQ.pdb
     RDKit          3D

 31 31  0  0  1  0  0  0  0  0999 V2000
   28.6745  -21.5812  -17.5327 N   0  0  0  0  0  0  0  0  0  0  0  0
   27.2694  -21.8706  -17.7318 C   0  0  1  0  0  0  0  0  0  0  0  0
   27.2083  -23.1357  -18.5790 C   0  0  0  0  0  0  0  0  0  0  0  0
   27.8547  -22.7904  -19.8918 C   0  0  0  0  0  0  0  0  0  0  0  0
   27.2044  -21.7114  -20.6777 C   0  0  0  0  0  0  0  0  0  0  0  0
   27.7923  -21.4771  -22.0362 C   0  0  0  0  0  0  0  0  0  0  0  0
   27.1628  -20.4031  -22.7249 N   0  0  0  0  0  0  0  0  0  0  0  0
   26.6439  -22.0722  -16.4081 C   0  0  0  0  0  0  0  0  0  0  0  0
   25.6986  -22.8870  -16.2989 O   0  0  0  0  0  0  0  0  0  0  0  0
   24.8346  -20.3279   -7.8024 O   0  0  0  0  0  0  0  0  0  0  0  0
   25.3880  -20.4214   -9.0543 C   0  0  0  0  0  0  0  0  0  0  0  0
   25.5060  -21.6663   -9.6699 C   0  0  0  0  0  0  0  0  0  0  0  0
   26.0615  -21.7613  -10.9265 C   0  0  0  0  0  0  0  0  0  0  0  0
   26.5160  -20.6627  -11.6197 C   0  0  0  0  0  0  0  0  0  0  0  0
   27.1158  -20.6689  -12.9523 C   0  0  0  0  0  0  0  0  0  0  0  0
   26.3147  -21.3674  -14.0020 C   0  0  2  0  0  0  0  0  0  0  0  0
   27.0562  -21.3901  -15.2438 N   0  0  0  0  0  0  0  0  0  0  0  0
   24.9322  -20.9114  -14.1226 C   0  0  0  0  0  0  0  0  0  0  0  0
   24.5646  -19.8823  -14.7479 O   0  0  0  0  0  0  0  0  0  0  0  0
   26.3980  -19.4054  -11.0007 C   0  0  0  0  0  0  0  0  0  0  0  0
   25.8429  -19.3031   -9.7428 C   0  0  0  0  0  0  0  0  0  0  0  0
   20.4410  -24.8873  -14.6387 N   0  0  0  0  0  0  0  0  0  0  0  0
   19.6303  -23.7458  -14.5321 C   0  0  0  0  0  0  0  0  0  0  0  0
   18.3875  -23.8227  -14.7219 O   0  0  0  0  0  0  0  0  0  0  0  0
   20.2949  -22.4371  -14.1858 C   0  0  0  0  0  0  0  0  0  0  0  0
   21.7684  -22.6017  -14.0444 C   0  0  0  0  0  0  0  0  0  0  0  0
   22.5064  -21.3149  -13.6903 C   0  0  2  0  0  0  0  0  0  0  0  0
   23.9096  -21.6771  -13.4938 N   0  0  0  0  0  0  0  0  0  0  0  0
   21.9913  -20.8318  -12.3928 C   0  0  0  0  0  0  0  0  0  0  0  0
   22.5452  -21.1331  -11.3043 O   0  0  0  0  0  0  0  0  0  0  0  0
   20.8666  -20.0193  -12.3297 O   0  0  0  0  0  0  0  0  0  0  0  0
  2  1  1  1
  2  3  1  0
  3  4  1  0
  5  4  1  0
  5  6  1  0
  7  6  1  0
  8  2  1  0
  8  9  2  0
 10 11  1  0
 11 12  2  0
 12 13  1  0
 14 15  1  0
 14 13  2  0
 16 17  1  0
 16 15  1  1
 17  8  1  0
 18 16  1  0
 19 18  2  0
 20 14  1  0
 21 20  2  0
 21 11  1  0
 22 23  1  0
 23 25  1  0
 23 24  2  0
 25 26  1  0
 27 26  1  1
 27 28  1  0
 28 18  1  0
 29 27  1  0
 29 31  1  0
 30 29  2  0
M  END
$$$$
