KYQ.pdb
     RDKit          3D

 31 31  0  0  1  0  0  0  0  0999 V2000
   23.9584  -20.2386  -17.8713 N   0  0  0  0  0  0  0  0  0  0  0  0
   24.0813  -19.3730  -16.7166 C   0  0  1  0  0  0  0  0  0  0  0  0
   22.6720  -19.1888  -16.1672 C   0  0  0  0  0  0  0  0  0  0  0  0
   21.9556  -18.2995  -17.1452 C   0  0  0  0  0  0  0  0  0  0  0  0
   20.4959  -18.5291  -17.2908 C   0  0  0  0  0  0  0  0  0  0  0  0
   19.8347  -17.7268  -18.3703 C   0  0  0  0  0  0  0  0  0  0  0  0
   18.4340  -17.9648  -18.4463 N   0  0  0  0  0  0  0  0  0  0  0  0
   24.9661  -20.0319  -15.7334 C   0  0  0  0  0  0  0  0  0  0  0  0
   24.8328  -21.2592  -15.5204 O   0  0  0  0  0  0  0  0  0  0  0  0
   30.1771  -22.0199  -19.0333 O   0  0  0  0  0  0  0  0  0  0  0  0
   29.7043  -21.4377  -17.8845 C   0  0  0  0  0  0  0  0  0  0  0  0
   29.3201  -20.0979  -17.8927 C   0  0  0  0  0  0  0  0  0  0  0  0
   28.8453  -19.5125  -16.7401 C   0  0  0  0  0  0  0  0  0  0  0  0
   28.7291  -20.2009  -15.5541 C   0  0  0  0  0  0  0  0  0  0  0  0
   28.2366  -19.6635  -14.2875 C   0  0  0  0  0  0  0  0  0  0  0  0
   26.8005  -19.9528  -13.9947 C   0  0  2  0  0  0  0  0  0  0  0  0
   25.9666  -19.3484  -15.0104 N   0  0  0  0  0  0  0  0  0  0  0  0
   26.3878  -19.6784  -12.6206 C   0  0  0  0  0  0  0  0  0  0  0  0
   26.6433  -18.6195  -11.9891 O   0  0  0  0  0  0  0  0  0  0  0  0
   29.1161  -21.5529  -15.5433 C   0  0  0  0  0  0  0  0  0  0  0  0
   29.5922  -22.1452  -16.6935 C   0  0  0  0  0  0  0  0  0  0  0  0
   21.6954  -21.3807  -12.3497 N   0  0  0  0  0  0  0  0  0  0  0  0
   21.5908  -20.1528  -11.6764 C   0  0  0  0  0  0  0  0  0  0  0  0
   20.6344  -19.3695  -11.9174 O   0  0  0  0  0  0  0  0  0  0  0  0
   22.6547  -19.8093  -10.6643 C   0  0  0  0  0  0  0  0  0  0  0  0
   23.6763  -20.8889  -10.5686 C   0  0  0  0  0  0  0  0  0  0  0  0
   25.1160  -20.3861  -10.5919 C   0  0  2  0  0  0  0  0  0  0  0  0
   25.6376  -20.6709  -11.9282 N   0  0  0  0  0  0  0  0  0  0  0  0
   25.8997  -21.1916   -9.6333 C   0  0  0  0  0  0  0  0  0  0  0  0
   26.6727  -22.1089  -10.0122 O   0  0  0  0  0  0  0  0  0  0  0  0
   25.8096  -20.9609   -8.2666 O   0  0  0  0  0  0  0  0  0  0  0  0
  2  1  1  6
  2  3  1  0
  3  4  1  0
  5  4  1  0
  5  6  1  0
  7  6  1  0
  8  2  1  0
  8  9  2  0
 10 11  1  0
 11 12  2  0
 12 13  1  0
 14 15  1  0
 14 13  2  0
 16 17  1  0
 16 15  1  1
 17  8  1  0
 18 16  1  0
 19 18  2  0
 20 14  1  0
 21 20  2  0
 21 11  1  0
 22 23  1  0
 23 25  1  0
 23 24  2  0
 25 26  1  0
 27 26  1  6
 27 28  1  0
 28 18  1  0
 29 27  1  0
 29 31  1  0
 30 29  2  0
M  END
$$$$
