KYQ.pdb
     RDKit          3D

 31 31  0  0  1  0  0  0  0  0999 V2000
   29.0378  -23.2964  -16.5529 N   0  0  0  0  0  0  0  0  0  0  0  0
   27.9515  -22.4731  -17.0429 C   0  0  1  0  0  0  0  0  0  0  0  0
   27.4791  -23.1152  -18.3414 C   0  0  0  0  0  0  0  0  0  0  0  0
   28.3523  -22.5514  -19.4277 C   0  0  0  0  0  0  0  0  0  0  0  0
   29.4023  -23.4568  -19.9593 C   0  0  0  0  0  0  0  0  0  0  0  0
   30.7920  -22.8962  -19.9336 C   0  0  0  0  0  0  0  0  0  0  0  0
   30.9801  -21.8607  -20.8910 N   0  0  0  0  0  0  0  0  0  0  0  0
   26.8821  -22.4589  -16.0231 C   0  0  0  0  0  0  0  0  0  0  0  0
   26.0525  -23.3973  -15.9973 O   0  0  0  0  0  0  0  0  0  0  0  0
   23.0508  -20.5928   -8.2308 O   0  0  0  0  0  0  0  0  0  0  0  0
   23.7913  -20.5533   -9.3851 C   0  0  0  0  0  0  0  0  0  0  0  0
   23.2616  -19.9596  -10.5296 C   0  0  0  0  0  0  0  0  0  0  0  0
   24.0039  -19.9194  -11.6889 C   0  0  0  0  0  0  0  0  0  0  0  0
   25.2715  -20.4485  -11.7746 C   0  0  0  0  0  0  0  0  0  0  0  0
   26.1293  -20.4499  -12.9578 C   0  0  0  0  0  0  0  0  0  0  0  0
   25.7359  -21.4220  -14.0217 C   0  0  2  0  0  0  0  0  0  0  0  0
   26.7397  -21.4347  -15.0631 N   0  0  0  0  0  0  0  0  0  0  0  0
   24.3615  -21.2868  -14.4976 C   0  0  0  0  0  0  0  0  0  0  0  0
   23.9779  -20.4615  -15.3676 O   0  0  0  0  0  0  0  0  0  0  0  0
   25.8082  -21.0480  -10.6212 C   0  0  0  0  0  0  0  0  0  0  0  0
   25.0705  -21.0917   -9.4573 C   0  0  0  0  0  0  0  0  0  0  0  0
   20.6696  -25.2478  -16.2987 N   0  0  0  0  0  0  0  0  0  0  0  0
   19.6138  -24.4725  -15.7927 C   0  0  0  0  0  0  0  0  0  0  0  0
   18.4402  -24.6302  -16.2220 O   0  0  0  0  0  0  0  0  0  0  0  0
   19.9327  -23.4541  -14.7272 C   0  0  0  0  0  0  0  0  0  0  0  0
   21.3937  -23.4131  -14.4407 C   0  0  0  0  0  0  0  0  0  0  0  0
   21.9735  -22.0044  -14.3676 C   0  0  2  0  0  0  0  0  0  0  0  0
   23.3676  -22.1463  -13.9490 N   0  0  0  0  0  0  0  0  0  0  0  0
   21.2660  -21.2711  -13.2982 C   0  0  0  0  0  0  0  0  0  0  0  0
   21.6485  -21.3104  -12.1004 O   0  0  0  0  0  0  0  0  0  0  0  0
   20.1429  -20.5046  -13.5816 O   0  0  0  0  0  0  0  0  0  0  0  0
  2  1  1  1
  2  3  1  0
  3  4  1  0
  5  4  1  0
  5  6  1  0
  7  6  1  0
  8  2  1  0
  8  9  2  0
 10 11  1  0
 11 12  2  0
 12 13  1  0
 14 15  1  0
 14 13  2  0
 16 17  1  0
 16 15  1  1
 17  8  1  0
 18 16  1  0
 19 18  2  0
 20 14  1  0
 21 20  2  0
 21 11  1  0
 22 23  1  0
 23 25  1  0
 23 24  2  0
 25 26  1  0
 27 26  1  1
 27 28  1  0
 28 18  1  0
 29 27  1  0
 29 31  1  0
 30 29  2  0
M  END
$$$$
