KYQ.pdb
     RDKit          3D

 31 31  0  0  1  0  0  0  0  0999 V2000
   21.3816  -20.4591  -13.4627 N   0  0  0  0  0  0  0  0  0  0  0  0
   20.3126  -20.3102  -14.4285 C   0  0  1  0  0  0  0  0  0  0  0  0
   19.3448  -21.4599  -14.1771 C   0  0  0  0  0  0  0  0  0  0  0  0
   20.0485  -22.7062  -14.6378 C   0  0  0  0  0  0  0  0  0  0  0  0
   19.2766  -23.9703  -14.5327 C   0  0  0  0  0  0  0  0  0  0  0  0
   20.0050  -25.1956  -14.9957 C   0  0  0  0  0  0  0  0  0  0  0  0
   19.2253  -26.3778  -14.8587 N   0  0  0  0  0  0  0  0  0  0  0  0
   19.6673  -18.9989  -14.2097 C   0  0  0  0  0  0  0  0  0  0  0  0
   19.4664  -18.6071  -13.0368 O   0  0  0  0  0  0  0  0  0  0  0  0
   17.2120  -10.6173  -15.4924 O   0  0  0  0  0  0  0  0  0  0  0  0
   17.7413  -11.8807  -15.5696 C   0  0  0  0  0  0  0  0  0  0  0  0
   18.6962  -12.2912  -14.6409 C   0  0  0  0  0  0  0  0  0  0  0  0
   19.2283  -13.5591  -14.7176 C   0  0  0  0  0  0  0  0  0  0  0  0
   18.8551  -14.4609  -15.6879 C   0  0  0  0  0  0  0  0  0  0  0  0
   19.3635  -15.8220  -15.8445 C   0  0  0  0  0  0  0  0  0  0  0  0
   18.6212  -16.8656  -15.0753 C   0  0  2  0  0  0  0  0  0  0  0  0
   19.2588  -18.1507  -15.2606 N   0  0  0  0  0  0  0  0  0  0  0  0
   17.1748  -16.8646  -15.2794 C   0  0  0  0  0  0  0  0  0  0  0  0
   16.5847  -17.3921  -16.2586 O   0  0  0  0  0  0  0  0  0  0  0  0
   17.8917  -14.0491  -16.6261 C   0  0  0  0  0  0  0  0  0  0  0  0
   17.3549  -12.7812  -16.5552 C   0  0  0  0  0  0  0  0  0  0  0  0
   13.2654  -16.0950  -10.5645 N   0  0  0  0  0  0  0  0  0  0  0  0
   12.3184  -16.1388  -11.6004 C   0  0  0  0  0  0  0  0  0  0  0  0
   11.0858  -16.1521  -11.3415 O   0  0  0  0  0  0  0  0  0  0  0  0
   12.8256  -16.1692  -13.0203 C   0  0  0  0  0  0  0  0  0  0  0  0
   14.3091  -16.2955  -13.0602 C   0  0  0  0  0  0  0  0  0  0  0  0
   14.9006  -16.2337  -14.4646 C   0  0  2  0  0  0  0  0  0  0  0  0
   16.3545  -16.2253  -14.3069 N   0  0  0  0  0  0  0  0  0  0  0  0
   14.5166  -14.9415  -15.0686 C   0  0  0  0  0  0  0  0  0  0  0  0
   14.9745  -13.8485  -14.6464 O   0  0  0  0  0  0  0  0  0  0  0  0
   13.6281  -14.8886  -16.1349 O   0  0  0  0  0  0  0  0  0  0  0  0
  2  1  1  1
  2  3  1  0
  3  4  1  0
  5  4  1  0
  5  6  1  0
  7  6  1  0
  8  2  1  0
  8  9  2  0
 10 11  1  0
 11 12  2  0
 12 13  1  0
 14 15  1  0
 14 13  2  0
 16 17  1  0
 16 15  1  6
 17  8  1  0
 18 16  1  0
 19 18  2  0
 20 14  1  0
 21 20  2  0
 21 11  1  0
 22 23  1  0
 23 25  1  0
 23 24  2  0
 25 26  1  0
 27 26  1  1
 27 28  1  0
 28 18  1  0
 29 27  1  0
 29 31  1  0
 30 29  2  0
M  END
$$$$
