KYQ.pdb
     RDKit          3D

 31 31  0  0  1  0  0  0  0  0999 V2000
   28.8781  -22.9968  -17.6069 N   0  0  0  0  0  0  0  0  0  0  0  0
   27.7138  -23.7091  -17.1224 C   0  0  1  0  0  0  0  0  0  0  0  0
   28.2164  -24.6805  -16.0614 C   0  0  0  0  0  0  0  0  0  0  0  0
   28.0890  -26.0542  -16.6593 C   0  0  0  0  0  0  0  0  0  0  0  0
   28.8249  -26.2864  -17.9279 C   0  0  0  0  0  0  0  0  0  0  0  0
   28.6460  -27.6510  -18.5213 C   0  0  0  0  0  0  0  0  0  0  0  0
   29.3434  -27.8062  -19.7517 N   0  0  0  0  0  0  0  0  0  0  0  0
   26.7694  -22.7247  -16.5541 C   0  0  0  0  0  0  0  0  0  0  0  0
   27.1159  -22.0556  -15.5532 O   0  0  0  0  0  0  0  0  0  0  0  0
   19.9215  -17.1261  -15.9740 O   0  0  0  0  0  0  0  0  0  0  0  0
   20.8301  -18.0725  -16.3754 C   0  0  0  0  0  0  0  0  0  0  0  0
   20.4338  -19.4019  -16.5107 C   0  0  0  0  0  0  0  0  0  0  0  0
   21.3451  -20.3527  -16.9135 C   0  0  0  0  0  0  0  0  0  0  0  0
   22.6572  -20.0477  -17.1953 C   0  0  0  0  0  0  0  0  0  0  0  0
   23.6892  -20.9874  -17.6284 C   0  0  0  0  0  0  0  0  0  0  0  0
   24.5278  -21.5545  -16.5299 C   0  0  2  0  0  0  0  0  0  0  0  0
   25.4816  -22.4916  -17.0815 N   0  0  0  0  0  0  0  0  0  0  0  0
   23.7770  -22.0509  -15.3794 C   0  0  0  0  0  0  0  0  0  0  0  0
   23.1262  -23.1284  -15.3538 O   0  0  0  0  0  0  0  0  0  0  0  0
   23.0595  -18.7070  -17.0595 C   0  0  0  0  0  0  0  0  0  0  0  0
   22.1524  -17.7501  -16.6567 C   0  0  0  0  0  0  0  0  0  0  0  0
   25.2463  -20.3256   -9.6528 N   0  0  0  0  0  0  0  0  0  0  0  0
   25.9203  -21.2896  -10.4197 C   0  0  0  0  0  0  0  0  0  0  0  0
   27.0787  -21.6671  -10.1000 O   0  0  0  0  0  0  0  0  0  0  0  0
   25.2142  -21.8510  -11.6281 C   0  0  0  0  0  0  0  0  0  0  0  0
   23.8637  -21.2450  -11.7932 C   0  0  0  0  0  0  0  0  0  0  0  0
   23.0882  -21.7731  -12.9956 C   0  0  2  0  0  0  0  0  0  0  0  0
   23.7710  -21.2716  -14.1877 N   0  0  0  0  0  0  0  0  0  0  0  0
   21.7403  -21.1691  -12.9745 C   0  0  0  0  0  0  0  0  0  0  0  0
   20.8406  -21.5790  -12.1967 O   0  0  0  0  0  0  0  0  0  0  0  0
   21.4170  -20.1164  -13.8210 O   0  0  0  0  0  0  0  0  0  0  0  0
  2  1  1  1
  2  3  1  0
  3  4  1  0
  5  4  1  0
  5  6  1  0
  7  6  1  0
  8  2  1  0
  8  9  2  0
 10 11  1  0
 11 12  2  0
 12 13  1  0
 14 15  1  0
 14 13  2  0
 16 17  1  0
 16 15  1  6
 17  8  1  0
 18 16  1  0
 19 18  2  0
 20 14  1  0
 21 20  2  0
 21 11  1  0
 22 23  1  0
 23 25  1  0
 23 24  2  0
 25 26  1  0
 27 26  1  1
 27 28  1  0
 28 18  1  0
 29 27  1  0
 29 31  1  0
 30 29  2  0
M  END
$$$$
