KYQ.pdb
     RDKit          3D

 31 31  0  0  1  0  0  0  0  0999 V2000
   24.5029  -20.6557  -18.3938 N   0  0  0  0  0  0  0  0  0  0  0  0
   23.5885  -19.7410  -17.7418 C   0  0  1  0  0  0  0  0  0  0  0  0
   22.4156  -19.5545  -18.6966 C   0  0  0  0  0  0  0  0  0  0  0  0
   22.9099  -18.6530  -19.7937 C   0  0  0  0  0  0  0  0  0  0  0  0
   23.3061  -17.2816  -19.3850 C   0  0  0  0  0  0  0  0  0  0  0  0
   23.6925  -16.3732  -20.5128 C   0  0  0  0  0  0  0  0  0  0  0  0
   24.0327  -15.0655  -20.0674 N   0  0  0  0  0  0  0  0  0  0  0  0
   23.1581  -20.3456  -16.4639 C   0  0  0  0  0  0  0  0  0  0  0  0
   22.7464  -21.5288  -16.4579 O   0  0  0  0  0  0  0  0  0  0  0  0
   21.6315  -21.2079   -7.7415 O   0  0  0  0  0  0  0  0  0  0  0  0
   22.0238  -20.7711   -8.9814 C   0  0  0  0  0  0  0  0  0  0  0  0
   23.2282  -21.2149   -9.5247 C   0  0  0  0  0  0  0  0  0  0  0  0
   23.6230  -20.7770  -10.7693 C   0  0  0  0  0  0  0  0  0  0  0  0
   22.8698  -19.9031  -11.5197 C   0  0  0  0  0  0  0  0  0  0  0  0
   23.2081  -19.3881  -12.8448 C   0  0  0  0  0  0  0  0  0  0  0  0
   22.6692  -20.1843  -13.9881 C   0  0  2  0  0  0  0  0  0  0  0  0
   23.1846  -19.6571  -15.2326 N   0  0  0  0  0  0  0  0  0  0  0  0
   21.2234  -20.3917  -13.9630 C   0  0  0  0  0  0  0  0  0  0  0  0
   20.3674  -19.5453  -14.3316 O   0  0  0  0  0  0  0  0  0  0  0  0
   21.6541  -19.4539  -10.9737 C   0  0  0  0  0  0  0  0  0  0  0  0
   21.2528  -19.8883   -9.7283 C   0  0  0  0  0  0  0  0  0  0  0  0
   17.8179  -23.4535  -16.6003 N   0  0  0  0  0  0  0  0  0  0  0  0
   16.9845  -23.7163  -15.5011 C   0  0  0  0  0  0  0  0  0  0  0  0
   15.7815  -24.0470  -15.6738 O   0  0  0  0  0  0  0  0  0  0  0  0
   17.5762  -23.5894  -14.1198 C   0  0  0  0  0  0  0  0  0  0  0  0
   18.9978  -23.1492  -14.1806 C   0  0  0  0  0  0  0  0  0  0  0  0
   19.2838  -21.8639  -13.4111 C   0  0  2  0  0  0  0  0  0  0  0  0
   20.7268  -21.6400  -13.4912 N   0  0  0  0  0  0  0  0  0  0  0  0
   18.9533  -22.0957  -11.9902 C   0  0  0  0  0  0  0  0  0  0  0  0
   17.8177  -21.8277  -11.5198 O   0  0  0  0  0  0  0  0  0  0  0  0
   19.8946  -22.6237  -11.1158 O   0  0  0  0  0  0  0  0  0  0  0  0
  2  1  1  6
  2  3  1  0
  3  4  1  0
  5  4  1  0
  5  6  1  0
  7  6  1  0
  8  2  1  0
  8  9  2  0
 10 11  1  0
 11 12  2  0
 12 13  1  0
 14 15  1  0
 14 13  2  0
 16 17  1  0
 16 15  1  1
 17  8  1  0
 18 16  1  0
 19 18  2  0
 20 14  1  0
 21 20  2  0
 21 11  1  0
 22 23  1  0
 23 25  1  0
 23 24  2  0
 25 26  1  0
 27 26  1  6
 27 28  1  0
 28 18  1  0
 29 27  1  0
 29 31  1  0
 30 29  2  0
M  END
$$$$
