EIR.pdb
     RDKit          3D

 29 28  0  0  1  0  0  0  0  0999 V2000
   10.2819  -16.1625   15.4630 N   0  0  0  0  0  0  0  0  0  0  0  0
    9.6323  -16.8657   16.5835 C   0  0  1  0  0  0  0  0  0  0  0  0
   10.2481  -18.2385   16.5931 C   0  0  0  0  0  0  0  0  0  0  0  0
    9.3086  -19.3568   16.8859 C   0  0  0  0  0  0  0  0  0  0  0  0
    9.9412  -20.6918   16.8637 C   0  0  0  0  0  0  0  0  0  0  0  0
   11.0965  -20.9237   16.4449 O   0  0  0  0  0  0  0  0  0  0  0  0
    9.9456  -16.1832   17.8548 C   0  0  0  0  0  0  0  0  0  0  0  0
   11.1118  -15.7826   18.0831 O   0  0  0  0  0  0  0  0  0  0  0  0
    9.2113  -21.7939   17.3426 O   0  0  0  0  0  0  0  0  0  0  0  0
    6.8814  -12.2707   19.5354 C   0  0  0  0  0  0  0  0  0  0  0  0
    8.1644  -13.0839   19.2665 C   0  0  0  0  0  0  0  0  0  0  0  0
    8.2090  -14.1993   20.2422 C   0  0  2  0  0  0  0  0  0  0  0  0
    8.1847  -13.5847   21.6507 C   0  0  0  0  0  0  0  0  0  0  0  0
    9.3092  -15.1934   20.1035 C   0  0  2  0  0  0  0  0  0  0  0  0
    8.9761  -15.9451   18.8665 N   0  0  0  0  0  0  0  0  0  0  0  0
    9.4810  -16.1458   21.1974 C   0  0  0  0  0  0  0  0  0  0  0  0
    8.5225  -16.9568   21.4717 O   0  0  0  0  0  0  0  0  0  0  0  0
   15.8863  -19.3297   18.5346 N   0  0  0  0  0  0  0  0  0  0  0  0
   15.4314  -19.5379   19.8746 C   0  0  0  0  0  0  0  0  0  0  0  0
   16.2066  -20.0514   20.7585 N   0  0  0  0  0  0  0  0  0  0  0  0
   14.1137  -19.1723   20.2235 N   0  0  0  0  0  0  0  0  0  0  0  0
   13.5828  -19.3250   21.5576 C   0  0  0  0  0  0  0  0  0  0  0  0
   12.1882  -18.7124   21.6918 C   0  0  0  0  0  0  0  0  0  0  0  0
   12.0375  -17.9917   22.9983 C   0  0  0  0  0  0  0  0  0  0  0  0
   10.7286  -17.2879   23.0684 C   0  0  2  0  0  0  0  0  0  0  0  0
   10.6102  -16.2848   22.0078 N   0  0  0  0  0  0  0  0  0  0  0  0
   10.5177  -16.5939   24.3364 C   0  0  0  0  0  0  0  0  0  0  0  0
   10.4463  -15.3475   24.3887 O   0  0  0  0  0  0  0  0  0  0  0  0
   10.3869  -17.2717   25.5334 O   0  0  0  0  0  0  0  0  0  0  0  0
  2  1  1  6
  2  3  1  0
  4  5  1  0
  4  3  1  0
  5  6  2  0
  7  2  1  0
  7  8  2  0
  9  5  1  0
 11 10  1  0
 12 11  1  0
 12 14  1  0
 12 13  1  1
 14 15  1  6
 15  7  1  0
 16 26  1  0
 16 14  1  0
 17 16  2  0
 18 19  1  0
 19 20  2  0
 21 19  1  0
 21 22  1  0
 22 23  1  0
 23 24  1  0
 25 24  1  1
 25 26  1  0
 25 27  1  0
 27 29  1  0
 28 27  2  0
M  END
$$$$
