EIR.pdb
     RDKit          3D

 29 28  0  0  1  0  0  0  0  0999 V2000
    8.0664  -14.7560   20.5312 N   0  0  0  0  0  0  0  0  0  0  0  0
    7.5283  -15.4146   21.7349 C   0  0  1  0  0  0  0  0  0  0  0  0
    7.8127  -16.8791   21.5394 C   0  0  0  0  0  0  0  0  0  0  0  0
    7.0680  -17.5302   20.4257 C   0  0  0  0  0  0  0  0  0  0  0  0
    7.3521  -18.9725   20.2779 C   0  0  0  0  0  0  0  0  0  0  0  0
    6.6983  -19.8855   20.8281 O   0  0  0  0  0  0  0  0  0  0  0  0
    8.2456  -14.9356   22.9333 C   0  0  0  0  0  0  0  0  0  0  0  0
    9.4802  -14.7214   22.8840 O   0  0  0  0  0  0  0  0  0  0  0  0
    8.4291  -19.3697   19.4659 O   0  0  0  0  0  0  0  0  0  0  0  0
    5.6823  -11.5878   26.2431 C   0  0  0  0  0  0  0  0  0  0  0  0
    6.8094  -12.1799   25.3721 C   0  0  0  0  0  0  0  0  0  0  0  0
    7.3745  -13.3472   26.0909 C   0  0  2  0  0  0  0  0  0  0  0  0
    7.9592  -12.8364   27.4173 C   0  0  0  0  0  0  0  0  0  0  0  0
    8.3525  -14.1999   25.3600 C   0  0  2  0  0  0  0  0  0  0  0  0
    7.6021  -14.6949   24.1776 N   0  0  0  0  0  0  0  0  0  0  0  0
    8.8978  -15.3468   26.0814 C   0  0  0  0  0  0  0  0  0  0  0  0
    8.1275  -16.3429   26.3384 O   0  0  0  0  0  0  0  0  0  0  0  0
   16.4178  -17.4898   26.4571 N   0  0  0  0  0  0  0  0  0  0  0  0
   15.5345  -17.0892   25.4058 C   0  0  0  0  0  0  0  0  0  0  0  0
   15.8495  -16.1304   24.6137 N   0  0  0  0  0  0  0  0  0  0  0  0
   14.3037  -17.7599   25.2419 N   0  0  0  0  0  0  0  0  0  0  0  0
   13.8494  -18.7985   26.1363 C   0  0  0  0  0  0  0  0  0  0  0  0
   12.5867  -18.3881   26.8948 C   0  0  0  0  0  0  0  0  0  0  0  0
   11.9806  -17.1490   26.3060 C   0  0  0  0  0  0  0  0  0  0  0  0
   10.7544  -16.7530   27.0495 C   0  0  2  0  0  0  0  0  0  0  0  0
   10.2097  -15.4932   26.5382 N   0  0  0  0  0  0  0  0  0  0  0  0
   10.9858  -16.5673   28.4799 C   0  0  0  0  0  0  0  0  0  0  0  0
   10.8723  -15.4435   29.0141 O   0  0  0  0  0  0  0  0  0  0  0  0
   11.3386  -17.6140   29.3102 O   0  0  0  0  0  0  0  0  0  0  0  0
  2  1  1  6
  2  3  1  0
  4  5  1  0
  4  3  1  0
  5  6  2  0
  7  2  1  0
  7  8  2  0
  9  5  1  0
 11 10  1  0
 12 11  1  0
 12 14  1  0
 12 13  1  1
 14 15  1  6
 15  7  1  0
 16 26  1  0
 16 14  1  0
 17 16  2  0
 18 19  1  0
 19 20  2  0
 21 19  1  0
 21 22  1  0
 22 23  1  0
 23 24  1  0
 25 24  1  6
 25 26  1  0
 25 27  1  0
 27 29  1  0
 28 27  2  0
M  END
$$$$
