EIR.pdb
     RDKit          3D

 29 28  0  0  1  0  0  0  0  0999 V2000
    7.4273  -15.5678   20.7513 N   0  0  0  0  0  0  0  0  0  0  0  0
    6.6358  -15.6428   21.9922 C   0  0  1  0  0  0  0  0  0  0  0  0
    6.2433  -17.0898   22.1187 C   0  0  0  0  0  0  0  0  0  0  0  0
    5.6538  -17.6999   20.8943 C   0  0  0  0  0  0  0  0  0  0  0  0
    5.2271  -19.1034   21.0704 C   0  0  0  0  0  0  0  0  0  0  0  0
    5.3537  -19.7569   22.1291 O   0  0  0  0  0  0  0  0  0  0  0  0
    7.4741  -15.2636   23.1470 C   0  0  0  0  0  0  0  0  0  0  0  0
    8.7106  -15.4715   23.1221 O   0  0  0  0  0  0  0  0  0  0  0  0
    4.6345  -19.7714   19.9843 O   0  0  0  0  0  0  0  0  0  0  0  0
    6.1303  -10.9535   26.0649 C   0  0  0  0  0  0  0  0  0  0  0  0
    7.0046  -11.9542   25.2815 C   0  0  0  0  0  0  0  0  0  0  0  0
    7.1761  -13.1637   26.1218 C   0  0  2  0  0  0  0  0  0  0  0  0
    7.9224  -12.7405   27.3969 C   0  0  0  0  0  0  0  0  0  0  0  0
    7.8095  -14.3559   25.4933 C   0  0  2  0  0  0  0  0  0  0  0  0
    6.9490  -14.6586   24.3211 N   0  0  0  0  0  0  0  0  0  0  0  0
    7.9178  -15.5576   26.3164 C   0  0  0  0  0  0  0  0  0  0  0  0
    6.8795  -16.2983   26.4746 O   0  0  0  0  0  0  0  0  0  0  0  0
    7.6846  -21.0782   22.8302 N   0  0  0  0  0  0  0  0  0  0  0  0
    7.3219  -21.4020   24.1754 C   0  0  0  0  0  0  0  0  0  0  0  0
    6.1007  -21.6433   24.4857 N   0  0  0  0  0  0  0  0  0  0  0  0
    8.3227  -21.4558   25.1689 N   0  0  0  0  0  0  0  0  0  0  0  0
    9.4747  -20.5852   25.1719 C   0  0  0  0  0  0  0  0  0  0  0  0
    9.5253  -19.7078   26.4232 C   0  0  0  0  0  0  0  0  0  0  0  0
    9.3551  -18.2589   26.0752 C   0  0  0  0  0  0  0  0  0  0  0  0
    9.3024  -17.4207   27.3031 C   0  0  2  0  0  0  0  0  0  0  0  0
    9.0631  -16.0139   26.9731 N   0  0  0  0  0  0  0  0  0  0  0  0
   10.5352  -17.4708   28.0852 C   0  0  0  0  0  0  0  0  0  0  0  0
   11.2950  -16.4817   28.1611 O   0  0  0  0  0  0  0  0  0  0  0  0
   10.9228  -18.6030   28.7761 O   0  0  0  0  0  0  0  0  0  0  0  0
  2  1  1  6
  2  3  1  0
  4  5  1  0
  4  3  1  0
  5  6  2  0
  7  2  1  0
  7  8  2  0
  9  5  1  0
 11 10  1  0
 12 11  1  0
 12 14  1  0
 12 13  1  1
 14 15  1  6
 15  7  1  0
 16 26  1  0
 16 14  1  0
 17 16  2  0
 18 19  1  0
 19 20  2  0
 21 19  1  0
 21 22  1  0
 22 23  1  0
 23 24  1  0
 25 24  1  6
 25 26  1  0
 25 27  1  0
 27 29  1  0
 28 27  2  0
M  END
$$$$
