DST.pdb
     RDKit          3D

 22 21  0  0  1  0  0  0  0  0999 V2000
   18.3341  -12.3769  -16.5718 N   0  0  0  0  0  0  0  0  0  0  0  0
   18.7742  -11.1561  -17.1797 C   0  0  1  0  0  0  0  0  0  0  0  0
   17.6804  -10.4526  -17.9294 C   0  0  0  0  0  0  0  0  0  0  0  0
   17.1893  -11.2546  -19.0818 C   0  0  0  0  0  0  0  0  0  0  0  0
   16.0664  -11.8072  -18.9883 O   0  0  0  0  0  0  0  0  0  0  0  0
   19.2795  -10.2366  -16.1226 C   0  0  0  0  0  0  0  0  0  0  0  0
   18.5016   -9.8565  -15.2074 O   0  0  0  0  0  0  0  0  0  0  0  0
   17.9220  -11.4109  -20.2436 O   0  0  0  0  0  0  0  0  0  0  0  0
   23.3576   -9.5358  -15.4251 O   0  0  0  0  0  0  0  0  0  0  0  0
   22.4010   -9.2816  -14.4622 C   0  0  0  0  0  0  0  0  0  0  0  0
   21.0608   -8.9151  -15.0243 C   0  0  2  0  0  0  0  0  0  0  0  0
   20.6090   -9.7514  -16.0799 N   0  0  0  0  0  0  0  0  0  0  0  0
   21.1802   -7.4979  -15.5324 C   0  0  0  0  0  0  0  0  0  0  0  0
   21.5705   -7.3019  -16.7101 O   0  0  0  0  0  0  0  0  0  0  0  0
   19.8210   -4.1327  -13.1096 C   0  0  0  0  0  0  0  0  0  0  0  0
   19.8709   -4.1595  -14.6183 C   0  0  1  0  0  0  0  0  0  0  0  0
   20.1066   -2.8575  -15.0680 O   0  0  0  0  0  0  0  0  0  0  0  0
   21.0128   -5.0270  -15.0572 C   0  0  2  0  0  0  0  0  0  0  0  0
   20.8556   -6.4129  -14.6885 N   0  0  0  0  0  0  0  0  0  0  0  0
   22.3337   -4.4621  -14.6606 C   0  0  0  0  0  0  0  0  0  0  0  0
   22.8928   -4.8505  -13.6166 O   0  0  0  0  0  0  0  0  0  0  0  0
   22.9854   -3.5070  -15.4094 O   0  0  0  0  0  0  0  0  0  0  0  0
  2  1  1  1
  2  6  1  0
  2  3  1  0
  3  4  1  0
  4  8  1  0
  5  4  2  0
  6 12  1  0
  7  6  2  0
 10  9  1  0
 11 10  1  6
 11 13  1  0
 12 11  1  0
 13 14  2  0
 13 19  1  0
 16 15  1  1
 17 16  1  0
 18 16  1  0
 18 20  1  0
 18 19  1  1
 20 22  1  0
 21 20  2  0
M  END
$$$$
