DST.pdb
     RDKit          3D

 22 21  0  0  1  0  0  0  0  0999 V2000
   23.2479  -20.5345  -10.1433 N   0  0  0  0  0  0  0  0  0  0  0  0
   23.1381  -20.9666  -11.5052 C   0  0  1  0  0  0  0  0  0  0  0  0
   21.8382  -20.5651  -12.1396 C   0  0  0  0  0  0  0  0  0  0  0  0
   20.6681  -21.1490  -11.4308 C   0  0  0  0  0  0  0  0  0  0  0  0
   20.8318  -22.2132  -10.7860 O   0  0  0  0  0  0  0  0  0  0  0  0
   24.2474  -20.3697  -12.2997 C   0  0  0  0  0  0  0  0  0  0  0  0
   24.1877  -19.1567  -12.6347 O   0  0  0  0  0  0  0  0  0  0  0  0
   19.4159  -20.5639  -11.4579 O   0  0  0  0  0  0  0  0  0  0  0  0
   28.2111  -21.0721  -11.7653 O   0  0  0  0  0  0  0  0  0  0  0  0
   27.8215  -21.0974  -13.0898 C   0  0  0  0  0  0  0  0  0  0  0  0
   26.4914  -20.4534  -13.3405 C   0  0  2  0  0  0  0  0  0  0  0  0
   25.3912  -21.0954  -12.7120 N   0  0  0  0  0  0  0  0  0  0  0  0
   26.2827  -20.4653  -14.8362 C   0  0  0  0  0  0  0  0  0  0  0  0
   25.8158  -21.4968  -15.3798 O   0  0  0  0  0  0  0  0  0  0  0  0
   25.6226  -17.9552  -18.9679 C   0  0  0  0  0  0  0  0  0  0  0  0
   25.7535  -17.9612  -17.4639 C   0  0  1  0  0  0  0  0  0  0  0  0
   24.4682  -17.9263  -16.9162 O   0  0  0  0  0  0  0  0  0  0  0  0
   26.4181  -19.2348  -17.0331 C   0  0  2  0  0  0  0  0  0  0  0  0
   26.6106  -19.3277  -15.6064 N   0  0  0  0  0  0  0  0  0  0  0  0
   27.6589  -19.5130  -17.8104 C   0  0  0  0  0  0  0  0  0  0  0  0
   28.7052  -18.8813  -17.5667 O   0  0  0  0  0  0  0  0  0  0  0  0
   27.7092  -20.4582  -18.8112 O   0  0  0  0  0  0  0  0  0  0  0  0
  2  1  1  1
  2  6  1  0
  2  3  1  0
  3  4  1  0
  4  8  1  0
  5  4  2  0
  6 12  1  0
  7  6  2  0
 10  9  1  0
 11 10  1  6
 11 13  1  0
 12 11  1  0
 13 14  2  0
 13 19  1  0
 16 15  1  6
 17 16  1  0
 18 16  1  0
 18 20  1  0
 18 19  1  1
 20 22  1  0
 21 20  2  0
M  END
$$$$
