DST.pdb
     RDKit          3D

 22 21  0  0  1  0  0  0  0  0999 V2000
   15.3643  -11.8926  -14.7772 N   0  0  0  0  0  0  0  0  0  0  0  0
   16.2249  -10.7623  -14.5888 C   0  0  1  0  0  0  0  0  0  0  0  0
   15.8014   -9.5686  -15.3946 C   0  0  0  0  0  0  0  0  0  0  0  0
   14.3251   -9.3883  -15.3903 C   0  0  0  0  0  0  0  0  0  0  0  0
   13.6034  -10.3716  -15.6856 O   0  0  0  0  0  0  0  0  0  0  0  0
   16.2208  -10.3776  -13.1501 C   0  0  0  0  0  0  0  0  0  0  0  0
   15.3345  -10.8438  -12.3857 O   0  0  0  0  0  0  0  0  0  0  0  0
   13.7251   -8.1835  -15.0746 O   0  0  0  0  0  0  0  0  0  0  0  0
   19.3689   -8.1957  -11.3200 O   0  0  0  0  0  0  0  0  0  0  0  0
   18.5865   -9.0817  -10.6059 C   0  0  0  0  0  0  0  0  0  0  0  0
   17.2114   -9.2658  -11.1731 C   0  0  2  0  0  0  0  0  0  0  0  0
   17.1716   -9.5010  -12.5734 N   0  0  0  0  0  0  0  0  0  0  0  0
   16.4448   -8.0023  -10.8617 C   0  0  0  0  0  0  0  0  0  0  0  0
   16.3988   -7.0879  -11.7215 O   0  0  0  0  0  0  0  0  0  0  0  0
   13.3824   -5.5893   -7.8423 C   0  0  0  0  0  0  0  0  0  0  0  0
   14.1710   -6.8581   -8.0603 C   0  0  1  0  0  0  0  0  0  0  0  0
   13.2781   -7.8646   -8.4381 O   0  0  0  0  0  0  0  0  0  0  0  0
   15.1465   -6.6448   -9.1793 C   0  0  2  0  0  0  0  0  0  0  0  0
   15.7911   -7.8587   -9.6180 N   0  0  0  0  0  0  0  0  0  0  0  0
   16.1081   -5.5447   -8.8857 C   0  0  0  0  0  0  0  0  0  0  0  0
   17.1740   -5.7878   -8.2873 O   0  0  0  0  0  0  0  0  0  0  0  0
   15.8722   -4.2379   -9.2521 O   0  0  0  0  0  0  0  0  0  0  0  0
  2  1  1  1
  2  6  1  0
  2  3  1  0
  3  4  1  0
  4  8  1  0
  5  4  2  0
  6 12  1  0
  7  6  2  0
 10  9  1  0
 11 10  1  6
 11 13  1  0
 12 11  1  0
 13 14  2  0
 13 19  1  0
 16 15  1  6
 17 16  1  0
 18 16  1  0
 18 20  1  0
 18 19  1  1
 20 22  1  0
 21 20  2  0
M  END
$$$$
