DST.pdb
     RDKit          3D

 22 21  0  0  1  0  0  0  0  0999 V2000
   19.4074  -11.2622  -18.1557 N   0  0  0  0  0  0  0  0  0  0  0  0
   18.3850  -10.9349  -17.2064 C   0  0  1  0  0  0  0  0  0  0  0  0
   17.7203  -12.1492  -16.6259 C   0  0  0  0  0  0  0  0  0  0  0  0
   16.8928  -12.8666  -17.6324 C   0  0  0  0  0  0  0  0  0  0  0  0
   17.4770  -13.5634  -18.4973 O   0  0  0  0  0  0  0  0  0  0  0  0
   18.9854  -10.1543  -16.0891 C   0  0  0  0  0  0  0  0  0  0  0  0
   18.2504   -9.7517  -15.1484 O   0  0  0  0  0  0  0  0  0  0  0  0
   15.5124  -12.7926  -17.6475 O   0  0  0  0  0  0  0  0  0  0  0  0
   23.1504   -9.7063  -15.5252 O   0  0  0  0  0  0  0  0  0  0  0  0
   22.2620   -9.5380  -14.4814 C   0  0  0  0  0  0  0  0  0  0  0  0
   20.8949   -9.1037  -14.9162 C   0  0  2  0  0  0  0  0  0  0  0  0
   20.3613   -9.8284  -16.0152 N   0  0  0  0  0  0  0  0  0  0  0  0
   21.0061   -7.6453  -15.2925 C   0  0  0  0  0  0  0  0  0  0  0  0
   21.2453   -7.3390  -16.4869 O   0  0  0  0  0  0  0  0  0  0  0  0
   20.2282   -2.9624  -14.7706 C   0  0  0  0  0  0  0  0  0  0  0  0
   19.8673   -4.3902  -14.4382 C   0  0  1  0  0  0  0  0  0  0  0  0
   18.9462   -4.8378  -15.3892 O   0  0  0  0  0  0  0  0  0  0  0  0
   21.0975   -5.2429  -14.5314 C   0  0  2  0  0  0  0  0  0  0  0  0
   20.8421   -6.6453  -14.3087 N   0  0  0  0  0  0  0  0  0  0  0  0
   22.2146   -4.7122  -13.6998 C   0  0  0  0  0  0  0  0  0  0  0  0
   22.9290   -3.7854  -14.1288 O   0  0  0  0  0  0  0  0  0  0  0  0
   22.5053   -5.2073  -12.4476 O   0  0  0  0  0  0  0  0  0  0  0  0
  2  1  1  6
  2  6  1  0
  2  3  1  0
  3  4  1  0
  4  8  1  0
  5  4  2  0
  6 12  1  0
  7  6  2  0
 10  9  1  0
 11 10  1  6
 11 13  1  0
 12 11  1  0
 13 14  2  0
 13 19  1  0
 16 15  1  6
 17 16  1  0
 18 16  1  0
 18 20  1  0
 18 19  1  1
 20 22  1  0
 21 20  2  0
M  END
$$$$
