DST.pdb
     RDKit          3D

 22 21  0  0  1  0  0  0  0  0999 V2000
   19.9231  -11.4373  -16.2618 N   0  0  0  0  0  0  0  0  0  0  0  0
   18.8773  -10.5309  -16.6336 C   0  0  1  0  0  0  0  0  0  0  0  0
   17.5110  -11.1428  -16.5226 C   0  0  0  0  0  0  0  0  0  0  0  0
   17.4253  -12.4478  -17.2309 C   0  0  0  0  0  0  0  0  0  0  0  0
   18.4534  -12.8843  -17.8033 O   0  0  0  0  0  0  0  0  0  0  0  0
   18.9255   -9.3362  -15.7457 C   0  0  0  0  0  0  0  0  0  0  0  0
   18.0012   -8.4821  -15.8041 O   0  0  0  0  0  0  0  0  0  0  0  0
   16.2606  -13.1909  -17.2801 O   0  0  0  0  0  0  0  0  0  0  0  0
   21.8398   -8.8004  -12.7397 O   0  0  0  0  0  0  0  0  0  0  0  0
   20.6599   -8.0850  -12.6850 C   0  0  0  0  0  0  0  0  0  0  0  0
   19.9904   -7.9219  -14.0160 C   0  0  2  0  0  0  0  0  0  0  0  0
   19.9681   -9.0936  -14.8188 N   0  0  0  0  0  0  0  0  0  0  0  0
   20.7440   -6.8359  -14.7465 C   0  0  0  0  0  0  0  0  0  0  0  0
   21.6864   -7.1556  -15.5128 O   0  0  0  0  0  0  0  0  0  0  0  0
   20.8403   -2.2672  -16.4398 C   0  0  0  0  0  0  0  0  0  0  0  0
   20.1552   -3.2091  -15.4791 C   0  0  1  0  0  0  0  0  0  0  0  0
   18.9912   -3.6823  -16.0910 O   0  0  0  0  0  0  0  0  0  0  0  0
   21.0567   -4.3766  -15.2080 C   0  0  2  0  0  0  0  0  0  0  0  0
   20.3876   -5.4814  -14.5652 N   0  0  0  0  0  0  0  0  0  0  0  0
   22.3119   -3.9696  -14.5153 C   0  0  0  0  0  0  0  0  0  0  0  0
   22.3070   -3.7498  -13.2885 O   0  0  0  0  0  0  0  0  0  0  0  0
   23.5092   -3.8200  -15.1799 O   0  0  0  0  0  0  0  0  0  0  0  0
  2  1  1  1
  2  6  1  0
  2  3  1  0
  3  4  1  0
  4  8  1  0
  5  4  2  0
  6 12  1  0
  7  6  2  0
 10  9  1  0
 11 10  1  1
 11 13  1  0
 12 11  1  0
 13 14  2  0
 13 19  1  0
 16 15  1  6
 17 16  1  0
 18 16  1  0
 18 20  1  0
 18 19  1  1
 20 22  1  0
 21 20  2  0
M  END
$$$$
