DST.pdb
     RDKit          3D

 22 21  0  0  1  0  0  0  0  0999 V2000
   22.9657  -10.8697  -17.3574 N   0  0  0  0  0  0  0  0  0  0  0  0
   22.5071   -9.6453  -17.9439 C   0  0  1  0  0  0  0  0  0  0  0  0
   21.6457   -9.8668  -19.1532 C   0  0  0  0  0  0  0  0  0  0  0  0
   21.2874   -8.5886  -19.8242 C   0  0  0  0  0  0  0  0  0  0  0  0
   22.1875   -7.7304  -19.9919 O   0  0  0  0  0  0  0  0  0  0  0  0
   21.7112   -8.8880  -16.9383 C   0  0  0  0  0  0  0  0  0  0  0  0
   20.6252   -9.3681  -16.5174 O   0  0  0  0  0  0  0  0  0  0  0  0
   20.0063   -8.3158  -20.2663 O   0  0  0  0  0  0  0  0  0  0  0  0
   21.4544   -5.4790  -13.5024 O   0  0  0  0  0  0  0  0  0  0  0  0
   22.1657   -6.0281  -14.5510 C   0  0  0  0  0  0  0  0  0  0  0  0
   21.3748   -6.9998  -15.3738 C   0  0  2  0  0  0  0  0  0  0  0  0
   22.1067   -7.6339  -16.4131 N   0  0  0  0  0  0  0  0  0  0  0  0
   20.2310   -6.2206  -15.9785 C   0  0  0  0  0  0  0  0  0  0  0  0
   20.4340   -5.5449  -17.0176 O   0  0  0  0  0  0  0  0  0  0  0  0
   16.1151   -7.0832  -15.0045 C   0  0  0  0  0  0  0  0  0  0  0  0
   16.6589   -6.4239  -16.2491 C   0  0  1  0  0  0  0  0  0  0  0  0
   15.6471   -5.6313  -16.7978 O   0  0  0  0  0  0  0  0  0  0  0  0
   17.8067   -5.5348  -15.8732 C   0  0  2  0  0  0  0  0  0  0  0  0
   18.9534   -6.2565  -15.3776 N   0  0  0  0  0  0  0  0  0  0  0  0
   17.3855   -4.4198  -14.9785 C   0  0  0  0  0  0  0  0  0  0  0  0
   16.5872   -3.5552  -15.3889 O   0  0  0  0  0  0  0  0  0  0  0  0
   17.8460   -4.2930  -13.6864 O   0  0  0  0  0  0  0  0  0  0  0  0
  2  1  1  1
  2  6  1  0
  2  3  1  0
  3  4  1  0
  4  8  1  0
  5  4  2  0
  6 12  1  0
  7  6  2  0
 10  9  1  0
 11 10  1  6
 11 13  1  0
 12 11  1  0
 13 14  2  0
 13 19  1  0
 16 15  1  1
 17 16  1  0
 18 16  1  0
 18 20  1  0
 18 19  1  1
 20 22  1  0
 21 20  2  0
M  END
$$$$
