DST.pdb
     RDKit          3D

 22 21  0  0  1  0  0  0  0  0999 V2000
   21.9097  -10.8001  -15.5948 N   0  0  0  0  0  0  0  0  0  0  0  0
   22.2369   -9.7352  -16.4962 C   0  0  1  0  0  0  0  0  0  0  0  0
   22.0029  -10.0982  -17.9340 C   0  0  0  0  0  0  0  0  0  0  0  0
   22.7991  -11.2849  -18.3461 C   0  0  0  0  0  0  0  0  0  0  0  0
   24.0421  -11.2577  -18.1752 O   0  0  0  0  0  0  0  0  0  0  0  0
   21.3999   -8.5461  -16.1745 C   0  0  0  0  0  0  0  0  0  0  0  0
   20.1633   -8.5748  -16.4134 O   0  0  0  0  0  0  0  0  0  0  0  0
   22.2211  -12.4086  -18.9067 O   0  0  0  0  0  0  0  0  0  0  0  0
   19.7157   -5.2748  -13.5200 O   0  0  0  0  0  0  0  0  0  0  0  0
   20.4372   -6.3911  -13.8945 C   0  0  0  0  0  0  0  0  0  0  0  0
   21.0705   -6.2748  -15.2479 C   0  0  2  0  0  0  0  0  0  0  0  0
   21.9176   -7.3580  -15.6040 N   0  0  0  0  0  0  0  0  0  0  0  0
   21.8778   -4.9984  -15.2370 C   0  0  0  0  0  0  0  0  0  0  0  0
   22.9961   -4.9877  -14.6654 O   0  0  0  0  0  0  0  0  0  0  0  0
   22.6052   -2.9970  -18.3564 C   0  0  0  0  0  0  0  0  0  0  0  0
   22.0497   -2.0061  -17.3619 C   0  0  1  0  0  0  0  0  0  0  0  0
   20.7097   -1.7734  -17.6833 O   0  0  0  0  0  0  0  0  0  0  0  0
   22.1112   -2.6022  -15.9871 C   0  0  2  0  0  0  0  0  0  0  0  0
   21.3749   -3.8367  -15.8632 N   0  0  0  0  0  0  0  0  0  0  0  0
   21.7727   -1.6100  -14.9278 C   0  0  0  0  0  0  0  0  0  0  0  0
   20.7531   -1.7648  -14.2278 O   0  0  0  0  0  0  0  0  0  0  0  0
   22.5502   -0.5011  -14.6764 O   0  0  0  0  0  0  0  0  0  0  0  0
  2  1  1  1
  2  6  1  0
  2  3  1  0
  3  4  1  0
  4  8  1  0
  5  4  2  0
  6 12  1  0
  7  6  2  0
 10  9  1  0
 11 10  1  1
 11 13  1  0
 12 11  1  0
 13 14  2  0
 13 19  1  0
 16 15  1  6
 17 16  1  0
 18 16  1  0
 18 20  1  0
 18 19  1  6
 20 22  1  0
 21 20  2  0
M  END
$$$$
