NGW.pdb
     RDKit          3D

 27 28  0  0  1  0  0  0  0  0999 V2000
   25.7748  -14.1897  -14.4925 N   0  0  0  0  0  0  0  0  0  0  0  0
   25.8814  -15.4302  -15.1856 C   0  0  0  0  0  0  0  0  0  0  0  0
   25.0057  -15.7285  -16.0239 O   0  0  0  0  0  0  0  0  0  0  0  0
   26.9941  -16.3721  -14.9428 C   0  0  0  0  0  0  0  0  0  0  0  0
   26.4586  -17.7577  -14.7832 C   0  0  2  0  0  0  0  0  0  0  0  0
   25.4260  -17.7498  -13.7853 N   0  0  0  0  0  0  0  0  0  0  0  0
   27.5594  -18.7063  -14.4366 C   0  0  0  0  0  0  0  0  0  0  0  0
   28.6940  -18.5318  -14.9480 O   0  0  0  0  0  0  0  0  0  0  0  0
   27.3801  -19.7948  -13.5559 N   0  0  0  0  0  0  0  0  0  0  0  0
   28.4695  -20.6727  -13.1522 C   0  0  0  0  0  0  0  0  0  0  0  0
   28.0413  -21.3238  -11.8727 C   0  0  0  0  0  0  0  0  0  0  0  0
   28.7164  -22.2688  -11.3523 O   0  0  0  0  0  0  0  0  0  0  0  0
   26.8722  -20.9236  -11.1833 N   0  0  0  0  0  0  0  0  0  0  0  0
   26.4662  -21.6022   -9.9431 C   0  0  1  0  0  0  0  0  0  0  0  0
   27.5479  -21.4872   -8.9101 C   0  0  0  0  0  0  0  0  0  0  0  0
   27.4358  -20.4116   -7.9535 C   0  0  0  0  0  0  0  0  0  0  0  0
   26.4813  -19.3871   -8.0396 C   0  0  0  0  0  0  0  0  0  0  0  0
   26.6120  -18.5680   -6.9927 N   0  0  0  0  0  0  0  0  0  0  0  0
   27.6111  -18.9944   -6.2070 C   0  0  0  0  0  0  0  0  0  0  0  0
   28.1359  -18.5015   -5.0352 C   0  0  0  0  0  0  0  0  0  0  0  0
   29.1963  -19.1544   -4.4345 C   0  0  0  0  0  0  0  0  0  0  0  0
   29.7226  -20.2755   -4.9914 C   0  0  0  0  0  0  0  0  0  0  0  0
   29.1881  -20.7637   -6.1697 C   0  0  0  0  0  0  0  0  0  0  0  0
   28.1295  -20.1496   -6.8074 C   0  0  0  0  0  0  0  0  0  0  0  0
   25.1410  -21.1497   -9.5818 C   0  0  0  0  0  0  0  0  0  0  0  0
   24.5335  -21.5775   -8.5700 O   0  0  0  0  0  0  0  0  0  0  0  0
   24.4740  -20.2082  -10.3504 O   0  0  0  0  0  0  0  0  0  0  0  0
  2  3  2  0
  2  1  1  0
  4  2  1  0
  5  4  1  0
  5  6  1  1
  7  8  2  0
  7  5  1  0
  9  7  1  0
 10  9  1  0
 11 10  1  0
 11 12  2  0
 13 11  1  0
 14 13  1  0
 14 25  1  0
 14 15  1  1
 16 15  1  0
 17 16  2  0
 18 17  1  0
 19 18  1  0
 19 24  2  0
 20 21  2  0
 20 19  1  0
 21 22  1  0
 22 23  2  0
 24 23  1  0
 24 16  1  0
 25 27  1  0
 26 25  2  0
M  END
$$$$
