NGW.pdb
     RDKit          3D

 27 28  0  0  1  0  0  0  0  0999 V2000
   31.1068  -17.1185  -17.9495 N   0  0  0  0  0  0  0  0  0  0  0  0
   29.8327  -17.1131  -17.3116 C   0  0  0  0  0  0  0  0  0  0  0  0
   29.6234  -16.2950  -16.3920 O   0  0  0  0  0  0  0  0  0  0  0  0
   28.7541  -18.0440  -17.7043 C   0  0  0  0  0  0  0  0  0  0  0  0
   28.1705  -18.6847  -16.4873 C   0  0  2  0  0  0  0  0  0  0  0  0
   29.1897  -19.4492  -15.8247 N   0  0  0  0  0  0  0  0  0  0  0  0
   26.9935  -19.5282  -16.8547 C   0  0  0  0  0  0  0  0  0  0  0  0
   26.7667  -19.7569  -18.0694 O   0  0  0  0  0  0  0  0  0  0  0  0
   26.1211  -20.0819  -15.8929 N   0  0  0  0  0  0  0  0  0  0  0  0
   24.9235  -20.8295  -16.2495 C   0  0  0  0  0  0  0  0  0  0  0  0
   24.3070  -21.2870  -14.9630 C   0  0  0  0  0  0  0  0  0  0  0  0
   23.1237  -21.7539  -14.9250 O   0  0  0  0  0  0  0  0  0  0  0  0
   25.0048  -21.2231  -13.7336 N   0  0  0  0  0  0  0  0  0  0  0  0
   24.3504  -21.6291  -12.4805 C   0  0  1  0  0  0  0  0  0  0  0  0
   25.3499  -22.2502  -11.5502 C   0  0  0  0  0  0  0  0  0  0  0  0
   26.1143  -21.3580  -10.7110 C   0  0  0  0  0  0  0  0  0  0  0  0
   25.5387  -20.4470   -9.8128 C   0  0  0  0  0  0  0  0  0  0  0  0
   26.5046  -19.7932   -9.1619 N   0  0  0  0  0  0  0  0  0  0  0  0
   27.7033  -20.2224   -9.5818 C   0  0  0  0  0  0  0  0  0  0  0  0
   28.9843  -19.8639   -9.2324 C   0  0  0  0  0  0  0  0  0  0  0  0
   30.0575  -20.4792   -9.8496 C   0  0  0  0  0  0  0  0  0  0  0  0
   29.8572  -21.4322  -10.7960 C   0  0  0  0  0  0  0  0  0  0  0  0
   28.5656  -21.7862  -11.1406 C   0  0  0  0  0  0  0  0  0  0  0  0
   27.4614  -21.2029  -10.5533 C   0  0  0  0  0  0  0  0  0  0  0  0
   23.5719  -20.5158  -11.9845 C   0  0  0  0  0  0  0  0  0  0  0  0
   23.8180  -19.3258  -12.2995 O   0  0  0  0  0  0  0  0  0  0  0  0
   22.5028  -20.7188  -11.1255 O   0  0  0  0  0  0  0  0  0  0  0  0
  2  3  2  0
  2  1  1  0
  4  2  1  0
  5  4  1  0
  5  6  1  6
  7  8  2  0
  7  5  1  0
  9  7  1  0
 10  9  1  0
 11 10  1  0
 11 12  2  0
 13 11  1  0
 14 13  1  0
 14 25  1  0
 14 15  1  1
 16 15  1  0
 17 16  2  0
 18 17  1  0
 19 18  1  0
 19 24  2  0
 20 21  2  0
 20 19  1  0
 21 22  1  0
 22 23  2  0
 24 23  1  0
 24 16  1  0
 25 27  1  0
 26 25  2  0
M  END
$$$$
