NGW.pdb
     RDKit          3D

 27 28  0  0  1  0  0  0  0  0999 V2000
   25.6447  -19.3562  -19.2009 N   0  0  0  0  0  0  0  0  0  0  0  0
   25.4266  -20.4843  -18.3579 C   0  0  0  0  0  0  0  0  0  0  0  0
   25.0867  -21.5673  -18.8777 O   0  0  0  0  0  0  0  0  0  0  0  0
   25.5901  -20.4114  -16.8909 C   0  0  0  0  0  0  0  0  0  0  0  0
   27.0132  -20.1050  -16.5549 C   0  0  2  0  0  0  0  0  0  0  0  0
   27.8147  -21.2715  -16.7984 N   0  0  0  0  0  0  0  0  0  0  0  0
   27.1269  -19.6378  -15.1404 C   0  0  0  0  0  0  0  0  0  0  0  0
   26.4759  -18.6244  -14.7821 O   0  0  0  0  0  0  0  0  0  0  0  0
   27.9372  -20.2879  -14.1846 N   0  0  0  0  0  0  0  0  0  0  0  0
   28.0911  -19.8051  -12.8194 C   0  0  0  0  0  0  0  0  0  0  0  0
   27.1663  -20.6227  -11.9706 C   0  0  0  0  0  0  0  0  0  0  0  0
   26.4565  -21.5528  -12.4713 O   0  0  0  0  0  0  0  0  0  0  0  0
   27.0362  -20.4032  -10.5788 N   0  0  0  0  0  0  0  0  0  0  0  0
   26.2165  -21.3032   -9.7533 C   0  0  1  0  0  0  0  0  0  0  0  0
   26.9567  -21.6805   -8.5043 C   0  0  0  0  0  0  0  0  0  0  0  0
   27.3417  -20.6096   -7.6158 C   0  0  0  0  0  0  0  0  0  0  0  0
   26.9971  -19.2649   -7.8193 C   0  0  0  0  0  0  0  0  0  0  0  0
   27.4695  -18.5270   -6.8112 N   0  0  0  0  0  0  0  0  0  0  0  0
   28.1167  -19.3138   -5.9396 C   0  0  0  0  0  0  0  0  0  0  0  0
   28.7748  -19.0392   -4.7635 C   0  0  0  0  0  0  0  0  0  0  0  0
   29.3734  -20.0680   -4.0603 C   0  0  0  0  0  0  0  0  0  0  0  0
   29.3171  -21.3443   -4.5206 C   0  0  0  0  0  0  0  0  0  0  0  0
   28.6528  -21.6107   -5.7040 C   0  0  0  0  0  0  0  0  0  0  0  0
   28.0385  -20.6195   -6.4420 C   0  0  0  0  0  0  0  0  0  0  0  0
   24.9002  -20.7227   -9.6050 C   0  0  0  0  0  0  0  0  0  0  0  0
   23.9511  -21.3323   -9.0541 O   0  0  0  0  0  0  0  0  0  0  0  0
   24.6259  -19.4468  -10.0728 O   0  0  0  0  0  0  0  0  0  0  0  0
  2  3  2  0
  2  1  1  0
  4  2  1  0
  5  4  1  0
  5  6  1  1
  7  8  2  0
  7  5  1  0
  9  7  1  0
 10  9  1  0
 11 10  1  0
 11 12  2  0
 13 11  1  0
 14 13  1  0
 14 25  1  0
 14 15  1  1
 16 15  1  0
 17 16  2  0
 18 17  1  0
 19 18  1  0
 19 24  2  0
 20 21  2  0
 20 19  1  0
 21 22  1  0
 22 23  2  0
 24 23  1  0
 24 16  1  0
 25 27  1  0
 26 25  2  0
M  END
$$$$
