NGW.pdb
     RDKit          3D

 27 28  0  0  1  0  0  0  0  0999 V2000
   26.5063  -21.1222  -19.4508 N   0  0  0  0  0  0  0  0  0  0  0  0
   26.4727  -19.8259  -18.8600 C   0  0  0  0  0  0  0  0  0  0  0  0
   26.2561  -18.8369  -19.5905 O   0  0  0  0  0  0  0  0  0  0  0  0
   26.6859  -19.6171  -17.4125 C   0  0  0  0  0  0  0  0  0  0  0  0
   26.8431  -20.9362  -16.7287 C   0  0  2  0  0  0  0  0  0  0  0  0
   25.5465  -21.5231  -16.5372 N   0  0  0  0  0  0  0  0  0  0  0  0
   27.5747  -20.7707  -15.4367 C   0  0  0  0  0  0  0  0  0  0  0  0
   28.7542  -20.3375  -15.4587 O   0  0  0  0  0  0  0  0  0  0  0  0
   26.9965  -21.0809  -14.1868 N   0  0  0  0  0  0  0  0  0  0  0  0
   27.4797  -20.5222  -12.9319 C   0  0  0  0  0  0  0  0  0  0  0  0
   26.5775  -21.0452  -11.8564 C   0  0  0  0  0  0  0  0  0  0  0  0
   25.4884  -21.6407  -12.1372 O   0  0  0  0  0  0  0  0  0  0  0  0
   26.8888  -20.9040  -10.4832 N   0  0  0  0  0  0  0  0  0  0  0  0
   25.9880  -21.4432   -9.4531 C   0  0  1  0  0  0  0  0  0  0  0  0
   26.7269  -21.6244   -8.1603 C   0  0  0  0  0  0  0  0  0  0  0  0
   27.1945  -20.4319   -7.4941 C   0  0  0  0  0  0  0  0  0  0  0  0
   26.9266  -19.1305   -7.9445 C   0  0  0  0  0  0  0  0  0  0  0  0
   27.4642  -18.2474   -7.0988 N   0  0  0  0  0  0  0  0  0  0  0  0
   28.0820  -18.8954   -6.1009 C   0  0  0  0  0  0  0  0  0  0  0  0
   28.7809  -18.4465   -5.0047 C   0  0  0  0  0  0  0  0  0  0  0  0
   29.3321  -19.3603   -4.1257 C   0  0  0  0  0  0  0  0  0  0  0  0
   29.1894  -20.6943   -4.3360 C   0  0  0  0  0  0  0  0  0  0  0  0
   28.4848  -21.1361   -5.4409 C   0  0  0  0  0  0  0  0  0  0  0  0
   27.9149  -20.2647   -6.3466 C   0  0  0  0  0  0  0  0  0  0  0  0
   24.7816  -20.6458   -9.4316 C   0  0  0  0  0  0  0  0  0  0  0  0
   23.7398  -21.0126   -8.8350 O   0  0  0  0  0  0  0  0  0  0  0  0
   24.7235  -19.4216  -10.0798 O   0  0  0  0  0  0  0  0  0  0  0  0
  2  3  2  0
  2  1  1  0
  4  2  1  0
  5  4  1  0
  5  6  1  1
  7  8  2  0
  7  5  1  0
  9  7  1  0
 10  9  1  0
 11 10  1  0
 11 12  2  0
 13 11  1  0
 14 13  1  0
 14 25  1  0
 14 15  1  1
 16 15  1  0
 17 16  2  0
 18 17  1  0
 19 18  1  0
 19 24  2  0
 20 21  2  0
 20 19  1  0
 21 22  1  0
 22 23  2  0
 24 23  1  0
 24 16  1  0
 25 27  1  0
 26 25  2  0
M  END
$$$$
