NGW.pdb
     RDKit          3D

 27 28  0  0  1  0  0  0  0  0999 V2000
   23.3643  -16.8066  -18.4004 N   0  0  0  0  0  0  0  0  0  0  0  0
   24.5449  -17.5983  -18.3012 C   0  0  0  0  0  0  0  0  0  0  0  0
   24.8367  -18.3646  -19.2426 O   0  0  0  0  0  0  0  0  0  0  0  0
   25.4323  -17.5401  -17.1207 C   0  0  0  0  0  0  0  0  0  0  0  0
   25.5698  -18.9026  -16.5233 C   0  0  2  0  0  0  0  0  0  0  0  0
   24.2883  -19.3349  -16.0402 N   0  0  0  0  0  0  0  0  0  0  0  0
   26.5989  -18.8965  -15.4404 C   0  0  0  0  0  0  0  0  0  0  0  0
   27.7816  -18.5848  -15.7292 O   0  0  0  0  0  0  0  0  0  0  0  0
   26.2996  -19.2270  -14.1010 N   0  0  0  0  0  0  0  0  0  0  0  0
   27.3061  -19.2504  -13.0488 C   0  0  0  0  0  0  0  0  0  0  0  0
   26.8861  -20.3131  -12.0800 C   0  0  0  0  0  0  0  0  0  0  0  0
   26.5997  -21.4898  -12.4709 O   0  0  0  0  0  0  0  0  0  0  0  0
   26.7873  -20.0633  -10.6907 N   0  0  0  0  0  0  0  0  0  0  0  0
   26.4257  -21.1439   -9.7606 C   0  0  1  0  0  0  0  0  0  0  0  0
   27.5217  -21.3550   -8.7584 C   0  0  0  0  0  0  0  0  0  0  0  0
   27.7347  -20.3119   -7.7832 C   0  0  0  0  0  0  0  0  0  0  0  0
   27.2407  -19.0057   -7.9171 C   0  0  0  0  0  0  0  0  0  0  0  0
   27.5750  -18.2907   -6.8396 N   0  0  0  0  0  0  0  0  0  0  0  0
   28.2720  -19.0561   -5.9876 C   0  0  0  0  0  0  0  0  0  0  0  0
   28.8386  -18.7904   -4.7629 C   0  0  0  0  0  0  0  0  0  0  0  0
   29.5240  -19.7894   -4.0969 C   0  0  0  0  0  0  0  0  0  0  0  0
   29.6422  -21.0278   -4.6413 C   0  0  0  0  0  0  0  0  0  0  0  0
   29.0689  -21.2856   -5.8732 C   0  0  0  0  0  0  0  0  0  0  0  0
   28.3739  -20.3233   -6.5770 C   0  0  0  0  0  0  0  0  0  0  0  0
   25.0935  -20.8927   -9.2568 C   0  0  0  0  0  0  0  0  0  0  0  0
   24.4414  -19.8623   -9.5552 O   0  0  0  0  0  0  0  0  0  0  0  0
   24.4694  -21.7944   -8.4085 O   0  0  0  0  0  0  0  0  0  0  0  0
  2  3  2  0
  2  1  1  0
  4  2  1  0
  5  4  1  0
  5  6  1  1
  7  8  2  0
  7  5  1  0
  9  7  1  0
 10  9  1  0
 11 10  1  0
 11 12  2  0
 13 11  1  0
 14 13  1  0
 14 25  1  0
 14 15  1  1
 16 15  1  0
 17 16  2  0
 18 17  1  0
 19 18  1  0
 19 24  2  0
 20 21  2  0
 20 19  1  0
 21 22  1  0
 22 23  2  0
 24 23  1  0
 24 16  1  0
 25 27  1  0
 26 25  2  0
M  END
$$$$
