NGW.pdb
     RDKit          3D

 27 28  0  0  1  0  0  0  0  0999 V2000
   28.2414  -18.9619  -20.7682 N   0  0  0  0  0  0  0  0  0  0  0  0
   27.1270  -19.6288  -20.1816 C   0  0  0  0  0  0  0  0  0  0  0  0
   26.1961  -20.0098  -20.9210 O   0  0  0  0  0  0  0  0  0  0  0  0
   27.0400  -19.8824  -18.7282 C   0  0  0  0  0  0  0  0  0  0  0  0
   28.2575  -19.3475  -18.0473 C   0  0  2  0  0  0  0  0  0  0  0  0
   29.3314  -20.2891  -18.1979 N   0  0  0  0  0  0  0  0  0  0  0  0
   27.9682  -19.0595  -16.6103 C   0  0  0  0  0  0  0  0  0  0  0  0
   27.0266  -18.2773  -16.3260 O   0  0  0  0  0  0  0  0  0  0  0  0
   28.7095  -19.6301  -15.5531 N   0  0  0  0  0  0  0  0  0  0  0  0
   28.3977  -19.3923  -14.1507 C   0  0  0  0  0  0  0  0  0  0  0  0
   27.3993  -20.4358  -13.7524 C   0  0  0  0  0  0  0  0  0  0  0  0
   27.1482  -21.4326  -14.5028 O   0  0  0  0  0  0  0  0  0  0  0  0
   26.6899  -20.3660  -12.5301 N   0  0  0  0  0  0  0  0  0  0  0  0
   25.8242  -21.4759  -12.1035 C   0  0  1  0  0  0  0  0  0  0  0  0
   26.3292  -22.0646  -10.8195 C   0  0  0  0  0  0  0  0  0  0  0  0
   26.3721  -21.1963   -9.6667 C   0  0  0  0  0  0  0  0  0  0  0  0
   25.3150  -20.3583   -9.2813 C   0  0  0  0  0  0  0  0  0  0  0  0
   25.6464  -19.7103   -8.1614 N   0  0  0  0  0  0  0  0  0  0  0  0
   26.8782  -20.0736   -7.7765 C   0  0  0  0  0  0  0  0  0  0  0  0
   27.6605  -19.6922   -6.7116 C   0  0  0  0  0  0  0  0  0  0  0  0
   28.9238  -20.2342   -6.5641 C   0  0  0  0  0  0  0  0  0  0  0  0
   29.3972  -21.1378   -7.4605 C   0  0  0  0  0  0  0  0  0  0  0  0
   28.6032  -21.5154   -8.5280 C   0  0  0  0  0  0  0  0  0  0  0  0
   27.3355  -21.0046   -8.7188 C   0  0  0  0  0  0  0  0  0  0  0  0
   24.4489  -21.0303  -12.1434 C   0  0  0  0  0  0  0  0  0  0  0  0
   24.1335  -19.8171  -12.2104 O   0  0  0  0  0  0  0  0  0  0  0  0
   23.4027  -21.9393  -12.1086 O   0  0  0  0  0  0  0  0  0  0  0  0
  2  3  2  0
  2  1  1  0
  4  2  1  0
  5  4  1  0
  5  6  1  1
  7  8  2  0
  7  5  1  0
  9  7  1  0
 10  9  1  0
 11 10  1  0
 11 12  2  0
 13 11  1  0
 14 13  1  0
 14 25  1  0
 14 15  1  1
 16 15  1  0
 17 16  2  0
 18 17  1  0
 19 18  1  0
 19 24  2  0
 20 21  2  0
 20 19  1  0
 21 22  1  0
 22 23  2  0
 24 23  1  0
 24 16  1  0
 25 27  1  0
 26 25  2  0
M  END
$$$$
