NGW.pdb
     RDKit          3D

 27 28  0  0  1  0  0  0  0  0999 V2000
   21.0823  -18.5378  -14.8060 N   0  0  0  0  0  0  0  0  0  0  0  0
   22.4413  -18.1871  -15.0524 C   0  0  0  0  0  0  0  0  0  0  0  0
   22.7099  -17.4797  -16.0454 O   0  0  0  0  0  0  0  0  0  0  0  0
   23.5397  -18.6342  -14.1705 C   0  0  0  0  0  0  0  0  0  0  0  0
   24.5075  -19.4647  -14.9489 C   0  0  2  0  0  0  0  0  0  0  0  0
   23.8406  -20.6469  -15.4178 N   0  0  0  0  0  0  0  0  0  0  0  0
   25.7020  -19.7943  -14.1144 C   0  0  0  0  0  0  0  0  0  0  0  0
   26.3517  -18.8562  -13.5878 O   0  0  0  0  0  0  0  0  0  0  0  0
   26.1347  -21.1192  -13.8904 N   0  0  0  0  0  0  0  0  0  0  0  0
   27.3789  -21.4391  -13.2047 C   0  0  0  0  0  0  0  0  0  0  0  0
   27.0423  -21.5753  -11.7512 C   0  0  0  0  0  0  0  0  0  0  0  0
   27.7721  -22.2587  -10.9638 O   0  0  0  0  0  0  0  0  0  0  0  0
   25.9034  -20.9554  -11.1847 N   0  0  0  0  0  0  0  0  0  0  0  0
   25.5904  -21.1275   -9.7579 C   0  0  1  0  0  0  0  0  0  0  0  0
   26.1749  -20.0008   -8.9584 C   0  0  0  0  0  0  0  0  0  0  0  0
   27.4267  -20.2498   -8.2835 C   0  0  0  0  0  0  0  0  0  0  0  0
   28.4951  -20.9560   -8.8564 C   0  0  0  0  0  0  0  0  0  0  0  0
   29.5185  -20.9875   -7.9987 N   0  0  0  0  0  0  0  0  0  0  0  0
   29.1870  -20.3355   -6.8751 C   0  0  0  0  0  0  0  0  0  0  0  0
   29.8783  -20.0974   -5.7102 C   0  0  0  0  0  0  0  0  0  0  0  0
   29.2720  -19.3890   -4.6895 C   0  0  0  0  0  0  0  0  0  0  0  0
   28.0022  -18.9279   -4.8276 C   0  0  0  0  0  0  0  0  0  0  0  0
   27.3151  -19.1720   -6.0027 C   0  0  0  0  0  0  0  0  0  0  0  0
   27.8761  -19.8726   -7.0509 C   0  0  0  0  0  0  0  0  0  0  0  0
   24.1732  -21.3823   -9.6237 C   0  0  0  0  0  0  0  0  0  0  0  0
   23.3885  -21.3685  -10.6035 O   0  0  0  0  0  0  0  0  0  0  0  0
   23.6114  -21.6573   -8.3864 O   0  0  0  0  0  0  0  0  0  0  0  0
  2  3  2  0
  2  1  1  0
  4  2  1  0
  5  4  1  0
  5  6  1  1
  7  8  2  0
  7  5  1  0
  9  7  1  0
 10  9  1  0
 11 10  1  0
 11 12  2  0
 13 11  1  0
 14 13  1  0
 14 25  1  0
 14 15  1  1
 16 15  1  0
 17 16  2  0
 18 17  1  0
 19 18  1  0
 19 24  2  0
 20 21  2  0
 20 19  1  0
 21 22  1  0
 22 23  2  0
 24 23  1  0
 24 16  1  0
 25 27  1  0
 26 25  2  0
M  END
$$$$
