NGW.pdb
     RDKit          3D

 27 28  0  0  1  0  0  0  0  0999 V2000
   27.4658  -19.2692  -19.1914 N   0  0  0  0  0  0  0  0  0  0  0  0
   26.4936  -19.9793  -18.4292 C   0  0  0  0  0  0  0  0  0  0  0  0
   25.9178  -20.9572  -18.9495 O   0  0  0  0  0  0  0  0  0  0  0  0
   26.1469  -19.5943  -17.0451 C   0  0  0  0  0  0  0  0  0  0  0  0
   26.8190  -20.5158  -16.0801 C   0  0  2  0  0  0  0  0  0  0  0  0
   26.1722  -21.7972  -16.1265 N   0  0  0  0  0  0  0  0  0  0  0  0
   26.8019  -19.9341  -14.7042 C   0  0  0  0  0  0  0  0  0  0  0  0
   25.7078  -19.5450  -14.2237 O   0  0  0  0  0  0  0  0  0  0  0  0
   27.9660  -19.8017  -13.9168 N   0  0  0  0  0  0  0  0  0  0  0  0
   27.9657  -19.1676  -12.6059 C   0  0  0  0  0  0  0  0  0  0  0  0
   27.5930  -20.2302  -11.6178 C   0  0  0  0  0  0  0  0  0  0  0  0
   28.1986  -21.3491  -11.5887 O   0  0  0  0  0  0  0  0  0  0  0  0
   26.5556  -20.0443  -10.6736 N   0  0  0  0  0  0  0  0  0  0  0  0
   26.2411  -21.0936   -9.6921 C   0  0  1  0  0  0  0  0  0  0  0  0
   27.3895  -21.2798   -8.7450 C   0  0  0  0  0  0  0  0  0  0  0  0
   27.5217  -20.3237   -7.6713 C   0  0  0  0  0  0  0  0  0  0  0  0
   26.8402  -19.0982   -7.6294 C   0  0  0  0  0  0  0  0  0  0  0  0
   27.1458  -18.4575   -6.4980 N   0  0  0  0  0  0  0  0  0  0  0  0
   28.0021  -19.1958   -5.7775 C   0  0  0  0  0  0  0  0  0  0  0  0
   28.6108  -18.9778   -4.5636 C   0  0  0  0  0  0  0  0  0  0  0  0
   29.4756  -19.9282   -4.0534 C   0  0  0  0  0  0  0  0  0  0  0  0
   29.7284  -21.0722   -4.7400 C   0  0  0  0  0  0  0  0  0  0  0  0
   29.1115  -21.2826   -5.9597 C   0  0  0  0  0  0  0  0  0  0  0  0
   28.2398  -20.3658   -6.5111 C   0  0  0  0  0  0  0  0  0  0  0  0
   24.9395  -20.8195   -9.1244 C   0  0  0  0  0  0  0  0  0  0  0  0
   24.2435  -19.8352   -9.4743 O   0  0  0  0  0  0  0  0  0  0  0  0
   24.3960  -21.6461   -8.1531 O   0  0  0  0  0  0  0  0  0  0  0  0
  2  3  2  0
  2  1  1  0
  4  2  1  0
  5  4  1  0
  5  6  1  1
  7  8  2  0
  7  5  1  0
  9  7  1  0
 10  9  1  0
 11 10  1  0
 11 12  2  0
 13 11  1  0
 14 13  1  0
 14 25  1  0
 14 15  1  1
 16 15  1  0
 17 16  2  0
 18 17  1  0
 19 18  1  0
 19 24  2  0
 20 21  2  0
 20 19  1  0
 21 22  1  0
 22 23  2  0
 24 23  1  0
 24 16  1  0
 25 27  1  0
 26 25  2  0
M  END
$$$$
