NGW.pdb
     RDKit          3D

 27 28  0  0  1  0  0  0  0  0999 V2000
   25.6145  -15.9034  -17.9611 N   0  0  0  0  0  0  0  0  0  0  0  0
   26.9529  -15.6952  -17.5185 C   0  0  0  0  0  0  0  0  0  0  0  0
   27.5098  -14.6079  -17.7758 O   0  0  0  0  0  0  0  0  0  0  0  0
   27.7000  -16.7248  -16.7661 C   0  0  0  0  0  0  0  0  0  0  0  0
   26.8291  -17.9172  -16.5389 C   0  0  2  0  0  0  0  0  0  0  0  0
   25.8961  -17.6235  -15.4873 N   0  0  0  0  0  0  0  0  0  0  0  0
   27.6598  -19.1186  -16.2254 C   0  0  0  0  0  0  0  0  0  0  0  0
   28.5746  -19.4481  -17.0216 O   0  0  0  0  0  0  0  0  0  0  0  0
   27.4614  -19.9034  -15.0689 N   0  0  0  0  0  0  0  0  0  0  0  0
   28.2612  -21.0821  -14.7667 C   0  0  0  0  0  0  0  0  0  0  0  0
   27.8539  -21.5349  -13.3980 C   0  0  0  0  0  0  0  0  0  0  0  0
   28.3770  -22.5613  -12.8572 O   0  0  0  0  0  0  0  0  0  0  0  0
   26.8733  -20.8489  -12.6430 N   0  0  0  0  0  0  0  0  0  0  0  0
   25.9606  -21.5868  -11.7567 C   0  0  1  0  0  0  0  0  0  0  0  0
   26.6486  -21.9240  -10.4670 C   0  0  0  0  0  0  0  0  0  0  0  0
   26.8244  -20.8547   -9.5130 C   0  0  0  0  0  0  0  0  0  0  0  0
   26.0237  -19.7033   -9.4751 C   0  0  0  0  0  0  0  0  0  0  0  0
   26.4132  -18.9235   -8.4631 N   0  0  0  0  0  0  0  0  0  0  0  0
   27.4397  -19.4974   -7.8193 C   0  0  0  0  0  0  0  0  0  0  0  0
   28.1860  -19.0982   -6.7352 C   0  0  0  0  0  0  0  0  0  0  0  0
   29.2146  -19.9027   -6.2813 C   0  0  0  0  0  0  0  0  0  0  0  0
   29.4933  -21.0810   -6.8962 C   0  0  0  0  0  0  0  0  0  0  0  0
   28.7372  -21.4741   -7.9853 C   0  0  0  0  0  0  0  0  0  0  0  0
   27.6997  -20.7077   -8.4758 C   0  0  0  0  0  0  0  0  0  0  0  0
   24.7079  -20.8679  -11.6821 C   0  0  0  0  0  0  0  0  0  0  0  0
   23.7016  -21.3239  -11.0860 O   0  0  0  0  0  0  0  0  0  0  0  0
   24.5627  -19.6234  -12.2757 O   0  0  0  0  0  0  0  0  0  0  0  0
  2  3  2  0
  2  1  1  0
  4  2  1  0
  5  4  1  0
  5  6  1  1
  7  8  2  0
  7  5  1  0
  9  7  1  0
 10  9  1  0
 11 10  1  0
 11 12  2  0
 13 11  1  0
 14 13  1  0
 14 25  1  0
 14 15  1  1
 16 15  1  0
 17 16  2  0
 18 17  1  0
 19 18  1  0
 19 24  2  0
 20 21  2  0
 20 19  1  0
 21 22  1  0
 22 23  2  0
 24 23  1  0
 24 16  1  0
 25 27  1  0
 26 25  2  0
M  END
$$$$
