AYC.pdb
     RDKit          3D

 24 24  0  0  1  0  0  0  0  0999 V2000
    8.9291  -18.2245   19.4773 C   0  0  0  0  0  0  0  0  0  0  0  0
    8.6588  -16.7354   19.4651 C   0  0  2  0  0  0  0  0  0  0  0  0
    9.3837  -16.0786   18.3998 N   0  0  0  0  0  0  0  0  0  0  0  0
    8.9741  -16.1031   20.7494 C   0  0  0  0  0  0  0  0  0  0  0  0
   10.1216  -15.6695   21.0578 O   0  0  0  0  0  0  0  0  0  0  0  0
    7.1770  -11.3369   28.0015 O   0  0  0  0  0  0  0  0  0  0  0  0
    7.1085  -12.2399   26.9305 C   0  0  0  0  0  0  0  0  0  0  0  0
    6.3207  -11.9882   25.8273 C   0  0  0  0  0  0  0  0  0  0  0  0
    6.2538  -12.8760   24.7751 C   0  0  0  0  0  0  0  0  0  0  0  0
    6.9676  -14.0565   24.7708 C   0  0  0  0  0  0  0  0  0  0  0  0
    6.8684  -14.9750   23.6302 C   0  0  0  0  0  0  0  0  0  0  0  0
    8.2096  -15.2689   22.9937 C   0  0  2  0  0  0  0  0  0  0  0  0
    7.9593  -15.9473   21.7371 N   0  0  0  0  0  0  0  0  0  0  0  0
    8.9932  -16.1573   23.9148 C   0  0  0  0  0  0  0  0  0  0  0  0
    8.4295  -17.0495   24.5961 O   0  0  0  0  0  0  0  0  0  0  0  0
    7.7560  -14.3090   25.8743 C   0  0  0  0  0  0  0  0  0  0  0  0
    7.8281  -13.4160   26.9410 C   0  0  0  0  0  0  0  0  0  0  0  0
   10.3844  -15.9879   24.0172 N   0  0  0  0  0  0  0  0  0  0  0  0
   11.2562  -16.8198   24.8001 C   0  0  1  0  0  0  0  0  0  0  0  0
   11.1271  -18.2811   24.4355 C   0  0  0  0  0  0  0  0  0  0  0  0
    9.9031  -18.9963   25.5946 S   0  0  0  0  0  0  0  0  0  0  0  0
   12.6630  -16.3528   24.7706 C   0  0  0  0  0  0  0  0  0  0  0  0
   12.9626  -15.2152   24.0377 O   0  0  0  0  0  0  0  0  0  0  0  0
   13.6120  -16.9188   25.3674 O   0  0  0  0  0  0  0  0  0  0  0  0
  2  1  1  1
  2  4  1  0
  2  3  1  0
  4  5  2  0
  7  6  1  0
  7 17  2  0
  8  7  1  0
  9  8  2  0
  9 10  1  0
 10 16  2  0
 11 10  1  0
 12 11  1  1
 13 12  1  0
 13  4  1  0
 14 12  1  0
 14 15  2  0
 16 17  1  0
 18 14  1  0
 19 18  1  0
 19 22  1  0
 20 21  1  0
 19 20  1  6
 22 24  2  0
 22 23  1  0
M  END
$$$$
