AYC.pdb
     RDKit          3D

 24 24  0  0  1  0  0  0  0  0999 V2000
   10.4692  -17.4081   19.4586 C   0  0  0  0  0  0  0  0  0  0  0  0
   10.5447  -17.7283   20.9360 C   0  0  2  0  0  0  0  0  0  0  0  0
    9.5824  -18.7435   21.3033 N   0  0  0  0  0  0  0  0  0  0  0  0
   10.3613  -16.5385   21.7723 C   0  0  0  0  0  0  0  0  0  0  0  0
   11.2211  -15.6178   21.8852 O   0  0  0  0  0  0  0  0  0  0  0  0
    6.1327  -11.0158   27.3342 O   0  0  0  0  0  0  0  0  0  0  0  0
    6.4673  -11.9641   26.3565 C   0  0  0  0  0  0  0  0  0  0  0  0
    7.3549  -11.6695   25.3434 C   0  0  0  0  0  0  0  0  0  0  0  0
    7.6833  -12.6019   24.3828 C   0  0  0  0  0  0  0  0  0  0  0  0
    7.1441  -13.8716   24.3849 C   0  0  0  0  0  0  0  0  0  0  0  0
    7.5203  -14.8352   23.3434 C   0  0  0  0  0  0  0  0  0  0  0  0
    8.9721  -15.2541   23.4269 C   0  0  2  0  0  0  0  0  0  0  0  0
    9.1597  -16.3686   22.5187 N   0  0  0  0  0  0  0  0  0  0  0  0
    9.2686  -15.6783   24.8355 C   0  0  0  0  0  0  0  0  0  0  0  0
    9.2347  -14.8564   25.7848 O   0  0  0  0  0  0  0  0  0  0  0  0
    6.2559  -14.1671   25.3982 C   0  0  0  0  0  0  0  0  0  0  0  0
    5.9197  -13.2294   26.3721 C   0  0  0  0  0  0  0  0  0  0  0  0
    9.5904  -17.0208   25.0975 N   0  0  0  0  0  0  0  0  0  0  0  0
    9.9667  -17.5376   26.3845 C   0  0  1  0  0  0  0  0  0  0  0  0
    8.7712  -18.0108   27.1793 C   0  0  0  0  0  0  0  0  0  0  0  0
    7.3631  -18.0662   26.0099 S   0  0  0  0  0  0  0  0  0  0  0  0
   11.0281  -18.5688   26.2933 C   0  0  0  0  0  0  0  0  0  0  0  0
   11.4963  -19.1356   27.4683 O   0  0  0  0  0  0  0  0  0  0  0  0
   11.5384  -18.9698   25.2182 O   0  0  0  0  0  0  0  0  0  0  0  0
  2  1  1  6
  2  4  1  0
  2  3  1  0
  4  5  2  0
  7  6  1  0
  7 17  2  0
  8  7  1  0
  9  8  2  0
  9 10  1  0
 10 16  2  0
 11 10  1  0
 12 11  1  1
 13 12  1  0
 13  4  1  0
 14 12  1  0
 14 15  2  0
 16 17  1  0
 18 14  1  0
 19 18  1  0
 19 22  1  0
 20 21  1  0
 19 20  1  6
 22 24  2  0
 22 23  1  0
M  END
$$$$
