AYC.pdb
     RDKit          3D

 24 24  0  0  1  0  0  0  0  0999 V2000
    7.5179  -15.2180   17.7692 C   0  0  0  0  0  0  0  0  0  0  0  0
    7.4229  -13.8743   18.4594 C   0  0  2  0  0  0  0  0  0  0  0  0
    8.0468  -12.8340   17.6718 N   0  0  0  0  0  0  0  0  0  0  0  0
    8.0026  -13.8991   19.8054 C   0  0  0  0  0  0  0  0  0  0  0  0
    9.2301  -13.7132   20.0470 O   0  0  0  0  0  0  0  0  0  0  0  0
    8.0591  -13.5329   28.6904 O   0  0  0  0  0  0  0  0  0  0  0  0
    7.6787  -13.6054   27.3424 C   0  0  0  0  0  0  0  0  0  0  0  0
    7.7729  -12.5110   26.5090 C   0  0  0  0  0  0  0  0  0  0  0  0
    7.3988  -12.5829   25.1843 C   0  0  0  0  0  0  0  0  0  0  0  0
    6.9133  -13.7473   24.6261 C   0  0  0  0  0  0  0  0  0  0  0  0
    6.5259  -13.7818   23.2107 C   0  0  0  0  0  0  0  0  0  0  0  0
    7.6862  -14.0955   22.2912 C   0  0  2  0  0  0  0  0  0  0  0  0
    7.1715  -14.1432   20.9366 N   0  0  0  0  0  0  0  0  0  0  0  0
    8.2561  -15.4292   22.6760 C   0  0  0  0  0  0  0  0  0  0  0  0
    7.6495  -16.4976   22.4141 O   0  0  0  0  0  0  0  0  0  0  0  0
    6.8187  -14.8426   25.4593 C   0  0  0  0  0  0  0  0  0  0  0  0
    7.1950  -14.7767   26.7990 C   0  0  0  0  0  0  0  0  0  0  0  0
    9.4922  -15.4841   23.3420 N   0  0  0  0  0  0  0  0  0  0  0  0
   10.0934  -16.6833   23.8572 C   0  0  1  0  0  0  0  0  0  0  0  0
   11.4246  -16.9781   23.2043 C   0  0  0  0  0  0  0  0  0  0  0  0
   11.1246  -16.9789   21.3979 S   0  0  0  0  0  0  0  0  0  0  0  0
   10.1782  -16.6846   25.3374 C   0  0  0  0  0  0  0  0  0  0  0  0
   10.7057  -17.8024   25.9644 O   0  0  0  0  0  0  0  0  0  0  0  0
    9.8030  -15.7370   26.0712 O   0  0  0  0  0  0  0  0  0  0  0  0
  2  1  1  6
  2  4  1  0
  2  3  1  0
  4  5  2  0
  7  6  1  0
  7 17  2  0
  8  7  1  0
  9  8  2  0
  9 10  1  0
 10 16  2  0
 11 10  1  0
 12 11  1  1
 13 12  1  0
 13  4  1  0
 14 12  1  0
 14 15  2  0
 16 17  1  0
 18 14  1  0
 19 18  1  0
 19 22  1  0
 20 21  1  0
 19 20  1  6
 22 24  2  0
 22 23  1  0
M  END
$$$$
