AYC.pdb
     RDKit          3D

 24 24  0  0  1  0  0  0  0  0999 V2000
    8.9438  -18.4696   19.7975 C   0  0  0  0  0  0  0  0  0  0  0  0
    9.4002  -17.0316   19.6765 C   0  0  2  0  0  0  0  0  0  0  0  0
   10.6675  -16.9391   18.9857 N   0  0  0  0  0  0  0  0  0  0  0  0
    9.4904  -16.3659   20.9793 C   0  0  0  0  0  0  0  0  0  0  0  0
   10.5328  -16.3582   21.6955 O   0  0  0  0  0  0  0  0  0  0  0  0
    6.6968  -11.7606   28.0784 O   0  0  0  0  0  0  0  0  0  0  0  0
    6.8026  -12.3694   26.8193 C   0  0  0  0  0  0  0  0  0  0  0  0
    7.5868  -11.8281   25.8227 C   0  0  0  0  0  0  0  0  0  0  0  0
    7.6904  -12.4269   24.5856 C   0  0  0  0  0  0  0  0  0  0  0  0
    7.0185  -13.5927   24.2814 C   0  0  0  0  0  0  0  0  0  0  0  0
    7.1559  -14.1985   22.9515 C   0  0  0  0  0  0  0  0  0  0  0  0
    8.3736  -15.0893   22.8342 C   0  0  2  0  0  0  0  0  0  0  0  0
    8.3620  -15.6753   21.5080 N   0  0  0  0  0  0  0  0  0  0  0  0
    8.2831  -16.1650   23.8765 C   0  0  0  0  0  0  0  0  0  0  0  0
    7.5774  -17.1886   23.6976 O   0  0  0  0  0  0  0  0  0  0  0  0
    6.2337  -14.1349   25.2780 C   0  0  0  0  0  0  0  0  0  0  0  0
    6.1247  -13.5348   26.5304 C   0  0  0  0  0  0  0  0  0  0  0  0
    9.0017  -16.0244   25.0759 N   0  0  0  0  0  0  0  0  0  0  0  0
    9.3958  -17.1125   25.9278 C   0  0  1  0  0  0  0  0  0  0  0  0
   10.2536  -18.1226   25.2006 C   0  0  0  0  0  0  0  0  0  0  0  0
    9.1031  -19.2054   24.2747 S   0  0  0  0  0  0  0  0  0  0  0  0
   10.0191  -16.6474   27.1901 C   0  0  0  0  0  0  0  0  0  0  0  0
   10.3738  -17.5960   28.1364 O   0  0  0  0  0  0  0  0  0  0  0  0
   10.2512  -15.4445   27.4667 O   0  0  0  0  0  0  0  0  0  0  0  0
  2  1  1  1
  2  4  1  0
  2  3  1  0
  4  5  2  0
  7  6  1  0
  7 17  2  0
  8  7  1  0
  9  8  2  0
  9 10  1  0
 10 16  2  0
 11 10  1  0
 12 11  1  6
 13 12  1  0
 13  4  1  0
 14 12  1  0
 14 15  2  0
 16 17  1  0
 18 14  1  0
 19 18  1  0
 19 22  1  0
 20 21  1  0
 19 20  1  6
 22 24  2  0
 22 23  1  0
M  END
$$$$
