AYC.pdb
     RDKit          3D

 24 24  0  0  1  0  0  0  0  0999 V2000
    9.2383  -18.6191   19.5459 C   0  0  0  0  0  0  0  0  0  0  0  0
    9.6195  -17.1555   19.4874 C   0  0  2  0  0  0  0  0  0  0  0  0
   10.8623  -16.9645   18.7728 N   0  0  0  0  0  0  0  0  0  0  0  0
    9.7100  -16.5514   20.8198 C   0  0  0  0  0  0  0  0  0  0  0  0
   10.7644  -16.5416   21.5183 O   0  0  0  0  0  0  0  0  0  0  0  0
    6.9272  -12.0143   27.9819 O   0  0  0  0  0  0  0  0  0  0  0  0
    7.0349  -12.6188   26.7210 C   0  0  0  0  0  0  0  0  0  0  0  0
    6.4043  -13.8122   26.4397 C   0  0  0  0  0  0  0  0  0  0  0  0
    6.5105  -14.4059   25.2003 C   0  0  0  0  0  0  0  0  0  0  0  0
    7.2493  -13.8401   24.1819 C   0  0  0  0  0  0  0  0  0  0  0  0
    7.3369  -14.5048   22.8762 C   0  0  0  0  0  0  0  0  0  0  0  0
    8.6234  -15.2814   22.6970 C   0  0  2  0  0  0  0  0  0  0  0  0
    8.5681  -15.9281   21.4005 N   0  0  0  0  0  0  0  0  0  0  0  0
    8.7180  -16.3103   23.7853 C   0  0  0  0  0  0  0  0  0  0  0  0
    8.0189  -17.3535   23.7589 O   0  0  0  0  0  0  0  0  0  0  0  0
    7.8806  -12.6461   24.4626 C   0  0  0  0  0  0  0  0  0  0  0  0
    7.7773  -12.0409   25.7131 C   0  0  0  0  0  0  0  0  0  0  0  0
    9.6059  -16.1026   24.8545 N   0  0  0  0  0  0  0  0  0  0  0  0
    9.8703  -17.0552   25.8974 C   0  0  1  0  0  0  0  0  0  0  0  0
   10.8953  -18.0851   25.4808 C   0  0  0  0  0  0  0  0  0  0  0  0
   12.4111  -17.1564   25.0414 S   0  0  0  0  0  0  0  0  0  0  0  0
   10.2140  -16.4055   27.1850 C   0  0  0  0  0  0  0  0  0  0  0  0
   10.3844  -17.2088   28.3015 O   0  0  0  0  0  0  0  0  0  0  0  0
   10.3635  -15.1681   27.3387 O   0  0  0  0  0  0  0  0  0  0  0  0
  2  1  1  1
  2  4  1  0
  2  3  1  0
  4  5  2  0
  7  6  1  0
  7 17  2  0
  8  7  1  0
  9  8  2  0
  9 10  1  0
 10 16  2  0
 11 10  1  0
 12 11  1  1
 13 12  1  0
 13  4  1  0
 14 12  1  0
 14 15  2  0
 16 17  1  0
 18 14  1  0
 19 18  1  0
 19 22  1  0
 20 21  1  0
 19 20  1  6
 22 24  2  0
 22 23  1  0
M  END
$$$$
