AYC.pdb
     RDKit          3D

 24 24  0  0  1  0  0  0  0  0999 V2000
    1.8073  -19.5603   20.9255 C   0  0  0  0  0  0  0  0  0  0  0  0
    3.1458  -18.8895   20.7030 C   0  0  2  0  0  0  0  0  0  0  0  0
    4.0703  -19.7731   20.0276 N   0  0  0  0  0  0  0  0  0  0  0  0
    3.7387  -18.4048   21.9528 C   0  0  0  0  0  0  0  0  0  0  0  0
    3.1344  -17.6583   22.7759 O   0  0  0  0  0  0  0  0  0  0  0  0
    9.6261  -17.6734   28.5572 O   0  0  0  0  0  0  0  0  0  0  0  0
    8.9424  -18.0660   27.3972 C   0  0  0  0  0  0  0  0  0  0  0  0
    7.5649  -18.1077   27.3541 C   0  0  0  0  0  0  0  0  0  0  0  0
    6.8936  -18.4935   26.2138 C   0  0  0  0  0  0  0  0  0  0  0  0
    7.5611  -18.8563   25.0623 C   0  0  0  0  0  0  0  0  0  0  0  0
    6.8084  -19.2611   23.8690 C   0  0  0  0  0  0  0  0  0  0  0  0
    5.7098  -18.2850   23.5078 C   0  0  2  0  0  0  0  0  0  0  0  0
    5.0708  -18.7712   22.3005 N   0  0  0  0  0  0  0  0  0  0  0  0
    6.3260  -16.9390   23.2616 C   0  0  0  0  0  0  0  0  0  0  0  0
    6.4411  -16.0958   24.1855 O   0  0  0  0  0  0  0  0  0  0  0  0
    8.9394  -18.8148   25.1048 C   0  0  0  0  0  0  0  0  0  0  0  0
    9.6239  -18.4258   26.2539 C   0  0  0  0  0  0  0  0  0  0  0  0
    6.7829  -16.6157   21.9727 N   0  0  0  0  0  0  0  0  0  0  0  0
    7.3567  -15.3523   21.5992 C   0  0  1  0  0  0  0  0  0  0  0  0
    7.0974  -14.2815   22.6341 C   0  0  0  0  0  0  0  0  0  0  0  0
    7.9386  -12.7695   22.0345 S   0  0  0  0  0  0  0  0  0  0  0  0
    8.7932  -15.4631   21.2493 C   0  0  0  0  0  0  0  0  0  0  0  0
    9.3024  -14.6078   20.2848 O   0  0  0  0  0  0  0  0  0  0  0  0
    9.5895  -16.2837   21.7684 O   0  0  0  0  0  0  0  0  0  0  0  0
  2  1  1  1
  2  4  1  0
  2  3  1  0
  4  5  2  0
  7  6  1  0
  7 17  2  0
  8  7  1  0
  9  8  2  0
  9 10  1  0
 10 16  2  0
 11 10  1  0
 12 11  1  6
 13 12  1  0
 13  4  1  0
 14 12  1  0
 14 15  2  0
 16 17  1  0
 18 14  1  0
 19 18  1  0
 19 22  1  0
 20 21  1  0
 19 20  1  1
 22 24  2  0
 22 23  1  0
M  END
$$$$
