AYC.pdb
     RDKit          3D

 24 24  0  0  1  0  0  0  0  0999 V2000
    7.5691  -12.7028   20.0158 C   0  0  0  0  0  0  0  0  0  0  0  0
    8.5742  -13.4014   19.1255 C   0  0  2  0  0  0  0  0  0  0  0  0
    7.9549  -13.8810   17.9097 N   0  0  0  0  0  0  0  0  0  0  0  0
    9.2512  -14.5055   19.8119 C   0  0  0  0  0  0  0  0  0  0  0  0
    8.8696  -15.7100   19.7544 O   0  0  0  0  0  0  0  0  0  0  0  0
   15.1290  -15.5959   16.3239 O   0  0  0  0  0  0  0  0  0  0  0  0
   14.4981  -15.4260   17.5649 C   0  0  0  0  0  0  0  0  0  0  0  0
   14.1052  -16.5069   18.3255 C   0  0  0  0  0  0  0  0  0  0  0  0
   13.4851  -16.3393   19.5450 C   0  0  0  0  0  0  0  0  0  0  0  0
   13.2267  -15.0882   20.0657 C   0  0  0  0  0  0  0  0  0  0  0  0
   12.5641  -14.9532   21.3685 C   0  0  0  0  0  0  0  0  0  0  0  0
   11.0941  -15.3094   21.3201 C   0  0  2  0  0  0  0  0  0  0  0  0
   10.4104  -14.2526   20.6006 N   0  0  0  0  0  0  0  0  0  0  0  0
   10.5757  -15.3985   22.7256 C   0  0  0  0  0  0  0  0  0  0  0  0
   10.5874  -14.4013   23.4892 O   0  0  0  0  0  0  0  0  0  0  0  0
   13.6195  -14.0063   19.3053 C   0  0  0  0  0  0  0  0  0  0  0  0
   14.2466  -14.1688   18.0720 C   0  0  0  0  0  0  0  0  0  0  0  0
   10.0674  -16.6211   23.1963 N   0  0  0  0  0  0  0  0  0  0  0  0
    9.6385  -16.8654   24.5459 C   0  0  1  0  0  0  0  0  0  0  0  0
    8.1552  -16.6337   24.7222 C   0  0  0  0  0  0  0  0  0  0  0  0
    7.3124  -17.7981   23.5877 S   0  0  0  0  0  0  0  0  0  0  0  0
   10.0654  -18.1948   25.0446 C   0  0  0  0  0  0  0  0  0  0  0  0
    9.9600  -18.4520   26.4025 O   0  0  0  0  0  0  0  0  0  0  0  0
   10.5198  -19.1135   24.3189 O   0  0  0  0  0  0  0  0  0  0  0  0
  2  1  1  1
  2  4  1  0
  2  3  1  0
  4  5  2  0
  7  6  1  0
  7 17  2  0
  8  7  1  0
  9  8  2  0
  9 10  1  0
 10 16  2  0
 11 10  1  0
 12 11  1  1
 13 12  1  0
 13  4  1  0
 14 12  1  0
 14 15  2  0
 16 17  1  0
 18 14  1  0
 19 18  1  0
 19 22  1  0
 20 21  1  0
 19 20  1  6
 22 24  2  0
 22 23  1  0
M  END
$$$$
