AYC.pdb
     RDKit          3D

 24 24  0  0  1  0  0  0  0  0999 V2000
   10.1452  -19.6568   22.4496 C   0  0  0  0  0  0  0  0  0  0  0  0
    9.9093  -18.5270   21.4703 C   0  0  2  0  0  0  0  0  0  0  0  0
   10.7864  -18.6327   20.3253 N   0  0  0  0  0  0  0  0  0  0  0  0
   10.0586  -17.2097   22.0956 C   0  0  0  0  0  0  0  0  0  0  0  0
   11.1325  -16.5416   22.0823 O   0  0  0  0  0  0  0  0  0  0  0  0
    7.5522  -12.8966   17.6105 O   0  0  0  0  0  0  0  0  0  0  0  0
    7.6034  -13.3118   18.9492 C   0  0  0  0  0  0  0  0  0  0  0  0
    8.2599  -12.5690   19.9075 C   0  0  0  0  0  0  0  0  0  0  0  0
    8.3098  -12.9775   21.2230 C   0  0  0  0  0  0  0  0  0  0  0  0
    7.7088  -14.1445   21.6473 C   0  0  0  0  0  0  0  0  0  0  0  0
    7.7853  -14.5439   23.0576 C   0  0  0  0  0  0  0  0  0  0  0  0
    9.0536  -15.3014   23.3862 C   0  0  2  0  0  0  0  0  0  0  0  0
    8.9555  -16.6093   22.7683 N   0  0  0  0  0  0  0  0  0  0  0  0
    9.1574  -15.4392   24.8768 C   0  0  0  0  0  0  0  0  0  0  0  0
    8.3347  -16.1314   25.5265 O   0  0  0  0  0  0  0  0  0  0  0  0
    7.0518  -14.8882   20.6889 C   0  0  0  0  0  0  0  0  0  0  0  0
    6.9976  -14.4810   19.3578 C   0  0  0  0  0  0  0  0  0  0  0  0
   10.1949  -14.7814   25.5591 N   0  0  0  0  0  0  0  0  0  0  0  0
   10.2379  -14.5717   26.9800 C   0  0  1  0  0  0  0  0  0  0  0  0
    9.0662  -13.7519   27.4699 C   0  0  0  0  0  0  0  0  0  0  0  0
    9.4039  -13.3682   29.2283 S   0  0  0  0  0  0  0  0  0  0  0  0
   10.3964  -15.8375   27.7355 C   0  0  0  0  0  0  0  0  0  0  0  0
   11.4058  -15.9159   28.6821 O   0  0  0  0  0  0  0  0  0  0  0  0
    9.6754  -16.8536   27.5784 O   0  0  0  0  0  0  0  0  0  0  0  0
  2  1  1  1
  2  4  1  0
  2  3  1  0
  4  5  2  0
  7  6  1  0
  7 17  2  0
  8  7  1  0
  9  8  2  0
  9 10  1  0
 10 16  2  0
 11 10  1  0
 12 11  1  1
 13 12  1  0
 13  4  1  0
 14 12  1  0
 14 15  2  0
 16 17  1  0
 18 14  1  0
 19 18  1  0
 19 22  1  0
 20 21  1  0
 19 20  1  1
 22 24  2  0
 22 23  1  0
M  END
$$$$
