AYC.pdb
     RDKit          3D

 24 24  0  0  1  0  0  0  0  0999 V2000
    8.6354  -19.9895   21.1799 C   0  0  0  0  0  0  0  0  0  0  0  0
    8.6425  -18.7766   20.2745 C   0  0  2  0  0  0  0  0  0  0  0  0
    9.1504  -19.1048   18.9608 N   0  0  0  0  0  0  0  0  0  0  0  0
    9.4076  -17.6633   20.8435 C   0  0  0  0  0  0  0  0  0  0  0  0
   10.6165  -17.4221   20.5601 O   0  0  0  0  0  0  0  0  0  0  0  0
    6.8786  -12.6432   17.2966 O   0  0  0  0  0  0  0  0  0  0  0  0
    7.2995  -13.0921   18.5569 C   0  0  0  0  0  0  0  0  0  0  0  0
    6.4747  -13.8474   19.3633 C   0  0  0  0  0  0  0  0  0  0  0  0
    6.8890  -14.2883   20.6018 C   0  0  0  0  0  0  0  0  0  0  0  0
    8.1437  -13.9985   21.0966 C   0  0  0  0  0  0  0  0  0  0  0  0
    8.5460  -14.4873   22.4209 C   0  0  0  0  0  0  0  0  0  0  0  0
    9.5076  -15.6536   22.3498 C   0  0  2  0  0  0  0  0  0  0  0  0
    8.7933  -16.7762   21.7738 N   0  0  0  0  0  0  0  0  0  0  0  0
    9.9611  -15.9870   23.7409 C   0  0  0  0  0  0  0  0  0  0  0  0
    9.1378  -16.1247   24.6795 O   0  0  0  0  0  0  0  0  0  0  0  0
    8.9695  -13.2428   20.2903 C   0  0  0  0  0  0  0  0  0  0  0  0
    8.5569  -12.7941   19.0377 C   0  0  0  0  0  0  0  0  0  0  0  0
   11.3330  -16.1481   23.9983 N   0  0  0  0  0  0  0  0  0  0  0  0
   11.8784  -16.8543   25.1248 C   0  0  1  0  0  0  0  0  0  0  0  0
   11.2710  -18.2295   25.2826 C   0  0  0  0  0  0  0  0  0  0  0  0
   11.2582  -18.5852   27.0788 S   0  0  0  0  0  0  0  0  0  0  0  0
   13.3605  -16.8904   25.1080 C   0  0  0  0  0  0  0  0  0  0  0  0
   14.0287  -17.0054   26.3169 O   0  0  0  0  0  0  0  0  0  0  0  0
   14.0610  -16.8237   24.0679 O   0  0  0  0  0  0  0  0  0  0  0  0
  2  1  1  1
  2  4  1  0
  2  3  1  0
  4  5  2  0
  7  6  1  0
  7 17  2  0
  8  7  1  0
  9  8  2  0
  9 10  1  0
 10 16  2  0
 11 10  1  0
 12 11  1  1
 13 12  1  0
 13  4  1  0
 14 12  1  0
 14 15  2  0
 16 17  1  0
 18 14  1  0
 19 18  1  0
 19 22  1  0
 20 21  1  0
 19 20  1  6
 22 24  2  0
 22 23  1  0
M  END
$$$$
