AGW.pdb
     RDKit          3D

 24 25  0  0  1  0  0  0  0  0999 V2000
   27.4120  -15.5257  -15.8698 C   0  0  0  0  0  0  0  0  0  0  0  0
   26.6635  -16.8489  -15.8658 C   0  0  2  0  0  0  0  0  0  0  0  0
   25.9006  -16.8830  -14.6317 N   0  0  0  0  0  0  0  0  0  0  0  0
   27.6529  -17.9279  -15.9498 C   0  0  0  0  0  0  0  0  0  0  0  0
   28.2376  -18.1457  -17.0421 O   0  0  0  0  0  0  0  0  0  0  0  0
   28.0059  -18.7671  -14.8525 N   0  0  0  0  0  0  0  0  0  0  0  0
   28.2494  -20.1694  -15.0619 C   0  0  0  0  0  0  0  0  0  0  0  0
   27.3230  -21.0765  -14.3898 C   0  0  0  0  0  0  0  0  0  0  0  0
   27.3134  -22.2780  -14.8399 O   0  0  0  0  0  0  0  0  0  0  0  0
   26.4573  -20.7906  -13.3267 N   0  0  0  0  0  0  0  0  0  0  0  0
   25.4461  -21.6993  -12.8399 C   0  0  1  0  0  0  0  0  0  0  0  0
   25.9072  -22.4244  -11.5877 C   0  0  0  0  0  0  0  0  0  0  0  0
   26.2333  -21.4886  -10.4886 C   0  0  0  0  0  0  0  0  0  0  0  0
   25.3512  -20.6527   -9.7946 C   0  0  0  0  0  0  0  0  0  0  0  0
   25.9924  -19.9466   -8.8717 N   0  0  0  0  0  0  0  0  0  0  0  0
   27.2841  -20.3068   -8.9496 C   0  0  0  0  0  0  0  0  0  0  0  0
   28.3417  -19.8482   -8.1943 C   0  0  0  0  0  0  0  0  0  0  0  0
   29.5781  -20.3619   -8.4524 C   0  0  0  0  0  0  0  0  0  0  0  0
   29.8058  -21.3146   -9.4323 C   0  0  0  0  0  0  0  0  0  0  0  0
   28.7413  -21.7746  -10.1904 C   0  0  0  0  0  0  0  0  0  0  0  0
   27.4804  -21.2533   -9.9301 C   0  0  0  0  0  0  0  0  0  0  0  0
   24.1910  -20.9900  -12.5287 C   0  0  0  0  0  0  0  0  0  0  0  0
   23.0000  -21.6554  -12.3322 O   0  0  0  0  0  0  0  0  0  0  0  0
   24.1740  -19.7377  -12.4330 O   0  0  0  0  0  0  0  0  0  0  0  0
  2  1  1  1
  3  2  1  0
  4  6  1  0
  4  2  1  0
  5  4  2  0
  7  8  1  0
  7  6  1  0
  8 10  1  0
  9  8  2  0
 10 11  1  0
 11 12  1  1
 12 13  1  0
 13 14  2  0
 13 21  1  0
 14 15  1  0
 15 16  1  0
 16 17  2  0
 17 18  1  0
 19 18  2  0
 20 19  1  0
 21 20  2  0
 21 16  1  0
 22 23  1  0
 22 11  1  0
 24 22  2  0
M  END
$$$$
