AGW.pdb
     RDKit          3D

 24 25  0  0  1  0  0  0  0  0999 V2000
   24.6816  -19.4345  -16.0002 C   0  0  0  0  0  0  0  0  0  0  0  0
   26.1823  -19.1968  -16.0511 C   0  0  2  0  0  0  0  0  0  0  0  0
   26.7273  -20.2137  -16.9316 N   0  0  0  0  0  0  0  0  0  0  0  0
   26.7019  -19.2944  -14.6834 C   0  0  0  0  0  0  0  0  0  0  0  0
   26.3530  -18.4405  -13.8281 O   0  0  0  0  0  0  0  0  0  0  0  0
   27.5965  -20.3149  -14.2461 N   0  0  0  0  0  0  0  0  0  0  0  0
   28.0505  -20.3442  -12.8814 C   0  0  0  0  0  0  0  0  0  0  0  0
   27.1532  -20.9989  -11.9332 C   0  0  0  0  0  0  0  0  0  0  0  0
   26.4511  -21.9567  -12.4191 O   0  0  0  0  0  0  0  0  0  0  0  0
   26.9736  -20.7065  -10.5754 N   0  0  0  0  0  0  0  0  0  0  0  0
   26.1454  -21.4832   -9.6831 C   0  0  1  0  0  0  0  0  0  0  0  0
   26.8531  -21.7601   -8.3683 C   0  0  0  0  0  0  0  0  0  0  0  0
   27.1312  -20.5192   -7.6115 C   0  0  0  0  0  0  0  0  0  0  0  0
   26.7812  -19.2114   -7.9659 C   0  0  0  0  0  0  0  0  0  0  0  0
   27.1943  -18.3441   -7.0501 N   0  0  0  0  0  0  0  0  0  0  0  0
   27.8113  -19.0639   -6.0986 C   0  0  0  0  0  0  0  0  0  0  0  0
   28.4074  -18.6104   -4.9417 C   0  0  0  0  0  0  0  0  0  0  0  0
   28.9777  -19.5332   -4.1155 C   0  0  0  0  0  0  0  0  0  0  0  0
   28.9791  -20.8905   -4.3934 C   0  0  0  0  0  0  0  0  0  0  0  0
   28.3792  -21.3446   -5.5567 C   0  0  0  0  0  0  0  0  0  0  0  0
   27.7974  -20.4071   -6.4006 C   0  0  0  0  0  0  0  0  0  0  0  0
   24.8763  -20.7917   -9.3894 C   0  0  0  0  0  0  0  0  0  0  0  0
   24.5725  -19.5563   -9.9199 O   0  0  0  0  0  0  0  0  0  0  0  0
   24.0231  -21.3199   -8.6338 O   0  0  0  0  0  0  0  0  0  0  0  0
  2  1  1  1
  3  2  1  0
  4  6  1  0
  4  2  1  0
  5  4  2  0
  7  8  1  0
  7  6  1  0
  8 10  1  0
  9  8  2  0
 10 11  1  0
 11 12  1  1
 12 13  1  0
 13 14  2  0
 13 21  1  0
 14 15  1  0
 15 16  1  0
 16 17  2  0
 17 18  1  0
 19 18  2  0
 20 19  1  0
 21 20  2  0
 21 16  1  0
 22 23  1  0
 22 11  1  0
 24 22  2  0
M  END
$$$$
