AGW.pdb
     RDKit          3D

 24 25  0  0  1  0  0  0  0  0999 V2000
   20.2362  -19.4710  -16.9763 C   0  0  0  0  0  0  0  0  0  0  0  0
   21.5332  -18.8265  -16.5142 C   0  0  2  0  0  0  0  0  0  0  0  0
   22.3513  -18.6583  -17.7011 N   0  0  0  0  0  0  0  0  0  0  0  0
   22.1500  -19.7130  -15.5224 C   0  0  0  0  0  0  0  0  0  0  0  0
   22.5755  -20.8408  -15.8824 O   0  0  0  0  0  0  0  0  0  0  0  0
   22.3043  -19.3766  -14.1455 N   0  0  0  0  0  0  0  0  0  0  0  0
   22.9184  -20.3075  -13.2367 C   0  0  0  0  0  0  0  0  0  0  0  0
   24.3506  -20.1228  -13.0186 C   0  0  0  0  0  0  0  0  0  0  0  0
   24.8632  -19.0999  -13.5993 O   0  0  0  0  0  0  0  0  0  0  0  0
   25.2158  -20.9212  -12.2600 N   0  0  0  0  0  0  0  0  0  0  0  0
   26.6542  -20.7947  -12.2738 C   0  0  1  0  0  0  0  0  0  0  0  0
   27.2886  -21.5419  -11.1138 C   0  0  0  0  0  0  0  0  0  0  0  0
   26.8625  -21.0036   -9.8028 C   0  0  0  0  0  0  0  0  0  0  0  0
   25.5537  -20.7790   -9.3613 C   0  0  0  0  0  0  0  0  0  0  0  0
   25.5458  -20.2852   -8.1294 N   0  0  0  0  0  0  0  0  0  0  0  0
   26.8317  -20.1820   -7.7550 C   0  0  0  0  0  0  0  0  0  0  0  0
   27.3342  -19.7208   -6.5575 C   0  0  0  0  0  0  0  0  0  0  0  0
   28.6884  -19.7065   -6.3988 C   0  0  0  0  0  0  0  0  0  0  0  0
   29.5644  -20.1330   -7.3839 C   0  0  0  0  0  0  0  0  0  0  0  0
   29.0573  -20.5965   -8.5870 C   0  0  0  0  0  0  0  0  0  0  0  0
   27.6782  -20.6124   -8.7519 C   0  0  0  0  0  0  0  0  0  0  0  0
   27.2275  -21.3154  -13.5290 C   0  0  0  0  0  0  0  0  0  0  0  0
   28.4700  -20.9304  -13.9848 O   0  0  0  0  0  0  0  0  0  0  0  0
   26.5866  -22.1384  -14.2287 O   0  0  0  0  0  0  0  0  0  0  0  0
  2  1  1  6
  3  2  1  0
  4  6  1  0
  4  2  1  0
  5  4  2  0
  7  8  1  0
  7  6  1  0
  8 10  1  0
  9  8  2  0
 10 11  1  0
 11 12  1  1
 12 13  1  0
 13 14  2  0
 13 21  1  0
 14 15  1  0
 15 16  1  0
 16 17  2  0
 17 18  1  0
 19 18  2  0
 20 19  1  0
 21 20  2  0
 21 16  1  0
 22 23  1  0
 22 11  1  0
 24 22  2  0
M  END
$$$$
