AGW.pdb
     RDKit          3D

 24 25  0  0  1  0  0  0  0  0999 V2000
   25.7942  -17.9738  -15.7676 C   0  0  0  0  0  0  0  0  0  0  0  0
   25.1803  -18.8983  -14.7287 C   0  0  2  0  0  0  0  0  0  0  0  0
   24.0637  -18.1758  -14.1477 N   0  0  0  0  0  0  0  0  0  0  0  0
   26.2174  -19.2241  -13.7446 C   0  0  0  0  0  0  0  0  0  0  0  0
   26.2856  -18.5617  -12.6773 O   0  0  0  0  0  0  0  0  0  0  0  0
   27.1764  -20.2648  -13.9184 N   0  0  0  0  0  0  0  0  0  0  0  0
   28.1692  -20.5114  -12.9069 C   0  0  0  0  0  0  0  0  0  0  0  0
   27.6785  -21.1385  -11.6827 C   0  0  0  0  0  0  0  0  0  0  0  0
   28.2892  -22.2130  -11.3379 O   0  0  0  0  0  0  0  0  0  0  0  0
   26.6343  -20.7088  -10.8542 N   0  0  0  0  0  0  0  0  0  0  0  0
   26.1349  -21.4598   -9.7265 C   0  0  1  0  0  0  0  0  0  0  0  0
   27.2145  -21.6746   -8.6802 C   0  0  0  0  0  0  0  0  0  0  0  0
   27.4071  -20.4833   -7.8237 C   0  0  0  0  0  0  0  0  0  0  0  0
   26.9282  -19.1879   -8.0497 C   0  0  0  0  0  0  0  0  0  0  0  0
   27.2946  -18.3684   -7.0720 N   0  0  0  0  0  0  0  0  0  0  0  0
   28.0080  -19.1075   -6.2064 C   0  0  0  0  0  0  0  0  0  0  0  0
   28.6023  -18.7022   -5.0309 C   0  0  0  0  0  0  0  0  0  0  0  0
   29.2828  -19.6361   -4.3069 C   0  0  0  0  0  0  0  0  0  0  0  0
   29.3962  -20.9584   -4.7049 C   0  0  0  0  0  0  0  0  0  0  0  0
   28.7979  -21.3639   -5.8868 C   0  0  0  0  0  0  0  0  0  0  0  0
   28.1039  -20.4150   -6.6268 C   0  0  0  0  0  0  0  0  0  0  0  0
   24.9980  -20.7736   -9.0848 C   0  0  0  0  0  0  0  0  0  0  0  0
   24.2984  -21.3327   -8.0370 O   0  0  0  0  0  0  0  0  0  0  0  0
   24.6304  -19.6406   -9.4837 O   0  0  0  0  0  0  0  0  0  0  0  0
  2  1  1  6
  3  2  1  0
  4  6  1  0
  4  2  1  0
  5  4  2  0
  7  8  1  0
  7  6  1  0
  8 10  1  0
  9  8  2  0
 10 11  1  0
 11 12  1  1
 12 13  1  0
 13 14  2  0
 13 21  1  0
 14 15  1  0
 15 16  1  0
 16 17  2  0
 17 18  1  0
 19 18  2  0
 20 19  1  0
 21 20  2  0
 21 16  1  0
 22 23  1  0
 22 11  1  0
 24 22  2  0
M  END
$$$$
