AGW.pdb
     RDKit          3D

 24 25  0  0  1  0  0  0  0  0999 V2000
   25.4248  -25.5049  -18.0139 C   0  0  0  0  0  0  0  0  0  0  0  0
   24.6522  -25.9324  -16.7764 C   0  0  2  0  0  0  0  0  0  0  0  0
   24.4808  -27.3699  -16.8781 N   0  0  0  0  0  0  0  0  0  0  0  0
   23.3765  -25.2093  -16.7679 C   0  0  0  0  0  0  0  0  0  0  0  0
   23.3757  -23.9606  -16.6154 O   0  0  0  0  0  0  0  0  0  0  0  0
   22.1070  -25.8393  -16.9245 N   0  0  0  0  0  0  0  0  0  0  0  0
   20.9038  -25.0509  -16.9370 C   0  0  0  0  0  0  0  0  0  0  0  0
   20.3482  -24.7291  -15.6253 C   0  0  0  0  0  0  0  0  0  0  0  0
   19.8084  -25.7142  -15.0052 O   0  0  0  0  0  0  0  0  0  0  0  0
   20.3370  -23.4882  -14.9761 N   0  0  0  0  0  0  0  0  0  0  0  0
   19.8992  -23.2917  -13.6141 C   0  0  1  0  0  0  0  0  0  0  0  0
   21.0748  -23.0625  -12.6804 C   0  0  0  0  0  0  0  0  0  0  0  0
   22.0599  -22.1135  -13.2450 C   0  0  0  0  0  0  0  0  0  0  0  0
   21.9407  -20.7225  -13.3418 C   0  0  0  0  0  0  0  0  0  0  0  0
   23.0180  -20.1913  -13.9065 N   0  0  0  0  0  0  0  0  0  0  0  0
   23.8438  -21.2142  -14.1823 C   0  0  0  0  0  0  0  0  0  0  0  0
   25.0884  -21.1668  -14.7722 C   0  0  0  0  0  0  0  0  0  0  0  0
   25.7515  -22.3443  -14.9546 C   0  0  0  0  0  0  0  0  0  0  0  0
   25.2265  -23.5685  -14.5735 C   0  0  0  0  0  0  0  0  0  0  0  0
   23.9752  -23.6141  -13.9805 C   0  0  0  0  0  0  0  0  0  0  0  0
   23.2970  -22.4164  -13.7932 C   0  0  0  0  0  0  0  0  0  0  0  0
   18.9883  -22.1370  -13.5037 C   0  0  0  0  0  0  0  0  0  0  0  0
   18.2076  -21.9207  -12.3886 O   0  0  0  0  0  0  0  0  0  0  0  0
   18.8980  -21.3051  -14.4405 O   0  0  0  0  0  0  0  0  0  0  0  0
  2  1  1  6
  3  2  1  0
  4  6  1  0
  4  2  1  0
  5  4  2  0
  7  8  1  0
  7  6  1  0
  8 10  1  0
  9  8  2  0
 10 11  1  0
 11 12  1  1
 12 13  1  0
 13 14  2  0
 13 21  1  0
 14 15  1  0
 15 16  1  0
 16 17  2  0
 17 18  1  0
 19 18  2  0
 20 19  1  0
 21 20  2  0
 21 16  1  0
 22 23  1  0
 22 11  1  0
 24 22  2  0
M  END
$$$$
