AGW.pdb
     RDKit          3D

 24 25  0  0  1  0  0  0  0  0999 V2000
   29.2941  -19.0713  -18.6314 C   0  0  0  0  0  0  0  0  0  0  0  0
   29.3391  -19.8265  -17.3128 C   0  0  2  0  0  0  0  0  0  0  0  0
   29.1829  -21.2315  -17.6411 N   0  0  0  0  0  0  0  0  0  0  0  0
   28.2556  -19.3195  -16.4647 C   0  0  0  0  0  0  0  0  0  0  0  0
   27.0956  -19.2172  -16.9404 O   0  0  0  0  0  0  0  0  0  0  0  0
   28.4309  -18.9252  -15.1057 N   0  0  0  0  0  0  0  0  0  0  0  0
   27.3094  -18.4539  -14.3378 C   0  0  0  0  0  0  0  0  0  0  0  0
   26.4138  -19.4900  -13.8305 C   0  0  0  0  0  0  0  0  0  0  0  0
   25.5233  -19.8953  -14.6607 O   0  0  0  0  0  0  0  0  0  0  0  0
   26.4148  -20.0832  -12.5619 N   0  0  0  0  0  0  0  0  0  0  0  0
   25.6655  -21.2703  -12.2232 C   0  0  1  0  0  0  0  0  0  0  0  0
   26.2721  -21.9885  -11.0305 C   0  0  0  0  0  0  0  0  0  0  0  0
   26.3823  -21.1089   -9.8456 C   0  0  0  0  0  0  0  0  0  0  0  0
   25.3722  -20.3319   -9.2673 C   0  0  0  0  0  0  0  0  0  0  0  0
   25.8294  -19.6649   -8.2148 N   0  0  0  0  0  0  0  0  0  0  0  0
   27.1263  -19.9927   -8.0934 C   0  0  0  0  0  0  0  0  0  0  0  0
   28.0292  -19.5546   -7.1488 C   0  0  0  0  0  0  0  0  0  0  0  0
   29.3063  -20.0267   -7.2220 C   0  0  0  0  0  0  0  0  0  0  0  0
   29.7225  -20.9182   -8.1975 C   0  0  0  0  0  0  0  0  0  0  0  0
   28.8134  -21.3577   -9.1461 C   0  0  0  0  0  0  0  0  0  0  0  0
   27.5115  -20.8786   -9.0744 C   0  0  0  0  0  0  0  0  0  0  0  0
   24.2621  -20.9473  -11.9047 C   0  0  0  0  0  0  0  0  0  0  0  0
   23.2656  -21.8993  -11.9272 O   0  0  0  0  0  0  0  0  0  0  0  0
   23.9320  -19.7746  -11.5991 O   0  0  0  0  0  0  0  0  0  0  0  0
  2  1  1  6
  3  2  1  0
  4  6  1  0
  4  2  1  0
  5  4  2  0
  7  8  1  0
  7  6  1  0
  8 10  1  0
  9  8  2  0
 10 11  1  0
 11 12  1  1
 12 13  1  0
 13 14  2  0
 13 21  1  0
 14 15  1  0
 15 16  1  0
 16 17  2  0
 17 18  1  0
 19 18  2  0
 20 19  1  0
 21 20  2  0
 21 16  1  0
 22 23  1  0
 22 11  1  0
 24 22  2  0
M  END
$$$$
