AGW.pdb
     RDKit          3D

 24 25  0  0  1  0  0  0  0  0999 V2000
   25.9902  -18.9146  -17.3993 C   0  0  0  0  0  0  0  0  0  0  0  0
   27.2497  -19.5768  -16.8641 C   0  0  2  0  0  0  0  0  0  0  0  0
   27.0179  -21.0080  -16.9289 N   0  0  0  0  0  0  0  0  0  0  0  0
   27.4641  -19.0993  -15.4944 C   0  0  0  0  0  0  0  0  0  0  0  0
   27.1997  -17.9030  -15.2091 O   0  0  0  0  0  0  0  0  0  0  0  0
   27.9632  -19.9174  -14.4386 N   0  0  0  0  0  0  0  0  0  0  0  0
   27.8487  -19.4852  -13.0713 C   0  0  0  0  0  0  0  0  0  0  0  0
   27.0996  -20.3766  -12.1898 C   0  0  0  0  0  0  0  0  0  0  0  0
   26.5074  -21.3522  -12.7762 O   0  0  0  0  0  0  0  0  0  0  0  0
   26.9554  -20.2907  -10.7994 N   0  0  0  0  0  0  0  0  0  0  0  0
   26.2859  -21.2837   -9.9925 C   0  0  1  0  0  0  0  0  0  0  0  0
   27.0965  -21.6341   -8.7570 C   0  0  0  0  0  0  0  0  0  0  0  0
   27.3393  -20.4556   -7.8955 C   0  0  0  0  0  0  0  0  0  0  0  0
   26.9359  -19.1359   -8.1277 C   0  0  0  0  0  0  0  0  0  0  0  0
   27.3298  -18.3382   -7.1427 N   0  0  0  0  0  0  0  0  0  0  0  0
   27.9868  -19.1157   -6.2662 C   0  0  0  0  0  0  0  0  0  0  0  0
   28.5822  -18.7442   -5.0801 C   0  0  0  0  0  0  0  0  0  0  0  0
   29.1982  -19.7143   -4.3461 C   0  0  0  0  0  0  0  0  0  0  0  0
   29.2459  -21.0406   -4.7441 C   0  0  0  0  0  0  0  0  0  0  0  0
   28.6466  -21.4121   -5.9367 C   0  0  0  0  0  0  0  0  0  0  0  0
   28.0182  -20.4263   -6.6869 C   0  0  0  0  0  0  0  0  0  0  0  0
   24.9569  -20.8154   -9.5571 C   0  0  0  0  0  0  0  0  0  0  0  0
   24.0538  -21.6467   -8.9300 O   0  0  0  0  0  0  0  0  0  0  0  0
   24.6064  -19.6247   -9.7500 O   0  0  0  0  0  0  0  0  0  0  0  0
  2  1  1  1
  3  2  1  0
  4  6  1  0
  4  2  1  0
  5  4  2  0
  7  8  1  0
  7  6  1  0
  8 10  1  0
  9  8  2  0
 10 11  1  0
 11 12  1  1
 12 13  1  0
 13 14  2  0
 13 21  1  0
 14 15  1  0
 15 16  1  0
 16 17  2  0
 17 18  1  0
 19 18  2  0
 20 19  1  0
 21 20  2  0
 21 16  1  0
 22 23  1  0
 22 11  1  0
 24 22  2  0
M  END
$$$$
