AGW.pdb
     RDKit          3D

 24 25  0  0  1  0  0  0  0  0999 V2000
   26.9479  -19.7438  -17.4313 C   0  0  0  0  0  0  0  0  0  0  0  0
   26.9941  -20.9135  -16.4615 C   0  0  2  0  0  0  0  0  0  0  0  0
   25.7816  -21.6788  -16.6864 N   0  0  0  0  0  0  0  0  0  0  0  0
   27.0767  -20.3703  -15.1020 C   0  0  0  0  0  0  0  0  0  0  0  0
   26.3354  -19.4077  -14.7757 O   0  0  0  0  0  0  0  0  0  0  0  0
   27.9604  -20.8700  -14.1008 N   0  0  0  0  0  0  0  0  0  0  0  0
   27.9317  -20.3229  -12.7707 C   0  0  0  0  0  0  0  0  0  0  0  0
   26.9837  -20.9487  -11.8527 C   0  0  0  0  0  0  0  0  0  0  0  0
   26.0982  -21.6933  -12.4073 O   0  0  0  0  0  0  0  0  0  0  0  0
   26.9308  -20.8317  -10.4581 N   0  0  0  0  0  0  0  0  0  0  0  0
   25.9878  -21.5370   -9.6222 C   0  0  1  0  0  0  0  0  0  0  0  0
   26.5629  -21.8088   -8.2432 C   0  0  0  0  0  0  0  0  0  0  0  0
   27.0792  -20.5796   -7.6011 C   0  0  0  0  0  0  0  0  0  0  0  0
   26.8209  -19.2549   -7.9712 C   0  0  0  0  0  0  0  0  0  0  0  0
   27.4539  -18.4058   -7.1712 N   0  0  0  0  0  0  0  0  0  0  0  0
   28.1250  -19.1543   -6.2803 C   0  0  0  0  0  0  0  0  0  0  0  0
   28.9297  -18.7276   -5.2460 C   0  0  0  0  0  0  0  0  0  0  0  0
   29.5148  -19.6771   -4.4615 C   0  0  0  0  0  0  0  0  0  0  0  0
   29.3318  -21.0354   -4.6639 C   0  0  0  0  0  0  0  0  0  0  0  0
   28.5223  -21.4625   -5.7040 C   0  0  0  0  0  0  0  0  0  0  0  0
   27.9247  -20.4978   -6.5052 C   0  0  0  0  0  0  0  0  0  0  0  0
   24.7370  -20.7727   -9.4600 C   0  0  0  0  0  0  0  0  0  0  0  0
   23.5989  -21.3318   -8.9196 O   0  0  0  0  0  0  0  0  0  0  0  0
   24.6746  -19.5699   -9.8167 O   0  0  0  0  0  0  0  0  0  0  0  0
  2  1  1  6
  3  2  1  0
  4  6  1  0
  4  2  1  0
  5  4  2  0
  7  8  1  0
  7  6  1  0
  8 10  1  0
  9  8  2  0
 10 11  1  0
 11 12  1  1
 12 13  1  0
 13 14  2  0
 13 21  1  0
 14 15  1  0
 15 16  1  0
 16 17  2  0
 17 18  1  0
 19 18  2  0
 20 19  1  0
 21 20  2  0
 21 16  1  0
 22 23  1  0
 22 11  1  0
 24 22  2  0
M  END
$$$$
