YAF.pdb
     RDKit          3D

 29 30  0  0  1  0  0  0  0  0999 V2000
   20.9471  -20.7688   -9.2014 O   0  0  0  0  0  0  0  0  0  0  0  0
   22.0492  -20.7263  -10.0674 C   0  0  0  0  0  0  0  0  0  0  0  0
   23.2651  -20.2186   -9.6550 C   0  0  0  0  0  0  0  0  0  0  0  0
   24.3692  -20.1612  -10.4784 C   0  0  0  0  0  0  0  0  0  0  0  0
   24.2824  -20.6239  -11.7742 C   0  0  0  0  0  0  0  0  0  0  0  0
   25.4246  -20.5916  -12.7065 C   0  0  0  0  0  0  0  0  0  0  0  0
   26.0167  -21.9903  -12.8904 C   0  0  2  0  0  0  0  0  0  0  0  0
   26.8591  -22.2561  -11.7537 N   0  0  0  0  0  0  0  0  0  0  0  0
   26.7899  -22.0154  -14.1519 C   0  0  0  0  0  0  0  0  0  0  0  0
   27.9543  -21.5029  -14.1086 O   0  0  0  0  0  0  0  0  0  0  0  0
   23.0724  -21.1325  -12.1945 C   0  0  0  0  0  0  0  0  0  0  0  0
   21.9740  -21.1869  -11.3671 C   0  0  0  0  0  0  0  0  0  0  0  0
   26.7924  -23.5848  -17.5351 C   0  0  0  0  0  0  0  0  0  0  0  0
   27.1107  -22.4712  -16.5415 C   0  0  2  0  0  0  0  0  0  0  0  0
   26.3054  -22.5675  -15.3666 N   0  0  0  0  0  0  0  0  0  0  0  0
   26.9288  -21.1768  -17.2537 C   0  0  0  0  0  0  0  0  0  0  0  0
   25.8219  -20.6026  -17.2815 O   0  0  0  0  0  0  0  0  0  0  0  0
   28.0370  -20.6151  -17.8961 N   0  0  0  0  0  0  0  0  0  0  0  0
   28.0309  -19.3292  -18.5653 C   0  0  1  0  0  0  0  0  0  0  0  0
   28.8761  -18.4201  -17.6986 C   0  0  0  0  0  0  0  0  0  0  0  0
   28.3001  -18.0965  -16.3973 C   0  0  0  0  0  0  0  0  0  0  0  0
   28.6400  -18.7903  -15.2560 C   0  0  0  0  0  0  0  0  0  0  0  0
   28.0777  -18.4613  -14.0171 C   0  0  0  0  0  0  0  0  0  0  0  0
   27.1645  -17.4264  -13.9164 C   0  0  0  0  0  0  0  0  0  0  0  0
   26.8219  -16.7299  -15.0557 C   0  0  0  0  0  0  0  0  0  0  0  0
   27.3945  -17.0751  -16.2787 C   0  0  0  0  0  0  0  0  0  0  0  0
   28.6064  -19.5250  -19.9100 C   0  0  0  0  0  0  0  0  0  0  0  0
   29.2141  -20.7268  -20.2138 O   0  0  0  0  0  0  0  0  0  0  0  0
   28.5721  -18.6517  -20.7959 O   0  0  0  0  0  0  0  0  0  0  0  0
  2 12  2  0
  2  1  1  0
  3  2  1  0
  4  5  1  0
  4  3  2  0
  5 11  2  0
  6  5  1  0
  7  8  1  1
  7  6  1  0
  9  7  1  0
 10  9  2  0
 11 12  1  0
 14 13  1  6
 14 16  1  0
 14 15  1  0
 15  9  1  0
 16 17  2  0
 18 19  1  0
 18 16  1  0
 19 20  1  1
 20 21  1  0
 21 22  2  0
 22 23  1  0
 24 23  2  0
 25 24  1  0
 26 25  2  0
 26 21  1  0
 27 19  1  0
 28 27  1  0
 29 27  2  0
M  END
$$$$
