YAF.pdb
     RDKit          3D

 29 30  0  0  1  0  0  0  0  0999 V2000
   22.2008  -17.8367  -16.9751 O   0  0  0  0  0  0  0  0  0  0  0  0
   22.7225  -18.4145  -15.8087 C   0  0  0  0  0  0  0  0  0  0  0  0
   21.9648  -19.2674  -15.0310 C   0  0  0  0  0  0  0  0  0  0  0  0
   22.4444  -19.8532  -13.8791 C   0  0  0  0  0  0  0  0  0  0  0  0
   23.7328  -19.5930  -13.4633 C   0  0  0  0  0  0  0  0  0  0  0  0
   24.3074  -20.1864  -12.2415 C   0  0  0  0  0  0  0  0  0  0  0  0
   25.4170  -21.1807  -12.5895 C   0  0  2  0  0  0  0  0  0  0  0  0
   24.7889  -22.3572  -13.1313 N   0  0  0  0  0  0  0  0  0  0  0  0
   26.1761  -21.4934  -11.3583 C   0  0  0  0  0  0  0  0  0  0  0  0
   25.4977  -21.9338  -10.3754 O   0  0  0  0  0  0  0  0  0  0  0  0
   24.4966  -18.7427  -14.2335 C   0  0  0  0  0  0  0  0  0  0  0  0
   24.0114  -18.1612  -15.3826 C   0  0  0  0  0  0  0  0  0  0  0  0
   29.6611  -21.0320   -9.9831 C   0  0  0  0  0  0  0  0  0  0  0  0
   28.1571  -21.2839   -9.9255 C   0  0  2  0  0  0  0  0  0  0  0  0
   27.5803  -21.3290  -11.2307 N   0  0  0  0  0  0  0  0  0  0  0  0
   27.5616  -20.2174   -9.0748 C   0  0  0  0  0  0  0  0  0  0  0  0
   26.7269  -19.4127   -9.5344 O   0  0  0  0  0  0  0  0  0  0  0  0
   27.9634  -20.1383   -7.7374 N   0  0  0  0  0  0  0  0  0  0  0  0
   27.5208  -19.1173   -6.8085 C   0  0  1  0  0  0  0  0  0  0  0  0
   26.8112  -19.8629   -5.6984 C   0  0  0  0  0  0  0  0  0  0  0  0
   27.6728  -20.6933   -4.8628 C   0  0  0  0  0  0  0  0  0  0  0  0
   27.7032  -22.0658   -4.9838 C   0  0  0  0  0  0  0  0  0  0  0  0
   28.5394  -22.8433   -4.1743 C   0  0  0  0  0  0  0  0  0  0  0  0
   29.3558  -22.2426   -3.2319 C   0  0  0  0  0  0  0  0  0  0  0  0
   29.3284  -20.8699   -3.1078 C   0  0  0  0  0  0  0  0  0  0  0  0
   28.4877  -20.1160   -3.9248 C   0  0  0  0  0  0  0  0  0  0  0  0
   28.7191  -18.3996   -6.3324 C   0  0  0  0  0  0  0  0  0  0  0  0
   29.9689  -18.9087   -6.6239 O   0  0  0  0  0  0  0  0  0  0  0  0
   28.6610  -17.3456   -5.6733 O   0  0  0  0  0  0  0  0  0  0  0  0
  2 12  2  0
  2  1  1  0
  3  2  1  0
  4  5  1  0
  4  3  2  0
  5 11  2  0
  6  5  1  0
  7  8  1  1
  7  6  1  0
  9  7  1  0
 10  9  2  0
 11 12  1  0
 14 13  1  6
 14 16  1  0
 14 15  1  0
 15  9  1  0
 16 17  2  0
 18 19  1  0
 18 16  1  0
 19 20  1  1
 20 21  1  0
 21 22  2  0
 22 23  1  0
 24 23  2  0
 25 24  1  0
 26 25  2  0
 26 21  1  0
 27 19  1  0
 28 27  1  0
 29 27  2  0
M  END
$$$$
