YAF.pdb
     RDKit          3D

 29 30  0  0  1  0  0  0  0  0999 V2000
   32.3410  -26.8709  -18.0268 O   0  0  0  0  0  0  0  0  0  0  0  0
   31.6508  -25.7609  -17.5189 C   0  0  0  0  0  0  0  0  0  0  0  0
   31.8276  -24.5008  -18.0546 C   0  0  0  0  0  0  0  0  0  0  0  0
   31.1664  -23.3877  -17.5811 C   0  0  0  0  0  0  0  0  0  0  0  0
   30.2851  -23.5106  -16.5281 C   0  0  0  0  0  0  0  0  0  0  0  0
   29.5459  -22.3612  -15.9738 C   0  0  0  0  0  0  0  0  0  0  0  0
   28.0761  -22.4043  -16.3966 C   0  0  2  0  0  0  0  0  0  0  0  0
   28.0073  -21.9672  -17.7664 N   0  0  0  0  0  0  0  0  0  0  0  0
   27.3007  -21.5120  -15.5065 C   0  0  0  0  0  0  0  0  0  0  0  0
   27.4966  -20.2627  -15.6525 O   0  0  0  0  0  0  0  0  0  0  0  0
   30.1023  -24.7649  -15.9870 C   0  0  0  0  0  0  0  0  0  0  0  0
   30.7658  -25.8720  -16.4646 C   0  0  0  0  0  0  0  0  0  0  0  0
   24.2927  -20.7415  -14.2097 C   0  0  0  0  0  0  0  0  0  0  0  0
   25.7063  -21.0207  -13.7071 C   0  0  2  0  0  0  0  0  0  0  0  0
   26.3792  -21.9736  -14.5303 N   0  0  0  0  0  0  0  0  0  0  0  0
   25.5930  -21.4681  -12.2919 C   0  0  0  0  0  0  0  0  0  0  0  0
   25.3756  -22.6623  -12.0054 O   0  0  0  0  0  0  0  0  0  0  0  0
   25.7373  -20.5101  -11.2831 N   0  0  0  0  0  0  0  0  0  0  0  0
   25.5707  -20.7791   -9.8685 C   0  0  1  0  0  0  0  0  0  0  0  0
   26.1124  -19.5562   -9.1593 C   0  0  0  0  0  0  0  0  0  0  0  0
   27.1927  -19.8184   -8.2137 C   0  0  0  0  0  0  0  0  0  0  0  0
   28.0478  -20.8891   -8.3615 C   0  0  0  0  0  0  0  0  0  0  0  0
   29.0796  -21.1205   -7.4444 C   0  0  0  0  0  0  0  0  0  0  0  0
   29.2599  -20.2720   -6.3660 C   0  0  0  0  0  0  0  0  0  0  0  0
   28.4067  -19.1998   -6.2147 C   0  0  0  0  0  0  0  0  0  0  0  0
   27.3862  -18.9890   -7.1404 C   0  0  0  0  0  0  0  0  0  0  0  0
   24.1304  -20.9851   -9.6216 C   0  0  0  0  0  0  0  0  0  0  0  0
   23.7359  -21.8396   -8.6116 O   0  0  0  0  0  0  0  0  0  0  0  0
   23.2413  -20.4212  -10.2852 O   0  0  0  0  0  0  0  0  0  0  0  0
  2 12  2  0
  2  1  1  0
  3  2  1  0
  4  5  1  0
  4  3  2  0
  5 11  2  0
  6  5  1  0
  7  8  1  6
  7  6  1  0
  9  7  1  0
 10  9  2  0
 11 12  1  0
 14 13  1  6
 14 16  1  0
 14 15  1  0
 15  9  1  0
 16 17  2  0
 18 19  1  0
 18 16  1  0
 19 20  1  1
 20 21  1  0
 21 22  2  0
 22 23  1  0
 24 23  2  0
 25 24  1  0
 26 25  2  0
 26 21  1  0
 27 19  1  0
 28 27  1  0
 29 27  2  0
M  END
$$$$
