YAF.pdb
     RDKit          3D

 29 30  0  0  1  0  0  0  0  0999 V2000
   26.4965  -17.4572  -16.1075 O   0  0  0  0  0  0  0  0  0  0  0  0
   25.8733  -16.2062  -16.2216 C   0  0  0  0  0  0  0  0  0  0  0  0
   25.4925  -15.4910  -15.1037 C   0  0  0  0  0  0  0  0  0  0  0  0
   24.8782  -14.2592  -15.1778 C   0  0  0  0  0  0  0  0  0  0  0  0
   24.6215  -13.6945  -16.4091 C   0  0  0  0  0  0  0  0  0  0  0  0
   23.9680  -12.3810  -16.5589 C   0  0  0  0  0  0  0  0  0  0  0  0
   22.4450  -12.5275  -16.5560 C   0  0  2  0  0  0  0  0  0  0  0  0
   22.0737  -13.2066  -17.7698 N   0  0  0  0  0  0  0  0  0  0  0  0
   21.8394  -11.1791  -16.4859 C   0  0  0  0  0  0  0  0  0  0  0  0
   22.0809  -10.4021  -17.4649 O   0  0  0  0  0  0  0  0  0  0  0  0
   24.9983  -14.4014  -17.5306 C   0  0  0  0  0  0  0  0  0  0  0  0
   25.6113  -15.6309  -17.4494 C   0  0  0  0  0  0  0  0  0  0  0  0
   19.3637   -9.2183  -14.4532 C   0  0  0  0  0  0  0  0  0  0  0  0
   20.5144   -9.3987  -15.4392 C   0  0  2  0  0  0  0  0  0  0  0  0
   21.0286  -10.7303  -15.4106 N   0  0  0  0  0  0  0  0  0  0  0  0
   21.5476   -8.3806  -15.1052 C   0  0  0  0  0  0  0  0  0  0  0  0
   22.5955   -8.6935  -14.5056 O   0  0  0  0  0  0  0  0  0  0  0  0
   21.3139   -7.0542  -15.4826 N   0  0  0  0  0  0  0  0  0  0  0  0
   22.2660   -5.9745  -15.3125 C   0  0  1  0  0  0  0  0  0  0  0  0
   22.9875   -5.8610  -16.6386 C   0  0  0  0  0  0  0  0  0  0  0  0
   23.8587   -4.6976  -16.7704 C   0  0  0  0  0  0  0  0  0  0  0  0
   23.4171   -3.5142  -17.3219 C   0  0  0  0  0  0  0  0  0  0  0  0
   24.2687   -2.4092  -17.4360 C   0  0  0  0  0  0  0  0  0  0  0  0
   25.5778   -2.4867  -16.9938 C   0  0  0  0  0  0  0  0  0  0  0  0
   26.0233   -3.6687  -16.4415 C   0  0  0  0  0  0  0  0  0  0  0  0
   25.1575   -4.7560  -16.3380 C   0  0  0  0  0  0  0  0  0  0  0  0
   21.5024   -4.7569  -14.9775 C   0  0  0  0  0  0  0  0  0  0  0  0
   22.0686   -3.8162  -14.1406 O   0  0  0  0  0  0  0  0  0  0  0  0
   20.3599   -4.5310  -15.4159 O   0  0  0  0  0  0  0  0  0  0  0  0
  2 12  2  0
  2  1  1  0
  3  2  1  0
  4  5  1  0
  4  3  2  0
  5 11  2  0
  6  5  1  0
  7  8  1  6
  7  6  1  0
  9  7  1  0
 10  9  2  0
 11 12  1  0
 14 13  1  1
 14 16  1  0
 14 15  1  0
 15  9  1  0
 16 17  2  0
 18 19  1  0
 18 16  1  0
 19 20  1  6
 20 21  1  0
 21 22  2  0
 22 23  1  0
 24 23  2  0
 25 24  1  0
 26 25  2  0
 26 21  1  0
 27 19  1  0
 28 27  1  0
 29 27  2  0
M  END
$$$$
