YAF.pdb
     RDKit          3D

 29 30  0  0  1  0  0  0  0  0999 V2000
   18.1204  -18.1223  -18.3279 O   0  0  0  0  0  0  0  0  0  0  0  0
   18.5898  -16.8688  -17.9096 C   0  0  0  0  0  0  0  0  0  0  0  0
   17.9370  -15.7048  -18.2635 C   0  0  0  0  0  0  0  0  0  0  0  0
   18.3696  -14.4562  -17.8708 C   0  0  0  0  0  0  0  0  0  0  0  0
   19.5000  -14.3367  -17.0907 C   0  0  0  0  0  0  0  0  0  0  0  0
   20.0163  -13.0321  -16.6365 C   0  0  0  0  0  0  0  0  0  0  0  0
   20.6295  -12.2537  -17.8024 C   0  0  2  0  0  0  0  0  0  0  0  0
   21.8945  -12.8663  -18.1134 N   0  0  0  0  0  0  0  0  0  0  0  0
   20.8005  -10.8423  -17.3919 C   0  0  0  0  0  0  0  0  0  0  0  0
   21.8357  -10.5791  -16.6994 O   0  0  0  0  0  0  0  0  0  0  0  0
   20.1582  -15.4934  -16.7327 C   0  0  0  0  0  0  0  0  0  0  0  0
   19.7209  -16.7369  -17.1283 C   0  0  0  0  0  0  0  0  0  0  0  0
   19.3728   -7.4538  -18.1481 C   0  0  0  0  0  0  0  0  0  0  0  0
   20.2094   -8.4609  -17.3642 C   0  0  2  0  0  0  0  0  0  0  0  0
   19.8909   -9.8049  -17.7257 N   0  0  0  0  0  0  0  0  0  0  0  0
   19.9866   -8.1910  -15.9174 C   0  0  0  0  0  0  0  0  0  0  0  0
   19.1520   -8.8422  -15.2578 O   0  0  0  0  0  0  0  0  0  0  0  0
   20.7413   -7.1820  -15.3101 N   0  0  0  0  0  0  0  0  0  0  0  0
   20.6564   -6.8279  -13.9070 C   0  0  1  0  0  0  0  0  0  0  0  0
   22.0615   -6.4317  -13.5059 C   0  0  0  0  0  0  0  0  0  0  0  0
   22.5850   -5.2469  -14.1783 C   0  0  0  0  0  0  0  0  0  0  0  0
   23.3945   -5.3370  -15.2901 C   0  0  0  0  0  0  0  0  0  0  0  0
   23.8835   -4.1875  -15.9217 C   0  0  0  0  0  0  0  0  0  0  0  0
   23.5601   -2.9322  -15.4370 C   0  0  0  0  0  0  0  0  0  0  0  0
   22.7506   -2.8379  -14.3251 C   0  0  0  0  0  0  0  0  0  0  0  0
   22.2753   -3.9962  -13.7125 C   0  0  0  0  0  0  0  0  0  0  0  0
   19.6977   -5.7124  -13.7871 C   0  0  0  0  0  0  0  0  0  0  0  0
   19.2217   -5.3651  -12.5386 O   0  0  0  0  0  0  0  0  0  0  0  0
   19.2907   -5.0601  -14.7656 O   0  0  0  0  0  0  0  0  0  0  0  0
  2 12  2  0
  2  1  1  0
  3  2  1  0
  4  5  1  0
  4  3  2  0
  5 11  2  0
  6  5  1  0
  7  8  1  1
  7  6  1  0
  9  7  1  0
 10  9  2  0
 11 12  1  0
 14 13  1  6
 14 16  1  0
 14 15  1  0
 15  9  1  0
 16 17  2  0
 18 19  1  0
 18 16  1  0
 19 20  1  6
 20 21  1  0
 21 22  2  0
 22 23  1  0
 24 23  2  0
 25 24  1  0
 26 25  2  0
 26 21  1  0
 27 19  1  0
 28 27  1  0
 29 27  2  0
M  END
$$$$
