YAF.pdb
     RDKit          3D

 29 30  0  0  1  0  0  0  0  0999 V2000
   37.1759   -6.8872  -12.6886 O   0  0  0  0  0  0  0  0  0  0  0  0
   37.3651   -6.4484  -11.3703 C   0  0  0  0  0  0  0  0  0  0  0  0
   37.7645   -5.1555  -11.0959 C   0  0  0  0  0  0  0  0  0  0  0  0
   37.9602   -4.6899   -9.8133 C   0  0  0  0  0  0  0  0  0  0  0  0
   37.7552   -5.5309   -8.7403 C   0  0  0  0  0  0  0  0  0  0  0  0
   37.9464   -5.0967   -7.3439 C   0  0  0  0  0  0  0  0  0  0  0  0
   39.4300   -4.8782   -7.0404 C   0  0  2  0  0  0  0  0  0  0  0  0
   40.0016   -6.1624   -6.7301 N   0  0  0  0  0  0  0  0  0  0  0  0
   39.5473   -3.9456   -5.8974 C   0  0  0  0  0  0  0  0  0  0  0  0
   39.2115   -4.4056   -4.7590 O   0  0  0  0  0  0  0  0  0  0  0  0
   37.3563   -6.8234   -9.0047 C   0  0  0  0  0  0  0  0  0  0  0  0
   37.1627   -7.2818  -10.2878 C   0  0  0  0  0  0  0  0  0  0  0  0
   40.8418   -0.5228   -5.0472 C   0  0  0  0  0  0  0  0  0  0  0  0
   39.9714   -1.7624   -4.8607 C   0  0  2  0  0  0  0  0  0  0  0  0
   40.0028   -2.6060   -6.0120 N   0  0  0  0  0  0  0  0  0  0  0  0
   38.5970   -1.2934   -4.5339 C   0  0  0  0  0  0  0  0  0  0  0  0
   37.7448   -1.1127   -5.4265 O   0  0  0  0  0  0  0  0  0  0  0  0
   38.2812   -1.0584   -3.1917 N   0  0  0  0  0  0  0  0  0  0  0  0
   37.0059   -0.5490   -2.7277 C   0  0  1  0  0  0  0  0  0  0  0  0
   36.5750   -1.4888   -1.6218 C   0  0  0  0  0  0  0  0  0  0  0  0
   35.3722   -1.0843   -0.9009 C   0  0  0  0  0  0  0  0  0  0  0  0
   35.4044   -0.1333    0.0962 C   0  0  0  0  0  0  0  0  0  0  0  0
   34.2383    0.2423    0.7730 C   0  0  0  0  0  0  0  0  0  0  0  0
   33.0245   -0.3389    0.4502 C   0  0  0  0  0  0  0  0  0  0  0  0
   32.9881   -1.2905   -0.5466 C   0  0  0  0  0  0  0  0  0  0  0  0
   34.1620   -1.6489   -1.2071 C   0  0  0  0  0  0  0  0  0  0  0  0
   37.2259    0.8285   -2.2462 C   0  0  0  0  0  0  0  0  0  0  0  0
   38.4002    1.1316   -1.5865 O   0  0  0  0  0  0  0  0  0  0  0  0
   36.3973    1.7431   -2.4059 O   0  0  0  0  0  0  0  0  0  0  0  0
  2 12  2  0
  2  1  1  0
  3  2  1  0
  4  5  1  0
  4  3  2  0
  5 11  2  0
  6  5  1  0
  7  8  1  1
  7  6  1  0
  9  7  1  0
 10  9  2  0
 11 12  1  0
 14 13  1  6
 14 16  1  0
 14 15  1  0
 15  9  1  0
 16 17  2  0
 18 19  1  0
 18 16  1  0
 19 20  1  1
 20 21  1  0
 21 22  2  0
 22 23  1  0
 24 23  2  0
 25 24  1  0
 26 25  2  0
 26 21  1  0
 27 19  1  0
 28 27  1  0
 29 27  2  0
M  END
$$$$
