YAF.pdb
     RDKit          3D

 29 30  0  0  1  0  0  0  0  0999 V2000
   30.2951  -31.7662  -18.7138 O   0  0  0  0  0  0  0  0  0  0  0  0
   29.4970  -30.7342  -18.1996 C   0  0  0  0  0  0  0  0  0  0  0  0
   29.5535  -30.3816  -16.8659 C   0  0  0  0  0  0  0  0  0  0  0  0
   28.7842  -29.3731  -16.3261 C   0  0  0  0  0  0  0  0  0  0  0  0
   27.9127  -28.6707  -17.1308 C   0  0  0  0  0  0  0  0  0  0  0  0
   27.0617  -27.5812  -16.6173 C   0  0  0  0  0  0  0  0  0  0  0  0
   27.3478  -26.2727  -17.3569 C   0  0  2  0  0  0  0  0  0  0  0  0
   28.5709  -25.7329  -16.8231 N   0  0  0  0  0  0  0  0  0  0  0  0
   26.2119  -25.3488  -17.1419 C   0  0  0  0  0  0  0  0  0  0  0  0
   26.2642  -24.6267  -16.0949 O   0  0  0  0  0  0  0  0  0  0  0  0
   27.8496  -29.0158  -18.4636 C   0  0  0  0  0  0  0  0  0  0  0  0
   28.6206  -30.0239  -18.9960 C   0  0  0  0  0  0  0  0  0  0  0  0
   23.2737  -23.9291  -18.9777 C   0  0  0  0  0  0  0  0  0  0  0  0
   24.0812  -24.2849  -17.7327 C   0  0  2  0  0  0  0  0  0  0  0  0
   25.1046  -25.2371  -18.0230 N   0  0  0  0  0  0  0  0  0  0  0  0
   23.1204  -24.7745  -16.7066 C   0  0  0  0  0  0  0  0  0  0  0  0
   23.3085  -25.8502  -16.1039 O   0  0  0  0  0  0  0  0  0  0  0  0
   21.9928  -23.9938  -16.4319 N   0  0  0  0  0  0  0  0  0  0  0  0
   21.0923  -24.2190  -15.3186 C   0  0  1  0  0  0  0  0  0  0  0  0
   21.7914  -23.6335  -14.1102 C   0  0  0  0  0  0  0  0  0  0  0  0
   21.5289  -22.2181  -13.8702 C   0  0  0  0  0  0  0  0  0  0  0  0
   20.4001  -21.7876  -13.2069 C   0  0  0  0  0  0  0  0  0  0  0  0
   20.1693  -20.4251  -12.9846 C   0  0  0  0  0  0  0  0  0  0  0  0
   21.0771  -19.4803  -13.4303 C   0  0  0  0  0  0  0  0  0  0  0  0
   22.2075  -19.9068  -14.0941 C   0  0  0  0  0  0  0  0  0  0  0  0
   22.4166  -21.2688  -14.3041 C   0  0  0  0  0  0  0  0  0  0  0  0
   19.8234  -23.5315  -15.6268 C   0  0  0  0  0  0  0  0  0  0  0  0
   19.8212  -22.5040  -16.5489 O   0  0  0  0  0  0  0  0  0  0  0  0
   18.7412  -23.8336  -15.0919 O   0  0  0  0  0  0  0  0  0  0  0  0
  2 12  2  0
  2  1  1  0
  3  2  1  0
  4  5  1  0
  4  3  2  0
  5 11  2  0
  6  5  1  0
  7  8  1  1
  7  6  1  0
  9  7  1  0
 10  9  2  0
 11 12  1  0
 14 13  1  6
 14 16  1  0
 14 15  1  0
 15  9  1  0
 16 17  2  0
 18 19  1  0
 18 16  1  0
 19 20  1  1
 20 21  1  0
 21 22  2  0
 22 23  1  0
 24 23  2  0
 25 24  1  0
 26 25  2  0
 26 21  1  0
 27 19  1  0
 28 27  1  0
 29 27  2  0
M  END
$$$$
