QWH.pdb
     RDKit          3D

 34 36  0  0  1  0  0  0  0  0999 V2000
    9.0352  -16.5394   16.3423 N   0  0  0  0  0  0  0  0  0  0  0  0
    8.5142  -17.7724   16.8457 C   0  0  0  0  0  0  0  0  0  0  0  0
    7.2791  -17.9345   16.9145 O   0  0  0  0  0  0  0  0  0  0  0  0
    9.4342  -18.8517   17.2834 C   0  0  0  0  0  0  0  0  0  0  0  0
   10.3270  -18.3252   18.3814 C   0  0  0  0  0  0  0  0  0  0  0  0
    9.9056  -18.8249   19.7407 C   0  0  2  0  0  0  0  0  0  0  0  0
    8.5506  -19.2981   19.6980 N   0  0  0  0  0  0  0  0  0  0  0  0
    9.9816  -17.6787   20.6909 C   0  0  0  0  0  0  0  0  0  0  0  0
   11.0895  -17.1270   20.9225 O   0  0  0  0  0  0  0  0  0  0  0  0
    8.8425  -17.1653   21.3633 N   0  0  0  0  0  0  0  0  0  0  0  0
    8.9062  -16.0767   22.3058 C   0  0  1  0  0  0  0  0  0  0  0  0
    7.6873  -15.2134   22.2465 C   0  0  0  0  0  0  0  0  0  0  0  0
    7.7398  -13.9741   23.0425 C   0  0  0  0  0  0  0  0  0  0  0  0
    8.3440  -12.7656   22.6101 C   0  0  0  0  0  0  0  0  0  0  0  0
    8.2057  -11.8273   23.5521 N   0  0  0  0  0  0  0  0  0  0  0  0
    7.5344  -12.3429   24.6075 C   0  0  0  0  0  0  0  0  0  0  0  0
    7.1527  -11.7846   25.8088 C   0  0  0  0  0  0  0  0  0  0  0  0
    6.4676  -12.5748   26.7151 C   0  0  0  0  0  0  0  0  0  0  0  0
    6.1706  -13.8832   26.4354 C   0  0  0  0  0  0  0  0  0  0  0  0
    6.5702  -14.3920   25.2304 C   0  0  0  0  0  0  0  0  0  0  0  0
    7.2521  -13.6723   24.2797 C   0  0  0  0  0  0  0  0  0  0  0  0
    9.3109  -16.4331   23.6667 C   0  0  0  0  0  0  0  0  0  0  0  0
    8.4977  -16.8087   24.5505 O   0  0  0  0  0  0  0  0  0  0  0  0
   10.7065  -16.3713   24.0493 N   0  0  0  0  0  0  0  0  0  0  0  0
   11.1459  -16.2715   25.4207 C   0  0  1  0  0  0  0  0  0  0  0  0
   10.1477  -15.3597   26.1491 C   0  0  0  0  0  0  0  0  0  0  0  0
   10.4720  -15.1116   27.5469 C   0  0  0  0  0  0  0  0  0  0  0  0
   11.5693  -15.5890   28.2699 C   0  0  0  0  0  0  0  0  0  0  0  0
   11.5018  -15.1380   29.5140 N   0  0  0  0  0  0  0  0  0  0  0  0
   10.3979  -14.3818   29.6292 C   0  0  0  0  0  0  0  0  0  0  0  0
    9.7946  -14.3807   28.4328 N   0  0  0  0  0  0  0  0  0  0  0  0
   10.9640  -17.5865   26.1407 C   0  0  0  0  0  0  0  0  0  0  0  0
   11.8858  -17.8953   27.1201 O   0  0  0  0  0  0  0  0  0  0  0  0
   10.0332  -18.3464   25.8596 O   0  0  0  0  0  0  0  0  0  0  0  0
  2  3  2  0
  2  1  1  0
  4  2  1  0
  5  4  1  0
  6  5  1  0
  6  7  1  6
  8  9  2  0
  8  6  1  0
 10  8  1  0
 11 12  1  1
 11 10  1  0
 12 13  1  0
 13 21  1  0
 13 14  2  0
 14 15  1  0
 16 15  1  0
 16 17  2  0
 18 17  1  0
 19 18  2  0
 20 21  2  0
 20 19  1  0
 21 16  1  0
 22 11  1  0
 23 22  2  0
 24 22  1  0
 25 24  1  0
 25 26  1  1
 26 27  1  0
 27 28  2  0
 28 29  1  0
 30 29  1  0
 31 27  1  0
 31 30  2  0
 32 25  1  0
 32 33  1  0
 34 32  2  0
M  END
$$$$
