QWH.pdb
     RDKit          3D

 34 36  0  0  1  0  0  0  0  0999 V2000
    8.5707  -12.4546   18.4865 N   0  0  0  0  0  0  0  0  0  0  0  0
    7.3384  -13.1801   18.4683 C   0  0  0  0  0  0  0  0  0  0  0  0
    6.9598  -13.7206   17.4095 O   0  0  0  0  0  0  0  0  0  0  0  0
    6.5151  -13.2900   19.6983 C   0  0  0  0  0  0  0  0  0  0  0  0
    7.4260  -13.4806   20.8874 C   0  0  0  0  0  0  0  0  0  0  0  0
    7.9967  -14.8756   20.9441 C   0  0  2  0  0  0  0  0  0  0  0  0
    6.9382  -15.8424   21.0257 N   0  0  0  0  0  0  0  0  0  0  0  0
    8.8316  -14.9762   22.1750 C   0  0  0  0  0  0  0  0  0  0  0  0
    9.7079  -14.1039   22.4129 O   0  0  0  0  0  0  0  0  0  0  0  0
    8.6859  -16.0294   23.1145 N   0  0  0  0  0  0  0  0  0  0  0  0
    9.5350  -16.1802   24.2694 C   0  0  1  0  0  0  0  0  0  0  0  0
    8.7445  -16.3463   25.5271 C   0  0  0  0  0  0  0  0  0  0  0  0
    7.6453  -15.3848   25.7255 C   0  0  0  0  0  0  0  0  0  0  0  0
    6.2701  -15.6893   25.5559 C   0  0  0  0  0  0  0  0  0  0  0  0
    5.5299  -14.6105   25.8296 N   0  0  0  0  0  0  0  0  0  0  0  0
    6.3395  -13.5840   26.1778 C   0  0  0  0  0  0  0  0  0  0  0  0
    6.0617  -12.2830   26.5391 C   0  0  0  0  0  0  0  0  0  0  0  0
    7.1186  -11.4426   26.8418 C   0  0  0  0  0  0  0  0  0  0  0  0
    8.4153  -11.8829   26.7867 C   0  0  0  0  0  0  0  0  0  0  0  0
    8.6405  -13.1820   26.4231 C   0  0  0  0  0  0  0  0  0  0  0  0
    7.6462  -14.0762   26.1091 C   0  0  0  0  0  0  0  0  0  0  0  0
   10.6345  -17.1370   24.1331 C   0  0  0  0  0  0  0  0  0  0  0  0
   10.4767  -18.3829   24.2143 O   0  0  0  0  0  0  0  0  0  0  0  0
   11.9811  -16.6656   23.8835 N   0  0  0  0  0  0  0  0  0  0  0  0
   13.1013  -17.5510   23.6708 C   0  0  1  0  0  0  0  0  0  0  0  0
   14.2850  -16.6815   23.2226 C   0  0  0  0  0  0  0  0  0  0  0  0
   14.0265  -15.8848   22.0313 C   0  0  0  0  0  0  0  0  0  0  0  0
   13.1464  -16.1709   20.9834 C   0  0  0  0  0  0  0  0  0  0  0  0
   13.2028  -15.1961   20.0877 N   0  0  0  0  0  0  0  0  0  0  0  0
   14.0898  -14.2823   20.5142 C   0  0  0  0  0  0  0  0  0  0  0  0
   14.5723  -14.7184   21.6857 N   0  0  0  0  0  0  0  0  0  0  0  0
   13.5961  -18.1163   24.9809 C   0  0  0  0  0  0  0  0  0  0  0  0
   14.6851  -18.9620   24.9248 O   0  0  0  0  0  0  0  0  0  0  0  0
   13.0460  -17.8328   26.0485 O   0  0  0  0  0  0  0  0  0  0  0  0
  2  3  2  0
  2  1  1  0
  4  2  1  0
  5  4  1  0
  6  5  1  0
  6  7  1  1
  8  9  2  0
  8  6  1  0
 10  8  1  0
 11 12  1  1
 11 10  1  0
 12 13  1  0
 13 21  1  0
 13 14  2  0
 14 15  1  0
 16 15  1  0
 16 17  2  0
 18 17  1  0
 19 18  2  0
 20 21  2  0
 20 19  1  0
 21 16  1  0
 22 11  1  0
 23 22  2  0
 24 22  1  0
 25 24  1  0
 25 26  1  1
 26 27  1  0
 27 28  2  0
 28 29  1  0
 30 29  1  0
 31 27  1  0
 31 30  2  0
 32 25  1  0
 32 33  1  0
 34 32  2  0
M  END
$$$$
