QWH.pdb
     RDKit          3D

 34 36  0  0  1  0  0  0  0  0999 V2000
    9.1815  -14.4014   15.6679 N   0  0  0  0  0  0  0  0  0  0  0  0
    8.2406  -14.5061   16.7398 C   0  0  0  0  0  0  0  0  0  0  0  0
    7.1038  -14.9687   16.5158 O   0  0  0  0  0  0  0  0  0  0  0  0
    8.6117  -14.0681   18.1084 C   0  0  0  0  0  0  0  0  0  0  0  0
   10.0926  -14.2822   18.3113 C   0  0  0  0  0  0  0  0  0  0  0  0
   10.3765  -15.4870   19.1732 C   0  0  2  0  0  0  0  0  0  0  0  0
    9.5425  -16.5874   18.7790 N   0  0  0  0  0  0  0  0  0  0  0  0
   10.0543  -15.1244   20.5829 C   0  0  0  0  0  0  0  0  0  0  0  0
   10.6891  -14.1993   21.1544 O   0  0  0  0  0  0  0  0  0  0  0  0
    9.0452  -15.7838   21.3312 N   0  0  0  0  0  0  0  0  0  0  0  0
    8.7136  -15.4338   22.6894 C   0  0  1  0  0  0  0  0  0  0  0  0
    7.2379  -15.3044   22.8896 C   0  0  0  0  0  0  0  0  0  0  0  0
    6.8134  -14.7317   24.1795 C   0  0  0  0  0  0  0  0  0  0  0  0
    6.2250  -15.4754   25.2347 C   0  0  0  0  0  0  0  0  0  0  0  0
    5.9740  -14.6700   26.2717 N   0  0  0  0  0  0  0  0  0  0  0  0
    6.3650  -13.4104   25.9699 C   0  0  0  0  0  0  0  0  0  0  0  0
    6.3141  -12.2393   26.6953 C   0  0  0  0  0  0  0  0  0  0  0  0
    6.7931  -11.0801   26.1107 C   0  0  0  0  0  0  0  0  0  0  0  0
    7.3082  -11.0848   24.8406 C   0  0  0  0  0  0  0  0  0  0  0  0
    7.3375  -12.2712   24.1607 C   0  0  0  0  0  0  0  0  0  0  0  0
    6.8823  -13.4621   24.6722 C   0  0  0  0  0  0  0  0  0  0  0  0
    9.3841  -16.2132   23.7316 C   0  0  0  0  0  0  0  0  0  0  0  0
    9.6546  -17.4361   23.6097 O   0  0  0  0  0  0  0  0  0  0  0  0
    9.7782  -15.5792   24.9728 N   0  0  0  0  0  0  0  0  0  0  0  0
   10.5657  -16.2435   25.9838 C   0  0  1  0  0  0  0  0  0  0  0  0
   10.5013  -15.3752   27.2488 C   0  0  0  0  0  0  0  0  0  0  0  0
   11.2003  -15.9356   28.3969 C   0  0  0  0  0  0  0  0  0  0  0  0
   12.3672  -16.7057   28.3976 C   0  0  0  0  0  0  0  0  0  0  0  0
   12.6804  -17.0220   29.6456 N   0  0  0  0  0  0  0  0  0  0  0  0
   11.7583  -16.4851   30.4610 C   0  0  0  0  0  0  0  0  0  0  0  0
   10.8779  -15.8361   29.6868 N   0  0  0  0  0  0  0  0  0  0  0  0
    9.8951  -17.5190   26.4356 C   0  0  0  0  0  0  0  0  0  0  0  0
   10.7202  -18.5673   26.7888 O   0  0  0  0  0  0  0  0  0  0  0  0
    8.6657  -17.6137   26.4822 O   0  0  0  0  0  0  0  0  0  0  0  0
  2  3  2  0
  2  1  1  0
  4  2  1  0
  5  4  1  0
  6  5  1  0
  6  7  1  6
  8  9  2  0
  8  6  1  0
 10  8  1  0
 11 12  1  6
 11 10  1  0
 12 13  1  0
 13 21  1  0
 13 14  2  0
 14 15  1  0
 16 15  1  0
 16 17  2  0
 18 17  1  0
 19 18  2  0
 20 21  2  0
 20 19  1  0
 21 16  1  0
 22 11  1  0
 23 22  2  0
 24 22  1  0
 25 24  1  0
 25 26  1  1
 26 27  1  0
 27 28  2  0
 28 29  1  0
 30 29  1  0
 31 27  1  0
 31 30  2  0
 32 25  1  0
 32 33  1  0
 34 32  2  0
M  END
$$$$
