QWH.pdb
     RDKit          3D

 34 36  0  0  1  0  0  0  0  0999 V2000
    6.4144  -21.6959   19.9717 N   0  0  0  0  0  0  0  0  0  0  0  0
    7.4956  -21.2810   19.1326 C   0  0  0  0  0  0  0  0  0  0  0  0
    8.3331  -22.1225   18.7494 O   0  0  0  0  0  0  0  0  0  0  0  0
    7.6219  -19.8609   18.7202 C   0  0  0  0  0  0  0  0  0  0  0  0
    8.2225  -19.0678   19.8561 C   0  0  0  0  0  0  0  0  0  0  0  0
    8.3118  -17.5972   19.5332 C   0  0  2  0  0  0  0  0  0  0  0  0
    9.2498  -17.3784   18.4683 N   0  0  0  0  0  0  0  0  0  0  0  0
    8.8003  -16.8921   20.7525 C   0  0  0  0  0  0  0  0  0  0  0  0
   10.0312  -16.8738   21.0169 O   0  0  0  0  0  0  0  0  0  0  0  0
    7.9287  -16.2248   21.6515 N   0  0  0  0  0  0  0  0  0  0  0  0
    8.3754  -15.6179   22.8801 C   0  0  1  0  0  0  0  0  0  0  0  0
    7.6167  -14.3693   23.1955 C   0  0  0  0  0  0  0  0  0  0  0  0
    7.9865  -13.6942   24.4524 C   0  0  0  0  0  0  0  0  0  0  0  0
    9.3122  -13.3462   24.8184 C   0  0  0  0  0  0  0  0  0  0  0  0
    9.3081  -12.7307   26.0049 N   0  0  0  0  0  0  0  0  0  0  0  0
    8.0385  -12.6441   26.4641 C   0  0  0  0  0  0  0  0  0  0  0  0
    7.5208  -12.1086   27.6241 C   0  0  0  0  0  0  0  0  0  0  0  0
    6.1534  -12.1725   27.8271 C   0  0  0  0  0  0  0  0  0  0  0  0
    5.3239  -12.7526   26.9031 C   0  0  0  0  0  0  0  0  0  0  0  0
    5.8844  -13.2699   25.7678 C   0  0  0  0  0  0  0  0  0  0  0  0
    7.2302  -13.2444   25.4942 C   0  0  0  0  0  0  0  0  0  0  0  0
    8.5241  -16.5221   24.0218 C   0  0  0  0  0  0  0  0  0  0  0  0
    7.5489  -17.0760   24.5925 O   0  0  0  0  0  0  0  0  0  0  0  0
    9.8415  -16.8248   24.5421 N   0  0  0  0  0  0  0  0  0  0  0  0
   10.0650  -17.7102   25.6601 C   0  0  1  0  0  0  0  0  0  0  0  0
   11.4686  -18.3090   25.4879 C   0  0  0  0  0  0  0  0  0  0  0  0
   11.6109  -19.1800   24.3296 C   0  0  0  0  0  0  0  0  0  0  0  0
   10.6031  -19.8627   23.6418 C   0  0  0  0  0  0  0  0  0  0  0  0
   11.1431  -20.5502   22.6460 N   0  0  0  0  0  0  0  0  0  0  0  0
   12.4695  -20.3403   22.6592 C   0  0  0  0  0  0  0  0  0  0  0  0
   12.7273  -19.5126   23.6809 N   0  0  0  0  0  0  0  0  0  0  0  0
   10.2046  -16.9291   26.9450 C   0  0  0  0  0  0  0  0  0  0  0  0
   10.3849  -17.6582   28.1028 O   0  0  0  0  0  0  0  0  0  0  0  0
   10.1564  -15.6961   26.9527 O   0  0  0  0  0  0  0  0  0  0  0  0
  2  3  2  0
  2  1  1  0
  4  2  1  0
  5  4  1  0
  6  5  1  0
  6  7  1  6
  8  9  2  0
  8  6  1  0
 10  8  1  0
 11 12  1  1
 11 10  1  0
 12 13  1  0
 13 21  1  0
 13 14  2  0
 14 15  1  0
 16 15  1  0
 16 17  2  0
 18 17  1  0
 19 18  2  0
 20 21  2  0
 20 19  1  0
 21 16  1  0
 22 11  1  0
 23 22  2  0
 24 22  1  0
 25 24  1  0
 25 26  1  6
 26 27  1  0
 27 28  2  0
 28 29  1  0
 30 29  1  0
 31 27  1  0
 31 30  2  0
 32 25  1  0
 32 33  1  0
 34 32  2  0
M  END
$$$$
