QWH.pdb
     RDKit          3D

 34 36  0  0  1  0  0  0  0  0999 V2000
    8.7216  -12.5201   19.3444 N   0  0  0  0  0  0  0  0  0  0  0  0
    8.2577  -13.6554   18.6089 C   0  0  0  0  0  0  0  0  0  0  0  0
    7.8238  -13.5002   17.4495 O   0  0  0  0  0  0  0  0  0  0  0  0
    8.2912  -15.0082   19.2184 C   0  0  0  0  0  0  0  0  0  0  0  0
    8.7884  -14.8977   20.6398 C   0  0  0  0  0  0  0  0  0  0  0  0
    9.3364  -16.2070   21.1501 C   0  0  2  0  0  0  0  0  0  0  0  0
    8.3596  -17.2481   20.9963 N   0  0  0  0  0  0  0  0  0  0  0  0
    9.6337  -16.0414   22.6016 C   0  0  0  0  0  0  0  0  0  0  0  0
   10.4171  -15.1324   22.9827 O   0  0  0  0  0  0  0  0  0  0  0  0
    9.0654  -16.8753   23.5990 N   0  0  0  0  0  0  0  0  0  0  0  0
    9.3654  -16.7440   25.0026 C   0  0  1  0  0  0  0  0  0  0  0  0
    8.1263  -16.6476   25.8330 C   0  0  0  0  0  0  0  0  0  0  0  0
    7.2377  -15.5115   25.5297 C   0  0  0  0  0  0  0  0  0  0  0  0
    5.9610  -15.6291   24.9225 C   0  0  0  0  0  0  0  0  0  0  0  0
    5.4031  -14.4202   24.8025 N   0  0  0  0  0  0  0  0  0  0  0  0
    6.2431  -13.4840   25.3008 C   0  0  0  0  0  0  0  0  0  0  0  0
    6.1286  -12.1139   25.4007 C   0  0  0  0  0  0  0  0  0  0  0  0
    7.1749  -11.4039   25.9631 C   0  0  0  0  0  0  0  0  0  0  0  0
    8.3034  -12.0380   26.4133 C   0  0  0  0  0  0  0  0  0  0  0  0
    8.3705  -13.3987   26.2925 C   0  0  0  0  0  0  0  0  0  0  0  0
    7.3750  -14.1724   25.7473 C   0  0  0  0  0  0  0  0  0  0  0  0
   10.3598  -17.6782   25.5332 C   0  0  0  0  0  0  0  0  0  0  0  0
   10.5904  -18.8033   25.0189 O   0  0  0  0  0  0  0  0  0  0  0  0
   11.1417  -17.3222   26.6994 N   0  0  0  0  0  0  0  0  0  0  0  0
   11.9659  -18.2661   27.4160 C   0  0  1  0  0  0  0  0  0  0  0  0
   12.6284  -17.5008   28.5709 C   0  0  0  0  0  0  0  0  0  0  0  0
   13.4853  -18.3183   29.4182 C   0  0  0  0  0  0  0  0  0  0  0  0
   13.7325  -19.6907   29.3170 C   0  0  0  0  0  0  0  0  0  0  0  0
   14.5686  -20.0555   30.2780 N   0  0  0  0  0  0  0  0  0  0  0  0
   14.8766  -18.9686   31.0042 C   0  0  0  0  0  0  0  0  0  0  0  0
   14.2129  -17.9355   30.4679 N   0  0  0  0  0  0  0  0  0  0  0  0
   11.1145  -19.2766   28.1472 C   0  0  0  0  0  0  0  0  0  0  0  0
   11.7400  -20.4323   28.5686 O   0  0  0  0  0  0  0  0  0  0  0  0
    9.9149  -19.0732   28.3530 O   0  0  0  0  0  0  0  0  0  0  0  0
  2  3  2  0
  2  1  1  0
  4  2  1  0
  5  4  1  0
  6  5  1  0
  6  7  1  1
  8  9  2  0
  8  6  1  0
 10  8  1  0
 11 12  1  1
 11 10  1  0
 12 13  1  0
 13 21  1  0
 13 14  2  0
 14 15  1  0
 16 15  1  0
 16 17  2  0
 18 17  1  0
 19 18  2  0
 20 21  2  0
 20 19  1  0
 21 16  1  0
 22 11  1  0
 23 22  2  0
 24 22  1  0
 25 24  1  0
 25 26  1  1
 26 27  1  0
 27 28  2  0
 28 29  1  0
 30 29  1  0
 31 27  1  0
 31 30  2  0
 32 25  1  0
 32 33  1  0
 34 32  2  0
M  END
$$$$
