QWH.pdb
     RDKit          3D

 34 36  0  0  1  0  0  0  0  0999 V2000
    7.7520  -21.1173   18.2953 N   0  0  0  0  0  0  0  0  0  0  0  0
    9.0889  -20.8245   17.8806 C   0  0  0  0  0  0  0  0  0  0  0  0
    9.6141  -21.5049   16.9763 O   0  0  0  0  0  0  0  0  0  0  0  0
    9.8472  -19.7205   18.5200 C   0  0  0  0  0  0  0  0  0  0  0  0
    8.9920  -19.0900   19.5929 C   0  0  0  0  0  0  0  0  0  0  0  0
    8.8307  -17.6046   19.3866 C   0  0  2  0  0  0  0  0  0  0  0  0
    9.8010  -17.1259   18.4426 N   0  0  0  0  0  0  0  0  0  0  0  0
    9.0682  -16.9346   20.6971 C   0  0  0  0  0  0  0  0  0  0  0  0
   10.2415  -16.6472   21.0523 O   0  0  0  0  0  0  0  0  0  0  0  0
    8.0149  -16.5960   21.5854 N   0  0  0  0  0  0  0  0  0  0  0  0
    8.2362  -16.0475   22.8997 C   0  0  1  0  0  0  0  0  0  0  0  0
    7.0324  -15.3266   23.4151 C   0  0  0  0  0  0  0  0  0  0  0  0
    7.1546  -14.7619   24.7710 C   0  0  0  0  0  0  0  0  0  0  0  0
    7.3352  -15.5313   25.9492 C   0  0  0  0  0  0  0  0  0  0  0  0
    7.4289  -14.7220   27.0090 N   0  0  0  0  0  0  0  0  0  0  0  0
    7.3198  -13.4353   26.6054 C   0  0  0  0  0  0  0  0  0  0  0  0
    7.3481  -12.2509   27.3104 C   0  0  0  0  0  0  0  0  0  0  0  0
    7.2021  -11.0647   26.6129 C   0  0  0  0  0  0  0  0  0  0  0  0
    7.0325  -11.0558   25.2529 C   0  0  0  0  0  0  0  0  0  0  0  0
    7.0113  -12.2562   24.5977 C   0  0  0  0  0  0  0  0  0  0  0  0
    7.1501  -13.4738   25.2183 C   0  0  0  0  0  0  0  0  0  0  0  0
    8.8440  -16.9534   23.8758 C   0  0  0  0  0  0  0  0  0  0  0  0
    8.3293  -18.0525   24.2083 O   0  0  0  0  0  0  0  0  0  0  0  0
   10.1024  -16.6068   24.5037 N   0  0  0  0  0  0  0  0  0  0  0  0
   10.7292  -17.4197   25.5186 C   0  0  1  0  0  0  0  0  0  0  0  0
   12.2473  -17.2876   25.3286 C   0  0  0  0  0  0  0  0  0  0  0  0
   12.7713  -18.0019   24.1728 C   0  0  0  0  0  0  0  0  0  0  0  0
   12.0740  -18.8318   23.2898 C   0  0  0  0  0  0  0  0  0  0  0  0
   12.9105  -19.2926   22.3713 N   0  0  0  0  0  0  0  0  0  0  0  0
   14.1311  -18.7923   22.6235 C   0  0  0  0  0  0  0  0  0  0  0  0
   14.0224  -18.0186   23.7122 N   0  0  0  0  0  0  0  0  0  0  0  0
   10.5240  -16.8209   26.8897 C   0  0  0  0  0  0  0  0  0  0  0  0
   11.0437  -17.5191   27.9605 O   0  0  0  0  0  0  0  0  0  0  0  0
    9.9166  -15.7571   27.0389 O   0  0  0  0  0  0  0  0  0  0  0  0
  2  3  2  0
  2  1  1  0
  4  2  1  0
  5  4  1  0
  6  5  1  0
  6  7  1  6
  8  9  2  0
  8  6  1  0
 10  8  1  0
 11 12  1  1
 11 10  1  0
 12 13  1  0
 13 21  1  0
 13 14  2  0
 14 15  1  0
 16 15  1  0
 16 17  2  0
 18 17  1  0
 19 18  2  0
 20 21  2  0
 20 19  1  0
 21 16  1  0
 22 11  1  0
 23 22  2  0
 24 22  1  0
 25 24  1  0
 25 26  1  6
 26 27  1  0
 27 28  2  0
 28 29  1  0
 30 29  1  0
 31 27  1  0
 31 30  2  0
 32 25  1  0
 32 33  1  0
 34 32  2  0
M  END
$$$$
