QWH.pdb
     RDKit          3D

 34 36  0  0  1  0  0  0  0  0999 V2000
   11.8554  -21.6783   20.0280 N   0  0  0  0  0  0  0  0  0  0  0  0
   10.7411  -21.9006   19.1596 C   0  0  0  0  0  0  0  0  0  0  0  0
   10.5881  -23.0205   18.6315 O   0  0  0  0  0  0  0  0  0  0  0  0
    9.7734  -20.8087   18.8875 C   0  0  0  0  0  0  0  0  0  0  0  0
   10.1748  -19.5847   19.6754 C   0  0  0  0  0  0  0  0  0  0  0  0
    9.1567  -18.4781   19.5578 C   0  0  2  0  0  0  0  0  0  0  0  0
    9.3096  -17.7934   18.3050 N   0  0  0  0  0  0  0  0  0  0  0  0
    9.4060  -17.5107   20.6645 C   0  0  0  0  0  0  0  0  0  0  0  0
   10.5865  -17.2433   21.0112 O   0  0  0  0  0  0  0  0  0  0  0  0
    8.3563  -16.8604   21.3633 N   0  0  0  0  0  0  0  0  0  0  0  0
    8.5783  -15.9949   22.4942 C   0  0  1  0  0  0  0  0  0  0  0  0
    7.5720  -14.8916   22.5605 C   0  0  0  0  0  0  0  0  0  0  0  0
    7.8091  -13.8684   23.5944 C   0  0  0  0  0  0  0  0  0  0  0  0
    8.8246  -12.8799   23.5295 C   0  0  0  0  0  0  0  0  0  0  0  0
    8.7629  -12.0951   24.6098 N   0  0  0  0  0  0  0  0  0  0  0  0
    7.7506  -12.5051   25.4083 C   0  0  0  0  0  0  0  0  0  0  0  0
    7.2924  -12.0311   26.6190 C   0  0  0  0  0  0  0  0  0  0  0  0
    6.2195  -12.6711   27.2144 C   0  0  0  0  0  0  0  0  0  0  0  0
    5.6192  -13.7520   26.6231 C   0  0  0  0  0  0  0  0  0  0  0  0
    6.1095  -14.1853   25.4220 C   0  0  0  0  0  0  0  0  0  0  0  0
    7.1686  -13.6035   24.7687 C   0  0  0  0  0  0  0  0  0  0  0  0
    8.8046  -16.6646   23.7762 C   0  0  0  0  0  0  0  0  0  0  0  0
    8.0504  -17.5670   24.2238 O   0  0  0  0  0  0  0  0  0  0  0  0
    9.9457  -16.3046   24.5925 N   0  0  0  0  0  0  0  0  0  0  0  0
   10.2387  -16.9298   25.8602 C   0  0  1  0  0  0  0  0  0  0  0  0
   11.5471  -17.7143   25.6847 C   0  0  0  0  0  0  0  0  0  0  0  0
   11.4160  -18.9292   24.8925 C   0  0  0  0  0  0  0  0  0  0  0  0
   10.2574  -19.4514   24.3097 C   0  0  0  0  0  0  0  0  0  0  0  0
   10.5573  -20.5736   23.6723 N   0  0  0  0  0  0  0  0  0  0  0  0
   11.8724  -20.8031   23.8183 C   0  0  0  0  0  0  0  0  0  0  0  0
   12.3678  -19.8002   24.5561 N   0  0  0  0  0  0  0  0  0  0  0  0
   10.6201  -15.8967   26.8937 C   0  0  0  0  0  0  0  0  0  0  0  0
   10.8327  -16.3489   28.1800 O   0  0  0  0  0  0  0  0  0  0  0  0
   10.7324  -14.7046   26.5955 O   0  0  0  0  0  0  0  0  0  0  0  0
  2  3  2  0
  2  1  1  0
  4  2  1  0
  5  4  1  0
  6  5  1  0
  6  7  1  6
  8  9  2  0
  8  6  1  0
 10  8  1  0
 11 12  1  1
 11 10  1  0
 12 13  1  0
 13 21  1  0
 13 14  2  0
 14 15  1  0
 16 15  1  0
 16 17  2  0
 18 17  1  0
 19 18  2  0
 20 21  2  0
 20 19  1  0
 21 16  1  0
 22 11  1  0
 23 22  2  0
 24 22  1  0
 25 24  1  0
 25 26  1  6
 26 27  1  0
 27 28  2  0
 28 29  1  0
 30 29  1  0
 31 27  1  0
 31 30  2  0
 32 25  1  0
 32 33  1  0
 34 32  2  0
M  END
$$$$
