QWH.pdb
     RDKit          3D

 34 36  0  0  1  0  0  0  0  0999 V2000
    8.6530  -12.4032   19.2776 N   0  0  0  0  0  0  0  0  0  0  0  0
    8.1227  -13.6693   18.8762 C   0  0  0  0  0  0  0  0  0  0  0  0
    7.2014  -13.7104   18.0359 O   0  0  0  0  0  0  0  0  0  0  0  0
    8.6627  -14.9252   19.4539 C   0  0  0  0  0  0  0  0  0  0  0  0
    9.7249  -14.5846   20.4715 C   0  0  0  0  0  0  0  0  0  0  0  0
   10.3516  -15.8196   21.0691 C   0  0  2  0  0  0  0  0  0  0  0  0
    9.6524  -16.9940   20.6292 N   0  0  0  0  0  0  0  0  0  0  0  0
   10.2312  -15.7193   22.5517 C   0  0  0  0  0  0  0  0  0  0  0  0
   10.7834  -14.7676   23.1639 O   0  0  0  0  0  0  0  0  0  0  0  0
    9.5091  -16.6634   23.3265 N   0  0  0  0  0  0  0  0  0  0  0  0
    9.3058  -16.5286   24.7470 C   0  0  1  0  0  0  0  0  0  0  0  0
    7.8738  -16.2645   25.0846 C   0  0  0  0  0  0  0  0  0  0  0  0
    7.3663  -14.9280   24.7263 C   0  0  0  0  0  0  0  0  0  0  0  0
    6.9296  -14.5549   23.4291 C   0  0  0  0  0  0  0  0  0  0  0  0
    6.5125  -13.2850   23.4391 N   0  0  0  0  0  0  0  0  0  0  0  0
    6.6459  -12.7759   24.6854 C   0  0  0  0  0  0  0  0  0  0  0  0
    6.3622  -11.5280   25.1980 C   0  0  0  0  0  0  0  0  0  0  0  0
    6.6143  -11.2926   26.5382 C   0  0  0  0  0  0  0  0  0  0  0  0
    7.1339  -12.2701   27.3462 C   0  0  0  0  0  0  0  0  0  0  0  0
    7.3987  -13.4921   26.7918 C   0  0  0  0  0  0  0  0  0  0  0  0
    7.1756  -13.8027   25.4725 C   0  0  0  0  0  0  0  0  0  0  0  0
    9.9285  -17.5575   25.5817 C   0  0  0  0  0  0  0  0  0  0  0  0
    9.6469  -17.7209   26.7972 O   0  0  0  0  0  0  0  0  0  0  0  0
   10.9139  -18.4549   25.0146 N   0  0  0  0  0  0  0  0  0  0  0  0
   11.5653  -19.4949   25.7748 C   0  0  1  0  0  0  0  0  0  0  0  0
   11.5319  -20.7686   24.9176 C   0  0  0  0  0  0  0  0  0  0  0  0
   10.2136  -21.1093   24.4011 C   0  0  0  0  0  0  0  0  0  0  0  0
    9.6387  -20.7121   23.1902 C   0  0  0  0  0  0  0  0  0  0  0  0
    8.4243  -21.2331   23.0920 N   0  0  0  0  0  0  0  0  0  0  0  0
    8.1855  -21.9574   24.1975 C   0  0  0  0  0  0  0  0  0  0  0  0
    9.2765  -21.8680   24.9703 N   0  0  0  0  0  0  0  0  0  0  0  0
   13.0467  -19.2267   25.8935 C   0  0  0  0  0  0  0  0  0  0  0  0
   13.7930  -20.1451   26.6033 O   0  0  0  0  0  0  0  0  0  0  0  0
   13.5595  -18.2291   25.3791 O   0  0  0  0  0  0  0  0  0  0  0  0
  2  3  2  0
  2  1  1  0
  4  2  1  0
  5  4  1  0
  6  5  1  0
  6  7  1  6
  8  9  2  0
  8  6  1  0
 10  8  1  0
 11 12  1  6
 11 10  1  0
 12 13  1  0
 13 21  1  0
 13 14  2  0
 14 15  1  0
 16 15  1  0
 16 17  2  0
 18 17  1  0
 19 18  2  0
 20 21  2  0
 20 19  1  0
 21 16  1  0
 22 11  1  0
 23 22  2  0
 24 22  1  0
 25 24  1  0
 25 26  1  6
 26 27  1  0
 27 28  2  0
 28 29  1  0
 30 29  1  0
 31 27  1  0
 31 30  2  0
 32 25  1  0
 32 33  1  0
 34 32  2  0
M  END
$$$$
