QWH.pdb
     RDKit          3D

 34 36  0  0  1  0  0  0  0  0999 V2000
   13.3795  -21.6322   19.5148 N   0  0  0  0  0  0  0  0  0  0  0  0
   12.1477  -21.2462   20.1302 C   0  0  0  0  0  0  0  0  0  0  0  0
   11.7714  -21.8273   21.1681 O   0  0  0  0  0  0  0  0  0  0  0  0
   11.3221  -20.1632   19.5401 C   0  0  0  0  0  0  0  0  0  0  0  0
   11.1938  -19.0389   20.5397 C   0  0  0  0  0  0  0  0  0  0  0  0
   10.2218  -17.9814   20.0791 C   0  0  2  0  0  0  0  0  0  0  0  0
   10.7567  -17.2727   18.9507 N   0  0  0  0  0  0  0  0  0  0  0  0
   10.0310  -17.0186   21.2012 C   0  0  0  0  0  0  0  0  0  0  0  0
   10.9370  -16.1893   21.4784 O   0  0  0  0  0  0  0  0  0  0  0  0
    8.8529  -16.9881   21.9914 N   0  0  0  0  0  0  0  0  0  0  0  0
    8.6831  -16.1104   23.1219 C   0  0  1  0  0  0  0  0  0  0  0  0
    7.3524  -15.4298   23.1069 C   0  0  0  0  0  0  0  0  0  0  0  0
    6.9991  -14.6849   24.3286 C   0  0  0  0  0  0  0  0  0  0  0  0
    6.3419  -15.2486   25.4524 C   0  0  0  0  0  0  0  0  0  0  0  0
    6.1843  -14.3182   26.3992 N   0  0  0  0  0  0  0  0  0  0  0  0
    6.7048  -13.1453   25.9704 C   0  0  0  0  0  0  0  0  0  0  0  0
    6.7830  -11.9067   26.5704 C   0  0  0  0  0  0  0  0  0  0  0  0
    7.3787  -10.8716   25.8712 C   0  0  0  0  0  0  0  0  0  0  0  0
    7.8822  -11.0624   24.6109 C   0  0  0  0  0  0  0  0  0  0  0  0
    7.7812  -12.3091   24.0577 C   0  0  0  0  0  0  0  0  0  0  0  0
    7.2055  -13.3856   24.6875 C   0  0  0  0  0  0  0  0  0  0  0  0
    9.0445  -16.6706   24.4252 C   0  0  0  0  0  0  0  0  0  0  0  0
    8.7136  -17.8278   24.7925 O   0  0  0  0  0  0  0  0  0  0  0  0
    9.8273  -15.8890   25.3602 N   0  0  0  0  0  0  0  0  0  0  0  0
   10.2801  -16.4001   26.6320 C   0  0  1  0  0  0  0  0  0  0  0  0
    9.7280  -17.8267   26.7674 C   0  0  0  0  0  0  0  0  0  0  0  0
   10.0938  -18.4959   28.0080 C   0  0  0  0  0  0  0  0  0  0  0  0
   10.8632  -17.9899   29.0601 C   0  0  0  0  0  0  0  0  0  0  0  0
   10.9682  -18.9115   30.0063 N   0  0  0  0  0  0  0  0  0  0  0  0
   10.2937  -20.0028   29.6090 C   0  0  0  0  0  0  0  0  0  0  0  0
    9.7762  -19.7289   28.4038 N   0  0  0  0  0  0  0  0  0  0  0  0
   11.7721  -16.6335   26.6172 C   0  0  0  0  0  0  0  0  0  0  0  0
   12.3476  -17.0714   27.7925 O   0  0  0  0  0  0  0  0  0  0  0  0
   12.4403  -16.4374   25.5985 O   0  0  0  0  0  0  0  0  0  0  0  0
  2  3  2  0
  2  1  1  0
  4  2  1  0
  5  4  1  0
  6  5  1  0
  6  7  1  6
  8  9  2  0
  8  6  1  0
 10  8  1  0
 11 12  1  1
 11 10  1  0
 12 13  1  0
 13 21  1  0
 13 14  2  0
 14 15  1  0
 16 15  1  0
 16 17  2  0
 18 17  1  0
 19 18  2  0
 20 21  2  0
 20 19  1  0
 21 16  1  0
 22 11  1  0
 23 22  2  0
 24 22  1  0
 25 24  1  0
 25 26  1  6
 26 27  1  0
 27 28  2  0
 28 29  1  0
 30 29  1  0
 31 27  1  0
 31 30  2  0
 32 25  1  0
 32 33  1  0
 34 32  2  0
M  END
$$$$
