QWH.pdb
     RDKit          3D

 34 36  0  0  1  0  0  0  0  0999 V2000
    9.4732  -15.0670   15.4132 N   0  0  0  0  0  0  0  0  0  0  0  0
    8.6631  -16.0556   16.0548 C   0  0  0  0  0  0  0  0  0  0  0  0
    8.4528  -17.1435   15.4814 O   0  0  0  0  0  0  0  0  0  0  0  0
    8.0762  -15.7911   17.3921 C   0  0  0  0  0  0  0  0  0  0  0  0
    9.1268  -15.1653   18.2780 C   0  0  0  0  0  0  0  0  0  0  0  0
    9.6551  -16.1385   19.3020 C   0  0  2  0  0  0  0  0  0  0  0  0
    8.8931  -17.3550   19.2708 N   0  0  0  0  0  0  0  0  0  0  0  0
    9.5013  -15.5129   20.6465 C   0  0  0  0  0  0  0  0  0  0  0  0
   10.1487  -14.4715   20.9326 O   0  0  0  0  0  0  0  0  0  0  0  0
    8.6424  -16.0432   21.6435 N   0  0  0  0  0  0  0  0  0  0  0  0
    8.4712  -15.4389   22.9408 C   0  0  1  0  0  0  0  0  0  0  0  0
    7.0285  -15.2854   23.3005 C   0  0  0  0  0  0  0  0  0  0  0  0
    6.7566  -14.6927   24.6223 C   0  0  0  0  0  0  0  0  0  0  0  0
    6.2396  -15.4078   25.7331 C   0  0  0  0  0  0  0  0  0  0  0  0
    6.1264  -14.5908   26.7851 N   0  0  0  0  0  0  0  0  0  0  0  0
    6.5430  -13.3507   26.4404 C   0  0  0  0  0  0  0  0  0  0  0  0
    6.6153  -12.1777   27.1611 C   0  0  0  0  0  0  0  0  0  0  0  0
    7.0878  -11.0421   26.5269 C   0  0  0  0  0  0  0  0  0  0  0  0
    7.4772  -11.0715   25.2132 C   0  0  0  0  0  0  0  0  0  0  0  0
    7.3872  -12.2586   24.5400 C   0  0  0  0  0  0  0  0  0  0  0  0
    6.9301  -13.4271   25.0992 C   0  0  0  0  0  0  0  0  0  0  0  0
    9.2916  -15.9956   24.0179 C   0  0  0  0  0  0  0  0  0  0  0  0
    9.3390  -15.4997   25.1735 O   0  0  0  0  0  0  0  0  0  0  0  0
   10.0941  -17.1783   23.7829 N   0  0  0  0  0  0  0  0  0  0  0  0
   10.8929  -17.8073   24.8076 C   0  0  1  0  0  0  0  0  0  0  0  0
   10.5589  -19.3061   24.7837 C   0  0  0  0  0  0  0  0  0  0  0  0
    9.1632  -19.6138   25.0630 C   0  0  0  0  0  0  0  0  0  0  0  0
    8.4168  -19.2602   26.1911 C   0  0  0  0  0  0  0  0  0  0  0  0
    7.1848  -19.7312   26.0645 N   0  0  0  0  0  0  0  0  0  0  0  0
    7.1001  -20.3807   24.8920 C   0  0  0  0  0  0  0  0  0  0  0  0
    8.3028  -20.2965   24.3072 N   0  0  0  0  0  0  0  0  0  0  0  0
   12.3552  -17.7984   24.4306 C   0  0  0  0  0  0  0  0  0  0  0  0
   13.2369  -18.3550   25.3345 O   0  0  0  0  0  0  0  0  0  0  0  0
   12.7377  -17.3119   23.3629 O   0  0  0  0  0  0  0  0  0  0  0  0
  2  3  2  0
  2  1  1  0
  4  2  1  0
  5  4  1  0
  6  5  1  0
  6  7  1  1
  8  9  2  0
  8  6  1  0
 10  8  1  0
 11 12  1  1
 11 10  1  0
 12 13  1  0
 13 21  1  0
 13 14  2  0
 14 15  1  0
 16 15  1  0
 16 17  2  0
 18 17  1  0
 19 18  2  0
 20 21  2  0
 20 19  1  0
 21 16  1  0
 22 11  1  0
 23 22  2  0
 24 22  1  0
 25 24  1  0
 25 26  1  6
 26 27  1  0
 27 28  2  0
 28 29  1  0
 30 29  1  0
 31 27  1  0
 31 30  2  0
 32 25  1  0
 32 33  1  0
 34 32  2  0
M  END
$$$$
