QWH.pdb
     RDKit          3D

 34 36  0  0  1  0  0  0  0  0999 V2000
    8.9765  -12.5079   18.5647 N   0  0  0  0  0  0  0  0  0  0  0  0
    8.3839  -13.6570   17.9534 C   0  0  0  0  0  0  0  0  0  0  0  0
    7.8418  -13.5465   16.8352 O   0  0  0  0  0  0  0  0  0  0  0  0
    8.4124  -14.9711   18.6425 C   0  0  0  0  0  0  0  0  0  0  0  0
    9.0150  -14.7961   20.0159 C   0  0  0  0  0  0  0  0  0  0  0  0
    9.5810  -16.0869   20.5532 C   0  0  2  0  0  0  0  0  0  0  0  0
    8.7315  -17.1883   20.1969 N   0  0  0  0  0  0  0  0  0  0  0  0
    9.6267  -15.9801   22.0395 C   0  0  0  0  0  0  0  0  0  0  0  0
   10.3981  -15.1487   22.5863 O   0  0  0  0  0  0  0  0  0  0  0  0
    8.8264  -16.7863   22.8896 N   0  0  0  0  0  0  0  0  0  0  0  0
    8.9192  -16.7517   24.3275 C   0  0  1  0  0  0  0  0  0  0  0  0
    7.5961  -16.4785   24.9672 C   0  0  0  0  0  0  0  0  0  0  0  0
    7.0687  -15.1134   24.7921 C   0  0  0  0  0  0  0  0  0  0  0  0
    6.2309  -14.7061   23.7221 C   0  0  0  0  0  0  0  0  0  0  0  0
    5.9120  -13.4156   23.8621 N   0  0  0  0  0  0  0  0  0  0  0  0
    6.4956  -12.9251   24.9798 C   0  0  0  0  0  0  0  0  0  0  0  0
    6.4744  -11.6681   25.5454 C   0  0  0  0  0  0  0  0  0  0  0  0
    7.1868  -11.4583   26.7131 C   0  0  0  0  0  0  0  0  0  0  0  0
    7.9004  -12.4694   27.3020 C   0  0  0  0  0  0  0  0  0  0  0  0
    7.8909  -13.6991   26.7034 C   0  0  0  0  0  0  0  0  0  0  0  0
    7.2088  -13.9859   25.5460 C   0  0  0  0  0  0  0  0  0  0  0  0
    9.6572  -17.8540   24.9465 C   0  0  0  0  0  0  0  0  0  0  0  0
    9.2633  -19.0488   24.9161 O   0  0  0  0  0  0  0  0  0  0  0  0
   10.9093  -17.5978   25.6281 N   0  0  0  0  0  0  0  0  0  0  0  0
   11.6990  -18.6361   26.2464 C   0  0  1  0  0  0  0  0  0  0  0  0
   13.1230  -18.0843   26.4077 C   0  0  0  0  0  0  0  0  0  0  0  0
   13.8531  -17.9342   25.1567 C   0  0  0  0  0  0  0  0  0  0  0  0
   13.4454  -18.3171   23.8753 C   0  0  0  0  0  0  0  0  0  0  0  0
   14.3958  -18.0090   23.0048 N   0  0  0  0  0  0  0  0  0  0  0  0
   15.4109  -17.4376   23.6732 C   0  0  0  0  0  0  0  0  0  0  0  0
   15.0614  -17.4035   24.9664 N   0  0  0  0  0  0  0  0  0  0  0  0
   11.2746  -18.8531   27.6794 C   0  0  0  0  0  0  0  0  0  0  0  0
   10.5528  -17.8402   28.2774 O   0  0  0  0  0  0  0  0  0  0  0  0
   11.5651  -19.8895   28.2827 O   0  0  0  0  0  0  0  0  0  0  0  0
  2  3  2  0
  2  1  1  0
  4  2  1  0
  5  4  1  0
  6  5  1  0
  6  7  1  1
  8  9  2  0
  8  6  1  0
 10  8  1  0
 11 12  1  1
 11 10  1  0
 12 13  1  0
 13 21  1  0
 13 14  2  0
 14 15  1  0
 16 15  1  0
 16 17  2  0
 18 17  1  0
 19 18  2  0
 20 21  2  0
 20 19  1  0
 21 16  1  0
 22 11  1  0
 23 22  2  0
 24 22  1  0
 25 24  1  0
 25 26  1  1
 26 27  1  0
 27 28  2  0
 28 29  1  0
 30 29  1  0
 31 27  1  0
 31 30  2  0
 32 25  1  0
 32 33  1  0
 34 32  2  0
M  END
$$$$
