YLC.pdb
     RDKit          3D

 27 27  0  0  1  0  0  0  0  0999 V2000
   26.9335  -18.2492  -22.5858 O   0  0  0  0  0  0  0  0  0  0  0  0
   26.3884  -18.9829  -21.5391 C   0  0  0  0  0  0  0  0  0  0  0  0
   25.0825  -18.7757  -21.1769 C   0  0  0  0  0  0  0  0  0  0  0  0
   24.5368  -19.5168  -20.1223 C   0  0  0  0  0  0  0  0  0  0  0  0
   25.2971  -20.4436  -19.4531 C   0  0  0  0  0  0  0  0  0  0  0  0
   24.7196  -21.2144  -18.3464 C   0  0  0  0  0  0  0  0  0  0  0  0
   24.1887  -20.2125  -17.3165 C   0  0  2  0  0  0  0  0  0  0  0  0
   25.3407  -19.4790  -16.8286 N   0  0  0  0  0  0  0  0  0  0  0  0
   23.5578  -21.0025  -16.2260 C   0  0  0  0  0  0  0  0  0  0  0  0
   22.9039  -22.0437  -16.4730 O   0  0  0  0  0  0  0  0  0  0  0  0
   26.5997  -20.6362  -19.8296 C   0  0  0  0  0  0  0  0  0  0  0  0
   27.1644  -19.9156  -20.8708 C   0  0  0  0  0  0  0  0  0  0  0  0
   26.1183  -21.4853  -11.5253 C   0  0  0  0  0  0  0  0  0  0  0  0
   25.1794  -21.8228  -12.6791 C   0  0  1  0  0  0  0  0  0  0  0  0
   24.7924  -23.2961  -12.4057 C   0  0  0  0  0  0  0  0  0  0  0  0
   23.9087  -21.0596  -12.6094 C   0  0  0  0  0  0  0  0  0  0  0  0
   22.9774  -21.2119  -13.7840 C   0  0  2  0  0  0  0  0  0  0  0  0
   23.7023  -20.5683  -14.9034 N   0  0  0  0  0  0  0  0  0  0  0  0
   21.6898  -20.5368  -13.6579 C   0  0  0  0  0  0  0  0  0  0  0  0
   21.6293  -19.2957  -13.9706 O   0  0  0  0  0  0  0  0  0  0  0  0
   20.4777  -21.1263  -13.2180 N   0  0  0  0  0  0  0  0  0  0  0  0
   19.2258  -20.5311  -13.6510 C   0  0  1  0  0  0  0  0  0  0  0  0
   19.2254  -20.4352  -15.1593 C   0  0  0  0  0  0  0  0  0  0  0  0
   18.3206  -18.9725  -15.7264 S   0  0  0  0  0  0  0  0  0  0  0  0
   18.1118  -21.3789  -13.1673 C   0  0  0  0  0  0  0  0  0  0  0  0
   18.2126  -22.6363  -13.1454 O   0  0  0  0  0  0  0  0  0  0  0  0
   16.9174  -20.8390  -12.7197 O   0  0  0  0  0  0  0  0  0  0  0  0
  2  3  2  0
  2  1  1  0
  4  3  1  0
  5  4  2  0
  6  5  1  0
  7  9  1  0
  7  6  1  0
  7  8  1  1
  9 10  2  0
 11  5  1  0
 11 12  2  0
 12  2  1  0
 14 13  1  1
 14 16  1  0
 15 14  1  0
 17 16  1  1
 18  9  1  0
 18 17  1  0
 19 21  1  0
 19 17  1  0
 20 19  2  0
 22 21  1  0
 22 23  1  6
 23 24  1  0
 25 22  1  0
 26 25  2  0
 27 25  1  0
M  END
$$$$
