YLC.pdb
     RDKit          3D

 27 27  0  0  1  0  0  0  0  0999 V2000
   19.5663  -18.1863  -14.5845 O   0  0  0  0  0  0  0  0  0  0  0  0
   19.7604  -16.8674  -14.9765 C   0  0  0  0  0  0  0  0  0  0  0  0
   20.9485  -16.5023  -15.5550 C   0  0  0  0  0  0  0  0  0  0  0  0
   21.1403  -15.1728  -15.9487 C   0  0  0  0  0  0  0  0  0  0  0  0
   20.1519  -14.2388  -15.7598 C   0  0  0  0  0  0  0  0  0  0  0  0
   20.3612  -12.8463  -16.1717 C   0  0  0  0  0  0  0  0  0  0  0  0
   19.3647  -12.5448  -17.2952 C   0  0  2  0  0  0  0  0  0  0  0  0
   19.7820  -13.3378  -18.4353 N   0  0  0  0  0  0  0  0  0  0  0  0
   19.4679  -11.0909  -17.5897 C   0  0  0  0  0  0  0  0  0  0  0  0
   20.3539  -10.6450  -18.3571 O   0  0  0  0  0  0  0  0  0  0  0  0
   18.9722  -14.6229  -15.1800 C   0  0  0  0  0  0  0  0  0  0  0  0
   18.7565  -15.9332  -14.7812 C   0  0  0  0  0  0  0  0  0  0  0  0
   15.1781   -8.6454  -19.3136 C   0  0  0  0  0  0  0  0  0  0  0  0
   16.6693   -8.8633  -19.0774 C   0  0  1  0  0  0  0  0  0  0  0  0
   17.3338   -7.7955  -19.9794 C   0  0  0  0  0  0  0  0  0  0  0  0
   17.0736   -8.5192  -17.6917 C   0  0  0  0  0  0  0  0  0  0  0  0
   18.5163   -8.7723  -17.3386 C   0  0  2  0  0  0  0  0  0  0  0  0
   18.5550  -10.2122  -16.9952 N   0  0  0  0  0  0  0  0  0  0  0  0
   19.0192   -8.0384  -16.1820 C   0  0  0  0  0  0  0  0  0  0  0  0
   18.4390   -8.2232  -15.0547 O   0  0  0  0  0  0  0  0  0  0  0  0
   20.1051   -7.1267  -16.1795 N   0  0  0  0  0  0  0  0  0  0  0  0
   20.4419   -6.4606  -14.9337 C   0  0  1  0  0  0  0  0  0  0  0  0
   21.9415   -6.4967  -14.7493 C   0  0  0  0  0  0  0  0  0  0  0  0
   22.5379   -8.1927  -14.5305 S   0  0  0  0  0  0  0  0  0  0  0  0
   19.9428   -5.0675  -14.9973 C   0  0  0  0  0  0  0  0  0  0  0  0
   19.5448   -4.5677  -16.0851 O   0  0  0  0  0  0  0  0  0  0  0  0
   19.8888   -4.2538  -13.8778 O   0  0  0  0  0  0  0  0  0  0  0  0
  2  3  2  0
  2  1  1  0
  4  3  1  0
  5  4  2  0
  6  5  1  0
  7  9  1  0
  7  6  1  0
  7  8  1  6
  9 10  2  0
 11  5  1  0
 11 12  2  0
 12  2  1  0
 14 13  1  1
 14 16  1  0
 15 14  1  0
 17 16  1  1
 18  9  1  0
 18 17  1  0
 19 21  1  0
 19 17  1  0
 20 19  2  0
 22 21  1  0
 22 23  1  6
 23 24  1  0
 25 22  1  0
 26 25  2  0
 27 25  1  0
M  END
$$$$
