YLC.pdb
     RDKit          3D

 27 27  0  0  1  0  0  0  0  0999 V2000
   18.6668  -16.5015  -21.1383 O   0  0  0  0  0  0  0  0  0  0  0  0
   19.1770  -15.3997  -20.4624 C   0  0  0  0  0  0  0  0  0  0  0  0
   19.3965  -15.4779  -19.1113 C   0  0  0  0  0  0  0  0  0  0  0  0
   19.9106  -14.3662  -18.4340 C   0  0  0  0  0  0  0  0  0  0  0  0
   20.1941  -13.2057  -19.1105 C   0  0  0  0  0  0  0  0  0  0  0  0
   20.7296  -12.0431  -18.3934 C   0  0  0  0  0  0  0  0  0  0  0  0
   22.2573  -12.1138  -18.4793 C   0  0  2  0  0  0  0  0  0  0  0  0
   22.6545  -13.2911  -17.7316 N   0  0  0  0  0  0  0  0  0  0  0  0
   22.7864  -10.8762  -17.8472 C   0  0  0  0  0  0  0  0  0  0  0  0
   23.0014  -10.8182  -16.6130 O   0  0  0  0  0  0  0  0  0  0  0  0
   19.9680  -13.1470  -20.4599 C   0  0  0  0  0  0  0  0  0  0  0  0
   19.4597  -14.2338  -21.1548 C   0  0  0  0  0  0  0  0  0  0  0  0
   26.2058   -6.7077  -18.0485 C   0  0  0  0  0  0  0  0  0  0  0  0
   25.0263   -6.6050  -19.0103 C   0  0  1  0  0  0  0  0  0  0  0  0
   25.6917   -6.2122  -20.3512 C   0  0  0  0  0  0  0  0  0  0  0  0
   24.3868   -7.9214  -19.2556 C   0  0  0  0  0  0  0  0  0  0  0  0
   23.6215   -8.5134  -18.1006 C   0  0  2  0  0  0  0  0  0  0  0  0
   23.0464   -9.7615  -18.6524 N   0  0  0  0  0  0  0  0  0  0  0  0
   22.5106   -7.7085  -17.6031 C   0  0  0  0  0  0  0  0  0  0  0  0
   21.4933   -7.5521  -18.3663 O   0  0  0  0  0  0  0  0  0  0  0  0
   22.4415   -7.0724  -16.3379 N   0  0  0  0  0  0  0  0  0  0  0  0
   21.2417   -6.3233  -16.0086 C   0  0  1  0  0  0  0  0  0  0  0  0
   20.4447   -7.1004  -14.9864 C   0  0  0  0  0  0  0  0  0  0  0  0
   19.1478   -6.0765  -14.2450 S   0  0  0  0  0  0  0  0  0  0  0  0
   21.6459   -4.9998  -15.4802 C   0  0  0  0  0  0  0  0  0  0  0  0
   22.7459   -4.8461  -14.8820 O   0  0  0  0  0  0  0  0  0  0  0  0
   20.8449   -3.8780  -15.6156 O   0  0  0  0  0  0  0  0  0  0  0  0
  2  3  2  0
  2  1  1  0
  4  3  1  0
  5  4  2  0
  6  5  1  0
  7  9  1  0
  7  6  1  0
  7  8  1  1
  9 10  2  0
 11  5  1  0
 11 12  2  0
 12  2  1  0
 14 13  1  1
 14 16  1  0
 15 14  1  0
 17 16  1  6
 18  9  1  0
 18 17  1  0
 19 21  1  0
 19 17  1  0
 20 19  2  0
 22 21  1  0
 22 23  1  1
 23 24  1  0
 25 22  1  0
 26 25  2  0
 27 25  1  0
M  END
$$$$
