YLC.pdb
     RDKit          3D

 27 27  0  0  1  0  0  0  0  0999 V2000
   15.2735  -14.7869  -17.4366 O   0  0  0  0  0  0  0  0  0  0  0  0
   15.9450  -13.5893  -17.2229 C   0  0  0  0  0  0  0  0  0  0  0  0
   17.3017  -13.6011  -17.0262 C   0  0  0  0  0  0  0  0  0  0  0  0
   17.9748  -12.3928  -16.8114 C   0  0  0  0  0  0  0  0  0  0  0  0
   17.2883  -11.2039  -16.7966 C   0  0  0  0  0  0  0  0  0  0  0  0
   17.9997   -9.9415  -16.5674 C   0  0  0  0  0  0  0  0  0  0  0  0
   18.5196   -9.9619  -15.1268 C   0  0  2  0  0  0  0  0  0  0  0  0
   17.3561   -9.8353  -14.2706 N   0  0  0  0  0  0  0  0  0  0  0  0
   19.4246   -8.7919  -14.9741 C   0  0  0  0  0  0  0  0  0  0  0  0
   19.5524   -8.2094  -13.8709 O   0  0  0  0  0  0  0  0  0  0  0  0
   15.9332  -11.2127  -16.9949 C   0  0  0  0  0  0  0  0  0  0  0  0
   15.2426  -12.3955  -17.2100 C   0  0  0  0  0  0  0  0  0  0  0  0
   23.3881  -10.7550  -13.9422 C   0  0  0  0  0  0  0  0  0  0  0  0
   22.2802   -9.7499  -14.2407 C   0  0  1  0  0  0  0  0  0  0  0  0
   22.7755   -8.4564  -13.5501 C   0  0  0  0  0  0  0  0  0  0  0  0
   22.1960   -9.4210  -15.6852 C   0  0  0  0  0  0  0  0  0  0  0  0
   21.5992   -8.0805  -16.0274 C   0  0  2  0  0  0  0  0  0  0  0  0
   20.1425   -8.3403  -16.0873 N   0  0  0  0  0  0  0  0  0  0  0  0
   21.9932   -7.5273  -17.3189 C   0  0  0  0  0  0  0  0  0  0  0  0
   23.2247   -7.2174  -17.4890 O   0  0  0  0  0  0  0  0  0  0  0  0
   21.1361   -7.2957  -18.4244 N   0  0  0  0  0  0  0  0  0  0  0  0
   21.7046   -6.7096  -19.6253 C   0  0  1  0  0  0  0  0  0  0  0  0
   20.9001   -7.1659  -20.8206 C   0  0  0  0  0  0  0  0  0  0  0  0
   21.3938   -6.2833  -22.3230 S   0  0  0  0  0  0  0  0  0  0  0  0
   21.6716   -5.2351  -19.4880 C   0  0  0  0  0  0  0  0  0  0  0  0
   20.7662   -4.6636  -18.8209 O   0  0  0  0  0  0  0  0  0  0  0  0
   22.6231   -4.4201  -20.0787 O   0  0  0  0  0  0  0  0  0  0  0  0
  2  3  2  0
  2  1  1  0
  4  3  1  0
  5  4  2  0
  6  5  1  0
  7  9  1  0
  7  6  1  0
  7  8  1  1
  9 10  2  0
 11  5  1  0
 11 12  2  0
 12  2  1  0
 14 13  1  6
 14 16  1  0
 15 14  1  0
 17 16  1  6
 18  9  1  0
 18 17  1  0
 19 21  1  0
 19 17  1  0
 20 19  2  0
 22 21  1  0
 22 23  1  6
 23 24  1  0
 25 22  1  0
 26 25  2  0
 27 25  1  0
M  END
$$$$
