YLC.pdb
     RDKit          3D

 27 27  0  0  1  0  0  0  0  0999 V2000
   12.1869  -13.2850  -13.9585 O   0  0  0  0  0  0  0  0  0  0  0  0
   13.2749  -12.4583  -14.2109 C   0  0  0  0  0  0  0  0  0  0  0  0
   14.4463  -13.0040  -14.6688 C   0  0  0  0  0  0  0  0  0  0  0  0
   15.5401  -12.1681  -14.9221 C   0  0  0  0  0  0  0  0  0  0  0  0
   15.4469  -10.8140  -14.7157 C   0  0  0  0  0  0  0  0  0  0  0  0
   16.5985   -9.9443  -14.9800 C   0  0  0  0  0  0  0  0  0  0  0  0
   16.3477   -9.2439  -16.3189 C   0  0  2  0  0  0  0  0  0  0  0  0
   16.4292  -10.2713  -17.3390 N   0  0  0  0  0  0  0  0  0  0  0  0
   17.4260   -8.2344  -16.4906 C   0  0  0  0  0  0  0  0  0  0  0  0
   18.4900   -8.5165  -17.0914 O   0  0  0  0  0  0  0  0  0  0  0  0
   14.2684  -10.2878  -14.2578 C   0  0  0  0  0  0  0  0  0  0  0  0
   13.1700  -11.0934  -13.9993 C   0  0  0  0  0  0  0  0  0  0  0  0
   18.8601   -3.4240  -18.0621 C   0  0  0  0  0  0  0  0  0  0  0  0
   18.1334   -3.3918  -16.7213 C   0  0  1  0  0  0  0  0  0  0  0  0
   17.0481   -2.3082  -16.9290 C   0  0  0  0  0  0  0  0  0  0  0  0
   17.3923   -4.6495  -16.4550 C   0  0  0  0  0  0  0  0  0  0  0  0
   18.2323   -5.8689  -16.1763 C   0  0  2  0  0  0  0  0  0  0  0  0
   17.2405   -6.9489  -15.9693 N   0  0  0  0  0  0  0  0  0  0  0  0
   19.0574   -5.8035  -14.9745 C   0  0  0  0  0  0  0  0  0  0  0  0
   18.4635   -5.7531  -13.8403 O   0  0  0  0  0  0  0  0  0  0  0  0
   20.4746   -5.7916  -14.9346 N   0  0  0  0  0  0  0  0  0  0  0  0
   21.1269   -5.8061  -13.6371 C   0  0  1  0  0  0  0  0  0  0  0  0
   22.0676   -6.9874  -13.5755 C   0  0  0  0  0  0  0  0  0  0  0  0
   21.1603   -8.5545  -13.6064 S   0  0  0  0  0  0  0  0  0  0  0  0
   21.8577   -4.5292  -13.4657 C   0  0  0  0  0  0  0  0  0  0  0  0
   22.1470   -3.8064  -14.4584 O   0  0  0  0  0  0  0  0  0  0  0  0
   22.2550   -4.0706  -12.2206 O   0  0  0  0  0  0  0  0  0  0  0  0
  2  3  2  0
  2  1  1  0
  4  3  1  0
  5  4  2  0
  6  5  1  0
  7  9  1  0
  7  6  1  0
  7  8  1  6
  9 10  2  0
 11  5  1  0
 11 12  2  0
 12  2  1  0
 14 13  1  6
 14 16  1  0
 15 14  1  0
 17 16  1  1
 18  9  1  0
 18 17  1  0
 19 21  1  0
 19 17  1  0
 20 19  2  0
 22 21  1  0
 22 23  1  6
 23 24  1  0
 25 22  1  0
 26 25  2  0
 27 25  1  0
M  END
$$$$
