YLC.pdb
     RDKit          3D

 27 27  0  0  1  0  0  0  0  0999 V2000
   18.3582  -15.1747  -22.9758 O   0  0  0  0  0  0  0  0  0  0  0  0
   18.2992  -14.2810  -21.9134 C   0  0  0  0  0  0  0  0  0  0  0  0
   17.0812  -13.9378  -21.3858 C   0  0  0  0  0  0  0  0  0  0  0  0
   17.0258  -13.0375  -20.3155 C   0  0  0  0  0  0  0  0  0  0  0  0
   18.1768  -12.4997  -19.7949 C   0  0  0  0  0  0  0  0  0  0  0  0
   18.1109  -11.5539  -18.6752 C   0  0  0  0  0  0  0  0  0  0  0  0
   19.0758  -12.0525  -17.5951 C   0  0  2  0  0  0  0  0  0  0  0  0
   18.4512  -13.2153  -16.9945 N   0  0  0  0  0  0  0  0  0  0  0  0
   19.2242  -10.9543  -16.6036 C   0  0  0  0  0  0  0  0  0  0  0  0
   18.3495  -10.7462  -15.7293 O   0  0  0  0  0  0  0  0  0  0  0  0
   19.3839  -12.8547  -20.3355 C   0  0  0  0  0  0  0  0  0  0  0  0
   19.4666  -13.7444  -21.3956 C   0  0  0  0  0  0  0  0  0  0  0  0
   23.9248  -10.3092  -14.2579 C   0  0  0  0  0  0  0  0  0  0  0  0
   22.4122  -10.1869  -14.4132 C   0  0  1  0  0  0  0  0  0  0  0  0
   21.9477   -9.7032  -13.0183 C   0  0  0  0  0  0  0  0  0  0  0  0
   22.0310   -9.1056  -15.3551 C   0  0  0  0  0  0  0  0  0  0  0  0
   20.5697   -9.0206  -15.7123 C   0  0  2  0  0  0  0  0  0  0  0  0
   20.3641  -10.1441  -16.6549 N   0  0  0  0  0  0  0  0  0  0  0  0
   20.1596   -7.7999  -16.3987 C   0  0  0  0  0  0  0  0  0  0  0  0
   20.5524   -7.6290  -17.6062 O   0  0  0  0  0  0  0  0  0  0  0  0
   19.3551   -6.7666  -15.8552 N   0  0  0  0  0  0  0  0  0  0  0  0
   19.0286   -5.6316  -16.7003 C   0  0  1  0  0  0  0  0  0  0  0  0
   17.5641   -5.2997  -16.5298 C   0  0  0  0  0  0  0  0  0  0  0  0
   17.1500   -3.7220  -17.3166 S   0  0  0  0  0  0  0  0  0  0  0  0
   19.8866   -4.4908  -16.3048 C   0  0  0  0  0  0  0  0  0  0  0  0
   20.3724   -4.4138  -15.1431 O   0  0  0  0  0  0  0  0  0  0  0  0
   20.1946   -3.4637  -17.1814 O   0  0  0  0  0  0  0  0  0  0  0  0
  2  3  2  0
  2  1  1  0
  4  3  1  0
  5  4  2  0
  6  5  1  0
  7  9  1  0
  7  6  1  0
  7  8  1  1
  9 10  2  0
 11  5  1  0
 11 12  2  0
 12  2  1  0
 14 13  1  1
 14 16  1  0
 15 14  1  0
 17 16  1  6
 18  9  1  0
 18 17  1  0
 19 21  1  0
 19 17  1  0
 20 19  2  0
 22 21  1  0
 22 23  1  1
 23 24  1  0
 25 22  1  0
 26 25  2  0
 27 25  1  0
M  END
$$$$
