YLC.pdb
     RDKit          3D

 27 27  0  0  1  0  0  0  0  0999 V2000
   15.3151  -16.9672  -15.8158 O   0  0  0  0  0  0  0  0  0  0  0  0
   15.9506  -15.7473  -16.0132 C   0  0  0  0  0  0  0  0  0  0  0  0
   16.1614  -15.2940  -17.2898 C   0  0  0  0  0  0  0  0  0  0  0  0
   16.8017  -14.0646  -17.4847 C   0  0  0  0  0  0  0  0  0  0  0  0
   17.2171  -13.3156  -16.4117 C   0  0  0  0  0  0  0  0  0  0  0  0
   17.8907  -12.0295  -16.6236 C   0  0  0  0  0  0  0  0  0  0  0  0
   19.1996  -12.3133  -17.3668 C   0  0  2  0  0  0  0  0  0  0  0  0
   20.0518  -13.0272  -16.4356 N   0  0  0  0  0  0  0  0  0  0  0  0
   19.7890  -10.9968  -17.7282 C   0  0  0  0  0  0  0  0  0  0  0  0
   20.5846  -10.4080  -16.9580 O   0  0  0  0  0  0  0  0  0  0  0  0
   16.9976  -13.7854  -15.1442 C   0  0  0  0  0  0  0  0  0  0  0  0
   16.3656  -14.9995  -14.9235 C   0  0  0  0  0  0  0  0  0  0  0  0
   21.2408   -9.3909  -23.0862 C   0  0  0  0  0  0  0  0  0  0  0  0
   21.3489   -9.1791  -21.5794 C   0  0  1  0  0  0  0  0  0  0  0  0
   21.8088   -7.7064  -21.4576 C   0  0  0  0  0  0  0  0  0  0  0  0
   20.0265   -9.2383  -20.9088 C   0  0  0  0  0  0  0  0  0  0  0  0
   20.0389   -9.1346  -19.4057 C   0  0  2  0  0  0  0  0  0  0  0  0
   19.4439  -10.4125  -18.9522 N   0  0  0  0  0  0  0  0  0  0  0  0
   19.2312   -8.0576  -18.8425 C   0  0  0  0  0  0  0  0  0  0  0  0
   17.9570   -8.1481  -18.9410 O   0  0  0  0  0  0  0  0  0  0  0  0
   19.7227   -6.9019  -18.1845 N   0  0  0  0  0  0  0  0  0  0  0  0
   18.7627   -5.9351  -17.6821 C   0  0  1  0  0  0  0  0  0  0  0  0
   18.2275   -6.4210  -16.3548 C   0  0  0  0  0  0  0  0  0  0  0  0
   17.4092   -5.0857  -15.4454 S   0  0  0  0  0  0  0  0  0  0  0  0
   19.4449   -4.6281  -17.5391 C   0  0  0  0  0  0  0  0  0  0  0  0
   18.7863   -3.5641  -17.3785 O   0  0  0  0  0  0  0  0  0  0  0  0
   20.8245   -4.5110  -17.5742 O   0  0  0  0  0  0  0  0  0  0  0  0
  2  3  2  0
  2  1  1  0
  4  3  1  0
  5  4  2  0
  6  5  1  0
  7  9  1  0
  7  6  1  0
  7  8  1  1
  9 10  2  0
 11  5  1  0
 11 12  2  0
 12  2  1  0
 14 13  1  6
 14 16  1  0
 15 14  1  0
 17 16  1  6
 18  9  1  0
 18 17  1  0
 19 21  1  0
 19 17  1  0
 20 19  2  0
 22 21  1  0
 22 23  1  1
 23 24  1  0
 25 22  1  0
 26 25  2  0
 27 25  1  0
M  END
$$$$
