YLC.pdb
     RDKit          3D

 27 27  0  0  1  0  0  0  0  0999 V2000
   29.0320  -26.5324  -27.3376 O   0  0  0  0  0  0  0  0  0  0  0  0
   29.1258  -27.1882  -26.1161 C   0  0  0  0  0  0  0  0  0  0  0  0
   30.1482  -28.0763  -25.9029 C   0  0  0  0  0  0  0  0  0  0  0  0
   30.2397  -28.7349  -24.6711 C   0  0  0  0  0  0  0  0  0  0  0  0
   29.3173  -28.4979  -23.6822 C   0  0  0  0  0  0  0  0  0  0  0  0
   29.4173  -29.1944  -22.3948 C   0  0  0  0  0  0  0  0  0  0  0  0
   29.7371  -28.1434  -21.3274 C   0  0  2  0  0  0  0  0  0  0  0  0
   31.1382  -27.8073  -21.4918 N   0  0  0  0  0  0  0  0  0  0  0  0
   29.4919  -28.7776  -20.0049 C   0  0  0  0  0  0  0  0  0  0  0  0
   30.4194  -29.3326  -19.3689 O   0  0  0  0  0  0  0  0  0  0  0  0
   28.3032  -27.6073  -23.9143 C   0  0  0  0  0  0  0  0  0  0  0  0
   28.1899  -26.9416  -25.1252 C   0  0  0  0  0  0  0  0  0  0  0  0
   26.1028  -26.2382  -16.6033 C   0  0  0  0  0  0  0  0  0  0  0  0
   27.2491  -27.0580  -17.1871 C   0  0  1  0  0  0  0  0  0  0  0  0
   28.1916  -27.2667  -15.9773 C   0  0  0  0  0  0  0  0  0  0  0  0
   26.8161  -28.4184  -17.5917 C   0  0  0  0  0  0  0  0  0  0  0  0
   27.8906  -29.3221  -18.1385 C   0  0  2  0  0  0  0  0  0  0  0  0
   28.1995  -28.7492  -19.4687 N   0  0  0  0  0  0  0  0  0  0  0  0
   27.4980  -30.7120  -18.3470 C   0  0  0  0  0  0  0  0  0  0  0  0
   26.9085  -31.0113  -19.4446 O   0  0  0  0  0  0  0  0  0  0  0  0
   27.7081  -31.7835  -17.4426 N   0  0  0  0  0  0  0  0  0  0  0  0
   27.3111  -33.1188  -17.8530 C   0  0  1  0  0  0  0  0  0  0  0  0
   28.4441  -34.0765  -17.5649 C   0  0  0  0  0  0  0  0  0  0  0  0
   29.9605  -33.5802  -18.4218 S   0  0  0  0  0  0  0  0  0  0  0  0
   26.0883  -33.4944  -17.1062 C   0  0  0  0  0  0  0  0  0  0  0  0
   25.5679  -32.7056  -16.2705 O   0  0  0  0  0  0  0  0  0  0  0  0
   25.4628  -34.7169  -17.2867 O   0  0  0  0  0  0  0  0  0  0  0  0
  2  3  2  0
  2  1  1  0
  4  3  1  0
  5  4  2  0
  6  5  1  0
  7  9  1  0
  7  6  1  0
  7  8  1  1
  9 10  2  0
 11  5  1  0
 11 12  2  0
 12  2  1  0
 14 13  1  1
 14 16  1  0
 15 14  1  0
 17 16  1  6
 18  9  1  0
 18 17  1  0
 19 21  1  0
 19 17  1  0
 20 19  2  0
 22 21  1  0
 22 23  1  1
 23 24  1  0
 25 22  1  0
 26 25  2  0
 27 25  1  0
M  END
$$$$
