GWN.pdb
     RDKit          3D

 27 28  0  0  1  0  0  0  0  0999 V2000
    7.0731  -19.2134   19.1515 N   0  0  0  0  0  0  0  0  0  0  0  0
    6.4423  -18.6211   20.3142 C   0  0  0  0  0  0  0  0  0  0  0  0
    7.4179  -17.7520   21.0205 C   0  0  0  0  0  0  0  0  0  0  0  0
    8.6418  -17.7491   20.7302 O   0  0  0  0  0  0  0  0  0  0  0  0
    6.9869  -16.8995   22.0458 N   0  0  0  0  0  0  0  0  0  0  0  0
    7.8198  -15.9496   22.7512 C   0  0  1  0  0  0  0  0  0  0  0  0
    6.9390  -14.9760   23.5540 C   0  0  0  0  0  0  0  0  0  0  0  0
    7.7472  -14.1952   24.5046 C   0  0  0  0  0  0  0  0  0  0  0  0
    9.1128  -14.1166   24.5484 C   0  0  0  0  0  0  0  0  0  0  0  0
    9.5023  -13.3061   25.5556 N   0  0  0  0  0  0  0  0  0  0  0  0
    8.3754  -12.8682   26.1542 C   0  0  0  0  0  0  0  0  0  0  0  0
    8.1743  -12.0313   27.2185 C   0  0  0  0  0  0  0  0  0  0  0  0
    6.8979  -11.7493   27.6264 C   0  0  0  0  0  0  0  0  0  0  0  0
    5.7881  -12.2582   27.0293 C   0  0  0  0  0  0  0  0  0  0  0  0
    5.9808  -13.1084   25.9485 C   0  0  0  0  0  0  0  0  0  0  0  0
    7.2550  -13.4110   25.5146 C   0  0  0  0  0  0  0  0  0  0  0  0
    8.7460  -16.6014   23.6907 C   0  0  0  0  0  0  0  0  0  0  0  0
    8.3610  -17.5673   24.4179 O   0  0  0  0  0  0  0  0  0  0  0  0
   12.9932  -19.1279   24.2999 N   0  0  0  0  0  0  0  0  0  0  0  0
   13.2776  -18.1324   23.3015 C   0  0  0  0  0  0  0  0  0  0  0  0
   14.3225  -18.3026   22.6598 O   0  0  0  0  0  0  0  0  0  0  0  0
   12.3070  -17.0300   23.1518 C   0  0  0  0  0  0  0  0  0  0  0  0
   11.1651  -17.2072   24.0899 C   0  0  2  0  0  0  0  0  0  0  0  0
   10.1093  -16.2282   23.8684 N   0  0  0  0  0  0  0  0  0  0  0  0
   11.5084  -17.2171   25.5200 C   0  0  0  0  0  0  0  0  0  0  0  0
   12.4415  -17.9999   25.9344 O   0  0  0  0  0  0  0  0  0  0  0  0
   10.9315  -16.4599   26.5185 O   0  0  0  0  0  0  0  0  0  0  0  0
  1  2  1  0
  2  3  1  0
  3  4  2  0
  5  6  1  0
  5  3  1  0
  6 17  1  0
  7  8  1  0
  6  7  1  1
  8 16  1  0
  9  8  2  0
  9 10  1  0
 10 11  1  0
 11 12  1  0
 12 13  2  0
 14 13  1  0
 15 14  2  0
 16 11  2  0
 16 15  1  0
 17 18  2  0
 19 20  1  0
 20 22  1  0
 21 20  2  0
 23 22  1  6
 23 25  1  0
 24 23  1  0
 24 17  1  0
 25 26  2  0
 25 27  1  0
M  END
$$$$
