GWN.pdb
     RDKit          3D

 27 28  0  0  1  0  0  0  0  0999 V2000
    7.0331  -15.2284   19.4282 N   0  0  0  0  0  0  0  0  0  0  0  0
    6.9081  -15.9130   20.6996 C   0  0  0  0  0  0  0  0  0  0  0  0
    8.0249  -15.5112   21.5926 C   0  0  0  0  0  0  0  0  0  0  0  0
    8.9517  -14.7550   21.2036 O   0  0  0  0  0  0  0  0  0  0  0  0
    8.0708  -15.9755   22.9139 N   0  0  0  0  0  0  0  0  0  0  0  0
    9.0672  -15.6085   23.8969 C   0  0  1  0  0  0  0  0  0  0  0  0
    8.5431  -15.9108   25.3118 C   0  0  0  0  0  0  0  0  0  0  0  0
    7.3903  -15.0569   25.6408 C   0  0  0  0  0  0  0  0  0  0  0  0
    6.0866  -15.4532   25.7689 C   0  0  0  0  0  0  0  0  0  0  0  0
    5.3048  -14.3961   26.0761 N   0  0  0  0  0  0  0  0  0  0  0  0
    6.1189  -13.3226   26.1431 C   0  0  0  0  0  0  0  0  0  0  0  0
    5.8696  -12.0046   26.4157 C   0  0  0  0  0  0  0  0  0  0  0  0
    6.9030  -11.1062   26.4181 C   0  0  0  0  0  0  0  0  0  0  0  0
    8.1940  -11.4447   26.1610 C   0  0  0  0  0  0  0  0  0  0  0  0
    8.4581  -12.7794   25.8832 C   0  0  0  0  0  0  0  0  0  0  0  0
    7.4373  -13.7075   25.8737 C   0  0  0  0  0  0  0  0  0  0  0  0
   10.3316  -16.3393   23.7171 C   0  0  0  0  0  0  0  0  0  0  0  0
   10.3332  -17.5583   23.3650 O   0  0  0  0  0  0  0  0  0  0  0  0
   15.4785  -16.7995   21.6993 N   0  0  0  0  0  0  0  0  0  0  0  0
   15.2182  -16.3412   23.0376 C   0  0  0  0  0  0  0  0  0  0  0  0
   16.0753  -16.6381   23.8801 O   0  0  0  0  0  0  0  0  0  0  0  0
   13.9744  -15.5773   23.2594 C   0  0  0  0  0  0  0  0  0  0  0  0
   12.8493  -16.4939   23.5901 C   0  0  2  0  0  0  0  0  0  0  0  0
   11.6245  -15.7737   23.9118 N   0  0  0  0  0  0  0  0  0  0  0  0
   13.1149  -17.4741   24.6539 C   0  0  0  0  0  0  0  0  0  0  0  0
   12.7845  -17.1894   25.8642 O   0  0  0  0  0  0  0  0  0  0  0  0
   13.6995  -18.7157   24.5130 O   0  0  0  0  0  0  0  0  0  0  0  0
  1  2  1  0
  2  3  1  0
  3  4  2  0
  5  6  1  0
  5  3  1  0
  6 17  1  0
  7  8  1  0
  6  7  1  1
  8 16  1  0
  9  8  2  0
  9 10  1  0
 10 11  1  0
 11 12  1  0
 12 13  2  0
 14 13  1  0
 15 14  2  0
 16 11  2  0
 16 15  1  0
 17 18  2  0
 19 20  1  0
 20 22  1  0
 21 20  2  0
 23 22  1  1
 23 25  1  0
 24 23  1  0
 24 17  1  0
 25 26  2  0
 25 27  1  0
M  END
$$$$
