GWN.pdb
     RDKit          3D

 27 28  0  0  1  0  0  0  0  0999 V2000
   11.1735  -16.4648   19.7722 N   0  0  0  0  0  0  0  0  0  0  0  0
   10.0079  -16.8790   20.5275 C   0  0  0  0  0  0  0  0  0  0  0  0
   10.1813  -16.5050   21.9544 C   0  0  0  0  0  0  0  0  0  0  0  0
   11.2804  -16.0947   22.4082 O   0  0  0  0  0  0  0  0  0  0  0  0
    9.1025  -16.6031   22.8433 N   0  0  0  0  0  0  0  0  0  0  0  0
    9.1939  -16.5161   24.2847 C   0  0  1  0  0  0  0  0  0  0  0  0
    7.8081  -16.2100   24.8798 C   0  0  0  0  0  0  0  0  0  0  0  0
    7.3369  -14.8797   24.4619 C   0  0  0  0  0  0  0  0  0  0  0  0
    6.9375  -14.5084   23.2066 C   0  0  0  0  0  0  0  0  0  0  0  0
    6.5726  -13.2085   23.1977 N   0  0  0  0  0  0  0  0  0  0  0  0
    6.7419  -12.7531   24.4562 C   0  0  0  0  0  0  0  0  0  0  0  0
    6.5304  -11.5224   25.0168 C   0  0  0  0  0  0  0  0  0  0  0  0
    6.7904  -11.3307   26.3475 C   0  0  0  0  0  0  0  0  0  0  0  0
    7.2569  -12.3066   27.1705 C   0  0  0  0  0  0  0  0  0  0  0  0
    7.4750  -13.5590   26.6119 C   0  0  0  0  0  0  0  0  0  0  0  0
    7.2220  -13.7823   25.2742 C   0  0  0  0  0  0  0  0  0  0  0  0
    9.6826  -17.7630   24.8944 C   0  0  0  0  0  0  0  0  0  0  0  0
    9.6708  -18.8525   24.2440 O   0  0  0  0  0  0  0  0  0  0  0  0
   13.1170  -21.0664   25.8793 N   0  0  0  0  0  0  0  0  0  0  0  0
   13.4648  -19.6783   26.0241 C   0  0  0  0  0  0  0  0  0  0  0  0
   14.6088  -19.4549   26.4412 O   0  0  0  0  0  0  0  0  0  0  0  0
   12.4347  -18.6834   25.6652 C   0  0  0  0  0  0  0  0  0  0  0  0
   11.2617  -18.7932   26.5748 C   0  0  2  0  0  0  0  0  0  0  0  0
   10.1964  -17.8654   26.2191 N   0  0  0  0  0  0  0  0  0  0  0  0
   11.5507  -18.6537   28.0101 C   0  0  0  0  0  0  0  0  0  0  0  0
   11.9382  -19.6854   28.6737 O   0  0  0  0  0  0  0  0  0  0  0  0
   11.4550  -17.5059   28.7695 O   0  0  0  0  0  0  0  0  0  0  0  0
  1  2  1  0
  2  3  1  0
  3  4  2  0
  5  6  1  0
  5  3  1  0
  6 17  1  0
  7  8  1  0
  6  7  1  1
  8 16  1  0
  9  8  2  0
  9 10  1  0
 10 11  1  0
 11 12  1  0
 12 13  2  0
 14 13  1  0
 15 14  2  0
 16 11  2  0
 16 15  1  0
 17 18  2  0
 19 20  1  0
 20 22  1  0
 21 20  2  0
 23 22  1  6
 23 25  1  0
 24 23  1  0
 24 17  1  0
 25 26  2  0
 25 27  1  0
M  END
$$$$
