GWN.pdb
     RDKit          3D

 27 28  0  0  1  0  0  0  0  0999 V2000
    9.4537  -16.2033   17.9683 N   0  0  0  0  0  0  0  0  0  0  0  0
    8.5253  -16.6729   18.9774 C   0  0  0  0  0  0  0  0  0  0  0  0
    8.8041  -15.9892   20.2662 C   0  0  0  0  0  0  0  0  0  0  0  0
    9.8093  -15.2500   20.4260 O   0  0  0  0  0  0  0  0  0  0  0  0
    7.9358  -16.1564   21.3532 N   0  0  0  0  0  0  0  0  0  0  0  0
    8.1477  -15.6286   22.6838 C   0  0  1  0  0  0  0  0  0  0  0  0
    6.8373  -15.6942   23.4879 C   0  0  0  0  0  0  0  0  0  0  0  0
    7.0251  -15.1603   24.8467 C   0  0  0  0  0  0  0  0  0  0  0  0
    7.3368  -15.8740   25.9721 C   0  0  0  0  0  0  0  0  0  0  0  0
    7.4278  -15.0500   27.0378 N   0  0  0  0  0  0  0  0  0  0  0  0
    7.1720  -13.8055   26.5843 C   0  0  0  0  0  0  0  0  0  0  0  0
    7.1285  -12.5942   27.2202 C   0  0  0  0  0  0  0  0  0  0  0  0
    6.8381  -11.4636   26.5044 C   0  0  0  0  0  0  0  0  0  0  0  0
    6.5834  -11.4637   25.1694 C   0  0  0  0  0  0  0  0  0  0  0  0
    6.6249  -12.6874   24.5143 C   0  0  0  0  0  0  0  0  0  0  0  0
    6.9149  -13.8436   25.2090 C   0  0  0  0  0  0  0  0  0  0  0  0
    9.1736  -16.3752   23.4290 C   0  0  0  0  0  0  0  0  0  0  0  0
    9.1890  -17.6439   23.4199 O   0  0  0  0  0  0  0  0  0  0  0  0
   15.0126  -16.5114   24.2776 N   0  0  0  0  0  0  0  0  0  0  0  0
   13.6657  -16.6259   23.7863 C   0  0  0  0  0  0  0  0  0  0  0  0
   13.4951  -17.4561   22.8839 O   0  0  0  0  0  0  0  0  0  0  0  0
   12.6462  -15.7533   24.4019 C   0  0  0  0  0  0  0  0  0  0  0  0
   11.3859  -16.5084   24.6401 C   0  0  2  0  0  0  0  0  0  0  0  0
   10.2079  -15.7723   24.2012 N   0  0  0  0  0  0  0  0  0  0  0  0
   11.1684  -16.9700   26.0195 C   0  0  0  0  0  0  0  0  0  0  0  0
   10.2210  -16.4447   26.7134 O   0  0  0  0  0  0  0  0  0  0  0  0
   11.8830  -17.9380   26.6944 O   0  0  0  0  0  0  0  0  0  0  0  0
  1  2  1  0
  2  3  1  0
  3  4  2  0
  5  6  1  0
  5  3  1  0
  6 17  1  0
  7  8  1  0
  6  7  1  1
  8 16  1  0
  9  8  2  0
  9 10  1  0
 10 11  1  0
 11 12  1  0
 12 13  2  0
 14 13  1  0
 15 14  2  0
 16 11  2  0
 16 15  1  0
 17 18  2  0
 19 20  1  0
 20 22  1  0
 21 20  2  0
 23 22  1  1
 23 25  1  0
 24 23  1  0
 24 17  1  0
 25 26  2  0
 25 27  1  0
M  END
$$$$
