GWN.pdb
     RDKit          3D

 27 28  0  0  1  0  0  0  0  0999 V2000
    6.4039  -15.2930   20.5107 N   0  0  0  0  0  0  0  0  0  0  0  0
    6.5731  -16.0494   21.7354 C   0  0  0  0  0  0  0  0  0  0  0  0
    7.7794  -15.5670   22.4552 C   0  0  0  0  0  0  0  0  0  0  0  0
    8.4685  -14.6035   22.0322 O   0  0  0  0  0  0  0  0  0  0  0  0
    8.1836  -16.1875   23.6449 N   0  0  0  0  0  0  0  0  0  0  0  0
    9.3841  -15.8721   24.3884 C   0  0  1  0  0  0  0  0  0  0  0  0
    9.0285  -15.5768   25.8563 C   0  0  0  0  0  0  0  0  0  0  0  0
    7.7255  -14.8998   25.9573 C   0  0  0  0  0  0  0  0  0  0  0  0
    6.4902  -15.4849   25.8895 C   0  0  0  0  0  0  0  0  0  0  0  0
    5.5232  -14.5517   26.0204 N   0  0  0  0  0  0  0  0  0  0  0  0
    6.1504  -13.3670   26.1722 C   0  0  0  0  0  0  0  0  0  0  0  0
    5.6706  -12.0966   26.3440 C   0  0  0  0  0  0  0  0  0  0  0  0
    6.5479  -11.0534   26.4750 C   0  0  0  0  0  0  0  0  0  0  0  0
    7.8989  -11.1989   26.4450 C   0  0  0  0  0  0  0  0  0  0  0  0
    8.3963  -12.4837   26.2713 C   0  0  0  0  0  0  0  0  0  0  0  0
    7.5370  -13.5545   26.1365 C   0  0  0  0  0  0  0  0  0  0  0  0
   10.3619  -16.9716   24.3722 C   0  0  0  0  0  0  0  0  0  0  0  0
   10.3852  -17.8343   25.3024 O   0  0  0  0  0  0  0  0  0  0  0  0
   14.6500  -16.2342   21.0792 N   0  0  0  0  0  0  0  0  0  0  0  0
   13.4279  -15.7488   21.6620 C   0  0  0  0  0  0  0  0  0  0  0  0
   12.5700  -15.3608   20.8582 O   0  0  0  0  0  0  0  0  0  0  0  0
   13.3297  -15.7648   23.1350 C   0  0  0  0  0  0  0  0  0  0  0  0
   12.7675  -17.0592   23.6081 C   0  0  2  0  0  0  0  0  0  0  0  0
   11.3374  -17.1681   23.3528 N   0  0  0  0  0  0  0  0  0  0  0  0
   13.0227  -17.3896   25.0183 C   0  0  0  0  0  0  0  0  0  0  0  0
   13.7787  -18.3917   25.2996 O   0  0  0  0  0  0  0  0  0  0  0  0
   12.5327  -16.7321   26.1278 O   0  0  0  0  0  0  0  0  0  0  0  0
  1  2  1  0
  2  3  1  0
  3  4  2  0
  5  6  1  0
  5  3  1  0
  6 17  1  0
  7  8  1  0
  6  7  1  1
  8 16  1  0
  9  8  2  0
  9 10  1  0
 10 11  1  0
 11 12  1  0
 12 13  2  0
 14 13  1  0
 15 14  2  0
 16 11  2  0
 16 15  1  0
 17 18  2  0
 19 20  1  0
 20 22  1  0
 21 20  2  0
 23 22  1  1
 23 25  1  0
 24 23  1  0
 24 17  1  0
 25 26  2  0
 25 27  1  0
M  END
$$$$
