IMF.pdb
     RDKit          3D

 28 28  0  0  1  0  0  0  0  0999 V2000
    7.6677  -12.1192   19.0639 C   0  0  0  0  0  0  0  0  0  0  0  0
    7.8863  -13.6388   19.1269 C   0  0  0  0  0  0  0  0  0  0  0  0
    7.5912  -14.1364   20.4955 C   0  0  2  0  0  0  0  0  0  0  0  0
    8.4134  -13.3835   21.5373 C   0  0  0  0  0  0  0  0  0  0  0  0
    7.6574  -15.6117   20.6985 C   0  0  2  0  0  0  0  0  0  0  0  0
    6.6374  -16.1727   19.7803 N   0  0  0  0  0  0  0  0  0  0  0  0
    7.2517  -16.0822   22.0414 C   0  0  0  0  0  0  0  0  0  0  0  0
    6.0713  -15.9526   22.4991 O   0  0  0  0  0  0  0  0  0  0  0  0
    7.8650  -21.6858   24.9439 C   0  0  0  0  0  0  0  0  0  0  0  0
    6.6606  -21.0413   23.7743 S   0  0  0  0  0  0  0  0  0  0  0  0
    6.7853  -19.2653   23.5583 C   0  0  0  0  0  0  0  0  0  0  0  0
    7.7016  -18.5634   24.4861 C   0  0  0  0  0  0  0  0  0  0  0  0
    7.8588  -17.0780   24.2796 C   0  0  2  0  0  0  0  0  0  0  0  0
    8.1669  -16.7281   22.9354 N   0  0  0  0  0  0  0  0  0  0  0  0
    8.8360  -16.5290   25.2644 C   0  0  0  0  0  0  0  0  0  0  0  0
   10.0404  -16.4190   24.9263 O   0  0  0  0  0  0  0  0  0  0  0  0
    8.4408  -16.1293   26.5704 N   0  0  0  0  0  0  0  0  0  0  0  0
    9.3486  -15.6206   27.5550 C   0  0  1  0  0  0  0  0  0  0  0  0
    8.7644  -14.4614   28.3005 C   0  0  0  0  0  0  0  0  0  0  0  0
    8.1485  -13.4315   27.4645 C   0  0  0  0  0  0  0  0  0  0  0  0
    8.9078  -12.4410   26.8903 C   0  0  0  0  0  0  0  0  0  0  0  0
    8.3473  -11.4539   26.0882 C   0  0  0  0  0  0  0  0  0  0  0  0
    6.9901  -11.4403   25.8418 C   0  0  0  0  0  0  0  0  0  0  0  0
    6.2210  -12.4277   26.4121 C   0  0  0  0  0  0  0  0  0  0  0  0
    6.7919  -13.4097   27.2126 C   0  0  0  0  0  0  0  0  0  0  0  0
    9.7858  -16.7102   28.4565 C   0  0  0  0  0  0  0  0  0  0  0  0
   10.7926  -16.5301   29.3736 O   0  0  0  0  0  0  0  0  0  0  0  0
    9.2248  -17.8348   28.3875 O   0  0  0  0  0  0  0  0  0  0  0  0
  2  1  1  0
  3  5  1  0
  3  2  1  0
  3  4  1  1
  5  7  1  0
  5  6  1  6
  7  8  2  0
  9 10  1  0
 10 11  1  0
 11 12  1  0
 13 12  1  6
 14 13  1  0
 14  7  1  0
 15 16  2  0
 15 13  1  0
 17 15  1  0
 18 17  1  0
 18 26  1  0
 18 19  1  1
 20 19  1  0
 20 25  2  0
 21 20  1  0
 22 21  2  0
 22 23  1  0
 23 24  2  0
 24 25  1  0
 26 28  2  0
 26 27  1  0
M  END
$$$$
