IMF.pdb
     RDKit          3D

 28 28  0  0  1  0  0  0  0  0999 V2000
    2.5049  -19.0502   21.8904 C   0  0  0  0  0  0  0  0  0  0  0  0
    3.8299  -19.4207   22.5745 C   0  0  0  0  0  0  0  0  0  0  0  0
    4.8563  -18.3865   22.2836 C   0  0  2  0  0  0  0  0  0  0  0  0
    4.8807  -18.0472   20.7961 C   0  0  0  0  0  0  0  0  0  0  0  0
    6.2257  -18.6359   22.8172 C   0  0  2  0  0  0  0  0  0  0  0  0
    6.0504  -18.7605   24.2842 N   0  0  0  0  0  0  0  0  0  0  0  0
    7.1815  -17.5192   22.6477 C   0  0  0  0  0  0  0  0  0  0  0  0
    7.9625  -17.4146   21.6483 O   0  0  0  0  0  0  0  0  0  0  0  0
    7.1758  -11.3619   25.8373 C   0  0  0  0  0  0  0  0  0  0  0  0
    6.5430  -12.9904   26.2634 S   0  0  0  0  0  0  0  0  0  0  0  0
    6.5409  -14.1199   24.8702 C   0  0  0  0  0  0  0  0  0  0  0  0
    7.7452  -14.0872   24.0090 C   0  0  0  0  0  0  0  0  0  0  0  0
    8.2669  -15.4195   23.5326 C   0  0  2  0  0  0  0  0  0  0  0  0
    7.2987  -16.4594   23.6054 N   0  0  0  0  0  0  0  0  0  0  0  0
    9.5355  -15.7519   24.2440 C   0  0  0  0  0  0  0  0  0  0  0  0
   10.5091  -14.9647   24.1469 O   0  0  0  0  0  0  0  0  0  0  0  0
    9.6704  -16.9320   25.0253 N   0  0  0  0  0  0  0  0  0  0  0  0
   10.8472  -17.2599   25.7736 C   0  0  1  0  0  0  0  0  0  0  0  0
   10.5775  -17.2878   27.2458 C   0  0  0  0  0  0  0  0  0  0  0  0
   10.0257  -16.0521   27.8001 C   0  0  0  0  0  0  0  0  0  0  0  0
    8.6780  -15.7917   27.7407 C   0  0  0  0  0  0  0  0  0  0  0  0
    8.1285  -14.6273   28.2641 C   0  0  0  0  0  0  0  0  0  0  0  0
    8.9339  -13.6842   28.8681 C   0  0  0  0  0  0  0  0  0  0  0  0
   10.2846  -13.9353   28.9328 C   0  0  0  0  0  0  0  0  0  0  0  0
   10.8234  -15.1029   28.4059 C   0  0  0  0  0  0  0  0  0  0  0  0
   11.4272  -18.5296   25.2808 C   0  0  0  0  0  0  0  0  0  0  0  0
   10.7646  -19.3250   24.3778 O   0  0  0  0  0  0  0  0  0  0  0  0
   12.5574  -18.8972   25.6952 O   0  0  0  0  0  0  0  0  0  0  0  0
  2  1  1  0
  3  5  1  0
  3  2  1  0
  3  4  1  6
  5  7  1  0
  5  6  1  1
  7  8  2  0
  9 10  1  0
 10 11  1  0
 11 12  1  0
 13 12  1  1
 14 13  1  0
 14  7  1  0
 15 16  2  0
 15 13  1  0
 17 15  1  0
 18 17  1  0
 18 26  1  0
 18 19  1  1
 20 19  1  0
 20 25  2  0
 21 20  1  0
 22 21  2  0
 22 23  1  0
 23 24  2  0
 24 25  1  0
 26 28  2  0
 26 27  1  0
M  END
$$$$
