IMF.pdb
     RDKit          3D

 28 28  0  0  1  0  0  0  0  0999 V2000
   10.2287  -20.3827   17.9726 C   0  0  0  0  0  0  0  0  0  0  0  0
    9.2758  -19.1946   18.1753 C   0  0  0  0  0  0  0  0  0  0  0  0
    9.5551  -18.5383   19.4787 C   0  0  2  0  0  0  0  0  0  0  0  0
    9.6117  -19.5665   20.6048 C   0  0  0  0  0  0  0  0  0  0  0  0
    8.6983  -17.3721   19.8364 C   0  0  2  0  0  0  0  0  0  0  0  0
    8.9032  -16.3937   18.7415 N   0  0  0  0  0  0  0  0  0  0  0  0
    9.0978  -16.6492   21.0642 C   0  0  0  0  0  0  0  0  0  0  0  0
   10.3078  -16.3820   21.3543 O   0  0  0  0  0  0  0  0  0  0  0  0
    6.5030  -11.6885   25.6989 C   0  0  0  0  0  0  0  0  0  0  0  0
    6.3289  -13.4370   26.0811 S   0  0  0  0  0  0  0  0  0  0  0  0
    7.6247  -14.4390   25.3507 C   0  0  0  0  0  0  0  0  0  0  0  0
    7.3782  -14.9077   23.9678 C   0  0  0  0  0  0  0  0  0  0  0  0
    8.4793  -15.7127   23.3248 C   0  0  2  0  0  0  0  0  0  0  0  0
    8.1415  -16.1890   22.0273 N   0  0  0  0  0  0  0  0  0  0  0  0
    8.9206  -16.7981   24.2485 C   0  0  0  0  0  0  0  0  0  0  0  0
    8.6830  -17.9917   23.9386 O   0  0  0  0  0  0  0  0  0  0  0  0
    9.5999  -16.5174   25.4655 N   0  0  0  0  0  0  0  0  0  0  0  0
   10.8830  -17.0582   25.8028 C   0  0  1  0  0  0  0  0  0  0  0  0
   11.8175  -15.9989   26.2981 C   0  0  0  0  0  0  0  0  0  0  0  0
   11.3660  -15.2787   27.4882 C   0  0  0  0  0  0  0  0  0  0  0  0
   11.5341  -15.8126   28.7428 C   0  0  0  0  0  0  0  0  0  0  0  0
   11.1181  -15.1462   29.8894 C   0  0  0  0  0  0  0  0  0  0  0  0
   10.5144  -13.9092   29.7988 C   0  0  0  0  0  0  0  0  0  0  0  0
   10.3414  -13.3657   28.5472 C   0  0  0  0  0  0  0  0  0  0  0  0
   10.7611  -14.0409   27.4075 C   0  0  0  0  0  0  0  0  0  0  0  0
   10.7295  -18.1720   26.7657 C   0  0  0  0  0  0  0  0  0  0  0  0
    9.4968  -18.5614   27.2307 O   0  0  0  0  0  0  0  0  0  0  0  0
   11.7507  -18.7840   27.1739 O   0  0  0  0  0  0  0  0  0  0  0  0
  2  1  1  0
  3  5  1  0
  3  2  1  0
  3  4  1  1
  5  7  1  0
  5  6  1  6
  7  8  2  0
  9 10  1  0
 10 11  1  0
 11 12  1  0
 13 12  1  1
 14 13  1  0
 14  7  1  0
 15 16  2  0
 15 13  1  0
 17 15  1  0
 18 17  1  0
 18 26  1  0
 18 19  1  1
 20 19  1  0
 20 25  2  0
 21 20  1  0
 22 21  2  0
 22 23  1  0
 23 24  2  0
 24 25  1  0
 26 28  2  0
 26 27  1  0
M  END
$$$$
