IMF.pdb
     RDKit          3D

 28 28  0  0  1  0  0  0  0  0999 V2000
    7.8273  -12.2277   18.4449 C   0  0  0  0  0  0  0  0  0  0  0  0
    8.8525  -13.3108   18.8148 C   0  0  0  0  0  0  0  0  0  0  0  0
    8.1499  -14.5595   19.2082 C   0  0  2  0  0  0  0  0  0  0  0  0
    6.7715  -14.2499   19.7849 C   0  0  0  0  0  0  0  0  0  0  0  0
    8.9095  -15.5103   20.0692 C   0  0  2  0  0  0  0  0  0  0  0  0
    8.0560  -16.7197   20.1531 N   0  0  0  0  0  0  0  0  0  0  0  0
    9.0910  -15.0819   21.4739 C   0  0  0  0  0  0  0  0  0  0  0  0
   10.0126  -14.2879   21.8478 O   0  0  0  0  0  0  0  0  0  0  0  0
    5.6619  -11.7506   26.0453 C   0  0  0  0  0  0  0  0  0  0  0  0
    5.8405  -13.4312   26.6596 S   0  0  0  0  0  0  0  0  0  0  0  0
    7.2676  -14.2727   25.9728 C   0  0  0  0  0  0  0  0  0  0  0  0
    7.1491  -14.6991   24.5595 C   0  0  0  0  0  0  0  0  0  0  0  0
    8.4096  -15.2007   23.9011 C   0  0  2  0  0  0  0  0  0  0  0  0
    8.2318  -15.5321   22.5289 N   0  0  0  0  0  0  0  0  0  0  0  0
    8.9903  -16.3183   24.7010 C   0  0  0  0  0  0  0  0  0  0  0  0
    8.2283  -17.2257   25.1171 O   0  0  0  0  0  0  0  0  0  0  0  0
   10.3780  -16.3822   25.0036 N   0  0  0  0  0  0  0  0  0  0  0  0
   10.9251  -17.1769   26.0627 C   0  0  1  0  0  0  0  0  0  0  0  0
   10.0968  -17.0879   27.3064 C   0  0  0  0  0  0  0  0  0  0  0  0
   10.2246  -15.8350   28.0499 C   0  0  0  0  0  0  0  0  0  0  0  0
    9.1623  -15.3192   28.7521 C   0  0  0  0  0  0  0  0  0  0  0  0
    9.2595  -14.1332   29.4702 C   0  0  0  0  0  0  0  0  0  0  0  0
   10.4450  -13.4283   29.4986 C   0  0  0  0  0  0  0  0  0  0  0  0
   11.5146  -13.9361   28.7988 C   0  0  0  0  0  0  0  0  0  0  0  0
   11.4062  -15.1229   28.0840 C   0  0  0  0  0  0  0  0  0  0  0  0
   11.1133  -18.5728   25.6073 C   0  0  0  0  0  0  0  0  0  0  0  0
   10.0560  -19.4404   25.4785 O   0  0  0  0  0  0  0  0  0  0  0  0
   12.2699  -18.9835   25.3284 O   0  0  0  0  0  0  0  0  0  0  0  0
  2  1  1  0
  3  5  1  0
  3  2  1  0
  3  4  1  1
  5  7  1  0
  5  6  1  1
  7  8  2  0
  9 10  1  0
 10 11  1  0
 11 12  1  0
 13 12  1  1
 14 13  1  0
 14  7  1  0
 15 16  2  0
 15 13  1  0
 17 15  1  0
 18 17  1  0
 18 26  1  0
 18 19  1  1
 20 19  1  0
 20 25  2  0
 21 20  1  0
 22 21  2  0
 22 23  1  0
 23 24  2  0
 24 25  1  0
 26 28  2  0
 26 27  1  0
M  END
$$$$
