IMF.pdb
     RDKit          3D

 28 28  0  0  1  0  0  0  0  0999 V2000
    7.6686  -11.6845   19.8188 C   0  0  0  0  0  0  0  0  0  0  0  0
    7.4889  -13.1787   19.5088 C   0  0  0  0  0  0  0  0  0  0  0  0
    7.7905  -13.9865   20.7188 C   0  0  2  0  0  0  0  0  0  0  0  0
    9.1489  -13.6077   21.3014 C   0  0  0  0  0  0  0  0  0  0  0  0
    7.6351  -15.4636   20.5914 C   0  0  2  0  0  0  0  0  0  0  0  0
    6.2119  -15.6713   20.2311 N   0  0  0  0  0  0  0  0  0  0  0  0
    7.8192  -16.2275   21.8452 C   0  0  0  0  0  0  0  0  0  0  0  0
    6.9619  -16.2424   22.7856 O   0  0  0  0  0  0  0  0  0  0  0  0
   13.0953  -20.3365   23.0263 C   0  0  0  0  0  0  0  0  0  0  0  0
   11.9363  -20.6830   24.3569 S   0  0  0  0  0  0  0  0  0  0  0  0
   10.6336  -19.4564   24.4790 C   0  0  0  0  0  0  0  0  0  0  0  0
   10.3994  -18.6385   23.2668 C   0  0  0  0  0  0  0  0  0  0  0  0
    9.2968  -17.6133   23.3506 C   0  0  2  0  0  0  0  0  0  0  0  0
    8.9882  -17.0178   22.0958 N   0  0  0  0  0  0  0  0  0  0  0  0
    9.6139  -16.6118   24.4100 C   0  0  0  0  0  0  0  0  0  0  0  0
    9.5022  -15.3900   24.1421 O   0  0  0  0  0  0  0  0  0  0  0  0
   10.0380  -17.0031   25.7094 N   0  0  0  0  0  0  0  0  0  0  0  0
    9.7728  -16.2433   26.8947 C   0  0  1  0  0  0  0  0  0  0  0  0
    8.3056  -16.0243   27.0953 C   0  0  0  0  0  0  0  0  0  0  0  0
    7.8321  -14.6734   26.7956 C   0  0  0  0  0  0  0  0  0  0  0  0
    6.6413  -14.4717   26.1409 C   0  0  0  0  0  0  0  0  0  0  0  0
    6.1672  -13.1982   25.8486 C   0  0  0  0  0  0  0  0  0  0  0  0
    6.8910  -12.0820   26.2137 C   0  0  0  0  0  0  0  0  0  0  0  0
    8.0846  -12.2731   26.8698 C   0  0  0  0  0  0  0  0  0  0  0  0
    8.5492  -13.5510   27.1567 C   0  0  0  0  0  0  0  0  0  0  0  0
   10.4141  -16.8840   28.0649 C   0  0  0  0  0  0  0  0  0  0  0  0
   11.0298  -18.1085   27.9720 O   0  0  0  0  0  0  0  0  0  0  0  0
   10.3996  -16.2974   29.1784 O   0  0  0  0  0  0  0  0  0  0  0  0
  2  1  1  0
  3  5  1  0
  3  2  1  0
  3  4  1  6
  5  7  1  0
  5  6  1  1
  7  8  2  0
  9 10  1  0
 10 11  1  0
 11 12  1  0
 13 12  1  6
 14 13  1  0
 14  7  1  0
 15 16  2  0
 15 13  1  0
 17 15  1  0
 18 17  1  0
 18 26  1  0
 18 19  1  1
 20 19  1  0
 20 25  2  0
 21 20  1  0
 22 21  2  0
 22 23  1  0
 23 24  2  0
 24 25  1  0
 26 28  2  0
 26 27  1  0
M  END
$$$$
