IMF.pdb
     RDKit          3D

 28 28  0  0  1  0  0  0  0  0999 V2000
    6.8041  -17.5293   17.7762 C   0  0  0  0  0  0  0  0  0  0  0  0
    7.2675  -17.4778   19.2403 C   0  0  0  0  0  0  0  0  0  0  0  0
    8.3666  -18.4536   19.4580 C   0  0  2  0  0  0  0  0  0  0  0  0
    7.9669  -19.8420   18.9670 C   0  0  0  0  0  0  0  0  0  0  0  0
    8.9583  -18.4990   20.8255 C   0  0  2  0  0  0  0  0  0  0  0  0
    7.8628  -18.9762   21.7032 N   0  0  0  0  0  0  0  0  0  0  0  0
    9.3449  -17.1867   21.3890 C   0  0  0  0  0  0  0  0  0  0  0  0
   10.3440  -16.5161   20.9745 O   0  0  0  0  0  0  0  0  0  0  0  0
    5.7277  -13.6114   26.1766 C   0  0  0  0  0  0  0  0  0  0  0  0
    6.6811  -12.5115   25.1206 S   0  0  0  0  0  0  0  0  0  0  0  0
    8.0827  -13.3275   24.3550 C   0  0  0  0  0  0  0  0  0  0  0  0
    7.8084  -14.6492   23.7460 C   0  0  0  0  0  0  0  0  0  0  0  0
    8.9616  -15.3157   23.0390 C   0  0  2  0  0  0  0  0  0  0  0  0
    8.6140  -16.5650   22.4536 N   0  0  0  0  0  0  0  0  0  0  0  0
   10.1351  -15.4071   23.9560 C   0  0  0  0  0  0  0  0  0  0  0  0
   10.6076  -14.3503   24.4428 O   0  0  0  0  0  0  0  0  0  0  0  0
   10.7299  -16.6541   24.2911 N   0  0  0  0  0  0  0  0  0  0  0  0
   11.0615  -17.0426   25.6296 C   0  0  1  0  0  0  0  0  0  0  0  0
    9.8936  -16.8957   26.5544 C   0  0  0  0  0  0  0  0  0  0  0  0
    9.8917  -15.6783   27.3647 C   0  0  0  0  0  0  0  0  0  0  0  0
    8.8019  -14.8419   27.3799 C   0  0  0  0  0  0  0  0  0  0  0  0
    8.7736  -13.6818   28.1449 C   0  0  0  0  0  0  0  0  0  0  0  0
    9.8569  -13.3314   28.9237 C   0  0  0  0  0  0  0  0  0  0  0  0
   10.9531  -14.1621   28.9156 C   0  0  0  0  0  0  0  0  0  0  0  0
   10.9707  -15.3195   28.1467 C   0  0  0  0  0  0  0  0  0  0  0  0
   11.6211  -18.4131   25.6387 C   0  0  0  0  0  0  0  0  0  0  0  0
   11.6668  -19.1832   24.5021 O   0  0  0  0  0  0  0  0  0  0  0  0
   12.0693  -18.8928   26.7126 O   0  0  0  0  0  0  0  0  0  0  0  0
  2  1  1  0
  3  5  1  0
  3  2  1  0
  3  4  1  1
  5  7  1  0
  5  6  1  1
  7  8  2  0
  9 10  1  0
 10 11  1  0
 11 12  1  0
 13 12  1  1
 14 13  1  0
 14  7  1  0
 15 16  2  0
 15 13  1  0
 17 15  1  0
 18 17  1  0
 18 26  1  0
 18 19  1  1
 20 19  1  0
 20 25  2  0
 21 20  1  0
 22 21  2  0
 22 23  1  0
 23 24  2  0
 24 25  1  0
 26 28  2  0
 26 27  1  0
M  END
$$$$
