IMF.pdb
     RDKit          3D

 28 28  0  0  1  0  0  0  0  0999 V2000
    7.4138  -12.4483   17.3737 C   0  0  0  0  0  0  0  0  0  0  0  0
    7.4091  -13.7980   18.1079 C   0  0  0  0  0  0  0  0  0  0  0  0
    7.9274  -13.6246   19.4895 C   0  0  2  0  0  0  0  0  0  0  0  0
    9.2516  -12.8666   19.4829 C   0  0  0  0  0  0  0  0  0  0  0  0
    7.9949  -14.8497   20.3361 C   0  0  2  0  0  0  0  0  0  0  0  0
    6.6515  -15.4675   20.2271 N   0  0  0  0  0  0  0  0  0  0  0  0
    8.1787  -14.6063   21.7840 C   0  0  0  0  0  0  0  0  0  0  0  0
    8.4131  -13.4553   22.2739 O   0  0  0  0  0  0  0  0  0  0  0  0
    6.9621  -12.0089   26.3493 C   0  0  0  0  0  0  0  0  0  0  0  0
    5.8418  -13.4088   26.2109 S   0  0  0  0  0  0  0  0  0  0  0  0
    6.2097  -14.4546   24.8011 C   0  0  0  0  0  0  0  0  0  0  0  0
    7.2145  -15.5182   25.0292 C   0  0  0  0  0  0  0  0  0  0  0  0
    8.4252  -15.5029   24.1303 C   0  0  2  0  0  0  0  0  0  0  0  0
    8.1033  -15.6592   22.7533 N   0  0  0  0  0  0  0  0  0  0  0  0
    9.4280  -16.4970   24.6120 C   0  0  0  0  0  0  0  0  0  0  0  0
    9.3964  -17.6636   24.1480 O   0  0  0  0  0  0  0  0  0  0  0  0
   10.4141  -16.1597   25.5791 N   0  0  0  0  0  0  0  0  0  0  0  0
   11.3687  -17.0924   26.1000 C   0  0  1  0  0  0  0  0  0  0  0  0
   12.3349  -16.4326   27.0338 C   0  0  0  0  0  0  0  0  0  0  0  0
   11.7269  -15.5986   28.0699 C   0  0  0  0  0  0  0  0  0  0  0  0
   11.3064  -14.3207   27.7912 C   0  0  0  0  0  0  0  0  0  0  0  0
   10.7216  -13.5100   28.7569 C   0  0  0  0  0  0  0  0  0  0  0  0
   10.5438  -13.9730   30.0441 C   0  0  0  0  0  0  0  0  0  0  0  0
   10.9614  -15.2511   30.3335 C   0  0  0  0  0  0  0  0  0  0  0  0
   11.5451  -16.0530   29.3602 C   0  0  0  0  0  0  0  0  0  0  0  0
   10.6720  -18.2393   26.7248 C   0  0  0  0  0  0  0  0  0  0  0  0
   11.3506  -19.3600   27.1379 O   0  0  0  0  0  0  0  0  0  0  0  0
    9.4245  -18.1942   26.8858 O   0  0  0  0  0  0  0  0  0  0  0  0
  2  1  1  0
  3  5  1  0
  3  2  1  0
  3  4  1  6
  5  7  1  0
  5  6  1  1
  7  8  2  0
  9 10  1  0
 10 11  1  0
 11 12  1  0
 13 12  1  1
 14 13  1  0
 14  7  1  0
 15 16  2  0
 15 13  1  0
 17 15  1  0
 18 17  1  0
 18 26  1  0
 18 19  1  1
 20 19  1  0
 20 25  2  0
 21 20  1  0
 22 21  2  0
 22 23  1  0
 23 24  2  0
 24 25  1  0
 26 28  2  0
 26 27  1  0
M  END
$$$$
