IMF.pdb
     RDKit          3D

 28 28  0  0  1  0  0  0  0  0999 V2000
    6.9703  -22.7407   22.9389 C   0  0  0  0  0  0  0  0  0  0  0  0
    6.4048  -21.5772   22.1096 C   0  0  0  0  0  0  0  0  0  0  0  0
    7.2852  -20.3875   22.2405 C   0  0  2  0  0  0  0  0  0  0  0  0
    7.7004  -20.1748   23.6933 C   0  0  0  0  0  0  0  0  0  0  0  0
    6.8001  -19.1254   21.6129 C   0  0  2  0  0  0  0  0  0  0  0  0
    6.5670  -19.4683   20.1894 N   0  0  0  0  0  0  0  0  0  0  0  0
    7.7840  -18.0209   21.5757 C   0  0  0  0  0  0  0  0  0  0  0  0
    8.9408  -18.1339   21.0572 O   0  0  0  0  0  0  0  0  0  0  0  0
    8.4907  -11.7016   20.0876 C   0  0  0  0  0  0  0  0  0  0  0  0
    7.5362  -13.0222   19.3268 S   0  0  0  0  0  0  0  0  0  0  0  0
    7.1098  -14.3248   20.4835 C   0  0  0  0  0  0  0  0  0  0  0  0
    7.8696  -14.3355   21.7546 C   0  0  0  0  0  0  0  0  0  0  0  0
    8.4456  -15.6620   22.1819 C   0  0  2  0  0  0  0  0  0  0  0  0
    7.5040  -16.7270   22.1246 N   0  0  0  0  0  0  0  0  0  0  0  0
    9.0937  -15.5271   23.5190 C   0  0  0  0  0  0  0  0  0  0  0  0
   10.1017  -14.7866   23.6322 O   0  0  0  0  0  0  0  0  0  0  0  0
    8.6022  -16.2126   24.6635 N   0  0  0  0  0  0  0  0  0  0  0  0
    9.1436  -16.0516   25.9801 C   0  0  1  0  0  0  0  0  0  0  0  0
    8.0959  -15.6276   26.9617 C   0  0  0  0  0  0  0  0  0  0  0  0
    7.4753  -14.3321   26.6876 C   0  0  0  0  0  0  0  0  0  0  0  0
    6.1758  -14.2502   26.2495 C   0  0  0  0  0  0  0  0  0  0  0  0
    5.5619  -13.0313   25.9865 C   0  0  0  0  0  0  0  0  0  0  0  0
    6.2514  -11.8492   26.1609 C   0  0  0  0  0  0  0  0  0  0  0  0
    7.5532  -11.9202   26.5992 C   0  0  0  0  0  0  0  0  0  0  0  0
    8.1571  -13.1445   26.8589 C   0  0  0  0  0  0  0  0  0  0  0  0
    9.8431  -17.2873   26.3982 C   0  0  0  0  0  0  0  0  0  0  0  0
    9.9190  -18.3878   25.5793 O   0  0  0  0  0  0  0  0  0  0  0  0
   10.3859  -17.3392   27.5326 O   0  0  0  0  0  0  0  0  0  0  0  0
  2  1  1  0
  3  5  1  0
  3  2  1  0
  3  4  1  1
  5  7  1  0
  5  6  1  6
  7  8  2  0
  9 10  1  0
 10 11  1  0
 11 12  1  0
 13 12  1  1
 14 13  1  0
 14  7  1  0
 15 16  2  0
 15 13  1  0
 17 15  1  0
 18 17  1  0
 18 26  1  0
 18 19  1  1
 20 19  1  0
 20 25  2  0
 21 20  1  0
 22 21  2  0
 22 23  1  0
 23 24  2  0
 24 25  1  0
 26 28  2  0
 26 27  1  0
M  END
$$$$
