ILF.pdb
     RDKit          3D

 28 28  0  0  1  0  0  0  0  0999 V2000
   26.2227  -15.1000  -18.4896 C   0  0  0  0  0  0  0  0  0  0  0  0
   27.1800  -15.9422  -17.7098 C   0  0  0  0  0  0  0  0  0  0  0  0
   26.5205  -17.1185  -17.0380 C   0  0  2  0  0  0  0  0  0  0  0  0
   25.4655  -16.5298  -16.1167 C   0  0  0  0  0  0  0  0  0  0  0  0
   27.5354  -17.9176  -16.3143 C   0  0  2  0  0  0  0  0  0  0  0  0
   28.5868  -18.3418  -17.2025 N   0  0  0  0  0  0  0  0  0  0  0  0
   26.9743  -19.0726  -15.5709 C   0  0  0  0  0  0  0  0  0  0  0  0
   26.6067  -20.1309  -16.1310 O   0  0  0  0  0  0  0  0  0  0  0  0
   29.0791  -20.4915  -10.8218 C   0  0  0  0  0  0  0  0  0  0  0  0
   28.5511  -20.5673  -12.2871 C   0  0  1  0  0  0  0  0  0  0  0  0
   28.8343  -21.9777  -12.7060 C   0  0  0  0  0  0  0  0  0  0  0  0
   27.1287  -20.1792  -12.2023 C   0  0  0  0  0  0  0  0  0  0  0  0
   26.2769  -20.1523  -13.4241 C   0  0  2  0  0  0  0  0  0  0  0  0
   26.8497  -18.9742  -14.1757 N   0  0  0  0  0  0  0  0  0  0  0  0
   24.8695  -19.8406  -13.2019 C   0  0  0  0  0  0  0  0  0  0  0  0
   24.6008  -18.6814  -12.7230 O   0  0  0  0  0  0  0  0  0  0  0  0
   23.7462  -20.6627  -13.4622 N   0  0  0  0  0  0  0  0  0  0  0  0
   22.4368  -20.1761  -13.1550 C   0  0  1  0  0  0  0  0  0  0  0  0
   22.2591  -18.8940  -13.9805 C   0  0  0  0  0  0  0  0  0  0  0  0
   22.2372  -19.2255  -15.4167 C   0  0  0  0  0  0  0  0  0  0  0  0
   21.1161  -19.7041  -16.0621 C   0  0  0  0  0  0  0  0  0  0  0  0
   21.1781  -19.9905  -17.4092 C   0  0  0  0  0  0  0  0  0  0  0  0
   22.3390  -19.8080  -18.1246 C   0  0  0  0  0  0  0  0  0  0  0  0
   23.4506  -19.3310  -17.4743 C   0  0  0  0  0  0  0  0  0  0  0  0
   23.4088  -19.0393  -16.1302 C   0  0  0  0  0  0  0  0  0  0  0  0
   21.3550  -21.1136  -13.4692 C   0  0  0  0  0  0  0  0  0  0  0  0
   20.0150  -20.8678  -13.2627 O   0  0  0  0  0  0  0  0  0  0  0  0
   21.6284  -22.2506  -13.9708 O   0  0  0  0  0  0  0  0  0  0  0  0
  2  1  1  0
  3  2  1  0
  3  4  1  1
  5  6  1  6
  5  3  1  0
  7  5  1  0
  8  7  2  0
 10  9  1  1
 10 12  1  0
 11 10  1  0
 13 12  1  1
 13 14  1  0
 14  7  1  0
 15 13  1  0
 15 17  1  0
 16 15  2  0
 18 26  1  0
 18 19  1  6
 18 17  1  0
 20 19  1  0
 20 25  2  0
 21 20  1  0
 22 21  2  0
 22 23  1  0
 23 24  2  0
 24 25  1  0
 26 27  1  0
 28 26  2  0
M  END
$$$$
