ILF.pdb
     RDKit          3D

 28 28  0  0  1  0  0  0  0  0999 V2000
   20.2695  -20.3359  -15.6689 C   0  0  0  0  0  0  0  0  0  0  0  0
   20.9167  -20.2674  -14.3234 C   0  0  0  0  0  0  0  0  0  0  0  0
   22.3959  -20.5503  -14.3640 C   0  0  2  0  0  0  0  0  0  0  0  0
   22.5376  -21.9149  -15.0168 C   0  0  0  0  0  0  0  0  0  0  0  0
   22.9532  -20.5076  -12.9930 C   0  0  2  0  0  0  0  0  0  0  0  0
   22.6370  -19.2600  -12.3466 N   0  0  0  0  0  0  0  0  0  0  0  0
   24.4099  -20.7822  -12.9263 C   0  0  0  0  0  0  0  0  0  0  0  0
   24.8989  -21.9200  -13.1139 O   0  0  0  0  0  0  0  0  0  0  0  0
   27.9583  -16.8317  -14.1945 C   0  0  0  0  0  0  0  0  0  0  0  0
   27.1707  -18.1775  -14.1867 C   0  0  1  0  0  0  0  0  0  0  0  0
   27.7546  -18.9503  -15.3298 C   0  0  0  0  0  0  0  0  0  0  0  0
   27.3832  -18.7380  -12.8370 C   0  0  0  0  0  0  0  0  0  0  0  0
   26.7450  -20.0248  -12.4422 C   0  0  2  0  0  0  0  0  0  0  0  0
   25.2796  -19.7176  -12.6397 N   0  0  0  0  0  0  0  0  0  0  0  0
   26.8919  -20.3942  -11.0389 C   0  0  0  0  0  0  0  0  0  0  0  0
   28.0855  -20.5911  -10.6128 O   0  0  0  0  0  0  0  0  0  0  0  0
   25.8702  -20.5538  -10.0712 N   0  0  0  0  0  0  0  0  0  0  0  0
   26.2293  -20.7812   -8.7056 C   0  0  1  0  0  0  0  0  0  0  0  0
   27.0670  -19.5665   -8.2821 C   0  0  0  0  0  0  0  0  0  0  0  0
   27.4955  -19.7215   -6.8802 C   0  0  0  0  0  0  0  0  0  0  0  0
   26.6930  -20.2743   -5.9040 C   0  0  0  0  0  0  0  0  0  0  0  0
   27.1689  -20.3838   -4.6148 C   0  0  0  0  0  0  0  0  0  0  0  0
   28.4318  -19.9515   -4.2815 C   0  0  0  0  0  0  0  0  0  0  0  0
   29.2243  -19.4023   -5.2595 C   0  0  0  0  0  0  0  0  0  0  0  0
   28.7674  -19.2844   -6.5520 C   0  0  0  0  0  0  0  0  0  0  0  0
   25.0884  -20.9287   -7.7977 C   0  0  0  0  0  0  0  0  0  0  0  0
   25.1207  -21.5999   -6.5948 O   0  0  0  0  0  0  0  0  0  0  0  0
   23.9652  -20.4149   -8.1038 O   0  0  0  0  0  0  0  0  0  0  0  0
  2  1  1  0
  3  2  1  0
  3  4  1  1
  5  6  1  6
  5  3  1  0
  7  5  1  0
  8  7  2  0
 10  9  1  1
 10 12  1  0
 11 10  1  0
 13 12  1  1
 13 14  1  0
 14  7  1  0
 15 13  1  0
 15 17  1  0
 16 15  2  0
 18 26  1  0
 18 19  1  1
 18 17  1  0
 20 19  1  0
 20 25  2  0
 21 20  1  0
 22 21  2  0
 22 23  1  0
 23 24  2  0
 24 25  1  0
 26 27  1  0
 28 26  2  0
M  END
$$$$
