ILF.pdb
     RDKit          3D

 28 28  0  0  1  0  0  0  0  0999 V2000
   18.8573  -20.7132  -13.0918 C   0  0  0  0  0  0  0  0  0  0  0  0
   20.1881  -20.4946  -13.7361 C   0  0  0  0  0  0  0  0  0  0  0  0
   21.3310  -21.0722  -12.9423 C   0  0  2  0  0  0  0  0  0  0  0  0
   21.2387  -20.4386  -11.5645 C   0  0  0  0  0  0  0  0  0  0  0  0
   22.6130  -20.7826  -13.6242 C   0  0  2  0  0  0  0  0  0  0  0  0
   22.6181  -21.3177  -14.9613 N   0  0  0  0  0  0  0  0  0  0  0  0
   23.8102  -21.2316  -12.8713 C   0  0  0  0  0  0  0  0  0  0  0  0
   24.0783  -22.4389  -12.6731 O   0  0  0  0  0  0  0  0  0  0  0  0
   28.4282  -19.2669  -14.3336 C   0  0  0  0  0  0  0  0  0  0  0  0
   27.3749  -20.3253  -13.8841 C   0  0  1  0  0  0  0  0  0  0  0  0
   28.0947  -21.6336  -14.0075 C   0  0  0  0  0  0  0  0  0  0  0  0
   26.9802  -19.9177  -12.5206 C   0  0  0  0  0  0  0  0  0  0  0  0
   25.9865  -20.7158  -11.7494 C   0  0  2  0  0  0  0  0  0  0  0  0
   24.6821  -20.2580  -12.3575 N   0  0  0  0  0  0  0  0  0  0  0  0
   25.8977  -20.4036  -10.3275 C   0  0  0  0  0  0  0  0  0  0  0  0
   25.2828  -19.3243  -10.0079 O   0  0  0  0  0  0  0  0  0  0  0  0
   26.4013  -21.1575   -9.2396 N   0  0  0  0  0  0  0  0  0  0  0  0
   26.3898  -20.5871   -7.9281 C   0  0  1  0  0  0  0  0  0  0  0  0
   26.8751  -21.6947   -6.9824 C   0  0  0  0  0  0  0  0  0  0  0  0
   27.8836  -21.1511   -6.0549 C   0  0  0  0  0  0  0  0  0  0  0  0
   27.5900  -20.7693   -4.7624 C   0  0  0  0  0  0  0  0  0  0  0  0
   28.5916  -20.2696   -3.9575 C   0  0  0  0  0  0  0  0  0  0  0  0
   29.8816  -20.1439   -4.4189 C   0  0  0  0  0  0  0  0  0  0  0  0
   30.1653  -20.5264   -5.7071 C   0  0  0  0  0  0  0  0  0  0  0  0
   29.1795  -21.0274   -6.5260 C   0  0  0  0  0  0  0  0  0  0  0  0
   27.2434  -19.4056   -7.7758 C   0  0  0  0  0  0  0  0  0  0  0  0
   27.0177  -18.3807   -6.8830 O   0  0  0  0  0  0  0  0  0  0  0  0
   28.2800  -19.2757   -8.5023 O   0  0  0  0  0  0  0  0  0  0  0  0
  2  1  1  0
  3  2  1  0
  3  4  1  1
  5  6  1  6
  5  3  1  0
  7  5  1  0
  8  7  2  0
 10  9  1  1
 10 12  1  0
 11 10  1  0
 13 12  1  6
 13 14  1  0
 14  7  1  0
 15 13  1  0
 15 17  1  0
 16 15  2  0
 18 26  1  0
 18 19  1  1
 18 17  1  0
 20 19  1  0
 20 25  2  0
 21 20  1  0
 22 21  2  0
 22 23  1  0
 23 24  2  0
 24 25  1  0
 26 27  1  0
 28 26  2  0
M  END
$$$$
