ILF.pdb
     RDKit          3D

 28 28  0  0  1  0  0  0  0  0999 V2000
   23.5201  -11.9426  -20.2848 C   0  0  0  0  0  0  0  0  0  0  0  0
   22.5278  -12.4922  -19.3116 C   0  0  0  0  0  0  0  0  0  0  0  0
   21.5390  -11.4622  -18.8307 C   0  0  2  0  0  0  0  0  0  0  0  0
   22.3554  -10.4272  -18.0752 C   0  0  0  0  0  0  0  0  0  0  0  0
   20.5090  -12.1101  -17.9872 C   0  0  2  0  0  0  0  0  0  0  0  0
   19.9531  -13.2633  -18.6470 N   0  0  0  0  0  0  0  0  0  0  0  0
   19.4349  -11.1912  -17.5360 C   0  0  0  0  0  0  0  0  0  0  0  0
   18.6383  -10.6333  -18.3252 O   0  0  0  0  0  0  0  0  0  0  0  0
   14.8275  -11.5761  -15.9698 C   0  0  0  0  0  0  0  0  0  0  0  0
   15.9885  -10.7305  -16.5772 C   0  0  1  0  0  0  0  0  0  0  0  0
   15.3678   -9.3928  -16.8416 C   0  0  0  0  0  0  0  0  0  0  0  0
   17.0615  -10.7690  -15.5632 C   0  0  0  0  0  0  0  0  0  0  0  0
   18.2781   -9.9230  -15.7155 C   0  0  2  0  0  0  0  0  0  0  0  0
   19.3061  -10.9355  -16.1612 N   0  0  0  0  0  0  0  0  0  0  0  0
   18.7966   -9.3407  -14.4829 C   0  0  0  0  0  0  0  0  0  0  0  0
   19.0371  -10.1486  -13.5161 O   0  0  0  0  0  0  0  0  0  0  0  0
   19.0830   -7.9792  -14.2188 N   0  0  0  0  0  0  0  0  0  0  0  0
   19.6393   -7.6140  -12.9527 C   0  0  1  0  0  0  0  0  0  0  0  0
   21.1489   -7.4594  -13.1845 C   0  0  0  0  0  0  0  0  0  0  0  0
   21.3956   -6.3775  -14.1548 C   0  0  0  0  0  0  0  0  0  0  0  0
   20.8735   -6.3774  -15.4315 C   0  0  0  0  0  0  0  0  0  0  0  0
   21.1519   -5.3264  -16.2792 C   0  0  0  0  0  0  0  0  0  0  0  0
   21.9421   -4.2748  -15.8761 C   0  0  0  0  0  0  0  0  0  0  0  0
   22.4579   -4.2829  -14.6033 C   0  0  0  0  0  0  0  0  0  0  0  0
   22.1916   -5.3227  -13.7423 C   0  0  0  0  0  0  0  0  0  0  0  0
   19.1010   -6.3714  -12.3923 C   0  0  0  0  0  0  0  0  0  0  0  0
   18.1327   -5.5932  -12.9884 O   0  0  0  0  0  0  0  0  0  0  0  0
   19.5320   -5.9422  -11.2747 O   0  0  0  0  0  0  0  0  0  0  0  0
  2  1  1  0
  3  2  1  0
  3  4  1  1
  5  6  1  6
  5  3  1  0
  7  5  1  0
  8  7  2  0
 10  9  1  1
 10 12  1  0
 11 10  1  0
 13 12  1  1
 13 14  1  0
 14  7  1  0
 15 13  1  0
 15 17  1  0
 16 15  2  0
 18 26  1  0
 18 19  1  6
 18 17  1  0
 20 19  1  0
 20 25  2  0
 21 20  1  0
 22 21  2  0
 22 23  1  0
 23 24  2  0
 24 25  1  0
 26 27  1  0
 28 26  2  0
M  END
$$$$
