ILF.pdb
     RDKit          3D

 28 28  0  0  1  0  0  0  0  0999 V2000
   19.4298  -20.4767  -14.4017 C   0  0  0  0  0  0  0  0  0  0  0  0
   20.4701  -19.6858  -13.6763 C   0  0  0  0  0  0  0  0  0  0  0  0
   21.6769  -20.5040  -13.2971 C   0  0  2  0  0  0  0  0  0  0  0  0
   21.7299  -20.4828  -11.7788 C   0  0  0  0  0  0  0  0  0  0  0  0
   22.8897  -19.9302  -13.9233 C   0  0  2  0  0  0  0  0  0  0  0  0
   22.7510  -19.8698  -15.3555 N   0  0  0  0  0  0  0  0  0  0  0  0
   24.1473  -20.6200  -13.5434 C   0  0  0  0  0  0  0  0  0  0  0  0
   24.4055  -21.7998  -13.8755 O   0  0  0  0  0  0  0  0  0  0  0  0
   28.7832  -19.0413  -14.8665 C   0  0  0  0  0  0  0  0  0  0  0  0
   27.5622  -19.9506  -14.5288 C   0  0  1  0  0  0  0  0  0  0  0  0
   27.9481  -21.2957  -15.0642 C   0  0  0  0  0  0  0  0  0  0  0  0
   27.4008  -19.8470  -13.0645 C   0  0  0  0  0  0  0  0  0  0  0  0
   26.3521  -20.6368  -12.3604 C   0  0  2  0  0  0  0  0  0  0  0  0
   25.0908  -19.9177  -12.7762 N   0  0  0  0  0  0  0  0  0  0  0  0
   26.3892  -20.5721  -10.9038 C   0  0  0  0  0  0  0  0  0  0  0  0
   26.1043  -19.4431  -10.3659 O   0  0  0  0  0  0  0  0  0  0  0  0
   26.6927  -21.6154   -9.9955 N   0  0  0  0  0  0  0  0  0  0  0  0
   26.7513  -21.3292   -8.5954 C   0  0  1  0  0  0  0  0  0  0  0  0
   27.8770  -20.2998   -8.4223 C   0  0  0  0  0  0  0  0  0  0  0  0
   28.1709  -20.1196   -6.9891 C   0  0  0  0  0  0  0  0  0  0  0  0
   28.8410  -21.0591   -6.2337 C   0  0  0  0  0  0  0  0  0  0  0  0
   29.0767  -20.8142   -4.8977 C   0  0  0  0  0  0  0  0  0  0  0  0
   28.6557  -19.6482   -4.3011 C   0  0  0  0  0  0  0  0  0  0  0  0
   27.9891  -18.7180   -5.0604 C   0  0  0  0  0  0  0  0  0  0  0  0
   27.7443  -18.9439   -6.3955 C   0  0  0  0  0  0  0  0  0  0  0  0
   25.5077  -20.7922   -8.0362 C   0  0  0  0  0  0  0  0  0  0  0  0
   24.9215  -21.2202   -6.8649 O   0  0  0  0  0  0  0  0  0  0  0  0
   24.8899  -19.8612   -8.6450 O   0  0  0  0  0  0  0  0  0  0  0  0
  2  1  1  0
  3  2  1  0
  3  4  1  1
  5  6  1  6
  5  3  1  0
  7  5  1  0
  8  7  2  0
 10  9  1  1
 10 12  1  0
 11 10  1  0
 13 12  1  6
 13 14  1  0
 14  7  1  0
 15 13  1  0
 15 17  1  0
 16 15  2  0
 18 26  1  0
 18 19  1  6
 18 17  1  0
 20 19  1  0
 20 25  2  0
 21 20  1  0
 22 21  2  0
 22 23  1  0
 23 24  2  0
 24 25  1  0
 26 27  1  0
 28 26  2  0
M  END
$$$$
