ILF.pdb
     RDKit          3D

 28 28  0  0  1  0  0  0  0  0999 V2000
   21.9090  -16.0127  -17.6561 C   0  0  0  0  0  0  0  0  0  0  0  0
   22.8210  -17.1965  -17.6283 C   0  0  0  0  0  0  0  0  0  0  0  0
   24.0828  -16.9520  -16.8423 C   0  0  2  0  0  0  0  0  0  0  0  0
   24.7598  -15.7652  -17.5068 C   0  0  0  0  0  0  0  0  0  0  0  0
   24.9227  -18.1713  -16.8488 C   0  0  2  0  0  0  0  0  0  0  0  0
   25.1720  -18.6186  -18.1949 N   0  0  0  0  0  0  0  0  0  0  0  0
   24.3864  -19.2763  -16.0162 C   0  0  0  0  0  0  0  0  0  0  0  0
   23.8478  -20.2973  -16.5024 O   0  0  0  0  0  0  0  0  0  0  0  0
   25.4368  -22.5575  -12.0524 C   0  0  0  0  0  0  0  0  0  0  0  0
   24.8831  -21.2099  -11.4965 C   0  0  1  0  0  0  0  0  0  0  0  0
   25.7410  -20.9267  -10.3013 C   0  0  0  0  0  0  0  0  0  0  0  0
   24.9881  -20.2593  -12.6218 C   0  0  0  0  0  0  0  0  0  0  0  0
   24.0578  -20.3528  -13.7815 C   0  0  2  0  0  0  0  0  0  0  0  0
   24.4872  -19.1720  -14.6195 N   0  0  0  0  0  0  0  0  0  0  0  0
   22.6484  -20.1359  -13.4751 C   0  0  0  0  0  0  0  0  0  0  0  0
   22.3436  -19.0323  -12.8971 O   0  0  0  0  0  0  0  0  0  0  0  0
   21.5576  -20.9965  -13.7493 N   0  0  0  0  0  0  0  0  0  0  0  0
   20.2362  -20.5899  -13.3828 C   0  0  1  0  0  0  0  0  0  0  0  0
   19.9117  -19.3720  -14.2591 C   0  0  0  0  0  0  0  0  0  0  0  0
   19.4741  -19.8209  -15.5932 C   0  0  0  0  0  0  0  0  0  0  0  0
   20.3320  -20.3744  -16.5206 C   0  0  0  0  0  0  0  0  0  0  0  0
   19.8432  -20.7693  -17.7476 C   0  0  0  0  0  0  0  0  0  0  0  0
   18.5130  -20.6219  -18.0666 C   0  0  0  0  0  0  0  0  0  0  0  0
   17.6656  -20.0699  -17.1374 C   0  0  0  0  0  0  0  0  0  0  0  0
   18.1343  -19.6695  -15.9072 C   0  0  0  0  0  0  0  0  0  0  0  0
   19.2116  -21.6194  -13.5778 C   0  0  0  0  0  0  0  0  0  0  0  0
   17.8799  -21.4765  -13.2542 O   0  0  0  0  0  0  0  0  0  0  0  0
   19.5317  -22.7440  -14.0797 O   0  0  0  0  0  0  0  0  0  0  0  0
  2  1  1  0
  3  2  1  0
  3  4  1  6
  5  6  1  6
  5  3  1  0
  7  5  1  0
  8  7  2  0
 10  9  1  6
 10 12  1  0
 11 10  1  0
 13 12  1  1
 13 14  1  0
 14  7  1  0
 15 13  1  0
 15 17  1  0
 16 15  2  0
 18 26  1  0
 18 19  1  6
 18 17  1  0
 20 19  1  0
 20 25  2  0
 21 20  1  0
 22 21  2  0
 22 23  1  0
 23 24  2  0
 24 25  1  0
 26 27  1  0
 28 26  2  0
M  END
$$$$
