ILF.pdb
     RDKit          3D

 28 28  0  0  1  0  0  0  0  0999 V2000
   21.3147  -18.9888  -16.0292 C   0  0  0  0  0  0  0  0  0  0  0  0
   21.6486  -19.2155  -14.5901 C   0  0  0  0  0  0  0  0  0  0  0  0
   22.9449  -19.9577  -14.3940 C   0  0  2  0  0  0  0  0  0  0  0  0
   22.8095  -21.2433  -15.1922 C   0  0  0  0  0  0  0  0  0  0  0  0
   23.1731  -20.1976  -12.9509 C   0  0  2  0  0  0  0  0  0  0  0  0
   23.1416  -18.9620  -12.2116 N   0  0  0  0  0  0  0  0  0  0  0  0
   24.4125  -20.9580  -12.6555 C   0  0  0  0  0  0  0  0  0  0  0  0
   24.5349  -22.1818  -12.8924 O   0  0  0  0  0  0  0  0  0  0  0  0
   29.0745  -19.1894  -14.1357 C   0  0  0  0  0  0  0  0  0  0  0  0
   27.8753  -20.1464  -13.8568 C   0  0  1  0  0  0  0  0  0  0  0  0
   28.2237  -21.3975  -14.6040 C   0  0  0  0  0  0  0  0  0  0  0  0
   27.8069  -20.2561  -12.3857 C   0  0  0  0  0  0  0  0  0  0  0  0
   26.7370  -21.0633  -11.7354 C   0  0  2  0  0  0  0  0  0  0  0  0
   25.4976  -20.2739  -12.0841 N   0  0  0  0  0  0  0  0  0  0  0  0
   26.7849  -21.1122  -10.2785 C   0  0  0  0  0  0  0  0  0  0  0  0
   27.9377  -20.9832   -9.7314 O   0  0  0  0  0  0  0  0  0  0  0  0
   25.7033  -21.2747   -9.3789 N   0  0  0  0  0  0  0  0  0  0  0  0
   25.9279  -21.1049   -7.9766 C   0  0  1  0  0  0  0  0  0  0  0  0
   26.4877  -19.6855   -7.8082 C   0  0  0  0  0  0  0  0  0  0  0  0
   27.4295  -19.6529   -6.6746 C   0  0  0  0  0  0  0  0  0  0  0  0
   28.6954  -19.1123   -6.7624 C   0  0  0  0  0  0  0  0  0  0  0  0
   29.5160  -19.1208   -5.6547 C   0  0  0  0  0  0  0  0  0  0  0  0
   29.0965  -19.6592   -4.4601 C   0  0  0  0  0  0  0  0  0  0  0  0
   27.8345  -20.1954   -4.3814 C   0  0  0  0  0  0  0  0  0  0  0  0
   27.0005  -20.1964   -5.4758 C   0  0  0  0  0  0  0  0  0  0  0  0
   24.7277  -21.2583   -7.1498 C   0  0  0  0  0  0  0  0  0  0  0  0
   24.7314  -21.5038   -5.7939 O   0  0  0  0  0  0  0  0  0  0  0  0
   23.5759  -21.1661   -7.6826 O   0  0  0  0  0  0  0  0  0  0  0  0
  2  1  1  0
  3  2  1  0
  3  4  1  6
  5  6  1  1
  5  3  1  0
  7  5  1  0
  8  7  2  0
 10  9  1  1
 10 12  1  0
 11 10  1  0
 13 12  1  1
 13 14  1  0
 14  7  1  0
 15 13  1  0
 15 17  1  0
 16 15  2  0
 18 26  1  0
 18 19  1  6
 18 17  1  0
 20 19  1  0
 20 25  2  0
 21 20  1  0
 22 21  2  0
 22 23  1  0
 23 24  2  0
 24 25  1  0
 26 27  1  0
 28 26  2  0
M  END
$$$$
