HDA.pdb
     RDKit          3D

 24 24  0  0  1  0  0  0  0  0999 V2000
   22.0894  -11.6239  -18.2708 N   0  0  0  0  0  0  0  0  0  0  0  0
   22.0068  -11.1278  -16.9045 C   0  0  1  0  0  0  0  0  0  0  0  0
   23.4036  -11.0896  -16.3044 C   0  0  0  0  0  0  0  0  0  0  0  0
   23.8938  -12.4800  -16.0958 C   0  0  0  0  0  0  0  0  0  0  0  0
   23.2249  -13.6457  -16.3506 C   0  0  0  0  0  0  0  0  0  0  0  0
   24.0458  -14.6617  -16.0080 N   0  0  0  0  0  0  0  0  0  0  0  0
   25.2042  -14.1618  -15.5483 C   0  0  0  0  0  0  0  0  0  0  0  0
   25.0982  -12.8330  -15.6072 N   0  0  0  0  0  0  0  0  0  0  0  0
   21.4371   -9.7426  -16.9816 C   0  0  0  0  0  0  0  0  0  0  0  0
   21.4760   -9.0508  -18.0298 O   0  0  0  0  0  0  0  0  0  0  0  0
   20.8079   -9.1277  -15.8422 N   0  0  0  0  0  0  0  0  0  0  0  0
   20.2612   -7.8074  -15.9022 C   0  0  1  0  0  0  0  0  0  0  0  0
   18.8737   -7.8794  -15.2327 C   0  0  0  0  0  0  0  0  0  0  0  0
   18.1898   -6.5688  -15.3260 C   0  0  0  0  0  0  0  0  0  0  0  0
   17.6532   -6.0038  -14.3432 O   0  0  0  0  0  0  0  0  0  0  0  0
   21.0631   -6.8171  -15.1421 C   0  0  0  0  0  0  0  0  0  0  0  0
   21.4346   -7.0372  -13.9484 O   0  0  0  0  0  0  0  0  0  0  0  0
   18.1485   -5.9480  -16.5656 O   0  0  0  0  0  0  0  0  0  0  0  0
   22.7446   -3.4532  -15.7995 C   0  0  0  0  0  0  0  0  0  0  0  0
   22.2689   -4.6163  -14.9363 C   0  0  2  0  0  0  0  0  0  0  0  0
   21.4814   -5.5516  -15.6764 N   0  0  0  0  0  0  0  0  0  0  0  0
   21.6697   -4.0900  -13.7183 C   0  0  0  0  0  0  0  0  0  0  0  0
   20.3941   -4.1198  -13.6579 O   0  0  0  0  0  0  0  0  0  0  0  0
   22.3024   -3.5655  -12.6269 O   0  0  0  0  0  0  0  0  0  0  0  0
  2  1  1  6
  2  9  1  0
  3  4  1  0
  3  2  1  0
  4  8  1  0
  5  6  1  0
  5  4  2  0
  6  7  1  0
  7  8  2  0
  9 11  1  0
  9 10  2  0
 11 12  1  0
 12 16  1  0
 13 14  1  0
 12 13  1  1
 14 15  2  0
 16 17  2  0
 16 21  1  0
 18 14  1  0
 20 19  1  6
 20 22  1  0
 21 20  1  0
 22 24  1  0
 23 22  2  0
M  END
$$$$
