HDA.pdb
     RDKit          3D

 24 24  0  0  1  0  0  0  0  0999 V2000
   23.4301  -10.1273  -17.6803 N   0  0  0  0  0  0  0  0  0  0  0  0
   23.2609   -9.1377  -16.6258 C   0  0  1  0  0  0  0  0  0  0  0  0
   24.4858   -8.2372  -16.5882 C   0  0  0  0  0  0  0  0  0  0  0  0
   25.6741   -9.0306  -16.1693 C   0  0  0  0  0  0  0  0  0  0  0  0
   26.9324   -8.9911  -16.7044 C   0  0  0  0  0  0  0  0  0  0  0  0
   27.6866   -9.8782  -16.0206 N   0  0  0  0  0  0  0  0  0  0  0  0
   26.9343  -10.4674  -15.0770 C   0  0  0  0  0  0  0  0  0  0  0  0
   25.7119   -9.9423  -15.1786 N   0  0  0  0  0  0  0  0  0  0  0  0
   22.0403   -8.3391  -16.9748 C   0  0  0  0  0  0  0  0  0  0  0  0
   21.7073   -8.0931  -18.1611 O   0  0  0  0  0  0  0  0  0  0  0  0
   21.1768   -7.8073  -15.9531 N   0  0  0  0  0  0  0  0  0  0  0  0
   20.0071   -7.0488  -16.2724 C   0  0  1  0  0  0  0  0  0  0  0  0
   18.9333   -7.4482  -15.2400 C   0  0  0  0  0  0  0  0  0  0  0  0
   18.3032   -8.7323  -15.6247 C   0  0  0  0  0  0  0  0  0  0  0  0
   18.2426   -9.1385  -16.8098 O   0  0  0  0  0  0  0  0  0  0  0  0
   20.2165   -5.5856  -16.1424 C   0  0  0  0  0  0  0  0  0  0  0  0
   20.6521   -5.0687  -15.0680 O   0  0  0  0  0  0  0  0  0  0  0  0
   17.7582   -9.5127  -14.6160 O   0  0  0  0  0  0  0  0  0  0  0  0
   19.7320   -2.4646  -18.2945 C   0  0  0  0  0  0  0  0  0  0  0  0
   19.9626   -3.2307  -16.9967 C   0  0  2  0  0  0  0  0  0  0  0  0
   19.9520   -4.6460  -17.1956 N   0  0  0  0  0  0  0  0  0  0  0  0
   19.0621   -2.7162  -15.9750 C   0  0  0  0  0  0  0  0  0  0  0  0
   17.9707   -3.3589  -15.8084 O   0  0  0  0  0  0  0  0  0  0  0  0
   19.2376   -1.6277  -15.1682 O   0  0  0  0  0  0  0  0  0  0  0  0
  2  1  1  6
  2  9  1  0
  3  4  1  0
  3  2  1  0
  4  8  1  0
  5  6  1  0
  5  4  2  0
  6  7  1  0
  7  8  2  0
  9 11  1  0
  9 10  2  0
 11 12  1  0
 12 16  1  0
 13 14  1  0
 12 13  1  1
 14 15  2  0
 16 17  2  0
 16 21  1  0
 18 14  1  0
 20 19  1  6
 20 22  1  0
 21 20  1  0
 22 24  1  0
 23 22  2  0
M  END
$$$$
