HDA.pdb
     RDKit          3D

 24 24  0  0  1  0  0  0  0  0999 V2000
   17.9711  -12.3488  -16.6233 N   0  0  0  0  0  0  0  0  0  0  0  0
   17.6844  -10.9226  -16.6827 C   0  0  1  0  0  0  0  0  0  0  0  0
   16.6406  -10.5813  -15.6307 C   0  0  0  0  0  0  0  0  0  0  0  0
   15.3131  -11.1015  -16.0598 C   0  0  0  0  0  0  0  0  0  0  0  0
   14.3554  -10.4447  -16.7828 C   0  0  0  0  0  0  0  0  0  0  0  0
   13.3162  -11.2933  -16.9352 N   0  0  0  0  0  0  0  0  0  0  0  0
   13.5998  -12.4572  -16.3286 C   0  0  0  0  0  0  0  0  0  0  0  0
   14.8180  -12.3268  -15.7999 N   0  0  0  0  0  0  0  0  0  0  0  0
   18.9709  -10.2107  -16.3871 C   0  0  0  0  0  0  0  0  0  0  0  0
   19.7878  -10.6172  -15.5232 O   0  0  0  0  0  0  0  0  0  0  0  0
   19.3396   -9.0091  -17.0889 N   0  0  0  0  0  0  0  0  0  0  0  0
   20.6160   -8.3899  -16.9074 C   0  0  1  0  0  0  0  0  0  0  0  0
   20.8316   -7.4702  -18.1265 C   0  0  0  0  0  0  0  0  0  0  0  0
   21.1739   -8.2743  -19.3224 C   0  0  0  0  0  0  0  0  0  0  0  0
   21.7754   -9.3732  -19.2607 O   0  0  0  0  0  0  0  0  0  0  0  0
   20.6734   -7.5331  -15.6973 C   0  0  0  0  0  0  0  0  0  0  0  0
   19.7710   -6.6769  -15.4448 O   0  0  0  0  0  0  0  0  0  0  0  0
   20.8056   -7.7763  -20.5634 O   0  0  0  0  0  0  0  0  0  0  0  0
   22.4074   -7.5073  -12.3711 C   0  0  0  0  0  0  0  0  0  0  0  0
   21.7487   -6.7912  -13.5448 C   0  0  2  0  0  0  0  0  0  0  0  0
   21.7296   -7.5950  -14.7264 N   0  0  0  0  0  0  0  0  0  0  0  0
   22.3299   -5.4630  -13.6776 C   0  0  0  0  0  0  0  0  0  0  0  0
   23.0624   -5.2673  -14.7056 O   0  0  0  0  0  0  0  0  0  0  0  0
   22.1902   -4.3946  -12.8376 O   0  0  0  0  0  0  0  0  0  0  0  0
  2  1  1  1
  2  9  1  0
  3  4  1  0
  3  2  1  0
  4  8  1  0
  5  6  1  0
  5  4  2  0
  6  7  1  0
  7  8  2  0
  9 11  1  0
  9 10  2  0
 11 12  1  0
 12 16  1  0
 13 14  1  0
 12 13  1  6
 14 15  2  0
 16 17  2  0
 16 21  1  0
 18 14  1  0
 20 19  1  1
 20 22  1  0
 21 20  1  0
 22 24  1  0
 23 22  2  0
M  END
$$$$
