HDA.pdb
     RDKit          3D

 24 24  0  0  1  0  0  0  0  0999 V2000
   19.3766  -10.8574  -15.1467 N   0  0  0  0  0  0  0  0  0  0  0  0
   18.8058   -9.6846  -15.7936 C   0  0  1  0  0  0  0  0  0  0  0  0
   17.2888   -9.7821  -15.7504 C   0  0  0  0  0  0  0  0  0  0  0  0
   16.8391  -10.9215  -16.5968 C   0  0  0  0  0  0  0  0  0  0  0  0
   16.3984  -12.1469  -16.1777 C   0  0  0  0  0  0  0  0  0  0  0  0
   16.1024  -12.8653  -17.2821 N   0  0  0  0  0  0  0  0  0  0  0  0
   16.3461  -12.1230  -18.3741 C   0  0  0  0  0  0  0  0  0  0  0  0
   16.7939  -10.9424  -17.9427 N   0  0  0  0  0  0  0  0  0  0  0  0
   19.2715   -8.4914  -15.0133 C   0  0  0  0  0  0  0  0  0  0  0  0
   19.5423   -8.5464  -13.7875 O   0  0  0  0  0  0  0  0  0  0  0  0
   19.4341   -7.2051  -15.6389 N   0  0  0  0  0  0  0  0  0  0  0  0
   19.9226   -6.0708  -14.9177 C   0  0  1  0  0  0  0  0  0  0  0  0
   21.3260   -6.4519  -14.4044 C   0  0  0  0  0  0  0  0  0  0  0  0
   21.9093   -5.3347  -13.6262 C   0  0  0  0  0  0  0  0  0  0  0  0
   23.0376   -4.8444  -13.8705 O   0  0  0  0  0  0  0  0  0  0  0  0
   20.0810   -4.8690  -15.7735 C   0  0  0  0  0  0  0  0  0  0  0  0
   20.8886   -4.8513  -16.7527 O   0  0  0  0  0  0  0  0  0  0  0  0
   21.1610   -4.8157  -12.5800 O   0  0  0  0  0  0  0  0  0  0  0  0
   18.4393   -1.4414  -16.1350 C   0  0  0  0  0  0  0  0  0  0  0  0
   19.4688   -2.5215  -16.4475 C   0  0  2  0  0  0  0  0  0  0  0  0
   19.3519   -3.6479  -15.5756 N   0  0  0  0  0  0  0  0  0  0  0  0
   20.7868   -1.9097  -16.5375 C   0  0  0  0  0  0  0  0  0  0  0  0
   20.9214   -0.9836  -17.4070 O   0  0  0  0  0  0  0  0  0  0  0  0
   21.9031   -2.2024  -15.8062 O   0  0  0  0  0  0  0  0  0  0  0  0
  2  1  1  1
  2  9  1  0
  3  4  1  0
  3  2  1  0
  4  8  1  0
  5  6  1  0
  5  4  2  0
  6  7  1  0
  7  8  2  0
  9 11  1  0
  9 10  2  0
 11 12  1  0
 12 16  1  0
 13 14  1  0
 12 13  1  6
 14 15  2  0
 16 17  2  0
 16 21  1  0
 18 14  1  0
 20 19  1  1
 20 22  1  0
 21 20  1  0
 22 24  1  0
 23 22  2  0
M  END
$$$$
