HDA.pdb
     RDKit          3D

 24 24  0  0  1  0  0  0  0  0999 V2000
   22.9657  -34.2330  -11.5276 N   0  0  0  0  0  0  0  0  0  0  0  0
   23.1109  -33.1180  -10.6028 C   0  0  1  0  0  0  0  0  0  0  0  0
   21.7833  -32.3840  -10.4967 C   0  0  0  0  0  0  0  0  0  0  0  0
   21.5342  -31.6222  -11.7516 C   0  0  0  0  0  0  0  0  0  0  0  0
   20.6868  -31.9540  -12.7728 C   0  0  0  0  0  0  0  0  0  0  0  0
   20.7838  -30.9824  -13.7056 N   0  0  0  0  0  0  0  0  0  0  0  0
   21.6659  -30.0574  -13.2941 C   0  0  0  0  0  0  0  0  0  0  0  0
   22.1150  -30.4591  -12.1036 N   0  0  0  0  0  0  0  0  0  0  0  0
   23.4870  -33.7046   -9.2747 C   0  0  0  0  0  0  0  0  0  0  0  0
   23.1129  -34.8465   -8.9074 O   0  0  0  0  0  0  0  0  0  0  0  0
   24.3075  -32.9783   -8.3411 N   0  0  0  0  0  0  0  0  0  0  0  0
   24.6911  -33.5346   -7.0807 C   0  0  1  0  0  0  0  0  0  0  0  0
   25.9975  -32.8252   -6.6705 C   0  0  0  0  0  0  0  0  0  0  0  0
   26.5214  -33.4017   -5.4107 C   0  0  0  0  0  0  0  0  0  0  0  0
   26.9706  -32.7024   -4.4713 O   0  0  0  0  0  0  0  0  0  0  0  0
   23.6971  -33.2745   -6.0102 C   0  0  0  0  0  0  0  0  0  0  0  0
   23.2954  -32.0995   -5.7464 O   0  0  0  0  0  0  0  0  0  0  0  0
   26.5086  -34.7822   -5.2770 O   0  0  0  0  0  0  0  0  0  0  0  0
   21.3356  -35.2494   -3.7974 C   0  0  0  0  0  0  0  0  0  0  0  0
   22.1858  -34.0325   -4.1444 C   0  0  2  0  0  0  0  0  0  0  0  0
   23.1141  -34.3041   -5.1966 N   0  0  0  0  0  0  0  0  0  0  0  0
   22.7438  -33.4781   -2.9193 C   0  0  0  0  0  0  0  0  0  0  0  0
   23.9934  -33.6661   -2.7321 O   0  0  0  0  0  0  0  0  0  0  0  0
   22.0967  -32.7790   -1.9399 O   0  0  0  0  0  0  0  0  0  0  0  0
  2  1  1  6
  2  9  1  0
  3  4  1  0
  3  2  1  0
  4  8  1  0
  5  6  1  0
  5  4  2  0
  6  7  1  0
  7  8  2  0
  9 11  1  0
  9 10  2  0
 11 12  1  0
 12 16  1  0
 13 14  1  0
 12 13  1  1
 14 15  2  0
 16 17  2  0
 16 21  1  0
 18 14  1  0
 20 19  1  1
 20 22  1  0
 21 20  1  0
 22 24  1  0
 23 22  2  0
M  END
$$$$
