HDA.pdb
     RDKit          3D

 24 24  0  0  1  0  0  0  0  0999 V2000
   17.6456  -10.0881  -16.7555 N   0  0  0  0  0  0  0  0  0  0  0  0
   17.6698  -10.1513  -15.3011 C   0  0  1  0  0  0  0  0  0  0  0  0
   18.6482  -11.2315  -14.8669 C   0  0  0  0  0  0  0  0  0  0  0  0
   18.1630  -12.5594  -15.3340 C   0  0  0  0  0  0  0  0  0  0  0  0
   17.2117  -13.3507  -14.7506 C   0  0  0  0  0  0  0  0  0  0  0  0
   17.0955  -14.4622  -15.5085 N   0  0  0  0  0  0  0  0  0  0  0  0
   17.9458  -14.3848  -16.5449 C   0  0  0  0  0  0  0  0  0  0  0  0
   18.5892  -13.2219  -16.4265 N   0  0  0  0  0  0  0  0  0  0  0  0
   18.1313   -8.8086  -14.8180 C   0  0  0  0  0  0  0  0  0  0  0  0
   18.2951   -8.5456  -13.6003 O   0  0  0  0  0  0  0  0  0  0  0  0
   18.4142   -7.7387  -15.7387 N   0  0  0  0  0  0  0  0  0  0  0  0
   18.8656   -6.4573  -15.2920 C   0  0  1  0  0  0  0  0  0  0  0  0
   20.0810   -6.0933  -16.1686 C   0  0  0  0  0  0  0  0  0  0  0  0
   21.3138   -6.6998  -15.6150 C   0  0  0  0  0  0  0  0  0  0  0  0
   21.7195   -6.4846  -14.4478 O   0  0  0  0  0  0  0  0  0  0  0  0
   17.8521   -5.3907  -15.4844 C   0  0  0  0  0  0  0  0  0  0  0  0
   17.3218   -5.1732  -16.6170 O   0  0  0  0  0  0  0  0  0  0  0  0
   22.0446   -7.5441  -16.4377 O   0  0  0  0  0  0  0  0  0  0  0  0
   15.7303   -3.1019  -13.3285 C   0  0  0  0  0  0  0  0  0  0  0  0
   16.4056   -3.5145  -14.6315 C   0  0  2  0  0  0  0  0  0  0  0  0
   17.3911   -4.5301  -14.4314 N   0  0  0  0  0  0  0  0  0  0  0  0
   16.8450   -2.3197  -15.3379 C   0  0  0  0  0  0  0  0  0  0  0  0
   15.9282   -1.5038  -15.6921 O   0  0  0  0  0  0  0  0  0  0  0  0
   18.1200   -1.9594  -15.6715 O   0  0  0  0  0  0  0  0  0  0  0  0
  2  1  1  6
  2  9  1  0
  3  4  1  0
  3  2  1  0
  4  8  1  0
  5  6  1  0
  5  4  2  0
  6  7  1  0
  7  8  2  0
  9 11  1  0
  9 10  2  0
 11 12  1  0
 12 16  1  0
 13 14  1  0
 12 13  1  6
 14 15  2  0
 16 17  2  0
 16 21  1  0
 18 14  1  0
 20 19  1  1
 20 22  1  0
 21 20  1  0
 22 24  1  0
 23 22  2  0
M  END
$$$$
