HDA.pdb
     RDKit          3D

 24 24  0  0  1  0  0  0  0  0999 V2000
   19.7556  -11.9279  -16.3026 N   0  0  0  0  0  0  0  0  0  0  0  0
   20.5104  -11.2387  -17.3394 C   0  0  1  0  0  0  0  0  0  0  0  0
   19.9885  -11.6673  -18.7020 C   0  0  0  0  0  0  0  0  0  0  0  0
   20.2831  -13.1110  -18.9161 C   0  0  0  0  0  0  0  0  0  0  0  0
   21.4756  -13.6719  -19.2833 C   0  0  0  0  0  0  0  0  0  0  0  0
   21.2826  -15.0059  -19.3644 N   0  0  0  0  0  0  0  0  0  0  0  0
   20.0063  -15.2901  -19.0587 C   0  0  0  0  0  0  0  0  0  0  0  0
   19.4094  -14.1279  -18.7879 N   0  0  0  0  0  0  0  0  0  0  0  0
   20.2832   -9.7703  -17.1353 C   0  0  0  0  0  0  0  0  0  0  0  0
   20.7284   -8.8992  -17.9239 O   0  0  0  0  0  0  0  0  0  0  0  0
   19.5327   -9.2786  -16.0095 N   0  0  0  0  0  0  0  0  0  0  0  0
   19.3756   -7.8792  -15.7597 C   0  0  1  0  0  0  0  0  0  0  0  0
   18.1678   -7.7387  -14.8111 C   0  0  0  0  0  0  0  0  0  0  0  0
   16.9064   -7.9938  -15.5444 C   0  0  0  0  0  0  0  0  0  0  0  0
   16.7020   -7.5962  -16.7163 O   0  0  0  0  0  0  0  0  0  0  0  0
   20.5459   -7.2827  -15.0695 C   0  0  0  0  0  0  0  0  0  0  0  0
   21.0877   -7.8471  -14.0699 O   0  0  0  0  0  0  0  0  0  0  0  0
   15.9123   -8.7077  -14.8918 O   0  0  0  0  0  0  0  0  0  0  0  0
   22.9710   -4.4113  -15.6990 C   0  0  0  0  0  0  0  0  0  0  0  0
   22.3788   -5.5649  -14.8974 C   0  0  2  0  0  0  0  0  0  0  0  0
   21.1560   -6.0433  -15.4617 N   0  0  0  0  0  0  0  0  0  0  0  0
   22.3380   -5.1938  -13.4902 C   0  0  0  0  0  0  0  0  0  0  0  0
   21.2103   -4.7917  -13.0446 O   0  0  0  0  0  0  0  0  0  0  0  0
   23.3582   -5.2213  -12.5819 O   0  0  0  0  0  0  0  0  0  0  0  0
  2  1  1  1
  2  9  1  0
  3  4  1  0
  3  2  1  0
  4  8  1  0
  5  6  1  0
  5  4  2  0
  6  7  1  0
  7  8  2  0
  9 11  1  0
  9 10  2  0
 11 12  1  0
 12 16  1  0
 13 14  1  0
 12 13  1  1
 14 15  2  0
 16 17  2  0
 16 21  1  0
 18 14  1  0
 20 19  1  6
 20 22  1  0
 21 20  1  0
 22 24  1  0
 23 22  2  0
M  END
$$$$
