HDA.pdb
     RDKit          3D

 24 24  0  0  1  0  0  0  0  0999 V2000
   18.0070  -12.3627  -15.7457 N   0  0  0  0  0  0  0  0  0  0  0  0
   18.4285  -11.2775  -16.6201 C   0  0  1  0  0  0  0  0  0  0  0  0
   17.3989  -11.1014  -17.7253 C   0  0  0  0  0  0  0  0  0  0  0  0
   17.4649  -12.2614  -18.6564 C   0  0  0  0  0  0  0  0  0  0  0  0
   18.1834  -12.3581  -19.8165 C   0  0  0  0  0  0  0  0  0  0  0  0
   17.9419  -13.5806  -20.3365 N   0  0  0  0  0  0  0  0  0  0  0  0
   17.0952  -14.2459  -19.5342 C   0  0  0  0  0  0  0  0  0  0  0  0
   16.8130  -13.4315  -18.5156 N   0  0  0  0  0  0  0  0  0  0  0  0
   18.4968  -10.0418  -15.7728 C   0  0  0  0  0  0  0  0  0  0  0  0
   17.6721   -9.8023  -14.8555 O   0  0  0  0  0  0  0  0  0  0  0  0
   19.5255   -9.0546  -15.9709 N   0  0  0  0  0  0  0  0  0  0  0  0
   19.6397   -7.9035  -15.1298 C   0  0  1  0  0  0  0  0  0  0  0  0
   21.1488   -7.6318  -14.9654 C   0  0  0  0  0  0  0  0  0  0  0  0
   21.3676   -6.4752  -14.0662 C   0  0  0  0  0  0  0  0  0  0  0  0
   20.6795   -6.2657  -13.0386 O   0  0  0  0  0  0  0  0  0  0  0  0
   19.0393   -6.6880  -15.7330 C   0  0  0  0  0  0  0  0  0  0  0  0
   19.3424   -6.3079  -16.9056 O   0  0  0  0  0  0  0  0  0  0  0  0
   22.3853   -5.5895  -14.3881 O   0  0  0  0  0  0  0  0  0  0  0  0
   16.0904   -4.4339  -15.2205 C   0  0  0  0  0  0  0  0  0  0  0  0
   17.5350   -4.6707  -15.6461 C   0  0  2  0  0  0  0  0  0  0  0  0
   18.0840   -5.8532  -15.0604 N   0  0  0  0  0  0  0  0  0  0  0  0
   18.2942   -3.4434  -15.4536 C   0  0  0  0  0  0  0  0  0  0  0  0
   19.2967   -3.5172  -14.6653 O   0  0  0  0  0  0  0  0  0  0  0  0
   18.0686   -2.2171  -16.0120 O   0  0  0  0  0  0  0  0  0  0  0  0
  2  1  1  1
  2  9  1  0
  3  4  1  0
  3  2  1  0
  4  8  1  0
  5  6  1  0
  5  4  2  0
  6  7  1  0
  7  8  2  0
  9 11  1  0
  9 10  2  0
 11 12  1  0
 12 16  1  0
 13 14  1  0
 12 13  1  6
 14 15  2  0
 16 17  2  0
 16 21  1  0
 18 14  1  0
 20 19  1  1
 20 22  1  0
 21 20  1  0
 22 24  1  0
 23 22  2  0
M  END
$$$$
