HDA.pdb
     RDKit          3D

 24 24  0  0  1  0  0  0  0  0999 V2000
   18.0609  -11.8068  -13.9282 N   0  0  0  0  0  0  0  0  0  0  0  0
   16.7895  -11.3630  -13.3748 C   0  0  1  0  0  0  0  0  0  0  0  0
   16.2661  -12.4239  -12.4191 C   0  0  0  0  0  0  0  0  0  0  0  0
   15.7881  -13.6009  -13.1957 C   0  0  0  0  0  0  0  0  0  0  0  0
   14.6549  -13.6919  -13.9566 C   0  0  0  0  0  0  0  0  0  0  0  0
   14.6178  -14.9394  -14.4723 N   0  0  0  0  0  0  0  0  0  0  0  0
   15.6938  -15.6255  -14.0544 C   0  0  0  0  0  0  0  0  0  0  0  0
   16.3975  -14.7992  -13.2783 N   0  0  0  0  0  0  0  0  0  0  0  0
   17.0623  -10.0873  -12.6349 C   0  0  0  0  0  0  0  0  0  0  0  0
   17.9376   -9.9975  -11.7379 O   0  0  0  0  0  0  0  0  0  0  0  0
   16.3245   -8.8845  -12.9199 N   0  0  0  0  0  0  0  0  0  0  0  0
   16.6087   -7.6492  -12.2577 C   0  0  1  0  0  0  0  0  0  0  0  0
   16.4315   -6.5382  -13.3126 C   0  0  0  0  0  0  0  0  0  0  0  0
   16.7471   -5.2161  -12.7242 C   0  0  0  0  0  0  0  0  0  0  0  0
   16.3605   -4.8628  -11.5845 O   0  0  0  0  0  0  0  0  0  0  0  0
   15.6630   -7.3577  -11.1520 C   0  0  0  0  0  0  0  0  0  0  0  0
   14.4065   -7.4391  -11.3124 O   0  0  0  0  0  0  0  0  0  0  0  0
   17.5073   -4.3366  -13.4807 O   0  0  0  0  0  0  0  0  0  0  0  0
   15.8368   -6.8755   -7.3939 C   0  0  0  0  0  0  0  0  0  0  0  0
   15.1562   -6.7786   -8.7546 C   0  0  2  0  0  0  0  0  0  0  0  0
   16.0750   -6.9675   -9.8330 N   0  0  0  0  0  0  0  0  0  0  0  0
   14.3514   -5.5662   -8.7979 C   0  0  0  0  0  0  0  0  0  0  0  0
   14.8457   -4.5830   -9.4466 O   0  0  0  0  0  0  0  0  0  0  0  0
   13.1287   -5.3461   -8.2295 O   0  0  0  0  0  0  0  0  0  0  0  0
  2  1  1  1
  2  9  1  0
  3  4  1  0
  3  2  1  0
  4  8  1  0
  5  6  1  0
  5  4  2  0
  6  7  1  0
  7  8  2  0
  9 11  1  0
  9 10  2  0
 11 12  1  0
 12 16  1  0
 13 14  1  0
 12 13  1  6
 14 15  2  0
 16 17  2  0
 16 21  1  0
 18 14  1  0
 20 19  1  1
 20 22  1  0
 21 20  1  0
 22 24  1  0
 23 22  2  0
M  END
$$$$
