CNG.pdb
     RDKit          3D

 19 18  0  0  1  0  0  0  0  0999 V2000
   19.1458  -11.6824  -15.4023 N   0  0  0  0  0  0  0  0  0  0  0  0
   19.1086  -10.4184  -16.0691 C   0  0  1  0  0  0  0  0  0  0  0  0
   17.7060   -9.8571  -16.0032 C   0  0  0  0  0  0  0  0  0  0  0  0
   16.5896  -11.0226  -16.8549 S   0  0  0  0  0  0  0  0  0  0  0  0
   20.0733   -9.4456  -15.4722 C   0  0  0  0  0  0  0  0  0  0  0  0
   20.2627   -9.4224  -14.2154 O   0  0  0  0  0  0  0  0  0  0  0  0
   24.2780   -6.2344  -15.6739 N   0  0  0  0  0  0  0  0  0  0  0  0
   24.2296   -7.3750  -16.5461 C   0  0  0  0  0  0  0  0  0  0  0  0
   25.2503   -7.6186  -17.1875 O   0  0  0  0  0  0  0  0  0  0  0  0
   23.0111   -8.1149  -16.5884 C   0  0  0  0  0  0  0  0  0  0  0  0
   21.8132   -7.6570  -15.8026 C   0  0  2  0  0  0  0  0  0  0  0  0
   20.7537   -8.5721  -16.3248 N   0  0  0  0  0  0  0  0  0  0  0  0
   21.3019   -6.3257  -16.1194 C   0  0  0  0  0  0  0  0  0  0  0  0
   20.8284   -6.0828  -17.2952 O   0  0  0  0  0  0  0  0  0  0  0  0
   21.2543   -5.2121  -15.2502 N   0  0  0  0  0  0  0  0  0  0  0  0
   20.7502   -3.9001  -15.7029 C   0  0  0  0  0  0  0  0  0  0  0  0
   20.7017   -3.0164  -14.5230 C   0  0  0  0  0  0  0  0  0  0  0  0
   20.3378   -1.8132  -14.6055 O   0  0  0  0  0  0  0  0  0  0  0  0
   21.0600   -3.5023  -13.2887 O   0  0  0  0  0  0  0  0  0  0  0  0
  2  1  1  1
  3  2  1  0
  3  4  1  0
  5  6  2  0
  5  2  1  0
  7  8  1  0
  8  9  2  0
 10  8  1  0
 11 10  1  6
 11 12  1  0
 12  5  1  0
 13 15  1  0
 13 11  1  0
 14 13  2  0
 16 17  1  0
 16 15  1  0
 17 19  1  0
 18 17  2  0
M  END
$$$$
