CNG.pdb
     RDKit          3D

 19 18  0  0  1  0  0  0  0  0999 V2000
   25.5182  -10.7835  -17.8599 N   0  0  0  0  0  0  0  0  0  0  0  0
   25.1645  -10.1593  -16.6234 C   0  0  1  0  0  0  0  0  0  0  0  0
   26.3946   -9.5303  -16.0086 C   0  0  0  0  0  0  0  0  0  0  0  0
   27.3946  -10.8594  -15.2579 S   0  0  0  0  0  0  0  0  0  0  0  0
   24.1023   -9.1241  -16.8062 C   0  0  0  0  0  0  0  0  0  0  0  0
   24.0672   -8.4245  -17.8670 O   0  0  0  0  0  0  0  0  0  0  0  0
   20.1034  -11.2123  -16.4298 N   0  0  0  0  0  0  0  0  0  0  0  0
   20.4140   -9.8575  -16.7935 C   0  0  0  0  0  0  0  0  0  0  0  0
   20.2840   -9.5650  -17.9810 O   0  0  0  0  0  0  0  0  0  0  0  0
   20.8418   -8.9822  -15.7519 C   0  0  0  0  0  0  0  0  0  0  0  0
   21.9903   -8.0368  -15.9740 C   0  0  2  0  0  0  0  0  0  0  0  0
   23.1595   -8.9488  -15.7897 N   0  0  0  0  0  0  0  0  0  0  0  0
   22.1916   -7.0119  -14.9527 C   0  0  0  0  0  0  0  0  0  0  0  0
   22.6803   -7.3379  -13.8035 O   0  0  0  0  0  0  0  0  0  0  0  0
   21.9068   -5.6328  -15.0746 N   0  0  0  0  0  0  0  0  0  0  0  0
   22.1957   -4.6848  -13.9800 C   0  0  0  0  0  0  0  0  0  0  0  0
   21.8087   -3.3408  -14.4482 C   0  0  0  0  0  0  0  0  0  0  0  0
   21.3795   -3.1392  -15.6152 O   0  0  0  0  0  0  0  0  0  0  0  0
   21.9121   -2.2645  -13.6003 O   0  0  0  0  0  0  0  0  0  0  0  0
  2  1  1  6
  3  2  1  0
  3  4  1  0
  5  6  2  0
  5  2  1  0
  7  8  1  0
  8  9  2  0
 10  8  1  0
 11 10  1  1
 11 12  1  0
 12  5  1  0
 13 15  1  0
 13 11  1  0
 14 13  2  0
 16 17  1  0
 16 15  1  0
 17 19  1  0
 18 17  2  0
M  END
$$$$
