CNG.pdb
     RDKit          3D

 19 18  0  0  1  0  0  0  0  0999 V2000
   25.2085  -18.5685  -16.2741 N   0  0  0  0  0  0  0  0  0  0  0  0
   24.7076  -17.3646  -15.6882 C   0  0  1  0  0  0  0  0  0  0  0  0
   25.6570  -16.2267  -15.9896 C   0  0  0  0  0  0  0  0  0  0  0  0
   27.2616  -16.6067  -15.2080 S   0  0  0  0  0  0  0  0  0  0  0  0
   23.3394  -17.0299  -16.1875 C   0  0  0  0  0  0  0  0  0  0  0  0
   22.9376  -17.4842  -17.3047 O   0  0  0  0  0  0  0  0  0  0  0  0
   20.2932  -18.6232  -13.5186 N   0  0  0  0  0  0  0  0  0  0  0  0
   19.9504  -17.8390  -14.6725 C   0  0  0  0  0  0  0  0  0  0  0  0
   19.3473  -18.4218  -15.5722 O   0  0  0  0  0  0  0  0  0  0  0  0
   20.3381  -16.4665  -14.6696 C   0  0  0  0  0  0  0  0  0  0  0  0
   21.1242  -15.8937  -15.8168 C   0  0  2  0  0  0  0  0  0  0  0  0
   22.5234  -16.2127  -15.4007 N   0  0  0  0  0  0  0  0  0  0  0  0
   21.1265  -14.4378  -15.9367 C   0  0  0  0  0  0  0  0  0  0  0  0
   21.6365  -13.7169  -14.9956 O   0  0  0  0  0  0  0  0  0  0  0  0
   20.6164  -13.6799  -17.0153 N   0  0  0  0  0  0  0  0  0  0  0  0
   20.6722  -12.2044  -17.0170 C   0  0  0  0  0  0  0  0  0  0  0  0
   19.4870  -11.7184  -16.2858 C   0  0  0  0  0  0  0  0  0  0  0  0
   18.6343  -12.5072  -15.7986 O   0  0  0  0  0  0  0  0  0  0  0  0
   19.2904  -10.3684  -16.1210 O   0  0  0  0  0  0  0  0  0  0  0  0
  2  1  1  6
  3  2  1  0
  3  4  1  0
  5  6  2  0
  5  2  1  0
  7  8  1  0
  8  9  2  0
 10  8  1  0
 11 10  1  1
 11 12  1  0
 12  5  1  0
 13 15  1  0
 13 11  1  0
 14 13  2  0
 16 17  1  0
 16 15  1  0
 17 19  1  0
 18 17  2  0
M  END
$$$$
