CNG.pdb
     RDKit          3D

 19 18  0  0  1  0  0  0  0  0999 V2000
   14.4664  -13.5598  -14.7871 N   0  0  0  0  0  0  0  0  0  0  0  0
   15.7763  -12.9874  -14.7729 C   0  0  1  0  0  0  0  0  0  0  0  0
   16.3958  -13.1171  -16.1462 C   0  0  0  0  0  0  0  0  0  0  0  0
   17.0779  -14.8024  -16.3024 S   0  0  0  0  0  0  0  0  0  0  0  0
   15.7517  -11.5512  -14.3606 C   0  0  0  0  0  0  0  0  0  0  0  0
   14.7752  -10.8076  -14.6916 O   0  0  0  0  0  0  0  0  0  0  0  0
   17.1020   -7.4743  -11.2790 N   0  0  0  0  0  0  0  0  0  0  0  0
   16.9807   -8.7862  -10.7062 C   0  0  0  0  0  0  0  0  0  0  0  0
   16.9788   -8.8503   -9.4780 O   0  0  0  0  0  0  0  0  0  0  0  0
   16.8745   -9.8864  -11.6076 C   0  0  0  0  0  0  0  0  0  0  0  0
   16.8106   -9.6525  -13.0920 C   0  0  2  0  0  0  0  0  0  0  0  0
   16.8202  -11.0542  -13.6095 N   0  0  0  0  0  0  0  0  0  0  0  0
   17.9940   -9.0537  -13.7042 C   0  0  0  0  0  0  0  0  0  0  0  0
   19.1195   -9.6848  -13.6781 O   0  0  0  0  0  0  0  0  0  0  0  0
   18.0625   -7.8041  -14.3612 N   0  0  0  0  0  0  0  0  0  0  0  0
   19.3179   -7.3182  -14.9679 C   0  0  0  0  0  0  0  0  0  0  0  0
   20.1032   -6.6741  -13.8984 C   0  0  0  0  0  0  0  0  0  0  0  0
   19.6913   -6.6197  -12.7092 O   0  0  0  0  0  0  0  0  0  0  0  0
   21.3227   -6.1115  -14.1887 O   0  0  0  0  0  0  0  0  0  0  0  0
  2  1  1  6
  3  2  1  0
  3  4  1  0
  5  6  2  0
  5  2  1  0
  7  8  1  0
  8  9  2  0
 10  8  1  0
 11 10  1  1
 11 12  1  0
 12  5  1  0
 13 15  1  0
 13 11  1  0
 14 13  2  0
 16 17  1  0
 16 15  1  0
 17 19  1  0
 18 17  2  0
M  END
$$$$
