CNG.pdb
     RDKit          3D

 19 18  0  0  1  0  0  0  0  0999 V2000
   19.2367  -21.9876  -13.7052 N   0  0  0  0  0  0  0  0  0  0  0  0
   19.5816  -21.8893  -12.3214 C   0  0  1  0  0  0  0  0  0  0  0  0
   20.6554  -20.8393  -12.1450 C   0  0  0  0  0  0  0  0  0  0  0  0
   22.1671  -21.4303  -12.9789 S   0  0  0  0  0  0  0  0  0  0  0  0
   18.3971  -21.5514  -11.4752 C   0  0  0  0  0  0  0  0  0  0  0  0
   17.7623  -20.4670  -11.6677 O   0  0  0  0  0  0  0  0  0  0  0  0
   14.0077  -21.6481  -10.5299 N   0  0  0  0  0  0  0  0  0  0  0  0
   14.5175  -22.8900  -11.0416 C   0  0  0  0  0  0  0  0  0  0  0  0
   13.7599  -23.5388  -11.7613 O   0  0  0  0  0  0  0  0  0  0  0  0
   15.8455  -23.2545  -10.6708 C   0  0  0  0  0  0  0  0  0  0  0  0
   16.6768  -22.3387   -9.8150 C   0  0  2  0  0  0  0  0  0  0  0  0
   18.0114  -22.4508  -10.4776 N   0  0  0  0  0  0  0  0  0  0  0  0
   16.9346  -22.7867   -8.4487 C   0  0  0  0  0  0  0  0  0  0  0  0
   16.0111  -22.6807   -7.5533 O   0  0  0  0  0  0  0  0  0  0  0  0
   18.1322  -23.3568   -7.9601 N   0  0  0  0  0  0  0  0  0  0  0  0
   18.2997  -23.6966   -6.5330 C   0  0  0  0  0  0  0  0  0  0  0  0
   18.3006  -25.1678   -6.4281 C   0  0  0  0  0  0  0  0  0  0  0  0
   18.0994  -25.9077   -7.4275 O   0  0  0  0  0  0  0  0  0  0  0  0
   18.5262  -25.7673   -5.2124 O   0  0  0  0  0  0  0  0  0  0  0  0
  2  1  1  6
  3  2  1  0
  3  4  1  0
  5  6  2  0
  5  2  1  0
  7  8  1  0
  8  9  2  0
 10  8  1  0
 11 10  1  6
 11 12  1  0
 12  5  1  0
 13 15  1  0
 13 11  1  0
 14 13  2  0
 16 17  1  0
 16 15  1  0
 17 19  1  0
 18 17  2  0
M  END
$$$$
