CNG.pdb
     RDKit          3D

 19 18  0  0  1  0  0  0  0  0999 V2000
   19.9196  -11.5848  -17.5870 N   0  0  0  0  0  0  0  0  0  0  0  0
   20.9047  -10.6795  -17.0834 C   0  0  1  0  0  0  0  0  0  0  0  0
   21.8054  -10.2374  -18.2148 C   0  0  0  0  0  0  0  0  0  0  0  0
   22.8623  -11.6499  -18.6816 S   0  0  0  0  0  0  0  0  0  0  0  0
   20.2833   -9.4860  -16.4332 C   0  0  0  0  0  0  0  0  0  0  0  0
   19.3436   -8.8578  -17.0149 O   0  0  0  0  0  0  0  0  0  0  0  0
   17.5723   -9.2433  -14.0812 N   0  0  0  0  0  0  0  0  0  0  0  0
   18.4875   -9.3046  -12.9755 C   0  0  0  0  0  0  0  0  0  0  0  0
   18.1004   -9.9080  -11.9761 O   0  0  0  0  0  0  0  0  0  0  0  0
   19.7519   -8.6647  -13.1364 C   0  0  0  0  0  0  0  0  0  0  0  0
   20.0992   -7.9762  -14.4278 C   0  0  2  0  0  0  0  0  0  0  0  0
   20.7588   -9.0846  -15.1820 N   0  0  0  0  0  0  0  0  0  0  0  0
   21.1347   -6.9484  -14.3549 C   0  0  0  0  0  0  0  0  0  0  0  0
   22.3484   -7.2791  -14.0665 O   0  0  0  0  0  0  0  0  0  0  0  0
   20.9647   -5.5630  -14.5777 N   0  0  0  0  0  0  0  0  0  0  0  0
   22.1093   -4.6305  -14.5526 C   0  0  0  0  0  0  0  0  0  0  0  0
   21.5911   -3.2888  -14.8795 C   0  0  0  0  0  0  0  0  0  0  0  0
   20.3899   -3.0998  -15.2083 O   0  0  0  0  0  0  0  0  0  0  0  0
   22.4287   -2.2006  -14.8291 O   0  0  0  0  0  0  0  0  0  0  0  0
  2  1  1  6
  3  2  1  0
  3  4  1  0
  5  6  2  0
  5  2  1  0
  7  8  1  0
  8  9  2  0
 10  8  1  0
 11 10  1  1
 11 12  1  0
 12  5  1  0
 13 15  1  0
 13 11  1  0
 14 13  2  0
 16 17  1  0
 16 15  1  0
 17 19  1  0
 18 17  2  0
M  END
$$$$
