CNG.pdb
     RDKit          3D

 19 18  0  0  1  0  0  0  0  0999 V2000
   24.1415  -10.5808  -15.9168 N   0  0  0  0  0  0  0  0  0  0  0  0
   22.9209  -10.0030  -16.3856 C   0  0  1  0  0  0  0  0  0  0  0  0
   21.8220  -11.0406  -16.3348 C   0  0  0  0  0  0  0  0  0  0  0  0
   21.9952  -12.1201  -17.7959 S   0  0  0  0  0  0  0  0  0  0  0  0
   22.5268   -8.8063  -15.5818 C   0  0  0  0  0  0  0  0  0  0  0  0
   22.6298   -8.8249  -14.3149 O   0  0  0  0  0  0  0  0  0  0  0  0
   21.5653   -3.6968  -14.7632 N   0  0  0  0  0  0  0  0  0  0  0  0
   22.7842   -4.1815  -15.3491 C   0  0  0  0  0  0  0  0  0  0  0  0
   23.7173   -3.3828  -15.4129 O   0  0  0  0  0  0  0  0  0  0  0  0
   22.8006   -5.5344  -15.8001 C   0  0  0  0  0  0  0  0  0  0  0  0
   21.6444   -6.4503  -15.5060 C   0  0  2  0  0  0  0  0  0  0  0  0
   22.0472   -7.6792  -16.2544 N   0  0  0  0  0  0  0  0  0  0  0  0
   20.3631   -6.0883  -16.1070 C   0  0  0  0  0  0  0  0  0  0  0  0
   20.2153   -6.1469  -17.3878 O   0  0  0  0  0  0  0  0  0  0  0  0
   19.2011   -5.6637  -15.4233 N   0  0  0  0  0  0  0  0  0  0  0  0
   18.0136   -5.1722  -16.1502 C   0  0  0  0  0  0  0  0  0  0  0  0
   16.9955   -4.8202  -15.1427 C   0  0  0  0  0  0  0  0  0  0  0  0
   17.1862   -5.0004  -13.9107 O   0  0  0  0  0  0  0  0  0  0  0  0
   15.7972   -4.2781  -15.5409 O   0  0  0  0  0  0  0  0  0  0  0  0
  2  1  1  1
  3  2  1  0
  3  4  1  0
  5  6  2  0
  5  2  1  0
  7  8  1  0
  8  9  2  0
 10  8  1  0
 11 10  1  6
 11 12  1  0
 12  5  1  0
 13 15  1  0
 13 11  1  0
 14 13  2  0
 16 17  1  0
 16 15  1  0
 17 19  1  0
 18 17  2  0
M  END
$$$$
