CIC.pdb
     RDKit          3D

 21 20  0  0  1  0  0  0  0  0999 V2000
    6.2471  -17.1530   21.1385 N   0  0  0  0  0  0  0  0  0  0  0  0
    6.0259  -17.1651   22.5547 C   0  0  1  0  0  0  0  0  0  0  0  0
    5.8813  -18.5685   23.1045 C   0  0  0  0  0  0  0  0  0  0  0  0
    5.6826  -18.5031   24.9023 S   0  0  0  0  0  0  0  0  0  0  0  0
    7.1122  -16.4243   23.2227 C   0  0  0  0  0  0  0  0  0  0  0  0
    8.3072  -16.5860   22.8133 O   0  0  0  0  0  0  0  0  0  0  0  0
    6.5026  -12.0933   26.9903 C   0  0  0  0  0  0  0  0  0  0  0  0
    6.3925  -13.3487   26.1485 C   0  0  0  0  0  0  0  0  0  0  0  0
    7.6551  -13.4451   25.3290 C   0  0  2  0  0  0  0  0  0  0  0  0
    7.4744  -12.6514   24.0707 C   0  0  0  0  0  0  0  0  0  0  0  0
    7.9778  -14.8729   24.9442 C   0  0  2  0  0  0  0  0  0  0  0  0
    6.8862  -15.5358   24.3052 N   0  0  0  0  0  0  0  0  0  0  0  0
    8.3639  -15.6799   26.1351 C   0  0  0  0  0  0  0  0  0  0  0  0
    7.5244  -16.0429   26.9948 O   0  0  0  0  0  0  0  0  0  0  0  0
    9.7253  -16.0487   26.3003 N   0  0  0  0  0  0  0  0  0  0  0  0
   10.1731  -17.1202   27.1468 C   0  0  1  0  0  0  0  0  0  0  0  0
    9.4890  -18.4056   26.7663 C   0  0  0  0  0  0  0  0  0  0  0  0
    9.7525  -19.7262   27.9420 S   0  0  0  0  0  0  0  0  0  0  0  0
   11.6290  -17.1952   27.1239 C   0  0  0  0  0  0  0  0  0  0  0  0
   12.2471  -16.7267   26.1375 O   0  0  0  0  0  0  0  0  0  0  0  0
   12.4014  -17.7585   28.1333 O   0  0  0  0  0  0  0  0  0  0  0  0
  2  3  1  0
  2  1  1  6
  4  3  1  0
  5  6  2  0
  5  2  1  0
  8  7  1  0
  8  9  1  0
  9 10  1  6
  9 11  1  0
 11 12  1  1
 12  5  1  0
 13 15  1  0
 13 11  1  0
 14 13  2  0
 16 15  1  0
 16 19  1  0
 16 17  1  6
 17 18  1  0
 19 21  1  0
 20 19  2  0
M  END
$$$$
