CIC.pdb
     RDKit          3D

 21 20  0  0  1  0  0  0  0  0999 V2000
    8.2297  -15.3361   20.2157 N   0  0  0  0  0  0  0  0  0  0  0  0
    7.4728  -15.7915   21.3447 C   0  0  1  0  0  0  0  0  0  0  0  0
    7.2081  -17.2817   21.2991 C   0  0  0  0  0  0  0  0  0  0  0  0
    5.7558  -17.6133   20.2712 S   0  0  0  0  0  0  0  0  0  0  0  0
    8.1647  -15.3957   22.5855 C   0  0  0  0  0  0  0  0  0  0  0  0
    9.4377  -15.4178   22.6119 O   0  0  0  0  0  0  0  0  0  0  0  0
    5.8566  -11.9369   26.2127 C   0  0  0  0  0  0  0  0  0  0  0  0
    6.8904  -12.5304   25.2768 C   0  0  0  0  0  0  0  0  0  0  0  0
    7.3721  -13.8142   25.9054 C   0  0  2  0  0  0  0  0  0  0  0  0
    8.2346  -13.4793   27.0843 C   0  0  0  0  0  0  0  0  0  0  0  0
    8.1907  -14.6482   24.9435 C   0  0  2  0  0  0  0  0  0  0  0  0
    7.4743  -14.9897   23.7563 N   0  0  0  0  0  0  0  0  0  0  0  0
    8.6455  -15.9162   25.5790 C   0  0  0  0  0  0  0  0  0  0  0  0
    7.8389  -16.8076   25.9398 O   0  0  0  0  0  0  0  0  0  0  0  0
   10.0362  -16.1202   25.7817 N   0  0  0  0  0  0  0  0  0  0  0  0
   10.6041  -17.3256   26.3200 C   0  0  1  0  0  0  0  0  0  0  0  0
   12.0017  -17.5219   25.7972 C   0  0  0  0  0  0  0  0  0  0  0  0
   12.8652  -18.8829   26.5701 S   0  0  0  0  0  0  0  0  0  0  0  0
   10.5133  -17.3101   27.7751 C   0  0  0  0  0  0  0  0  0  0  0  0
   10.1652  -18.3561   28.3743 O   0  0  0  0  0  0  0  0  0  0  0  0
   10.7888  -16.2008   28.5664 O   0  0  0  0  0  0  0  0  0  0  0  0
  2  3  1  0
  2  1  1  6
  4  3  1  0
  5  6  2  0
  5  2  1  0
  8  7  1  0
  8  9  1  0
  9 10  1  1
  9 11  1  0
 11 12  1  6
 12  5  1  0
 13 15  1  0
 13 11  1  0
 14 13  2  0
 16 15  1  0
 16 19  1  0
 16 17  1  1
 17 18  1  0
 19 21  1  0
 20 19  2  0
M  END
$$$$
