CIC.pdb
     RDKit          3D

 21 20  0  0  1  0  0  0  0  0999 V2000
    6.7078  -19.6546   21.7695 N   0  0  0  0  0  0  0  0  0  0  0  0
    6.5741  -18.6343   22.7675 C   0  0  1  0  0  0  0  0  0  0  0  0
    6.7983  -19.1640   24.1682 C   0  0  0  0  0  0  0  0  0  0  0  0
    5.4201  -20.2363   24.6441 S   0  0  0  0  0  0  0  0  0  0  0  0
    7.4876  -17.5209   22.4501 C   0  0  0  0  0  0  0  0  0  0  0  0
    8.5824  -17.7771   21.8520 O   0  0  0  0  0  0  0  0  0  0  0  0
    6.4998  -12.7909   20.0041 C   0  0  0  0  0  0  0  0  0  0  0  0
    7.1788  -14.0674   20.4582 C   0  0  0  0  0  0  0  0  0  0  0  0
    7.5104  -13.8974   21.9198 C   0  0  2  0  0  0  0  0  0  0  0  0
    8.4768  -12.7613   22.0654 C   0  0  0  0  0  0  0  0  0  0  0  0
    8.1479  -15.1377   22.5082 C   0  0  2  0  0  0  0  0  0  0  0  0
    7.2018  -16.1717   22.7818 N   0  0  0  0  0  0  0  0  0  0  0  0
    8.8614  -14.8283   23.7785 C   0  0  0  0  0  0  0  0  0  0  0  0
    9.8059  -14.0031   23.8286 O   0  0  0  0  0  0  0  0  0  0  0  0
    8.4581  -15.4894   24.9689 N   0  0  0  0  0  0  0  0  0  0  0  0
    8.9985  -15.2073   26.2704 C   0  0  1  0  0  0  0  0  0  0  0  0
    8.0826  -14.2821   27.0255 C   0  0  0  0  0  0  0  0  0  0  0  0
    8.2547  -12.5675   26.5503 S   0  0  0  0  0  0  0  0  0  0  0  0
    9.2873  -16.4541   26.9686 C   0  0  0  0  0  0  0  0  0  0  0  0
    8.9136  -17.5380   26.4586 O   0  0  0  0  0  0  0  0  0  0  0  0
    9.9597  -16.5357   28.1827 O   0  0  0  0  0  0  0  0  0  0  0  0
  2  3  1  0
  2  1  1  6
  4  3  1  0
  5  6  2  0
  5  2  1  0
  8  7  1  0
  8  9  1  0
  9 10  1  6
  9 11  1  0
 11 12  1  1
 12  5  1  0
 13 15  1  0
 13 11  1  0
 14 13  2  0
 16 15  1  0
 16 19  1  0
 16 17  1  1
 17 18  1  0
 19 21  1  0
 20 19  2  0
M  END
$$$$
