CIC.pdb
     RDKit          3D

 21 20  0  0  1  0  0  0  0  0999 V2000
    9.1466  -15.1661   20.3263 N   0  0  0  0  0  0  0  0  0  0  0  0
    8.1563  -15.6020   21.2665 C   0  0  1  0  0  0  0  0  0  0  0  0
    7.8371  -17.0755   21.1274 C   0  0  0  0  0  0  0  0  0  0  0  0
    6.2735  -17.2810   20.2393 S   0  0  0  0  0  0  0  0  0  0  0  0
    8.6000  -15.2641   22.6318 C   0  0  0  0  0  0  0  0  0  0  0  0
    9.8331  -15.3887   22.9246 O   0  0  0  0  0  0  0  0  0  0  0  0
    5.9881  -11.6925   26.0034 C   0  0  0  0  0  0  0  0  0  0  0  0
    7.0444  -12.4089   25.1863 C   0  0  0  0  0  0  0  0  0  0  0  0
    7.2406  -13.7684   25.8097 C   0  0  2  0  0  0  0  0  0  0  0  0
    7.8551  -13.5925   27.1652 C   0  0  0  0  0  0  0  0  0  0  0  0
    8.1577  -14.6466   24.9861 C   0  0  2  0  0  0  0  0  0  0  0  0
    7.7125  -14.8046   23.6385 N   0  0  0  0  0  0  0  0  0  0  0  0
    8.2858  -16.0051   25.5834 C   0  0  0  0  0  0  0  0  0  0  0  0
    7.6122  -16.9807   25.1709 O   0  0  0  0  0  0  0  0  0  0  0  0
    9.1994  -16.1996   26.6530 N   0  0  0  0  0  0  0  0  0  0  0  0
    9.8995  -17.4298   26.9017 C   0  0  1  0  0  0  0  0  0  0  0  0
   10.7074  -17.8228   25.6942 C   0  0  0  0  0  0  0  0  0  0  0  0
   11.7058  -19.2831   25.9515 S   0  0  0  0  0  0  0  0  0  0  0  0
   10.6824  -17.3163   28.1263 C   0  0  0  0  0  0  0  0  0  0  0  0
   11.3454  -16.2707   28.3301 O   0  0  0  0  0  0  0  0  0  0  0  0
   10.7520  -18.2995   29.1067 O   0  0  0  0  0  0  0  0  0  0  0  0
  2  3  1  0
  2  1  1  6
  4  3  1  0
  5  6  2  0
  5  2  1  0
  8  7  1  0
  8  9  1  0
  9 10  1  1
  9 11  1  0
 11 12  1  6
 12  5  1  0
 13 15  1  0
 13 11  1  0
 14 13  2  0
 16 15  1  0
 16 19  1  0
 16 17  1  6
 17 18  1  0
 19 21  1  0
 20 19  2  0
M  END
$$$$
