CIC.pdb
     RDKit          3D

 21 20  0  0  1  0  0  0  0  0999 V2000
    7.3323  -18.2901   22.0706 N   0  0  0  0  0  0  0  0  0  0  0  0
    7.1788  -17.9409   23.4524 C   0  0  1  0  0  0  0  0  0  0  0  0
    7.7758  -18.9783   24.3797 C   0  0  0  0  0  0  0  0  0  0  0  0
    6.8098  -20.5063   24.2903 S   0  0  0  0  0  0  0  0  0  0  0  0
    7.7557  -16.6034   23.6828 C   0  0  0  0  0  0  0  0  0  0  0  0
    8.6219  -16.1591   22.8618 O   0  0  0  0  0  0  0  0  0  0  0  0
    6.4766  -11.3130   26.4720 C   0  0  0  0  0  0  0  0  0  0  0  0
    7.4576  -12.0978   25.6243 C   0  0  0  0  0  0  0  0  0  0  0  0
    6.8808  -13.4798   25.4438 C   0  0  2  0  0  0  0  0  0  0  0  0
    6.4068  -13.9814   26.7741 C   0  0  0  0  0  0  0  0  0  0  0  0
    7.9027  -14.4588   24.9070 C   0  0  2  0  0  0  0  0  0  0  0  0
    7.3886  -15.7852   24.7819 N   0  0  0  0  0  0  0  0  0  0  0  0
    9.1056  -14.5196   25.7832 C   0  0  0  0  0  0  0  0  0  0  0  0
    9.8820  -13.5426   25.9182 O   0  0  0  0  0  0  0  0  0  0  0  0
    9.3803  -15.7222   26.4868 N   0  0  0  0  0  0  0  0  0  0  0  0
   10.5390  -15.9268   27.3120 C   0  0  1  0  0  0  0  0  0  0  0  0
   10.2598  -15.4810   28.7221 C   0  0  0  0  0  0  0  0  0  0  0  0
    9.9490  -13.7265   28.8646 S   0  0  0  0  0  0  0  0  0  0  0  0
   10.9854  -17.3106   27.2061 C   0  0  0  0  0  0  0  0  0  0  0  0
   10.3831  -18.0865   26.4253 O   0  0  0  0  0  0  0  0  0  0  0  0
   12.0507  -17.8480   27.9198 O   0  0  0  0  0  0  0  0  0  0  0  0
  2  3  1  0
  2  1  1  6
  4  3  1  0
  5  6  2  0
  5  2  1  0
  8  7  1  0
  8  9  1  0
  9 10  1  1
  9 11  1  0
 11 12  1  1
 12  5  1  0
 13 15  1  0
 13 11  1  0
 14 13  2  0
 16 15  1  0
 16 19  1  0
 16 17  1  1
 17 18  1  0
 19 21  1  0
 20 19  2  0
M  END
$$$$
