CIC.pdb
     RDKit          3D

 21 20  0  0  1  0  0  0  0  0999 V2000
    6.1245  -18.2705   22.6410 N   0  0  0  0  0  0  0  0  0  0  0  0
    6.1212  -18.0582   24.0587 C   0  0  1  0  0  0  0  0  0  0  0  0
    6.4229  -19.3241   24.8327 C   0  0  0  0  0  0  0  0  0  0  0  0
    6.5185  -18.9510   26.6011 S   0  0  0  0  0  0  0  0  0  0  0  0
    7.0657  -16.9751   24.3903 C   0  0  0  0  0  0  0  0  0  0  0  0
    8.2026  -16.9556   23.8169 O   0  0  0  0  0  0  0  0  0  0  0  0
    5.2734  -12.1929   26.3023 C   0  0  0  0  0  0  0  0  0  0  0  0
    6.2225  -12.9825   25.4234 C   0  0  0  0  0  0  0  0  0  0  0  0
    7.1406  -13.7511   26.3409 C   0  0  2  0  0  0  0  0  0  0  0  0
    8.2610  -12.8510   26.7655 C   0  0  0  0  0  0  0  0  0  0  0  0
    7.7405  -14.9638   25.6625 C   0  0  2  0  0  0  0  0  0  0  0  0
    6.7646  -15.9495   25.3228 N   0  0  0  0  0  0  0  0  0  0  0  0
    8.7625  -15.6168   26.5272 C   0  0  0  0  0  0  0  0  0  0  0  0
    8.4460  -16.3496   27.4959 O   0  0  0  0  0  0  0  0  0  0  0  0
   10.1374  -15.4018   26.2443 N   0  0  0  0  0  0  0  0  0  0  0  0
   11.2137  -16.0802   26.9127 C   0  0  1  0  0  0  0  0  0  0  0  0
   12.4561  -16.0491   26.0639 C   0  0  0  0  0  0  0  0  0  0  0  0
   13.8593  -16.8509   26.8279 S   0  0  0  0  0  0  0  0  0  0  0  0
   11.3957  -15.5261   28.2488 C   0  0  0  0  0  0  0  0  0  0  0  0
   11.1562  -14.3095   28.4411 O   0  0  0  0  0  0  0  0  0  0  0  0
   11.8237  -16.2586   29.3502 O   0  0  0  0  0  0  0  0  0  0  0  0
  2  3  1  0
  2  1  1  6
  4  3  1  0
  5  6  2  0
  5  2  1  0
  8  7  1  0
  8  9  1  0
  9 10  1  6
  9 11  1  0
 11 12  1  1
 12  5  1  0
 13 15  1  0
 13 11  1  0
 14 13  2  0
 16 15  1  0
 16 19  1  0
 16 17  1  6
 17 18  1  0
 19 21  1  0
 20 19  2  0
M  END
$$$$
