CIC.pdb
     RDKit          3D

 21 20  0  0  1  0  0  0  0  0999 V2000
    8.3895  -15.3065   19.8248 N   0  0  0  0  0  0  0  0  0  0  0  0
    7.4477  -15.4937   20.8890 C   0  0  1  0  0  0  0  0  0  0  0  0
    6.8686  -16.8926   20.9081 C   0  0  0  0  0  0  0  0  0  0  0  0
    5.9656  -17.2012   19.3701 S   0  0  0  0  0  0  0  0  0  0  0  0
    8.0885  -15.1486   22.1717 C   0  0  0  0  0  0  0  0  0  0  0  0
    9.3422  -15.3319   22.3001 O   0  0  0  0  0  0  0  0  0  0  0  0
    7.3228  -11.6488   27.1500 C   0  0  0  0  0  0  0  0  0  0  0  0
    8.1473  -12.7047   26.4414 C   0  0  0  0  0  0  0  0  0  0  0  0
    7.3650  -13.1361   25.2260 C   0  0  2  0  0  0  0  0  0  0  0  0
    6.0140  -13.6118   25.6667 C   0  0  0  0  0  0  0  0  0  0  0  0
    8.0439  -14.2660   24.4822 C   0  0  2  0  0  0  0  0  0  0  0  0
    7.3695  -14.6196   23.2741 N   0  0  0  0  0  0  0  0  0  0  0  0
    8.1353  -15.4905   25.3254 C   0  0  0  0  0  0  0  0  0  0  0  0
    7.1475  -16.2395   25.5222 O   0  0  0  0  0  0  0  0  0  0  0  0
    9.3806  -15.8182   25.9242 N   0  0  0  0  0  0  0  0  0  0  0  0
    9.7129  -17.1210   26.4319 C   0  0  1  0  0  0  0  0  0  0  0  0
   10.6346  -17.8323   25.4782 C   0  0  0  0  0  0  0  0  0  0  0  0
   11.2434  -19.3908   26.1073 S   0  0  0  0  0  0  0  0  0  0  0  0
   10.2375  -17.0062   27.7873 C   0  0  0  0  0  0  0  0  0  0  0  0
   10.8031  -15.9408   28.1329 O   0  0  0  0  0  0  0  0  0  0  0  0
   10.1572  -18.0089   28.7470 O   0  0  0  0  0  0  0  0  0  0  0  0
  2  3  1  0
  2  1  1  6
  4  3  1  0
  5  6  2  0
  5  2  1  0
  8  7  1  0
  8  9  1  0
  9 10  1  1
  9 11  1  0
 11 12  1  6
 12  5  1  0
 13 15  1  0
 13 11  1  0
 14 13  2  0
 16 15  1  0
 16 19  1  0
 16 17  1  6
 17 18  1  0
 19 21  1  0
 20 19  2  0
M  END
$$$$
