MLE.pdb
     RDKit          3D

 26 25  0  0  1  0  0  0  0  0999 V2000
    3.3595  -16.6578   20.0727 C   0  0  0  0  0  0  0  0  0  0  0  0
    2.7775  -17.9264   21.2406 S   0  0  0  0  0  0  0  0  0  0  0  0
    4.0801  -18.4153   22.3893 C   0  0  0  0  0  0  0  0  0  0  0  0
    5.2197  -17.4270   22.2593 C   0  0  0  0  0  0  0  0  0  0  0  0
    6.3805  -17.8045   23.1627 C   0  0  2  0  0  0  0  0  0  0  0  0
    5.8540  -18.1847   24.4863 N   0  0  0  0  0  0  0  0  0  0  0  0
    7.3085  -16.6857   23.3647 C   0  0  0  0  0  0  0  0  0  0  0  0
    8.0965  -16.3546   22.4482 O   0  0  0  0  0  0  0  0  0  0  0  0
    5.9861  -12.6568   26.8840 C   0  0  0  0  0  0  0  0  0  0  0  0
    6.5771  -13.3384   25.6808 C   0  0  1  0  0  0  0  0  0  0  0  0
    6.7966  -12.2446   24.6180 C   0  0  0  0  0  0  0  0  0  0  0  0
    7.8984  -13.9756   25.8827 C   0  0  0  0  0  0  0  0  0  0  0  0
    8.3813  -14.9237   24.8384 C   0  0  2  0  0  0  0  0  0  0  0  0
    7.3843  -15.9212   24.5650 N   0  0  0  0  0  0  0  0  0  0  0  0
    9.6338  -15.5495   25.3946 C   0  0  0  0  0  0  0  0  0  0  0  0
   10.5902  -14.7798   25.6166 O   0  0  0  0  0  0  0  0  0  0  0  0
    9.7644  -16.9235   25.6658 N   0  0  0  0  0  0  0  0  0  0  0  0
   11.0237  -17.5224   26.1629 C   0  0  1  0  0  0  0  0  0  0  0  0
   10.7251  -18.5609   27.1852 C   0  0  0  0  0  0  0  0  0  0  0  0
   11.8752  -19.4926   27.4031 C   0  0  0  0  0  0  0  0  0  0  0  0
   11.6816  -20.4094   28.5518 C   0  0  0  0  0  0  0  0  0  0  0  0
   10.5997  -21.0623   28.6280 O   0  0  0  0  0  0  0  0  0  0  0  0
   11.7605  -18.0690   25.0106 C   0  0  0  0  0  0  0  0  0  0  0  0
   11.1533  -18.5098   24.0224 O   0  0  0  0  0  0  0  0  0  0  0  0
   12.6057  -20.5977   29.5476 O   0  0  0  0  0  0  0  0  0  0  0  0
   13.1425  -18.0980   25.0158 O   0  0  0  0  0  0  0  0  0  0  0  0
  2  1  1  0
  3  4  1  0
  3  2  1  0
  4  5  1  0
  5  6  1  1
  7  5  1  0
  7  8  2  0
 10  9  1  1
 11 10  1  0
 12 10  1  0
 13 12  1  1
 13 14  1  0
 14  7  1  0
 15 13  1  0
 16 15  2  0
 17 15  1  0
 18 17  1  0
 18 23  1  0
 18 19  1  1
 20 21  1  0
 20 19  1  0
 21 22  2  0
 21 25  1  0
 23 26  1  0
 24 23  2  0
M  END
$$$$
