MLE.pdb
     RDKit          3D

 26 25  0  0  1  0  0  0  0  0999 V2000
    8.6535  -11.4758   18.9428 C   0  0  0  0  0  0  0  0  0  0  0  0
    7.4877  -12.7020   18.2723 S   0  0  0  0  0  0  0  0  0  0  0  0
    7.7221  -14.3218   19.0316 C   0  0  0  0  0  0  0  0  0  0  0  0
    8.4404  -14.1258   20.3500 C   0  0  0  0  0  0  0  0  0  0  0  0
    8.5481  -15.4321   21.1168 C   0  0  2  0  0  0  0  0  0  0  0  0
    7.2429  -16.1168   21.0831 N   0  0  0  0  0  0  0  0  0  0  0  0
    8.8942  -15.2169   22.5267 C   0  0  0  0  0  0  0  0  0  0  0  0
   10.0819  -14.9811   22.8493 O   0  0  0  0  0  0  0  0  0  0  0  0
    6.0560  -12.2502   26.7329 C   0  0  0  0  0  0  0  0  0  0  0  0
    7.2201  -12.8484   25.9920 C   0  0  1  0  0  0  0  0  0  0  0  0
    8.4277  -12.7892   26.9469 C   0  0  0  0  0  0  0  0  0  0  0  0
    7.0793  -14.2713   25.6072 C   0  0  0  0  0  0  0  0  0  0  0  0
    8.2467  -14.9370   24.9618 C   0  0  2  0  0  0  0  0  0  0  0  0
    7.9498  -15.2573   23.5932 N   0  0  0  0  0  0  0  0  0  0  0  0
    8.5077  -16.1849   25.7646 C   0  0  0  0  0  0  0  0  0  0  0  0
    7.5122  -16.7396   26.2721 O   0  0  0  0  0  0  0  0  0  0  0  0
    9.7884  -16.7332   25.9586 N   0  0  0  0  0  0  0  0  0  0  0  0
   10.0022  -18.0641   26.5706 C   0  0  1  0  0  0  0  0  0  0  0  0
   10.9746  -18.8467   25.7616 C   0  0  0  0  0  0  0  0  0  0  0  0
   12.3183  -18.1921   25.6966 C   0  0  0  0  0  0  0  0  0  0  0  0
   13.1172  -18.6020   24.5171 C   0  0  0  0  0  0  0  0  0  0  0  0
   13.8532  -17.7381   23.9561 O   0  0  0  0  0  0  0  0  0  0  0  0
   10.4606  -17.8660   27.9563 C   0  0  0  0  0  0  0  0  0  0  0  0
   10.7473  -16.7326   28.3722 O   0  0  0  0  0  0  0  0  0  0  0  0
   13.1105  -19.8671   23.9877 O   0  0  0  0  0  0  0  0  0  0  0  0
   10.5778  -18.9439   28.8136 O   0  0  0  0  0  0  0  0  0  0  0  0
  2  1  1  0
  3  4  1  0
  3  2  1  0
  4  5  1  0
  5  6  1  1
  7  5  1  0
  7  8  2  0
 10  9  1  1
 11 10  1  0
 12 10  1  0
 13 12  1  1
 13 14  1  0
 14  7  1  0
 15 13  1  0
 16 15  2  0
 17 15  1  0
 18 17  1  0
 18 23  1  0
 18 19  1  6
 20 21  1  0
 20 19  1  0
 21 22  2  0
 21 25  1  0
 23 26  1  0
 24 23  2  0
M  END
$$$$
