MLE.pdb
     RDKit          3D

 26 25  0  0  1  0  0  0  0  0999 V2000
    7.9654  -11.4291   27.1739 C   0  0  0  0  0  0  0  0  0  0  0  0
    6.9446  -12.9204   27.3885 S   0  0  0  0  0  0  0  0  0  0  0  0
    6.0288  -13.3170   25.8854 C   0  0  0  0  0  0  0  0  0  0  0  0
    6.1141  -14.8120   25.6610 C   0  0  0  0  0  0  0  0  0  0  0  0
    7.5401  -15.2432   25.3669 C   0  0  2  0  0  0  0  0  0  0  0  0
    8.4440  -14.1022   25.6010 N   0  0  0  0  0  0  0  0  0  0  0  0
    7.7131  -15.6606   23.9706 C   0  0  0  0  0  0  0  0  0  0  0  0
    7.0763  -16.6457   23.5297 O   0  0  0  0  0  0  0  0  0  0  0  0
    6.6724  -13.6772   20.8393 C   0  0  0  0  0  0  0  0  0  0  0  0
    8.0134  -13.5519   20.1701 C   0  0  1  0  0  0  0  0  0  0  0  0
    8.3879  -12.0579   20.2096 C   0  0  0  0  0  0  0  0  0  0  0  0
    9.1326  -14.2658   20.8263 C   0  0  0  0  0  0  0  0  0  0  0  0
    8.8016  -15.4333   21.6922 C   0  0  2  0  0  0  0  0  0  0  0  0
    8.5800  -15.0083   23.0465 N   0  0  0  0  0  0  0  0  0  0  0  0
    9.9840  -16.3628   21.6039 C   0  0  0  0  0  0  0  0  0  0  0  0
   10.2267  -16.8509   20.4817 O   0  0  0  0  0  0  0  0  0  0  0  0
   10.8004  -16.6919   22.7011 N   0  0  0  0  0  0  0  0  0  0  0  0
   11.9280  -17.6456   22.5988 C   0  0  1  0  0  0  0  0  0  0  0  0
   12.9785  -17.0979   21.6993 C   0  0  0  0  0  0  0  0  0  0  0  0
   13.4227  -15.7295   22.1097 C   0  0  0  0  0  0  0  0  0  0  0  0
   14.5568  -15.2125   21.3073 C   0  0  0  0  0  0  0  0  0  0  0  0
   15.6824  -15.7821   21.4149 O   0  0  0  0  0  0  0  0  0  0  0  0
   12.4360  -17.9061   23.9565 C   0  0  0  0  0  0  0  0  0  0  0  0
   11.9613  -17.3093   24.9353 O   0  0  0  0  0  0  0  0  0  0  0  0
   14.4666  -14.1468   20.4487 O   0  0  0  0  0  0  0  0  0  0  0  0
   13.4517  -18.8218   24.1580 O   0  0  0  0  0  0  0  0  0  0  0  0
  2  1  1  0
  3  4  1  0
  3  2  1  0
  4  5  1  0
  5  6  1  6
  7  5  1  0
  7  8  2  0
 10  9  1  1
 11 10  1  0
 12 10  1  0
 13 12  1  6
 13 14  1  0
 14  7  1  0
 15 13  1  0
 16 15  2  0
 17 15  1  0
 18 17  1  0
 18 23  1  0
 18 19  1  6
 20 21  1  0
 20 19  1  0
 21 22  2  0
 21 25  1  0
 23 26  1  0
 24 23  2  0
M  END
$$$$
