MLE.pdb
     RDKit          3D

 26 25  0  0  1  0  0  0  0  0999 V2000
    8.0838  -11.7216   19.0192 C   0  0  0  0  0  0  0  0  0  0  0  0
    7.5429  -13.1946   18.0973 S   0  0  0  0  0  0  0  0  0  0  0  0
    8.0129  -14.7158   18.9462 C   0  0  0  0  0  0  0  0  0  0  0  0
    8.6248  -14.3425   20.2798 C   0  0  0  0  0  0  0  0  0  0  0  0
    8.8399  -15.5693   21.1486 C   0  0  2  0  0  0  0  0  0  0  0  0
    7.6126  -16.3861   21.1370 N   0  0  0  0  0  0  0  0  0  0  0  0
    9.1173  -15.2142   22.5452 C   0  0  0  0  0  0  0  0  0  0  0  0
   10.2327  -14.7367   22.8586 O   0  0  0  0  0  0  0  0  0  0  0  0
    8.1794  -12.4243   26.9533 C   0  0  0  0  0  0  0  0  0  0  0  0
    7.1706  -13.5184   26.7364 C   0  0  1  0  0  0  0  0  0  0  0  0
    5.7811  -12.8814   26.9292 C   0  0  0  0  0  0  0  0  0  0  0  0
    7.1532  -14.1231   25.3848 C   0  0  0  0  0  0  0  0  0  0  0  0
    8.3633  -14.8725   24.9415 C   0  0  2  0  0  0  0  0  0  0  0  0
    8.1825  -15.3768   23.6086 N   0  0  0  0  0  0  0  0  0  0  0  0
    8.5366  -15.9991   25.9268 C   0  0  0  0  0  0  0  0  0  0  0  0
    8.7684  -15.6749   27.1090 O   0  0  0  0  0  0  0  0  0  0  0  0
    8.4498  -17.3592   25.5788 N   0  0  0  0  0  0  0  0  0  0  0  0
    9.5993  -18.2855   25.6877 C   0  0  1  0  0  0  0  0  0  0  0  0
   10.4245  -18.2209   24.4517 C   0  0  0  0  0  0  0  0  0  0  0  0
   11.8881  -18.3416   24.7373 C   0  0  0  0  0  0  0  0  0  0  0  0
   12.7328  -18.2837   23.5205 C   0  0  0  0  0  0  0  0  0  0  0  0
   13.7946  -18.9724   23.4887 O   0  0  0  0  0  0  0  0  0  0  0  0
   10.3683  -17.9264   26.8916 C   0  0  0  0  0  0  0  0  0  0  0  0
   10.4681  -18.7210   27.8393 O   0  0  0  0  0  0  0  0  0  0  0  0
   12.4376  -17.5249   22.4168 O   0  0  0  0  0  0  0  0  0  0  0  0
   10.9904  -16.6953   26.9810 O   0  0  0  0  0  0  0  0  0  0  0  0
  2  1  1  0
  3  4  1  0
  3  2  1  0
  4  5  1  0
  5  6  1  1
  7  5  1  0
  7  8  2  0
 10  9  1  6
 11 10  1  0
 12 10  1  0
 13 12  1  1
 13 14  1  0
 14  7  1  0
 15 13  1  0
 16 15  2  0
 17 15  1  0
 18 17  1  0
 18 23  1  0
 18 19  1  6
 20 21  1  0
 20 19  1  0
 21 22  2  0
 21 25  1  0
 23 26  1  0
 24 23  2  0
M  END
$$$$
