MLE.pdb
     RDKit          3D

 26 25  0  0  1  0  0  0  0  0999 V2000
    8.6119  -11.4604   19.4141 C   0  0  0  0  0  0  0  0  0  0  0  0
    7.2536  -12.5856   18.9658 S   0  0  0  0  0  0  0  0  0  0  0  0
    7.2778  -14.0847   19.9695 C   0  0  0  0  0  0  0  0  0  0  0  0
    8.6940  -14.6201   19.9845 C   0  0  0  0  0  0  0  0  0  0  0  0
    8.8252  -15.8015   20.9295 C   0  0  2  0  0  0  0  0  0  0  0  0
    7.5907  -16.6051   20.8666 N   0  0  0  0  0  0  0  0  0  0  0  0
    9.0011  -15.3761   22.3230 C   0  0  0  0  0  0  0  0  0  0  0  0
   10.1456  -15.0993   22.7518 O   0  0  0  0  0  0  0  0  0  0  0  0
    7.8416  -12.5017   26.7955 C   0  0  0  0  0  0  0  0  0  0  0  0
    6.8568  -13.5925   26.4758 C   0  0  1  0  0  0  0  0  0  0  0  0
    5.4527  -12.9952   26.6890 C   0  0  0  0  0  0  0  0  0  0  0  0
    6.8754  -14.0922   25.0820 C   0  0  0  0  0  0  0  0  0  0  0  0
    8.0853  -14.8329   24.6238 C   0  0  2  0  0  0  0  0  0  0  0  0
    7.9326  -15.2495   23.2575 N   0  0  0  0  0  0  0  0  0  0  0  0
    8.2148  -16.0217   25.5402 C   0  0  0  0  0  0  0  0  0  0  0  0
    7.1743  -16.6753   25.7556 O   0  0  0  0  0  0  0  0  0  0  0  0
    9.4238  -16.4127   26.1436 N   0  0  0  0  0  0  0  0  0  0  0  0
    9.5907  -17.7168   26.8238 C   0  0  1  0  0  0  0  0  0  0  0  0
    9.9513  -18.7659   25.8328 C   0  0  0  0  0  0  0  0  0  0  0  0
   11.2757  -18.5078   25.1867 C   0  0  0  0  0  0  0  0  0  0  0  0
   11.6616  -19.5436   24.1991 C   0  0  0  0  0  0  0  0  0  0  0  0
   11.6071  -20.7598   24.5464 O   0  0  0  0  0  0  0  0  0  0  0  0
   10.6149  -17.5627   27.8711 C   0  0  0  0  0  0  0  0  0  0  0  0
   10.8516  -18.4859   28.6657 O   0  0  0  0  0  0  0  0  0  0  0  0
   12.0791  -19.2685   22.9219 O   0  0  0  0  0  0  0  0  0  0  0  0
   11.3277  -16.3836   27.9823 O   0  0  0  0  0  0  0  0  0  0  0  0
  2  1  1  0
  3  4  1  0
  3  2  1  0
  4  5  1  0
  5  6  1  1
  7  5  1  0
  7  8  2  0
 10  9  1  6
 11 10  1  0
 12 10  1  0
 13 12  1  1
 13 14  1  0
 14  7  1  0
 15 13  1  0
 16 15  2  0
 17 15  1  0
 18 17  1  0
 18 23  1  0
 18 19  1  6
 20 21  1  0
 20 19  1  0
 21 22  2  0
 21 25  1  0
 23 26  1  0
 24 23  2  0
M  END
$$$$
