MLE.pdb
     RDKit          3D

 26 25  0  0  1  0  0  0  0  0999 V2000
    8.4957  -12.0316   18.9006 C   0  0  0  0  0  0  0  0  0  0  0  0
    7.5867  -13.4532   18.2187 S   0  0  0  0  0  0  0  0  0  0  0  0
    7.5696  -14.8417   19.3707 C   0  0  0  0  0  0  0  0  0  0  0  0
    8.2957  -14.4191   20.6304 C   0  0  0  0  0  0  0  0  0  0  0  0
    8.3567  -15.5545   21.6369 C   0  0  2  0  0  0  0  0  0  0  0  0
    6.9912  -16.0554   21.8780 N   0  0  0  0  0  0  0  0  0  0  0  0
    8.8982  -15.1175   22.9290 C   0  0  0  0  0  0  0  0  0  0  0  0
   10.1241  -14.8857   23.0463 O   0  0  0  0  0  0  0  0  0  0  0  0
    5.4666  -12.3528   26.5334 C   0  0  0  0  0  0  0  0  0  0  0  0
    6.6525  -12.7307   25.6893 C   0  0  1  0  0  0  0  0  0  0  0  0
    7.6153  -11.5282   25.7184 C   0  0  0  0  0  0  0  0  0  0  0  0
    7.4410  -13.8905   26.1643 C   0  0  0  0  0  0  0  0  0  0  0  0
    8.5847  -14.3464   25.3237 C   0  0  2  0  0  0  0  0  0  0  0  0
    8.1086  -14.9303   24.1005 N   0  0  0  0  0  0  0  0  0  0  0  0
    9.3296  -15.3602   26.1527 C   0  0  0  0  0  0  0  0  0  0  0  0
    9.6940  -14.9926   27.2878 O   0  0  0  0  0  0  0  0  0  0  0  0
    9.6213  -16.6640   25.7127 N   0  0  0  0  0  0  0  0  0  0  0  0
   10.4520  -17.6041   26.4986 C   0  0  1  0  0  0  0  0  0  0  0  0
    9.8090  -18.9450   26.5339 C   0  0  0  0  0  0  0  0  0  0  0  0
   10.6667  -19.9703   27.2057 C   0  0  0  0  0  0  0  0  0  0  0  0
   10.0505  -21.3178   27.2485 C   0  0  0  0  0  0  0  0  0  0  0  0
    9.0334  -21.5402   26.5283 O   0  0  0  0  0  0  0  0  0  0  0  0
   11.7959  -17.6452   25.8972 C   0  0  0  0  0  0  0  0  0  0  0  0
   12.7524  -18.1345   26.5178 O   0  0  0  0  0  0  0  0  0  0  0  0
   10.5134  -22.3490   28.0253 O   0  0  0  0  0  0  0  0  0  0  0  0
   12.0091  -17.1373   24.6294 O   0  0  0  0  0  0  0  0  0  0  0  0
  2  1  1  0
  3  4  1  0
  3  2  1  0
  4  5  1  0
  5  6  1  1
  7  5  1  0
  7  8  2  0
 10  9  1  1
 11 10  1  0
 12 10  1  0
 13 12  1  1
 13 14  1  0
 14  7  1  0
 15 13  1  0
 16 15  2  0
 17 15  1  0
 18 17  1  0
 18 23  1  0
 18 19  1  6
 20 21  1  0
 20 19  1  0
 21 22  2  0
 21 25  1  0
 23 26  1  0
 24 23  2  0
M  END
$$$$
