MLE.pdb
     RDKit          3D

 26 25  0  0  1  0  0  0  0  0999 V2000
    7.5373  -14.4550   15.7249 C   0  0  0  0  0  0  0  0  0  0  0  0
    8.3000  -13.8611   17.2669 S   0  0  0  0  0  0  0  0  0  0  0  0
    7.2959  -14.2810   18.7059 C   0  0  0  0  0  0  0  0  0  0  0  0
    7.9381  -13.6585   19.9276 C   0  0  0  0  0  0  0  0  0  0  0  0
    8.3635  -14.7203   20.9263 C   0  0  2  0  0  0  0  0  0  0  0  0
    7.2285  -15.6283   21.1735 N   0  0  0  0  0  0  0  0  0  0  0  0
    8.7499  -14.1397   22.2175 C   0  0  0  0  0  0  0  0  0  0  0  0
    9.8412  -13.5337   22.3283 O   0  0  0  0  0  0  0  0  0  0  0  0
    7.8871  -11.3524   26.7994 C   0  0  0  0  0  0  0  0  0  0  0  0
    7.2492  -12.7143   26.7886 C   0  0  1  0  0  0  0  0  0  0  0  0
    5.8285  -12.5402   27.3590 C   0  0  0  0  0  0  0  0  0  0  0  0
    7.0756  -13.3363   25.4561 C   0  0  0  0  0  0  0  0  0  0  0  0
    8.3012  -13.6321   24.6606 C   0  0  2  0  0  0  0  0  0  0  0  0
    7.9511  -14.2154   23.3953 N   0  0  0  0  0  0  0  0  0  0  0  0
    9.1129  -14.5913   25.4919 C   0  0  0  0  0  0  0  0  0  0  0  0
    9.4281  -14.2080   26.6365 O   0  0  0  0  0  0  0  0  0  0  0  0
    9.5165  -15.8621   25.0441 N   0  0  0  0  0  0  0  0  0  0  0  0
   10.3678  -16.7608   25.8559 C   0  0  1  0  0  0  0  0  0  0  0  0
    9.5840  -17.9468   26.2940 C   0  0  0  0  0  0  0  0  0  0  0  0
   10.4203  -18.9384   27.0394 C   0  0  0  0  0  0  0  0  0  0  0  0
    9.6435  -20.0843   27.5694 C   0  0  0  0  0  0  0  0  0  0  0  0
   10.2413  -20.9394   28.2865 O   0  0  0  0  0  0  0  0  0  0  0  0
   11.5428  -17.1350   25.0503 C   0  0  0  0  0  0  0  0  0  0  0  0
   12.5161  -17.6986   25.5744 O   0  0  0  0  0  0  0  0  0  0  0  0
    8.3074  -20.2818   27.3307 O   0  0  0  0  0  0  0  0  0  0  0  0
   11.5760  -16.8618   23.6958 O   0  0  0  0  0  0  0  0  0  0  0  0
  2  1  1  0
  3  4  1  0
  3  2  1  0
  4  5  1  0
  5  6  1  1
  7  5  1  0
  7  8  2  0
 10  9  1  6
 11 10  1  0
 12 10  1  0
 13 12  1  1
 13 14  1  0
 14  7  1  0
 15 13  1  0
 16 15  2  0
 17 15  1  0
 18 17  1  0
 18 23  1  0
 18 19  1  6
 20 21  1  0
 20 19  1  0
 21 22  2  0
 21 25  1  0
 23 26  1  0
 24 23  2  0
M  END
$$$$
