MLE.pdb
     RDKit          3D

 26 25  0  0  1  0  0  0  0  0999 V2000
    6.1372  -11.7381   27.3276 C   0  0  0  0  0  0  0  0  0  0  0  0
    7.5848  -12.7649   27.7303 S   0  0  0  0  0  0  0  0  0  0  0  0
    7.3667  -14.4654   27.1680 C   0  0  0  0  0  0  0  0  0  0  0  0
    6.5960  -14.4367   25.8651 C   0  0  0  0  0  0  0  0  0  0  0  0
    6.4538  -15.8306   25.2797 C   0  0  2  0  0  0  0  0  0  0  0  0
    6.6447  -16.8232   26.3530 N   0  0  0  0  0  0  0  0  0  0  0  0
    7.4618  -16.1009   24.2479 C   0  0  0  0  0  0  0  0  0  0  0  0
    7.9844  -17.2371   24.1677 O   0  0  0  0  0  0  0  0  0  0  0  0
    7.9847  -12.2997   20.0816 C   0  0  0  0  0  0  0  0  0  0  0  0
    7.7988  -13.5827   20.8439 C   0  0  1  0  0  0  0  0  0  0  0  0
    7.2293  -14.6095   19.8463 C   0  0  0  0  0  0  0  0  0  0  0  0
    9.0314  -14.1935   21.3920 C   0  0  0  0  0  0  0  0  0  0  0  0
    8.8846  -15.3854   22.2753 C   0  0  2  0  0  0  0  0  0  0  0  0
    7.9068  -15.1364   23.2979 N   0  0  0  0  0  0  0  0  0  0  0  0
   10.2453  -15.6260   22.8756 C   0  0  0  0  0  0  0  0  0  0  0  0
   10.5322  -14.9604   23.8910 O   0  0  0  0  0  0  0  0  0  0  0  0
   11.1762  -16.5426   22.3543 N   0  0  0  0  0  0  0  0  0  0  0  0
   12.4864  -16.8000   22.9936 C   0  0  1  0  0  0  0  0  0  0  0  0
   12.6656  -18.2594   23.2186 C   0  0  0  0  0  0  0  0  0  0  0  0
   13.9505  -18.5743   23.9172 C   0  0  0  0  0  0  0  0  0  0  0  0
   14.1659  -20.0256   24.1291 C   0  0  0  0  0  0  0  0  0  0  0  0
   13.5395  -20.5986   25.0683 O   0  0  0  0  0  0  0  0  0  0  0  0
   13.5388  -16.2347   22.1320 C   0  0  0  0  0  0  0  0  0  0  0  0
   13.3161  -15.9953   20.9350 O   0  0  0  0  0  0  0  0  0  0  0  0
   15.0082  -20.7955   23.3684 O   0  0  0  0  0  0  0  0  0  0  0  0
   14.7921  -15.9629   22.6478 O   0  0  0  0  0  0  0  0  0  0  0  0
  2  1  1  0
  3  4  1  0
  3  2  1  0
  4  5  1  0
  5  6  1  1
  7  5  1  0
  7  8  2  0
 10  9  1  6
 11 10  1  0
 12 10  1  0
 13 12  1  6
 13 14  1  0
 14  7  1  0
 15 13  1  0
 16 15  2  0
 17 15  1  0
 18 17  1  0
 18 23  1  0
 18 19  1  6
 20 21  1  0
 20 19  1  0
 21 22  2  0
 21 25  1  0
 23 26  1  0
 24 23  2  0
M  END
$$$$
