MLE.pdb
     RDKit          3D

 26 25  0  0  1  0  0  0  0  0999 V2000
    7.5328  -11.6390   18.5182 C   0  0  0  0  0  0  0  0  0  0  0  0
    7.6683  -13.1557   17.5215 S   0  0  0  0  0  0  0  0  0  0  0  0
    7.7244  -14.6284   18.5624 C   0  0  0  0  0  0  0  0  0  0  0  0
    8.3626  -14.2497   19.8822 C   0  0  0  0  0  0  0  0  0  0  0  0
    8.4573  -15.4476   20.8107 C   0  0  2  0  0  0  0  0  0  0  0  0
    7.1511  -16.1304   20.8471 N   0  0  0  0  0  0  0  0  0  0  0  0
    8.7852  -15.0546   22.1861 C   0  0  0  0  0  0  0  0  0  0  0  0
    9.9775  -14.8407   22.5073 O   0  0  0  0  0  0  0  0  0  0  0  0
    8.0313  -12.4118   26.8826 C   0  0  0  0  0  0  0  0  0  0  0  0
    7.0752  -13.5531   26.6709 C   0  0  1  0  0  0  0  0  0  0  0  0
    5.6845  -13.0488   27.1017 C   0  0  0  0  0  0  0  0  0  0  0  0
    6.9211  -14.0166   25.2730 C   0  0  0  0  0  0  0  0  0  0  0  0
    8.1246  -14.5640   24.5841 C   0  0  2  0  0  0  0  0  0  0  0  0
    7.8175  -14.8921   23.2197 N   0  0  0  0  0  0  0  0  0  0  0  0
    8.5221  -15.7932   25.3594 C   0  0  0  0  0  0  0  0  0  0  0  0
    7.6264  -16.6371   25.5638 O   0  0  0  0  0  0  0  0  0  0  0  0
    9.8219  -16.0210   25.8464 N   0  0  0  0  0  0  0  0  0  0  0  0
   10.2704  -17.3447   26.3344 C   0  0  1  0  0  0  0  0  0  0  0  0
   11.5635  -17.7113   25.6971 C   0  0  0  0  0  0  0  0  0  0  0  0
   12.1254  -18.9864   26.2416 C   0  0  0  0  0  0  0  0  0  0  0  0
   13.1532  -19.5988   25.3665 C   0  0  0  0  0  0  0  0  0  0  0  0
   13.9422  -18.8357   24.7356 O   0  0  0  0  0  0  0  0  0  0  0  0
   10.3689  -17.2855   27.8028 C   0  0  0  0  0  0  0  0  0  0  0  0
   10.2514  -18.3139   28.4871 O   0  0  0  0  0  0  0  0  0  0  0  0
   13.3064  -20.9506   25.1925 O   0  0  0  0  0  0  0  0  0  0  0  0
   10.5942  -16.0793   28.4393 O   0  0  0  0  0  0  0  0  0  0  0  0
  2  1  1  0
  3  4  1  0
  3  2  1  0
  4  5  1  0
  5  6  1  1
  7  5  1  0
  7  8  2  0
 10  9  1  6
 11 10  1  0
 12 10  1  0
 13 12  1  1
 13 14  1  0
 14  7  1  0
 15 13  1  0
 16 15  2  0
 17 15  1  0
 18 17  1  0
 18 23  1  0
 18 19  1  6
 20 21  1  0
 20 19  1  0
 21 22  2  0
 21 25  1  0
 23 26  1  0
 24 23  2  0
M  END
$$$$
