MLE.pdb
     RDKit          3D

 26 25  0  0  1  0  0  0  0  0999 V2000
    7.7020  -20.5323   27.4039 C   0  0  0  0  0  0  0  0  0  0  0  0
    6.4978  -21.3569   26.3167 S   0  0  0  0  0  0  0  0  0  0  0  0
    5.7922  -20.2070   25.1187 C   0  0  0  0  0  0  0  0  0  0  0  0
    6.7038  -19.0015   25.0279 C   0  0  0  0  0  0  0  0  0  0  0  0
    6.1278  -17.9453   24.1013 C   0  0  2  0  0  0  0  0  0  0  0  0
    6.0536  -18.4949   22.7352 N   0  0  0  0  0  0  0  0  0  0  0  0
    6.9679  -16.7433   24.0454 C   0  0  0  0  0  0  0  0  0  0  0  0
    7.7690  -16.5848   23.0948 O   0  0  0  0  0  0  0  0  0  0  0  0
    5.7997  -12.1960   27.2806 C   0  0  0  0  0  0  0  0  0  0  0  0
    6.2643  -12.9398   26.0588 C   0  0  1  0  0  0  0  0  0  0  0  0
    6.5308  -11.8802   24.9725 C   0  0  0  0  0  0  0  0  0  0  0  0
    7.5293  -13.6957   26.2042 C   0  0  0  0  0  0  0  0  0  0  0  0
    7.9028  -14.6441   25.1163 C   0  0  2  0  0  0  0  0  0  0  0  0
    6.9411  -15.7073   25.0236 N   0  0  0  0  0  0  0  0  0  0  0  0
    9.2642  -15.1767   25.4806 C   0  0  0  0  0  0  0  0  0  0  0  0
    9.5886  -15.1016   26.6829 O   0  0  0  0  0  0  0  0  0  0  0  0
   10.1562  -15.7384   24.5493 N   0  0  0  0  0  0  0  0  0  0  0  0
   11.4393  -16.3598   24.9481 C   0  0  1  0  0  0  0  0  0  0  0  0
   11.1975  -17.4242   25.9587 C   0  0  0  0  0  0  0  0  0  0  0  0
   12.4505  -18.1526   26.3296 C   0  0  0  0  0  0  0  0  0  0  0  0
   12.2317  -19.2378   27.3154 C   0  0  0  0  0  0  0  0  0  0  0  0
   13.2357  -19.8858   27.7335 O   0  0  0  0  0  0  0  0  0  0  0  0
   12.0960  -16.8795   23.7364 C   0  0  0  0  0  0  0  0  0  0  0  0
   11.4270  -17.1992   22.7415 O   0  0  0  0  0  0  0  0  0  0  0  0
   11.0013  -19.5903   27.8082 O   0  0  0  0  0  0  0  0  0  0  0  0
   13.4706  -17.0182   23.6924 O   0  0  0  0  0  0  0  0  0  0  0  0
  2  1  1  0
  3  4  1  0
  3  2  1  0
  4  5  1  0
  5  6  1  6
  7  5  1  0
  7  8  2  0
 10  9  1  1
 11 10  1  0
 12 10  1  0
 13 12  1  1
 13 14  1  0
 14  7  1  0
 15 13  1  0
 16 15  2  0
 17 15  1  0
 18 17  1  0
 18 23  1  0
 18 19  1  1
 20 21  1  0
 20 19  1  0
 21 22  2  0
 21 25  1  0
 23 26  1  0
 24 23  2  0
M  END
$$$$
