PDY.pdb
     RDKit          3D

 28 29  0  0  1  0  0  0  0  0999 V2000
   15.9607  -22.2672    1.2786 N   0  0  0  0  0  0  0  0  0  0  0  0
   15.0016  -23.3140    1.4443 C   0  0  0  0  0  0  0  0  0  0  0  0
   13.8764  -22.8376    0.5120 C   0  0  0  0  0  0  0  0  0  0  0  0
   13.8738  -21.3490    0.8509 C   0  0  0  0  0  0  0  0  0  0  0  0
   15.2427  -21.0584    1.4207 C   0  0  1  0  0  0  0  0  0  0  0  0
   15.1059  -20.5669    2.8312 C   0  0  0  0  0  0  0  0  0  0  0  0
   14.2191  -19.6907    3.0066 O   0  0  0  0  0  0  0  0  0  0  0  0
   15.9081  -21.0483    3.8800 N   0  0  0  0  0  0  0  0  0  0  0  0
   15.9098  -20.7599    5.2634 C   0  0  1  0  0  0  0  0  0  0  0  0
   16.4433  -21.8293    6.1938 C   0  0  0  0  0  0  0  0  0  0  0  0
   15.8496  -23.1369    5.8958 C   0  0  0  0  0  0  0  0  0  0  0  0
   14.6521  -23.2366    5.5775 O   0  0  0  0  0  0  0  0  0  0  0  0
   16.4024  -19.4086    5.5428 C   0  0  0  0  0  0  0  0  0  0  0  0
   17.5854  -19.0428    5.2374 O   0  0  0  0  0  0  0  0  0  0  0  0
   16.6339  -24.2646    5.9714 O   0  0  0  0  0  0  0  0  0  0  0  0
   19.4781  -14.3729    1.6670 O   0  0  0  0  0  0  0  0  0  0  0  0
   18.5282  -14.8141    2.5628 C   0  0  0  0  0  0  0  0  0  0  0  0
   18.1300  -14.0005    3.5788 C   0  0  0  0  0  0  0  0  0  0  0  0
   17.1792  -14.4391    4.4766 C   0  0  0  0  0  0  0  0  0  0  0  0
   16.5935  -15.6854    4.4033 C   0  0  0  0  0  0  0  0  0  0  0  0
   15.5890  -16.1397    5.3633 C   0  0  0  0  0  0  0  0  0  0  0  0
   16.1184  -17.0666    6.4364 C   0  0  2  0  0  0  0  0  0  0  0  0
   15.6109  -18.3960    6.1744 N   0  0  0  0  0  0  0  0  0  0  0  0
   15.8060  -16.6051    7.8045 C   0  0  0  0  0  0  0  0  0  0  0  0
   14.9945  -17.3063    8.4666 O   0  0  0  0  0  0  0  0  0  0  0  0
   17.0047  -16.5010    3.3703 C   0  0  0  0  0  0  0  0  0  0  0  0
   17.9605  -16.0823    2.4532 C   0  0  0  0  0  0  0  0  0  0  0  0
   16.3692  -15.4712    8.3290 O   0  0  0  0  0  0  0  0  0  0  0  0
  1  5  1  0
  2  3  1  0
  2  1  1  0
  3  4  1  0
  4  5  1  0
  5  6  1  1
  6  7  2  0
  8  9  1  0
  8  6  1  0
  9 13  1  0
 10 11  1  0
  9 10  1  1
 11 12  2  0
 13 14  2  0
 15 11  1  0
 16 17  1  0
 17 27  2  0
 18 17  1  0
 18 19  2  0
 19 20  1  0
 20 26  2  0
 20 21  1  0
 22 21  1  6
 22 24  1  0
 23 22  1  0
 23 13  1  0
 24 25  2  0
 24 28  1  0
 27 26  1  0
M  END
$$$$
