PDY.pdb
     RDKit          3D

 28 29  0  0  1  0  0  0  0  0999 V2000
   28.2651  -21.7612  -10.5890 N   0  0  0  0  0  0  0  0  0  0  0  0
   29.0838  -20.5942  -10.6934 C   0  0  0  0  0  0  0  0  0  0  0  0
   28.9282  -19.9942   -9.2870 C   0  0  0  0  0  0  0  0  0  0  0  0
   27.4313  -20.2106   -9.0786 C   0  0  0  0  0  0  0  0  0  0  0  0
   27.0467  -21.3295  -10.0182 C   0  0  1  0  0  0  0  0  0  0  0  0
   26.0294  -20.8322  -11.0020 C   0  0  0  0  0  0  0  0  0  0  0  0
   25.2573  -19.9392  -10.5647 O   0  0  0  0  0  0  0  0  0  0  0  0
   25.9439  -21.3263  -12.3150 N   0  0  0  0  0  0  0  0  0  0  0  0
   25.1129  -20.9619  -13.3983 C   0  0  1  0  0  0  0  0  0  0  0  0
   25.5343  -21.4186  -14.7795 C   0  0  0  0  0  0  0  0  0  0  0  0
   26.8558  -20.8901  -15.1332 C   0  0  0  0  0  0  0  0  0  0  0  0
   27.1371  -19.6944  -14.9428 O   0  0  0  0  0  0  0  0  0  0  0  0
   23.6939  -21.1664  -13.0958 C   0  0  0  0  0  0  0  0  0  0  0  0
   23.2316  -22.3054  -12.7558 O   0  0  0  0  0  0  0  0  0  0  0  0
   27.7927  -21.7344  -15.6830 O   0  0  0  0  0  0  0  0  0  0  0  0
   15.1160  -19.2251  -11.5918 O   0  0  0  0  0  0  0  0  0  0  0  0
   16.4651  -19.1678  -11.8678 C   0  0  0  0  0  0  0  0  0  0  0  0
   17.3665  -19.2976  -10.8562 C   0  0  0  0  0  0  0  0  0  0  0  0
   18.7172  -19.2411  -11.1293 C   0  0  0  0  0  0  0  0  0  0  0  0
   19.2209  -19.0562  -12.3996 C   0  0  0  0  0  0  0  0  0  0  0  0
   20.6551  -18.9948  -12.6755 C   0  0  0  0  0  0  0  0  0  0  0  0
   21.3237  -20.3435  -12.8331 C   0  0  2  0  0  0  0  0  0  0  0  0
   22.7166  -20.1214  -13.1554 N   0  0  0  0  0  0  0  0  0  0  0  0
   20.6495  -21.2109  -13.8208 C   0  0  0  0  0  0  0  0  0  0  0  0
   19.8049  -22.0308  -13.3703 O   0  0  0  0  0  0  0  0  0  0  0  0
   18.2986  -18.9257  -13.4164 C   0  0  0  0  0  0  0  0  0  0  0  0
   16.9330  -18.9791  -13.1671 C   0  0  0  0  0  0  0  0  0  0  0  0
   20.9276  -21.1298  -15.1602 O   0  0  0  0  0  0  0  0  0  0  0  0
  1  5  1  0
  2  3  1  0
  2  1  1  0
  3  4  1  0
  4  5  1  0
  5  6  1  6
  6  7  2  0
  8  9  1  0
  8  6  1  0
  9 13  1  0
 10 11  1  0
  9 10  1  6
 11 12  2  0
 13 14  2  0
 15 11  1  0
 16 17  1  0
 17 27  2  0
 18 17  1  0
 18 19  2  0
 19 20  1  0
 20 26  2  0
 20 21  1  0
 22 21  1  6
 22 24  1  0
 23 22  1  0
 23 13  1  0
 24 25  2  0
 24 28  1  0
 27 26  1  0
M  END
$$$$
