PDY.pdb
     RDKit          3D

 28 29  0  0  1  0  0  0  0  0999 V2000
   25.8907  -12.6983  -18.1615 N   0  0  0  0  0  0  0  0  0  0  0  0
   27.2568  -13.0938  -18.0180 C   0  0  0  0  0  0  0  0  0  0  0  0
   27.1821  -13.9712  -16.7583 C   0  0  0  0  0  0  0  0  0  0  0  0
   26.2408  -13.1219  -15.9079 C   0  0  0  0  0  0  0  0  0  0  0  0
   25.4796  -12.2556  -16.8842 C   0  0  1  0  0  0  0  0  0  0  0  0
   25.7583  -10.8101  -16.5966 C   0  0  0  0  0  0  0  0  0  0  0  0
   25.6518  -10.4772  -15.3871 O   0  0  0  0  0  0  0  0  0  0  0  0
   26.1122   -9.8944  -17.6023 N   0  0  0  0  0  0  0  0  0  0  0  0
   26.3118   -8.4960  -17.5648 C   0  0  1  0  0  0  0  0  0  0  0  0
   27.4922   -7.9432  -18.3361 C   0  0  0  0  0  0  0  0  0  0  0  0
   28.7542   -8.5195  -17.8603 C   0  0  0  0  0  0  0  0  0  0  0  0
   28.9104   -8.8131  -16.6626 O   0  0  0  0  0  0  0  0  0  0  0  0
   25.0609   -7.7567  -17.7537 C   0  0  0  0  0  0  0  0  0  0  0  0
   24.5807   -7.5236  -18.9120 O   0  0  0  0  0  0  0  0  0  0  0  0
   29.7751   -8.7355  -18.7567 O   0  0  0  0  0  0  0  0  0  0  0  0
   19.5127  -11.5364  -14.7363 O   0  0  0  0  0  0  0  0  0  0  0  0
   20.1447  -10.5447  -15.4549 C   0  0  0  0  0  0  0  0  0  0  0  0
   21.1248  -10.8739  -16.3403 C   0  0  0  0  0  0  0  0  0  0  0  0
   21.7589   -9.8837  -17.0612 C   0  0  0  0  0  0  0  0  0  0  0  0
   21.4503   -8.5457  -16.9344 C   0  0  0  0  0  0  0  0  0  0  0  0
   22.1323   -7.5053  -17.7022 C   0  0  0  0  0  0  0  0  0  0  0  0
   23.0060   -6.5852  -16.8770 C   0  0  2  0  0  0  0  0  0  0  0  0
   24.2803   -7.2384  -16.6708 N   0  0  0  0  0  0  0  0  0  0  0  0
   22.3736   -6.1727  -15.6072 C   0  0  0  0  0  0  0  0  0  0  0  0
   22.9088   -6.5926  -14.5461 O   0  0  0  0  0  0  0  0  0  0  0  0
   20.4562   -8.2240  -16.0345 C   0  0  0  0  0  0  0  0  0  0  0  0
   19.8025   -9.2029  -15.2967 C   0  0  0  0  0  0  0  0  0  0  0  0
   21.2605   -5.3737  -15.5823 O   0  0  0  0  0  0  0  0  0  0  0  0
  1  5  1  0
  2  3  1  0
  2  1  1  0
  3  4  1  0
  4  5  1  0
  5  6  1  1
  6  7  2  0
  8  9  1  0
  8  6  1  0
  9 13  1  0
 10 11  1  0
  9 10  1  6
 11 12  2  0
 13 14  2  0
 15 11  1  0
 16 17  1  0
 17 27  2  0
 18 17  1  0
 18 19  2  0
 19 20  1  0
 20 26  2  0
 20 21  1  0
 22 21  1  1
 22 24  1  0
 23 22  1  0
 23 13  1  0
 24 25  2  0
 24 28  1  0
 27 26  1  0
M  END
$$$$
