PDY.pdb
     RDKit          3D

 28 29  0  0  1  0  0  0  0  0999 V2000
   27.8869  -22.4368  -18.2263 N   0  0  0  0  0  0  0  0  0  0  0  0
   28.8954  -21.5533  -18.7217 C   0  0  0  0  0  0  0  0  0  0  0  0
   30.1630  -22.3934  -18.4989 C   0  0  0  0  0  0  0  0  0  0  0  0
   29.8547  -22.9639  -17.1168 C   0  0  0  0  0  0  0  0  0  0  0  0
   28.3524  -22.8912  -16.9719 C   0  0  1  0  0  0  0  0  0  0  0  0
   28.0017  -22.0090  -15.8106 C   0  0  0  0  0  0  0  0  0  0  0  0
   28.6143  -22.2669  -14.7414 O   0  0  0  0  0  0  0  0  0  0  0  0
   27.0590  -20.9712  -15.9079 N   0  0  0  0  0  0  0  0  0  0  0  0
   26.5935  -20.0389  -14.9535 C   0  0  1  0  0  0  0  0  0  0  0  0
   26.1661  -18.6787  -15.4642 C   0  0  0  0  0  0  0  0  0  0  0  0
   27.2300  -18.0494  -16.2535 C   0  0  0  0  0  0  0  0  0  0  0  0
   28.4184  -18.1229  -15.8963 O   0  0  0  0  0  0  0  0  0  0  0  0
   25.6673  -20.6484  -13.9957 C   0  0  0  0  0  0  0  0  0  0  0  0
   24.5033  -21.0428  -14.3369 O   0  0  0  0  0  0  0  0  0  0  0  0
   26.9019  -17.3699  -17.4038 O   0  0  0  0  0  0  0  0  0  0  0  0
   28.0876  -18.5270   -6.8121 O   0  0  0  0  0  0  0  0  0  0  0  0
   27.5431  -19.3978   -7.7312 C   0  0  0  0  0  0  0  0  0  0  0  0
   26.1906  -19.4867   -7.8568 C   0  0  0  0  0  0  0  0  0  0  0  0
   25.6427  -20.3570   -8.7760 C   0  0  0  0  0  0  0  0  0  0  0  0
   26.4042  -21.1627   -9.5961 C   0  0  0  0  0  0  0  0  0  0  0  0
   25.8111  -22.0836  -10.5642 C   0  0  0  0  0  0  0  0  0  0  0  0
   25.0342  -21.4126  -11.6764 C   0  0  2  0  0  0  0  0  0  0  0  0
   25.9826  -20.8508  -12.6136 N   0  0  0  0  0  0  0  0  0  0  0  0
   24.0692  -20.4086  -11.1832 C   0  0  0  0  0  0  0  0  0  0  0  0
   24.3907  -19.1980  -11.3239 O   0  0  0  0  0  0  0  0  0  0  0  0
   27.7729  -21.0644   -9.4599 C   0  0  0  0  0  0  0  0  0  0  0  0
   28.3490  -20.1955   -8.5416 C   0  0  0  0  0  0  0  0  0  0  0  0
   22.8833  -20.7735  -10.6013 O   0  0  0  0  0  0  0  0  0  0  0  0
  1  5  1  0
  2  3  1  0
  2  1  1  0
  3  4  1  0
  4  5  1  0
  5  6  1  1
  6  7  2  0
  8  9  1  0
  8  6  1  0
  9 13  1  0
 10 11  1  0
  9 10  1  6
 11 12  2  0
 13 14  2  0
 15 11  1  0
 16 17  1  0
 17 27  2  0
 18 17  1  0
 18 19  2  0
 19 20  1  0
 20 26  2  0
 20 21  1  0
 22 21  1  1
 22 24  1  0
 23 22  1  0
 23 13  1  0
 24 25  2  0
 24 28  1  0
 27 26  1  0
M  END
$$$$
