PDY.pdb
     RDKit          3D

 28 29  0  0  1  0  0  0  0  0999 V2000
   27.8954  -21.1785  -17.1868 N   0  0  0  0  0  0  0  0  0  0  0  0
   27.7721  -21.5171  -18.5700 C   0  0  0  0  0  0  0  0  0  0  0  0
   28.5310  -20.3550  -19.2301 C   0  0  0  0  0  0  0  0  0  0  0  0
   28.0129  -19.1949  -18.3837 C   0  0  0  0  0  0  0  0  0  0  0  0
   27.5403  -19.8143  -17.0891 C   0  0  1  0  0  0  0  0  0  0  0  0
   26.0734  -19.5543  -16.9137 C   0  0  0  0  0  0  0  0  0  0  0  0
   25.7446  -18.3392  -16.9071 O   0  0  0  0  0  0  0  0  0  0  0  0
   25.1349  -20.5902  -16.7675 N   0  0  0  0  0  0  0  0  0  0  0  0
   23.7297  -20.5643  -16.6205 C   0  0  1  0  0  0  0  0  0  0  0  0
   22.9013  -21.0584  -17.7881 C   0  0  0  0  0  0  0  0  0  0  0  0
   21.4905  -20.6892  -17.6322 C   0  0  0  0  0  0  0  0  0  0  0  0
   21.1668  -19.5507  -17.2525 O   0  0  0  0  0  0  0  0  0  0  0  0
   23.3041  -21.0722  -15.3137 C   0  0  0  0  0  0  0  0  0  0  0  0
   23.6529  -22.2229  -14.8884 O   0  0  0  0  0  0  0  0  0  0  0  0
   20.5168  -21.6202  -17.9113 O   0  0  0  0  0  0  0  0  0  0  0  0
   27.4186  -21.1445   -9.3771 O   0  0  0  0  0  0  0  0  0  0  0  0
   26.2535  -20.8044  -10.0300 C   0  0  0  0  0  0  0  0  0  0  0  0
   26.2387  -20.7312  -11.3891 C   0  0  0  0  0  0  0  0  0  0  0  0
   25.0742  -20.3914  -12.0453 C   0  0  0  0  0  0  0  0  0  0  0  0
   23.8937  -20.1144  -11.3884 C   0  0  0  0  0  0  0  0  0  0  0  0
   22.6667  -19.7521  -12.0956 C   0  0  0  0  0  0  0  0  0  0  0  0
   22.1740  -20.7951  -13.0754 C   0  0  2  0  0  0  0  0  0  0  0  0
   22.4711  -20.3326  -14.4137 N   0  0  0  0  0  0  0  0  0  0  0  0
   20.7447  -21.1245  -12.8988 C   0  0  0  0  0  0  0  0  0  0  0  0
   19.9338  -20.5646  -13.6847 O   0  0  0  0  0  0  0  0  0  0  0  0
   23.9206  -20.1913  -10.0119 C   0  0  0  0  0  0  0  0  0  0  0  0
   25.0809  -20.5315   -9.3278 C   0  0  0  0  0  0  0  0  0  0  0  0
   20.3200  -21.9950  -11.9293 O   0  0  0  0  0  0  0  0  0  0  0  0
  1  5  1  0
  2  3  1  0
  2  1  1  0
  3  4  1  0
  4  5  1  0
  5  6  1  6
  6  7  2  0
  8  9  1  0
  8  6  1  0
  9 13  1  0
 10 11  1  0
  9 10  1  6
 11 12  2  0
 13 14  2  0
 15 11  1  0
 16 17  1  0
 17 27  2  0
 18 17  1  0
 18 19  2  0
 19 20  1  0
 20 26  2  0
 20 21  1  0
 22 21  1  1
 22 24  1  0
 23 22  1  0
 23 13  1  0
 24 25  2  0
 24 28  1  0
 27 26  1  0
M  END
$$$$
