PDY.pdb
     RDKit          3D

 28 29  0  0  1  0  0  0  0  0999 V2000
   22.4294  -12.0211  -17.7296 N   0  0  0  0  0  0  0  0  0  0  0  0
   23.6192  -12.2163  -18.4975 C   0  0  0  0  0  0  0  0  0  0  0  0
   24.5086  -12.9564  -17.4859 C   0  0  0  0  0  0  0  0  0  0  0  0
   24.1922  -12.1521  -16.2274 C   0  0  0  0  0  0  0  0  0  0  0  0
   22.8526  -11.5024  -16.4852 C   0  0  1  0  0  0  0  0  0  0  0  0
   23.0007  -10.0105  -16.4400 C   0  0  0  0  0  0  0  0  0  0  0  0
   23.6326   -9.5676  -15.4453 O   0  0  0  0  0  0  0  0  0  0  0  0
   22.4732   -9.1686  -17.4341 N   0  0  0  0  0  0  0  0  0  0  0  0
   22.4540   -7.7606  -17.5528 C   0  0  1  0  0  0  0  0  0  0  0  0
   22.2643   -7.1844  -18.9405 C   0  0  0  0  0  0  0  0  0  0  0  0
   22.5028   -5.7373  -18.9517 C   0  0  0  0  0  0  0  0  0  0  0  0
   21.6538   -4.9469  -18.5050 O   0  0  0  0  0  0  0  0  0  0  0  0
   21.6324   -7.1324  -16.5150 C   0  0  0  0  0  0  0  0  0  0  0  0
   20.3645   -7.2670  -16.4817 O   0  0  0  0  0  0  0  0  0  0  0  0
   23.6842   -5.2543  -19.4652 O   0  0  0  0  0  0  0  0  0  0  0  0
   17.9959   -5.2393   -8.9537 O   0  0  0  0  0  0  0  0  0  0  0  0
   18.7814   -5.6182  -10.0209 C   0  0  0  0  0  0  0  0  0  0  0  0
   20.1071   -5.8605   -9.8299 C   0  0  0  0  0  0  0  0  0  0  0  0
   20.8958   -6.2401  -10.8959 C   0  0  0  0  0  0  0  0  0  0  0  0
   20.4073   -6.3925  -12.1765 C   0  0  0  0  0  0  0  0  0  0  0  0
   21.2545   -6.7923  -13.2987 C   0  0  0  0  0  0  0  0  0  0  0  0
   21.3493   -5.7700  -14.4108 C   0  0  2  0  0  0  0  0  0  0  0  0
   22.1726   -6.3240  -15.4636 N   0  0  0  0  0  0  0  0  0  0  0  0
   21.8385   -4.4554  -13.9473 C   0  0  0  0  0  0  0  0  0  0  0  0
   23.0858   -4.2755  -13.9711 O   0  0  0  0  0  0  0  0  0  0  0  0
   19.0631   -6.1441  -12.3581 C   0  0  0  0  0  0  0  0  0  0  0  0
   18.2479   -5.7607  -11.3006 C   0  0  0  0  0  0  0  0  0  0  0  0
   20.9806   -3.4792  -13.5127 O   0  0  0  0  0  0  0  0  0  0  0  0
  1  5  1  0
  2  3  1  0
  2  1  1  0
  3  4  1  0
  4  5  1  0
  5  6  1  6
  6  7  2  0
  8  9  1  0
  8  6  1  0
  9 13  1  0
 10 11  1  0
  9 10  1  6
 11 12  2  0
 13 14  2  0
 15 11  1  0
 16 17  1  0
 17 27  2  0
 18 17  1  0
 18 19  2  0
 19 20  1  0
 20 26  2  0
 20 21  1  0
 22 21  1  1
 22 24  1  0
 23 22  1  0
 23 13  1  0
 24 25  2  0
 24 28  1  0
 27 26  1  0
M  END
$$$$
