PDY.pdb
     RDKit          3D

 28 29  0  0  1  0  0  0  0  0999 V2000
   18.3318  -12.5901  -28.2835 N   0  0  0  0  0  0  0  0  0  0  0  0
   18.7346  -13.7632  -27.5731 C   0  0  0  0  0  0  0  0  0  0  0  0
   17.7156  -13.7795  -26.4227 C   0  0  0  0  0  0  0  0  0  0  0  0
   17.6996  -12.2939  -26.0713 C   0  0  0  0  0  0  0  0  0  0  0  0
   18.1884  -11.5774  -27.3085 C   0  0  1  0  0  0  0  0  0  0  0  0
   19.4461  -10.8248  -26.9895 C   0  0  0  0  0  0  0  0  0  0  0  0
   19.3979  -10.1253  -25.9439 O   0  0  0  0  0  0  0  0  0  0  0  0
   20.5938  -10.8949  -27.7976 N   0  0  0  0  0  0  0  0  0  0  0  0
   21.8788  -10.3266  -27.6471 C   0  0  1  0  0  0  0  0  0  0  0  0
   22.8500  -10.4942  -28.7971 C   0  0  0  0  0  0  0  0  0  0  0  0
   23.0955  -11.9117  -29.0825 C   0  0  0  0  0  0  0  0  0  0  0  0
   22.2383  -12.6050  -29.6566 O   0  0  0  0  0  0  0  0  0  0  0  0
   21.8194   -8.9716  -27.0928 C   0  0  0  0  0  0  0  0  0  0  0  0
   21.5262   -7.9589  -27.8106 O   0  0  0  0  0  0  0  0  0  0  0  0
   24.2928  -12.4758  -28.7071 O   0  0  0  0  0  0  0  0  0  0  0  0
   19.3981   -1.9409  -22.8073 O   0  0  0  0  0  0  0  0  0  0  0  0
   19.6766   -3.1536  -23.4000 C   0  0  0  0  0  0  0  0  0  0  0  0
   19.0704   -4.2829  -22.9419 C   0  0  0  0  0  0  0  0  0  0  0  0
   19.3468   -5.4980  -23.5332 C   0  0  0  0  0  0  0  0  0  0  0  0
   20.2235   -5.6392  -24.5882 C   0  0  0  0  0  0  0  0  0  0  0  0
   20.5105   -6.9336  -25.2041 C   0  0  0  0  0  0  0  0  0  0  0  0
   21.9709   -7.3303  -25.1831 C   0  0  2  0  0  0  0  0  0  0  0  0
   22.0820   -8.6701  -25.7178 N   0  0  0  0  0  0  0  0  0  0  0  0
   22.5843   -7.2064  -23.8448 C   0  0  0  0  0  0  0  0  0  0  0  0
   22.7811   -8.2782  -23.2113 O   0  0  0  0  0  0  0  0  0  0  0  0
   20.8318   -4.4886  -25.0437 C   0  0  0  0  0  0  0  0  0  0  0  0
   20.5700   -3.2530  -24.4650 C   0  0  0  0  0  0  0  0  0  0  0  0
   22.9227   -5.9879  -23.3169 O   0  0  0  0  0  0  0  0  0  0  0  0
  1  5  1  0
  2  3  1  0
  2  1  1  0
  3  4  1  0
  4  5  1  0
  5  6  1  1
  6  7  2  0
  8  9  1  0
  8  6  1  0
  9 13  1  0
 10 11  1  0
  9 10  1  6
 11 12  2  0
 13 14  2  0
 15 11  1  0
 16 17  1  0
 17 27  2  0
 18 17  1  0
 18 19  2  0
 19 20  1  0
 20 26  2  0
 20 21  1  0
 22 21  1  1
 22 24  1  0
 23 22  1  0
 23 13  1  0
 24 25  2  0
 24 28  1  0
 27 26  1  0
M  END
$$$$
