PDY.pdb
     RDKit          3D

 28 29  0  0  1  0  0  0  0  0999 V2000
   15.1115  -13.4621  -19.8631 N   0  0  0  0  0  0  0  0  0  0  0  0
   14.9059  -14.5895  -19.0088 C   0  0  0  0  0  0  0  0  0  0  0  0
   13.3898  -14.7983  -19.1507 C   0  0  0  0  0  0  0  0  0  0  0  0
   12.9237  -13.3454  -19.1010 C   0  0  0  0  0  0  0  0  0  0  0  0
   14.1226  -12.5189  -19.5040 C   0  0  1  0  0  0  0  0  0  0  0  0
   14.5025  -11.6027  -18.3787 C   0  0  0  0  0  0  0  0  0  0  0  0
   13.5918  -10.8220  -17.9966 O   0  0  0  0  0  0  0  0  0  0  0  0
   15.7804  -11.6142  -17.7939 N   0  0  0  0  0  0  0  0  0  0  0  0
   16.3332  -10.8507  -16.7411 C   0  0  1  0  0  0  0  0  0  0  0  0
   17.3833  -11.5184  -15.8778 C   0  0  0  0  0  0  0  0  0  0  0  0
   16.8139  -12.6363  -15.1181 C   0  0  0  0  0  0  0  0  0  0  0  0
   16.7350  -13.7723  -15.6164 O   0  0  0  0  0  0  0  0  0  0  0  0
   16.6702   -9.4899  -17.1667 C   0  0  0  0  0  0  0  0  0  0  0  0
   17.2962   -9.2559  -18.2530 O   0  0  0  0  0  0  0  0  0  0  0  0
   16.3625  -12.4181  -13.8370 O   0  0  0  0  0  0  0  0  0  0  0  0
   16.4362   -1.0548  -19.2754 O   0  0  0  0  0  0  0  0  0  0  0  0
   16.2257   -2.3523  -18.8612 C   0  0  0  0  0  0  0  0  0  0  0  0
   16.5430   -3.3845  -19.6898 C   0  0  0  0  0  0  0  0  0  0  0  0
   16.3338   -4.6841  -19.2780 C   0  0  0  0  0  0  0  0  0  0  0  0
   15.8086   -5.0073  -18.0446 C   0  0  0  0  0  0  0  0  0  0  0  0
   15.5886   -6.3891  -17.6212 C   0  0  0  0  0  0  0  0  0  0  0  0
   16.7253   -6.9912  -16.8237 C   0  0  2  0  0  0  0  0  0  0  0  0
   16.3320   -8.3211  -16.4115 N   0  0  0  0  0  0  0  0  0  0  0  0
   17.1409   -6.1491  -15.6833 C   0  0  0  0  0  0  0  0  0  0  0  0
   16.6844   -6.4641  -14.5515 O   0  0  0  0  0  0  0  0  0  0  0  0
   15.4906   -3.9536  -17.2138 C   0  0  0  0  0  0  0  0  0  0  0  0
   15.6920   -2.6360  -17.6053 C   0  0  0  0  0  0  0  0  0  0  0  0
   17.9805   -5.0783  -15.8461 O   0  0  0  0  0  0  0  0  0  0  0  0
  1  5  1  0
  2  3  1  0
  2  1  1  0
  3  4  1  0
  4  5  1  0
  5  6  1  1
  6  7  2  0
  8  9  1  0
  8  6  1  0
  9 13  1  0
 10 11  1  0
  9 10  1  6
 11 12  2  0
 13 14  2  0
 15 11  1  0
 16 17  1  0
 17 27  2  0
 18 17  1  0
 18 19  2  0
 19 20  1  0
 20 26  2  0
 20 21  1  0
 22 21  1  1
 22 24  1  0
 23 22  1  0
 23 13  1  0
 24 25  2  0
 24 28  1  0
 27 26  1  0
M  END
$$$$
