ASH.pdb
     RDKit          3D

 22 22  0  0  1  0  0  0  0  0999 V2000
    8.3263  -12.2522   19.0526 C   0  0  0  0  0  0  0  0  0  0  0  0
    8.5746  -13.6524   18.5078 C   0  0  2  0  0  0  0  0  0  0  0  0
    7.7515  -13.9018   17.3655 N   0  0  0  0  0  0  0  0  0  0  0  0
    8.4248  -14.6771   19.5677 C   0  0  0  0  0  0  0  0  0  0  0  0
    7.2773  -15.1365   19.7953 O   0  0  0  0  0  0  0  0  0  0  0  0
   11.6475  -16.6925   20.9185 O   0  0  0  0  0  0  0  0  0  0  0  0
   10.4145  -17.3354   20.8663 C   0  0  0  0  0  0  0  0  0  0  0  0
    9.3167  -16.3329   21.2473 C   0  0  2  0  0  0  0  0  0  0  0  0
    9.4976  -15.1807   20.3513 N   0  0  0  0  0  0  0  0  0  0  0  0
    9.5630  -15.9459   22.6526 C   0  0  0  0  0  0  0  0  0  0  0  0
   10.3818  -15.0076   22.8699 O   0  0  0  0  0  0  0  0  0  0  0  0
    8.9578  -16.5396   23.7620 N   0  0  0  0  0  0  0  0  0  0  0  0
    9.2671  -16.1626   25.1681 C   0  0  1  0  0  0  0  0  0  0  0  0
    7.9978  -15.9759   25.9279 C   0  0  0  0  0  0  0  0  0  0  0  0
    7.4956  -14.5868   25.8144 C   0  0  0  0  0  0  0  0  0  0  0  0
    8.0680  -13.4808   25.2383 C   0  0  0  0  0  0  0  0  0  0  0  0
    7.1879  -12.4623   25.3254 N   0  0  0  0  0  0  0  0  0  0  0  0
    6.0898  -12.9087   25.9366 C   0  0  0  0  0  0  0  0  0  0  0  0
    6.2461  -14.1998   26.2468 N   0  0  0  0  0  0  0  0  0  0  0  0
    9.9359  -17.4092   25.6722 C   0  0  0  0  0  0  0  0  0  0  0  0
    9.9786  -18.4213   24.9527 O   0  0  0  0  0  0  0  0  0  0  0  0
   10.4963  -17.4553   26.9075 O   0  0  0  0  0  0  0  0  0  0  0  0
  2  1  1  1
  2  4  1  0
  2  3  1  0
  4  9  1  0
  5  4  2  0
  7  6  1  0
  8  7  1  6
  8 10  1  0
  9  8  1  0
 10 12  1  0
 10 11  2  0
 12 13  1  0
 13 20  1  0
 13 14  1  1
 14 15  1  0
 15 16  2  0
 15 19  1  0
 16 17  1  0
 17 18  1  0
 19 18  2  0
 20 22  1  0
 21 20  2  0
M  END
$$$$
