ASH.pdb
     RDKit          3D

 22 22  0  0  1  0  0  0  0  0999 V2000
    8.5588  -12.1867   19.1701 C   0  0  0  0  0  0  0  0  0  0  0  0
    8.7040  -13.6074   18.6415 C   0  0  2  0  0  0  0  0  0  0  0  0
    7.9211  -13.7874   17.4587 N   0  0  0  0  0  0  0  0  0  0  0  0
    8.4058  -14.6068   19.6942 C   0  0  0  0  0  0  0  0  0  0  0  0
    7.2244  -15.0212   19.8059 O   0  0  0  0  0  0  0  0  0  0  0  0
   11.2479  -16.9698   21.1693 O   0  0  0  0  0  0  0  0  0  0  0  0
    9.9219  -17.3913   21.1846 C   0  0  0  0  0  0  0  0  0  0  0  0
    9.0273  -16.1986   21.5485 C   0  0  2  0  0  0  0  0  0  0  0  0
    9.3709  -15.1338   20.5938 N   0  0  0  0  0  0  0  0  0  0  0  0
    9.3871  -15.8014   22.9261 C   0  0  0  0  0  0  0  0  0  0  0  0
   10.4617  -15.1561   23.0911 O   0  0  0  0  0  0  0  0  0  0  0  0
    8.6280  -16.0854   24.0630 N   0  0  0  0  0  0  0  0  0  0  0  0
    9.0498  -15.7277   25.4446 C   0  0  1  0  0  0  0  0  0  0  0  0
    7.8453  -15.5235   26.2995 C   0  0  0  0  0  0  0  0  0  0  0  0
    7.3346  -14.1366   26.1966 C   0  0  0  0  0  0  0  0  0  0  0  0
    7.8834  -13.0313   25.5968 C   0  0  0  0  0  0  0  0  0  0  0  0
    7.0029  -12.0155   25.7086 N   0  0  0  0  0  0  0  0  0  0  0  0
    5.9274  -12.4630   26.3581 C   0  0  0  0  0  0  0  0  0  0  0  0
    6.0987  -13.7520   26.6687 N   0  0  0  0  0  0  0  0  0  0  0  0
    9.7294  -16.9918   25.8871 C   0  0  0  0  0  0  0  0  0  0  0  0
    9.6754  -18.0054   25.1705 O   0  0  0  0  0  0  0  0  0  0  0  0
   10.4039  -17.0520   27.0633 O   0  0  0  0  0  0  0  0  0  0  0  0
  2  1  1  1
  2  4  1  0
  2  3  1  0
  4  9  1  0
  5  4  2  0
  7  6  1  0
  8  7  1  6
  8 10  1  0
  9  8  1  0
 10 12  1  0
 10 11  2  0
 12 13  1  0
 13 20  1  0
 13 14  1  1
 14 15  1  0
 15 16  2  0
 15 19  1  0
 16 17  1  0
 17 18  1  0
 19 18  2  0
 20 22  1  0
 21 20  2  0
M  END
$$$$
