ASH.pdb
     RDKit          3D

 22 22  0  0  1  0  0  0  0  0999 V2000
    8.2906  -15.4678   16.1016 C   0  0  0  0  0  0  0  0  0  0  0  0
    7.7877  -14.1910   16.7618 C   0  0  2  0  0  0  0  0  0  0  0  0
    7.8613  -13.0906   15.8519 N   0  0  0  0  0  0  0  0  0  0  0  0
    8.4883  -13.9349   18.0423 C   0  0  0  0  0  0  0  0  0  0  0  0
    9.6856  -13.5550   18.0015 O   0  0  0  0  0  0  0  0  0  0  0  0
    6.9357  -15.1324   21.6027 O   0  0  0  0  0  0  0  0  0  0  0  0
    7.6527  -13.9443   21.7048 C   0  0  0  0  0  0  0  0  0  0  0  0
    8.6690  -13.8788   20.5568 C   0  0  2  0  0  0  0  0  0  0  0  0
    7.8953  -14.0904   19.3240 N   0  0  0  0  0  0  0  0  0  0  0  0
    9.6245  -14.9862   20.7706 C   0  0  0  0  0  0  0  0  0  0  0  0
    9.3966  -16.0821   20.1830 O   0  0  0  0  0  0  0  0  0  0  0  0
   10.7637  -14.9138   21.5746 N   0  0  0  0  0  0  0  0  0  0  0  0
   11.7612  -16.0123   21.6894 C   0  0  1  0  0  0  0  0  0  0  0  0
   13.1391  -15.4436   21.6577 C   0  0  0  0  0  0  0  0  0  0  0  0
   13.5536  -15.0994   20.2777 C   0  0  0  0  0  0  0  0  0  0  0  0
   12.9375  -15.3507   19.0776 C   0  0  0  0  0  0  0  0  0  0  0  0
   13.6705  -14.7737   18.1034 N   0  0  0  0  0  0  0  0  0  0  0  0
   14.7190  -14.1731   18.6680 C   0  0  0  0  0  0  0  0  0  0  0  0
   14.6759  -14.3532   19.9921 N   0  0  0  0  0  0  0  0  0  0  0  0
   11.4939  -16.5156   23.0789 C   0  0  0  0  0  0  0  0  0  0  0  0
   10.6168  -15.9752   23.7735 O   0  0  0  0  0  0  0  0  0  0  0  0
   12.1973  -17.5542   23.5972 O   0  0  0  0  0  0  0  0  0  0  0  0
  2  1  1  6
  2  4  1  0
  2  3  1  0
  4  9  1  0
  5  4  2  0
  7  6  1  0
  8  7  1  1
  8 10  1  0
  9  8  1  0
 10 12  1  0
 10 11  2  0
 12 13  1  0
 13 20  1  0
 13 14  1  1
 14 15  1  0
 15 16  2  0
 15 19  1  0
 16 17  1  0
 17 18  1  0
 19 18  2  0
 20 22  1  0
 21 20  2  0
M  END
$$$$
