ASH.pdb
     RDKit          3D

 22 22  0  0  1  0  0  0  0  0999 V2000
    7.7150  -15.5715   16.6369 C   0  0  0  0  0  0  0  0  0  0  0  0
    7.7037  -14.1301   17.1280 C   0  0  2  0  0  0  0  0  0  0  0  0
    8.0785  -13.2366   16.0766 N   0  0  0  0  0  0  0  0  0  0  0  0
    8.5286  -13.9706   18.3487 C   0  0  0  0  0  0  0  0  0  0  0  0
    9.7554  -13.7336   18.2128 O   0  0  0  0  0  0  0  0  0  0  0  0
    7.1823  -14.9317   22.0989 O   0  0  0  0  0  0  0  0  0  0  0  0
    7.9539  -13.7747   22.0521 C   0  0  0  0  0  0  0  0  0  0  0  0
    8.8932  -13.8544   20.8411 C   0  0  2  0  0  0  0  0  0  0  0  0
    8.0246  -14.0677   19.6735 N   0  0  0  0  0  0  0  0  0  0  0  0
    9.7712  -15.0234   21.0597 C   0  0  0  0  0  0  0  0  0  0  0  0
    9.4070  -16.1323   20.5738 O   0  0  0  0  0  0  0  0  0  0  0  0
   10.9764  -14.9961   21.7642 N   0  0  0  0  0  0  0  0  0  0  0  0
   11.9336  -16.1350   21.8019 C   0  0  1  0  0  0  0  0  0  0  0  0
   13.3300  -15.6193   21.7183 C   0  0  0  0  0  0  0  0  0  0  0  0
   13.6599  -15.1629   20.3481 C   0  0  0  0  0  0  0  0  0  0  0  0
   13.1415  -15.5456   19.1366 C   0  0  0  0  0  0  0  0  0  0  0  0
   13.7160  -14.7888   18.1791 N   0  0  0  0  0  0  0  0  0  0  0  0
   14.5716  -13.9502   18.7652 C   0  0  0  0  0  0  0  0  0  0  0  0
   14.5601  -14.1532   20.0866 N   0  0  0  0  0  0  0  0  0  0  0  0
   11.7126  -16.6664   23.1890 C   0  0  0  0  0  0  0  0  0  0  0  0
   10.9132  -16.0946   23.9493 O   0  0  0  0  0  0  0  0  0  0  0  0
   12.3744  -17.7644   23.6345 O   0  0  0  0  0  0  0  0  0  0  0  0
  2  1  1  6
  2  4  1  0
  2  3  1  0
  4  9  1  0
  5  4  2  0
  7  6  1  0
  8  7  1  1
  8 10  1  0
  9  8  1  0
 10 12  1  0
 10 11  2  0
 12 13  1  0
 13 20  1  0
 13 14  1  1
 14 15  1  0
 15 16  2  0
 15 19  1  0
 16 17  1  0
 17 18  1  0
 19 18  2  0
 20 22  1  0
 21 20  2  0
M  END
$$$$
