ASH.pdb
     RDKit          3D

 22 22  0  0  1  0  0  0  0  0999 V2000
   11.7136  -15.7785   14.8242 C   0  0  0  0  0  0  0  0  0  0  0  0
   10.7825  -16.9782   14.9366 C   0  0  2  0  0  0  0  0  0  0  0  0
    9.7182  -16.8807   13.9869 N   0  0  0  0  0  0  0  0  0  0  0  0
   10.3059  -17.1615   16.3277 C   0  0  0  0  0  0  0  0  0  0  0  0
    9.3298  -16.4735   16.7194 O   0  0  0  0  0  0  0  0  0  0  0  0
   12.3064  -19.5190   18.8488 O   0  0  0  0  0  0  0  0  0  0  0  0
   10.9464  -19.5508   19.1414 C   0  0  0  0  0  0  0  0  0  0  0  0
   10.2910  -18.2780   18.5887 C   0  0  2  0  0  0  0  0  0  0  0  0
   10.8807  -18.0690   17.2576 N   0  0  0  0  0  0  0  0  0  0  0  0
   10.6613  -17.1771   19.5030 C   0  0  0  0  0  0  0  0  0  0  0  0
   11.6624  -16.4686   19.1962 O   0  0  0  0  0  0  0  0  0  0  0  0
    9.9874  -16.8590   20.6837 N   0  0  0  0  0  0  0  0  0  0  0  0
   10.3374  -15.6955   21.5431 C   0  0  1  0  0  0  0  0  0  0  0  0
    9.1267  -14.8542   21.7656 C   0  0  0  0  0  0  0  0  0  0  0  0
    8.7994  -14.0452   20.5684 C   0  0  0  0  0  0  0  0  0  0  0  0
    9.4653  -13.9163   19.3756 C   0  0  0  0  0  0  0  0  0  0  0  0
    8.7313  -13.1195   18.5720 N   0  0  0  0  0  0  0  0  0  0  0  0
    7.6323  -12.7551   19.2340 C   0  0  0  0  0  0  0  0  0  0  0  0
    7.6442  -13.3033   20.4534 N   0  0  0  0  0  0  0  0  0  0  0  0
   10.6817  -16.3728   22.8386 C   0  0  0  0  0  0  0  0  0  0  0  0
   11.1354  -15.7050   23.7831 O   0  0  0  0  0  0  0  0  0  0  0  0
   10.5095  -17.7093   23.0000 O   0  0  0  0  0  0  0  0  0  0  0  0
  2  1  1  1
  2  4  1  0
  2  3  1  0
  4  9  1  0
  5  4  2  0
  7  6  1  0
  8  7  1  1
  8 10  1  0
  9  8  1  0
 10 12  1  0
 10 11  2  0
 12 13  1  0
 13 20  1  0
 13 14  1  1
 14 15  1  0
 15 16  2  0
 15 19  1  0
 16 17  1  0
 17 18  1  0
 19 18  2  0
 20 22  1  0
 21 20  2  0
M  END
$$$$
