ASH.pdb
     RDKit          3D

 22 22  0  0  1  0  0  0  0  0999 V2000
    6.4746  -19.9527   16.2330 C   0  0  0  0  0  0  0  0  0  0  0  0
    6.4190  -20.2693   17.7214 C   0  0  2  0  0  0  0  0  0  0  0  0
    5.2328  -19.7275   18.3078 N   0  0  0  0  0  0  0  0  0  0  0  0
    7.6579  -19.8378   18.4104 C   0  0  0  0  0  0  0  0  0  0  0  0
    8.7547  -19.9883   17.8153 O   0  0  0  0  0  0  0  0  0  0  0  0
    7.5663  -17.7629   21.9223 O   0  0  0  0  0  0  0  0  0  0  0  0
    8.6623  -17.5581   21.0898 C   0  0  0  0  0  0  0  0  0  0  0  0
    8.9613  -18.8605   20.3351 C   0  0  2  0  0  0  0  0  0  0  0  0
    7.6924  -19.2608   19.7082 N   0  0  0  0  0  0  0  0  0  0  0  0
    9.3798  -19.8527   21.3478 C   0  0  0  0  0  0  0  0  0  0  0  0
    8.4734  -20.4632   21.9835 O   0  0  0  0  0  0  0  0  0  0  0  0
   10.7043  -20.1682   21.6567 N   0  0  0  0  0  0  0  0  0  0  0  0
   11.0929  -21.1747   22.6818 C   0  0  1  0  0  0  0  0  0  0  0  0
   12.1030  -22.1098   22.1086 C   0  0  0  0  0  0  0  0  0  0  0  0
   11.4709  -23.1195   21.2278 C   0  0  0  0  0  0  0  0  0  0  0  0
   10.1836  -23.5939   21.2033 C   0  0  0  0  0  0  0  0  0  0  0  0
   10.0753  -24.4533   20.1692 N   0  0  0  0  0  0  0  0  0  0  0  0
   11.2574  -24.5209   19.5552 C   0  0  0  0  0  0  0  0  0  0  0  0
   12.1287  -23.7193   20.1763 N   0  0  0  0  0  0  0  0  0  0  0  0
   11.7786  -20.3130   23.7029 C   0  0  0  0  0  0  0  0  0  0  0  0
   12.0228  -20.7694   24.8325 O   0  0  0  0  0  0  0  0  0  0  0  0
   12.1373  -19.0356   23.4172 O   0  0  0  0  0  0  0  0  0  0  0  0
  2  1  1  6
  2  4  1  0
  2  3  1  0
  4  9  1  0
  5  4  2  0
  7  6  1  0
  8  7  1  1
  8 10  1  0
  9  8  1  0
 10 12  1  0
 10 11  2  0
 12 13  1  0
 13 20  1  0
 13 14  1  6
 14 15  1  0
 15 16  2  0
 15 19  1  0
 16 17  1  0
 17 18  1  0
 19 18  2  0
 20 22  1  0
 21 20  2  0
M  END
$$$$
