ASH.pdb
     RDKit          3D

 22 22  0  0  1  0  0  0  0  0999 V2000
    8.1729  -15.1821   14.8501 C   0  0  0  0  0  0  0  0  0  0  0  0
    9.1456  -16.3084   14.5274 C   0  0  2  0  0  0  0  0  0  0  0  0
    8.4701  -17.5686   14.5124 N   0  0  0  0  0  0  0  0  0  0  0  0
   10.3157  -16.2864   15.4363 C   0  0  0  0  0  0  0  0  0  0  0  0
   11.0557  -15.2705   15.4316 O   0  0  0  0  0  0  0  0  0  0  0  0
   12.8875  -18.4436   18.9640 O   0  0  0  0  0  0  0  0  0  0  0  0
   11.7566  -18.4348   18.1533 C   0  0  0  0  0  0  0  0  0  0  0  0
   11.8785  -17.2839   17.1455 C   0  0  2  0  0  0  0  0  0  0  0  0
   10.6624  -17.3432   16.3203 N   0  0  0  0  0  0  0  0  0  0  0  0
   13.0788  -17.5595   16.3279 C   0  0  0  0  0  0  0  0  0  0  0  0
   12.9602  -18.3654   15.3611 O   0  0  0  0  0  0  0  0  0  0  0  0
   14.3378  -16.9954   16.5426 N   0  0  0  0  0  0  0  0  0  0  0  0
   15.5018  -17.2135   15.6413 C   0  0  1  0  0  0  0  0  0  0  0  0
   15.7057  -16.0097   14.7855 C   0  0  0  0  0  0  0  0  0  0  0  0
   14.9109  -16.0889   13.5378 C   0  0  0  0  0  0  0  0  0  0  0  0
   14.4508  -17.1814   12.8468 C   0  0  0  0  0  0  0  0  0  0  0  0
   13.7113  -16.7379   11.8094 N   0  0  0  0  0  0  0  0  0  0  0  0
   13.7010  -15.4046   11.8421 C   0  0  0  0  0  0  0  0  0  0  0  0
   14.4227  -14.9788   12.8839 N   0  0  0  0  0  0  0  0  0  0  0  0
   16.6336  -17.2855   16.6258 C   0  0  0  0  0  0  0  0  0  0  0  0
   16.6178  -16.5661   17.6388 O   0  0  0  0  0  0  0  0  0  0  0  0
   17.6829  -18.1239   16.4299 O   0  0  0  0  0  0  0  0  0  0  0  0
  2  1  1  1
  2  4  1  0
  2  3  1  0
  4  9  1  0
  5  4  2  0
  7  6  1  0
  8  7  1  1
  8 10  1  0
  9  8  1  0
 10 12  1  0
 10 11  2  0
 12 13  1  0
 13 20  1  0
 13 14  1  6
 14 15  1  0
 15 16  2  0
 15 19  1  0
 16 17  1  0
 17 18  1  0
 19 18  2  0
 20 22  1  0
 21 20  2  0
M  END
$$$$
