AKC.pdb
     RDKit          3D

 21 20  0  0  1  0  0  0  0  0999 V2000
    8.9754  -12.2606   19.7226 C   0  0  0  0  0  0  0  0  0  0  0  0
    8.5860  -13.6959   19.3618 C   0  0  2  0  0  0  0  0  0  0  0  0
    7.3697  -13.6017   18.5842 N   0  0  0  0  0  0  0  0  0  0  0  0
    8.3141  -14.4422   20.5934 C   0  0  0  0  0  0  0  0  0  0  0  0
    7.1803  -14.2990   21.1501 O   0  0  0  0  0  0  0  0  0  0  0  0
    9.2643  -15.3246   21.1988 N   0  0  0  0  0  0  0  0  0  0  0  0
    8.8903  -16.0543   22.3615 C   0  0  1  0  0  0  0  0  0  0  0  0
    9.3786  -17.4866   22.3525 C   0  0  0  0  0  0  0  0  0  0  0  0
    8.6264  -18.3301   21.3474 C   0  0  0  0  0  0  0  0  0  0  0  0
    9.2466  -19.7072   21.3622 C   0  0  0  0  0  0  0  0  0  0  0  0
    8.4892  -20.6789   20.4734 C   0  0  0  0  0  0  0  0  0  0  0  0
    9.0714  -21.9980   20.5103 N   0  0  0  0  0  0  0  0  0  0  0  0
    9.3695  -15.4448   23.6226 C   0  0  0  0  0  0  0  0  0  0  0  0
   10.5594  -15.0620   23.6757 O   0  0  0  0  0  0  0  0  0  0  0  0
    8.5530  -15.2744   24.7656 N   0  0  0  0  0  0  0  0  0  0  0  0
    9.0347  -14.5546   25.9387 C   0  0  1  0  0  0  0  0  0  0  0  0
    7.9094  -13.7650   26.5860 C   0  0  0  0  0  0  0  0  0  0  0  0
    8.4724  -12.9938   28.1404 S   0  0  0  0  0  0  0  0  0  0  0  0
    9.5396  -15.5222   26.9372 C   0  0  0  0  0  0  0  0  0  0  0  0
    9.0618  -16.6718   26.9875 O   0  0  0  0  0  0  0  0  0  0  0  0
   10.5414  -15.2147   27.8451 O   0  0  0  0  0  0  0  0  0  0  0  0
  2  1  1  1
  3  2  1  0
  4  2  1  0
  4  5  2  0
  6  7  1  0
  6  4  1  0
  7  8  1  6
  9  8  1  0
 10 11  1  0
 10  9  1  0
 11 12  1  0
 13  7  1  0
 14 13  2  0
 15 13  1  0
 16 15  1  0
 16 19  1  0
 16 17  1  1
 18 17  1  0
 19 21  1  0
 20 19  2  0
M  END
$$$$
