AKC.pdb
     RDKit          3D

 21 20  0  0  1  0  0  0  0  0999 V2000
    8.2008  -13.3948   20.0287 C   0  0  0  0  0  0  0  0  0  0  0  0
    7.8168  -14.8624   20.2295 C   0  0  2  0  0  0  0  0  0  0  0  0
    6.6980  -15.1122   19.3470 N   0  0  0  0  0  0  0  0  0  0  0  0
    7.3894  -15.0599   21.6174 C   0  0  0  0  0  0  0  0  0  0  0  0
    6.2841  -14.5534   21.9882 O   0  0  0  0  0  0  0  0  0  0  0  0
    8.1573  -15.7960   22.5747 N   0  0  0  0  0  0  0  0  0  0  0  0
    7.6548  -15.9488   23.8970 C   0  0  1  0  0  0  0  0  0  0  0  0
    7.9471  -17.3077   24.4953 C   0  0  0  0  0  0  0  0  0  0  0  0
    7.0170  -18.3711   23.9552 C   0  0  0  0  0  0  0  0  0  0  0  0
    7.4569  -19.6924   24.5399 C   0  0  0  0  0  0  0  0  0  0  0  0
    6.5879  -20.8418   24.0588 C   0  0  0  0  0  0  0  0  0  0  0  0
    6.9885  -22.0950   24.6498 N   0  0  0  0  0  0  0  0  0  0  0  0
    8.1737  -14.9399   24.8478 C   0  0  0  0  0  0  0  0  0  0  0  0
    9.3989  -14.6877   24.8271 O   0  0  0  0  0  0  0  0  0  0  0  0
    7.3572  -14.2496   25.7746 N   0  0  0  0  0  0  0  0  0  0  0  0
    7.9245  -13.2894   26.7141 C   0  0  1  0  0  0  0  0  0  0  0  0
    6.8334  -12.4328   27.3337 C   0  0  0  0  0  0  0  0  0  0  0  0
    5.7932  -11.6762   26.0400 S   0  0  0  0  0  0  0  0  0  0  0  0
    8.6051  -14.0150   27.8089 C   0  0  0  0  0  0  0  0  0  0  0  0
    9.2080  -13.3809   28.6959 O   0  0  0  0  0  0  0  0  0  0  0  0
    8.6107  -15.3980   27.9071 O   0  0  0  0  0  0  0  0  0  0  0  0
  2  1  1  1
  3  2  1  0
  4  2  1  0
  4  5  2  0
  6  7  1  0
  6  4  1  0
  7  8  1  1
  9  8  1  0
 10 11  1  0
 10  9  1  0
 11 12  1  0
 13  7  1  0
 14 13  2  0
 15 13  1  0
 16 15  1  0
 16 19  1  0
 16 17  1  1
 18 17  1  0
 19 21  1  0
 20 19  2  0
M  END
$$$$
