AKC.pdb
     RDKit          3D

 21 20  0  0  1  0  0  0  0  0999 V2000
    8.0484  -12.3391   20.0555 C   0  0  0  0  0  0  0  0  0  0  0  0
    8.0554  -13.8616   19.9010 C   0  0  2  0  0  0  0  0  0  0  0  0
    6.8941  -14.1927   19.1044 N   0  0  0  0  0  0  0  0  0  0  0  0
    7.9238  -14.4777   21.2242 C   0  0  0  0  0  0  0  0  0  0  0  0
    6.7676  -14.5455   21.7480 O   0  0  0  0  0  0  0  0  0  0  0  0
    9.0352  -15.0065   21.9544 N   0  0  0  0  0  0  0  0  0  0  0  0
    8.7986  -15.6843   23.1828 C   0  0  1  0  0  0  0  0  0  0  0  0
    9.4078  -17.0687   23.2299 C   0  0  0  0  0  0  0  0  0  0  0  0
    8.7161  -18.0194   22.2785 C   0  0  0  0  0  0  0  0  0  0  0  0
    9.3852  -19.3658   22.4225 C   0  0  0  0  0  0  0  0  0  0  0  0
    8.8171  -20.3872   21.4520 C   0  0  0  0  0  0  0  0  0  0  0  0
    9.4456  -21.6760   21.6079 N   0  0  0  0  0  0  0  0  0  0  0  0
    9.3002  -14.9534   24.3684 C   0  0  0  0  0  0  0  0  0  0  0  0
   10.4517  -14.4671   24.3157 O   0  0  0  0  0  0  0  0  0  0  0  0
    8.5461  -14.7781   25.5528 N   0  0  0  0  0  0  0  0  0  0  0  0
    9.0991  -14.0753   26.7046 C   0  0  1  0  0  0  0  0  0  0  0  0
    8.0779  -13.1152   27.2910 C   0  0  0  0  0  0  0  0  0  0  0  0
    6.6354  -12.9522   26.1863 S   0  0  0  0  0  0  0  0  0  0  0  0
    9.4536  -15.0544   27.7552 C   0  0  0  0  0  0  0  0  0  0  0  0
    9.1836  -16.2606   27.5992 O   0  0  0  0  0  0  0  0  0  0  0  0
   10.0865  -14.6968   28.9359 O   0  0  0  0  0  0  0  0  0  0  0  0
  2  1  1  1
  3  2  1  0
  4  2  1  0
  4  5  2  0
  6  7  1  0
  6  4  1  0
  7  8  1  6
  9  8  1  0
 10 11  1  0
 10  9  1  0
 11 12  1  0
 13  7  1  0
 14 13  2  0
 15 13  1  0
 16 15  1  0
 16 19  1  0
 16 17  1  1
 18 17  1  0
 19 21  1  0
 20 19  2  0
M  END
$$$$
