AKC.pdb
     RDKit          3D

 21 20  0  0  1  0  0  0  0  0999 V2000
   13.0974  -20.3955   14.3881 C   0  0  0  0  0  0  0  0  0  0  0  0
   11.6578  -19.8782   14.3464 C   0  0  2  0  0  0  0  0  0  0  0  0
   11.7100  -18.5894   13.6912 N   0  0  0  0  0  0  0  0  0  0  0  0
   11.1723  -19.7023   15.7180 C   0  0  0  0  0  0  0  0  0  0  0  0
   11.2465  -18.5469   16.2428 O   0  0  0  0  0  0  0  0  0  0  0  0
   10.6187  -20.7694   16.4943 N   0  0  0  0  0  0  0  0  0  0  0  0
    9.9339  -20.4645   17.7035 C   0  0  1  0  0  0  0  0  0  0  0  0
    8.9481  -21.5345   18.1197 C   0  0  0  0  0  0  0  0  0  0  0  0
    8.0932  -21.0881   19.2849 C   0  0  0  0  0  0  0  0  0  0  0  0
    7.0769  -22.1759   19.5398 C   0  0  0  0  0  0  0  0  0  0  0  0
    6.0641  -21.7683   20.5961 C   0  0  0  0  0  0  0  0  0  0  0  0
    5.0730  -22.7948   20.8068 N   0  0  0  0  0  0  0  0  0  0  0  0
   10.8369  -20.2408   18.8550 C   0  0  0  0  0  0  0  0  0  0  0  0
   11.9259  -20.8562   18.8765 O   0  0  0  0  0  0  0  0  0  0  0  0
   10.5315  -19.3699   19.9276 N   0  0  0  0  0  0  0  0  0  0  0  0
   11.4638  -19.1736   21.0315 C   0  0  1  0  0  0  0  0  0  0  0  0
   11.2429  -17.8219   21.6894 C   0  0  0  0  0  0  0  0  0  0  0  0
   12.3538  -17.6109   23.1209 S   0  0  0  0  0  0  0  0  0  0  0  0
   11.2399  -20.2165   22.0565 C   0  0  0  0  0  0  0  0  0  0  0  0
   12.2108  -20.7312   22.6437 O   0  0  0  0  0  0  0  0  0  0  0  0
    9.9771  -20.6661   22.4107 O   0  0  0  0  0  0  0  0  0  0  0  0
  2  1  1  1
  3  2  1  0
  4  2  1  0
  4  5  2  0
  6  7  1  0
  6  4  1  0
  7  8  1  1
  9  8  1  0
 10 11  1  0
 10  9  1  0
 11 12  1  0
 13  7  1  0
 14 13  2  0
 15 13  1  0
 16 15  1  0
 16 19  1  0
 16 17  1  1
 18 17  1  0
 19 21  1  0
 20 19  2  0
M  END
$$$$
