AKC.pdb
     RDKit          3D

 21 20  0  0  1  0  0  0  0  0999 V2000
    8.0121  -12.4902   19.8187 C   0  0  0  0  0  0  0  0  0  0  0  0
    8.0680  -14.0192   19.7901 C   0  0  2  0  0  0  0  0  0  0  0  0
    7.1039  -14.4407   18.7971 N   0  0  0  0  0  0  0  0  0  0  0  0
    7.6676  -14.5376   21.1011 C   0  0  0  0  0  0  0  0  0  0  0  0
    6.4281  -14.6858   21.3405 O   0  0  0  0  0  0  0  0  0  0  0  0
    8.6059  -14.8847   22.1243 N   0  0  0  0  0  0  0  0  0  0  0  0
    8.1316  -15.4752   23.3288 C   0  0  1  0  0  0  0  0  0  0  0  0
    8.6105  -16.8969   23.5278 C   0  0  0  0  0  0  0  0  0  0  0  0
    8.0467  -17.5078   24.7912 C   0  0  0  0  0  0  0  0  0  0  0  0
    8.6333  -18.8935   24.9213 C   0  0  0  0  0  0  0  0  0  0  0  0
    8.0701  -19.6365   26.1208 C   0  0  0  0  0  0  0  0  0  0  0  0
    8.5839  -20.9818   26.2023 N   0  0  0  0  0  0  0  0  0  0  0  0
    8.5073  -14.7209   24.5458 C   0  0  0  0  0  0  0  0  0  0  0  0
    9.7218  -14.4999   24.7493 O   0  0  0  0  0  0  0  0  0  0  0  0
    7.5660  -14.2395   25.4862 N   0  0  0  0  0  0  0  0  0  0  0  0
    7.9783  -13.4104   26.6127 C   0  0  1  0  0  0  0  0  0  0  0  0
    6.7696  -12.8099   27.3105 C   0  0  0  0  0  0  0  0  0  0  0  0
    5.7137  -11.9175   26.1202 S   0  0  0  0  0  0  0  0  0  0  0  0
    8.7011  -14.2433   27.5986 C   0  0  0  0  0  0  0  0  0  0  0  0
    8.7721  -15.4769   27.4389 O   0  0  0  0  0  0  0  0  0  0  0  0
    9.3211  -13.7153   28.7208 O   0  0  0  0  0  0  0  0  0  0  0  0
  2  1  1  1
  3  2  1  0
  4  2  1  0
  4  5  2  0
  6  7  1  0
  6  4  1  0
  7  8  1  1
  9  8  1  0
 10 11  1  0
 10  9  1  0
 11 12  1  0
 13  7  1  0
 14 13  2  0
 15 13  1  0
 16 15  1  0
 16 19  1  0
 16 17  1  1
 18 17  1  0
 19 21  1  0
 20 19  2  0
M  END
$$$$
