AKC.pdb
     RDKit          3D

 21 20  0  0  1  0  0  0  0  0999 V2000
    9.3018  -20.2718   23.2949 C   0  0  0  0  0  0  0  0  0  0  0  0
    8.9266  -19.2020   22.2671 C   0  0  2  0  0  0  0  0  0  0  0  0
    9.7889  -19.4175   21.1257 N   0  0  0  0  0  0  0  0  0  0  0  0
    9.1985  -17.8778   22.8333 C   0  0  0  0  0  0  0  0  0  0  0  0
   10.3465  -17.6571   23.3323 O   0  0  0  0  0  0  0  0  0  0  0  0
    8.2328  -16.8218   22.8510 N   0  0  0  0  0  0  0  0  0  0  0  0
    8.6170  -15.5387   23.3309 C   0  0  1  0  0  0  0  0  0  0  0  0
    7.8315  -14.4060   22.7065 C   0  0  0  0  0  0  0  0  0  0  0  0
    8.5966  -13.7451   21.5816 C   0  0  0  0  0  0  0  0  0  0  0  0
    7.7002  -13.7469   20.3661 C   0  0  0  0  0  0  0  0  0  0  0  0
    8.4173  -13.2248   19.1328 C   0  0  0  0  0  0  0  0  0  0  0  0
    7.5549  -13.2234   17.9768 N   0  0  0  0  0  0  0  0  0  0  0  0
    8.4889  -15.3928   24.7984 C   0  0  0  0  0  0  0  0  0  0  0  0
    7.4713  -15.8674   25.3500 O   0  0  0  0  0  0  0  0  0  0  0  0
    9.4554  -14.7463   25.6048 N   0  0  0  0  0  0  0  0  0  0  0  0
    9.2628  -14.5960   27.0424 C   0  0  1  0  0  0  0  0  0  0  0  0
   10.5989  -14.4704   27.7548 C   0  0  0  0  0  0  0  0  0  0  0  0
   10.8771  -15.8935   28.8619 S   0  0  0  0  0  0  0  0  0  0  0  0
    8.4911  -13.3625   27.3096 C   0  0  0  0  0  0  0  0  0  0  0  0
    8.3906  -12.4876   26.4282 O   0  0  0  0  0  0  0  0  0  0  0  0
    7.8559  -13.1177   28.5174 O   0  0  0  0  0  0  0  0  0  0  0  0
  2  1  1  1
  3  2  1  0
  4  2  1  0
  4  5  2  0
  6  7  1  0
  6  4  1  0
  7  8  1  6
  9  8  1  0
 10 11  1  0
 10  9  1  0
 11 12  1  0
 13  7  1  0
 14 13  2  0
 15 13  1  0
 16 15  1  0
 16 19  1  0
 16 17  1  1
 18 17  1  0
 19 21  1  0
 20 19  2  0
M  END
$$$$
