MWI.pdb
     RDKit          3D

 31 32  0  0  1  0  0  0  0  0999 V2000
    8.0575  -12.2436   17.8078 C   0  0  0  0  0  0  0  0  0  0  0  0
    8.6701  -13.5101   16.6742 S   0  0  0  0  0  0  0  0  0  0  0  0
    9.3016  -14.9158   17.6309 C   0  0  0  0  0  0  0  0  0  0  0  0
    9.9339  -14.4832   18.9383 C   0  0  0  0  0  0  0  0  0  0  0  0
   10.3877  -15.6945   19.7400 C   0  0  2  0  0  0  0  0  0  0  0  0
    9.7699  -16.8950   19.3082 N   0  0  0  0  0  0  0  0  0  0  0  0
   10.1824  -15.4433   21.2012 C   0  0  0  0  0  0  0  0  0  0  0  0
   10.8151  -14.5669   21.8133 O   0  0  0  0  0  0  0  0  0  0  0  0
    9.2272  -16.2185   21.9587 N   0  0  0  0  0  0  0  0  0  0  0  0
    8.8019  -15.7978   23.2757 C   0  0  1  0  0  0  0  0  0  0  0  0
    7.2992  -16.0663   23.4465 C   0  0  0  0  0  0  0  0  0  0  0  0
    6.8181  -15.5215   24.7324 C   0  0  0  0  0  0  0  0  0  0  0  0
    6.2450  -16.2072   25.7709 C   0  0  0  0  0  0  0  0  0  0  0  0
    5.9653  -15.3033   26.7357 N   0  0  0  0  0  0  0  0  0  0  0  0
    6.3342  -14.0790   26.3543 C   0  0  0  0  0  0  0  0  0  0  0  0
    6.2772  -12.8436   26.9555 C   0  0  0  0  0  0  0  0  0  0  0  0
    6.7541  -11.6970   26.3173 C   0  0  0  0  0  0  0  0  0  0  0  0
    7.2946  -11.8471   25.0375 C   0  0  0  0  0  0  0  0  0  0  0  0
    7.3602  -13.0764   24.4207 C   0  0  0  0  0  0  0  0  0  0  0  0
    6.8724  -14.1934   25.0977 C   0  0  0  0  0  0  0  0  0  0  0  0
    9.5462  -16.4252   24.3841 C   0  0  0  0  0  0  0  0  0  0  0  0
   10.1237  -17.5144   24.1547 O   0  0  0  0  0  0  0  0  0  0  0  0
    9.8596  -14.2598   29.8340 C   0  0  0  0  0  0  0  0  0  0  0  0
    9.6497  -15.2515   28.7458 C   0  0  0  0  0  0  0  0  0  0  0  0
   10.7766  -15.4182   27.7818 C   0  0  2  0  0  0  0  0  0  0  0  0
   11.3087  -14.0830   27.3800 C   0  0  0  0  0  0  0  0  0  0  0  0
   10.6049  -16.4264   26.6874 C   0  0  2  0  0  0  0  0  0  0  0  0
    9.6577  -15.8776   25.6817 N   0  0  0  0  0  0  0  0  0  0  0  0
   10.1983  -17.7677   27.0916 C   0  0  0  0  0  0  0  0  0  0  0  0
   10.8484  -18.5475   27.8339 O   0  0  0  0  0  0  0  0  0  0  0  0
    8.9695  -18.3207   26.6536 O   0  0  0  0  0  0  0  0  0  0  0  0
  2  1  1  0
  3  2  1  0
  4  3  1  0
  5  4  1  0
  5  6  1  6
  7  8  2  0
  7  5  1  0
  9  7  1  0
 10  9  1  0
 10 11  1  1
 11 12  1  0
 12 13  2  0
 12 20  1  0
 13 14  1  0
 14 15  1  0
 15 16  2  0
 16 17  1  0
 18 17  2  0
 19 18  1  0
 20 19  2  0
 20 15  1  0
 21 10  1  0
 22 21  2  0
 23 24  1  0
 24 25  1  0
 25 26  1  6
 27 25  1  0
 27 28  1  6
 28 21  1  0
 29 27  1  0
 30 29  2  0
 31 29  1  0
M  END
$$$$
