MWI.pdb
     RDKit          3D

 31 32  0  0  1  0  0  0  0  0999 V2000
    8.2851  -11.8018   18.1238 C   0  0  0  0  0  0  0  0  0  0  0  0
    8.2030  -13.3041   17.1234 S   0  0  0  0  0  0  0  0  0  0  0  0
    9.0923  -14.6382   17.9716 C   0  0  0  0  0  0  0  0  0  0  0  0
    9.0403  -14.4953   19.4793 C   0  0  0  0  0  0  0  0  0  0  0  0
    9.7036  -15.6878   20.1532 C   0  0  2  0  0  0  0  0  0  0  0  0
    9.1311  -16.9231   19.7587 N   0  0  0  0  0  0  0  0  0  0  0  0
    9.6915  -15.5042   21.6385 C   0  0  0  0  0  0  0  0  0  0  0  0
   10.3305  -14.5956   22.1944 O   0  0  0  0  0  0  0  0  0  0  0  0
    8.9240  -16.3862   22.4873 N   0  0  0  0  0  0  0  0  0  0  0  0
    8.7088  -16.0769   23.8839 C   0  0  1  0  0  0  0  0  0  0  0  0
    7.3990  -16.7208   24.3626 C   0  0  0  0  0  0  0  0  0  0  0  0
    6.5350  -15.7155   25.0142 C   0  0  0  0  0  0  0  0  0  0  0  0
    5.2898  -15.9043   25.5537 C   0  0  0  0  0  0  0  0  0  0  0  0
    4.8824  -14.7099   26.0368 N   0  0  0  0  0  0  0  0  0  0  0  0
    5.8118  -13.7758   25.8267 C   0  0  0  0  0  0  0  0  0  0  0  0
    5.8902  -12.4356   26.1243 C   0  0  0  0  0  0  0  0  0  0  0  0
    7.0124  -11.6762   25.7879 C   0  0  0  0  0  0  0  0  0  0  0  0
    8.0610  -12.3275   25.1332 C   0  0  0  0  0  0  0  0  0  0  0  0
    7.9999  -13.6688   24.8280 C   0  0  0  0  0  0  0  0  0  0  0  0
    6.8591  -14.3865   25.1848 C   0  0  0  0  0  0  0  0  0  0  0  0
    9.8138  -16.4820   24.7734 C   0  0  0  0  0  0  0  0  0  0  0  0
   10.6501  -17.3024   24.3264 O   0  0  0  0  0  0  0  0  0  0  0  0
   10.2342  -14.4322   30.1308 C   0  0  0  0  0  0  0  0  0  0  0  0
   10.2404  -15.5738   29.1778 C   0  0  0  0  0  0  0  0  0  0  0  0
   11.2673  -15.5219   28.0963 C   0  0  2  0  0  0  0  0  0  0  0  0
   11.5715  -14.1034   27.7464 C   0  0  0  0  0  0  0  0  0  0  0  0
   11.1118  -16.4746   26.9508 C   0  0  2  0  0  0  0  0  0  0  0  0
    9.9960  -16.0021   26.0897 N   0  0  0  0  0  0  0  0  0  0  0  0
   10.9328  -17.8819   27.2902 C   0  0  0  0  0  0  0  0  0  0  0  0
    9.8796  -18.5527   27.1398 O   0  0  0  0  0  0  0  0  0  0  0  0
   11.9942  -18.6397   27.8440 O   0  0  0  0  0  0  0  0  0  0  0  0
  2  1  1  0
  3  2  1  0
  4  3  1  0
  5  4  1  0
  5  6  1  1
  7  8  2  0
  7  5  1  0
  9  7  1  0
 10  9  1  0
 10 11  1  1
 11 12  1  0
 12 13  2  0
 12 20  1  0
 13 14  1  0
 14 15  1  0
 15 16  2  0
 16 17  1  0
 18 17  2  0
 19 18  1  0
 20 19  2  0
 20 15  1  0
 21 10  1  0
 22 21  2  0
 23 24  1  0
 24 25  1  0
 25 26  1  6
 27 25  1  0
 27 28  1  1
 28 21  1  0
 29 27  1  0
 30 29  2  0
 31 29  1  0
M  END
$$$$
