MWI.pdb
     RDKit          3D

 31 32  0  0  1  0  0  0  0  0999 V2000
   12.7557  -22.3205   22.4648 C   0  0  0  0  0  0  0  0  0  0  0  0
   13.4451  -21.7264   20.9040 S   0  0  0  0  0  0  0  0  0  0  0  0
   12.3193  -20.5030   20.1788 C   0  0  0  0  0  0  0  0  0  0  0  0
   12.1428  -19.2875   21.0665 C   0  0  0  0  0  0  0  0  0  0  0  0
   11.1913  -18.2889   20.4235 C   0  0  2  0  0  0  0  0  0  0  0  0
   11.7161  -17.7269   19.2326 N   0  0  0  0  0  0  0  0  0  0  0  0
   10.8008  -17.2437   21.4212 C   0  0  0  0  0  0  0  0  0  0  0  0
   11.4353  -16.1831   21.5454 O   0  0  0  0  0  0  0  0  0  0  0  0
    9.6563  -17.4330   22.2823 N   0  0  0  0  0  0  0  0  0  0  0  0
    9.3545  -16.4930   23.3396 C   0  0  1  0  0  0  0  0  0  0  0  0
    7.8516  -16.1761   23.3393 C   0  0  0  0  0  0  0  0  0  0  0  0
    7.6285  -14.7210   23.4609 C   0  0  0  0  0  0  0  0  0  0  0  0
    7.8091  -13.7624   22.4988 C   0  0  0  0  0  0  0  0  0  0  0  0
    7.4829  -12.5755   23.0563 N   0  0  0  0  0  0  0  0  0  0  0  0
    7.1058  -12.7400   24.3257 C   0  0  0  0  0  0  0  0  0  0  0  0
    6.6808  -11.8743   25.3059 C   0  0  0  0  0  0  0  0  0  0  0  0
    6.3322  -12.3266   26.5800 C   0  0  0  0  0  0  0  0  0  0  0  0
    6.4308  -13.6980   26.8285 C   0  0  0  0  0  0  0  0  0  0  0  0
    6.8538  -14.5792   25.8587 C   0  0  0  0  0  0  0  0  0  0  0  0
    7.1902  -14.0813   24.6006 C   0  0  0  0  0  0  0  0  0  0  0  0
    9.7668  -16.9378   24.6843 C   0  0  0  0  0  0  0  0  0  0  0  0
    9.8167  -18.1722   24.8994 O   0  0  0  0  0  0  0  0  0  0  0  0
    9.9695  -13.6316   29.5110 C   0  0  0  0  0  0  0  0  0  0  0  0
    9.6795  -14.7134   28.5327 C   0  0  0  0  0  0  0  0  0  0  0  0
   10.8646  -15.4077   27.9495 C   0  0  2  0  0  0  0  0  0  0  0  0
   11.8609  -14.4052   27.4701 C   0  0  0  0  0  0  0  0  0  0  0  0
   10.6058  -16.5763   27.0490 C   0  0  2  0  0  0  0  0  0  0  0  0
   10.1155  -16.0674   25.7411 N   0  0  0  0  0  0  0  0  0  0  0  0
    9.7133  -17.6109   27.5600 C   0  0  0  0  0  0  0  0  0  0  0  0
    8.5582  -17.8697   27.1353 O   0  0  0  0  0  0  0  0  0  0  0  0
   10.1064  -18.4489   28.6327 O   0  0  0  0  0  0  0  0  0  0  0  0
  2  1  1  0
  3  2  1  0
  4  3  1  0
  5  4  1  0
  5  6  1  6
  7  8  2  0
  7  5  1  0
  9  7  1  0
 10  9  1  0
 10 11  1  1
 11 12  1  0
 12 13  2  0
 12 20  1  0
 13 14  1  0
 14 15  1  0
 15 16  2  0
 16 17  1  0
 18 17  2  0
 19 18  1  0
 20 19  2  0
 20 15  1  0
 21 10  1  0
 22 21  2  0
 23 24  1  0
 24 25  1  0
 25 26  1  6
 27 25  1  0
 27 28  1  6
 28 21  1  0
 29 27  1  0
 30 29  2  0
 31 29  1  0
M  END
$$$$
