MWI.pdb
     RDKit          3D

 31 32  0  0  1  0  0  0  0  0999 V2000
    9.2232  -19.9974   17.1144 C   0  0  0  0  0  0  0  0  0  0  0  0
    9.5432  -21.5047   18.0578 S   0  0  0  0  0  0  0  0  0  0  0  0
    9.3822  -21.1486   19.8290 C   0  0  0  0  0  0  0  0  0  0  0  0
    9.7767  -19.7251   20.1670 C   0  0  0  0  0  0  0  0  0  0  0  0
    9.5718  -19.4505   21.6497 C   0  0  2  0  0  0  0  0  0  0  0  0
    8.2419  -19.7026   22.0707 N   0  0  0  0  0  0  0  0  0  0  0  0
   10.0171  -18.0592   21.9756 C   0  0  0  0  0  0  0  0  0  0  0  0
   11.1395  -17.6354   21.6540 O   0  0  0  0  0  0  0  0  0  0  0  0
    9.1449  -17.1488   22.6811 N   0  0  0  0  0  0  0  0  0  0  0  0
    9.5315  -15.7743   22.9131 C   0  0  1  0  0  0  0  0  0  0  0  0
    8.3138  -14.8553   22.7351 C   0  0  0  0  0  0  0  0  0  0  0  0
    7.4981  -14.8312   23.9663 C   0  0  0  0  0  0  0  0  0  0  0  0
    6.9297  -15.8953   24.6158 C   0  0  0  0  0  0  0  0  0  0  0  0
    6.2781  -15.4006   25.6913 N   0  0  0  0  0  0  0  0  0  0  0  0
    6.4078  -14.0739   25.7505 C   0  0  0  0  0  0  0  0  0  0  0  0
    5.9545  -13.1174   26.6283 C   0  0  0  0  0  0  0  0  0  0  0  0
    6.2511  -11.7644   26.4528 C   0  0  0  0  0  0  0  0  0  0  0  0
    7.0289  -11.4114   25.3470 C   0  0  0  0  0  0  0  0  0  0  0  0
    7.4918  -12.3558   24.4584 C   0  0  0  0  0  0  0  0  0  0  0  0
    7.1709  -13.6952   24.6753 C   0  0  0  0  0  0  0  0  0  0  0  0
   10.1478  -15.5304   24.2310 C   0  0  0  0  0  0  0  0  0  0  0  0
   11.0925  -14.7079   24.2886 O   0  0  0  0  0  0  0  0  0  0  0  0
    8.9590  -13.0322   28.2997 C   0  0  0  0  0  0  0  0  0  0  0  0
    9.7189  -13.8446   27.3127 C   0  0  0  0  0  0  0  0  0  0  0  0
    9.9537  -15.2723   27.6778 C   0  0  2  0  0  0  0  0  0  0  0  0
   10.4995  -15.3635   29.0638 C   0  0  0  0  0  0  0  0  0  0  0  0
   10.5938  -16.1516   26.6478 C   0  0  2  0  0  0  0  0  0  0  0  0
    9.7401  -16.1550   25.4309 N   0  0  0  0  0  0  0  0  0  0  0  0
   10.9050  -17.5172   27.0557 C   0  0  0  0  0  0  0  0  0  0  0  0
   10.1519  -18.5171   26.9343 O   0  0  0  0  0  0  0  0  0  0  0  0
   12.1509  -17.8350   27.6509 O   0  0  0  0  0  0  0  0  0  0  0  0
  2  1  1  0
  3  2  1  0
  4  3  1  0
  5  4  1  0
  5  6  1  6
  7  8  2  0
  7  5  1  0
  9  7  1  0
 10  9  1  0
 10 11  1  1
 11 12  1  0
 12 13  2  0
 12 20  1  0
 13 14  1  0
 14 15  1  0
 15 16  2  0
 16 17  1  0
 18 17  2  0
 19 18  1  0
 20 19  2  0
 20 15  1  0
 21 10  1  0
 22 21  2  0
 23 24  1  0
 24 25  1  0
 25 26  1  1
 27 25  1  0
 27 28  1  6
 28 21  1  0
 29 27  1  0
 30 29  2  0
 31 29  1  0
M  END
$$$$
