MWI.pdb
     RDKit          3D

 31 32  0  0  1  0  0  0  0  0999 V2000
    8.8361  -21.3580   19.8218 C   0  0  0  0  0  0  0  0  0  0  0  0
    8.3131  -20.4134   18.3733 S   0  0  0  0  0  0  0  0  0  0  0  0
    7.8432  -18.7387   18.8876 C   0  0  0  0  0  0  0  0  0  0  0  0
    8.5367  -18.3148   20.1666 C   0  0  0  0  0  0  0  0  0  0  0  0
    7.9990  -16.9751   20.6483 C   0  0  2  0  0  0  0  0  0  0  0  0
    8.0778  -15.9681   19.6537 N   0  0  0  0  0  0  0  0  0  0  0  0
    8.6877  -16.5768   21.9161 C   0  0  0  0  0  0  0  0  0  0  0  0
    9.7456  -15.9259   21.9136 O   0  0  0  0  0  0  0  0  0  0  0  0
    8.1373  -16.9371   23.2024 N   0  0  0  0  0  0  0  0  0  0  0  0
    8.8318  -16.6113   24.4288 C   0  0  1  0  0  0  0  0  0  0  0  0
    7.8373  -16.5918   25.5992 C   0  0  0  0  0  0  0  0  0  0  0  0
    7.0027  -15.3741   25.5503 C   0  0  0  0  0  0  0  0  0  0  0  0
    5.6957  -15.2695   25.1529 C   0  0  0  0  0  0  0  0  0  0  0  0
    5.3480  -13.9693   25.2737 N   0  0  0  0  0  0  0  0  0  0  0  0
    6.3747  -13.2481   25.7279 C   0  0  0  0  0  0  0  0  0  0  0  0
    6.5369  -11.9151   26.0236 C   0  0  0  0  0  0  0  0  0  0  0  0
    7.7486  -11.4147   26.5039 C   0  0  0  0  0  0  0  0  0  0  0  0
    8.7994  -12.3197   26.6748 C   0  0  0  0  0  0  0  0  0  0  0  0
    8.6545  -13.6578   26.3844 C   0  0  0  0  0  0  0  0  0  0  0  0
    7.4252  -14.1116   25.9082 C   0  0  0  0  0  0  0  0  0  0  0  0
    9.9556  -17.5117   24.7486 C   0  0  0  0  0  0  0  0  0  0  0  0
    9.7838  -18.7416   24.5749 O   0  0  0  0  0  0  0  0  0  0  0  0
   14.9854  -16.4858   23.3178 C   0  0  0  0  0  0  0  0  0  0  0  0
   13.6652  -17.0119   23.7557 C   0  0  0  0  0  0  0  0  0  0  0  0
   13.5933  -17.5257   25.1549 C   0  0  2  0  0  0  0  0  0  0  0  0
   14.7862  -18.3721   25.4516 C   0  0  0  0  0  0  0  0  0  0  0  0
   12.2712  -18.0424   25.6332 C   0  0  2  0  0  0  0  0  0  0  0  0
   11.2123  -17.0805   25.2293 N   0  0  0  0  0  0  0  0  0  0  0  0
   12.1647  -18.3499   27.0551 C   0  0  0  0  0  0  0  0  0  0  0  0
   11.5783  -17.6532   27.9225 O   0  0  0  0  0  0  0  0  0  0  0  0
   12.7460  -19.5247   27.5932 O   0  0  0  0  0  0  0  0  0  0  0  0
  2  1  1  0
  3  2  1  0
  4  3  1  0
  5  4  1  0
  5  6  1  6
  7  8  2  0
  7  5  1  0
  9  7  1  0
 10  9  1  0
 10 11  1  1
 11 12  1  0
 12 13  2  0
 12 20  1  0
 13 14  1  0
 14 15  1  0
 15 16  2  0
 16 17  1  0
 18 17  2  0
 19 18  1  0
 20 19  2  0
 20 15  1  0
 21 10  1  0
 22 21  2  0
 23 24  1  0
 24 25  1  0
 25 26  1  6
 27 25  1  0
 27 28  1  1
 28 21  1  0
 29 27  1  0
 30 29  2  0
 31 29  1  0
M  END
$$$$
