MWI.pdb
     RDKit          3D

 31 32  0  0  1  0  0  0  0  0999 V2000
    8.2515  -21.1121   18.9221 C   0  0  0  0  0  0  0  0  0  0  0  0
    9.9457  -20.5761   19.2483 S   0  0  0  0  0  0  0  0  0  0  0  0
    9.9920  -18.7659   19.3528 C   0  0  0  0  0  0  0  0  0  0  0  0
    8.6247  -18.1438   19.1528 C   0  0  0  0  0  0  0  0  0  0  0  0
    8.7198  -16.6251   19.1714 C   0  0  2  0  0  0  0  0  0  0  0  0
    9.6789  -16.1290   18.2531 N   0  0  0  0  0  0  0  0  0  0  0  0
    8.9701  -16.1482   20.5678 C   0  0  0  0  0  0  0  0  0  0  0  0
   10.0934  -15.7747   20.9440 O   0  0  0  0  0  0  0  0  0  0  0  0
    7.9000  -16.1019   21.5374 N   0  0  0  0  0  0  0  0  0  0  0  0
    8.1528  -15.7213   22.9099 C   0  0  1  0  0  0  0  0  0  0  0  0
    6.8278  -15.6611   23.6845 C   0  0  0  0  0  0  0  0  0  0  0  0
    7.0512  -15.1590   25.0555 C   0  0  0  0  0  0  0  0  0  0  0  0
    7.2887  -15.8924   26.1881 C   0  0  0  0  0  0  0  0  0  0  0  0
    7.4313  -15.0147   27.2056 N   0  0  0  0  0  0  0  0  0  0  0  0
    7.2940  -13.7615   26.7684 C   0  0  0  0  0  0  0  0  0  0  0  0
    7.3545  -12.5332   27.3834 C   0  0  0  0  0  0  0  0  0  0  0  0
    7.1765  -11.3475   26.6679 C   0  0  0  0  0  0  0  0  0  0  0  0
    6.9322  -11.4509   25.2960 C   0  0  0  0  0  0  0  0  0  0  0  0
    6.8689  -12.6724   24.6637 C   0  0  0  0  0  0  0  0  0  0  0  0
    7.0541  -13.8294   25.4195 C   0  0  0  0  0  0  0  0  0  0  0  0
    9.1019  -16.6000   23.6194 C   0  0  0  0  0  0  0  0  0  0  0  0
    8.9945  -17.8367   23.4418 O   0  0  0  0  0  0  0  0  0  0  0  0
   14.0012  -16.1747   22.6619 C   0  0  0  0  0  0  0  0  0  0  0  0
   12.6858  -16.6903   23.1263 C   0  0  0  0  0  0  0  0  0  0  0  0
   12.4758  -16.7207   24.6034 C   0  0  2  0  0  0  0  0  0  0  0  0
   13.6207  -17.4083   25.2694 C   0  0  0  0  0  0  0  0  0  0  0  0
   11.1060  -17.0707   25.0985 C   0  0  2  0  0  0  0  0  0  0  0  0
   10.1260  -16.1412   24.4777 N   0  0  0  0  0  0  0  0  0  0  0  0
   10.9240  -17.1111   26.5452 C   0  0  0  0  0  0  0  0  0  0  0  0
   10.3701  -16.2273   27.2479 O   0  0  0  0  0  0  0  0  0  0  0  0
   11.3828  -18.2136   27.3078 O   0  0  0  0  0  0  0  0  0  0  0  0
  2  1  1  0
  3  2  1  0
  4  3  1  0
  5  4  1  0
  5  6  1  6
  7  8  2  0
  7  5  1  0
  9  7  1  0
 10  9  1  0
 10 11  1  1
 11 12  1  0
 12 13  2  0
 12 20  1  0
 13 14  1  0
 14 15  1  0
 15 16  2  0
 16 17  1  0
 18 17  2  0
 19 18  1  0
 20 19  2  0
 20 15  1  0
 21 10  1  0
 22 21  2  0
 23 24  1  0
 24 25  1  0
 25 26  1  1
 27 25  1  0
 27 28  1  6
 28 21  1  0
 29 27  1  0
 30 29  2  0
 31 29  1  0
M  END
$$$$
