MWI.pdb
     RDKit          3D

 31 32  0  0  1  0  0  0  0  0999 V2000
   13.3860  -16.2612   17.4626 C   0  0  0  0  0  0  0  0  0  0  0  0
   12.7734  -17.9434   17.2195 S   0  0  0  0  0  0  0  0  0  0  0  0
   12.2861  -18.6410   18.8214 C   0  0  0  0  0  0  0  0  0  0  0  0
   11.6509  -17.6070   19.7290 C   0  0  0  0  0  0  0  0  0  0  0  0
   11.3155  -18.2166   21.0824 C   0  0  2  0  0  0  0  0  0  0  0  0
   10.4026  -19.2963   20.9814 N   0  0  0  0  0  0  0  0  0  0  0  0
   10.8332  -17.1499   22.0151 C   0  0  0  0  0  0  0  0  0  0  0  0
   11.4866  -16.1145   22.2246 O   0  0  0  0  0  0  0  0  0  0  0  0
    9.5740  -17.2879   22.7098 N   0  0  0  0  0  0  0  0  0  0  0  0
    9.0387  -16.2052   23.5059 C   0  0  1  0  0  0  0  0  0  0  0  0
    7.5441  -16.4435   23.7685 C   0  0  0  0  0  0  0  0  0  0  0  0
    7.0230  -15.4537   24.7331 C   0  0  0  0  0  0  0  0  0  0  0  0
    6.3919  -15.6967   25.9246 C   0  0  0  0  0  0  0  0  0  0  0  0
    6.0935  -14.4955   26.4669 N   0  0  0  0  0  0  0  0  0  0  0  0
    6.5059  -13.5056   25.6729 C   0  0  0  0  0  0  0  0  0  0  0  0
    6.4526  -12.1346   25.7649 C   0  0  0  0  0  0  0  0  0  0  0  0
    6.9817  -11.3136   24.7673 C   0  0  0  0  0  0  0  0  0  0  0  0
    7.5710  -11.9355   23.6635 C   0  0  0  0  0  0  0  0  0  0  0  0
    7.6338  -13.3067   23.5552 C   0  0  0  0  0  0  0  0  0  0  0  0
    7.0928  -14.0857   24.5772 C   0  0  0  0  0  0  0  0  0  0  0  0
    9.7383  -15.9888   24.7866 C   0  0  0  0  0  0  0  0  0  0  0  0
   10.1475  -14.8305   25.0379 O   0  0  0  0  0  0  0  0  0  0  0  0
   10.2035  -13.0470   27.7518 C   0  0  0  0  0  0  0  0  0  0  0  0
   10.6525  -14.2410   26.9874 C   0  0  0  0  0  0  0  0  0  0  0  0
   10.4386  -15.5626   27.6466 C   0  0  2  0  0  0  0  0  0  0  0  0
   10.8193  -15.4837   29.0875 C   0  0  0  0  0  0  0  0  0  0  0  0
   10.8836  -16.7846   26.9034 C   0  0  2  0  0  0  0  0  0  0  0  0
    9.9705  -16.9962   25.7495 N   0  0  0  0  0  0  0  0  0  0  0  0
   11.0148  -18.0117   27.6811 C   0  0  0  0  0  0  0  0  0  0  0  0
   11.8515  -18.2240   28.5957 O   0  0  0  0  0  0  0  0  0  0  0  0
   10.1583  -19.1166   27.4507 O   0  0  0  0  0  0  0  0  0  0  0  0
  2  1  1  0
  3  2  1  0
  4  3  1  0
  5  4  1  0
  5  6  1  6
  7  8  2  0
  7  5  1  0
  9  7  1  0
 10  9  1  0
 10 11  1  1
 11 12  1  0
 12 13  2  0
 12 20  1  0
 13 14  1  0
 14 15  1  0
 15 16  2  0
 16 17  1  0
 18 17  2  0
 19 18  1  0
 20 19  2  0
 20 15  1  0
 21 10  1  0
 22 21  2  0
 23 24  1  0
 24 25  1  0
 25 26  1  1
 27 25  1  0
 27 28  1  6
 28 21  1  0
 29 27  1  0
 30 29  2  0
 31 29  1  0
M  END
$$$$
