MWI.pdb
     RDKit          3D

 31 32  0  0  1  0  0  0  0  0999 V2000
   14.5519  -19.9392   21.6684 C   0  0  0  0  0  0  0  0  0  0  0  0
   13.7124  -20.6261   20.2236 S   0  0  0  0  0  0  0  0  0  0  0  0
   12.4806  -19.4371   19.6247 C   0  0  0  0  0  0  0  0  0  0  0  0
   11.9150  -18.5839   20.7421 C   0  0  0  0  0  0  0  0  0  0  0  0
   10.9124  -17.5791   20.1933 C   0  0  2  0  0  0  0  0  0  0  0  0
   11.4281  -16.8375   19.1008 N   0  0  0  0  0  0  0  0  0  0  0  0
   10.4204  -16.6966   21.2976 C   0  0  0  0  0  0  0  0  0  0  0  0
   10.9306  -15.5884   21.5309 O   0  0  0  0  0  0  0  0  0  0  0  0
    9.3193  -17.1067   22.1383 N   0  0  0  0  0  0  0  0  0  0  0  0
    8.9180  -16.3154   23.2807 C   0  0  1  0  0  0  0  0  0  0  0  0
    7.3977  -16.4171   23.4746 C   0  0  0  0  0  0  0  0  0  0  0  0
    6.9606  -15.5671   24.6007 C   0  0  0  0  0  0  0  0  0  0  0  0
    6.3828  -15.9665   25.7770 C   0  0  0  0  0  0  0  0  0  0  0  0
    6.1539  -14.8510   26.5045 N   0  0  0  0  0  0  0  0  0  0  0  0
    6.5594  -13.7660   25.8421 C   0  0  0  0  0  0  0  0  0  0  0  0
    6.5582  -12.4228   26.1361 C   0  0  0  0  0  0  0  0  0  0  0  0
    7.0640  -11.4778   25.2414 C   0  0  0  0  0  0  0  0  0  0  0  0
    7.5747  -11.9454   24.0277 C   0  0  0  0  0  0  0  0  0  0  0  0
    7.5845  -13.2868   23.7170 C   0  0  0  0  0  0  0  0  0  0  0  0
    7.0696  -14.1935   24.6426 C   0  0  0  0  0  0  0  0  0  0  0  0
    9.6026  -16.6719   24.5378 C   0  0  0  0  0  0  0  0  0  0  0  0
    9.7962  -17.8887   24.7705 O   0  0  0  0  0  0  0  0  0  0  0  0
   10.0316  -14.0962   29.8507 C   0  0  0  0  0  0  0  0  0  0  0  0
    9.8425  -15.0517   28.7269 C   0  0  0  0  0  0  0  0  0  0  0  0
   10.8821  -15.0222   27.6567 C   0  0  2  0  0  0  0  0  0  0  0  0
   11.0102  -13.6414   27.1049 C   0  0  0  0  0  0  0  0  0  0  0  0
   10.8805  -16.1422   26.6621 C   0  0  2  0  0  0  0  0  0  0  0  0
   10.0604  -15.7349   25.4911 N   0  0  0  0  0  0  0  0  0  0  0  0
   10.4573  -17.4500   27.1504 C   0  0  0  0  0  0  0  0  0  0  0  0
   11.0523  -18.1485   28.0106 O   0  0  0  0  0  0  0  0  0  0  0  0
    9.2760  -18.0631   26.6645 O   0  0  0  0  0  0  0  0  0  0  0  0
  2  1  1  0
  3  2  1  0
  4  3  1  0
  5  4  1  0
  5  6  1  6
  7  8  2  0
  7  5  1  0
  9  7  1  0
 10  9  1  0
 10 11  1  1
 11 12  1  0
 12 13  2  0
 12 20  1  0
 13 14  1  0
 14 15  1  0
 15 16  2  0
 16 17  1  0
 18 17  2  0
 19 18  1  0
 20 19  2  0
 20 15  1  0
 21 10  1  0
 22 21  2  0
 23 24  1  0
 24 25  1  0
 25 26  1  6
 27 25  1  0
 27 28  1  6
 28 21  1  0
 29 27  1  0
 30 29  2  0
 31 29  1  0
M  END
$$$$
