MWI.pdb
     RDKit          3D

 31 32  0  0  1  0  0  0  0  0999 V2000
    8.6066  -11.8723   18.3594 C   0  0  0  0  0  0  0  0  0  0  0  0
    8.2602  -13.4187   17.4916 S   0  0  0  0  0  0  0  0  0  0  0  0
    8.8375  -14.8130   18.4980 C   0  0  0  0  0  0  0  0  0  0  0  0
   10.2656  -14.6282   18.9701 C   0  0  0  0  0  0  0  0  0  0  0  0
   10.6791  -15.7719   19.8849 C   0  0  2  0  0  0  0  0  0  0  0  0
   10.1500  -17.0195   19.4690 N   0  0  0  0  0  0  0  0  0  0  0  0
   10.3199  -15.4459   21.3009 C   0  0  0  0  0  0  0  0  0  0  0  0
   10.9060  -14.5567   21.9402 O   0  0  0  0  0  0  0  0  0  0  0  0
    9.2639  -16.1605   21.9802 N   0  0  0  0  0  0  0  0  0  0  0  0
    8.8206  -15.7610   23.2979 C   0  0  1  0  0  0  0  0  0  0  0  0
    7.3262  -16.0767   23.4608 C   0  0  0  0  0  0  0  0  0  0  0  0
    6.8274  -15.5698   24.7554 C   0  0  0  0  0  0  0  0  0  0  0  0
    6.3025  -16.2944   25.7929 C   0  0  0  0  0  0  0  0  0  0  0  0
    5.9821  -15.4152   26.7678 N   0  0  0  0  0  0  0  0  0  0  0  0
    6.2794  -14.1694   26.3937 C   0  0  0  0  0  0  0  0  0  0  0  0
    6.1598  -12.9439   27.0060 C   0  0  0  0  0  0  0  0  0  0  0  0
    6.5668  -11.7676   26.3737 C   0  0  0  0  0  0  0  0  0  0  0  0
    7.1032  -11.8772   25.0881 C   0  0  0  0  0  0  0  0  0  0  0  0
    7.2310  -13.0959   24.4602 C   0  0  0  0  0  0  0  0  0  0  0  0
    6.8117  -14.2437   25.1317 C   0  0  0  0  0  0  0  0  0  0  0  0
    9.5795  -16.3717   24.4057 C   0  0  0  0  0  0  0  0  0  0  0  0
   10.2801  -17.3787   24.1458 O   0  0  0  0  0  0  0  0  0  0  0  0
   10.1105  -13.3614   29.0708 C   0  0  0  0  0  0  0  0  0  0  0  0
   10.3775  -14.1705   27.8518 C   0  0  0  0  0  0  0  0  0  0  0  0
   10.3352  -15.6522   28.0237 C   0  0  2  0  0  0  0  0  0  0  0  0
   11.1895  -16.0585   29.1780 C   0  0  0  0  0  0  0  0  0  0  0  0
   10.4362  -16.4933   26.7884 C   0  0  2  0  0  0  0  0  0  0  0  0
    9.5753  -15.8938   25.7352 N   0  0  0  0  0  0  0  0  0  0  0  0
   10.1424  -17.9142   26.9388 C   0  0  0  0  0  0  0  0  0  0  0  0
    9.0224  -18.4616   26.7722 O   0  0  0  0  0  0  0  0  0  0  0  0
   11.1565  -18.8345   27.3025 O   0  0  0  0  0  0  0  0  0  0  0  0
  2  1  1  0
  3  2  1  0
  4  3  1  0
  5  4  1  0
  5  6  1  6
  7  8  2  0
  7  5  1  0
  9  7  1  0
 10  9  1  0
 10 11  1  1
 11 12  1  0
 12 13  2  0
 12 20  1  0
 13 14  1  0
 14 15  1  0
 15 16  2  0
 16 17  1  0
 18 17  2  0
 19 18  1  0
 20 19  2  0
 20 15  1  0
 21 10  1  0
 22 21  2  0
 23 24  1  0
 24 25  1  0
 25 26  1  1
 27 25  1  0
 27 28  1  6
 28 21  1  0
 29 27  1  0
 30 29  2  0
 31 29  1  0
M  END
$$$$
