MWI.pdb
     RDKit          3D

 31 32  0  0  1  0  0  0  0  0999 V2000
  -36.3851   10.8969  109.4239 C   0  0  0  0  0  0  0  0  0  0  0  0
  -35.1908   12.0927  110.0626 S   0  0  0  0  0  0  0  0  0  0  0  0
  -33.8607   11.2097  110.9235 C   0  0  0  0  0  0  0  0  0  0  0  0
  -33.5121   11.8500  112.2520 C   0  0  0  0  0  0  0  0  0  0  0  0
  -33.9331   13.3124  112.2681 C   0  0  2  0  0  0  0  0  0  0  0  0
  -35.2858   13.4846  112.6554 N   0  0  0  0  0  0  0  0  0  0  0  0
  -33.6368   13.9416  110.9428 C   0  0  0  0  0  0  0  0  0  0  0  0
  -33.9814   13.4141  109.8724 O   0  0  0  0  0  0  0  0  0  0  0  0
  -32.9343   15.2014  110.8619 N   0  0  0  0  0  0  0  0  0  0  0  0
  -31.6400   15.3752  111.4842 C   0  0  1  0  0  0  0  0  0  0  0  0
  -30.6365   14.3803  110.8821 C   0  0  0  0  0  0  0  0  0  0  0  0
  -30.0750   14.9088  109.6223 C   0  0  0  0  0  0  0  0  0  0  0  0
  -29.4372   14.2102  108.6312 C   0  0  0  0  0  0  0  0  0  0  0  0
  -29.0971   15.1017  107.6743 N   0  0  0  0  0  0  0  0  0  0  0  0
  -29.4897   16.3305  108.0156 C   0  0  0  0  0  0  0  0  0  0  0  0
  -29.3949   17.5580  107.4031 C   0  0  0  0  0  0  0  0  0  0  0  0
  -29.9114   18.7123  107.9947 C   0  0  0  0  0  0  0  0  0  0  0  0
  -30.5319   18.5784  109.2395 C   0  0  0  0  0  0  0  0  0  0  0  0
  -30.6363   17.3572  109.8669 C   0  0  0  0  0  0  0  0  0  0  0  0
  -30.1064   16.2320  109.2369 C   0  0  0  0  0  0  0  0  0  0  0  0
  -31.0985   16.7440  111.3887 C   0  0  0  0  0  0  0  0  0  0  0  0
  -31.5396   17.4823  110.4762 O   0  0  0  0  0  0  0  0  0  0  0  0
  -28.7219   21.4859  110.6959 C   0  0  0  0  0  0  0  0  0  0  0  0
  -28.1682   20.1660  111.0996 C   0  0  0  0  0  0  0  0  0  0  0  0
  -29.0659   18.9897  110.9071 C   0  0  2  0  0  0  0  0  0  0  0  0
  -30.4835   19.4411  110.7883 C   0  0  0  0  0  0  0  0  0  0  0  0
  -28.8173   17.7848  111.7617 C   0  0  2  0  0  0  0  0  0  0  0  0
  -30.1236   17.2795  112.2599 N   0  0  0  0  0  0  0  0  0  0  0  0
  -27.8795   17.9489  112.8668 C   0  0  0  0  0  0  0  0  0  0  0  0
  -27.7873   18.9533  113.6181 O   0  0  0  0  0  0  0  0  0  0  0  0
  -26.9520   16.9292  113.1944 O   0  0  0  0  0  0  0  0  0  0  0  0
  2  1  1  0
  3  2  1  0
  4  3  1  0
  5  4  1  0
  5  6  1  6
  7  8  2  0
  7  5  1  0
  9  7  1  0
 10  9  1  0
 10 11  1  6
 11 12  1  0
 12 13  2  0
 12 20  1  0
 13 14  1  0
 14 15  1  0
 15 16  2  0
 16 17  1  0
 18 17  2  0
 19 18  1  0
 20 19  2  0
 20 15  1  0
 21 10  1  0
 22 21  2  0
 23 24  1  0
 24 25  1  0
 25 26  1  1
 27 25  1  0
 27 28  1  1
 28 21  1  0
 29 27  1  0
 30 29  2  0
 31 29  1  0
M  END
$$$$
