QRG.pdb
     RDKit          3D

 25 24  0  0  1  0  0  0  0  0999 V2000
   13.6108  -13.3310   19.1971 N   0  0  0  0  0  0  0  0  0  0  0  0
   13.0871  -14.1791   18.1853 C   0  0  0  0  0  0  0  0  0  0  0  0
   13.9168  -14.7096   17.4142 O   0  0  0  0  0  0  0  0  0  0  0  0
   11.6616  -14.4219   18.0429 C   0  0  0  0  0  0  0  0  0  0  0  0
   10.7862  -14.2154   19.2120 C   0  0  0  0  0  0  0  0  0  0  0  0
    9.3231  -14.4106   19.0292 C   0  0  2  0  0  0  0  0  0  0  0  0
    8.6743  -13.5665   18.0869 N   0  0  0  0  0  0  0  0  0  0  0  0
    8.5940  -14.3255   20.3226 C   0  0  0  0  0  0  0  0  0  0  0  0
    7.8718  -13.3084   20.4919 O   0  0  0  0  0  0  0  0  0  0  0  0
    1.4823  -19.8712   21.4874 N   0  0  0  0  0  0  0  0  0  0  0  0
    2.8592  -19.4893   21.4979 C   0  0  0  0  0  0  0  0  0  0  0  0
    3.7692  -20.3862   21.3232 N   0  0  0  0  0  0  0  0  0  0  0  0
    3.1805  -18.1274   21.7038 N   0  0  0  0  0  0  0  0  0  0  0  0
    4.2515  -17.4821   20.9578 C   0  0  0  0  0  0  0  0  0  0  0  0
    5.3334  -17.0266   21.9126 C   0  0  0  0  0  0  0  0  0  0  0  0
    6.4855  -16.3946   21.1912 C   0  0  0  0  0  0  0  0  0  0  0  0
    7.5301  -15.7969   22.0867 C   0  0  2  0  0  0  0  0  0  0  0  0
    8.6796  -15.2942   21.3167 N   0  0  0  0  0  0  0  0  0  0  0  0
    8.0775  -16.8333   23.0320 C   0  0  0  0  0  0  0  0  0  0  0  0
    7.3333  -17.4366   23.8463 O   0  0  0  0  0  0  0  0  0  0  0  0
    4.7709  -20.1194   21.3002 N   0  0  0  0  0  0  0  0  0  0  0  0
    9.4537  -17.1793   23.0515 C   0  0  0  0  0  0  0  0  0  0  0  0
   10.4712  -16.3145   23.5871 C   0  0  0  0  0  0  0  0  0  0  0  0
   11.7947  -16.9658   23.6674 O   0  0  0  0  0  0  0  0  0  0  0  0
   12.8313  -16.2089   24.2177 O   0  0  0  0  0  0  0  0  0  0  0  0
  2  1  1  0
  2  4  1  0
  3  2  2  0
  5  4  1  0
  5  6  1  0
  6  8  1  0
  6  7  1  6
  8  9  2  0
 10 11  1  0
 11 13  1  0
 11 12  2  0
 13 14  1  0
 14 15  1  0
 17 16  1  6
 16 15  1  0
 18 17  1  0
 18  8  1  0
 19 20  2  0
 19 17  1  0
 21 19  1  0
 22 21  1  0
 23 24  1  0
 23 22  1  0
 25 23  2  0
M  END
$$$$
