QRG.pdb
     RDKit          3D

 25 24  0  0  1  0  0  0  0  0999 V2000
   10.2811  -16.5442   16.1492 N   0  0  0  0  0  0  0  0  0  0  0  0
   10.8910  -17.6113   16.8610 C   0  0  0  0  0  0  0  0  0  0  0  0
   11.6350  -18.3710   16.2023 O   0  0  0  0  0  0  0  0  0  0  0  0
   10.6660  -17.8203   18.2812 C   0  0  0  0  0  0  0  0  0  0  0  0
   11.8309  -18.0345   19.1604 C   0  0  0  0  0  0  0  0  0  0  0  0
   11.5758  -18.3011   20.6013 C   0  0  2  0  0  0  0  0  0  0  0  0
   10.5874  -19.2752   20.9100 N   0  0  0  0  0  0  0  0  0  0  0  0
   11.2566  -17.0509   21.3408 C   0  0  0  0  0  0  0  0  0  0  0  0
   12.1093  -16.1273   21.2728 O   0  0  0  0  0  0  0  0  0  0  0  0
    7.9859  -13.2452   16.7788 N   0  0  0  0  0  0  0  0  0  0  0  0
    8.1257  -13.0438   18.1865 C   0  0  0  0  0  0  0  0  0  0  0  0
    8.9763  -12.1787   18.6238 N   0  0  0  0  0  0  0  0  0  0  0  0
    7.3200  -13.8093   19.0613 N   0  0  0  0  0  0  0  0  0  0  0  0
    7.4016  -13.6419   20.5054 C   0  0  0  0  0  0  0  0  0  0  0  0
    8.7021  -14.2262   21.0122 C   0  0  0  0  0  0  0  0  0  0  0  0
    8.5092  -15.0031   22.2798 C   0  0  0  0  0  0  0  0  0  0  0  0
    9.7559  -15.6429   22.8153 C   0  0  2  0  0  0  0  0  0  0  0  0
   10.0919  -16.8727   22.0794 N   0  0  0  0  0  0  0  0  0  0  0  0
    9.5702  -16.0500   24.2531 C   0  0  0  0  0  0  0  0  0  0  0  0
    8.5446  -15.7197   24.9011 O   0  0  0  0  0  0  0  0  0  0  0  0
    9.1730  -12.1035   19.6390 N   0  0  0  0  0  0  0  0  0  0  0  0
   10.5385  -16.8226   24.9456 C   0  0  0  0  0  0  0  0  0  0  0  0
   10.4046  -17.1875   26.3309 C   0  0  0  0  0  0  0  0  0  0  0  0
   11.5813  -17.9144   26.8497 O   0  0  0  0  0  0  0  0  0  0  0  0
   12.6360  -18.1144   25.9565 O   0  0  0  0  0  0  0  0  0  0  0  0
  2  1  1  0
  2  4  1  0
  3  2  2  0
  5  4  1  0
  5  6  1  0
  6  8  1  0
  6  7  1  6
  8  9  2  0
 10 11  1  0
 11 13  1  0
 11 12  2  0
 13 14  1  0
 14 15  1  0
 17 16  1  6
 16 15  1  0
 18 17  1  0
 18  8  1  0
 19 20  2  0
 19 17  1  0
 21 19  1  0
 22 21  1  0
 23 24  1  0
 23 22  1  0
 25 23  2  0
M  END
$$$$
