QRG.pdb
     RDKit          3D

 25 24  0  0  1  0  0  0  0  0999 V2000
    4.4968  -12.0049   26.4883 N   0  0  0  0  0  0  0  0  0  0  0  0
    5.7850  -11.7107   27.0091 C   0  0  0  0  0  0  0  0  0  0  0  0
    5.9033  -10.6353   27.6368 O   0  0  0  0  0  0  0  0  0  0  0  0
    6.9150  -12.6055   26.8248 C   0  0  0  0  0  0  0  0  0  0  0  0
    6.7225  -13.8394   26.0399 C   0  0  0  0  0  0  0  0  0  0  0  0
    7.8666  -14.7843   25.9366 C   0  0  2  0  0  0  0  0  0  0  0  0
    9.1584  -14.2640   26.2229 N   0  0  0  0  0  0  0  0  0  0  0  0
    7.9078  -15.4504   24.6075 C   0  0  0  0  0  0  0  0  0  0  0  0
    7.1001  -16.4000   24.4323 O   0  0  0  0  0  0  0  0  0  0  0  0
    8.2099  -12.4544   16.4359 N   0  0  0  0  0  0  0  0  0  0  0  0
    8.1430  -13.8725   16.2739 C   0  0  0  0  0  0  0  0  0  0  0  0
    8.0022  -14.3717   15.0932 N   0  0  0  0  0  0  0  0  0  0  0  0
    8.2321  -14.6886   17.4257 N   0  0  0  0  0  0  0  0  0  0  0  0
    8.2280  -14.1123   18.7628 C   0  0  0  0  0  0  0  0  0  0  0  0
    8.4765  -15.1993   19.7857 C   0  0  0  0  0  0  0  0  0  0  0  0
    8.4730  -14.6613   21.1849 C   0  0  0  0  0  0  0  0  0  0  0  0
    8.7868  -15.6760   22.2443 C   0  0  2  0  0  0  0  0  0  0  0  0
    8.7766  -15.0758   23.5884 N   0  0  0  0  0  0  0  0  0  0  0  0
   10.1680  -16.2424   22.0467 C   0  0  0  0  0  0  0  0  0  0  0  0
   11.1752  -15.7186   22.5870 O   0  0  0  0  0  0  0  0  0  0  0  0
    7.8583  -15.3910   14.9685 N   0  0  0  0  0  0  0  0  0  0  0  0
   10.4012  -17.3897   21.2444 C   0  0  0  0  0  0  0  0  0  0  0  0
   11.7180  -17.9047   20.9782 C   0  0  0  0  0  0  0  0  0  0  0  0
   11.6985  -19.1402   20.1686 O   0  0  0  0  0  0  0  0  0  0  0  0
   12.9378  -19.6444   19.7680 O   0  0  0  0  0  0  0  0  0  0  0  0
  2  1  1  0
  2  4  1  0
  3  2  2  0
  5  4  1  0
  5  6  1  0
  6  8  1  0
  6  7  1  6
  8  9  2  0
 10 11  1  0
 11 13  1  0
 11 12  2  0
 13 14  1  0
 14 15  1  0
 17 16  1  6
 16 15  1  0
 18 17  1  0
 18  8  1  0
 19 20  2  0
 19 17  1  0
 21 19  1  0
 22 21  1  0
 23 24  1  0
 23 22  1  0
 25 23  2  0
M  END
$$$$
