QRG.pdb
     RDKit          3D

 25 24  0  0  1  0  0  0  0  0999 V2000
    3.1885  -18.8175   19.7665 N   0  0  0  0  0  0  0  0  0  0  0  0
    2.8831  -19.0139   21.1396 C   0  0  0  0  0  0  0  0  0  0  0  0
    1.6926  -18.8364   21.4797 O   0  0  0  0  0  0  0  0  0  0  0  0
    3.8955  -19.3984   22.1083 C   0  0  0  0  0  0  0  0  0  0  0  0
    5.2929  -19.5380   21.6571 C   0  0  0  0  0  0  0  0  0  0  0  0
    6.3714  -19.1186   22.5915 C   0  0  2  0  0  0  0  0  0  0  0  0
    5.9761  -18.3788   23.7395 N   0  0  0  0  0  0  0  0  0  0  0  0
    7.4427  -18.3647   21.8875 C   0  0  0  0  0  0  0  0  0  0  0  0
    7.9424  -18.9180   20.8732 O   0  0  0  0  0  0  0  0  0  0  0  0
    6.1548  -13.0610   18.9234 N   0  0  0  0  0  0  0  0  0  0  0  0
    7.3092  -13.1361   18.0847 C   0  0  0  0  0  0  0  0  0  0  0  0
    7.1815  -13.5199   16.8601 N   0  0  0  0  0  0  0  0  0  0  0  0
    8.5654  -12.7857   18.6320 N   0  0  0  0  0  0  0  0  0  0  0  0
    8.7889  -12.7828   20.0707 C   0  0  0  0  0  0  0  0  0  0  0  0
    9.3949  -14.1031   20.4939 C   0  0  0  0  0  0  0  0  0  0  0  0
    8.4019  -14.9706   21.2073 C   0  0  0  0  0  0  0  0  0  0  0  0
    8.9163  -16.3289   21.5825 C   0  0  2  0  0  0  0  0  0  0  0  0
    7.8969  -17.1153   22.2961 N   0  0  0  0  0  0  0  0  0  0  0  0
   10.0904  -16.2139   22.5183 C   0  0  0  0  0  0  0  0  0  0  0  0
   11.1422  -15.6136   22.1802 O   0  0  0  0  0  0  0  0  0  0  0  0
    8.0098  -13.5746   16.2386 N   0  0  0  0  0  0  0  0  0  0  0  0
   10.0692  -16.7745   23.8218 C   0  0  0  0  0  0  0  0  0  0  0  0
   11.1718  -16.6651   24.7396 C   0  0  0  0  0  0  0  0  0  0  0  0
   12.1865  -17.7212   24.5469 O   0  0  0  0  0  0  0  0  0  0  0  0
   13.1994  -17.7970   25.5053 O   0  0  0  0  0  0  0  0  0  0  0  0
  2  1  1  0
  2  4  1  0
  3  2  2  0
  5  4  1  0
  5  6  1  0
  6  8  1  0
  6  7  1  1
  8  9  2  0
 10 11  1  0
 11 13  1  0
 11 12  2  0
 13 14  1  0
 14 15  1  0
 17 16  1  1
 16 15  1  0
 18 17  1  0
 18  8  1  0
 19 20  2  0
 19 17  1  0
 21 19  1  0
 22 21  1  0
 23 24  1  0
 23 22  1  0
 25 23  2  0
M  END
$$$$
