QRG.pdb
     RDKit          3D

 25 24  0  0  1  0  0  0  0  0999 V2000
    6.1709  -20.5634   26.1700 N   0  0  0  0  0  0  0  0  0  0  0  0
    6.2028  -21.6140   25.2147 C   0  0  0  0  0  0  0  0  0  0  0  0
    6.6553  -22.7127   25.6053 O   0  0  0  0  0  0  0  0  0  0  0  0
    5.7387  -21.4308   23.8500 C   0  0  0  0  0  0  0  0  0  0  0  0
    5.2094  -20.1131   23.4512 C   0  0  0  0  0  0  0  0  0  0  0  0
    5.7832  -19.4702   22.2389 C   0  0  2  0  0  0  0  0  0  0  0  0
    6.3542  -20.3322   21.2630 N   0  0  0  0  0  0  0  0  0  0  0  0
    6.7827  -18.4277   22.5935 C   0  0  0  0  0  0  0  0  0  0  0  0
    7.9794  -18.8077   22.6845 O   0  0  0  0  0  0  0  0  0  0  0  0
    7.6646  -12.0562   19.4834 N   0  0  0  0  0  0  0  0  0  0  0  0
    8.1657  -13.2568   18.8924 C   0  0  0  0  0  0  0  0  0  0  0  0
    8.0933  -13.4147   17.6145 N   0  0  0  0  0  0  0  0  0  0  0  0
    8.7274  -14.2420   19.7375 N   0  0  0  0  0  0  0  0  0  0  0  0
    7.9228  -14.9272   20.7389 C   0  0  0  0  0  0  0  0  0  0  0  0
    7.6941  -14.0112   21.9213 C   0  0  0  0  0  0  0  0  0  0  0  0
    6.9300  -14.6925   23.0165 C   0  0  0  0  0  0  0  0  0  0  0  0
    7.3950  -16.0841   23.3292 C   0  0  2  0  0  0  0  0  0  0  0  0
    6.4540  -17.0958   22.8214 N   0  0  0  0  0  0  0  0  0  0  0  0
    7.4780  -16.2959   24.8177 C   0  0  0  0  0  0  0  0  0  0  0  0
    6.4886  -16.0900   25.5657 O   0  0  0  0  0  0  0  0  0  0  0  0
    8.5222  -14.2440   17.1635 N   0  0  0  0  0  0  0  0  0  0  0  0
    8.6710  -16.7358   25.4479 C   0  0  0  0  0  0  0  0  0  0  0  0
    8.7477  -17.0445   26.8511 C   0  0  0  0  0  0  0  0  0  0  0  0
   10.0663  -17.5769   27.2509 O   0  0  0  0  0  0  0  0  0  0  0  0
   10.2045  -17.9671   28.5847 O   0  0  0  0  0  0  0  0  0  0  0  0
  2  1  1  0
  2  4  1  0
  3  2  2  0
  5  4  1  0
  5  6  1  0
  6  8  1  0
  6  7  1  6
  8  9  2  0
 10 11  1  0
 11 13  1  0
 11 12  2  0
 13 14  1  0
 14 15  1  0
 17 16  1  1
 16 15  1  0
 18 17  1  0
 18  8  1  0
 19 20  2  0
 19 17  1  0
 21 19  1  0
 22 21  1  0
 23 24  1  0
 23 22  1  0
 25 23  2  0
M  END
$$$$
