AAQ.pdb
     RDKit          3D

 20 19  0  0  1  0  0  0  0  0999 V2000
   15.0010  -12.8382  -15.7756 C   0  0  0  0  0  0  0  0  0  0  0  0
   16.4738  -13.0703  -15.4333 C   0  0  2  0  0  0  0  0  0  0  0  0
   16.5733  -14.3870  -14.8795 N   0  0  0  0  0  0  0  0  0  0  0  0
   16.8705  -12.0125  -14.4593 C   0  0  0  0  0  0  0  0  0  0  0  0
   16.4680  -12.0918  -13.2705 O   0  0  0  0  0  0  0  0  0  0  0  0
   19.2803   -9.0760  -14.4291 C   0  0  0  0  0  0  0  0  0  0  0  0
   18.1316   -9.9008  -13.8724 C   0  0  2  0  0  0  0  0  0  0  0  0
   17.6888  -10.9061  -14.8056 N   0  0  0  0  0  0  0  0  0  0  0  0
   17.0483   -8.9650  -13.4958 C   0  0  0  0  0  0  0  0  0  0  0  0
   16.1781   -8.6832  -14.3541 O   0  0  0  0  0  0  0  0  0  0  0  0
   15.4433   -7.2362   -7.5026 N   0  0  0  0  0  0  0  0  0  0  0  0
   14.6359   -6.4244   -8.3409 C   0  0  0  0  0  0  0  0  0  0  0  0
   13.8320   -5.6324   -7.8121 O   0  0  0  0  0  0  0  0  0  0  0  0
   14.7443   -6.5165   -9.7944 C   0  0  0  0  0  0  0  0  0  0  0  0
   15.7339   -7.5057  -10.3086 C   0  0  0  0  0  0  0  0  0  0  0  0
   15.9175   -7.4820  -11.7908 C   0  0  2  0  0  0  0  0  0  0  0  0
   16.9970   -8.4015  -12.1954 N   0  0  0  0  0  0  0  0  0  0  0  0
   16.2996   -6.1499  -12.3034 C   0  0  0  0  0  0  0  0  0  0  0  0
   17.5118   -5.8515  -12.3714 O   0  0  0  0  0  0  0  0  0  0  0  0
   15.3617   -5.2246  -12.7096 O   0  0  0  0  0  0  0  0  0  0  0  0
  2  1  1  1
  3  2  1  0
  4  2  1  0
  4  5  2  0
  7  6  1  6
  7  8  1  0
  8  4  1  0
  9  7  1  0
  9 17  1  0
 10  9  2  0
 12 11  1  0
 13 12  2  0
 14 12  1  0
 15 14  1  0
 16 17  1  0
 16 15  1  1
 18 16  1  0
 19 18  2  0
 20 18  1  0
M  END
$$$$
