AAQ.pdb
     RDKit          3D

 20 19  0  0  1  0  0  0  0  0999 V2000
   20.5189  -15.5304  -18.0819 C   0  0  0  0  0  0  0  0  0  0  0  0
   20.4028  -14.0934  -18.5934 C   0  0  2  0  0  0  0  0  0  0  0  0
   21.2222  -13.9973  -19.7638 N   0  0  0  0  0  0  0  0  0  0  0  0
   20.8709  -13.1974  -17.4967 C   0  0  0  0  0  0  0  0  0  0  0  0
   20.2250  -13.1597  -16.4182 O   0  0  0  0  0  0  0  0  0  0  0  0
   23.8695  -10.9874  -16.7766 C   0  0  0  0  0  0  0  0  0  0  0  0
   22.4132  -11.3941  -16.6230 C   0  0  2  0  0  0  0  0  0  0  0  0
   22.0212  -12.3736  -17.6050 N   0  0  0  0  0  0  0  0  0  0  0  0
   21.5936  -10.1637  -16.6957 C   0  0  0  0  0  0  0  0  0  0  0  0
   21.1525   -9.8058  -17.8141 O   0  0  0  0  0  0  0  0  0  0  0  0
   16.5833   -8.4724  -16.1712 N   0  0  0  0  0  0  0  0  0  0  0  0
   16.9965   -7.2760  -15.5296 C   0  0  0  0  0  0  0  0  0  0  0  0
   16.2216   -6.3000  -15.5279 O   0  0  0  0  0  0  0  0  0  0  0  0
   18.3045   -7.1903  -14.8856 C   0  0  0  0  0  0  0  0  0  0  0  0
   19.1550   -8.4107  -14.9819 C   0  0  0  0  0  0  0  0  0  0  0  0
   20.5054   -8.1769  -15.5761 C   0  0  2  0  0  0  0  0  0  0  0  0
   21.3146   -9.4088  -15.5281 N   0  0  0  0  0  0  0  0  0  0  0  0
   21.2823   -7.1474  -14.8552 C   0  0  0  0  0  0  0  0  0  0  0  0
   22.0982   -7.5070  -13.9786 O   0  0  0  0  0  0  0  0  0  0  0  0
   21.1365   -5.8019  -15.1180 O   0  0  0  0  0  0  0  0  0  0  0  0
  2  1  1  1
  3  2  1  0
  4  2  1  0
  4  5  2  0
  7  6  1  6
  7  8  1  0
  8  4  1  0
  9  7  1  0
  9 17  1  0
 10  9  2  0
 12 11  1  0
 13 12  2  0
 14 12  1  0
 15 14  1  0
 16 17  1  0
 16 15  1  1
 18 16  1  0
 19 18  2  0
 20 18  1  0
M  END
$$$$
