AAQ.pdb
     RDKit          3D

 20 19  0  0  1  0  0  0  0  0999 V2000
   17.0608  -14.2971  -16.9854 C   0  0  0  0  0  0  0  0  0  0  0  0
   17.4122  -13.4456  -15.7641 C   0  0  2  0  0  0  0  0  0  0  0  0
   16.3212  -13.5616  -14.8439 N   0  0  0  0  0  0  0  0  0  0  0  0
   17.6044  -12.0466  -16.2444 C   0  0  0  0  0  0  0  0  0  0  0  0
   18.6937  -11.7290  -16.7867 O   0  0  0  0  0  0  0  0  0  0  0  0
   15.4499   -9.0027  -16.8441 C   0  0  0  0  0  0  0  0  0  0  0  0
   16.7811   -9.6759  -16.5534 C   0  0  2  0  0  0  0  0  0  0  0  0
   16.6115  -11.0404  -16.1213 N   0  0  0  0  0  0  0  0  0  0  0  0
   17.4915   -8.8510  -15.5503 C   0  0  0  0  0  0  0  0  0  0  0  0
   17.3725   -9.1517  -14.3383 O   0  0  0  0  0  0  0  0  0  0  0  0
   23.0112   -5.8935  -16.3741 N   0  0  0  0  0  0  0  0  0  0  0  0
   22.5094   -5.3036  -15.1850 C   0  0  0  0  0  0  0  0  0  0  0  0
   23.2253   -4.4862  -14.5747 O   0  0  0  0  0  0  0  0  0  0  0  0
   21.1810   -5.6489  -14.6860 C   0  0  0  0  0  0  0  0  0  0  0  0
   20.3942   -6.5881  -15.5352 C   0  0  0  0  0  0  0  0  0  0  0  0
   19.0571   -6.9521  -14.9776 C   0  0  2  0  0  0  0  0  0  0  0  0
   18.2871   -7.7478  -15.9515 N   0  0  0  0  0  0  0  0  0  0  0  0
   18.2241   -5.7735  -14.6608 C   0  0  0  0  0  0  0  0  0  0  0  0
   17.4702   -5.3092  -15.5436 O   0  0  0  0  0  0  0  0  0  0  0  0
   18.2512   -5.1688  -13.4221 O   0  0  0  0  0  0  0  0  0  0  0  0
  2  1  1  6
  3  2  1  0
  4  2  1  0
  4  5  2  0
  7  6  1  1
  7  8  1  0
  8  4  1  0
  9  7  1  0
  9 17  1  0
 10  9  2  0
 12 11  1  0
 13 12  2  0
 14 12  1  0
 15 14  1  0
 16 17  1  0
 16 15  1  6
 18 16  1  0
 19 18  2  0
 20 18  1  0
M  END
$$$$
