AAQ.pdb
     RDKit          3D

 20 19  0  0  1  0  0  0  0  0999 V2000
   17.0926  -15.8750  -17.1380 C   0  0  0  0  0  0  0  0  0  0  0  0
   16.4177  -14.5031  -17.0859 C   0  0  2  0  0  0  0  0  0  0  0  0
   15.8363  -14.2724  -18.3739 N   0  0  0  0  0  0  0  0  0  0  0  0
   17.4753  -13.5055  -16.7526 C   0  0  0  0  0  0  0  0  0  0  0  0
   17.9519  -13.4830  -15.5890 O   0  0  0  0  0  0  0  0  0  0  0  0
   19.4396  -10.8121  -18.5919 C   0  0  0  0  0  0  0  0  0  0  0  0
   18.8660  -11.4811  -17.3537 C   0  0  2  0  0  0  0  0  0  0  0  0
   17.9804  -12.5673  -17.6898 N   0  0  0  0  0  0  0  0  0  0  0  0
   18.1956  -10.4354  -16.5485 C   0  0  0  0  0  0  0  0  0  0  0  0
   16.9729  -10.2290  -16.7380 O   0  0  0  0  0  0  0  0  0  0  0  0
   16.8156  -10.1185  -10.9713 N   0  0  0  0  0  0  0  0  0  0  0  0
   16.7947   -8.7243  -11.2347 C   0  0  0  0  0  0  0  0  0  0  0  0
   16.3815   -7.9541  -10.3464 O   0  0  0  0  0  0  0  0  0  0  0  0
   17.2470   -8.2030  -12.5218 C   0  0  0  0  0  0  0  0  0  0  0  0
   17.7950   -9.2120  -13.4726 C   0  0  0  0  0  0  0  0  0  0  0  0
   18.2725   -8.6434  -14.7688 C   0  0  2  0  0  0  0  0  0  0  0  0
   18.9195   -9.6860  -15.5866 N   0  0  0  0  0  0  0  0  0  0  0  0
   19.2787   -7.5756  -14.5943 C   0  0  0  0  0  0  0  0  0  0  0  0
   20.4849   -7.8421  -14.7873 O   0  0  0  0  0  0  0  0  0  0  0  0
   18.9302   -6.2937  -14.2254 O   0  0  0  0  0  0  0  0  0  0  0  0
  2  1  1  6
  3  2  1  0
  4  2  1  0
  4  5  2  0
  7  6  1  6
  7  8  1  0
  8  4  1  0
  9  7  1  0
  9 17  1  0
 10  9  2  0
 12 11  1  0
 13 12  2  0
 14 12  1  0
 15 14  1  0
 16 17  1  0
 16 15  1  1
 18 16  1  0
 19 18  2  0
 20 18  1  0
M  END
$$$$
