AAQ.pdb
     RDKit          3D

 20 19  0  0  1  0  0  0  0  0999 V2000
   13.5013   -9.6381  -10.9080 C   0  0  0  0  0  0  0  0  0  0  0  0
   15.0231   -9.7942  -10.9053 C   0  0  2  0  0  0  0  0  0  0  0  0
   15.3744  -10.4591   -9.6868 N   0  0  0  0  0  0  0  0  0  0  0  0
   15.6055   -8.4239  -10.9936 C   0  0  0  0  0  0  0  0  0  0  0  0
   15.6232   -7.8358  -12.1051 O   0  0  0  0  0  0  0  0  0  0  0  0
   16.6843   -5.7012   -8.6158 C   0  0  0  0  0  0  0  0  0  0  0  0
   16.7631   -6.4359   -9.9439 C   0  0  2  0  0  0  0  0  0  0  0  0
   16.1484   -7.7378   -9.8764 N   0  0  0  0  0  0  0  0  0  0  0  0
   18.1892   -6.5053  -10.3345 C   0  0  0  0  0  0  0  0  0  0  0  0
   18.9382   -7.3015   -9.7193 O   0  0  0  0  0  0  0  0  0  0  0  0
   19.9638   -9.4379  -14.5765 N   0  0  0  0  0  0  0  0  0  0  0  0
   21.1243   -8.6232  -14.5205 C   0  0  0  0  0  0  0  0  0  0  0  0
   22.0978   -8.9188  -15.2402 O   0  0  0  0  0  0  0  0  0  0  0  0
   21.1768   -7.4623  -13.6359 C   0  0  0  0  0  0  0  0  0  0  0  0
   19.9363   -7.1851  -12.8570 C   0  0  0  0  0  0  0  0  0  0  0  0
   20.0019   -5.9580  -12.0077 C   0  0  2  0  0  0  0  0  0  0  0  0
   18.6949   -5.6906  -11.3793 N   0  0  0  0  0  0  0  0  0  0  0  0
   20.3442   -4.7429  -12.7754 C   0  0  0  0  0  0  0  0  0  0  0  0
   19.4218   -4.0544  -13.2635 O   0  0  0  0  0  0  0  0  0  0  0  0
   21.6492   -4.3433  -12.9710 O   0  0  0  0  0  0  0  0  0  0  0  0
  2  1  1  1
  3  2  1  0
  4  2  1  0
  4  5  2  0
  7  6  1  1
  7  8  1  0
  8  4  1  0
  9  7  1  0
  9 17  1  0
 10  9  2  0
 12 11  1  0
 13 12  2  0
 14 12  1  0
 15 14  1  0
 16 17  1  0
 16 15  1  6
 18 16  1  0
 19 18  2  0
 20 18  1  0
M  END
$$$$
