AAQ.pdb
     RDKit          3D

 20 19  0  0  1  0  0  0  0  0999 V2000
   19.0579  -14.4922  -19.0434 C   0  0  0  0  0  0  0  0  0  0  0  0
   18.6896  -13.0078  -19.0163 C   0  0  2  0  0  0  0  0  0  0  0  0
   19.0437  -12.4643  -20.2928 N   0  0  0  0  0  0  0  0  0  0  0  0
   19.4583  -12.3846  -17.9002 C   0  0  0  0  0  0  0  0  0  0  0  0
   19.2237  -12.7450  -16.7183 O   0  0  0  0  0  0  0  0  0  0  0  0
   22.3874   -9.9965  -17.5247 C   0  0  0  0  0  0  0  0  0  0  0  0
   21.1261  -10.6909  -17.0380 C   0  0  2  0  0  0  0  0  0  0  0  0
   20.4537  -11.3936  -18.1017 N   0  0  0  0  0  0  0  0  0  0  0  0
   20.2647   -9.6660  -16.4066 C   0  0  0  0  0  0  0  0  0  0  0  0
   19.4029   -9.0923  -17.1148 O   0  0  0  0  0  0  0  0  0  0  0  0
   17.2294  -10.1173  -11.1409 N   0  0  0  0  0  0  0  0  0  0  0  0
   17.1144   -8.7284  -11.4075 C   0  0  0  0  0  0  0  0  0  0  0  0
   16.3199   -8.0523  -10.7257 O   0  0  0  0  0  0  0  0  0  0  0  0
   17.9105   -8.1042  -12.4609 C   0  0  0  0  0  0  0  0  0  0  0  0
   18.8134   -9.0176  -13.2175 C   0  0  0  0  0  0  0  0  0  0  0  0
   19.5204   -8.3751  -14.3659 C   0  0  2  0  0  0  0  0  0  0  0  0
   20.4115   -9.3416  -15.0339 N   0  0  0  0  0  0  0  0  0  0  0  0
   20.3768   -7.2431  -13.9556 C   0  0  0  0  0  0  0  0  0  0  0  0
   21.6011   -7.4374  -13.7924 O   0  0  0  0  0  0  0  0  0  0  0  0
   19.8691   -5.9785  -13.7466 O   0  0  0  0  0  0  0  0  0  0  0  0
  2  1  1  6
  3  2  1  0
  4  2  1  0
  4  5  2  0
  7  6  1  6
  7  8  1  0
  8  4  1  0
  9  7  1  0
  9 17  1  0
 10  9  2  0
 12 11  1  0
 13 12  2  0
 14 12  1  0
 15 14  1  0
 16 17  1  0
 16 15  1  1
 18 16  1  0
 19 18  2  0
 20 18  1  0
M  END
$$$$
