AAQ.pdb
     RDKit          3D

 20 19  0  0  1  0  0  0  0  0999 V2000
   17.2932  -11.5713  -16.4011 C   0  0  0  0  0  0  0  0  0  0  0  0
   17.8849  -10.3479  -17.1033 C   0  0  2  0  0  0  0  0  0  0  0  0
   18.5225  -10.8166  -18.2967 N   0  0  0  0  0  0  0  0  0  0  0  0
   18.8481   -9.7192  -16.1536 C   0  0  0  0  0  0  0  0  0  0  0  0
   18.4054   -9.0708  -15.1711 O   0  0  0  0  0  0  0  0  0  0  0  0
   22.6141   -9.7280  -15.6236 C   0  0  0  0  0  0  0  0  0  0  0  0
   21.2079   -9.1904  -15.4152 C   0  0  2  0  0  0  0  0  0  0  0  0
   20.2564   -9.8140  -16.3000 N   0  0  0  0  0  0  0  0  0  0  0  0
   21.2591   -7.7211  -15.5875 C   0  0  0  0  0  0  0  0  0  0  0  0
   20.9495   -7.2401  -16.7038 O   0  0  0  0  0  0  0  0  0  0  0  0
   17.6368   -3.8426  -15.2931 N   0  0  0  0  0  0  0  0  0  0  0  0
   18.6975   -2.9502  -14.9897 C   0  0  0  0  0  0  0  0  0  0  0  0
   18.4502   -1.7312  -14.9135 O   0  0  0  0  0  0  0  0  0  0  0  0
   20.0522   -3.4508  -14.7726 C   0  0  0  0  0  0  0  0  0  0  0  0
   20.2145   -4.9310  -14.8414 C   0  0  0  0  0  0  0  0  0  0  0  0
   21.6140   -5.4092  -14.6314 C   0  0  2  0  0  0  0  0  0  0  0  0
   21.6490   -6.8788  -14.5153 N   0  0  0  0  0  0  0  0  0  0  0  0
   22.2225   -4.8851  -13.3911 C   0  0  0  0  0  0  0  0  0  0  0  0
   22.6988   -3.7291  -13.3912 O   0  0  0  0  0  0  0  0  0  0  0  0
   22.2822   -5.6303  -12.2327 O   0  0  0  0  0  0  0  0  0  0  0  0
  2  1  1  1
  3  2  1  0
  4  2  1  0
  4  5  2  0
  7  6  1  6
  7  8  1  0
  8  4  1  0
  9  7  1  0
  9 17  1  0
 10  9  2  0
 12 11  1  0
 13 12  2  0
 14 12  1  0
 15 14  1  0
 16 17  1  0
 16 15  1  1
 18 16  1  0
 19 18  2  0
 20 18  1  0
M  END
$$$$
