AAQ.pdb
     RDKit          3D

 20 19  0  0  1  0  0  0  0  0999 V2000
   19.3736  -13.3874  -17.2185 C   0  0  0  0  0  0  0  0  0  0  0  0
   20.1297  -12.1670  -17.7467 C   0  0  2  0  0  0  0  0  0  0  0  0
   21.2709  -12.6568  -18.4596 N   0  0  0  0  0  0  0  0  0  0  0  0
   20.5096  -11.3400  -16.5649 C   0  0  0  0  0  0  0  0  0  0  0  0
   19.6107  -10.7389  -15.9230 O   0  0  0  0  0  0  0  0  0  0  0  0
   23.6723  -10.5624  -14.6020 C   0  0  0  0  0  0  0  0  0  0  0  0
   22.2659  -10.2665  -15.0964 C   0  0  2  0  0  0  0  0  0  0  0  0
   21.8487  -11.1924  -16.1190 N   0  0  0  0  0  0  0  0  0  0  0  0
   22.2406   -8.8620  -15.5631 C   0  0  0  0  0  0  0  0  0  0  0  0
   22.6110   -8.6163  -16.7360 O   0  0  0  0  0  0  0  0  0  0  0  0
   18.5037   -3.0737  -17.0224 N   0  0  0  0  0  0  0  0  0  0  0  0
   18.7660   -4.3377  -16.4333 C   0  0  0  0  0  0  0  0  0  0  0  0
   17.8386   -5.1668  -16.3587 O   0  0  0  0  0  0  0  0  0  0  0  0
   20.0962   -4.6596  -15.9235 C   0  0  0  0  0  0  0  0  0  0  0  0
   20.2939   -6.0668  -15.4728 C   0  0  0  0  0  0  0  0  0  0  0  0
   21.7116   -6.4233  -15.1656 C   0  0  2  0  0  0  0  0  0  0  0  0
   21.8076   -7.8204  -14.7036 N   0  0  0  0  0  0  0  0  0  0  0  0
   22.2946   -5.5946  -14.0902 C   0  0  0  0  0  0  0  0  0  0  0  0
   22.4023   -6.0790  -12.9426 O   0  0  0  0  0  0  0  0  0  0  0  0
   22.7241   -4.3034  -14.3115 O   0  0  0  0  0  0  0  0  0  0  0  0
  2  1  1  1
  3  2  1  0
  4  2  1  0
  4  5  2  0
  7  6  1  6
  7  8  1  0
  8  4  1  0
  9  7  1  0
  9 17  1  0
 10  9  2  0
 12 11  1  0
 13 12  2  0
 14 12  1  0
 15 14  1  0
 16 17  1  0
 16 15  1  1
 18 16  1  0
 19 18  2  0
 20 18  1  0
M  END
$$$$
