AAQ.pdb
     RDKit          3D

 20 19  0  0  1  0  0  0  0  0999 V2000
   15.7607  -13.9087  -15.4047 C   0  0  0  0  0  0  0  0  0  0  0  0
   16.9730  -13.0496  -15.0413 C   0  0  2  0  0  0  0  0  0  0  0  0
   17.7261  -13.7781  -14.0653 N   0  0  0  0  0  0  0  0  0  0  0  0
   16.4521  -11.7574  -14.5087 C   0  0  0  0  0  0  0  0  0  0  0  0
   15.8634  -10.9657  -15.2887 O   0  0  0  0  0  0  0  0  0  0  0  0
   16.1648  -10.0745  -11.1075 C   0  0  0  0  0  0  0  0  0  0  0  0
   16.1607  -10.0934  -12.6272 C   0  0  2  0  0  0  0  0  0  0  0  0
   16.5861  -11.3669  -13.1510 N   0  0  0  0  0  0  0  0  0  0  0  0
   17.0161   -8.9784  -13.0921 C   0  0  0  0  0  0  0  0  0  0  0  0
   18.2587   -9.1482  -13.1129 O   0  0  0  0  0  0  0  0  0  0  0  0
   17.4688   -6.7944  -18.4001 N   0  0  0  0  0  0  0  0  0  0  0  0
   17.9908   -5.6706  -17.7085 C   0  0  0  0  0  0  0  0  0  0  0  0
   18.4820   -4.7361  -18.3706 O   0  0  0  0  0  0  0  0  0  0  0  0
   17.9540   -5.6115  -16.2497 C   0  0  0  0  0  0  0  0  0  0  0  0
   17.2649   -6.7468  -15.5726 C   0  0  0  0  0  0  0  0  0  0  0  0
   17.2616   -6.6661  -14.0811 C   0  0  2  0  0  0  0  0  0  0  0  0
   16.4429   -7.7484  -13.5040 N   0  0  0  0  0  0  0  0  0  0  0  0
   16.6882   -5.4026  -13.5732 C   0  0  0  0  0  0  0  0  0  0  0  0
   15.4643   -5.3498  -13.3229 O   0  0  0  0  0  0  0  0  0  0  0  0
   17.4598   -4.2789  -13.3662 O   0  0  0  0  0  0  0  0  0  0  0  0
  2  1  1  1
  3  2  1  0
  4  2  1  0
  4  5  2  0
  7  6  1  1
  7  8  1  0
  8  4  1  0
  9  7  1  0
  9 17  1  0
 10  9  2  0
 12 11  1  0
 13 12  2  0
 14 12  1  0
 15 14  1  0
 16 17  1  0
 16 15  1  6
 18 16  1  0
 19 18  2  0
 20 18  1  0
M  END
$$$$
