LGP.pdb
     RDKit          3D

 20 20  0  0  1  0  0  0  0  0999 V2000
   11.1060  -13.8658   27.4984 C   0  0  0  0  0  0  0  0  0  0  0  0
    9.7798  -14.5529   27.5870 C   0  0  1  0  0  0  0  0  0  0  0  0
    8.7151  -13.5626   27.9739 C   0  0  0  0  0  0  0  0  0  0  0  0
    9.4215  -15.3336   26.3664 C   0  0  0  0  0  0  0  0  0  0  0  0
    8.1801  -16.1741   26.5460 C   0  0  2  0  0  0  0  0  0  0  0  0
    8.5281  -17.4103   27.2189 N   0  0  0  0  0  0  0  0  0  0  0  0
    7.5714  -16.5267   25.2402 C   0  0  0  0  0  0  0  0  0  0  0  0
    7.7507  -17.6919   24.7485 O   0  0  0  0  0  0  0  0  0  0  0  0
    6.7775  -15.6437   24.4645 N   0  0  0  0  0  0  0  0  0  0  0  0
    6.1294  -16.0502   23.2323 C   0  0  0  0  0  0  0  0  0  0  0  0
    7.1133  -16.1831   22.1211 C   0  0  0  0  0  0  0  0  0  0  0  0
    7.4197  -17.2953   21.6373 O   0  0  0  0  0  0  0  0  0  0  0  0
    7.7002  -14.9929   21.6216 N   0  0  0  0  0  0  0  0  0  0  0  0
    7.4761  -13.6820   22.1910 C   0  0  0  0  0  0  0  0  0  0  0  0
    7.7312  -12.6940   21.0613 C   0  0  0  0  0  0  0  0  0  0  0  0
    8.0407  -13.5594   19.8481 C   0  0  0  0  0  0  0  0  0  0  0  0
    8.5944  -14.8054   20.5120 C   0  0  1  0  0  0  0  0  0  0  0  0
    9.9998  -14.6511   20.9154 C   0  0  0  0  0  0  0  0  0  0  0  0
   10.9418  -14.4505   20.1246 O   0  0  0  0  0  0  0  0  0  0  0  0
   10.3019  -14.7335   22.2655 O   0  0  0  0  0  0  0  0  0  0  0  0
  2  1  1  6
  3  2  1  0
  4  2  1  0
  5  4  1  0
  5  6  1  6
  7  5  1  0
  7  8  2  0
  9  7  1  0
 10  9  1  0
 10 11  1  0
 11 13  1  0
 12 11  2  0
 13 14  1  0
 13 17  1  0
 14 15  1  0
 16 15  1  0
 17 16  1  0
 18 20  1  0
 17 18  1  1
 19 18  2  0
M  END
$$$$
