LGP.pdb
     RDKit          3D

 20 20  0  0  1  0  0  0  0  0999 V2000
    7.5158  -11.6804   27.5279 C   0  0  0  0  0  0  0  0  0  0  0  0
    7.2137  -13.0585   27.0293 C   0  0  1  0  0  0  0  0  0  0  0  0
    5.9100  -13.0566   26.2781 C   0  0  0  0  0  0  0  0  0  0  0  0
    8.3258  -13.6751   26.2478 C   0  0  0  0  0  0  0  0  0  0  0  0
    7.9150  -14.9403   25.5335 C   0  0  2  0  0  0  0  0  0  0  0  0
    8.8503  -16.0006   25.8545 N   0  0  0  0  0  0  0  0  0  0  0  0
    7.9261  -14.7588   24.0613 C   0  0  0  0  0  0  0  0  0  0  0  0
    8.9787  -14.3261   23.4815 O   0  0  0  0  0  0  0  0  0  0  0  0
    6.8232  -15.0366   23.2139 N   0  0  0  0  0  0  0  0  0  0  0  0
    6.6498  -14.4034   21.9206 C   0  0  0  0  0  0  0  0  0  0  0  0
    7.5449  -15.0108   20.8958 C   0  0  0  0  0  0  0  0  0  0  0  0
    7.6264  -16.2491   20.7380 O   0  0  0  0  0  0  0  0  0  0  0  0
    8.3127  -14.1295   20.0932 N   0  0  0  0  0  0  0  0  0  0  0  0
    8.4112  -12.7050   20.3261 C   0  0  0  0  0  0  0  0  0  0  0  0
    8.7572  -12.0909   18.9769 C   0  0  0  0  0  0  0  0  0  0  0  0
    8.7736  -13.2635   18.0066 C   0  0  0  0  0  0  0  0  0  0  0  0
    9.1216  -14.4083   18.9383 C   0  0  1  0  0  0  0  0  0  0  0  0
   10.5599  -14.4743   19.2362 C   0  0  0  0  0  0  0  0  0  0  0  0
   11.0909  -13.9946   20.2565 O   0  0  0  0  0  0  0  0  0  0  0  0
   11.3847  -15.1124   18.3232 O   0  0  0  0  0  0  0  0  0  0  0  0
  2  1  1  6
  3  2  1  0
  4  2  1  0
  5  4  1  0
  5  6  1  6
  7  5  1  0
  7  8  2  0
  9  7  1  0
 10  9  1  0
 10 11  1  0
 11 13  1  0
 12 11  2  0
 13 14  1  0
 13 17  1  0
 14 15  1  0
 16 15  1  0
 17 16  1  0
 18 20  1  0
 17 18  1  1
 19 18  2  0
M  END
$$$$
