LGP.pdb
     RDKit          3D

 20 20  0  0  1  0  0  0  0  0999 V2000
    6.9333  -11.6792   27.7024 C   0  0  0  0  0  0  0  0  0  0  0  0
    6.5971  -13.0239   27.1388 C   0  0  1  0  0  0  0  0  0  0  0  0
    5.6307  -12.8727   25.9956 C   0  0  0  0  0  0  0  0  0  0  0  0
    7.7915  -13.8425   26.7766 C   0  0  0  0  0  0  0  0  0  0  0  0
    7.4529  -15.0275   25.9043 C   0  0  2  0  0  0  0  0  0  0  0  0
    7.2525  -16.1973   26.7370 N   0  0  0  0  0  0  0  0  0  0  0  0
    8.5508  -15.3320   24.9546 C   0  0  0  0  0  0  0  0  0  0  0  0
    9.7634  -15.3102   25.3556 O   0  0  0  0  0  0  0  0  0  0  0  0
    8.3574  -15.6572   23.5877 N   0  0  0  0  0  0  0  0  0  0  0  0
    8.8147  -14.8047   22.5071 C   0  0  0  0  0  0  0  0  0  0  0  0
    7.9896  -14.9948   21.2809 C   0  0  0  0  0  0  0  0  0  0  0  0
    6.9884  -15.7447   21.2661 O   0  0  0  0  0  0  0  0  0  0  0  0
    8.3798  -14.2896   20.1145 N   0  0  0  0  0  0  0  0  0  0  0  0
    9.4621  -13.3303   20.0755 C   0  0  0  0  0  0  0  0  0  0  0  0
    9.1465  -12.4015   18.9115 C   0  0  0  0  0  0  0  0  0  0  0  0
    7.8056  -12.8854   18.3781 C   0  0  0  0  0  0  0  0  0  0  0  0
    7.8404  -14.3463   18.7834 C   0  0  1  0  0  0  0  0  0  0  0  0
    8.6424  -15.1666   17.8638 C   0  0  0  0  0  0  0  0  0  0  0  0
    8.2292  -15.6151   16.7770 O   0  0  0  0  0  0  0  0  0  0  0  0
    9.9468  -15.4637   18.2263 O   0  0  0  0  0  0  0  0  0  0  0  0
  2  1  1  6
  3  2  1  0
  4  2  1  0
  5  4  1  0
  5  6  1  1
  7  5  1  0
  7  8  2  0
  9  7  1  0
 10  9  1  0
 10 11  1  0
 11 13  1  0
 12 11  2  0
 13 14  1  0
 13 17  1  0
 14 15  1  0
 16 15  1  0
 17 16  1  0
 18 20  1  0
 17 18  1  6
 19 18  2  0
M  END
$$$$
