LGP.pdb
     RDKit          3D

 20 20  0  0  1  0  0  0  0  0999 V2000
    8.2461  -12.2172   25.6228 C   0  0  0  0  0  0  0  0  0  0  0  0
    7.1832  -12.8363   26.4746 C   0  0  1  0  0  0  0  0  0  0  0  0
    6.5103  -11.7766   27.3043 C   0  0  0  0  0  0  0  0  0  0  0  0
    6.2099  -13.6729   25.7126 C   0  0  0  0  0  0  0  0  0  0  0  0
    6.6399  -15.1150   25.5897 C   0  0  2  0  0  0  0  0  0  0  0  0
    7.2190  -15.5540   26.8443 N   0  0  0  0  0  0  0  0  0  0  0  0
    7.6678  -15.2854   24.5339 C   0  0  0  0  0  0  0  0  0  0  0  0
    8.9072  -15.2343   24.8384 O   0  0  0  0  0  0  0  0  0  0  0  0
    7.3763  -15.5086   23.1640 N   0  0  0  0  0  0  0  0  0  0  0  0
    8.4097  -15.6681   22.1589 C   0  0  0  0  0  0  0  0  0  0  0  0
    9.0522  -17.0095   22.2507 C   0  0  0  0  0  0  0  0  0  0  0  0
    8.5756  -17.9250   22.9576 O   0  0  0  0  0  0  0  0  0  0  0  0
   10.2374  -17.2196   21.5013 N   0  0  0  0  0  0  0  0  0  0  0  0
   10.8015  -16.2447   20.5934 C   0  0  0  0  0  0  0  0  0  0  0  0
   11.6187  -17.0439   19.5880 C   0  0  0  0  0  0  0  0  0  0  0  0
   11.4031  -18.4992   19.9782 C   0  0  0  0  0  0  0  0  0  0  0  0
   11.1068  -18.3634   21.4592 C   0  0  1  0  0  0  0  0  0  0  0  0
   12.3259  -18.1989   22.2645 C   0  0  0  0  0  0  0  0  0  0  0  0
   12.8196  -17.0987   22.5788 O   0  0  0  0  0  0  0  0  0  0  0  0
   12.9731  -19.3422   22.7060 O   0  0  0  0  0  0  0  0  0  0  0  0
  2  1  1  6
  3  2  1  0
  4  2  1  0
  5  4  1  0
  5  6  1  1
  7  5  1  0
  7  8  2  0
  9  7  1  0
 10  9  1  0
 10 11  1  0
 11 13  1  0
 12 11  2  0
 13 14  1  0
 13 17  1  0
 14 15  1  0
 16 15  1  0
 17 16  1  0
 18 20  1  0
 17 18  1  1
 19 18  2  0
M  END
$$$$
