LGP.pdb
     RDKit          3D

 20 20  0  0  1  0  0  0  0  0999 V2000
    5.9173  -12.1063   27.1263 C   0  0  0  0  0  0  0  0  0  0  0  0
    6.9227  -13.1366   26.7186 C   0  0  1  0  0  0  0  0  0  0  0  0
    8.1004  -13.1010   27.6544 C   0  0  0  0  0  0  0  0  0  0  0  0
    6.3535  -14.5077   26.5639 C   0  0  0  0  0  0  0  0  0  0  0  0
    7.1024  -15.3480   25.5575 C   0  0  2  0  0  0  0  0  0  0  0  0
    8.4584  -15.5633   26.0231 N   0  0  0  0  0  0  0  0  0  0  0  0
    7.1795  -14.6729   24.2390 C   0  0  0  0  0  0  0  0  0  0  0  0
    6.1268  -14.5451   23.5270 O   0  0  0  0  0  0  0  0  0  0  0  0
    8.3701  -14.1383   23.6838 N   0  0  0  0  0  0  0  0  0  0  0  0
    8.4213  -13.5486   22.3597 C   0  0  0  0  0  0  0  0  0  0  0  0
    8.1653  -14.5673   21.3028 C   0  0  0  0  0  0  0  0  0  0  0  0
    7.6998  -15.6971   21.5708 O   0  0  0  0  0  0  0  0  0  0  0  0
    8.4699  -14.2117   19.9644 N   0  0  0  0  0  0  0  0  0  0  0  0
    9.0085  -12.9272   19.5733 C   0  0  0  0  0  0  0  0  0  0  0  0
    8.6005  -12.7359   18.1193 C   0  0  0  0  0  0  0  0  0  0  0  0
    7.7631  -13.9618   17.7840 C   0  0  0  0  0  0  0  0  0  0  0  0
    8.3308  -14.9778   18.7562 C   0  0  1  0  0  0  0  0  0  0  0  0
    9.5963  -15.5604   18.2865 C   0  0  0  0  0  0  0  0  0  0  0  0
    9.6796  -16.5135   17.4878 O   0  0  0  0  0  0  0  0  0  0  0  0
   10.7791  -15.0160   18.7614 O   0  0  0  0  0  0  0  0  0  0  0  0
  2  1  1  1
  3  2  1  0
  4  2  1  0
  5  4  1  0
  5  6  1  1
  7  5  1  0
  7  8  2  0
  9  7  1  0
 10  9  1  0
 10 11  1  0
 11 13  1  0
 12 11  2  0
 13 14  1  0
 13 17  1  0
 14 15  1  0
 16 15  1  0
 17 16  1  0
 18 20  1  0
 17 18  1  6
 19 18  2  0
M  END
$$$$
