LGP.pdb
     RDKit          3D

 20 20  0  0  1  0  0  0  0  0999 V2000
    7.6896  -12.0836   18.6863 C   0  0  0  0  0  0  0  0  0  0  0  0
    8.1986  -13.3783   19.2372 C   0  0  1  0  0  0  0  0  0  0  0  0
    9.6961  -13.3231   19.3735 C   0  0  0  0  0  0  0  0  0  0  0  0
    7.5227  -13.8056   20.4975 C   0  0  0  0  0  0  0  0  0  0  0  0
    8.0855  -15.0869   21.0644 C   0  0  2  0  0  0  0  0  0  0  0  0
    7.6575  -16.2048   20.2465 N   0  0  0  0  0  0  0  0  0  0  0  0
    7.6010  -15.3265   22.4457 C   0  0  0  0  0  0  0  0  0  0  0  0
    6.3947  -15.0427   22.7551 O   0  0  0  0  0  0  0  0  0  0  0  0
    8.3967  -15.8646   23.4892 N   0  0  0  0  0  0  0  0  0  0  0  0
    8.2667  -15.4430   24.8708 C   0  0  0  0  0  0  0  0  0  0  0  0
    9.5921  -15.3971   25.5502 C   0  0  0  0  0  0  0  0  0  0  0  0
   10.6540  -15.6743   24.9497 O   0  0  0  0  0  0  0  0  0  0  0  0
    9.6133  -15.0242   26.9180 N   0  0  0  0  0  0  0  0  0  0  0  0
    8.4430  -14.6059   27.6586 C   0  0  0  0  0  0  0  0  0  0  0  0
    8.9645  -13.7385   28.7957 C   0  0  0  0  0  0  0  0  0  0  0  0
   10.4692  -13.6706   28.5768 C   0  0  0  0  0  0  0  0  0  0  0  0
   10.7157  -14.9723   27.8389 C   0  0  1  0  0  0  0  0  0  0  0  0
   10.7745  -16.1298   28.7435 C   0  0  0  0  0  0  0  0  0  0  0  0
    9.8197  -16.8990   28.9665 O   0  0  0  0  0  0  0  0  0  0  0  0
   11.9709  -16.3867   29.3944 O   0  0  0  0  0  0  0  0  0  0  0  0
  2  1  1  1
  3  2  1  0
  4  2  1  0
  5  4  1  0
  5  6  1  6
  7  5  1  0
  7  8  2  0
  9  7  1  0
 10  9  1  0
 10 11  1  0
 11 13  1  0
 12 11  2  0
 13 14  1  0
 13 17  1  0
 14 15  1  0
 16 15  1  0
 17 16  1  0
 18 20  1  0
 17 18  1  1
 19 18  2  0
M  END
$$$$
