LGP.pdb
     RDKit          3D

 20 20  0  0  1  0  0  0  0  0999 V2000
    8.2124  -12.1359   18.2480 C   0  0  0  0  0  0  0  0  0  0  0  0
    8.6015  -13.4727   18.7959 C   0  0  1  0  0  0  0  0  0  0  0  0
   10.0543  -13.4622   19.1875 C   0  0  0  0  0  0  0  0  0  0  0  0
    7.7143  -13.9565   19.8943 C   0  0  0  0  0  0  0  0  0  0  0  0
    8.1397  -15.2938   20.4515 C   0  0  2  0  0  0  0  0  0  0  0  0
    7.9920  -16.3111   19.4291 N   0  0  0  0  0  0  0  0  0  0  0  0
    7.2996  -15.6906   21.6078 C   0  0  0  0  0  0  0  0  0  0  0  0
    6.0464  -15.8798   21.4487 O   0  0  0  0  0  0  0  0  0  0  0  0
    7.7919  -15.8841   22.9238 N   0  0  0  0  0  0  0  0  0  0  0  0
    7.1805  -15.2708   24.0872 C   0  0  0  0  0  0  0  0  0  0  0  0
    8.1979  -14.5947   24.9407 C   0  0  0  0  0  0  0  0  0  0  0  0
    9.4058  -14.5465   24.6189 O   0  0  0  0  0  0  0  0  0  0  0  0
    7.7484  -13.9989   26.1462 N   0  0  0  0  0  0  0  0  0  0  0  0
    6.3663  -13.9863   26.5738 C   0  0  0  0  0  0  0  0  0  0  0  0
    6.2327  -12.7834   27.4971 C   0  0  0  0  0  0  0  0  0  0  0  0
    7.6052  -12.1256   27.4829 C   0  0  0  0  0  0  0  0  0  0  0  0
    8.4942  -13.3125   27.1653 C   0  0  1  0  0  0  0  0  0  0  0  0
    8.7676  -14.1432   28.3471 C   0  0  0  0  0  0  0  0  0  0  0  0
    8.1318  -15.1722   28.6474 O   0  0  0  0  0  0  0  0  0  0  0  0
    9.8015  -13.7599   29.1869 O   0  0  0  0  0  0  0  0  0  0  0  0
  2  1  1  1
  3  2  1  0
  4  2  1  0
  5  4  1  0
  5  6  1  6
  7  5  1  0
  7  8  2  0
  9  7  1  0
 10  9  1  0
 10 11  1  0
 11 13  1  0
 12 11  2  0
 13 14  1  0
 13 17  1  0
 14 15  1  0
 16 15  1  0
 17 16  1  0
 18 20  1  0
 17 18  1  1
 19 18  2  0
M  END
$$$$
