LGP.pdb
     RDKit          3D

 20 20  0  0  1  0  0  0  0  0999 V2000
    7.9406  -12.3748   18.4155 C   0  0  0  0  0  0  0  0  0  0  0  0
    8.4022  -13.6412   19.0650 C   0  0  1  0  0  0  0  0  0  0  0  0
    9.4694  -13.3359   20.0809 C   0  0  0  0  0  0  0  0  0  0  0  0
    7.2952  -14.4701   19.6266 C   0  0  0  0  0  0  0  0  0  0  0  0
    7.7882  -15.6116   20.4832 C   0  0  2  0  0  0  0  0  0  0  0  0
    7.4275  -16.8710   19.8621 N   0  0  0  0  0  0  0  0  0  0  0  0
    7.1728  -15.5810   21.8325 C   0  0  0  0  0  0  0  0  0  0  0  0
    5.9265  -15.3307   21.9579 O   0  0  0  0  0  0  0  0  0  0  0  0
    7.8808  -15.8153   23.0388 N   0  0  0  0  0  0  0  0  0  0  0  0
    7.3955  -15.3708   24.3313 C   0  0  0  0  0  0  0  0  0  0  0  0
    8.4785  -14.7212   25.1223 C   0  0  0  0  0  0  0  0  0  0  0  0
    9.6684  -14.7161   24.7365 O   0  0  0  0  0  0  0  0  0  0  0  0
    8.1136  -14.1000   26.3435 N   0  0  0  0  0  0  0  0  0  0  0  0
    6.7485  -13.9613   26.8021 C   0  0  0  0  0  0  0  0  0  0  0  0
    6.7497  -12.7624   27.7401 C   0  0  0  0  0  0  0  0  0  0  0  0
    8.1780  -12.2379   27.7017 C   0  0  0  0  0  0  0  0  0  0  0  0
    8.9430  -13.4998   27.3524 C   0  0  1  0  0  0  0  0  0  0  0  0
    9.1612  -14.3670   28.5195 C   0  0  0  0  0  0  0  0  0  0  0  0
    8.4473  -15.3452   28.8138 O   0  0  0  0  0  0  0  0  0  0  0  0
   10.2322  -14.0809   29.3514 O   0  0  0  0  0  0  0  0  0  0  0  0
  2  1  1  1
  3  2  1  0
  4  2  1  0
  5  4  1  0
  5  6  1  6
  7  5  1  0
  7  8  2  0
  9  7  1  0
 10  9  1  0
 10 11  1  0
 11 13  1  0
 12 11  2  0
 13 14  1  0
 13 17  1  0
 14 15  1  0
 16 15  1  0
 17 16  1  0
 18 20  1  0
 17 18  1  1
 19 18  2  0
M  END
$$$$
