LGP.pdb
     RDKit          3D

 20 20  0  0  1  0  0  0  0  0999 V2000
    7.2483  -11.8442   28.1562 C   0  0  0  0  0  0  0  0  0  0  0  0
    6.6112  -12.9192   27.3332 C   0  0  1  0  0  0  0  0  0  0  0  0
    5.7594  -12.3027   26.2568 C   0  0  0  0  0  0  0  0  0  0  0  0
    7.5780  -13.9217   26.7966 C   0  0  0  0  0  0  0  0  0  0  0  0
    7.0605  -14.6479   25.5781 C   0  0  2  0  0  0  0  0  0  0  0  0
    7.1663  -16.0785   25.7885 N   0  0  0  0  0  0  0  0  0  0  0  0
    7.8512  -14.3095   24.3697 C   0  0  0  0  0  0  0  0  0  0  0  0
    7.8267  -13.1197   23.9058 O   0  0  0  0  0  0  0  0  0  0  0  0
    8.6619  -15.2328   23.6612 N   0  0  0  0  0  0  0  0  0  0  0  0
    9.4214  -14.8646   22.4817 C   0  0  0  0  0  0  0  0  0  0  0  0
    8.7159  -15.2721   21.2341 C   0  0  0  0  0  0  0  0  0  0  0  0
    8.0280  -16.3152   21.1728 O   0  0  0  0  0  0  0  0  0  0  0  0
    8.8500  -14.4292   20.1019 N   0  0  0  0  0  0  0  0  0  0  0  0
    9.5111  -13.1425   20.1276 C   0  0  0  0  0  0  0  0  0  0  0  0
    8.9066  -12.3468   18.9792 C   0  0  0  0  0  0  0  0  0  0  0  0
    7.8453  -13.2623   18.3857 C   0  0  0  0  0  0  0  0  0  0  0  0
    8.3986  -14.6260   18.7516 C   0  0  1  0  0  0  0  0  0  0  0  0
    9.4644  -15.0645   17.8387 C   0  0  0  0  0  0  0  0  0  0  0  0
   10.6827  -14.9163   18.0550 O   0  0  0  0  0  0  0  0  0  0  0  0
    9.0936  -15.6852   16.6562 O   0  0  0  0  0  0  0  0  0  0  0  0
  2  1  1  6
  3  2  1  0
  4  2  1  0
  5  4  1  0
  5  6  1  1
  7  5  1  0
  7  8  2  0
  9  7  1  0
 10  9  1  0
 10 11  1  0
 11 13  1  0
 12 11  2  0
 13 14  1  0
 13 17  1  0
 14 15  1  0
 16 15  1  0
 17 16  1  0
 18 20  1  0
 17 18  1  6
 19 18  2  0
M  END
$$$$
