FWC.pdb
     RDKit          3D

 32 34  0  0  1  0  0  0  0  0999 V2000
   11.2953  -17.0629   20.1768 N   0  0  0  0  0  0  0  0  0  0  0  0
   10.1877  -16.3010   20.6561 C   0  0  1  0  0  0  0  0  0  0  0  0
    8.9583  -16.5024   19.8206 C   0  0  0  0  0  0  0  0  0  0  0  0
    8.2070  -15.2140   19.6514 C   0  0  0  0  0  0  0  0  0  0  0  0
    8.6418  -14.2456   18.7750 C   0  0  0  0  0  0  0  0  0  0  0  0
    7.9543  -13.0725   18.6238 C   0  0  0  0  0  0  0  0  0  0  0  0
    6.8044  -12.8827   19.3780 C   0  0  0  0  0  0  0  0  0  0  0  0
    6.3496  -13.8321   20.2586 C   0  0  0  0  0  0  0  0  0  0  0  0
    7.0615  -14.9889   20.3823 C   0  0  0  0  0  0  0  0  0  0  0  0
    9.8592  -16.5393   22.0893 C   0  0  0  0  0  0  0  0  0  0  0  0
   10.7461  -17.2017   22.7210 O   0  0  0  0  0  0  0  0  0  0  0  0
    8.6683  -16.0633   22.6657 N   0  0  0  0  0  0  0  0  0  0  0  0
    8.7598  -15.4101   23.9823 C   0  0  1  0  0  0  0  0  0  0  0  0
    7.5696  -14.5585   24.2076 C   0  0  0  0  0  0  0  0  0  0  0  0
    7.4322  -13.8169   25.4389 C   0  0  0  0  0  0  0  0  0  0  0  0
    6.3889  -13.0177   25.8404 C   0  0  0  0  0  0  0  0  0  0  0  0
    6.6858  -12.5166   27.0661 N   0  0  0  0  0  0  0  0  0  0  0  0
    7.8855  -12.9616   27.4772 C   0  0  0  0  0  0  0  0  0  0  0  0
    8.6107  -12.7475   28.6511 C   0  0  0  0  0  0  0  0  0  0  0  0
    9.8241  -13.3471   28.8290 C   0  0  0  0  0  0  0  0  0  0  0  0
   10.3198  -14.1602   27.8408 C   0  0  0  0  0  0  0  0  0  0  0  0
    9.5950  -14.3704   26.6729 C   0  0  0  0  0  0  0  0  0  0  0  0
    8.3665  -13.7745   26.4735 C   0  0  0  0  0  0  0  0  0  0  0  0
    9.1534  -16.3664   24.9921 C   0  0  0  0  0  0  0  0  0  0  0  0
    9.7691  -16.0068   26.0548 O   0  0  0  0  0  0  0  0  0  0  0  0
    8.8830  -17.7600   24.8915 N   0  0  0  0  0  0  0  0  0  0  0  0
    9.1473  -18.6281   26.0235 C   0  0  1  0  0  0  0  0  0  0  0  0
    8.1659  -19.8284   25.9598 C   0  0  0  0  0  0  0  0  0  0  0  0
    6.4776  -19.1733   25.8912 S   0  0  0  0  0  0  0  0  0  0  0  0
   10.5125  -19.1649   26.0690 C   0  0  0  0  0  0  0  0  0  0  0  0
   10.8210  -20.0860   27.0860 O   0  0  0  0  0  0  0  0  0  0  0  0
   11.4349  -18.8872   25.2939 O   0  0  0  0  0  0  0  0  0  0  0  0
  2  1  1  6
  3  2  1  0
  3  4  1  0
  4  5  2  0
  4  9  1  0
  5  6  1  0
  6  7  2  0
  8  7  1  0
  9  8  2  0
 10  2  1  0
 11 10  2  0
 12 10  1  0
 13 12  1  0
 13 14  1  1
 15 23  1  0
 15 14  1  0
 16 15  2  0
 17 16  1  0
 17 18  1  0
 18 23  2  0
 19 18  1  0
 19 20  2  0
 20 21  1  0
 21 22  2  0
 23 22  1  0
 24 13  1  0
 24 26  1  0
 25 24  2  0
 27 26  1  0
 27 28  1  6
 28 29  1  0
 30 27  1  0
 31 30  1  0
 32 30  2  0
M  END
$$$$
