FWC.pdb
     RDKit          3D

 32 34  0  0  1  0  0  0  0  0999 V2000
    8.3999  -16.3781   21.1230 N   0  0  0  0  0  0  0  0  0  0  0  0
    9.2687  -15.4157   21.7198 C   0  0  1  0  0  0  0  0  0  0  0  0
    8.6896  -14.0325   21.6861 C   0  0  0  0  0  0  0  0  0  0  0  0
    8.1423  -13.7125   20.3255 C   0  0  0  0  0  0  0  0  0  0  0  0
    6.7864  -13.7008   20.0877 C   0  0  0  0  0  0  0  0  0  0  0  0
    6.2915  -13.4089   18.8462 C   0  0  0  0  0  0  0  0  0  0  0  0
    7.1929  -13.1239   17.8296 C   0  0  0  0  0  0  0  0  0  0  0  0
    8.5491  -13.1289   18.0404 C   0  0  0  0  0  0  0  0  0  0  0  0
    9.0051  -13.4246   19.2913 C   0  0  0  0  0  0  0  0  0  0  0  0
    9.6811  -15.7482   23.1121 C   0  0  0  0  0  0  0  0  0  0  0  0
   10.6004  -14.9959   23.5738 O   0  0  0  0  0  0  0  0  0  0  0  0
    9.0900  -16.8044   23.8277 N   0  0  0  0  0  0  0  0  0  0  0  0
    9.5646  -17.0498   25.1998 C   0  0  1  0  0  0  0  0  0  0  0  0
    8.4370  -16.9346   26.1526 C   0  0  0  0  0  0  0  0  0  0  0  0
    7.4685  -15.8739   26.0039 C   0  0  0  0  0  0  0  0  0  0  0  0
    6.1720  -15.9603   25.5567 C   0  0  0  0  0  0  0  0  0  0  0  0
    5.6324  -14.7154   25.5773 N   0  0  0  0  0  0  0  0  0  0  0  0
    6.5315  -13.8213   26.0226 C   0  0  0  0  0  0  0  0  0  0  0  0
    6.4540  -12.4435   26.2363 C   0  0  0  0  0  0  0  0  0  0  0  0
    7.5313  -11.7615   26.7238 C   0  0  0  0  0  0  0  0  0  0  0  0
    8.6880  -12.4466   26.9997 C   0  0  0  0  0  0  0  0  0  0  0  0
    8.7616  -13.8185   26.7849 C   0  0  0  0  0  0  0  0  0  0  0  0
    7.6841  -14.5268   26.2933 C   0  0  0  0  0  0  0  0  0  0  0  0
   10.4126  -18.2197   25.2373 C   0  0  0  0  0  0  0  0  0  0  0  0
   10.3598  -19.1176   24.3269 O   0  0  0  0  0  0  0  0  0  0  0  0
   11.3654  -18.4574   26.2672 N   0  0  0  0  0  0  0  0  0  0  0  0
   12.2039  -19.6401   26.2133 C   0  0  1  0  0  0  0  0  0  0  0  0
   13.4956  -19.2895   25.4283 C   0  0  0  0  0  0  0  0  0  0  0  0
   14.6191  -20.7081   25.5291 S   0  0  0  0  0  0  0  0  0  0  0  0
   12.6025  -20.1599   27.5267 C   0  0  0  0  0  0  0  0  0  0  0  0
   12.3077  -19.3780   28.6580 O   0  0  0  0  0  0  0  0  0  0  0  0
   13.1800  -21.2309   27.7461 O   0  0  0  0  0  0  0  0  0  0  0  0
  2  1  1  1
  3  2  1  0
  3  4  1  0
  4  5  2  0
  4  9  1  0
  5  6  1  0
  6  7  2  0
  8  7  1  0
  9  8  2  0
 10  2  1  0
 11 10  2  0
 12 10  1  0
 13 12  1  0
 13 14  1  1
 15 23  1  0
 15 14  1  0
 16 15  2  0
 17 16  1  0
 17 18  1  0
 18 23  2  0
 19 18  1  0
 19 20  2  0
 20 21  1  0
 21 22  2  0
 23 22  1  0
 24 13  1  0
 24 26  1  0
 25 24  2  0
 27 26  1  0
 27 28  1  6
 28 29  1  0
 30 27  1  0
 31 30  1  0
 32 30  2  0
M  END
$$$$
