FWC.pdb
     RDKit          3D

 32 34  0  0  1  0  0  0  0  0999 V2000
    6.1118  -15.8068   21.4692 N   0  0  0  0  0  0  0  0  0  0  0  0
    7.4190  -15.2344   21.4455 C   0  0  1  0  0  0  0  0  0  0  0  0
    7.4153  -13.8375   20.8990 C   0  0  0  0  0  0  0  0  0  0  0  0
    7.5358  -13.8459   19.4028 C   0  0  0  0  0  0  0  0  0  0  0  0
    7.5374  -12.6734   18.6816 C   0  0  0  0  0  0  0  0  0  0  0  0
    7.6472  -12.6853   17.3180 C   0  0  0  0  0  0  0  0  0  0  0  0
    7.7573  -13.9124   16.6782 C   0  0  0  0  0  0  0  0  0  0  0  0
    7.7583  -15.0955   17.3738 C   0  0  0  0  0  0  0  0  0  0  0  0
    7.6469  -15.0437   18.7321 C   0  0  0  0  0  0  0  0  0  0  0  0
    8.1151  -15.2511   22.7623 C   0  0  0  0  0  0  0  0  0  0  0  0
    8.0327  -14.1542   23.4060 O   0  0  0  0  0  0  0  0  0  0  0  0
    8.7947  -16.3911   23.2268 N   0  0  0  0  0  0  0  0  0  0  0  0
    9.7186  -16.2211   24.3607 C   0  0  1  0  0  0  0  0  0  0  0  0
    9.0000  -16.4454   25.6359 C   0  0  0  0  0  0  0  0  0  0  0  0
    7.8233  -15.6698   25.9503 C   0  0  0  0  0  0  0  0  0  0  0  0
    6.5115  -16.0790   25.9641 C   0  0  0  0  0  0  0  0  0  0  0  0
    5.7400  -15.0184   26.3121 N   0  0  0  0  0  0  0  0  0  0  0  0
    6.5029  -13.9328   26.5259 C   0  0  0  0  0  0  0  0  0  0  0  0
    6.1871  -12.6287   26.9123 C   0  0  0  0  0  0  0  0  0  0  0  0
    7.1758  -11.7026   27.0802 C   0  0  0  0  0  0  0  0  0  0  0  0
    8.4803  -12.0699   26.8641 C   0  0  0  0  0  0  0  0  0  0  0  0
    8.7908  -13.3695   26.4787 C   0  0  0  0  0  0  0  0  0  0  0  0
    7.8066  -14.3208   26.3041 C   0  0  0  0  0  0  0  0  0  0  0  0
   10.9584  -16.9201   24.1088 C   0  0  0  0  0  0  0  0  0  0  0  0
   10.9835  -18.1744   23.8560 O   0  0  0  0  0  0  0  0  0  0  0  0
   12.2282  -16.2778   24.1117 N   0  0  0  0  0  0  0  0  0  0  0  0
   13.4321  -17.0617   23.9097 C   0  0  1  0  0  0  0  0  0  0  0  0
   14.5993  -16.0922   23.5850 C   0  0  0  0  0  0  0  0  0  0  0  0
   14.6332  -14.8041   24.8594 S   0  0  0  0  0  0  0  0  0  0  0  0
   13.8286  -17.8716   25.0676 C   0  0  0  0  0  0  0  0  0  0  0  0
   14.9276  -18.7361   24.9173 O   0  0  0  0  0  0  0  0  0  0  0  0
   13.2884  -17.8733   26.1797 O   0  0  0  0  0  0  0  0  0  0  0  0
  2  1  1  1
  3  2  1  0
  3  4  1  0
  4  5  2  0
  4  9  1  0
  5  6  1  0
  6  7  2  0
  8  7  1  0
  9  8  2  0
 10  2  1  0
 11 10  2  0
 12 10  1  0
 13 12  1  0
 13 14  1  1
 15 23  1  0
 15 14  1  0
 16 15  2  0
 17 16  1  0
 17 18  1  0
 18 23  2  0
 19 18  1  0
 19 20  2  0
 20 21  1  0
 21 22  2  0
 23 22  1  0
 24 13  1  0
 24 26  1  0
 25 24  2  0
 27 26  1  0
 27 28  1  1
 28 29  1  0
 30 27  1  0
 31 30  1  0
 32 30  2  0
M  END
$$$$
