FWC.pdb
     RDKit          3D

 32 34  0  0  1  0  0  0  0  0999 V2000
    8.6129  -16.3418   21.3214 N   0  0  0  0  0  0  0  0  0  0  0  0
    9.3861  -15.3015   21.9190 C   0  0  1  0  0  0  0  0  0  0  0  0
    8.7108  -13.9659   21.8197 C   0  0  0  0  0  0  0  0  0  0  0  0
    8.1888  -13.7299   20.4322 C   0  0  0  0  0  0  0  0  0  0  0  0
    6.8573  -13.9084   20.1320 C   0  0  0  0  0  0  0  0  0  0  0  0
    6.3855  -13.6925   18.8662 C   0  0  0  0  0  0  0  0  0  0  0  0
    7.2853  -13.2878   17.8895 C   0  0  0  0  0  0  0  0  0  0  0  0
    8.6175  -13.1028   18.1627 C   0  0  0  0  0  0  0  0  0  0  0  0
    9.0508  -13.3278   19.4361 C   0  0  0  0  0  0  0  0  0  0  0  0
    9.7662  -15.5623   23.3355 C   0  0  0  0  0  0  0  0  0  0  0  0
   10.4520  -14.6293   23.8681 O   0  0  0  0  0  0  0  0  0  0  0  0
    9.3873  -16.7425   23.9991 N   0  0  0  0  0  0  0  0  0  0  0  0
    9.8135  -16.9062   25.3991 C   0  0  1  0  0  0  0  0  0  0  0  0
    8.6310  -16.9092   26.2903 C   0  0  0  0  0  0  0  0  0  0  0  0
    7.6068  -15.9027   26.1381 C   0  0  0  0  0  0  0  0  0  0  0  0
    6.3246  -16.0560   25.6683 C   0  0  0  0  0  0  0  0  0  0  0  0
    5.7154  -14.8437   25.6949 N   0  0  0  0  0  0  0  0  0  0  0  0
    6.5555  -13.9063   26.1658 C   0  0  0  0  0  0  0  0  0  0  0  0
    6.3971  -12.5380   26.3948 C   0  0  0  0  0  0  0  0  0  0  0  0
    7.4263  -11.8029   26.9084 C   0  0  0  0  0  0  0  0  0  0  0  0
    8.6152  -12.4255   27.1953 C   0  0  0  0  0  0  0  0  0  0  0  0
    8.7694  -13.7882   26.9653 C   0  0  0  0  0  0  0  0  0  0  0  0
    7.7415  -14.5495   26.4473 C   0  0  0  0  0  0  0  0  0  0  0  0
   10.7900  -17.9664   25.5071 C   0  0  0  0  0  0  0  0  0  0  0  0
   10.6445  -19.0795   24.8926 O   0  0  0  0  0  0  0  0  0  0  0  0
   11.9768  -17.8549   26.2844 N   0  0  0  0  0  0  0  0  0  0  0  0
   12.7948  -19.0293   26.5222 C   0  0  1  0  0  0  0  0  0  0  0  0
   14.0027  -18.6148   27.4036 C   0  0  0  0  0  0  0  0  0  0  0  0
   13.4175  -17.4236   28.6377 S   0  0  0  0  0  0  0  0  0  0  0  0
   12.0961  -20.1259   27.2029 C   0  0  0  0  0  0  0  0  0  0  0  0
   12.7647  -21.3579   27.3175 O   0  0  0  0  0  0  0  0  0  0  0  0
   10.9625  -20.0790   27.6942 O   0  0  0  0  0  0  0  0  0  0  0  0
  2  1  1  1
  3  2  1  0
  3  4  1  0
  4  5  2  0
  4  9  1  0
  5  6  1  0
  6  7  2  0
  8  7  1  0
  9  8  2  0
 10  2  1  0
 11 10  2  0
 12 10  1  0
 13 12  1  0
 13 14  1  1
 15 23  1  0
 15 14  1  0
 16 15  2  0
 17 16  1  0
 17 18  1  0
 18 23  2  0
 19 18  1  0
 19 20  2  0
 20 21  1  0
 21 22  2  0
 23 22  1  0
 24 13  1  0
 24 26  1  0
 25 24  2  0
 27 26  1  0
 27 28  1  1
 28 29  1  0
 30 27  1  0
 31 30  1  0
 32 30  2  0
M  END
$$$$
