FWC.pdb
     RDKit          3D

 32 34  0  0  1  0  0  0  0  0999 V2000
    8.6259  -16.4046   21.3857 N   0  0  0  0  0  0  0  0  0  0  0  0
    9.1661  -15.3010   22.1119 C   0  0  1  0  0  0  0  0  0  0  0  0
    8.2526  -14.1113   22.0958 C   0  0  0  0  0  0  0  0  0  0  0  0
    7.8578  -13.7564   20.6918 C   0  0  0  0  0  0  0  0  0  0  0  0
    6.5728  -13.9574   20.2407 C   0  0  0  0  0  0  0  0  0  0  0  0
    6.2169  -13.6328   18.9603 C   0  0  0  0  0  0  0  0  0  0  0  0
    7.1863  -13.0943   18.1251 C   0  0  0  0  0  0  0  0  0  0  0  0
    8.4743  -12.8840   18.5501 C   0  0  0  0  0  0  0  0  0  0  0  0
    8.7917  -13.2200   19.8333 C   0  0  0  0  0  0  0  0  0  0  0  0
    9.5401  -15.6215   23.5177 C   0  0  0  0  0  0  0  0  0  0  0  0
   10.0756  -14.6503   24.1457 O   0  0  0  0  0  0  0  0  0  0  0  0
    9.3103  -16.8921   24.0743 N   0  0  0  0  0  0  0  0  0  0  0  0
    9.7413  -17.1173   25.4642 C   0  0  1  0  0  0  0  0  0  0  0  0
    8.5677  -17.0959   26.3669 C   0  0  0  0  0  0  0  0  0  0  0  0
    7.6017  -16.0267   26.2739 C   0  0  0  0  0  0  0  0  0  0  0  0
    6.2941  -16.0935   25.8569 C   0  0  0  0  0  0  0  0  0  0  0  0
    5.7621  -14.8472   25.9279 N   0  0  0  0  0  0  0  0  0  0  0  0
    6.6769  -13.9710   26.3768 C   0  0  0  0  0  0  0  0  0  0  0  0
    6.6123  -12.5999   26.6331 C   0  0  0  0  0  0  0  0  0  0  0  0
    7.7052  -11.9378   27.1135 C   0  0  0  0  0  0  0  0  0  0  0  0
    8.8646  -12.6363   27.3399 C   0  0  0  0  0  0  0  0  0  0  0  0
    8.9252  -14.0016   27.0829 C   0  0  0  0  0  0  0  0  0  0  0  0
    7.8319  -14.6898   26.5977 C   0  0  0  0  0  0  0  0  0  0  0  0
   10.6711  -18.2220   25.5300 C   0  0  0  0  0  0  0  0  0  0  0  0
   10.3847  -19.3713   25.0454 O   0  0  0  0  0  0  0  0  0  0  0  0
   11.9619  -18.1186   26.1201 N   0  0  0  0  0  0  0  0  0  0  0  0
   12.7384  -19.3187   26.3682 C   0  0  1  0  0  0  0  0  0  0  0  0
   14.2323  -18.9183   26.4940 C   0  0  0  0  0  0  0  0  0  0  0  0
   14.6301  -17.7902   25.1326 S   0  0  0  0  0  0  0  0  0  0  0  0
   12.3619  -20.0418   27.5886 C   0  0  0  0  0  0  0  0  0  0  0  0
   13.0000  -21.2682   27.8470 O   0  0  0  0  0  0  0  0  0  0  0  0
   11.5286  -19.6795   28.4270 O   0  0  0  0  0  0  0  0  0  0  0  0
  2  1  1  1
  3  2  1  0
  3  4  1  0
  4  5  2  0
  4  9  1  0
  5  6  1  0
  6  7  2  0
  8  7  1  0
  9  8  2  0
 10  2  1  0
 11 10  2  0
 12 10  1  0
 13 12  1  0
 13 14  1  1
 15 23  1  0
 15 14  1  0
 16 15  2  0
 17 16  1  0
 17 18  1  0
 18 23  2  0
 19 18  1  0
 19 20  2  0
 20 21  1  0
 21 22  2  0
 23 22  1  0
 24 13  1  0
 24 26  1  0
 25 24  2  0
 27 26  1  0
 27 28  1  1
 28 29  1  0
 30 27  1  0
 31 30  1  0
 32 30  2  0
M  END
$$$$
