FWC.pdb
     RDKit          3D

 32 34  0  0  1  0  0  0  0  0999 V2000
    7.0478  -18.1081   21.0854 N   0  0  0  0  0  0  0  0  0  0  0  0
    7.6393  -16.8151   20.9608 C   0  0  1  0  0  0  0  0  0  0  0  0
    6.6116  -15.7229   20.9333 C   0  0  0  0  0  0  0  0  0  0  0  0
    7.2291  -14.4144   20.5336 C   0  0  0  0  0  0  0  0  0  0  0  0
    7.6831  -14.2032   19.2513 C   0  0  0  0  0  0  0  0  0  0  0  0
    8.2455  -13.0093   18.8909 C   0  0  0  0  0  0  0  0  0  0  0  0
    8.3471  -12.0136   19.8530 C   0  0  0  0  0  0  0  0  0  0  0  0
    7.9023  -12.1987   21.1381 C   0  0  0  0  0  0  0  0  0  0  0  0
    7.3474  -13.4023   21.4601 C   0  0  0  0  0  0  0  0  0  0  0  0
    8.6612  -16.5101   22.0008 C   0  0  0  0  0  0  0  0  0  0  0  0
    9.6656  -15.8579   21.5647 O   0  0  0  0  0  0  0  0  0  0  0  0
    8.5036  -16.9189   23.3368 N   0  0  0  0  0  0  0  0  0  0  0  0
    9.5059  -16.4617   24.3140 C   0  0  1  0  0  0  0  0  0  0  0  0
    8.8864  -16.3389   25.6533 C   0  0  0  0  0  0  0  0  0  0  0  0
    7.7530  -15.4659   25.8499 C   0  0  0  0  0  0  0  0  0  0  0  0
    6.4170  -15.7870   25.8325 C   0  0  0  0  0  0  0  0  0  0  0  0
    5.7056  -14.6540   26.0598 N   0  0  0  0  0  0  0  0  0  0  0  0
    6.5311  -13.6065   26.2251 C   0  0  0  0  0  0  0  0  0  0  0  0
    6.2889  -12.2577   26.4936 C   0  0  0  0  0  0  0  0  0  0  0  0
    7.3305  -11.3870   26.6363 C   0  0  0  0  0  0  0  0  0  0  0  0
    8.6150  -11.8543   26.5121 C   0  0  0  0  0  0  0  0  0  0  0  0
    8.8521  -13.1980   26.2440 C   0  0  0  0  0  0  0  0  0  0  0  0
    7.8136  -14.0947   26.0967 C   0  0  0  0  0  0  0  0  0  0  0  0
   10.7337  -17.2090   24.1625 C   0  0  0  0  0  0  0  0  0  0  0  0
   10.7479  -18.4887   24.1764 O   0  0  0  0  0  0  0  0  0  0  0  0
   12.0027  -16.5917   23.9785 N   0  0  0  0  0  0  0  0  0  0  0  0
   13.1414  -17.3937   23.5723 C   0  0  1  0  0  0  0  0  0  0  0  0
   13.7142  -16.8007   22.2577 C   0  0  0  0  0  0  0  0  0  0  0  0
   15.1788  -17.7633   21.7963 S   0  0  0  0  0  0  0  0  0  0  0  0
   14.2295  -17.4420   24.5559 C   0  0  0  0  0  0  0  0  0  0  0  0
   14.1932  -16.5222   25.6192 O   0  0  0  0  0  0  0  0  0  0  0  0
   15.1907  -18.2196   24.5473 O   0  0  0  0  0  0  0  0  0  0  0  0
  2  1  1  1
  3  2  1  0
  3  4  1  0
  4  5  2  0
  4  9  1  0
  5  6  1  0
  6  7  2  0
  8  7  1  0
  9  8  2  0
 10  2  1  0
 11 10  2  0
 12 10  1  0
 13 12  1  0
 13 14  1  1
 15 23  1  0
 15 14  1  0
 16 15  2  0
 17 16  1  0
 17 18  1  0
 18 23  2  0
 19 18  1  0
 19 20  2  0
 20 21  1  0
 21 22  2  0
 23 22  1  0
 24 13  1  0
 24 26  1  0
 25 24  2  0
 27 26  1  0
 27 28  1  6
 28 29  1  0
 30 27  1  0
 31 30  1  0
 32 30  2  0
M  END
$$$$
