FWC.pdb
     RDKit          3D

 32 34  0  0  1  0  0  0  0  0999 V2000
    5.9233  -21.5917   22.8999 N   0  0  0  0  0  0  0  0  0  0  0  0
    6.2981  -21.0273   24.1562 C   0  0  1  0  0  0  0  0  0  0  0  0
    7.0986  -21.9833   24.9899 C   0  0  0  0  0  0  0  0  0  0  0  0
    7.3447  -21.4240   26.3610 C   0  0  0  0  0  0  0  0  0  0  0  0
    6.3404  -21.3744   27.3010 C   0  0  0  0  0  0  0  0  0  0  0  0
    6.5686  -20.8638   28.5495 C   0  0  0  0  0  0  0  0  0  0  0  0
    7.8417  -20.3957   28.8455 C   0  0  0  0  0  0  0  0  0  0  0  0
    8.8602  -20.4337   27.9264 C   0  0  0  0  0  0  0  0  0  0  0  0
    8.5947  -20.9498   26.6922 C   0  0  0  0  0  0  0  0  0  0  0  0
    7.0254  -19.7317   24.0491 C   0  0  0  0  0  0  0  0  0  0  0  0
    7.9851  -19.7440   23.2105 O   0  0  0  0  0  0  0  0  0  0  0  0
    6.6621  -18.6122   24.8183 N   0  0  0  0  0  0  0  0  0  0  0  0
    7.3557  -17.3421   24.5463 C   0  0  1  0  0  0  0  0  0  0  0  0
    6.4874  -16.2022   24.9197 C   0  0  0  0  0  0  0  0  0  0  0  0
    6.9505  -14.8473   24.7332 C   0  0  0  0  0  0  0  0  0  0  0  0
    7.6774  -14.3316   23.6872 C   0  0  0  0  0  0  0  0  0  0  0  0
    7.8932  -13.0140   23.9295 N   0  0  0  0  0  0  0  0  0  0  0  0
    7.3321  -12.6532   25.0962 C   0  0  0  0  0  0  0  0  0  0  0  0
    7.2652  -11.4280   25.7628 C   0  0  0  0  0  0  0  0  0  0  0  0
    6.6030  -11.3274   26.9523 C   0  0  0  0  0  0  0  0  0  0  0  0
    6.0062  -12.4439   27.4823 C   0  0  0  0  0  0  0  0  0  0  0  0
    6.0756  -13.6624   26.8158 C   0  0  0  0  0  0  0  0  0  0  0  0
    6.7394  -13.7854   25.6123 C   0  0  0  0  0  0  0  0  0  0  0  0
    8.7136  -17.3948   25.0386 C   0  0  0  0  0  0  0  0  0  0  0  0
    8.9832  -17.7871   26.2266 O   0  0  0  0  0  0  0  0  0  0  0  0
    9.8415  -17.0305   24.2510 N   0  0  0  0  0  0  0  0  0  0  0  0
   11.1802  -17.2594   24.7613 C   0  0  1  0  0  0  0  0  0  0  0  0
   12.1843  -17.1070   23.5882 C   0  0  0  0  0  0  0  0  0  0  0  0
   11.8872  -15.5041   22.7964 S   0  0  0  0  0  0  0  0  0  0  0  0
   11.5884  -16.3354   25.8260 C   0  0  0  0  0  0  0  0  0  0  0  0
   12.8151  -16.5780   26.4696 O   0  0  0  0  0  0  0  0  0  0  0  0
   10.9561  -15.3498   26.2227 O   0  0  0  0  0  0  0  0  0  0  0  0
  2  1  1  6
  3  2  1  0
  3  4  1  0
  4  5  2  0
  4  9  1  0
  5  6  1  0
  6  7  2  0
  8  7  1  0
  9  8  2  0
 10  2  1  0
 11 10  2  0
 12 10  1  0
 13 12  1  0
 13 14  1  1
 15 23  1  0
 15 14  1  0
 16 15  2  0
 17 16  1  0
 17 18  1  0
 18 23  2  0
 19 18  1  0
 19 20  2  0
 20 21  1  0
 21 22  2  0
 23 22  1  0
 24 13  1  0
 24 26  1  0
 25 24  2  0
 27 26  1  0
 27 28  1  6
 28 29  1  0
 30 27  1  0
 31 30  1  0
 32 30  2  0
M  END
$$$$
