FWC.pdb
     RDKit          3D

 32 34  0  0  1  0  0  0  0  0999 V2000
   10.4769  -17.9608   19.0632 N   0  0  0  0  0  0  0  0  0  0  0  0
    9.8175  -16.8319   19.6358 C   0  0  1  0  0  0  0  0  0  0  0  0
    8.4115  -16.6834   19.1348 C   0  0  0  0  0  0  0  0  0  0  0  0
    7.7755  -15.4383   19.6810 C   0  0  0  0  0  0  0  0  0  0  0  0
    6.7780  -15.5042   20.6274 C   0  0  0  0  0  0  0  0  0  0  0  0
    6.2006  -14.3670   21.1227 C   0  0  0  0  0  0  0  0  0  0  0  0
    6.6471  -13.1420   20.6459 C   0  0  0  0  0  0  0  0  0  0  0  0
    7.6399  -13.0489   19.7028 C   0  0  0  0  0  0  0  0  0  0  0  0
    8.1915  -14.2043   19.2327 C   0  0  0  0  0  0  0  0  0  0  0  0
    9.8187  -16.8168   21.1253 C   0  0  0  0  0  0  0  0  0  0  0  0
   10.1151  -17.9376   21.6546 O   0  0  0  0  0  0  0  0  0  0  0  0
    9.5153  -15.6537   21.8548 N   0  0  0  0  0  0  0  0  0  0  0  0
    9.8429  -15.6426   23.2904 C   0  0  1  0  0  0  0  0  0  0  0  0
    9.5646  -14.3052   23.8618 C   0  0  0  0  0  0  0  0  0  0  0  0
    9.2796  -14.1644   25.2704 C   0  0  0  0  0  0  0  0  0  0  0  0
    9.8907  -14.7901   26.3302 C   0  0  0  0  0  0  0  0  0  0  0  0
    9.2992  -14.3620   27.4740 N   0  0  0  0  0  0  0  0  0  0  0  0
    8.3247  -13.4791   27.1966 C   0  0  0  0  0  0  0  0  0  0  0  0
    7.4549  -12.7574   28.0166 C   0  0  0  0  0  0  0  0  0  0  0  0
    6.5511  -11.8935   27.4688 C   0  0  0  0  0  0  0  0  0  0  0  0
    6.5090  -11.7450   26.1051 C   0  0  0  0  0  0  0  0  0  0  0  0
    7.3764  -12.4660   25.2917 C   0  0  0  0  0  0  0  0  0  0  0  0
    8.2978  -13.3438   25.8253 C   0  0  0  0  0  0  0  0  0  0  0  0
    9.3087  -16.8194   23.9375 C   0  0  0  0  0  0  0  0  0  0  0  0
    8.0665  -17.1193   23.8682 O   0  0  0  0  0  0  0  0  0  0  0  0
   10.1101  -17.7291   24.6827 N   0  0  0  0  0  0  0  0  0  0  0  0
    9.4748  -18.7356   25.5122 C   0  0  1  0  0  0  0  0  0  0  0  0
    9.9643  -20.1331   25.0483 C   0  0  0  0  0  0  0  0  0  0  0  0
    9.8952  -20.1821   23.2379 S   0  0  0  0  0  0  0  0  0  0  0  0
    9.7650  -18.6101   26.9454 C   0  0  0  0  0  0  0  0  0  0  0  0
    9.1110  -19.4903   27.8261 O   0  0  0  0  0  0  0  0  0  0  0  0
   10.5370  -17.7980   27.4681 O   0  0  0  0  0  0  0  0  0  0  0  0
  2  1  1  1
  3  2  1  0
  3  4  1  0
  4  5  2  0
  4  9  1  0
  5  6  1  0
  6  7  2  0
  8  7  1  0
  9  8  2  0
 10  2  1  0
 11 10  2  0
 12 10  1  0
 13 12  1  0
 13 14  1  1
 15 23  1  0
 15 14  1  0
 16 15  2  0
 17 16  1  0
 17 18  1  0
 18 23  2  0
 19 18  1  0
 19 20  2  0
 20 21  1  0
 21 22  2  0
 23 22  1  0
 24 13  1  0
 24 26  1  0
 25 24  2  0
 27 26  1  0
 27 28  1  6
 28 29  1  0
 30 27  1  0
 31 30  1  0
 32 30  2  0
M  END
$$$$
