FWC.pdb
     RDKit          3D

 32 34  0  0  1  0  0  0  0  0999 V2000
    4.2946  -16.4359   20.7515 N   0  0  0  0  0  0  0  0  0  0  0  0
    5.5835  -16.9965   20.9996 C   0  0  1  0  0  0  0  0  0  0  0  0
    6.4882  -16.8846   19.8085 C   0  0  0  0  0  0  0  0  0  0  0  0
    6.9040  -15.4602   19.5819 C   0  0  0  0  0  0  0  0  0  0  0  0
    7.6212  -15.0965   18.4646 C   0  0  0  0  0  0  0  0  0  0  0  0
    7.9984  -13.7972   18.2618 C   0  0  0  0  0  0  0  0  0  0  0  0
    7.6389  -12.8523   19.2133 C   0  0  0  0  0  0  0  0  0  0  0  0
    6.9243  -13.1887   20.3357 C   0  0  0  0  0  0  0  0  0  0  0  0
    6.5661  -14.4940   20.5034 C   0  0  0  0  0  0  0  0  0  0  0  0
    6.2694  -16.4394   22.1988 C   0  0  0  0  0  0  0  0  0  0  0  0
    5.9700  -15.2264   22.4501 O   0  0  0  0  0  0  0  0  0  0  0  0
    7.1628  -17.2082   22.9654 N   0  0  0  0  0  0  0  0  0  0  0  0
    7.9597  -16.5113   23.9890 C   0  0  1  0  0  0  0  0  0  0  0  0
    7.2241  -16.4899   25.2739 C   0  0  0  0  0  0  0  0  0  0  0  0
    7.6993  -15.6749   26.3671 C   0  0  0  0  0  0  0  0  0  0  0  0
    8.4519  -16.0579   27.4512 C   0  0  0  0  0  0  0  0  0  0  0  0
    8.6635  -14.9655   28.2279 N   0  0  0  0  0  0  0  0  0  0  0  0
    8.0757  -13.8844   27.6877 C   0  0  0  0  0  0  0  0  0  0  0  0
    8.0214  -12.5489   28.0921 C   0  0  0  0  0  0  0  0  0  0  0  0
    7.3582  -11.6273   27.3344 C   0  0  0  0  0  0  0  0  0  0  0  0
    6.7471  -12.0305   26.1736 C   0  0  0  0  0  0  0  0  0  0  0  0
    6.8028  -13.3614   25.7746 C   0  0  0  0  0  0  0  0  0  0  0  0
    7.4684  -14.3086   26.5256 C   0  0  0  0  0  0  0  0  0  0  0  0
    9.3296  -16.9712   23.9595 C   0  0  0  0  0  0  0  0  0  0  0  0
    9.6195  -18.2142   23.8664 O   0  0  0  0  0  0  0  0  0  0  0  0
   10.4470  -16.0920   24.0205 N   0  0  0  0  0  0  0  0  0  0  0  0
   11.7923  -16.6345   23.9928 C   0  0  1  0  0  0  0  0  0  0  0  0
   12.6878  -15.6812   23.1579 C   0  0  0  0  0  0  0  0  0  0  0  0
   11.8415  -15.3400   21.5920 S   0  0  0  0  0  0  0  0  0  0  0  0
   12.4099  -16.7892   25.3151 C   0  0  0  0  0  0  0  0  0  0  0  0
   13.6876  -17.3736   25.3774 O   0  0  0  0  0  0  0  0  0  0  0  0
   11.9161  -16.4539   26.3979 O   0  0  0  0  0  0  0  0  0  0  0  0
  2  1  1  6
  3  2  1  0
  3  4  1  0
  4  5  2  0
  4  9  1  0
  5  6  1  0
  6  7  2  0
  8  7  1  0
  9  8  2  0
 10  2  1  0
 11 10  2  0
 12 10  1  0
 13 12  1  0
 13 14  1  1
 15 23  1  0
 15 14  1  0
 16 15  2  0
 17 16  1  0
 17 18  1  0
 18 23  2  0
 19 18  1  0
 19 20  2  0
 20 21  1  0
 21 22  2  0
 23 22  1  0
 24 13  1  0
 24 26  1  0
 25 24  2  0
 27 26  1  0
 27 28  1  6
 28 29  1  0
 30 27  1  0
 31 30  1  0
 32 30  2  0
M  END
$$$$
