FWC.pdb
     RDKit          3D

 32 34  0  0  1  0  0  0  0  0999 V2000
    6.8589  -14.3171   20.7659 N   0  0  0  0  0  0  0  0  0  0  0  0
    7.4837  -15.5695   21.0455 C   0  0  1  0  0  0  0  0  0  0  0  0
    8.3330  -16.0456   19.9045 C   0  0  0  0  0  0  0  0  0  0  0  0
    8.9363  -17.3864   20.2070 C   0  0  0  0  0  0  0  0  0  0  0  0
    8.1469  -18.5022   20.3704 C   0  0  0  0  0  0  0  0  0  0  0  0
    8.7005  -19.7225   20.6462 C   0  0  0  0  0  0  0  0  0  0  0  0
   10.0817  -19.8076   20.7574 C   0  0  0  0  0  0  0  0  0  0  0  0
   10.8910  -18.7105   20.5990 C   0  0  0  0  0  0  0  0  0  0  0  0
   10.3028  -17.5109   20.3249 C   0  0  0  0  0  0  0  0  0  0  0  0
    8.2849  -15.5835   22.3012 C   0  0  0  0  0  0  0  0  0  0  0  0
    9.1262  -14.6302   22.3897 O   0  0  0  0  0  0  0  0  0  0  0  0
    8.1062  -16.5738   23.2832 N   0  0  0  0  0  0  0  0  0  0  0  0
    8.8348  -16.4161   24.5531 C   0  0  1  0  0  0  0  0  0  0  0  0
    7.8754  -16.3084   25.6759 C   0  0  0  0  0  0  0  0  0  0  0  0
    7.0109  -15.1568   25.7821 C   0  0  0  0  0  0  0  0  0  0  0  0
    5.6477  -15.0966   25.6192 C   0  0  0  0  0  0  0  0  0  0  0  0
    5.2545  -13.8115   25.8066 N   0  0  0  0  0  0  0  0  0  0  0  0
    6.3133  -13.0325   26.0863 C   0  0  0  0  0  0  0  0  0  0  0  0
    6.4234  -11.6695   26.3690 C   0  0  0  0  0  0  0  0  0  0  0  0
    7.6426  -11.1201   26.6430 C   0  0  0  0  0  0  0  0  0  0  0  0
    8.7552  -11.9236   26.6363 C   0  0  0  0  0  0  0  0  0  0  0  0
    8.6417  -13.2805   26.3537 C   0  0  0  0  0  0  0  0  0  0  0  0
    7.4187  -13.8556   26.0747 C   0  0  0  0  0  0  0  0  0  0  0  0
    9.9204  -17.3671   24.6319 C   0  0  0  0  0  0  0  0  0  0  0  0
    9.7512  -18.6049   24.3540 O   0  0  0  0  0  0  0  0  0  0  0  0
   11.2445  -17.0070   25.0087 N   0  0  0  0  0  0  0  0  0  0  0  0
   12.2579  -18.0355   25.1498 C   0  0  1  0  0  0  0  0  0  0  0  0
   13.5907  -17.4930   24.5692 C   0  0  0  0  0  0  0  0  0  0  0  0
   13.2082  -16.5362   23.0784 S   0  0  0  0  0  0  0  0  0  0  0  0
   12.5073  -18.4538   26.5343 C   0  0  0  0  0  0  0  0  0  0  0  0
   11.7170  -17.8780   27.5453 O   0  0  0  0  0  0  0  0  0  0  0  0
   13.3534  -19.2728   26.9109 O   0  0  0  0  0  0  0  0  0  0  0  0
  2  1  1  6
  3  2  1  0
  3  4  1  0
  4  5  2  0
  4  9  1  0
  5  6  1  0
  6  7  2  0
  8  7  1  0
  9  8  2  0
 10  2  1  0
 11 10  2  0
 12 10  1  0
 13 12  1  0
 13 14  1  1
 15 23  1  0
 15 14  1  0
 16 15  2  0
 17 16  1  0
 17 18  1  0
 18 23  2  0
 19 18  1  0
 19 20  2  0
 20 21  1  0
 21 22  2  0
 23 22  1  0
 24 13  1  0
 24 26  1  0
 25 24  2  0
 27 26  1  0
 27 28  1  1
 28 29  1  0
 30 27  1  0
 31 30  1  0
 32 30  2  0
M  END
$$$$
