SFN.pdb
     RDKit          3D

 26 26  0  0  1  0  0  0  0  0999 V2000
    9.6181  -18.7350   20.2778 O   0  0  0  0  0  0  0  0  0  0  0  0
    8.4935  -18.0361   19.8705 C   0  0  0  0  0  0  0  0  0  0  0  0
    8.8904  -16.5798   19.5978 C   0  0  2  0  0  0  0  0  0  0  0  0
   10.1917  -16.6282   18.9678 N   0  0  0  0  0  0  0  0  0  0  0  0
    9.0298  -15.9347   20.9184 C   0  0  0  0  0  0  0  0  0  0  0  0
   10.1723  -15.7566   21.3965 O   0  0  0  0  0  0  0  0  0  0  0  0
    7.9346  -15.4899   21.7070 N   0  0  0  0  0  0  0  0  0  0  0  0
    8.1307  -14.8703   23.0013 C   0  0  1  0  0  0  0  0  0  0  0  0
    6.9226  -14.1005   23.4507 C   0  0  0  0  0  0  0  0  0  0  0  0
    7.0632  -13.4413   24.7380 C   0  0  0  0  0  0  0  0  0  0  0  0
    6.3943  -13.9148   25.8425 C   0  0  0  0  0  0  0  0  0  0  0  0
    6.5222  -13.2861   27.0878 C   0  0  0  0  0  0  0  0  0  0  0  0
    7.3325  -12.1818   27.1868 C   0  0  0  0  0  0  0  0  0  0  0  0
    8.0059  -11.6916   26.1115 C   0  0  0  0  0  0  0  0  0  0  0  0
    7.8597  -12.3355   24.8900 C   0  0  0  0  0  0  0  0  0  0  0  0
    8.6276  -15.8646   23.9687 C   0  0  0  0  0  0  0  0  0  0  0  0
    8.0240  -16.9901   24.0772 O   0  0  0  0  0  0  0  0  0  0  0  0
   13.0837  -16.0083   23.5801 N   0  0  0  0  0  0  0  0  0  0  0  0
   12.3034  -17.0125   24.2484 C   0  0  0  0  0  0  0  0  0  0  0  0
   12.0886  -18.1213   23.7114 O   0  0  0  0  0  0  0  0  0  0  0  0
   11.7739  -16.6969   25.5654 C   0  0  0  0  0  0  0  0  0  0  0  0
   10.2456  -16.7894   25.6643 C   0  0  2  0  0  0  0  0  0  0  0  0
    9.7510  -15.6796   24.8145 N   0  0  0  0  0  0  0  0  0  0  0  0
    9.8776  -16.4401   27.0484 C   0  0  0  0  0  0  0  0  0  0  0  0
    9.4484  -15.1904   27.4530 O   0  0  0  0  0  0  0  0  0  0  0  0
    9.9476  -17.3122   27.9472 O   0  0  0  0  0  0  0  0  0  0  0  0
  1  2  1  0
  2  3  1  0
  3  5  1  0
  3  4  1  1
  5  6  2  0
  7  8  1  0
  7  5  1  0
  8  9  1  1
  9 10  1  0
 10 15  2  0
 11 12  2  0
 11 10  1  0
 12 13  1  0
 13 14  2  0
 15 14  1  0
 16  8  1  0
 17 16  2  0
 18 19  1  0
 19 20  2  0
 21 19  1  0
 22 21  1  1
 22 23  1  0
 23 16  1  0
 24 25  1  0
 24 22  1  0
 26 24  2  0
M  END
$$$$
