SFN.pdb
     RDKit          3D

 26 26  0  0  1  0  0  0  0  0999 V2000
   10.1903  -18.6663   20.8984 O   0  0  0  0  0  0  0  0  0  0  0  0
    9.0076  -18.2054   20.3437 C   0  0  0  0  0  0  0  0  0  0  0  0
    9.1821  -16.7285   19.9683 C   0  0  2  0  0  0  0  0  0  0  0  0
   10.4637  -16.6304   19.3044 N   0  0  0  0  0  0  0  0  0  0  0  0
    9.2523  -15.9835   21.2409 C   0  0  0  0  0  0  0  0  0  0  0  0
   10.3708  -15.6966   21.7228 O   0  0  0  0  0  0  0  0  0  0  0  0
    8.1146  -15.5576   21.9781 N   0  0  0  0  0  0  0  0  0  0  0  0
    8.2428  -14.8860   23.2549 C   0  0  1  0  0  0  0  0  0  0  0  0
    7.0375  -14.0523   23.5809 C   0  0  0  0  0  0  0  0  0  0  0  0
    7.0724  -13.4130   24.8854 C   0  0  0  0  0  0  0  0  0  0  0  0
    6.2767  -13.8706   25.9095 C   0  0  0  0  0  0  0  0  0  0  0  0
    6.3022  -13.2608   27.1704 C   0  0  0  0  0  0  0  0  0  0  0  0
    7.1411  -12.1915   27.3670 C   0  0  0  0  0  0  0  0  0  0  0  0
    7.9390  -11.7177   26.3725 C   0  0  0  0  0  0  0  0  0  0  0  0
    7.8923  -12.3422   25.1333 C   0  0  0  0  0  0  0  0  0  0  0  0
    8.6293  -15.8518   24.2986 C   0  0  0  0  0  0  0  0  0  0  0  0
    7.8652  -16.8517   24.5419 O   0  0  0  0  0  0  0  0  0  0  0  0
   10.8866  -18.4204   24.0212 N   0  0  0  0  0  0  0  0  0  0  0  0
   11.9558  -17.9333   24.8479 C   0  0  0  0  0  0  0  0  0  0  0  0
   13.1428  -18.2509   24.6153 O   0  0  0  0  0  0  0  0  0  0  0  0
   11.6121  -17.0619   25.9600 C   0  0  0  0  0  0  0  0  0  0  0  0
   10.1079  -16.7972   26.1064 C   0  0  2  0  0  0  0  0  0  0  0  0
    9.8105  -15.7698   25.0795 N   0  0  0  0  0  0  0  0  0  0  0  0
    9.9068  -16.1415   27.4114 C   0  0  0  0  0  0  0  0  0  0  0  0
    9.8289  -16.8084   28.6191 O   0  0  0  0  0  0  0  0  0  0  0  0
    9.7938  -14.8935   27.4670 O   0  0  0  0  0  0  0  0  0  0  0  0
  1  2  1  0
  2  3  1  0
  3  5  1  0
  3  4  1  1
  5  6  2  0
  7  8  1  0
  7  5  1  0
  8  9  1  1
  9 10  1  0
 10 15  2  0
 11 12  2  0
 11 10  1  0
 12 13  1  0
 13 14  2  0
 15 14  1  0
 16  8  1  0
 17 16  2  0
 18 19  1  0
 19 20  2  0
 21 19  1  0
 22 21  1  1
 22 23  1  0
 23 16  1  0
 24 25  1  0
 24 22  1  0
 26 24  2  0
M  END
$$$$
