SFN.pdb
     RDKit          3D

 26 26  0  0  1  0  0  0  0  0999 V2000
    7.9315  -18.2048   22.1604 O   0  0  0  0  0  0  0  0  0  0  0  0
    7.9873  -17.7871   20.8408 C   0  0  0  0  0  0  0  0  0  0  0  0
    7.6619  -16.2892   20.7839 C   0  0  2  0  0  0  0  0  0  0  0  0
    8.4858  -15.7378   19.7304 N   0  0  0  0  0  0  0  0  0  0  0  0
    8.1025  -15.7209   22.0732 C   0  0  0  0  0  0  0  0  0  0  0  0
    9.1924  -15.1092   22.1334 O   0  0  0  0  0  0  0  0  0  0  0  0
    7.3617  -15.8197   23.2818 N   0  0  0  0  0  0  0  0  0  0  0  0
    7.7939  -15.1583   24.4957 C   0  0  1  0  0  0  0  0  0  0  0  0
    6.6367  -14.7148   25.3430 C   0  0  0  0  0  0  0  0  0  0  0  0
    6.7137  -13.3411   25.8104 C   0  0  0  0  0  0  0  0  0  0  0  0
    5.6679  -12.7793   26.5048 C   0  0  0  0  0  0  0  0  0  0  0  0
    5.7318  -11.4557   26.9589 C   0  0  0  0  0  0  0  0  0  0  0  0
    6.8642  -10.7244   26.6967 C   0  0  0  0  0  0  0  0  0  0  0  0
    7.9136  -11.2540   26.0124 C   0  0  0  0  0  0  0  0  0  0  0  0
    7.8218  -12.5684   25.5747 C   0  0  0  0  0  0  0  0  0  0  0  0
    8.7932  -15.9855   25.1947 C   0  0  0  0  0  0  0  0  0  0  0  0
    9.3919  -15.5101   26.2235 O   0  0  0  0  0  0  0  0  0  0  0  0
    7.2334  -20.0626   25.4467 N   0  0  0  0  0  0  0  0  0  0  0  0
    8.3849  -19.7418   26.2435 C   0  0  0  0  0  0  0  0  0  0  0  0
    8.3010  -19.6581   27.4884 O   0  0  0  0  0  0  0  0  0  0  0  0
    9.6464  -19.5185   25.5557 C   0  0  0  0  0  0  0  0  0  0  0  0
   10.1454  -18.0689   25.6178 C   0  0  2  0  0  0  0  0  0  0  0  0
    9.1597  -17.3028   24.8178 N   0  0  0  0  0  0  0  0  0  0  0  0
   11.4132  -18.0130   24.8675 C   0  0  0  0  0  0  0  0  0  0  0  0
   11.5921  -17.3253   23.6824 O   0  0  0  0  0  0  0  0  0  0  0  0
   12.4195  -18.6204   25.3051 O   0  0  0  0  0  0  0  0  0  0  0  0
  1  2  1  0
  2  3  1  0
  3  5  1  0
  3  4  1  6
  5  6  2  0
  7  8  1  0
  7  5  1  0
  8  9  1  1
  9 10  1  0
 10 15  2  0
 11 12  2  0
 11 10  1  0
 12 13  1  0
 13 14  2  0
 15 14  1  0
 16  8  1  0
 17 16  2  0
 18 19  1  0
 19 20  2  0
 21 19  1  0
 22 21  1  6
 22 23  1  0
 23 16  1  0
 24 25  1  0
 24 22  1  0
 26 24  2  0
M  END
$$$$
