SFN.pdb
     RDKit          3D

 26 26  0  0  1  0  0  0  0  0999 V2000
    9.7712  -18.9270   20.8720 O   0  0  0  0  0  0  0  0  0  0  0  0
    8.8378  -18.0977   20.2721 C   0  0  0  0  0  0  0  0  0  0  0  0
    9.4264  -16.6848   20.1716 C   0  0  2  0  0  0  0  0  0  0  0  0
   10.8023  -16.8502   19.7566 N   0  0  0  0  0  0  0  0  0  0  0  0
    9.4100  -16.1314   21.5401 C   0  0  0  0  0  0  0  0  0  0  0  0
   10.4400  -16.2109   22.2462 O   0  0  0  0  0  0  0  0  0  0  0  0
    8.2824  -15.4993   22.1301 N   0  0  0  0  0  0  0  0  0  0  0  0
    8.3439  -14.9139   23.4535 C   0  0  1  0  0  0  0  0  0  0  0  0
    7.2082  -13.9654   23.7075 C   0  0  0  0  0  0  0  0  0  0  0  0
    7.2292  -13.3236   25.0111 C   0  0  0  0  0  0  0  0  0  0  0  0
    8.3549  -12.6654   25.4481 C   0  0  0  0  0  0  0  0  0  0  0  0
    8.3857  -12.0443   26.7033 C   0  0  0  0  0  0  0  0  0  0  0  0
    7.2651  -12.1047   27.4947 C   0  0  0  0  0  0  0  0  0  0  0  0
    6.1380  -12.7486   27.0884 C   0  0  0  0  0  0  0  0  0  0  0  0
    6.1368  -13.3550   25.8393 C   0  0  0  0  0  0  0  0  0  0  0  0
    8.5080  -15.9704   24.4675 C   0  0  0  0  0  0  0  0  0  0  0  0
    7.5771  -16.8371   24.6266 O   0  0  0  0  0  0  0  0  0  0  0  0
    9.9054  -18.8158   24.0457 N   0  0  0  0  0  0  0  0  0  0  0  0
   11.1077  -18.7134   24.8253 C   0  0  0  0  0  0  0  0  0  0  0  0
   12.1480  -19.3174   24.4834 O   0  0  0  0  0  0  0  0  0  0  0  0
   11.0740  -17.8865   26.0210 C   0  0  0  0  0  0  0  0  0  0  0  0
    9.7147  -17.2268   26.2878 C   0  0  2  0  0  0  0  0  0  0  0  0
    9.6419  -16.1174   25.3067 N   0  0  0  0  0  0  0  0  0  0  0  0
    9.7923  -16.5933   27.6167 C   0  0  0  0  0  0  0  0  0  0  0  0
    9.5851  -17.2540   28.8126 O   0  0  0  0  0  0  0  0  0  0  0  0
   10.0620  -15.3716   27.7060 O   0  0  0  0  0  0  0  0  0  0  0  0
  1  2  1  0
  2  3  1  0
  3  5  1  0
  3  4  1  1
  5  6  2  0
  7  8  1  0
  7  5  1  0
  8  9  1  1
  9 10  1  0
 10 15  2  0
 11 12  2  0
 11 10  1  0
 12 13  1  0
 13 14  2  0
 15 14  1  0
 16  8  1  0
 17 16  2  0
 18 19  1  0
 19 20  2  0
 21 19  1  0
 22 21  1  6
 22 23  1  0
 23 16  1  0
 24 25  1  0
 24 22  1  0
 26 24  2  0
M  END
$$$$
