SFN.pdb
     RDKit          3D

 26 26  0  0  1  0  0  0  0  0999 V2000
   10.8545  -18.8324   21.7825 O   0  0  0  0  0  0  0  0  0  0  0  0
    9.7015  -18.4222   21.1334 C   0  0  0  0  0  0  0  0  0  0  0  0
    9.9028  -16.9869   20.6312 C   0  0  2  0  0  0  0  0  0  0  0  0
   11.2538  -16.9256   20.1177 N   0  0  0  0  0  0  0  0  0  0  0  0
    9.8103  -16.1159   21.8196 C   0  0  0  0  0  0  0  0  0  0  0  0
   10.8600  -15.6928   22.3532 O   0  0  0  0  0  0  0  0  0  0  0  0
    8.5861  -15.7124   22.4178 N   0  0  0  0  0  0  0  0  0  0  0  0
    8.5561  -14.9167   23.6277 C   0  0  1  0  0  0  0  0  0  0  0  0
    7.2972  -14.1069   23.7431 C   0  0  0  0  0  0  0  0  0  0  0  0
    7.2168  -13.2696   24.9280 C   0  0  0  0  0  0  0  0  0  0  0  0
    8.0339  -12.1719   25.0649 C   0  0  0  0  0  0  0  0  0  0  0  0
    7.9650  -11.3588   26.2035 C   0  0  0  0  0  0  0  0  0  0  0  0
    7.0614  -11.6792   27.1867 C   0  0  0  0  0  0  0  0  0  0  0  0
    6.2409  -12.7586   27.0781 C   0  0  0  0  0  0  0  0  0  0  0  0
    6.3318  -13.5462   25.9382 C   0  0  0  0  0  0  0  0  0  0  0  0
    8.8597  -15.7610   24.7966 C   0  0  0  0  0  0  0  0  0  0  0  0
    8.2217  -16.8609   24.9585 O   0  0  0  0  0  0  0  0  0  0  0  0
   13.1620  -18.6774   26.3508 N   0  0  0  0  0  0  0  0  0  0  0  0
   11.9088  -18.0433   26.0488 C   0  0  0  0  0  0  0  0  0  0  0  0
   11.0727  -18.5971   25.3018 O   0  0  0  0  0  0  0  0  0  0  0  0
   11.6467  -16.7404   26.6391 C   0  0  0  0  0  0  0  0  0  0  0  0
   10.1575  -16.4359   26.8481 C   0  0  2  0  0  0  0  0  0  0  0  0
    9.8273  -15.4541   25.7872 N   0  0  0  0  0  0  0  0  0  0  0  0
   10.0370  -15.7124   28.1269 C   0  0  0  0  0  0  0  0  0  0  0  0
    9.7805  -16.3125   29.3450 O   0  0  0  0  0  0  0  0  0  0  0  0
   10.1699  -14.4654   28.1483 O   0  0  0  0  0  0  0  0  0  0  0  0
  1  2  1  0
  2  3  1  0
  3  5  1  0
  3  4  1  1
  5  6  2  0
  7  8  1  0
  7  5  1  0
  8  9  1  1
  9 10  1  0
 10 15  2  0
 11 12  2  0
 11 10  1  0
 12 13  1  0
 13 14  2  0
 15 14  1  0
 16  8  1  0
 17 16  2  0
 18 19  1  0
 19 20  2  0
 21 19  1  0
 22 21  1  6
 22 23  1  0
 23 16  1  0
 24 25  1  0
 24 22  1  0
 26 24  2  0
M  END
$$$$
