HGA.pdb
     RDKit          3D

 20 20  0  0  1  0  0  0  0  0999 V2000
   19.6349   -9.7818  -14.8739 N   0  0  0  0  0  0  0  0  0  0  0  0
   18.5073   -9.1999  -15.6375 C   0  0  1  0  0  0  0  0  0  0  0  0
   17.2754   -9.9701  -15.2937 C   0  0  0  0  0  0  0  0  0  0  0  0
   17.3603  -11.3763  -15.7089 C   0  0  0  0  0  0  0  0  0  0  0  0
   17.1454  -11.8548  -16.9862 C   0  0  0  0  0  0  0  0  0  0  0  0
   17.3073  -13.2005  -17.0081 N   0  0  0  0  0  0  0  0  0  0  0  0
   17.6231  -13.5623  -15.7455 C   0  0  0  0  0  0  0  0  0  0  0  0
   17.6563  -12.4709  -14.9613 N   0  0  0  0  0  0  0  0  0  0  0  0
   18.4775   -7.7715  -15.3529 C   0  0  0  0  0  0  0  0  0  0  0  0
   18.2419   -7.3666  -14.1890 O   0  0  0  0  0  0  0  0  0  0  0  0
   18.7072   -6.7744  -16.3362 N   0  0  0  0  0  0  0  0  0  0  0  0
   18.6560   -5.3582  -15.9581 C   0  0  0  0  0  0  0  0  0  0  0  0
   18.9869   -4.4914  -17.0990 C   0  0  0  0  0  0  0  0  0  0  0  0
   19.3832   -4.9133  -18.2168 O   0  0  0  0  0  0  0  0  0  0  0  0
   18.6880   -0.7786  -17.6419 C   0  0  0  0  0  0  0  0  0  0  0  0
   19.0549   -2.2014  -18.0380 C   0  0  2  0  0  0  0  0  0  0  0  0
   18.8419   -3.0799  -16.9037 N   0  0  0  0  0  0  0  0  0  0  0  0
   20.4980   -2.1843  -18.3820 C   0  0  0  0  0  0  0  0  0  0  0  0
   21.3713   -2.6072  -17.5734 O   0  0  0  0  0  0  0  0  0  0  0  0
   20.9020   -1.7013  -19.6008 O   0  0  0  0  0  0  0  0  0  0  0  0
  2  1  1  1
  3  2  1  0
  4  3  1  0
  5  4  2  0
  6  7  1  0
  6  5  1  0
  7  8  2  0
  8  4  1  0
  9  2  1  0
  9 10  2  0
 11  9  1  0
 12 11  1  0
 13 12  1  0
 14 13  2  0
 16 15  1  1
 16 17  1  0
 16 18  1  0
 17 13  1  0
 18 20  1  0
 19 18  2  0
M  END
$$$$
