HGA.pdb
     RDKit          3D

 20 20  0  0  1  0  0  0  0  0999 V2000
   23.0124   -9.2673  -18.3368 N   0  0  0  0  0  0  0  0  0  0  0  0
   21.8083  -10.1167  -18.1887 C   0  0  1  0  0  0  0  0  0  0  0  0
   22.0903  -11.1304  -17.1294 C   0  0  0  0  0  0  0  0  0  0  0  0
   23.1240  -12.0913  -17.5352 C   0  0  0  0  0  0  0  0  0  0  0  0
   24.4380  -12.0900  -17.1110 C   0  0  0  0  0  0  0  0  0  0  0  0
   25.1094  -13.1182  -17.6853 N   0  0  0  0  0  0  0  0  0  0  0  0
   24.2154  -13.7613  -18.4675 C   0  0  0  0  0  0  0  0  0  0  0  0
   23.0217  -13.1490  -18.3812 N   0  0  0  0  0  0  0  0  0  0  0  0
   20.6755   -9.2318  -17.9520 C   0  0  0  0  0  0  0  0  0  0  0  0
   19.5039   -9.6693  -18.0515 O   0  0  0  0  0  0  0  0  0  0  0  0
   20.8133   -7.8633  -17.6027 N   0  0  0  0  0  0  0  0  0  0  0  0
   19.6212   -7.0773  -17.2674 C   0  0  0  0  0  0  0  0  0  0  0  0
   19.7734   -6.4102  -15.9659 C   0  0  0  0  0  0  0  0  0  0  0  0
   18.9377   -5.6024  -15.4826 O   0  0  0  0  0  0  0  0  0  0  0  0
   21.7093   -7.0304  -12.9372 C   0  0  0  0  0  0  0  0  0  0  0  0
   21.1634   -6.0357  -13.9514 C   0  0  2  0  0  0  0  0  0  0  0  0
   20.9561   -6.7135  -15.2169 N   0  0  0  0  0  0  0  0  0  0  0  0
   22.2032   -4.9906  -14.1184 C   0  0  0  0  0  0  0  0  0  0  0  0
   22.9068   -4.9250  -15.1653 O   0  0  0  0  0  0  0  0  0  0  0  0
   22.4122   -4.0722  -13.1210 O   0  0  0  0  0  0  0  0  0  0  0  0
  2  1  1  1
  3  2  1  0
  4  3  1  0
  5  4  2  0
  6  7  1  0
  6  5  1  0
  7  8  2  0
  8  4  1  0
  9  2  1  0
  9 10  2  0
 11  9  1  0
 12 11  1  0
 13 12  1  0
 14 13  2  0
 16 15  1  1
 16 17  1  0
 16 18  1  0
 17 13  1  0
 18 20  1  0
 19 18  2  0
M  END
$$$$
