HGA.pdb
     RDKit          3D

 20 20  0  0  1  0  0  0  0  0999 V2000
   15.7227  -16.5523    5.7249 N   0  0  0  0  0  0  0  0  0  0  0  0
   16.8288  -16.1547    4.8240 C   0  0  1  0  0  0  0  0  0  0  0  0
   16.4274  -16.4966    3.4272 C   0  0  0  0  0  0  0  0  0  0  0  0
   16.3680  -17.9464    3.2008 C   0  0  0  0  0  0  0  0  0  0  0  0
   16.7410  -18.9203    4.1058 C   0  0  0  0  0  0  0  0  0  0  0  0
   16.5542  -20.1491    3.5646 N   0  0  0  0  0  0  0  0  0  0  0  0
   16.0649  -19.9429    2.3225 C   0  0  0  0  0  0  0  0  0  0  0  0
   15.9511  -18.6221    2.0989 N   0  0  0  0  0  0  0  0  0  0  0  0
   17.1247  -14.7528    5.0873 C   0  0  0  0  0  0  0  0  0  0  0  0
   16.2405  -14.0021    5.5654 O   0  0  0  0  0  0  0  0  0  0  0  0
   18.3889  -14.1604    4.8328 N   0  0  0  0  0  0  0  0  0  0  0  0
   18.6325  -12.7711    5.2352 C   0  0  0  0  0  0  0  0  0  0  0  0
   19.7491  -12.6820    6.1878 C   0  0  0  0  0  0  0  0  0  0  0  0
   20.3018  -13.6770    6.7256 O   0  0  0  0  0  0  0  0  0  0  0  0
   21.9270   -9.8430    7.3040 C   0  0  0  0  0  0  0  0  0  0  0  0
   21.3465  -11.2451    7.4183 C   0  0  2  0  0  0  0  0  0  0  0  0
   20.2224  -11.3691    6.5102 N   0  0  0  0  0  0  0  0  0  0  0  0
   20.8681  -11.3905    8.8152 C   0  0  0  0  0  0  0  0  0  0  0  0
   19.6482  -11.2481    9.1101 O   0  0  0  0  0  0  0  0  0  0  0  0
   21.7612  -11.6857    9.8138 O   0  0  0  0  0  0  0  0  0  0  0  0
  2  1  1  1
  3  2  1  0
  4  3  1  0
  5  4  2  0
  6  7  1  0
  6  5  1  0
  7  8  2  0
  8  4  1  0
  9  2  1  0
  9 10  2  0
 11  9  1  0
 12 11  1  0
 13 12  1  0
 14 13  2  0
 16 15  1  1
 16 17  1  0
 16 18  1  0
 17 13  1  0
 18 20  1  0
 19 18  2  0
M  END
$$$$
