HGA.pdb
     RDKit          3D

 20 20  0  0  1  0  0  0  0  0999 V2000
   15.1555  -17.7752    4.8398 N   0  0  0  0  0  0  0  0  0  0  0  0
   16.5972  -18.0449    4.6346 C   0  0  1  0  0  0  0  0  0  0  0  0
   16.8802  -17.9351    3.1728 C   0  0  0  0  0  0  0  0  0  0  0  0
   16.3461  -19.0722    2.4122 C   0  0  0  0  0  0  0  0  0  0  0  0
   15.0274  -19.2474    2.0424 C   0  0  0  0  0  0  0  0  0  0  0  0
   14.8920  -20.4058    1.3512 N   0  0  0  0  0  0  0  0  0  0  0  0
   16.1252  -20.9536    1.2894 C   0  0  0  0  0  0  0  0  0  0  0  0
   17.0021  -20.1571    1.9249 N   0  0  0  0  0  0  0  0  0  0  0  0
   17.3390  -17.1439    5.5065 C   0  0  0  0  0  0  0  0  0  0  0  0
   16.9363  -15.9694    5.6866 O   0  0  0  0  0  0  0  0  0  0  0  0
   18.5245  -17.5191    6.1903 N   0  0  0  0  0  0  0  0  0  0  0  0
   19.2046  -16.5446    7.0501 C   0  0  0  0  0  0  0  0  0  0  0  0
   20.4170  -17.1208    7.6503 C   0  0  0  0  0  0  0  0  0  0  0  0
   20.8019  -18.3056    7.4696 O   0  0  0  0  0  0  0  0  0  0  0  0
   23.2395  -15.6347    9.6282 C   0  0  0  0  0  0  0  0  0  0  0  0
   22.4125  -16.7877    9.0777 C   0  0  2  0  0  0  0  0  0  0  0  0
   21.1950  -16.2609    8.4912 N   0  0  0  0  0  0  0  0  0  0  0  0
   22.0675  -17.6491   10.2353 C   0  0  0  0  0  0  0  0  0  0  0  0
   21.0284  -17.4411   10.9226 O   0  0  0  0  0  0  0  0  0  0  0  0
   22.8874  -18.6955   10.5740 O   0  0  0  0  0  0  0  0  0  0  0  0
  2  1  1  6
  3  2  1  0
  4  3  1  0
  5  4  2  0
  6  7  1  0
  6  5  1  0
  7  8  2  0
  8  4  1  0
  9  2  1  0
  9 10  2  0
 11  9  1  0
 12 11  1  0
 13 12  1  0
 14 13  2  0
 16 15  1  1
 16 17  1  0
 16 18  1  0
 17 13  1  0
 18 20  1  0
 19 18  2  0
M  END
$$$$
