HGA.pdb
     RDKit          3D

 20 20  0  0  1  0  0  0  0  0999 V2000
   19.1165  -10.2551  -15.6807 N   0  0  0  0  0  0  0  0  0  0  0  0
   20.2117  -10.4565  -16.6570 C   0  0  1  0  0  0  0  0  0  0  0  0
   19.7644  -11.4862  -17.6413 C   0  0  0  0  0  0  0  0  0  0  0  0
   19.3462  -12.7358  -16.9930 C   0  0  0  0  0  0  0  0  0  0  0  0
   20.1621  -13.5799  -16.2660 C   0  0  0  0  0  0  0  0  0  0  0  0
   19.4452  -14.6375  -15.8129 N   0  0  0  0  0  0  0  0  0  0  0  0
   18.1825  -14.4541  -16.2564 C   0  0  0  0  0  0  0  0  0  0  0  0
   18.1174  -13.3139  -16.9655 N   0  0  0  0  0  0  0  0  0  0  0  0
   20.5588   -9.1501  -17.2003 C   0  0  0  0  0  0  0  0  0  0  0  0
   19.6880   -8.4588  -17.7815 O   0  0  0  0  0  0  0  0  0  0  0  0
   21.8586   -8.5876  -17.1109 N   0  0  0  0  0  0  0  0  0  0  0  0
   22.1220   -7.2733  -17.7064 C   0  0  0  0  0  0  0  0  0  0  0  0
   21.9206   -6.1959  -16.7260 C   0  0  0  0  0  0  0  0  0  0  0  0
   22.2749   -5.0012  -16.9046 O   0  0  0  0  0  0  0  0  0  0  0  0
   19.7809   -5.8639  -13.7211 C   0  0  0  0  0  0  0  0  0  0  0  0
   21.0221   -5.5046  -14.5248 C   0  0  2  0  0  0  0  0  0  0  0  0
   21.2782   -6.5510  -15.4961 N   0  0  0  0  0  0  0  0  0  0  0  0
   22.1468   -5.4447  -13.5591 C   0  0  0  0  0  0  0  0  0  0  0  0
   22.3424   -4.4244  -12.8407 O   0  0  0  0  0  0  0  0  0  0  0  0
   22.9971   -6.5142  -13.4366 O   0  0  0  0  0  0  0  0  0  0  0  0
  2  1  1  1
  3  2  1  0
  4  3  1  0
  5  4  2  0
  6  7  1  0
  6  5  1  0
  7  8  2  0
  8  4  1  0
  9  2  1  0
  9 10  2  0
 11  9  1  0
 12 11  1  0
 13 12  1  0
 14 13  2  0
 16 15  1  1
 16 17  1  0
 16 18  1  0
 17 13  1  0
 18 20  1  0
 19 18  2  0
M  END
$$$$
