ISC.pdb
     RDKit          3D

 21 20  0  0  1  0  0  0  0  0999 V2000
    6.1580  -10.8527   27.0659 C   0  0  0  0  0  0  0  0  0  0  0  0
    5.6366  -12.0589   26.3581 C   0  0  0  0  0  0  0  0  0  0  0  0
    6.7372  -12.8758   25.7122 C   0  0  2  0  0  0  0  0  0  0  0  0
    7.4733  -12.0689   24.6798 C   0  0  0  0  0  0  0  0  0  0  0  0
    6.0819  -14.1017   25.0818 C   0  0  2  0  0  0  0  0  0  0  0  0
    5.3931  -14.8008   26.1242 N   0  0  0  0  0  0  0  0  0  0  0  0
    7.0857  -14.9913   24.4550 C   0  0  0  0  0  0  0  0  0  0  0  0
    7.7706  -15.8118   25.1188 O   0  0  0  0  0  0  0  0  0  0  0  0
    6.9859  -16.0511   20.3428 O   0  0  0  0  0  0  0  0  0  0  0  0
    8.2213  -15.7623   20.9190 C   0  0  0  0  0  0  0  0  0  0  0  0
    8.1696  -15.9305   22.4268 C   0  0  2  0  0  0  0  0  0  0  0  0
    7.3085  -14.9395   23.0422 N   0  0  0  0  0  0  0  0  0  0  0  0
    9.5360  -15.7125   22.9263 C   0  0  0  0  0  0  0  0  0  0  0  0
   10.0995  -14.6213   22.7485 O   0  0  0  0  0  0  0  0  0  0  0  0
   10.2096  -16.7402   23.6077 N   0  0  0  0  0  0  0  0  0  0  0  0
   11.5729  -16.5334   24.0211 C   0  0  1  0  0  0  0  0  0  0  0  0
   11.7168  -16.5800   25.5309 C   0  0  0  0  0  0  0  0  0  0  0  0
   10.7864  -18.0252   26.1110 S   0  0  0  0  0  0  0  0  0  0  0  0
   12.4285  -17.5270   23.3535 C   0  0  0  0  0  0  0  0  0  0  0  0
   11.9833  -18.4353   22.6041 O   0  0  0  0  0  0  0  0  0  0  0  0
   13.7959  -17.4742   23.5490 O   0  0  0  0  0  0  0  0  0  0  0  0
  2  3  1  0
  2  1  1  0
  3  5  1  0
  3  4  1  6
  5  6  1  1
  5  7  1  0
  7  8  2  0
 10  9  1  0
 11 10  1  6
 12  7  1  0
 12 11  1  0
 13 15  1  0
 13 11  1  0
 14 13  2  0
 16 19  1  0
 16 17  1  1
 16 15  1  0
 18 17  1  0
 19 21  1  0
 20 19  2  0
M  END
$$$$
