ISC.pdb
     RDKit          3D

 21 20  0  0  1  0  0  0  0  0999 V2000
    7.6090  -12.2602   18.4761 C   0  0  0  0  0  0  0  0  0  0  0  0
    8.1548  -13.5905   18.8764 C   0  0  0  0  0  0  0  0  0  0  0  0
    7.7538  -13.9846   20.2834 C   0  0  2  0  0  0  0  0  0  0  0  0
    8.2611  -12.9888   21.2882 C   0  0  0  0  0  0  0  0  0  0  0  0
    8.3333  -15.3715   20.5486 C   0  0  2  0  0  0  0  0  0  0  0  0
    7.7914  -16.2562   19.5619 N   0  0  0  0  0  0  0  0  0  0  0  0
    7.9862  -15.8542   21.9045 C   0  0  0  0  0  0  0  0  0  0  0  0
    6.8352  -16.2659   22.2019 O   0  0  0  0  0  0  0  0  0  0  0  0
    9.0949  -17.8323   26.0391 O   0  0  0  0  0  0  0  0  0  0  0  0
    9.3878  -17.5034   24.7172 C   0  0  0  0  0  0  0  0  0  0  0  0
    8.5980  -16.2854   24.2731 C   0  0  2  0  0  0  0  0  0  0  0  0
    8.9762  -15.8653   22.9379 N   0  0  0  0  0  0  0  0  0  0  0  0
    8.9380  -15.1961   25.2015 C   0  0  0  0  0  0  0  0  0  0  0  0
   10.0513  -14.6511   25.1440 O   0  0  0  0  0  0  0  0  0  0  0  0
    8.0025  -14.7678   26.1582 N   0  0  0  0  0  0  0  0  0  0  0  0
    8.4024  -13.8037   27.1496 C   0  0  1  0  0  0  0  0  0  0  0  0
    7.2351  -12.9489   27.6070 C   0  0  0  0  0  0  0  0  0  0  0  0
    6.2188  -12.6068   26.1438 S   0  0  0  0  0  0  0  0  0  0  0  0
    9.0420  -14.5109   28.2703 C   0  0  0  0  0  0  0  0  0  0  0  0
    9.0726  -15.7652   28.3731 O   0  0  0  0  0  0  0  0  0  0  0  0
    9.6457  -13.7737   29.2717 O   0  0  0  0  0  0  0  0  0  0  0  0
  2  3  1  0
  2  1  1  0
  3  5  1  0
  3  4  1  1
  5  6  1  6
  5  7  1  0
  7  8  2  0
 10  9  1  0
 11 10  1  1
 12  7  1  0
 12 11  1  0
 13 15  1  0
 13 11  1  0
 14 13  2  0
 16 19  1  0
 16 17  1  1
 16 15  1  0
 18 17  1  0
 19 21  1  0
 20 19  2  0
M  END
$$$$
