ISC.pdb
     RDKit          3D

 21 20  0  0  1  0  0  0  0  0999 V2000
    7.3003  -12.1125   19.9965 C   0  0  0  0  0  0  0  0  0  0  0  0
    7.4020  -13.5990   20.0843 C   0  0  0  0  0  0  0  0  0  0  0  0
    8.7054  -14.1275   19.5208 C   0  0  2  0  0  0  0  0  0  0  0  0
    8.8542  -13.7619   18.0706 C   0  0  0  0  0  0  0  0  0  0  0  0
    8.6976  -15.6428   19.7038 C   0  0  2  0  0  0  0  0  0  0  0  0
    7.6442  -16.1657   18.8873 N   0  0  0  0  0  0  0  0  0  0  0  0
    8.4730  -16.0172   21.1185 C   0  0  0  0  0  0  0  0  0  0  0  0
    7.3314  -16.2850   21.5743 O   0  0  0  0  0  0  0  0  0  0  0  0
   11.6342  -16.4213   24.0902 O   0  0  0  0  0  0  0  0  0  0  0  0
   10.5168  -17.2455   23.9737 C   0  0  0  0  0  0  0  0  0  0  0  0
    9.3364  -16.4820   23.4008 C   0  0  2  0  0  0  0  0  0  0  0  0
    9.5768  -16.0858   22.0269 N   0  0  0  0  0  0  0  0  0  0  0  0
    9.1912  -15.2580   24.2039 C   0  0  0  0  0  0  0  0  0  0  0  0
    9.3154  -14.1437   23.6722 O   0  0  0  0  0  0  0  0  0  0  0  0
    8.9111  -15.3458   25.5779 N   0  0  0  0  0  0  0  0  0  0  0  0
    8.5482  -14.1537   26.2986 C   0  0  1  0  0  0  0  0  0  0  0  0
    7.2264  -13.5849   25.8173 C   0  0  0  0  0  0  0  0  0  0  0  0
    6.8130  -12.1975   26.9105 S   0  0  0  0  0  0  0  0  0  0  0  0
    8.5282  -14.4559   27.7386 C   0  0  0  0  0  0  0  0  0  0  0  0
    8.1891  -15.5732   28.2091 O   0  0  0  0  0  0  0  0  0  0  0  0
    8.8985  -13.4716   28.6357 O   0  0  0  0  0  0  0  0  0  0  0  0
  2  3  1  0
  2  1  1  0
  3  5  1  0
  3  4  1  6
  5  6  1  6
  5  7  1  0
  7  8  2  0
 10  9  1  0
 11 10  1  1
 12  7  1  0
 12 11  1  0
 13 15  1  0
 13 11  1  0
 14 13  2  0
 16 19  1  0
 16 17  1  6
 16 15  1  0
 18 17  1  0
 19 21  1  0
 20 19  2  0
M  END
$$$$
