ISC.pdb
     RDKit          3D

 21 20  0  0  1  0  0  0  0  0999 V2000
    7.6549  -11.7546   19.1822 C   0  0  0  0  0  0  0  0  0  0  0  0
    8.2746  -13.0200   18.6896 C   0  0  0  0  0  0  0  0  0  0  0  0
    8.4722  -14.0392   19.7932 C   0  0  2  0  0  0  0  0  0  0  0  0
    9.3698  -13.5002   20.8714 C   0  0  0  0  0  0  0  0  0  0  0  0
    9.0746  -15.2880   19.1549 C   0  0  2  0  0  0  0  0  0  0  0  0
    8.1989  -15.6907   18.0961 N   0  0  0  0  0  0  0  0  0  0  0  0
    9.2156  -16.3857   20.1383 C   0  0  0  0  0  0  0  0  0  0  0  0
    8.2286  -17.0269   20.5824 O   0  0  0  0  0  0  0  0  0  0  0  0
   13.0006  -17.7509   21.2805 O   0  0  0  0  0  0  0  0  0  0  0  0
   11.9093  -18.6063   21.4188 C   0  0  0  0  0  0  0  0  0  0  0  0
   10.6230  -17.8204   21.5982 C   0  0  2  0  0  0  0  0  0  0  0  0
   10.5113  -16.7549   20.6212 N   0  0  0  0  0  0  0  0  0  0  0  0
   10.6836  -17.2038   22.9324 C   0  0  0  0  0  0  0  0  0  0  0  0
   11.2067  -16.0885   23.0820 O   0  0  0  0  0  0  0  0  0  0  0  0
   10.1489  -17.8760   24.0443 N   0  0  0  0  0  0  0  0  0  0  0  0
   10.1959  -17.2441   25.3369 C   0  0  1  0  0  0  0  0  0  0  0  0
    8.8070  -16.9291   25.8607 C   0  0  0  0  0  0  0  0  0  0  0  0
    8.1721  -15.5376   24.8854 S   0  0  0  0  0  0  0  0  0  0  0  0
   10.9526  -18.1047   26.2600 C   0  0  0  0  0  0  0  0  0  0  0  0
   11.3902  -19.2429   25.9472 O   0  0  0  0  0  0  0  0  0  0  0  0
   11.2048  -17.6543   27.5423 O   0  0  0  0  0  0  0  0  0  0  0  0
  2  3  1  0
  2  1  1  0
  3  5  1  0
  3  4  1  1
  5  6  1  6
  5  7  1  0
  7  8  2  0
 10  9  1  0
 11 10  1  6
 12  7  1  0
 12 11  1  0
 13 15  1  0
 13 11  1  0
 14 13  2  0
 16 19  1  0
 16 17  1  1
 16 15  1  0
 18 17  1  0
 19 21  1  0
 20 19  2  0
M  END
$$$$
