ISC.pdb
     RDKit          3D

 21 20  0  0  1  0  0  0  0  0999 V2000
    7.3898  -12.2546   19.2368 C   0  0  0  0  0  0  0  0  0  0  0  0
    7.4266  -13.7204   19.5156 C   0  0  0  0  0  0  0  0  0  0  0  0
    7.5578  -14.0286   20.9933 C   0  0  2  0  0  0  0  0  0  0  0  0
    8.8234  -13.4454   21.5561 C   0  0  0  0  0  0  0  0  0  0  0  0
    7.5428  -15.5475   21.1430 C   0  0  2  0  0  0  0  0  0  0  0  0
    6.3298  -16.0228   20.5490 N   0  0  0  0  0  0  0  0  0  0  0  0
    7.6007  -15.9530   22.5657 C   0  0  0  0  0  0  0  0  0  0  0  0
    6.6316  -15.7988   23.3530 O   0  0  0  0  0  0  0  0  0  0  0  0
   10.6817  -18.3747   24.0469 O   0  0  0  0  0  0  0  0  0  0  0  0
    9.4509  -18.2857   24.6940 C   0  0  0  0  0  0  0  0  0  0  0  0
    8.8323  -16.9134   24.4974 C   0  0  2  0  0  0  0  0  0  0  0  0
    8.7908  -16.5457   23.0955 N   0  0  0  0  0  0  0  0  0  0  0  0
    9.7031  -15.9510   25.1900 C   0  0  0  0  0  0  0  0  0  0  0  0
   10.5319  -15.2854   24.5498 O   0  0  0  0  0  0  0  0  0  0  0  0
    9.5997  -15.7813   26.5809 N   0  0  0  0  0  0  0  0  0  0  0  0
   10.5540  -14.9440   27.2595 C   0  0  1  0  0  0  0  0  0  0  0  0
   10.0918  -13.5001   27.3225 C   0  0  0  0  0  0  0  0  0  0  0  0
    8.3171  -13.5239   27.6976 S   0  0  0  0  0  0  0  0  0  0  0  0
   10.8095  -15.5013   28.5971 C   0  0  0  0  0  0  0  0  0  0  0  0
   10.2378  -16.5313   29.0411 O   0  0  0  0  0  0  0  0  0  0  0  0
   11.7230  -14.8726   29.4224 O   0  0  0  0  0  0  0  0  0  0  0  0
  2  3  1  0
  2  1  1  0
  3  5  1  0
  3  4  1  6
  5  6  1  1
  5  7  1  0
  7  8  2  0
 10  9  1  0
 11 10  1  6
 12  7  1  0
 12 11  1  0
 13 15  1  0
 13 11  1  0
 14 13  2  0
 16 19  1  0
 16 17  1  1
 16 15  1  0
 18 17  1  0
 19 21  1  0
 20 19  2  0
M  END
$$$$
