ISC.pdb
     RDKit          3D

 21 20  0  0  1  0  0  0  0  0999 V2000
    7.5866  -12.1497   20.9030 C   0  0  0  0  0  0  0  0  0  0  0  0
    7.4035  -13.6256   21.0292 C   0  0  0  0  0  0  0  0  0  0  0  0
    8.6198  -14.4042   20.5708 C   0  0  2  0  0  0  0  0  0  0  0  0
    8.8730  -14.1956   19.1041 C   0  0  0  0  0  0  0  0  0  0  0  0
    8.3574  -15.8766   20.8756 C   0  0  2  0  0  0  0  0  0  0  0  0
    7.1707  -16.2536   20.1688 N   0  0  0  0  0  0  0  0  0  0  0  0
    8.1751  -16.1060   22.3268 C   0  0  0  0  0  0  0  0  0  0  0  0
    7.0527  -16.0226   22.8890 O   0  0  0  0  0  0  0  0  0  0  0  0
   11.0183  -18.2068   24.3661 O   0  0  0  0  0  0  0  0  0  0  0  0
    9.7178  -18.1417   24.8620 C   0  0  0  0  0  0  0  0  0  0  0  0
    9.0776  -16.8052   24.5330 C   0  0  2  0  0  0  0  0  0  0  0  0
    9.2994  -16.4370   23.1482 N   0  0  0  0  0  0  0  0  0  0  0  0
    9.7373  -15.7979   25.3782 C   0  0  0  0  0  0  0  0  0  0  0  0
   10.7294  -15.1826   24.9578 O   0  0  0  0  0  0  0  0  0  0  0  0
    9.2460  -15.5281   26.6666 N   0  0  0  0  0  0  0  0  0  0  0  0
   10.0060  -14.6774   27.5446 C   0  0  1  0  0  0  0  0  0  0  0  0
    9.1433  -13.5944   28.1654 C   0  0  0  0  0  0  0  0  0  0  0  0
    8.0060  -13.0142   26.8767 S   0  0  0  0  0  0  0  0  0  0  0  0
   10.6641  -15.5112   28.5629 C   0  0  0  0  0  0  0  0  0  0  0  0
   10.4758  -16.7510   28.6730 O   0  0  0  0  0  0  0  0  0  0  0  0
   11.5385  -14.9170   29.4535 O   0  0  0  0  0  0  0  0  0  0  0  0
  2  3  1  0
  2  1  1  0
  3  5  1  0
  3  4  1  6
  5  6  1  6
  5  7  1  0
  7  8  2  0
 10  9  1  0
 11 10  1  6
 12  7  1  0
 12 11  1  0
 13 15  1  0
 13 11  1  0
 14 13  2  0
 16 19  1  0
 16 17  1  1
 16 15  1  0
 18 17  1  0
 19 21  1  0
 20 19  2  0
M  END
$$$$
