ISC.pdb
     RDKit          3D

 21 20  0  0  1  0  0  0  0  0999 V2000
    8.2114  -15.7451   15.2290 C   0  0  0  0  0  0  0  0  0  0  0  0
    7.6622  -14.8573   16.2957 C   0  0  0  0  0  0  0  0  0  0  0  0
    8.4331  -14.9640   17.5957 C   0  0  2  0  0  0  0  0  0  0  0  0
    8.4060  -16.3702   18.1255 C   0  0  0  0  0  0  0  0  0  0  0  0
    7.7908  -13.9953   18.5850 C   0  0  2  0  0  0  0  0  0  0  0  0
    7.7865  -12.7009   17.9730 N   0  0  0  0  0  0  0  0  0  0  0  0
    8.5394  -13.9477   19.8614 C   0  0  0  0  0  0  0  0  0  0  0  0
    9.6920  -13.4515   19.9515 O   0  0  0  0  0  0  0  0  0  0  0  0
    6.9273  -15.6126   23.3814 O   0  0  0  0  0  0  0  0  0  0  0  0
    7.8413  -14.5681   23.5048 C   0  0  0  0  0  0  0  0  0  0  0  0
    8.7337  -14.4802   22.2799 C   0  0  2  0  0  0  0  0  0  0  0  0
    7.9564  -14.4783   21.0559 N   0  0  0  0  0  0  0  0  0  0  0  0
    9.5739  -15.6878   22.2781 C   0  0  0  0  0  0  0  0  0  0  0  0
    9.2200  -16.6941   21.6441 O   0  0  0  0  0  0  0  0  0  0  0  0
   10.7820  -15.7067   22.9952 N   0  0  0  0  0  0  0  0  0  0  0  0
   11.5916  -16.8969   22.9766 C   0  0  1  0  0  0  0  0  0  0  0  0
   13.0209  -16.5994   22.5630 C   0  0  0  0  0  0  0  0  0  0  0  0
   13.7198  -15.4917   23.8182 S   0  0  0  0  0  0  0  0  0  0  0  0
   11.5212  -17.5408   24.2978 C   0  0  0  0  0  0  0  0  0  0  0  0
   10.9066  -17.0470   25.2792 O   0  0  0  0  0  0  0  0  0  0  0  0
   12.1585  -18.7526   24.4881 O   0  0  0  0  0  0  0  0  0  0  0  0
  2  3  1  0
  2  1  1  0
  3  5  1  0
  3  4  1  1
  5  6  1  6
  5  7  1  0
  7  8  2  0
 10  9  1  0
 11 10  1  1
 12  7  1  0
 12 11  1  0
 13 15  1  0
 13 11  1  0
 14 13  2  0
 16 19  1  0
 16 17  1  1
 16 15  1  0
 18 17  1  0
 19 21  1  0
 20 19  2  0
M  END
$$$$
