ISC.pdb
     RDKit          3D

 21 20  0  0  1  0  0  0  0  0999 V2000
    8.0298  -12.1420   27.5148 C   0  0  0  0  0  0  0  0  0  0  0  0
    7.4053  -13.3952   26.9977 C   0  0  0  0  0  0  0  0  0  0  0  0
    6.9995  -13.2854   25.5420 C   0  0  2  0  0  0  0  0  0  0  0  0
    5.8897  -12.2875   25.3648 C   0  0  0  0  0  0  0  0  0  0  0  0
    6.5620  -14.6751   25.0869 C   0  0  2  0  0  0  0  0  0  0  0  0
    5.7007  -15.2045   26.1007 N   0  0  0  0  0  0  0  0  0  0  0  0
    7.7232  -15.5725   24.8917 C   0  0  0  0  0  0  0  0  0  0  0  0
    8.0503  -16.4482   25.7337 O   0  0  0  0  0  0  0  0  0  0  0  0
    9.3024  -16.5010   21.1307 O   0  0  0  0  0  0  0  0  0  0  0  0
   10.2349  -16.2391   22.1324 C   0  0  0  0  0  0  0  0  0  0  0  0
    9.6132  -16.3992   23.5080 C   0  0  2  0  0  0  0  0  0  0  0  0
    8.5237  -15.4642   23.7103 N   0  0  0  0  0  0  0  0  0  0  0  0
   10.6638  -16.0857   24.4888 C   0  0  0  0  0  0  0  0  0  0  0  0
   11.2039  -14.9685   24.4901 O   0  0  0  0  0  0  0  0  0  0  0  0
   11.0606  -17.0511   25.4293 N   0  0  0  0  0  0  0  0  0  0  0  0
   12.1881  -16.7797   26.2821 C   0  0  1  0  0  0  0  0  0  0  0  0
   11.7939  -16.7583   27.7472 C   0  0  0  0  0  0  0  0  0  0  0  0
   10.6592  -15.3612   27.9739 S   0  0  0  0  0  0  0  0  0  0  0  0
   13.2415  -17.7697   26.0077 C   0  0  0  0  0  0  0  0  0  0  0  0
   14.3507  -17.7869   26.6030 O   0  0  0  0  0  0  0  0  0  0  0  0
   13.0173  -18.7392   25.0482 O   0  0  0  0  0  0  0  0  0  0  0  0
  2  3  1  0
  2  1  1  0
  3  5  1  0
  3  4  1  1
  5  6  1  1
  5  7  1  0
  7  8  2  0
 10  9  1  0
 11 10  1  6
 12  7  1  0
 12 11  1  0
 13 15  1  0
 13 11  1  0
 14 13  2  0
 16 19  1  0
 16 17  1  1
 16 15  1  0
 18 17  1  0
 19 21  1  0
 20 19  2  0
M  END
$$$$
