ISC.pdb
     RDKit          3D

 21 20  0  0  1  0  0  0  0  0999 V2000
    6.6080  -11.6114   27.2890 C   0  0  0  0  0  0  0  0  0  0  0  0
    6.0196  -12.7674   26.5507 C   0  0  0  0  0  0  0  0  0  0  0  0
    7.0429  -13.5018   25.7085 C   0  0  2  0  0  0  0  0  0  0  0  0
    7.6207  -12.6006   24.6536 C   0  0  0  0  0  0  0  0  0  0  0  0
    6.3364  -14.6985   25.0772 C   0  0  2  0  0  0  0  0  0  0  0  0
    5.7748  -15.4730   26.1424 N   0  0  0  0  0  0  0  0  0  0  0  0
    7.2752  -15.5292   24.2896 C   0  0  0  0  0  0  0  0  0  0  0  0
    7.9898  -16.4229   24.8125 O   0  0  0  0  0  0  0  0  0  0  0  0
    7.9966  -14.6116   20.3293 O   0  0  0  0  0  0  0  0  0  0  0  0
    8.1431  -15.9648   20.6276 C   0  0  0  0  0  0  0  0  0  0  0  0
    8.3016  -16.1771   22.1223 C   0  0  2  0  0  0  0  0  0  0  0  0
    7.3972  -15.3319   22.8773 N   0  0  0  0  0  0  0  0  0  0  0  0
    9.6772  -15.7837   22.4644 C   0  0  0  0  0  0  0  0  0  0  0  0
    9.9511  -14.5927   22.6794 O   0  0  0  0  0  0  0  0  0  0  0  0
   10.6878  -16.7561   22.5493 N   0  0  0  0  0  0  0  0  0  0  0  0
   11.9928  -16.3740   23.0216 C   0  0  1  0  0  0  0  0  0  0  0  0
   11.9401  -15.8138   24.4308 C   0  0  0  0  0  0  0  0  0  0  0  0
   11.3178  -17.1350   25.5070 S   0  0  0  0  0  0  0  0  0  0  0  0
   12.8934  -17.5332   22.9210 C   0  0  0  0  0  0  0  0  0  0  0  0
   12.5063  -18.6879   22.6021 O   0  0  0  0  0  0  0  0  0  0  0  0
   14.2390  -17.3623   23.1876 O   0  0  0  0  0  0  0  0  0  0  0  0
  2  3  1  0
  2  1  1  0
  3  5  1  0
  3  4  1  6
  5  6  1  1
  5  7  1  0
  7  8  2  0
 10  9  1  0
 11 10  1  6
 12  7  1  0
 12 11  1  0
 13 15  1  0
 13 11  1  0
 14 13  2  0
 16 19  1  0
 16 17  1  1
 16 15  1  0
 18 17  1  0
 19 21  1  0
 20 19  2  0
M  END
$$$$
