ISC.pdb
     RDKit          3D

 21 20  0  0  1  0  0  0  0  0999 V2000
    7.3130  -12.0771   19.4463 C   0  0  0  0  0  0  0  0  0  0  0  0
    7.7553  -13.5026   19.4574 C   0  0  0  0  0  0  0  0  0  0  0  0
    7.9123  -14.0523   20.8606 C   0  0  2  0  0  0  0  0  0  0  0  0
    8.9246  -13.2610   21.6402 C   0  0  0  0  0  0  0  0  0  0  0  0
    8.3418  -15.5112   20.7310 C   0  0  2  0  0  0  0  0  0  0  0  0
    7.3870  -16.1636   19.8869 N   0  0  0  0  0  0  0  0  0  0  0  0
    8.3907  -16.1815   22.0501 C   0  0  0  0  0  0  0  0  0  0  0  0
    7.3536  -16.4692   22.7015 O   0  0  0  0  0  0  0  0  0  0  0  0
   11.9606  -17.8330   23.6835 O   0  0  0  0  0  0  0  0  0  0  0  0
   10.6813  -18.2829   24.0036 C   0  0  0  0  0  0  0  0  0  0  0  0
    9.6758  -17.1472   23.9440 C   0  0  2  0  0  0  0  0  0  0  0  0
    9.6510  -16.5284   22.6329 N   0  0  0  0  0  0  0  0  0  0  0  0
   10.1212  -16.1333   24.9123 C   0  0  0  0  0  0  0  0  0  0  0  0
   10.3577  -14.9739   24.5387 O   0  0  0  0  0  0  0  0  0  0  0  0
   10.2808  -16.4740   26.2661 N   0  0  0  0  0  0  0  0  0  0  0  0
   10.4731  -15.4278   27.2360 C   0  0  1  0  0  0  0  0  0  0  0  0
    9.2802  -14.4922   27.2993 C   0  0  0  0  0  0  0  0  0  0  0  0
    9.6283  -13.2708   28.5945 S   0  0  0  0  0  0  0  0  0  0  0  0
   10.7665  -16.0382   28.5423 C   0  0  0  0  0  0  0  0  0  0  0  0
   10.3727  -17.1863   28.8766 O   0  0  0  0  0  0  0  0  0  0  0  0
   11.5130  -15.3265   29.4627 O   0  0  0  0  0  0  0  0  0  0  0  0
  2  3  1  0
  2  1  1  0
  3  5  1  0
  3  4  1  1
  5  6  1  6
  5  7  1  0
  7  8  2  0
 10  9  1  0
 11 10  1  6
 12  7  1  0
 12 11  1  0
 13 15  1  0
 13 11  1  0
 14 13  2  0
 16 19  1  0
 16 17  1  1
 16 15  1  0
 18 17  1  0
 19 21  1  0
 20 19  2  0
M  END
$$$$
