ISC.pdb
     RDKit          3D

 21 20  0  0  1  0  0  0  0  0999 V2000
    5.9206  -11.0655   26.4453 C   0  0  0  0  0  0  0  0  0  0  0  0
    5.6795  -12.3544   25.7323 C   0  0  0  0  0  0  0  0  0  0  0  0
    6.9228  -13.2168   25.6525 C   0  0  2  0  0  0  0  0  0  0  0  0
    7.9978  -12.5408   24.8487 C   0  0  0  0  0  0  0  0  0  0  0  0
    6.5155  -14.5421   25.0143 C   0  0  2  0  0  0  0  0  0  0  0  0
    5.4038  -15.0507   25.7595 N   0  0  0  0  0  0  0  0  0  0  0  0
    7.6275  -15.5192   25.0364 C   0  0  0  0  0  0  0  0  0  0  0  0
    7.8968  -16.2147   26.0496 O   0  0  0  0  0  0  0  0  0  0  0  0
   10.5999  -15.6066   22.0710 O   0  0  0  0  0  0  0  0  0  0  0  0
   10.1676  -16.8411   22.5512 C   0  0  0  0  0  0  0  0  0  0  0  0
    9.5035  -16.6933   23.9083 C   0  0  2  0  0  0  0  0  0  0  0  0
    8.4455  -15.7024   23.8763 N   0  0  0  0  0  0  0  0  0  0  0  0
   10.5386  -16.2172   24.8389 C   0  0  0  0  0  0  0  0  0  0  0  0
   11.1429  -15.1574   24.6121 O   0  0  0  0  0  0  0  0  0  0  0  0
   10.8477  -16.9616   25.9898 N   0  0  0  0  0  0  0  0  0  0  0  0
   11.9078  -16.5120   26.8537 C   0  0  1  0  0  0  0  0  0  0  0  0
   11.5563  -15.2076   27.5446 C   0  0  0  0  0  0  0  0  0  0  0  0
   10.0439  -15.5017   28.5021 S   0  0  0  0  0  0  0  0  0  0  0  0
   12.2224  -17.5798   27.8160 C   0  0  0  0  0  0  0  0  0  0  0  0
   11.6008  -18.6733   27.8679 O   0  0  0  0  0  0  0  0  0  0  0  0
   13.2523  -17.3879   28.7178 O   0  0  0  0  0  0  0  0  0  0  0  0
  2  3  1  0
  2  1  1  0
  3  5  1  0
  3  4  1  6
  5  6  1  1
  5  7  1  0
  7  8  2  0
 10  9  1  0
 11 10  1  6
 12  7  1  0
 12 11  1  0
 13 15  1  0
 13 11  1  0
 14 13  2  0
 16 19  1  0
 16 17  1  1
 16 15  1  0
 18 17  1  0
 19 21  1  0
 20 19  2  0
M  END
$$$$
