TNS.pdb
     RDKit          3D

 22 21  0  0  1  0  0  0  0  0999 V2000
   13.6581   -8.8440  -12.1934 C   0  0  0  0  0  0  0  0  0  0  0  0
   15.0510   -8.2753  -12.0732 C   0  0  1  0  0  0  0  0  0  0  0  0
   15.0117   -7.0715  -11.3730 O   0  0  0  0  0  0  0  0  0  0  0  0
   16.0110   -9.2552  -11.4426 C   0  0  2  0  0  0  0  0  0  0  0  0
   15.6198   -9.5199  -10.0979 N   0  0  0  0  0  0  0  0  0  0  0  0
   17.4199   -8.7421  -11.5033 C   0  0  0  0  0  0  0  0  0  0  0  0
   17.9545   -8.2445  -10.4825 O   0  0  0  0  0  0  0  0  0  0  0  0
   22.3857   -9.4198  -14.9922 N   0  0  0  0  0  0  0  0  0  0  0  0
   21.6497   -9.0858  -13.8325 C   0  0  0  0  0  0  0  0  0  0  0  0
   22.2507   -8.3934  -12.9426 O   0  0  0  0  0  0  0  0  0  0  0  0
   20.2447   -9.5393  -13.6948 C   0  0  0  0  0  0  0  0  0  0  0  0
   19.4613   -8.4282  -13.0026 C   0  0  2  0  0  0  0  0  0  0  0  0
   18.0881   -8.8441  -12.7209 N   0  0  0  0  0  0  0  0  0  0  0  0
   19.4538   -7.1915  -13.7806 C   0  0  0  0  0  0  0  0  0  0  0  0
   18.6812   -7.0935  -14.7940 O   0  0  0  0  0  0  0  0  0  0  0  0
   20.9580   -2.6599  -14.6112 O   0  0  0  0  0  0  0  0  0  0  0  0
   21.0548   -3.7656  -13.7871 C   0  0  0  0  0  0  0  0  0  0  0  0
   20.2629   -4.9174  -14.3806 C   0  0  2  0  0  0  0  0  0  0  0  0
   20.2545   -6.0597  -13.4966 N   0  0  0  0  0  0  0  0  0  0  0  0
   20.8277   -5.2740  -15.7068 C   0  0  0  0  0  0  0  0  0  0  0  0
   20.2730   -4.7128  -16.8477 O   0  0  0  0  0  0  0  0  0  0  0  0
   21.7930   -6.0665  -15.8478 O   0  0  0  0  0  0  0  0  0  0  0  0
  2  4  1  0
  2  1  1  1
  3  2  1  0
  4  6  1  0
  4  5  1  1
  6 13  1  0
  6  7  2  0
  9  8  1  0
  9 11  1  0
 10  9  2  0
 12 11  1  6
 12 14  1  0
 13 12  1  0
 14 19  1  0
 14 15  2  0
 16 17  1  0
 18 17  1  1
 18 20  1  0
 19 18  1  0
 20 21  1  0
 22 20  2  0
M  END
$$$$
