TNS.pdb
     RDKit          3D

 22 21  0  0  1  0  0  0  0  0999 V2000
   14.7701  -11.1380  -10.6369 C   0  0  0  0  0  0  0  0  0  0  0  0
   13.3685  -11.0512  -10.0837 C   0  0  1  0  0  0  0  0  0  0  0  0
   12.9270  -12.3195   -9.7131 O   0  0  0  0  0  0  0  0  0  0  0  0
   13.2703  -10.0710   -8.9396 C   0  0  2  0  0  0  0  0  0  0  0  0
   11.9427  -10.0624   -8.4213 N   0  0  0  0  0  0  0  0  0  0  0  0
   13.6893   -8.6964   -9.3721 C   0  0  0  0  0  0  0  0  0  0  0  0
   12.8479   -7.9069   -9.8664 O   0  0  0  0  0  0  0  0  0  0  0  0
   16.7559   -4.8308  -10.4778 N   0  0  0  0  0  0  0  0  0  0  0  0
   16.6766   -4.9967   -9.0762 C   0  0  0  0  0  0  0  0  0  0  0  0
   17.0882   -4.0275   -8.3525 O   0  0  0  0  0  0  0  0  0  0  0  0
   16.1335   -6.2560   -8.5123 C   0  0  0  0  0  0  0  0  0  0  0  0
   15.6832   -7.1327   -9.6767 C   0  0  2  0  0  0  0  0  0  0  0  0
   15.0272   -8.3498   -9.2010 N   0  0  0  0  0  0  0  0  0  0  0  0
   16.7898   -7.4819  -10.5645 C   0  0  0  0  0  0  0  0  0  0  0  0
   17.9038   -7.8540  -10.0605 O   0  0  0  0  0  0  0  0  0  0  0  0
   16.9592   -9.9285  -13.3057 O   0  0  0  0  0  0  0  0  0  0  0  0
   17.4951   -8.7871  -13.8722 C   0  0  0  0  0  0  0  0  0  0  0  0
   17.8742   -7.8028  -12.7798 C   0  0  2  0  0  0  0  0  0  0  0  0
   16.7286   -7.4412  -11.9777 N   0  0  0  0  0  0  0  0  0  0  0  0
   18.4972   -6.6016  -13.3912 C   0  0  0  0  0  0  0  0  0  0  0  0
   19.8512   -6.6247  -13.6920 O   0  0  0  0  0  0  0  0  0  0  0  0
   17.8519   -5.5550  -13.6524 O   0  0  0  0  0  0  0  0  0  0  0  0
  2  4  1  0
  2  1  1  1
  3  2  1  0
  4  6  1  0
  4  5  1  6
  6 13  1  0
  6  7  2  0
  9  8  1  0
  9 11  1  0
 10  9  2  0
 12 11  1  1
 12 14  1  0
 13 12  1  0
 14 19  1  0
 14 15  2  0
 16 17  1  0
 18 17  1  6
 18 20  1  0
 19 18  1  0
 20 21  1  0
 22 20  2  0
M  END
$$$$
