TNS.pdb
     RDKit          3D

 22 21  0  0  1  0  0  0  0  0999 V2000
   18.6380   -8.9461  -13.8886 C   0  0  0  0  0  0  0  0  0  0  0  0
   18.2743   -9.9809  -14.9254 C   0  0  1  0  0  0  0  0  0  0  0  0
   18.7247  -11.2354  -14.5200 O   0  0  0  0  0  0  0  0  0  0  0  0
   16.7940   -9.9899  -15.2224 C   0  0  2  0  0  0  0  0  0  0  0  0
   16.4825  -11.0678  -16.1012 N   0  0  0  0  0  0  0  0  0  0  0  0
   16.3541   -8.6773  -15.8017 C   0  0  0  0  0  0  0  0  0  0  0  0
   16.4525   -8.4677  -17.0354 O   0  0  0  0  0  0  0  0  0  0  0  0
   13.5126   -7.6050  -16.8591 N   0  0  0  0  0  0  0  0  0  0  0  0
   12.9662   -6.9770  -15.7166 C   0  0  0  0  0  0  0  0  0  0  0  0
   11.7003   -7.0535  -15.5612 O   0  0  0  0  0  0  0  0  0  0  0  0
   13.8585   -6.2708  -14.7658 C   0  0  0  0  0  0  0  0  0  0  0  0
   15.2901   -6.4189  -15.2715 C   0  0  2  0  0  0  0  0  0  0  0  0
   15.8432   -7.7264  -14.9218 N   0  0  0  0  0  0  0  0  0  0  0  0
   16.1647   -5.3616  -14.7695 C   0  0  0  0  0  0  0  0  0  0  0  0
   16.4505   -5.3235  -13.5243 O   0  0  0  0  0  0  0  0  0  0  0  0
   17.9050   -2.3546  -17.1276 O   0  0  0  0  0  0  0  0  0  0  0  0
   18.5894   -2.8087  -16.0157 C   0  0  0  0  0  0  0  0  0  0  0  0
   17.6045   -3.3457  -14.9922 C   0  0  2  0  0  0  0  0  0  0  0  0
   16.7384   -4.3463  -15.5712 N   0  0  0  0  0  0  0  0  0  0  0  0
   16.8163   -2.2212  -14.4272 C   0  0  0  0  0  0  0  0  0  0  0  0
   17.4691   -1.2474  -13.6857 O   0  0  0  0  0  0  0  0  0  0  0  0
   15.5752   -2.1070  -14.5897 O   0  0  0  0  0  0  0  0  0  0  0  0
  2  4  1  0
  2  1  1  1
  3  2  1  0
  4  6  1  0
  4  5  1  6
  6 13  1  0
  6  7  2  0
  9  8  1  0
  9 11  1  0
 10  9  2  0
 12 11  1  1
 12 14  1  0
 13 12  1  0
 14 19  1  0
 14 15  2  0
 16 17  1  0
 18 17  1  6
 18 20  1  0
 19 18  1  0
 20 21  1  0
 22 20  2  0
M  END
$$$$
