TNS.pdb
     RDKit          3D

 22 21  0  0  1  0  0  0  0  0999 V2000
   17.6551   -8.1550  -17.6124 C   0  0  0  0  0  0  0  0  0  0  0  0
   17.3242   -9.3912  -16.8121 C   0  0  1  0  0  0  0  0  0  0  0  0
   16.9593  -10.4264  -17.6701 O   0  0  0  0  0  0  0  0  0  0  0  0
   18.4575   -9.7966  -15.9006 C   0  0  2  0  0  0  0  0  0  0  0  0
   18.1303  -11.0116  -15.2314 N   0  0  0  0  0  0  0  0  0  0  0  0
   18.7725   -8.7073  -14.9176 C   0  0  0  0  0  0  0  0  0  0  0  0
   17.9426   -8.4026  -14.0266 O   0  0  0  0  0  0  0  0  0  0  0  0
   21.8131   -5.8323  -11.6465 N   0  0  0  0  0  0  0  0  0  0  0  0
   22.2267   -5.8638  -12.9979 C   0  0  0  0  0  0  0  0  0  0  0  0
   22.8795   -4.8537  -13.4292 O   0  0  0  0  0  0  0  0  0  0  0  0
   21.8963   -7.0366  -13.8431 C   0  0  0  0  0  0  0  0  0  0  0  0
   20.4515   -6.8842  -14.3086 C   0  0  2  0  0  0  0  0  0  0  0  0
   20.0032   -8.0673  -15.0414 N   0  0  0  0  0  0  0  0  0  0  0  0
   20.2595   -5.6914  -15.1301 C   0  0  0  0  0  0  0  0  0  0  0  0
   20.7483   -5.6583  -16.3105 O   0  0  0  0  0  0  0  0  0  0  0  0
   17.0152   -3.7521  -15.4888 O   0  0  0  0  0  0  0  0  0  0  0  0
   17.9990   -2.7836  -15.4175 C   0  0  0  0  0  0  0  0  0  0  0  0
   19.3622   -3.4230  -15.6155 C   0  0  2  0  0  0  0  0  0  0  0  0
   19.5564   -4.5355  -14.7149 N   0  0  0  0  0  0  0  0  0  0  0  0
   20.4204   -2.3976  -15.4318 C   0  0  0  0  0  0  0  0  0  0  0  0
   20.4006   -1.2600  -16.2254 O   0  0  0  0  0  0  0  0  0  0  0  0
   21.3418   -2.5107  -14.5845 O   0  0  0  0  0  0  0  0  0  0  0  0
  2  4  1  0
  2  1  1  6
  3  2  1  0
  4  6  1  0
  4  5  1  1
  6 13  1  0
  6  7  2  0
  9  8  1  0
  9 11  1  0
 10  9  2  0
 12 11  1  6
 12 14  1  0
 13 12  1  0
 14 19  1  0
 14 15  2  0
 16 17  1  0
 18 17  1  1
 18 20  1  0
 19 18  1  0
 20 21  1  0
 22 20  2  0
M  END
$$$$
