TNS.pdb
     RDKit          3D

 22 21  0  0  1  0  0  0  0  0999 V2000
   21.0248  -11.2093  -16.5865 C   0  0  0  0  0  0  0  0  0  0  0  0
   19.6389  -11.7157  -16.9043 C   0  0  1  0  0  0  0  0  0  0  0  0
   19.7127  -13.0144  -17.4032 O   0  0  0  0  0  0  0  0  0  0  0  0
   18.7162  -11.6285  -15.7124 C   0  0  2  0  0  0  0  0  0  0  0  0
   17.4985  -12.3145  -15.9910 N   0  0  0  0  0  0  0  0  0  0  0  0
   18.4563  -10.1989  -15.3374 C   0  0  0  0  0  0  0  0  0  0  0  0
   17.8868   -9.4278  -16.1477 O   0  0  0  0  0  0  0  0  0  0  0  0
   16.8066   -9.7123  -10.7001 N   0  0  0  0  0  0  0  0  0  0  0  0
   17.1250   -8.8860  -11.8020 C   0  0  0  0  0  0  0  0  0  0  0  0
   16.1620   -8.5443  -12.5691 O   0  0  0  0  0  0  0  0  0  0  0  0
   18.5276   -8.4580  -12.0218 C   0  0  0  0  0  0  0  0  0  0  0  0
   18.7764   -8.4290  -13.5266 C   0  0  2  0  0  0  0  0  0  0  0  0
   18.8693   -9.7814  -14.0745 N   0  0  0  0  0  0  0  0  0  0  0  0
   19.9768   -7.6715  -13.8729 C   0  0  0  0  0  0  0  0  0  0  0  0
   21.1192   -8.0993  -13.4916 O   0  0  0  0  0  0  0  0  0  0  0  0
   22.2130   -4.1396  -16.3189 O   0  0  0  0  0  0  0  0  0  0  0  0
   21.0171   -4.7806  -16.0540 C   0  0  0  0  0  0  0  0  0  0  0  0
   21.2194   -5.8080  -14.9542 C   0  0  2  0  0  0  0  0  0  0  0  0
   19.9795   -6.4680  -14.6173 N   0  0  0  0  0  0  0  0  0  0  0  0
   21.8121   -5.1474  -13.7637 C   0  0  0  0  0  0  0  0  0  0  0  0
   23.1866   -5.1941  -13.5824 O   0  0  0  0  0  0  0  0  0  0  0  0
   21.1232   -4.5421  -12.9042 O   0  0  0  0  0  0  0  0  0  0  0  0
  2  4  1  0
  2  1  1  1
  3  2  1  0
  4  6  1  0
  4  5  1  6
  6 13  1  0
  6  7  2  0
  9  8  1  0
  9 11  1  0
 10  9  2  0
 12 11  1  1
 12 14  1  0
 13 12  1  0
 14 19  1  0
 14 15  2  0
 16 17  1  0
 18 17  1  6
 18 20  1  0
 19 18  1  0
 20 21  1  0
 22 20  2  0
M  END
$$$$
