IEV.pdb
     RDKit          3D

 25 24  0  0  1  0  0  0  0  0999 V2000
    7.5017  -11.8345   18.7254 C   0  0  0  0  0  0  0  0  0  0  0  0
    7.8467  -13.3070   18.7625 C   0  0  0  0  0  0  0  0  0  0  0  0
    7.7320  -13.8417   20.1532 C   0  0  2  0  0  0  0  0  0  0  0  0
    8.6568  -13.0364   21.0424 C   0  0  0  0  0  0  0  0  0  0  0  0
    8.0111  -15.3250   20.2623 C   0  0  2  0  0  0  0  0  0  0  0  0
    7.0823  -16.0661   19.4334 N   0  0  0  0  0  0  0  0  0  0  0  0
    7.9216  -15.8199   21.6421 C   0  0  0  0  0  0  0  0  0  0  0  0
    6.8108  -16.0683   22.2112 O   0  0  0  0  0  0  0  0  0  0  0  0
    9.1030  -16.0368   22.3883 N   0  0  0  0  0  0  0  0  0  0  0  0
    9.0276  -16.5121   23.7622 C   0  0  1  0  0  0  0  0  0  0  0  0
   10.0083  -17.6420   23.8726 C   0  0  0  0  0  0  0  0  0  0  0  0
   10.2014  -18.1829   25.2491 C   0  0  0  0  0  0  0  0  0  0  0  0
   11.1461  -19.3328   25.2463 C   0  0  0  0  0  0  0  0  0  0  0  0
   12.2645  -19.1706   25.7965 O   0  0  0  0  0  0  0  0  0  0  0  0
    9.3076  -15.4019   24.7009 C   0  0  0  0  0  0  0  0  0  0  0  0
   10.3965  -14.8023   24.6895 O   0  0  0  0  0  0  0  0  0  0  0  0
   10.8282  -20.5510   24.6641 O   0  0  0  0  0  0  0  0  0  0  0  0
    6.2874  -13.6945   27.0916 C   0  0  0  0  0  0  0  0  0  0  0  0
    7.6444  -13.0162   26.9890 C   0  0  2  0  0  0  0  0  0  0  0  0
    7.5731  -12.0885   25.7995 C   0  0  0  0  0  0  0  0  0  0  0  0
    8.7395  -14.0234   26.7099 C   0  0  2  0  0  0  0  0  0  0  0  0
    8.3513  -14.9569   25.6681 N   0  0  0  0  0  0  0  0  0  0  0  0
    8.9996  -14.7910   27.9382 C   0  0  0  0  0  0  0  0  0  0  0  0
    9.5353  -14.1623   29.0398 O   0  0  0  0  0  0  0  0  0  0  0  0
    8.7389  -16.0060   27.9889 O   0  0  0  0  0  0  0  0  0  0  0  0
  2  1  1  0
  3  2  1  0
  3  4  1  1
  5  3  1  0
  5  6  1  6
  7  9  1  0
  7  5  1  0
  8  7  2  0
 10  9  1  0
 10 11  1  6
 12 11  1  0
 13 14  2  0
 13 12  1  0
 15 16  2  0
 15 10  1  0
 17 13  1  0
 19 18  1  6
 20 19  1  0
 21 22  1  6
 21 19  1  0
 22 15  1  0
 23 21  1  0
 24 23  1  0
 25 23  2  0
M  END
$$$$
