IEV.pdb
     RDKit          3D

 25 24  0  0  1  0  0  0  0  0999 V2000
    7.1431  -11.9502   19.0310 C   0  0  0  0  0  0  0  0  0  0  0  0
    7.4700  -13.4248   19.1168 C   0  0  0  0  0  0  0  0  0  0  0  0
    7.5640  -13.8630   20.5423 C   0  0  2  0  0  0  0  0  0  0  0  0
    8.6935  -13.0936   21.1954 C   0  0  0  0  0  0  0  0  0  0  0  0
    7.7402  -15.3564   20.7118 C   0  0  2  0  0  0  0  0  0  0  0  0
    6.6227  -16.0582   20.1137 N   0  0  0  0  0  0  0  0  0  0  0  0
    7.8599  -15.7581   22.1193 C   0  0  0  0  0  0  0  0  0  0  0  0
    6.8559  -15.8424   22.8966 O   0  0  0  0  0  0  0  0  0  0  0  0
    9.1312  -16.0686   22.6552 N   0  0  0  0  0  0  0  0  0  0  0  0
    9.2548  -16.5454   24.0251 C   0  0  1  0  0  0  0  0  0  0  0  0
   10.2955  -17.6258   24.0039 C   0  0  0  0  0  0  0  0  0  0  0  0
   10.5906  -18.2490   25.3265 C   0  0  0  0  0  0  0  0  0  0  0  0
   11.6240  -19.3125   25.2000 C   0  0  0  0  0  0  0  0  0  0  0  0
   11.2438  -20.4561   24.8430 O   0  0  0  0  0  0  0  0  0  0  0  0
    9.5978  -15.4217   24.9261 C   0  0  0  0  0  0  0  0  0  0  0  0
   10.5146  -14.6281   24.6527 O   0  0  0  0  0  0  0  0  0  0  0  0
   12.9656  -19.0762   25.4610 O   0  0  0  0  0  0  0  0  0  0  0  0
    6.9176  -13.8304   27.7002 C   0  0  0  0  0  0  0  0  0  0  0  0
    8.1930  -13.1212   27.2731 C   0  0  2  0  0  0  0  0  0  0  0  0
    7.8937  -12.4568   25.9503 C   0  0  0  0  0  0  0  0  0  0  0  0
    9.3154  -14.1092   27.0372 C   0  0  2  0  0  0  0  0  0  0  0  0
    8.9015  -15.1841   26.1536 N   0  0  0  0  0  0  0  0  0  0  0  0
    9.7026  -14.7013   28.3276 C   0  0  0  0  0  0  0  0  0  0  0  0
   10.3025  -13.9192   29.2890 O   0  0  0  0  0  0  0  0  0  0  0  0
    9.4918  -15.9053   28.5569 O   0  0  0  0  0  0  0  0  0  0  0  0
  2  1  1  0
  3  2  1  0
  3  4  1  6
  5  3  1  0
  5  6  1  1
  7  9  1  0
  7  5  1  0
  8  7  2  0
 10  9  1  0
 10 11  1  6
 12 11  1  0
 13 14  2  0
 13 12  1  0
 15 16  2  0
 15 10  1  0
 17 13  1  0
 19 18  1  6
 20 19  1  0
 21 22  1  6
 21 19  1  0
 22 15  1  0
 23 21  1  0
 24 23  1  0
 25 23  2  0
M  END
$$$$
