IEV.pdb
     RDKit          3D

 25 24  0  0  1  0  0  0  0  0999 V2000
    7.3299  -11.7816   18.6904 C   0  0  0  0  0  0  0  0  0  0  0  0
    7.7871  -13.2233   18.7233 C   0  0  0  0  0  0  0  0  0  0  0  0
    7.7460  -13.7589   20.1177 C   0  0  2  0  0  0  0  0  0  0  0  0
    8.6389  -12.8905   20.9796 C   0  0  0  0  0  0  0  0  0  0  0  0
    8.1261  -15.2199   20.2223 C   0  0  2  0  0  0  0  0  0  0  0  0
    7.2327  -16.0234   19.4127 N   0  0  0  0  0  0  0  0  0  0  0  0
    8.0975  -15.7169   21.6039 C   0  0  0  0  0  0  0  0  0  0  0  0
    7.0129  -15.9202   22.2377 O   0  0  0  0  0  0  0  0  0  0  0  0
    9.3108  -15.9877   22.2779 N   0  0  0  0  0  0  0  0  0  0  0  0
    9.2963  -16.4860   23.6457 C   0  0  1  0  0  0  0  0  0  0  0  0
   10.4051  -17.4921   23.7404 C   0  0  0  0  0  0  0  0  0  0  0  0
   10.5751  -18.1253   25.0800 C   0  0  0  0  0  0  0  0  0  0  0  0
   11.6637  -19.1399   25.0598 C   0  0  0  0  0  0  0  0  0  0  0  0
   11.7953  -19.8749   26.0710 O   0  0  0  0  0  0  0  0  0  0  0  0
    9.4444  -15.3623   24.5984 C   0  0  0  0  0  0  0  0  0  0  0  0
   10.3848  -14.5544   24.5068 O   0  0  0  0  0  0  0  0  0  0  0  0
   12.5165  -19.2896   23.9762 O   0  0  0  0  0  0  0  0  0  0  0  0
    6.3012  -14.1338   27.1182 C   0  0  0  0  0  0  0  0  0  0  0  0
    7.5096  -13.2490   26.8558 C   0  0  2  0  0  0  0  0  0  0  0  0
    7.2281  -12.5055   25.5717 C   0  0  0  0  0  0  0  0  0  0  0  0
    8.7563  -14.0782   26.6322 C   0  0  2  0  0  0  0  0  0  0  0  0
    8.5234  -15.1410   25.6711 N   0  0  0  0  0  0  0  0  0  0  0  0
    9.1490  -14.6946   27.9095 C   0  0  0  0  0  0  0  0  0  0  0  0
    9.5849  -13.9027   28.9482 O   0  0  0  0  0  0  0  0  0  0  0  0
    9.0902  -15.9279   28.0583 O   0  0  0  0  0  0  0  0  0  0  0  0
  2  1  1  0
  3  2  1  0
  3  4  1  1
  5  3  1  0
  5  6  1  6
  7  9  1  0
  7  5  1  0
  8  7  2  0
 10  9  1  0
 10 11  1  6
 12 11  1  0
 13 14  2  0
 13 12  1  0
 15 16  2  0
 15 10  1  0
 17 13  1  0
 19 18  1  6
 20 19  1  0
 21 22  1  6
 21 19  1  0
 22 15  1  0
 23 21  1  0
 24 23  1  0
 25 23  2  0
M  END
$$$$
