IEV.pdb
     RDKit          3D

 25 24  0  0  1  0  0  0  0  0999 V2000
    7.3127  -11.9433   19.5734 C   0  0  0  0  0  0  0  0  0  0  0  0
    7.8459  -13.3501   19.4152 C   0  0  0  0  0  0  0  0  0  0  0  0
    7.9560  -14.0260   20.7434 C   0  0  2  0  0  0  0  0  0  0  0  0
    8.8773  -13.1981   21.6153 C   0  0  0  0  0  0  0  0  0  0  0  0
    8.4168  -15.4649   20.6602 C   0  0  2  0  0  0  0  0  0  0  0  0
    7.5104  -16.2280   19.8265 N   0  0  0  0  0  0  0  0  0  0  0  0
    8.5122  -16.1079   21.9771 C   0  0  0  0  0  0  0  0  0  0  0  0
    7.5135  -16.6500   22.5499 O   0  0  0  0  0  0  0  0  0  0  0  0
    9.7527  -16.1386   22.6553 N   0  0  0  0  0  0  0  0  0  0  0  0
    9.8852  -16.8603   23.9127 C   0  0  1  0  0  0  0  0  0  0  0  0
   10.8054  -18.0139   23.6425 C   0  0  0  0  0  0  0  0  0  0  0  0
   11.1882  -18.8148   24.8410 C   0  0  0  0  0  0  0  0  0  0  0  0
   12.1523  -19.8904   24.4822 C   0  0  0  0  0  0  0  0  0  0  0  0
   12.5211  -20.6719   25.3950 O   0  0  0  0  0  0  0  0  0  0  0  0
   10.3825  -15.9520   24.9709 C   0  0  0  0  0  0  0  0  0  0  0  0
   11.3790  -15.2310   24.7908 O   0  0  0  0  0  0  0  0  0  0  0  0
   12.6417  -20.0466   23.1938 O   0  0  0  0  0  0  0  0  0  0  0  0
    8.0812  -14.7331   28.4069 C   0  0  0  0  0  0  0  0  0  0  0  0
    9.2601  -14.0016   27.7849 C   0  0  2  0  0  0  0  0  0  0  0  0
    8.7199  -13.2520   26.5903 C   0  0  0  0  0  0  0  0  0  0  0  0
   10.2997  -14.9758   27.2730 C   0  0  2  0  0  0  0  0  0  0  0  0
    9.7523  -15.8505   26.2517 N   0  0  0  0  0  0  0  0  0  0  0  0
   10.7564  -15.8119   28.3945 C   0  0  0  0  0  0  0  0  0  0  0  0
   11.4958  -15.2511   29.4118 O   0  0  0  0  0  0  0  0  0  0  0  0
   10.4794  -17.0238   28.4306 O   0  0  0  0  0  0  0  0  0  0  0  0
  2  1  1  0
  3  2  1  0
  3  4  1  1
  5  3  1  0
  5  6  1  6
  7  9  1  0
  7  5  1  0
  8  7  2  0
 10  9  1  0
 10 11  1  6
 12 11  1  0
 13 14  2  0
 13 12  1  0
 15 16  2  0
 15 10  1  0
 17 13  1  0
 19 18  1  6
 20 19  1  0
 21 22  1  6
 21 19  1  0
 22 15  1  0
 23 21  1  0
 24 23  1  0
 25 23  2  0
M  END
$$$$
