IEV.pdb
     RDKit          3D

 25 24  0  0  1  0  0  0  0  0999 V2000
    7.8938  -11.8594   20.1058 C   0  0  0  0  0  0  0  0  0  0  0  0
    7.3956  -13.2587   20.3925 C   0  0  0  0  0  0  0  0  0  0  0  0
    8.3771  -14.2778   19.9118 C   0  0  2  0  0  0  0  0  0  0  0  0
    8.5676  -14.0785   18.4223 C   0  0  0  0  0  0  0  0  0  0  0  0
    7.9850  -15.7033   20.2344 C   0  0  2  0  0  0  0  0  0  0  0  0
    6.7363  -16.0342   19.5784 N   0  0  0  0  0  0  0  0  0  0  0  0
    7.8459  -15.9417   21.6768 C   0  0  0  0  0  0  0  0  0  0  0  0
    6.7306  -15.8507   22.2829 O   0  0  0  0  0  0  0  0  0  0  0  0
    8.9823  -16.2874   22.4441 N   0  0  0  0  0  0  0  0  0  0  0  0
    8.8478  -16.5885   23.8621 C   0  0  1  0  0  0  0  0  0  0  0  0
    9.7821  -17.7283   24.1422 C   0  0  0  0  0  0  0  0  0  0  0  0
    9.8772  -18.1340   25.5744 C   0  0  0  0  0  0  0  0  0  0  0  0
   10.8741  -19.2236   25.7585 C   0  0  0  0  0  0  0  0  0  0  0  0
   12.0457  -18.8955   26.0743 O   0  0  0  0  0  0  0  0  0  0  0  0
    9.1402  -15.3818   24.6687 C   0  0  0  0  0  0  0  0  0  0  0  0
   10.1617  -14.7017   24.4708 O   0  0  0  0  0  0  0  0  0  0  0  0
   10.5477  -20.5615   25.5935 O   0  0  0  0  0  0  0  0  0  0  0  0
    6.2302  -13.4567   27.0811 C   0  0  0  0  0  0  0  0  0  0  0  0
    7.5296  -12.7921   26.6547 C   0  0  2  0  0  0  0  0  0  0  0  0
    7.2936  -12.2333   25.2716 C   0  0  0  0  0  0  0  0  0  0  0  0
    8.6512  -13.8031   26.5468 C   0  0  2  0  0  0  0  0  0  0  0  0
    8.2732  -14.9305   25.7140 N   0  0  0  0  0  0  0  0  0  0  0  0
    8.9598  -14.3117   27.8928 C   0  0  0  0  0  0  0  0  0  0  0  0
    9.4963  -13.4676   28.8390 O   0  0  0  0  0  0  0  0  0  0  0  0
    8.7394  -15.5009   28.1827 O   0  0  0  0  0  0  0  0  0  0  0  0
  2  1  1  0
  3  2  1  0
  3  4  1  6
  5  3  1  0
  5  6  1  6
  7  9  1  0
  7  5  1  0
  8  7  2  0
 10  9  1  0
 10 11  1  1
 12 11  1  0
 13 14  2  0
 13 12  1  0
 15 16  2  0
 15 10  1  0
 17 13  1  0
 19 18  1  6
 20 19  1  0
 21 22  1  6
 21 19  1  0
 22 15  1  0
 23 21  1  0
 24 23  1  0
 25 23  2  0
M  END
$$$$
