IEV.pdb
     RDKit          3D

 25 24  0  0  1  0  0  0  0  0999 V2000
    7.3479  -11.7995   18.7114 C   0  0  0  0  0  0  0  0  0  0  0  0
    7.7942  -13.2447   18.7393 C   0  0  0  0  0  0  0  0  0  0  0  0
    7.6477  -13.8164   20.1122 C   0  0  2  0  0  0  0  0  0  0  0  0
    8.4736  -12.9730   21.0614 C   0  0  0  0  0  0  0  0  0  0  0  0
    8.0179  -15.2806   20.2068 C   0  0  2  0  0  0  0  0  0  0  0  0
    7.1488  -16.0674   19.3555 N   0  0  0  0  0  0  0  0  0  0  0  0
    7.9411  -15.7985   21.5789 C   0  0  0  0  0  0  0  0  0  0  0  0
    6.8349  -16.0183   22.1684 O   0  0  0  0  0  0  0  0  0  0  0  0
    9.1301  -16.0715   22.2940 N   0  0  0  0  0  0  0  0  0  0  0  0
    9.0687  -16.5306   23.6741 C   0  0  1  0  0  0  0  0  0  0  0  0
   10.0645  -17.6464   23.7927 C   0  0  0  0  0  0  0  0  0  0  0  0
   10.2070  -18.2276   25.1588 C   0  0  0  0  0  0  0  0  0  0  0  0
   11.2800  -19.2583   25.1944 C   0  0  0  0  0  0  0  0  0  0  0  0
   12.1782  -19.1358   26.0651 O   0  0  0  0  0  0  0  0  0  0  0  0
    9.3397  -15.4053   24.5974 C   0  0  0  0  0  0  0  0  0  0  0  0
   10.3718  -14.7196   24.4984 O   0  0  0  0  0  0  0  0  0  0  0  0
   11.3110  -20.3259   24.3095 O   0  0  0  0  0  0  0  0  0  0  0  0
    6.3310  -13.7536   27.0771 C   0  0  0  0  0  0  0  0  0  0  0  0
    7.6125  -13.0084   26.7388 C   0  0  2  0  0  0  0  0  0  0  0  0
    7.3801  -12.3350   25.4072 C   0  0  0  0  0  0  0  0  0  0  0  0
    8.7718  -13.9659   26.5633 C   0  0  2  0  0  0  0  0  0  0  0  0
    8.4388  -15.0430   25.6487 N   0  0  0  0  0  0  0  0  0  0  0  0
    9.0963  -14.5595   27.8702 C   0  0  0  0  0  0  0  0  0  0  0  0
    9.6199  -13.7715   28.8706 O   0  0  0  0  0  0  0  0  0  0  0  0
    8.9011  -15.7700   28.0783 O   0  0  0  0  0  0  0  0  0  0  0  0
  2  1  1  0
  3  2  1  0
  3  4  1  1
  5  3  1  0
  5  6  1  6
  7  9  1  0
  7  5  1  0
  8  7  2  0
 10  9  1  0
 10 11  1  6
 12 11  1  0
 13 14  2  0
 13 12  1  0
 15 16  2  0
 15 10  1  0
 17 13  1  0
 19 18  1  6
 20 19  1  0
 21 22  1  6
 21 19  1  0
 22 15  1  0
 23 21  1  0
 24 23  1  0
 25 23  2  0
M  END
$$$$
