IEV.pdb
     RDKit          3D

 25 24  0  0  1  0  0  0  0  0999 V2000
    7.3346  -11.7407   18.9077 C   0  0  0  0  0  0  0  0  0  0  0  0
    7.7353  -13.1951   18.7958 C   0  0  0  0  0  0  0  0  0  0  0  0
    7.7416  -13.8464   20.1407 C   0  0  2  0  0  0  0  0  0  0  0  0
    8.6836  -13.0666   21.0344 C   0  0  0  0  0  0  0  0  0  0  0  0
    8.1003  -15.3161   20.1060 C   0  0  2  0  0  0  0  0  0  0  0  0
    7.1363  -16.0426   19.3048 N   0  0  0  0  0  0  0  0  0  0  0  0
    8.1612  -15.9178   21.4443 C   0  0  0  0  0  0  0  0  0  0  0  0
    7.1188  -16.2243   22.1068 O   0  0  0  0  0  0  0  0  0  0  0  0
    9.4166  -16.1766   22.0414 N   0  0  0  0  0  0  0  0  0  0  0  0
    9.4920  -16.6802   23.4052 C   0  0  1  0  0  0  0  0  0  0  0  0
   10.6628  -17.6174   23.4452 C   0  0  0  0  0  0  0  0  0  0  0  0
   10.9835  -18.1755   24.7906 C   0  0  0  0  0  0  0  0  0  0  0  0
   10.5084  -19.5803   24.9162 C   0  0  0  0  0  0  0  0  0  0  0  0
    9.4125  -19.7757   25.5000 O   0  0  0  0  0  0  0  0  0  0  0  0
    9.6130  -15.5534   24.3580 C   0  0  0  0  0  0  0  0  0  0  0  0
   10.6037  -14.8025   24.3514 O   0  0  0  0  0  0  0  0  0  0  0  0
   11.2302  -20.6537   24.4156 O   0  0  0  0  0  0  0  0  0  0  0  0
    6.3439  -14.2256   26.7030 C   0  0  0  0  0  0  0  0  0  0  0  0
    7.5793  -13.3642   26.4940 C   0  0  2  0  0  0  0  0  0  0  0  0
    7.3653  -12.6107   25.2028 C   0  0  0  0  0  0  0  0  0  0  0  0
    8.8174  -14.2174   26.3179 C   0  0  2  0  0  0  0  0  0  0  0  0
    8.6071  -15.2638   25.3338 N   0  0  0  0  0  0  0  0  0  0  0  0
    9.1374  -14.8567   27.6041 C   0  0  0  0  0  0  0  0  0  0  0  0
    9.0322  -16.2233   27.7361 O   0  0  0  0  0  0  0  0  0  0  0  0
    9.5028  -14.1707   28.5750 O   0  0  0  0  0  0  0  0  0  0  0  0
  2  1  1  0
  3  2  1  0
  3  4  1  1
  5  3  1  0
  5  6  1  6
  7  9  1  0
  7  5  1  0
  8  7  2  0
 10  9  1  0
 10 11  1  6
 12 11  1  0
 13 14  2  0
 13 12  1  0
 15 16  2  0
 15 10  1  0
 17 13  1  0
 19 18  1  6
 20 19  1  0
 21 22  1  6
 21 19  1  0
 22 15  1  0
 23 21  1  0
 24 23  1  0
 25 23  2  0
M  END
$$$$
