IEV.pdb
     RDKit          3D

 25 24  0  0  1  0  0  0  0  0999 V2000
    8.2235  -11.6449   20.1934 C   0  0  0  0  0  0  0  0  0  0  0  0
    8.8716  -13.0004   20.3694 C   0  0  0  0  0  0  0  0  0  0  0  0
    8.0678  -14.0623   19.6918 C   0  0  2  0  0  0  0  0  0  0  0  0
    6.6495  -13.9835   20.2177 C   0  0  0  0  0  0  0  0  0  0  0  0
    8.6400  -15.4545   19.8478 C   0  0  2  0  0  0  0  0  0  0  0  0
    7.9523  -16.3746   18.9649 N   0  0  0  0  0  0  0  0  0  0  0  0
    8.5495  -15.9548   21.2256 C   0  0  0  0  0  0  0  0  0  0  0  0
    7.4516  -16.3294   21.7488 O   0  0  0  0  0  0  0  0  0  0  0  0
    9.7152  -16.0328   22.0223 N   0  0  0  0  0  0  0  0  0  0  0  0
    9.6505  -16.5863   23.3672 C   0  0  1  0  0  0  0  0  0  0  0  0
   10.7302  -17.6246   23.4490 C   0  0  0  0  0  0  0  0  0  0  0  0
   10.8724  -18.2895   24.7765 C   0  0  0  0  0  0  0  0  0  0  0  0
   11.9493  -19.3164   24.7498 C   0  0  0  0  0  0  0  0  0  0  0  0
   12.2437  -19.8245   23.6385 O   0  0  0  0  0  0  0  0  0  0  0  0
    9.8010  -15.5070   24.3695 C   0  0  0  0  0  0  0  0  0  0  0  0
   10.7341  -14.6880   24.3053 O   0  0  0  0  0  0  0  0  0  0  0  0
   12.6197  -19.7164   25.8963 O   0  0  0  0  0  0  0  0  0  0  0  0
    8.0241  -12.3456   27.6057 C   0  0  0  0  0  0  0  0  0  0  0  0
    7.9423  -13.2966   26.4221 C   0  0  2  0  0  0  0  0  0  0  0  0
    6.6681  -14.0889   26.5938 C   0  0  0  0  0  0  0  0  0  0  0  0
    9.0908  -14.2828   26.4326 C   0  0  2  0  0  0  0  0  0  0  0  0
    8.8907  -15.3432   25.4615 N   0  0  0  0  0  0  0  0  0  0  0  0
    9.1755  -14.8953   27.7679 C   0  0  0  0  0  0  0  0  0  0  0  0
    9.6472  -14.1593   28.8317 O   0  0  0  0  0  0  0  0  0  0  0  0
    8.8236  -16.0752   27.9433 O   0  0  0  0  0  0  0  0  0  0  0  0
  2  1  1  0
  3  2  1  0
  3  4  1  1
  5  3  1  0
  5  6  1  6
  7  9  1  0
  7  5  1  0
  8  7  2  0
 10  9  1  0
 10 11  1  6
 12 11  1  0
 13 14  2  0
 13 12  1  0
 15 16  2  0
 15 10  1  0
 17 13  1  0
 19 18  1  1
 20 19  1  0
 21 22  1  6
 21 19  1  0
 22 15  1  0
 23 21  1  0
 24 23  1  0
 25 23  2  0
M  END
$$$$
