IEV.pdb
     RDKit          3D

 25 24  0  0  1  0  0  0  0  0999 V2000
    7.3134  -13.1366   16.8756 C   0  0  0  0  0  0  0  0  0  0  0  0
    8.4534  -13.5729   17.7693 C   0  0  0  0  0  0  0  0  0  0  0  0
    7.9508  -13.9300   19.1305 C   0  0  2  0  0  0  0  0  0  0  0  0
    7.3142  -12.6949   19.7337 C   0  0  0  0  0  0  0  0  0  0  0  0
    9.0122  -14.5075   20.0415 C   0  0  2  0  0  0  0  0  0  0  0  0
    9.6239  -15.6637   19.4188 N   0  0  0  0  0  0  0  0  0  0  0  0
    8.4833  -14.8950   21.3556 C   0  0  0  0  0  0  0  0  0  0  0  0
    7.8176  -14.0968   22.0899 O   0  0  0  0  0  0  0  0  0  0  0  0
    8.7099  -16.2018   21.8462 N   0  0  0  0  0  0  0  0  0  0  0  0
    8.2632  -16.5735   23.1809 C   0  0  1  0  0  0  0  0  0  0  0  0
    8.8137  -17.9440   23.4441 C   0  0  0  0  0  0  0  0  0  0  0  0
   10.0567  -17.9816   24.2676 C   0  0  0  0  0  0  0  0  0  0  0  0
   10.5016  -19.3819   24.5043 C   0  0  0  0  0  0  0  0  0  0  0  0
   10.3379  -19.8597   25.6552 O   0  0  0  0  0  0  0  0  0  0  0  0
    8.7119  -15.5645   24.1672 C   0  0  0  0  0  0  0  0  0  0  0  0
    9.9005  -15.2066   24.2336 O   0  0  0  0  0  0  0  0  0  0  0  0
   11.0793  -20.1539   23.5071 O   0  0  0  0  0  0  0  0  0  0  0  0
    7.7625  -11.8881   27.3387 C   0  0  0  0  0  0  0  0  0  0  0  0
    7.2693  -12.8825   26.2995 C   0  0  2  0  0  0  0  0  0  0  0  0
    6.0518  -13.5535   26.8896 C   0  0  0  0  0  0  0  0  0  0  0  0
    8.2992  -13.9620   26.0436 C   0  0  2  0  0  0  0  0  0  0  0  0
    7.8133  -14.9469   25.0941 N   0  0  0  0  0  0  0  0  0  0  0  0
    8.5858  -14.6516   27.3116 C   0  0  0  0  0  0  0  0  0  0  0  0
    9.4866  -14.1081   28.1999 O   0  0  0  0  0  0  0  0  0  0  0  0
    8.0196  -15.7240   27.5876 O   0  0  0  0  0  0  0  0  0  0  0  0
  2  1  1  0
  3  2  1  0
  3  4  1  1
  5  3  1  0
  5  6  1  6
  7  9  1  0
  7  5  1  0
  8  7  2  0
 10  9  1  0
 10 11  1  1
 12 11  1  0
 13 14  2  0
 13 12  1  0
 15 16  2  0
 15 10  1  0
 17 13  1  0
 19 18  1  1
 20 19  1  0
 21 22  1  6
 21 19  1  0
 22 15  1  0
 23 21  1  0
 24 23  1  0
 25 23  2  0
M  END
$$$$
