GHH.pdb
     RDKit          3D

 25 26  0  0  1  0  0  0  0  0999 V2000
    8.4109  -19.2464   18.4455 N   0  0  0  0  0  0  0  0  0  0  0  0
    8.4039  -18.7916   19.8112 C   0  0  0  0  0  0  0  0  0  0  0  0
    9.3513  -17.6592   19.9471 C   0  0  0  0  0  0  0  0  0  0  0  0
   10.2777  -17.4625   19.1056 O   0  0  0  0  0  0  0  0  0  0  0  0
    9.2201  -16.7838   21.0327 N   0  0  0  0  0  0  0  0  0  0  0  0
   10.2480  -15.6827   21.1463 C   0  0  1  0  0  0  0  0  0  0  0  0
    9.4281  -14.4338   21.3044 C   0  0  0  0  0  0  0  0  0  0  0  0
    8.6449  -13.9697   20.1697 C   0  0  0  0  0  0  0  0  0  0  0  0
    7.2345  -13.9194   20.1090 C   0  0  0  0  0  0  0  0  0  0  0  0
    6.9186  -13.4377   18.9070 N   0  0  0  0  0  0  0  0  0  0  0  0
    8.0248  -13.1831   18.2119 C   0  0  0  0  0  0  0  0  0  0  0  0
    9.0382  -13.5109   18.9921 N   0  0  0  0  0  0  0  0  0  0  0  0
   11.0119  -16.0916   22.3368 C   0  0  0  0  0  0  0  0  0  0  0  0
   10.3883  -16.2722   23.4417 O   0  0  0  0  0  0  0  0  0  0  0  0
   12.3891  -16.3037   22.3370 N   0  0  0  0  0  0  0  0  0  0  0  0
   13.1228  -16.8048   23.5074 C   0  0  1  0  0  0  0  0  0  0  0  0
   13.9207  -17.9710   23.0289 C   0  0  0  0  0  0  0  0  0  0  0  0
   13.0196  -19.1306   22.8373 C   0  0  0  0  0  0  0  0  0  0  0  0
   11.6390  -19.1370   23.0189 C   0  0  0  0  0  0  0  0  0  0  0  0
   11.2159  -20.3809   22.7383 N   0  0  0  0  0  0  0  0  0  0  0  0
   12.2708  -21.1328   22.3947 C   0  0  0  0  0  0  0  0  0  0  0  0
   13.3677  -20.3631   22.4575 N   0  0  0  0  0  0  0  0  0  0  0  0
   13.8953  -15.7357   24.1470 C   0  0  0  0  0  0  0  0  0  0  0  0
   14.1187  -14.6382   23.5598 O   0  0  0  0  0  0  0  0  0  0  0  0
   14.4095  -15.8861   25.4194 O   0  0  0  0  0  0  0  0  0  0  0  0
  2  1  1  0
  3  2  1  0
  4  3  2  0
  5  3  1  0
  6 13  1  0
  6  5  1  0
  6  7  1  1
  8 12  1  0
  8  7  1  0
  9  8  2  0
 10  9  1  0
 10 11  1  0
 11 12  2  0
 13 15  1  0
 14 13  2  0
 15 16  1  0
 16 17  1  6
 16 23  1  0
 18 17  1  0
 19 18  2  0
 20 19  1  0
 21 20  1  0
 21 22  2  0
 22 18  1  0
 23 24  2  0
 23 25  1  0
M  END
$$$$
