GHH.pdb
     RDKit          3D

 25 26  0  0  1  0  0  0  0  0999 V2000
   13.1695  -17.7917   14.3349 N   0  0  0  0  0  0  0  0  0  0  0  0
   11.9922  -18.1951   15.0582 C   0  0  0  0  0  0  0  0  0  0  0  0
   11.6990  -17.1852   16.1035 C   0  0  0  0  0  0  0  0  0  0  0  0
   12.4958  -16.2312   16.3487 O   0  0  0  0  0  0  0  0  0  0  0  0
   10.5115  -17.2870   16.8394 N   0  0  0  0  0  0  0  0  0  0  0  0
   10.1951  -16.1485   17.7805 C   0  0  1  0  0  0  0  0  0  0  0  0
    8.7956  -15.7474   17.4094 C   0  0  0  0  0  0  0  0  0  0  0  0
    8.1299  -14.7312   18.2097 C   0  0  0  0  0  0  0  0  0  0  0  0
    7.0465  -14.9551   19.0881 C   0  0  0  0  0  0  0  0  0  0  0  0
    6.7342  -13.7744   19.6219 N   0  0  0  0  0  0  0  0  0  0  0  0
    7.5404  -12.8294   19.1435 C   0  0  0  0  0  0  0  0  0  0  0  0
    8.3620  -13.4315   18.3035 N   0  0  0  0  0  0  0  0  0  0  0  0
   10.3405  -16.7857   19.0999 C   0  0  0  0  0  0  0  0  0  0  0  0
   10.1085  -18.0411   19.2110 O   0  0  0  0  0  0  0  0  0  0  0  0
   10.7260  -16.1015   20.2510 N   0  0  0  0  0  0  0  0  0  0  0  0
   10.8275  -16.7436   21.5689 C   0  0  1  0  0  0  0  0  0  0  0  0
   11.0569  -15.6433   22.5500 C   0  0  0  0  0  0  0  0  0  0  0  0
   11.2029  -16.2230   23.9050 C   0  0  0  0  0  0  0  0  0  0  0  0
   11.1166  -17.5732   24.2346 C   0  0  0  0  0  0  0  0  0  0  0  0
   11.3104  -17.6626   25.5611 N   0  0  0  0  0  0  0  0  0  0  0  0
   11.5104  -16.4332   26.0560 C   0  0  0  0  0  0  0  0  0  0  0  0
   11.4433  -15.5602   25.0396 N   0  0  0  0  0  0  0  0  0  0  0  0
    9.6619  -17.5911   21.8373 C   0  0  0  0  0  0  0  0  0  0  0  0
    9.7880  -18.7723   22.2707 O   0  0  0  0  0  0  0  0  0  0  0  0
    8.3776  -17.1303   21.6272 O   0  0  0  0  0  0  0  0  0  0  0  0
  2  1  1  0
  3  2  1  0
  4  3  2  0
  5  3  1  0
  6 13  1  0
  6  5  1  0
  6  7  1  6
  8 12  1  0
  8  7  1  0
  9  8  2  0
 10  9  1  0
 10 11  1  0
 11 12  2  0
 13 15  1  0
 14 13  2  0
 15 16  1  0
 16 17  1  1
 16 23  1  0
 18 17  1  0
 19 18  2  0
 20 19  1  0
 21 20  1  0
 21 22  2  0
 22 18  1  0
 23 24  2  0
 23 25  1  0
M  END
$$$$
