GHH.pdb
     RDKit          3D

 25 26  0  0  1  0  0  0  0  0999 V2000
   14.0716  -14.6437   19.9975 N   0  0  0  0  0  0  0  0  0  0  0  0
   13.1106  -15.6721   20.2987 C   0  0  0  0  0  0  0  0  0  0  0  0
   12.0184  -15.0876   21.1136 C   0  0  0  0  0  0  0  0  0  0  0  0
   12.1310  -13.9491   21.6578 O   0  0  0  0  0  0  0  0  0  0  0  0
   10.8317  -15.8111   21.2870 N   0  0  0  0  0  0  0  0  0  0  0  0
    9.7862  -15.1966   22.1877 C   0  0  1  0  0  0  0  0  0  0  0  0
    8.5181  -15.2846   21.3868 C   0  0  0  0  0  0  0  0  0  0  0  0
    8.3268  -14.3531   20.2859 C   0  0  0  0  0  0  0  0  0  0  0  0
    9.2474  -13.3628   19.8768 C   0  0  0  0  0  0  0  0  0  0  0  0
    8.6953  -12.7288   18.8424 N   0  0  0  0  0  0  0  0  0  0  0  0
    7.4994  -13.2480   18.5740 C   0  0  0  0  0  0  0  0  0  0  0  0
    7.3080  -14.2150   19.4523 N   0  0  0  0  0  0  0  0  0  0  0  0
    9.8460  -16.0675   23.3734 C   0  0  0  0  0  0  0  0  0  0  0  0
   10.5610  -17.1300   23.3267 O   0  0  0  0  0  0  0  0  0  0  0  0
    9.1694  -15.8029   24.5625 N   0  0  0  0  0  0  0  0  0  0  0  0
    9.2395  -16.6827   25.7374 C   0  0  1  0  0  0  0  0  0  0  0  0
    8.4743  -15.9943   26.8174 C   0  0  0  0  0  0  0  0  0  0  0  0
    9.3720  -15.0522   27.5243 C   0  0  0  0  0  0  0  0  0  0  0  0
   10.7557  -15.1628   27.6358 C   0  0  0  0  0  0  0  0  0  0  0  0
   11.1739  -14.1043   28.3497 N   0  0  0  0  0  0  0  0  0  0  0  0
   10.1132  -13.3542   28.6789 C   0  0  0  0  0  0  0  0  0  0  0  0
    9.0174  -13.9389   28.1719 N   0  0  0  0  0  0  0  0  0  0  0  0
    8.7860  -18.0383   25.4129 C   0  0  0  0  0  0  0  0  0  0  0  0
    7.8635  -18.2445   24.5730 O   0  0  0  0  0  0  0  0  0  0  0  0
    9.3510  -19.1457   26.0134 O   0  0  0  0  0  0  0  0  0  0  0  0
  2  1  1  0
  3  2  1  0
  4  3  2  0
  5  3  1  0
  6 13  1  0
  6  5  1  0
  6  7  1  6
  8 12  1  0
  8  7  1  0
  9  8  2  0
 10  9  1  0
 10 11  1  0
 11 12  2  0
 13 15  1  0
 14 13  2  0
 15 16  1  0
 16 17  1  1
 16 23  1  0
 18 17  1  0
 19 18  2  0
 20 19  1  0
 21 20  1  0
 21 22  2  0
 22 18  1  0
 23 24  2  0
 23 25  1  0
M  END
$$$$
