GHH.pdb
     RDKit          3D

 25 26  0  0  1  0  0  0  0  0999 V2000
    8.6854  -17.8940   18.5078 N   0  0  0  0  0  0  0  0  0  0  0  0
    7.8941  -18.7435   19.3587 C   0  0  0  0  0  0  0  0  0  0  0  0
    7.3578  -17.9366   20.4811 C   0  0  0  0  0  0  0  0  0  0  0  0
    7.2806  -16.6737   20.4149 O   0  0  0  0  0  0  0  0  0  0  0  0
    6.9253  -18.5852   21.6448 N   0  0  0  0  0  0  0  0  0  0  0  0
    6.1715  -17.7470   22.6503 C   0  0  1  0  0  0  0  0  0  0  0  0
    5.0534  -18.6414   23.1051 C   0  0  0  0  0  0  0  0  0  0  0  0
    3.8852  -18.7815   22.2494 C   0  0  0  0  0  0  0  0  0  0  0  0
    3.7040  -18.1560   20.9958 C   0  0  0  0  0  0  0  0  0  0  0  0
    2.5112  -18.5416   20.5429 N   0  0  0  0  0  0  0  0  0  0  0  0
    1.9333  -19.3608   21.4186 C   0  0  0  0  0  0  0  0  0  0  0  0
    2.7777  -19.4844   22.4259 N   0  0  0  0  0  0  0  0  0  0  0  0
    7.2062  -17.4665   23.6596 C   0  0  0  0  0  0  0  0  0  0  0  0
    8.1504  -18.3156   23.8320 O   0  0  0  0  0  0  0  0  0  0  0  0
    7.2275  -16.3168   24.4467 N   0  0  0  0  0  0  0  0  0  0  0  0
    8.2169  -16.0913   25.5097 C   0  0  1  0  0  0  0  0  0  0  0  0
    8.0215  -14.6847   25.9668 C   0  0  0  0  0  0  0  0  0  0  0  0
    8.9625  -14.3984   27.0740 C   0  0  0  0  0  0  0  0  0  0  0  0
    8.6241  -13.9160   28.3358 C   0  0  0  0  0  0  0  0  0  0  0  0
    9.7698  -13.8016   29.0281 N   0  0  0  0  0  0  0  0  0  0  0  0
   10.7896  -14.1904   28.2504 C   0  0  0  0  0  0  0  0  0  0  0  0
   10.2893  -14.5530   27.0597 N   0  0  0  0  0  0  0  0  0  0  0  0
    8.1124  -17.1119   26.5567 C   0  0  0  0  0  0  0  0  0  0  0  0
    6.9922  -17.5610   26.9340 O   0  0  0  0  0  0  0  0  0  0  0  0
    9.2369  -17.6241   27.1726 O   0  0  0  0  0  0  0  0  0  0  0  0
  2  1  1  0
  3  2  1  0
  4  3  2  0
  5  3  1  0
  6 13  1  0
  6  5  1  0
  6  7  1  1
  8 12  1  0
  8  7  1  0
  9  8  2  0
 10  9  1  0
 10 11  1  0
 11 12  2  0
 13 15  1  0
 14 13  2  0
 15 16  1  0
 16 17  1  1
 16 23  1  0
 18 17  1  0
 19 18  2  0
 20 19  1  0
 21 20  1  0
 21 22  2  0
 22 18  1  0
 23 24  2  0
 23 25  1  0
M  END
$$$$
