GHH.pdb
     RDKit          3D

 25 26  0  0  1  0  0  0  0  0999 V2000
    9.6537  -15.2952   12.4620 N   0  0  0  0  0  0  0  0  0  0  0  0
    9.0643  -15.9239   13.6149 C   0  0  0  0  0  0  0  0  0  0  0  0
    9.3293  -15.0860   14.8092 C   0  0  0  0  0  0  0  0  0  0  0  0
   10.2220  -14.1870   14.8060 O   0  0  0  0  0  0  0  0  0  0  0  0
    8.5745  -15.2923   15.9709 N   0  0  0  0  0  0  0  0  0  0  0  0
    8.8671  -14.3841   17.1420 C   0  0  1  0  0  0  0  0  0  0  0  0
    7.6609  -14.5291   18.0258 C   0  0  0  0  0  0  0  0  0  0  0  0
    7.7394  -14.0380   19.3929 C   0  0  0  0  0  0  0  0  0  0  0  0
    8.2668  -12.7889   19.7893 C   0  0  0  0  0  0  0  0  0  0  0  0
    8.1539  -12.7276   21.1160 N   0  0  0  0  0  0  0  0  0  0  0  0
    7.5959  -13.8439   21.5787 C   0  0  0  0  0  0  0  0  0  0  0  0
    7.3601  -14.6059   20.5267 N   0  0  0  0  0  0  0  0  0  0  0  0
   10.1139  -14.9569   17.6762 C   0  0  0  0  0  0  0  0  0  0  0  0
   10.3066  -16.2202   17.5807 O   0  0  0  0  0  0  0  0  0  0  0  0
   11.1151  -14.2007   18.2824 N   0  0  0  0  0  0  0  0  0  0  0  0
   12.3126  -14.7968   18.8908 C   0  0  1  0  0  0  0  0  0  0  0  0
   13.4316  -13.8478   18.6206 C   0  0  0  0  0  0  0  0  0  0  0  0
   14.7084  -14.4699   19.0400 C   0  0  0  0  0  0  0  0  0  0  0  0
   14.8950  -15.8035   19.3952 C   0  0  0  0  0  0  0  0  0  0  0  0
   16.1950  -15.9454   19.7032 N   0  0  0  0  0  0  0  0  0  0  0  0
   16.8098  -14.7640   19.5533 C   0  0  0  0  0  0  0  0  0  0  0  0
   15.8964  -13.8687   19.1486 N   0  0  0  0  0  0  0  0  0  0  0  0
   12.0871  -15.1155   20.3038 C   0  0  0  0  0  0  0  0  0  0  0  0
   11.1725  -14.5528   20.9715 O   0  0  0  0  0  0  0  0  0  0  0  0
   12.8667  -16.0458   20.9616 O   0  0  0  0  0  0  0  0  0  0  0  0
  2  1  1  0
  3  2  1  0
  4  3  2  0
  5  3  1  0
  6 13  1  0
  6  5  1  0
  6  7  1  1
  8 12  1  0
  8  7  1  0
  9  8  2  0
 10  9  1  0
 10 11  1  0
 11 12  2  0
 13 15  1  0
 14 13  2  0
 15 16  1  0
 16 17  1  1
 16 23  1  0
 18 17  1  0
 19 18  2  0
 20 19  1  0
 21 20  1  0
 21 22  2  0
 22 18  1  0
 23 24  2  0
 23 25  1  0
M  END
$$$$
