GHH.pdb
     RDKit          3D

 25 26  0  0  1  0  0  0  0  0999 V2000
    9.2745  -14.4225   17.0045 N   0  0  0  0  0  0  0  0  0  0  0  0
   10.3031  -13.6386   17.6366 C   0  0  0  0  0  0  0  0  0  0  0  0
   11.4917  -14.4956   17.8630 C   0  0  0  0  0  0  0  0  0  0  0  0
   11.4309  -15.7571   17.7630 O   0  0  0  0  0  0  0  0  0  0  0  0
   12.7135  -13.8969   18.1958 N   0  0  0  0  0  0  0  0  0  0  0  0
   13.8733  -14.8253   18.4696 C   0  0  1  0  0  0  0  0  0  0  0  0
   15.0787  -14.0399   18.0369 C   0  0  0  0  0  0  0  0  0  0  0  0
   15.6444  -14.3047   16.7230 C   0  0  0  0  0  0  0  0  0  0  0  0
   15.2074  -15.3043   15.8255 C   0  0  0  0  0  0  0  0  0  0  0  0
   15.9821  -15.2153   14.7445 N   0  0  0  0  0  0  0  0  0  0  0  0
   16.8701  -14.2357   14.8985 C   0  0  0  0  0  0  0  0  0  0  0  0
   16.6432  -13.7115   16.0887 N   0  0  0  0  0  0  0  0  0  0  0  0
   13.7546  -15.0523   19.9195 C   0  0  0  0  0  0  0  0  0  0  0  0
   13.6624  -14.0401   20.7000 O   0  0  0  0  0  0  0  0  0  0  0  0
   13.7298  -16.3165   20.5051 N   0  0  0  0  0  0  0  0  0  0  0  0
   13.4878  -16.5314   21.9385 C   0  0  1  0  0  0  0  0  0  0  0  0
   12.3752  -17.5213   22.0277 C   0  0  0  0  0  0  0  0  0  0  0  0
   12.1073  -17.8242   23.4524 C   0  0  0  0  0  0  0  0  0  0  0  0
   12.3010  -16.9595   24.5267 C   0  0  0  0  0  0  0  0  0  0  0  0
   11.9337  -17.6266   25.6336 N   0  0  0  0  0  0  0  0  0  0  0  0
   11.5259  -18.8552   25.2867 C   0  0  0  0  0  0  0  0  0  0  0  0
   11.6347  -18.9684   23.9544 N   0  0  0  0  0  0  0  0  0  0  0  0
   14.7216  -16.9093   22.6340 C   0  0  0  0  0  0  0  0  0  0  0  0
   14.7723  -16.9917   23.8948 O   0  0  0  0  0  0  0  0  0  0  0  0
   15.8793  -17.1916   21.9367 O   0  0  0  0  0  0  0  0  0  0  0  0
  2  1  1  0
  3  2  1  0
  4  3  2  0
  5  3  1  0
  6 13  1  0
  6  5  1  0
  6  7  1  1
  8 12  1  0
  8  7  1  0
  9  8  2  0
 10  9  1  0
 10 11  1  0
 11 12  2  0
 13 15  1  0
 14 13  2  0
 15 16  1  0
 16 17  1  6
 16 23  1  0
 18 17  1  0
 19 18  2  0
 20 19  1  0
 21 20  1  0
 21 22  2  0
 22 18  1  0
 23 24  2  0
 23 25  1  0
M  END
$$$$
