GHH.pdb
     RDKit          3D

 25 26  0  0  1  0  0  0  0  0999 V2000
   10.3527  -16.2932   13.7693 N   0  0  0  0  0  0  0  0  0  0  0  0
   11.2306  -16.8044   14.7891 C   0  0  0  0  0  0  0  0  0  0  0  0
   10.4374  -17.0916   16.0085 C   0  0  0  0  0  0  0  0  0  0  0  0
    9.1959  -16.8459   16.0675 O   0  0  0  0  0  0  0  0  0  0  0  0
   11.0752  -17.6486   17.1242 N   0  0  0  0  0  0  0  0  0  0  0  0
   10.1961  -18.0185   18.2957 C   0  0  1  0  0  0  0  0  0  0  0  0
   10.6174  -19.4191   18.6393 C   0  0  0  0  0  0  0  0  0  0  0  0
    9.6434  -20.4906   18.4995 C   0  0  0  0  0  0  0  0  0  0  0  0
    8.3046  -20.3354   18.0762 C   0  0  0  0  0  0  0  0  0  0  0  0
    7.7557  -21.5500   18.0844 N   0  0  0  0  0  0  0  0  0  0  0  0
    8.6502  -22.4526   18.4808 C   0  0  0  0  0  0  0  0  0  0  0  0
    9.7664  -21.7897   18.7211 N   0  0  0  0  0  0  0  0  0  0  0  0
   10.5514  -16.9907   19.2883 C   0  0  0  0  0  0  0  0  0  0  0  0
   11.7624  -16.5753   19.3442 O   0  0  0  0  0  0  0  0  0  0  0  0
    9.6399  -16.4284   20.1797 N   0  0  0  0  0  0  0  0  0  0  0  0
   10.0197  -15.4369   21.1956 C   0  0  1  0  0  0  0  0  0  0  0  0
    8.8746  -14.4858   21.2958 C   0  0  0  0  0  0  0  0  0  0  0  0
    8.6208  -13.8889   19.9644 C   0  0  0  0  0  0  0  0  0  0  0  0
    9.2984  -12.8081   19.4058 C   0  0  0  0  0  0  0  0  0  0  0  0
    8.7590  -12.5956   18.1939 N   0  0  0  0  0  0  0  0  0  0  0  0
    7.7860  -13.4936   17.9864 C   0  0  0  0  0  0  0  0  0  0  0  0
    7.7076  -14.2792   19.0709 N   0  0  0  0  0  0  0  0  0  0  0  0
   10.4083  -16.0859   22.4512 C   0  0  0  0  0  0  0  0  0  0  0  0
   10.2014  -17.3172   22.6516 O   0  0  0  0  0  0  0  0  0  0  0  0
   11.0179  -15.3756   23.4661 O   0  0  0  0  0  0  0  0  0  0  0  0
  2  1  1  0
  3  2  1  0
  4  3  2  0
  5  3  1  0
  6 13  1  0
  6  5  1  0
  6  7  1  1
  8 12  1  0
  8  7  1  0
  9  8  2  0
 10  9  1  0
 10 11  1  0
 11 12  2  0
 13 15  1  0
 14 13  2  0
 15 16  1  0
 16 17  1  1
 16 23  1  0
 18 17  1  0
 19 18  2  0
 20 19  1  0
 21 20  1  0
 21 22  2  0
 22 18  1  0
 23 24  2  0
 23 25  1  0
M  END
$$$$
