MND.pdb
     RDKit          3D

 25 24  0  0  1  0  0  0  0  0999 V2000
   17.3748  -15.2404  -15.6938 C   0  0  0  0  0  0  0  0  0  0  0  0
   16.9076  -14.7510  -17.3937 S   0  0  0  0  0  0  0  0  0  0  0  0
   17.9510  -13.3721  -17.8597 C   0  0  0  0  0  0  0  0  0  0  0  0
   17.6952  -12.1332  -17.0458 C   0  0  0  0  0  0  0  0  0  0  0  0
   18.6906  -11.0410  -17.2789 C   0  0  2  0  0  0  0  0  0  0  0  0
   20.0277  -11.4183  -16.9044 N   0  0  0  0  0  0  0  0  0  0  0  0
   18.2061   -9.8637  -16.5110 C   0  0  0  0  0  0  0  0  0  0  0  0
   17.0715   -9.4045  -16.7844 O   0  0  0  0  0  0  0  0  0  0  0  0
   16.6902   -9.3776  -12.9084 N   0  0  0  0  0  0  0  0  0  0  0  0
   17.9295   -8.8352  -12.4855 C   0  0  0  0  0  0  0  0  0  0  0  0
   18.1794   -9.0012  -11.2367 O   0  0  0  0  0  0  0  0  0  0  0  0
   18.8970   -8.1293  -13.3508 C   0  0  0  0  0  0  0  0  0  0  0  0
   18.4917   -8.0391  -14.7984 C   0  0  2  0  0  0  0  0  0  0  0  0
   18.9404   -9.2144  -15.4806 N   0  0  0  0  0  0  0  0  0  0  0  0
   18.8838   -6.7706  -15.4400 C   0  0  0  0  0  0  0  0  0  0  0  0
   19.9887   -6.6990  -16.0758 O   0  0  0  0  0  0  0  0  0  0  0  0
   18.1261   -5.5694  -15.4200 N   0  0  0  0  0  0  0  0  0  0  0  0
   18.4810   -4.4196  -16.2942 C   0  0  1  0  0  0  0  0  0  0  0  0
   18.3737   -4.9464  -17.6845 C   0  0  0  0  0  0  0  0  0  0  0  0
   18.5745   -3.9980  -18.7689 C   0  0  0  0  0  0  0  0  0  0  0  0
   18.4594   -2.7710  -18.5270 O   0  0  0  0  0  0  0  0  0  0  0  0
   17.6079   -3.2873  -15.9736 C   0  0  0  0  0  0  0  0  0  0  0  0
   16.4377   -3.4419  -15.6057 O   0  0  0  0  0  0  0  0  0  0  0  0
   18.8842   -4.3835  -20.0541 O   0  0  0  0  0  0  0  0  0  0  0  0
   18.0947   -1.9983  -16.0813 O   0  0  0  0  0  0  0  0  0  0  0  0
  1  2  1  0
  3  2  1  0
  4  5  1  0
  4  3  1  0
  5  6  1  1
  7  5  1  0
  7  8  2  0
  9 10  1  0
 10 11  2  0
 12 10  1  0
 13 12  1  1
 13 14  1  0
 14  7  1  0
 15 13  1  0
 16 15  2  0
 17 15  1  0
 18 17  1  0
 18 22  1  0
 18 19  1  6
 20 19  1  0
 20 24  1  0
 21 20  2  0
 22 23  2  0
 22 25  1  0
M  END
$$$$
