MND.pdb
     RDKit          3D

 25 24  0  0  1  0  0  0  0  0999 V2000
   14.1756  -11.7205  -17.3576 C   0  0  0  0  0  0  0  0  0  0  0  0
   14.5047  -10.5651  -15.9778 S   0  0  0  0  0  0  0  0  0  0  0  0
   14.0438  -11.3978  -14.4607 C   0  0  0  0  0  0  0  0  0  0  0  0
   14.1907  -10.5309  -13.2402 C   0  0  0  0  0  0  0  0  0  0  0  0
   15.6079  -10.1755  -12.9187 C   0  0  2  0  0  0  0  0  0  0  0  0
   16.2553  -11.1619  -12.0951 N   0  0  0  0  0  0  0  0  0  0  0  0
   15.5654   -8.8413  -12.2639 C   0  0  0  0  0  0  0  0  0  0  0  0
   15.1199   -7.8719  -12.9234 O   0  0  0  0  0  0  0  0  0  0  0  0
   15.7471   -4.9097   -8.6116 N   0  0  0  0  0  0  0  0  0  0  0  0
   15.7329   -6.2136   -8.0563 C   0  0  0  0  0  0  0  0  0  0  0  0
   15.6064   -6.2416   -6.7785 O   0  0  0  0  0  0  0  0  0  0  0  0
   15.8484   -7.4729   -8.8206 C   0  0  0  0  0  0  0  0  0  0  0  0
   15.9392   -7.2928  -10.3130 C   0  0  2  0  0  0  0  0  0  0  0  0
   15.9961   -8.5810  -10.9338 N   0  0  0  0  0  0  0  0  0  0  0  0
   17.0067   -6.3643  -10.7286 C   0  0  0  0  0  0  0  0  0  0  0  0
   17.0052   -5.1640  -10.2935 O   0  0  0  0  0  0  0  0  0  0  0  0
   18.0806   -6.6827  -11.6021 N   0  0  0  0  0  0  0  0  0  0  0  0
   19.0578   -5.6469  -12.0315 C   0  0  1  0  0  0  0  0  0  0  0  0
   20.3846   -6.3241  -11.9766 C   0  0  0  0  0  0  0  0  0  0  0  0
   21.5099   -5.6246  -12.5766 C   0  0  0  0  0  0  0  0  0  0  0  0
   21.4691   -4.3719  -12.6567 O   0  0  0  0  0  0  0  0  0  0  0  0
   18.6612   -5.1298  -13.3439 C   0  0  0  0  0  0  0  0  0  0  0  0
   18.6880   -3.9230  -13.6114 O   0  0  0  0  0  0  0  0  0  0  0  0
   22.6219   -6.2737  -13.0651 O   0  0  0  0  0  0  0  0  0  0  0  0
   18.2414   -6.0080  -14.3251 O   0  0  0  0  0  0  0  0  0  0  0  0
  1  2  1  0
  3  2  1  0
  4  5  1  0
  4  3  1  0
  5  6  1  1
  7  5  1  0
  7  8  2  0
  9 10  1  0
 10 11  2  0
 12 10  1  0
 13 12  1  1
 13 14  1  0
 14  7  1  0
 15 13  1  0
 16 15  2  0
 17 15  1  0
 18 17  1  0
 18 22  1  0
 18 19  1  6
 20 19  1  0
 20 24  1  0
 21 20  2  0
 22 23  2  0
 22 25  1  0
M  END
$$$$
