MND.pdb
     RDKit          3D

 25 24  0  0  1  0  0  0  0  0999 V2000
   20.7065  -13.7932  -21.1506 C   0  0  0  0  0  0  0  0  0  0  0  0
   20.3111  -12.2688  -20.2193 S   0  0  0  0  0  0  0  0  0  0  0  0
   20.9304  -12.4838  -18.5528 C   0  0  0  0  0  0  0  0  0  0  0  0
   20.5226  -11.3755  -17.6210 C   0  0  0  0  0  0  0  0  0  0  0  0
   21.1481  -10.0551  -17.9425 C   0  0  2  0  0  0  0  0  0  0  0  0
   22.5783  -10.0646  -17.7855 N   0  0  0  0  0  0  0  0  0  0  0  0
   20.4950   -9.0567  -17.0553 C   0  0  0  0  0  0  0  0  0  0  0  0
   19.7532   -9.4773  -16.1356 O   0  0  0  0  0  0  0  0  0  0  0  0
   21.0247   -5.3389  -13.5005 N   0  0  0  0  0  0  0  0  0  0  0  0
   21.8424   -6.4446  -13.8435 C   0  0  0  0  0  0  0  0  0  0  0  0
   22.7723   -6.6967  -12.9943 O   0  0  0  0  0  0  0  0  0  0  0  0
   21.6945   -7.2780  -15.0547 C   0  0  0  0  0  0  0  0  0  0  0  0
   20.7013   -6.7532  -16.0577 C   0  0  2  0  0  0  0  0  0  0  0  0
   20.6507   -7.6480  -17.1734 N   0  0  0  0  0  0  0  0  0  0  0  0
   20.9192   -5.3393  -16.4153 C   0  0  0  0  0  0  0  0  0  0  0  0
   20.9698   -4.4553  -15.4954 O   0  0  0  0  0  0  0  0  0  0  0  0
   21.0834   -4.8399  -17.7348 N   0  0  0  0  0  0  0  0  0  0  0  0
   21.1960   -3.3803  -17.9980 C   0  0  1  0  0  0  0  0  0  0  0  0
   21.6508   -3.2791  -19.4139 C   0  0  0  0  0  0  0  0  0  0  0  0
   22.9164   -3.9125  -19.7494 C   0  0  0  0  0  0  0  0  0  0  0  0
   23.8922   -3.7604  -18.9735 O   0  0  0  0  0  0  0  0  0  0  0  0
   19.9141   -2.7389  -17.6939 C   0  0  0  0  0  0  0  0  0  0  0  0
   18.9554   -3.3694  -17.2336 O   0  0  0  0  0  0  0  0  0  0  0  0
   23.0968   -4.6726  -20.8835 O   0  0  0  0  0  0  0  0  0  0  0  0
   19.7569   -1.3851  -17.9238 O   0  0  0  0  0  0  0  0  0  0  0  0
  1  2  1  0
  3  2  1  0
  4  5  1  0
  4  3  1  0
  5  6  1  1
  7  5  1  0
  7  8  2  0
  9 10  1  0
 10 11  2  0
 12 10  1  0
 13 12  1  1
 13 14  1  0
 14  7  1  0
 15 13  1  0
 16 15  2  0
 17 15  1  0
 18 17  1  0
 18 22  1  0
 18 19  1  6
 20 19  1  0
 20 24  1  0
 21 20  2  0
 22 23  2  0
 22 25  1  0
M  END
$$$$
