MND.pdb
     RDKit          3D

 25 24  0  0  1  0  0  0  0  0999 V2000
   19.8778  -15.2300  -16.2630 C   0  0  0  0  0  0  0  0  0  0  0  0
   18.8764  -14.9578  -17.7698 S   0  0  0  0  0  0  0  0  0  0  0  0
   19.3927  -13.3976  -18.4812 C   0  0  0  0  0  0  0  0  0  0  0  0
   20.1001  -12.5035  -17.4999 C   0  0  0  0  0  0  0  0  0  0  0  0
   20.5777  -11.2153  -18.0918 C   0  0  2  0  0  0  0  0  0  0  0  0
   21.4857  -11.4113  -19.1907 N   0  0  0  0  0  0  0  0  0  0  0  0
   21.2024  -10.4511  -16.9799 C   0  0  0  0  0  0  0  0  0  0  0  0
   20.5151  -10.2290  -15.9546 O   0  0  0  0  0  0  0  0  0  0  0  0
   23.9902  -11.7526  -14.8514 N   0  0  0  0  0  0  0  0  0  0  0  0
   24.9218  -10.7915  -15.3173 C   0  0  0  0  0  0  0  0  0  0  0  0
   26.1486  -11.1628  -15.2353 O   0  0  0  0  0  0  0  0  0  0  0  0
   24.5817   -9.4607  -15.8620 C   0  0  0  0  0  0  0  0  0  0  0  0
   23.1052   -9.1735  -15.9354 C   0  0  2  0  0  0  0  0  0  0  0  0
   22.5330   -9.9494  -16.9931 N   0  0  0  0  0  0  0  0  0  0  0  0
   22.7890   -7.7343  -15.9906 C   0  0  0  0  0  0  0  0  0  0  0  0
   23.1817   -7.0386  -16.9865 O   0  0  0  0  0  0  0  0  0  0  0  0
   22.0629   -7.0128  -15.0059 N   0  0  0  0  0  0  0  0  0  0  0  0
   21.8626   -5.5433  -15.1186 C   0  0  1  0  0  0  0  0  0  0  0  0
   20.4575   -5.3819  -15.5893 C   0  0  0  0  0  0  0  0  0  0  0  0
   19.9197   -4.0307  -15.6166 C   0  0  0  0  0  0  0  0  0  0  0  0
   20.6525   -3.0973  -16.0280 O   0  0  0  0  0  0  0  0  0  0  0  0
   22.1785   -4.9172  -13.8320 C   0  0  0  0  0  0  0  0  0  0  0  0
   22.1119   -3.6945  -13.6610 O   0  0  0  0  0  0  0  0  0  0  0  0
   18.6404   -3.7247  -15.2090 O   0  0  0  0  0  0  0  0  0  0  0  0
   22.5649   -5.7067  -12.7654 O   0  0  0  0  0  0  0  0  0  0  0  0
  1  2  1  0
  3  2  1  0
  4  5  1  0
  4  3  1  0
  5  6  1  6
  7  5  1  0
  7  8  2  0
  9 10  1  0
 10 11  2  0
 12 10  1  0
 13 12  1  6
 13 14  1  0
 14  7  1  0
 15 13  1  0
 16 15  2  0
 17 15  1  0
 18 17  1  0
 18 22  1  0
 18 19  1  1
 20 19  1  0
 20 24  1  0
 21 20  2  0
 22 23  2  0
 22 25  1  0
M  END
$$$$
