MND.pdb
     RDKit          3D

 25 24  0  0  1  0  0  0  0  0999 V2000
   17.0914  -14.7022  -16.1845 C   0  0  0  0  0  0  0  0  0  0  0  0
   17.9945  -14.5141  -17.7644 S   0  0  0  0  0  0  0  0  0  0  0  0
   19.6761  -14.0433  -17.3671 C   0  0  0  0  0  0  0  0  0  0  0  0
   19.7654  -12.7495  -16.6049 C   0  0  0  0  0  0  0  0  0  0  0  0
   20.9665  -11.9269  -16.9497 C   0  0  2  0  0  0  0  0  0  0  0  0
   22.2040  -12.6069  -16.6732 N   0  0  0  0  0  0  0  0  0  0  0  0
   20.8403  -10.6609  -16.1804 C   0  0  0  0  0  0  0  0  0  0  0  0
   20.7139  -10.7350  -14.9348 O   0  0  0  0  0  0  0  0  0  0  0  0
   20.7943   -5.9327  -14.0800 N   0  0  0  0  0  0  0  0  0  0  0  0
   21.7682   -6.9620  -14.0490 C   0  0  0  0  0  0  0  0  0  0  0  0
   22.6147   -6.8587  -13.0887 O   0  0  0  0  0  0  0  0  0  0  0  0
   21.8603   -8.0850  -15.0049 C   0  0  0  0  0  0  0  0  0  0  0  0
   20.7347   -8.1507  -16.0031 C   0  0  2  0  0  0  0  0  0  0  0  0
   20.8527   -9.3612  -16.7574 N   0  0  0  0  0  0  0  0  0  0  0  0
   20.6020   -6.9300  -16.8198 C   0  0  0  0  0  0  0  0  0  0  0  0
   20.3314   -7.0281  -18.0637 O   0  0  0  0  0  0  0  0  0  0  0  0
   20.7529   -5.6005  -16.3433 N   0  0  0  0  0  0  0  0  0  0  0  0
   20.2194   -4.4422  -17.1088 C   0  0  1  0  0  0  0  0  0  0  0  0
   18.7721   -4.7423  -17.3009 C   0  0  0  0  0  0  0  0  0  0  0  0
   17.9412   -3.6771  -17.8400 C   0  0  0  0  0  0  0  0  0  0  0  0
   18.2455   -3.1777  -18.9514 O   0  0  0  0  0  0  0  0  0  0  0  0
   20.5220   -3.2071  -16.3806 C   0  0  0  0  0  0  0  0  0  0  0  0
   20.6595   -3.1841  -15.1522 O   0  0  0  0  0  0  0  0  0  0  0  0
   16.8331   -3.1868  -17.1857 O   0  0  0  0  0  0  0  0  0  0  0  0
   20.6614   -2.0212  -17.0767 O   0  0  0  0  0  0  0  0  0  0  0  0
  1  2  1  0
  3  2  1  0
  4  5  1  0
  4  3  1  0
  5  6  1  1
  7  5  1  0
  7  8  2  0
  9 10  1  0
 10 11  2  0
 12 10  1  0
 13 12  1  6
 13 14  1  0
 14  7  1  0
 15 13  1  0
 16 15  2  0
 17 15  1  0
 18 17  1  0
 18 22  1  0
 18 19  1  1
 20 19  1  0
 20 24  1  0
 21 20  2  0
 22 23  2  0
 22 25  1  0
M  END
$$$$
