MND.pdb
     RDKit          3D

 25 24  0  0  1  0  0  0  0  0999 V2000
   16.3565  -13.3307  -18.9201 C   0  0  0  0  0  0  0  0  0  0  0  0
   16.2536  -11.5205  -18.6758 S   0  0  0  0  0  0  0  0  0  0  0  0
   17.7793  -10.8101  -19.2881 C   0  0  0  0  0  0  0  0  0  0  0  0
   18.5642  -10.0869  -18.2280 C   0  0  0  0  0  0  0  0  0  0  0  0
   19.8729  -10.7329  -17.8992 C   0  0  2  0  0  0  0  0  0  0  0  0
   19.7164  -12.0232  -17.2819 N   0  0  0  0  0  0  0  0  0  0  0  0
   20.6009   -9.7782  -17.0221 C   0  0  0  0  0  0  0  0  0  0  0  0
   20.2671   -9.7105  -15.8150 O   0  0  0  0  0  0  0  0  0  0  0  0
   24.1748   -6.2627  -15.1126 N   0  0  0  0  0  0  0  0  0  0  0  0
   24.6292   -7.0423  -16.2056 C   0  0  0  0  0  0  0  0  0  0  0  0
   25.8844   -6.9261  -16.4510 O   0  0  0  0  0  0  0  0  0  0  0  0
   23.7883   -7.9322  -17.0329 C   0  0  0  0  0  0  0  0  0  0  0  0
   22.3489   -8.0152  -16.5979 C   0  0  2  0  0  0  0  0  0  0  0  0
   21.6567   -8.9292  -17.4543 N   0  0  0  0  0  0  0  0  0  0  0  0
   21.7014   -6.6980  -16.4559 C   0  0  0  0  0  0  0  0  0  0  0  0
   21.4295   -6.0119  -17.4977 O   0  0  0  0  0  0  0  0  0  0  0  0
   21.3360   -6.0887  -15.2260 N   0  0  0  0  0  0  0  0  0  0  0  0
   20.7315   -4.7302  -15.1885 C   0  0  1  0  0  0  0  0  0  0  0  0
   19.3724   -4.9302  -14.6101 C   0  0  0  0  0  0  0  0  0  0  0  0
   18.5099   -3.7619  -14.5273 C   0  0  0  0  0  0  0  0  0  0  0  0
   18.9491   -2.6572  -14.9325 O   0  0  0  0  0  0  0  0  0  0  0  0
   21.6160   -3.8333  -14.4399 C   0  0  0  0  0  0  0  0  0  0  0  0
   22.1729   -4.1814  -13.3924 O   0  0  0  0  0  0  0  0  0  0  0  0
   17.2298   -3.8094  -14.0217 O   0  0  0  0  0  0  0  0  0  0  0  0
   21.8448   -2.5532  -14.9081 O   0  0  0  0  0  0  0  0  0  0  0  0
  1  2  1  0
  3  2  1  0
  4  5  1  0
  4  3  1  0
  5  6  1  1
  7  5  1  0
  7  8  2  0
  9 10  1  0
 10 11  2  0
 12 10  1  0
 13 12  1  6
 13 14  1  0
 14  7  1  0
 15 13  1  0
 16 15  2  0
 17 15  1  0
 18 17  1  0
 18 22  1  0
 18 19  1  1
 20 19  1  0
 20 24  1  0
 21 20  2  0
 22 23  2  0
 22 25  1  0
M  END
$$$$
