MND.pdb
     RDKit          3D

 25 24  0  0  1  0  0  0  0  0999 V2000
   14.9475  -15.2401  -16.2978 C   0  0  0  0  0  0  0  0  0  0  0  0
   15.5037  -13.6218  -15.6506 S   0  0  0  0  0  0  0  0  0  0  0  0
   17.2946  -13.6285  -15.6595 C   0  0  0  0  0  0  0  0  0  0  0  0
   17.8952  -12.3708  -15.0936 C   0  0  0  0  0  0  0  0  0  0  0  0
   18.1006  -11.2901  -16.1075 C   0  0  2  0  0  0  0  0  0  0  0  0
   18.9206  -11.7126  -17.2118 N   0  0  0  0  0  0  0  0  0  0  0  0
   18.6959  -10.1401  -15.3771 C   0  0  0  0  0  0  0  0  0  0  0  0
   18.0648   -9.6673  -14.4018 O   0  0  0  0  0  0  0  0  0  0  0  0
   21.8270   -5.9436  -14.1093 N   0  0  0  0  0  0  0  0  0  0  0  0
   22.5237   -7.1008  -14.5389 C   0  0  0  0  0  0  0  0  0  0  0  0
   23.7921   -7.0563  -14.3425 O   0  0  0  0  0  0  0  0  0  0  0  0
   21.9086   -8.2896  -15.1647 C   0  0  0  0  0  0  0  0  0  0  0  0
   20.4030   -8.3041  -15.1344 C   0  0  2  0  0  0  0  0  0  0  0  0
   19.9386   -9.5314  -15.7054 N   0  0  0  0  0  0  0  0  0  0  0  0
   19.7924   -7.0910  -15.7088 C   0  0  0  0  0  0  0  0  0  0  0  0
   19.8056   -6.9148  -16.9733 O   0  0  0  0  0  0  0  0  0  0  0  0
   19.1664   -6.0542  -14.9667 N   0  0  0  0  0  0  0  0  0  0  0  0
   18.5761   -4.8693  -15.6449 C   0  0  1  0  0  0  0  0  0  0  0  0
   17.2108   -4.7336  -15.0624 C   0  0  0  0  0  0  0  0  0  0  0  0
   16.1772   -5.6123  -15.5869 C   0  0  0  0  0  0  0  0  0  0  0  0
   16.0937   -5.7718  -16.8299 O   0  0  0  0  0  0  0  0  0  0  0  0
   19.4648   -3.7192  -15.4584 C   0  0  0  0  0  0  0  0  0  0  0  0
   19.2567   -2.6308  -16.0067 O   0  0  0  0  0  0  0  0  0  0  0  0
   15.2806   -6.2790  -14.7819 O   0  0  0  0  0  0  0  0  0  0  0  0
   20.5759   -3.8401  -14.6453 O   0  0  0  0  0  0  0  0  0  0  0  0
  1  2  1  0
  3  2  1  0
  4  5  1  0
  4  3  1  0
  5  6  1  6
  7  5  1  0
  7  8  2  0
  9 10  1  0
 10 11  2  0
 12 10  1  0
 13 12  1  6
 13 14  1  0
 14  7  1  0
 15 13  1  0
 16 15  2  0
 17 15  1  0
 18 17  1  0
 18 22  1  0
 18 19  1  1
 20 19  1  0
 20 24  1  0
 21 20  2  0
 22 23  2  0
 22 25  1  0
M  END
$$$$
