MND.pdb
     RDKit          3D

 25 24  0  0  1  0  0  0  0  0999 V2000
   29.9837  -11.6562  -16.8121 C   0  0  0  0  0  0  0  0  0  0  0  0
   28.7312  -10.3899  -16.3938 S   0  0  0  0  0  0  0  0  0  0  0  0
   27.5881  -11.1311  -15.2315 C   0  0  0  0  0  0  0  0  0  0  0  0
   26.2287  -11.3915  -15.8206 C   0  0  0  0  0  0  0  0  0  0  0  0
   25.7593  -10.3202  -16.7535 C   0  0  2  0  0  0  0  0  0  0  0  0
   25.7059   -9.0245  -16.1301 N   0  0  0  0  0  0  0  0  0  0  0  0
   24.4284  -10.7554  -17.2531 C   0  0  0  0  0  0  0  0  0  0  0  0
   24.3266  -11.9060  -17.7418 O   0  0  0  0  0  0  0  0  0  0  0  0
   19.3411  -12.7859  -16.7235 N   0  0  0  0  0  0  0  0  0  0  0  0
   20.3857  -12.3267  -17.5642 C   0  0  0  0  0  0  0  0  0  0  0  0
   20.1497  -12.4594  -18.8196 O   0  0  0  0  0  0  0  0  0  0  0  0
   21.6600  -11.7365  -17.1046 C   0  0  0  0  0  0  0  0  0  0  0  0
   21.9768  -10.3903  -17.7006 C   0  0  2  0  0  0  0  0  0  0  0  0
   23.2522   -9.9568  -17.2174 N   0  0  0  0  0  0  0  0  0  0  0  0
   20.8918   -9.4053  -17.5360 C   0  0  0  0  0  0  0  0  0  0  0  0
   19.9987   -9.2916  -18.4412 O   0  0  0  0  0  0  0  0  0  0  0  0
   20.7341   -8.5321  -16.4269 N   0  0  0  0  0  0  0  0  0  0  0  0
   19.8259   -7.3562  -16.4948 C   0  0  1  0  0  0  0  0  0  0  0  0
   19.0891   -7.3643  -15.1990 C   0  0  0  0  0  0  0  0  0  0  0  0
   18.1715   -6.2631  -14.9525 C   0  0  0  0  0  0  0  0  0  0  0  0
   17.9687   -5.4293  -15.8697 O   0  0  0  0  0  0  0  0  0  0  0  0
   20.6185   -6.1545  -16.7686 C   0  0  0  0  0  0  0  0  0  0  0  0
   21.6271   -5.8678  -16.1135 O   0  0  0  0  0  0  0  0  0  0  0  0
   17.5132   -6.0894  -13.7555 O   0  0  0  0  0  0  0  0  0  0  0  0
   20.2383   -5.3043  -17.7897 O   0  0  0  0  0  0  0  0  0  0  0  0
  1  2  1  0
  3  2  1  0
  4  5  1  0
  4  3  1  0
  5  6  1  1
  7  5  1  0
  7  8  2  0
  9 10  1  0
 10 11  2  0
 12 10  1  0
 13 12  1  1
 13 14  1  0
 14  7  1  0
 15 13  1  0
 16 15  2  0
 17 15  1  0
 18 17  1  0
 18 22  1  0
 18 19  1  1
 20 19  1  0
 20 24  1  0
 21 20  2  0
 22 23  2  0
 22 25  1  0
M  END
$$$$
