TML.pdb
     RDKit          3D

 24 23  0  0  1  0  0  0  0  0999 V2000
   11.7190  -17.7971   21.1472 C   0  0  0  0  0  0  0  0  0  0  0  0
   10.3164  -17.8595   20.6265 C   0  0  1  0  0  0  0  0  0  0  0  0
    9.5185  -18.6615   21.4292 O   0  0  0  0  0  0  0  0  0  0  0  0
    9.7318  -16.4521   20.4869 C   0  0  2  0  0  0  0  0  0  0  0  0
   10.6540  -15.6290   19.7170 N   0  0  0  0  0  0  0  0  0  0  0  0
    9.6621  -15.8965   21.8619 C   0  0  0  0  0  0  0  0  0  0  0  0
   10.6104  -15.1958   22.3002 O   0  0  0  0  0  0  0  0  0  0  0  0
    6.3585  -11.5357   26.0619 C   0  0  0  0  0  0  0  0  0  0  0  0
    7.1760  -13.1450   25.8516 S   0  0  0  0  0  0  0  0  0  0  0  0
    6.3123  -14.1489   24.5897 C   0  0  0  0  0  0  0  0  0  0  0  0
    6.9669  -15.4571   24.3849 C   0  0  0  0  0  0  0  0  0  0  0  0
    8.4132  -15.4430   24.0093 C   0  0  2  0  0  0  0  0  0  0  0  0
    8.5716  -16.1185   22.7108 N   0  0  0  0  0  0  0  0  0  0  0  0
    9.3052  -16.1502   24.9618 C   0  0  0  0  0  0  0  0  0  0  0  0
    9.6642  -17.3547   24.6931 O   0  0  0  0  0  0  0  0  0  0  0  0
   10.8352  -14.4228   30.1637 C   0  0  0  0  0  0  0  0  0  0  0  0
   10.2702  -14.8619   28.8284 C   0  0  1  0  0  0  0  0  0  0  0  0
    9.6744  -13.6472   28.0965 C   0  0  0  0  0  0  0  0  0  0  0  0
   11.3734  -15.4733   28.0172 C   0  0  0  0  0  0  0  0  0  0  0  0
   10.8330  -16.3374   26.9343 C   0  0  2  0  0  0  0  0  0  0  0  0
    9.8144  -15.6222   26.1590 N   0  0  0  0  0  0  0  0  0  0  0  0
   10.2444  -17.5685   27.4745 C   0  0  0  0  0  0  0  0  0  0  0  0
   10.8565  -18.4199   28.1372 O   0  0  0  0  0  0  0  0  0  0  0  0
    8.8789  -17.8563   27.2528 O   0  0  0  0  0  0  0  0  0  0  0  0
  2  1  1  1
  3  2  1  0
  4  2  1  0
  4  5  1  6
  6  4  1  0
  7  6  2  0
  8  9  1  0
  9 10  1  0
 11 10  1  0
 12 11  1  1
 12 13  1  0
 13  6  1  0
 14 12  1  0
 14 15  2  0
 17 16  1  1
 17 18  1  0
 20 19  1  1
 19 17  1  0
 20 21  1  0
 21 14  1  0
 22 20  1  0
 23 22  2  0
 24 22  1  0
M  END
$$$$
