TML.pdb
     RDKit          3D

 24 23  0  0  1  0  0  0  0  0999 V2000
    7.9680  -19.1989   23.7456 C   0  0  0  0  0  0  0  0  0  0  0  0
    8.5337  -19.1578   22.3598 C   0  0  1  0  0  0  0  0  0  0  0  0
    8.2470  -20.3244   21.6662 O   0  0  0  0  0  0  0  0  0  0  0  0
    8.0281  -17.9236   21.6093 C   0  0  2  0  0  0  0  0  0  0  0  0
    8.4646  -17.9992   20.2222 N   0  0  0  0  0  0  0  0  0  0  0  0
    8.6984  -16.7567   22.2365 C   0  0  0  0  0  0  0  0  0  0  0  0
    9.9075  -16.5210   21.9820 O   0  0  0  0  0  0  0  0  0  0  0  0
    6.7268  -11.3033   26.6527 C   0  0  0  0  0  0  0  0  0  0  0  0
    5.9132  -12.8622   26.1943 S   0  0  0  0  0  0  0  0  0  0  0  0
    7.1453  -14.0969   25.6434 C   0  0  0  0  0  0  0  0  0  0  0  0
    7.6329  -13.8161   24.2777 C   0  0  0  0  0  0  0  0  0  0  0  0
    8.6887  -14.7221   23.7323 C   0  0  2  0  0  0  0  0  0  0  0  0
    8.0379  -15.8890   23.1141 N   0  0  0  0  0  0  0  0  0  0  0  0
    9.6295  -15.2558   24.7487 C   0  0  0  0  0  0  0  0  0  0  0  0
   10.7838  -14.7040   24.8713 O   0  0  0  0  0  0  0  0  0  0  0  0
    9.2529  -14.3374   29.3723 C   0  0  0  0  0  0  0  0  0  0  0  0
    9.8832  -14.7506   28.0581 C   0  0  1  0  0  0  0  0  0  0  0  0
   11.3102  -14.1831   27.9701 C   0  0  0  0  0  0  0  0  0  0  0  0
    9.9095  -16.2483   27.9874 C   0  0  0  0  0  0  0  0  0  0  0  0
   10.3488  -16.7186   26.6468 C   0  0  2  0  0  0  0  0  0  0  0  0
    9.3796  -16.3303   25.6171 N   0  0  0  0  0  0  0  0  0  0  0  0
   10.5166  -18.1763   26.6187 C   0  0  0  0  0  0  0  0  0  0  0  0
   11.2532  -18.8237   27.3784 O   0  0  0  0  0  0  0  0  0  0  0  0
    9.8082  -18.9520   25.6737 O   0  0  0  0  0  0  0  0  0  0  0  0
  2  1  1  1
  3  2  1  0
  4  2  1  0
  4  5  1  6
  6  4  1  0
  7  6  2  0
  8  9  1  0
  9 10  1  0
 11 10  1  0
 12 11  1  1
 12 13  1  0
 13  6  1  0
 14 12  1  0
 14 15  2  0
 17 16  1  1
 17 18  1  0
 20 19  1  1
 19 17  1  0
 20 21  1  0
 21 14  1  0
 22 20  1  0
 23 22  2  0
 24 22  1  0
M  END
$$$$
