TML.pdb
     RDKit          3D

 24 23  0  0  1  0  0  0  0  0999 V2000
   10.1738  -18.9519   21.8639 C   0  0  0  0  0  0  0  0  0  0  0  0
   10.6310  -18.0169   20.7874 C   0  0  1  0  0  0  0  0  0  0  0  0
   10.8562  -18.6934   19.5976 O   0  0  0  0  0  0  0  0  0  0  0  0
    9.6248  -16.8789   20.6008 C   0  0  2  0  0  0  0  0  0  0  0  0
   10.1097  -15.9818   19.5614 N   0  0  0  0  0  0  0  0  0  0  0  0
    9.6092  -16.1284   21.8817 C   0  0  0  0  0  0  0  0  0  0  0  0
   10.5799  -15.3868   22.1818 O   0  0  0  0  0  0  0  0  0  0  0  0
    6.8551  -11.5766   25.7463 C   0  0  0  0  0  0  0  0  0  0  0  0
    5.8013  -13.0431   25.5426 S   0  0  0  0  0  0  0  0  0  0  0  0
    6.7867  -14.5753   25.7080 C   0  0  0  0  0  0  0  0  0  0  0  0
    7.0584  -15.1988   24.3968 C   0  0  0  0  0  0  0  0  0  0  0  0
    8.4906  -15.4192   24.0317 C   0  0  2  0  0  0  0  0  0  0  0  0
    8.5465  -16.2071   22.7893 N   0  0  0  0  0  0  0  0  0  0  0  0
    9.2764  -16.1716   25.0415 C   0  0  0  0  0  0  0  0  0  0  0  0
    9.4150  -17.4409   24.8950 O   0  0  0  0  0  0  0  0  0  0  0  0
   10.7852  -14.0178   29.9177 C   0  0  0  0  0  0  0  0  0  0  0  0
   10.3702  -14.5375   28.5565 C   0  0  1  0  0  0  0  0  0  0  0  0
   10.3896  -13.3856   27.5372 C   0  0  0  0  0  0  0  0  0  0  0  0
   11.3236  -15.6189   28.1437 C   0  0  0  0  0  0  0  0  0  0  0  0
   10.7654  -16.4372   27.0345 C   0  0  2  0  0  0  0  0  0  0  0  0
    9.9045  -15.6228   26.1709 N   0  0  0  0  0  0  0  0  0  0  0  0
    9.9906  -17.5742   27.5449 C   0  0  0  0  0  0  0  0  0  0  0  0
   10.4552  -18.5113   28.2119 O   0  0  0  0  0  0  0  0  0  0  0  0
    8.6040  -17.6587   27.2862 O   0  0  0  0  0  0  0  0  0  0  0  0
  2  1  1  1
  3  2  1  0
  4  2  1  0
  4  5  1  6
  6  4  1  0
  7  6  2  0
  8  9  1  0
  9 10  1  0
 11 10  1  0
 12 11  1  1
 12 13  1  0
 13  6  1  0
 14 12  1  0
 14 15  2  0
 17 16  1  1
 17 18  1  0
 20 19  1  1
 19 17  1  0
 20 21  1  0
 21 14  1  0
 22 20  1  0
 23 22  2  0
 24 22  1  0
M  END
$$$$
