TML.pdb
     RDKit          3D

 24 23  0  0  1  0  0  0  0  0999 V2000
    6.6844  -17.9246   21.2567 C   0  0  0  0  0  0  0  0  0  0  0  0
    7.5028  -17.5967   20.0464 C   0  0  1  0  0  0  0  0  0  0  0  0
    7.0964  -18.3417   18.9492 O   0  0  0  0  0  0  0  0  0  0  0  0
    7.4502  -16.0957   19.7525 C   0  0  2  0  0  0  0  0  0  0  0  0
    8.2206  -15.8202   18.5480 N   0  0  0  0  0  0  0  0  0  0  0  0
    8.1293  -15.4287   20.8919 C   0  0  0  0  0  0  0  0  0  0  0  0
    9.3828  -15.3244   20.8965 O   0  0  0  0  0  0  0  0  0  0  0  0
    6.7115  -11.9779   27.7013 C   0  0  0  0  0  0  0  0  0  0  0  0
    7.1373  -13.2594   26.4852 S   0  0  0  0  0  0  0  0  0  0  0  0
    7.6489  -12.5024   24.9005 C   0  0  0  0  0  0  0  0  0  0  0  0
    7.1557  -13.2705   23.7393 C   0  0  0  0  0  0  0  0  0  0  0  0
    8.0934  -14.2628   23.1317 C   0  0  2  0  0  0  0  0  0  0  0  0
    7.4292  -14.8997   21.9825 N   0  0  0  0  0  0  0  0  0  0  0  0
    8.5037  -15.3617   24.0412 C   0  0  0  0  0  0  0  0  0  0  0  0
    7.6169  -16.2098   24.4237 O   0  0  0  0  0  0  0  0  0  0  0  0
   12.7409  -18.3598   23.2556 C   0  0  0  0  0  0  0  0  0  0  0  0
   11.3446  -17.9287   23.6550 C   0  0  1  0  0  0  0  0  0  0  0  0
   10.4024  -19.1443   23.6278 C   0  0  0  0  0  0  0  0  0  0  0  0
   11.3992  -17.3387   25.0326 C   0  0  0  0  0  0  0  0  0  0  0  0
   10.1000  -16.7199   25.4076 C   0  0  2  0  0  0  0  0  0  0  0  0
    9.7988  -15.5780   24.5383 N   0  0  0  0  0  0  0  0  0  0  0  0
   10.1047  -16.2684   26.8039 C   0  0  0  0  0  0  0  0  0  0  0  0
   10.1741  -15.0853   27.1703 O   0  0  0  0  0  0  0  0  0  0  0  0
   10.0257  -17.2120   27.8529 O   0  0  0  0  0  0  0  0  0  0  0  0
  2  1  1  1
  3  2  1  0
  4  2  1  0
  4  5  1  6
  6  4  1  0
  7  6  2  0
  8  9  1  0
  9 10  1  0
 11 10  1  0
 12 11  1  1
 12 13  1  0
 13  6  1  0
 14 12  1  0
 14 15  2  0
 17 16  1  1
 17 18  1  0
 20 19  1  6
 19 17  1  0
 20 21  1  0
 21 14  1  0
 22 20  1  0
 23 22  2  0
 24 22  1  0
M  END
$$$$
