TML.pdb
     RDKit          3D

 24 23  0  0  1  0  0  0  0  0999 V2000
    7.3379  -20.8336   23.2132 C   0  0  0  0  0  0  0  0  0  0  0  0
    8.0378  -19.5155   23.3353 C   0  0  1  0  0  0  0  0  0  0  0  0
    9.4091  -19.6851   23.4575 O   0  0  0  0  0  0  0  0  0  0  0  0
    7.6905  -18.6108   22.1508 C   0  0  2  0  0  0  0  0  0  0  0  0
    8.3089  -19.1467   20.9464 N   0  0  0  0  0  0  0  0  0  0  0  0
    8.3161  -17.2956   22.4395 C   0  0  0  0  0  0  0  0  0  0  0  0
    9.4189  -17.0003   21.9114 O   0  0  0  0  0  0  0  0  0  0  0  0
    5.3425  -12.3241   26.3104 C   0  0  0  0  0  0  0  0  0  0  0  0
    7.1595  -12.2975   26.3051 S   0  0  0  0  0  0  0  0  0  0  0  0
    7.8093  -12.8376   24.6828 C   0  0  0  0  0  0  0  0  0  0  0  0
    7.3848  -14.2128   24.3503 C   0  0  0  0  0  0  0  0  0  0  0  0
    8.3810  -15.0832   23.6551 C   0  0  2  0  0  0  0  0  0  0  0  0
    7.7273  -16.3499   23.2869 N   0  0  0  0  0  0  0  0  0  0  0  0
    9.5640  -15.4444   24.4755 C   0  0  0  0  0  0  0  0  0  0  0  0
   10.6763  -14.8395   24.2545 O   0  0  0  0  0  0  0  0  0  0  0  0
   10.6403  -15.6142   29.3755 C   0  0  0  0  0  0  0  0  0  0  0  0
   10.2220  -15.0463   28.0348 C   0  0  1  0  0  0  0  0  0  0  0  0
   10.1243  -13.5143   28.1319 C   0  0  0  0  0  0  0  0  0  0  0  0
   11.2392  -15.4424   27.0064 C   0  0  0  0  0  0  0  0  0  0  0  0
   10.8150  -16.6616   26.2681 C   0  0  2  0  0  0  0  0  0  0  0  0
    9.5928  -16.4042   25.4998 N   0  0  0  0  0  0  0  0  0  0  0  0
   10.5767  -17.7854   27.1814 C   0  0  0  0  0  0  0  0  0  0  0  0
    9.4773  -18.3268   27.3737 O   0  0  0  0  0  0  0  0  0  0  0  0
   11.6470  -18.3326   27.9242 O   0  0  0  0  0  0  0  0  0  0  0  0
  2  1  1  6
  3  2  1  0
  4  2  1  0
  4  5  1  6
  6  4  1  0
  7  6  2  0
  8  9  1  0
  9 10  1  0
 11 10  1  0
 12 11  1  1
 12 13  1  0
 13  6  1  0
 14 12  1  0
 14 15  2  0
 17 16  1  1
 17 18  1  0
 20 19  1  1
 19 17  1  0
 20 21  1  0
 21 14  1  0
 22 20  1  0
 23 22  2  0
 24 22  1  0
M  END
$$$$
