TML.pdb
     RDKit          3D

 24 23  0  0  1  0  0  0  0  0999 V2000
   10.0106  -19.1830   21.6997 C   0  0  0  0  0  0  0  0  0  0  0  0
   10.4908  -18.4656   20.4762 C   0  0  1  0  0  0  0  0  0  0  0  0
   10.6275  -19.3365   19.4052 O   0  0  0  0  0  0  0  0  0  0  0  0
    9.5571  -17.3023   20.1341 C   0  0  2  0  0  0  0  0  0  0  0  0
    9.9866  -16.7017   18.8790 N   0  0  0  0  0  0  0  0  0  0  0  0
    9.7421  -16.2954   21.2095 C   0  0  0  0  0  0  0  0  0  0  0  0
   10.6696  -15.4504   21.1198 O   0  0  0  0  0  0  0  0  0  0  0  0
    5.7252  -11.7756   26.1965 C   0  0  0  0  0  0  0  0  0  0  0  0
    5.8605  -12.9343   24.8032 S   0  0  0  0  0  0  0  0  0  0  0  0
    7.5485  -13.6320   24.7041 C   0  0  0  0  0  0  0  0  0  0  0  0
    7.6922  -14.5657   23.5687 C   0  0  0  0  0  0  0  0  0  0  0  0
    9.0344  -15.1910   23.3673 C   0  0  2  0  0  0  0  0  0  0  0  0
    8.9189  -16.2393   22.3401 N   0  0  0  0  0  0  0  0  0  0  0  0
    9.5975  -15.8463   24.5743 C   0  0  0  0  0  0  0  0  0  0  0  0
    9.1466  -16.9999   24.9173 O   0  0  0  0  0  0  0  0  0  0  0  0
   11.8997  -15.5167   29.5169 C   0  0  0  0  0  0  0  0  0  0  0  0
   10.4925  -15.0877   29.1550 C   0  0  1  0  0  0  0  0  0  0  0  0
   10.0442  -13.9507   30.0891 C   0  0  0  0  0  0  0  0  0  0  0  0
   10.4820  -14.6283   27.7276 C   0  0  0  0  0  0  0  0  0  0  0  0
   10.7467  -15.7558   26.7948 C   0  0  2  0  0  0  0  0  0  0  0  0
   10.6032  -15.3216   25.4015 N   0  0  0  0  0  0  0  0  0  0  0  0
    9.8356  -16.8797   27.0406 C   0  0  0  0  0  0  0  0  0  0  0  0
    8.5973  -16.8066   27.0403 O   0  0  0  0  0  0  0  0  0  0  0  0
   10.3551  -18.1674   27.3030 O   0  0  0  0  0  0  0  0  0  0  0  0
  2  1  1  1
  3  2  1  0
  4  2  1  0
  4  5  1  6
  6  4  1  0
  7  6  2  0
  8  9  1  0
  9 10  1  0
 11 10  1  0
 12 11  1  1
 12 13  1  0
 13  6  1  0
 14 12  1  0
 14 15  2  0
 17 16  1  1
 17 18  1  0
 20 19  1  1
 19 17  1  0
 20 21  1  0
 21 14  1  0
 22 20  1  0
 23 22  2  0
 24 22  1  0
M  END
$$$$
