KIY.pdb
     RDKit          3D

 30 30  0  0  1  0  0  0  0  0999 V2000
   10.3613  -18.3885   17.7438 N   0  0  0  0  0  0  0  0  0  0  0  0
    9.5332  -18.3634   18.9074 C   0  0  1  0  0  0  0  0  0  0  0  0
    9.7707  -19.5899   19.7309 C   0  0  0  0  0  0  0  0  0  0  0  0
   10.5163  -20.6863   19.0709 C   0  0  0  0  0  0  0  0  0  0  0  0
   10.6318  -21.9674   19.8194 C   0  0  0  0  0  0  0  0  0  0  0  0
   11.3570  -23.0539   19.0753 C   0  0  0  0  0  0  0  0  0  0  0  0
   12.4919  -23.5369   19.8725 N   0  0  0  0  0  0  0  0  0  0  0  0
    9.7582  -17.1116   19.6716 C   0  0  0  0  0  0  0  0  0  0  0  0
   10.8762  -16.5558   19.5771 O   0  0  0  0  0  0  0  0  0  0  0  0
    6.3506  -13.1059   19.6863 C   0  0  0  0  0  0  0  0  0  0  0  0
    7.6151  -13.9856   19.6301 C   0  0  0  0  0  0  0  0  0  0  0  0
    7.9179  -14.3656   21.0476 C   0  0  2  0  0  0  0  0  0  0  0  0
    7.9446  -13.1473   21.9439 C   0  0  0  0  0  0  0  0  0  0  0  0
    9.0853  -15.2680   21.2503 C   0  0  2  0  0  0  0  0  0  0  0  0
    8.7893  -16.4955   20.5077 N   0  0  0  0  0  0  0  0  0  0  0  0
    9.4891  -15.5494   22.6214 C   0  0  0  0  0  0  0  0  0  0  0  0
    8.7518  -16.3409   23.3226 O   0  0  0  0  0  0  0  0  0  0  0  0
   10.3864  -15.5854   31.0449 O   0  0  0  0  0  0  0  0  0  0  0  0
   10.1981  -15.4483   29.6616 C   0  0  0  0  0  0  0  0  0  0  0  0
   10.0567  -16.5370   28.8378 C   0  0  0  0  0  0  0  0  0  0  0  0
    9.8736  -16.3599   27.4863 C   0  0  0  0  0  0  0  0  0  0  0  0
    9.8317  -15.0698   26.9528 C   0  0  0  0  0  0  0  0  0  0  0  0
    9.6565  -14.8962   25.5088 C   0  0  0  0  0  0  0  0  0  0  0  0
   10.8545  -15.2985   24.7168 C   0  0  2  0  0  0  0  0  0  0  0  0
   10.6361  -15.0361   23.2790 N   0  0  0  0  0  0  0  0  0  0  0  0
   11.1339  -16.7344   24.8960 C   0  0  0  0  0  0  0  0  0  0  0  0
   10.3392  -17.7358   24.3401 O   0  0  0  0  0  0  0  0  0  0  0  0
    9.9765  -14.0050   27.8036 C   0  0  0  0  0  0  0  0  0  0  0  0
   10.1616  -14.1766   29.1697 C   0  0  0  0  0  0  0  0  0  0  0  0
   12.1167  -17.1320   25.5688 O   0  0  0  0  0  0  0  0  0  0  0  0
  2  3  1  0
  2  1  1  6
  3  4  1  0
  4  5  1  0
  5  6  1  0
  7  6  1  0
  8  9  2  0
  8  2  1  0
 10 11  1  0
 11 12  1  0
 12 14  1  0
 12 13  1  1
 14 15  1  1
 15  8  1  0
 16 14  1  0
 16 17  2  0
 18 19  1  0
 19 29  2  0
 20 21  2  0
 20 19  1  0
 21 22  1  0
 22 23  1  0
 22 28  2  0
 24 25  1  0
 24 23  1  1
 25 16  1  0
 26 24  1  0
 27 26  1  0
 29 28  1  0
 30 26  2  0
M  END
$$$$
