KIY.pdb
     RDKit          3D

 30 30  0  0  1  0  0  0  0  0999 V2000
    7.4393  -19.3272   19.7038 N   0  0  0  0  0  0  0  0  0  0  0  0
    6.8924  -18.4186   20.6606 C   0  0  1  0  0  0  0  0  0  0  0  0
    6.4997  -19.1573   21.9013 C   0  0  0  0  0  0  0  0  0  0  0  0
    5.6174  -20.3316   21.7113 C   0  0  0  0  0  0  0  0  0  0  0  0
    5.1673  -21.0409   22.9398 C   0  0  0  0  0  0  0  0  0  0  0  0
    4.2073  -22.1694   22.6844 C   0  0  0  0  0  0  0  0  0  0  0  0
    4.8435  -23.1882   21.8396 N   0  0  0  0  0  0  0  0  0  0  0  0
    7.8509  -17.3188   20.9317 C   0  0  0  0  0  0  0  0  0  0  0  0
    9.0740  -17.5864   20.9211 O   0  0  0  0  0  0  0  0  0  0  0  0
    7.1199  -12.3615   19.1938 C   0  0  0  0  0  0  0  0  0  0  0  0
    7.7707  -13.7163   19.5354 C   0  0  0  0  0  0  0  0  0  0  0  0
    8.0363  -13.6875   21.0099 C   0  0  2  0  0  0  0  0  0  0  0  0
    8.9341  -12.5273   21.3786 C   0  0  0  0  0  0  0  0  0  0  0  0
    8.4601  -14.9756   21.6259 C   0  0  2  0  0  0  0  0  0  0  0  0
    7.4768  -15.9759   21.2039 N   0  0  0  0  0  0  0  0  0  0  0  0
    8.6684  -14.9964   23.0676 C   0  0  0  0  0  0  0  0  0  0  0  0
    8.0157  -14.1507   23.7890 O   0  0  0  0  0  0  0  0  0  0  0  0
    5.0222  -11.7679   27.0821 O   0  0  0  0  0  0  0  0  0  0  0  0
    5.7935  -12.8916   26.7499 C   0  0  0  0  0  0  0  0  0  0  0  0
    5.2308  -14.0268   26.2224 C   0  0  0  0  0  0  0  0  0  0  0  0
    6.0221  -15.1074   25.9098 C   0  0  0  0  0  0  0  0  0  0  0  0
    7.4000  -15.0479   26.1302 C   0  0  0  0  0  0  0  0  0  0  0  0
    8.2283  -16.2136   25.8118 C   0  0  0  0  0  0  0  0  0  0  0  0
    9.5638  -15.8535   25.2542 C   0  0  2  0  0  0  0  0  0  0  0  0
    9.5297  -15.8719   23.7769 N   0  0  0  0  0  0  0  0  0  0  0  0
   10.5894  -16.8074   25.7130 C   0  0  0  0  0  0  0  0  0  0  0  0
   11.0082  -16.8889   27.0402 O   0  0  0  0  0  0  0  0  0  0  0  0
    7.9290  -13.8992   26.6586 C   0  0  0  0  0  0  0  0  0  0  0  0
    7.1357  -12.8040   26.9764 C   0  0  0  0  0  0  0  0  0  0  0  0
   11.1446  -17.6055   24.9184 O   0  0  0  0  0  0  0  0  0  0  0  0
  2  3  1  0
  2  1  1  6
  3  4  1  0
  4  5  1  0
  5  6  1  0
  7  6  1  0
  8  9  2  0
  8  2  1  0
 10 11  1  0
 11 12  1  0
 12 14  1  0
 12 13  1  6
 14 15  1  1
 15  8  1  0
 16 14  1  0
 16 17  2  0
 18 19  1  0
 19 29  2  0
 20 21  2  0
 20 19  1  0
 21 22  1  0
 22 23  1  0
 22 28  2  0
 24 25  1  0
 24 23  1  1
 25 16  1  0
 26 24  1  0
 27 26  1  0
 29 28  1  0
 30 26  2  0
M  END
$$$$
