KIY.pdb
     RDKit          3D

 30 30  0  0  1  0  0  0  0  0999 V2000
    6.5016  -17.0193   20.5575 N   0  0  0  0  0  0  0  0  0  0  0  0
    7.7080  -16.4530   20.0434 C   0  0  1  0  0  0  0  0  0  0  0  0
    7.4127  -15.6455   18.8187 C   0  0  0  0  0  0  0  0  0  0  0  0
    8.1189  -16.0517   17.5818 C   0  0  0  0  0  0  0  0  0  0  0  0
    7.3227  -16.7897   16.5638 C   0  0  0  0  0  0  0  0  0  0  0  0
    7.4112  -16.2165   15.1767 C   0  0  0  0  0  0  0  0  0  0  0  0
    8.7548  -16.4380   14.6268 N   0  0  0  0  0  0  0  0  0  0  0  0
    8.3939  -15.6625   21.0953 C   0  0  0  0  0  0  0  0  0  0  0  0
    9.4571  -15.0747   20.7923 O   0  0  0  0  0  0  0  0  0  0  0  0
    5.8798  -12.5872   24.5381 C   0  0  0  0  0  0  0  0  0  0  0  0
    6.8892  -13.1389   23.5121 C   0  0  0  0  0  0  0  0  0  0  0  0
    7.7966  -14.0546   24.2760 C   0  0  2  0  0  0  0  0  0  0  0  0
    8.4750  -13.3240   25.4136 C   0  0  0  0  0  0  0  0  0  0  0  0
    8.7367  -14.8755   23.4631 C   0  0  2  0  0  0  0  0  0  0  0  0
    7.9268  -15.5246   22.4295 N   0  0  0  0  0  0  0  0  0  0  0  0
    9.5800  -15.8309   24.1690 C   0  0  0  0  0  0  0  0  0  0  0  0
    9.0458  -16.9329   24.5714 O   0  0  0  0  0  0  0  0  0  0  0  0
   11.5001  -16.4709   32.1884 O   0  0  0  0  0  0  0  0  0  0  0  0
   11.2870  -16.0894   30.8554 C   0  0  0  0  0  0  0  0  0  0  0  0
   11.0896  -14.7787   30.4992 C   0  0  0  0  0  0  0  0  0  0  0  0
   10.8841  -14.4460   29.1806 C   0  0  0  0  0  0  0  0  0  0  0  0
   10.8764  -15.4444   28.2039 C   0  0  0  0  0  0  0  0  0  0  0  0
   10.6360  -15.0782   26.8059 C   0  0  0  0  0  0  0  0  0  0  0  0
   11.4567  -15.8651   25.8407 C   0  0  2  0  0  0  0  0  0  0  0  0
   10.9587  -15.6743   24.4625 N   0  0  0  0  0  0  0  0  0  0  0  0
   11.4015  -17.3013   26.1665 C   0  0  0  0  0  0  0  0  0  0  0  0
   12.2725  -17.9068   27.0710 O   0  0  0  0  0  0  0  0  0  0  0  0
   11.0763  -16.7429   28.5942 C   0  0  0  0  0  0  0  0  0  0  0  0
   11.2847  -17.0860   29.9241 C   0  0  0  0  0  0  0  0  0  0  0  0
   10.5541  -18.0616   25.6367 O   0  0  0  0  0  0  0  0  0  0  0  0
  2  3  1  0
  2  1  1  1
  3  4  1  0
  4  5  1  0
  5  6  1  0
  7  6  1  0
  8  9  2  0
  8  2  1  0
 10 11  1  0
 11 12  1  0
 12 14  1  0
 12 13  1  1
 14 15  1  6
 15  8  1  0
 16 14  1  0
 16 17  2  0
 18 19  1  0
 19 29  2  0
 20 21  2  0
 20 19  1  0
 21 22  1  0
 22 23  1  0
 22 28  2  0
 24 25  1  0
 24 23  1  1
 25 16  1  0
 26 24  1  0
 27 26  1  0
 29 28  1  0
 30 26  2  0
M  END
$$$$
