KIY.pdb
     RDKit          3D

 30 30  0  0  1  0  0  0  0  0999 V2000
    5.5747  -17.3205   23.2268 N   0  0  0  0  0  0  0  0  0  0  0  0
    6.9314  -17.2793   22.7818 C   0  0  1  0  0  0  0  0  0  0  0  0
    6.9799  -16.9864   21.3151 C   0  0  0  0  0  0  0  0  0  0  0  0
    6.6405  -18.1103   20.4124 C   0  0  0  0  0  0  0  0  0  0  0  0
    6.7258  -17.8483   18.9499 C   0  0  0  0  0  0  0  0  0  0  0  0
    6.1985  -18.9638   18.0910 C   0  0  0  0  0  0  0  0  0  0  0  0
    6.2212  -18.5633   16.6783 N   0  0  0  0  0  0  0  0  0  0  0  0
    7.7062  -16.3007   23.5842 C   0  0  0  0  0  0  0  0  0  0  0  0
    8.9009  -16.0954   23.2709 O   0  0  0  0  0  0  0  0  0  0  0  0
    5.4154  -12.0297   25.8666 C   0  0  0  0  0  0  0  0  0  0  0  0
    6.4039  -12.8998   25.0656 C   0  0  0  0  0  0  0  0  0  0  0  0
    7.1975  -13.6651   26.0804 C   0  0  2  0  0  0  0  0  0  0  0  0
    7.9415  -12.7298   27.0076 C   0  0  0  0  0  0  0  0  0  0  0  0
    8.0489  -14.7674   25.5527 C   0  0  2  0  0  0  0  0  0  0  0  0
    7.1852  -15.5760   24.6890 N   0  0  0  0  0  0  0  0  0  0  0  0
    8.7660  -15.5869   26.5203 C   0  0  0  0  0  0  0  0  0  0  0  0
    8.1301  -15.9891   27.5671 O   0  0  0  0  0  0  0  0  0  0  0  0
    6.3027  -21.2812   27.7541 O   0  0  0  0  0  0  0  0  0  0  0  0
    7.4751  -20.5203   27.6341 C   0  0  0  0  0  0  0  0  0  0  0  0
    8.3948  -20.4406   28.6498 C   0  0  0  0  0  0  0  0  0  0  0  0
    9.5321  -19.6835   28.4923 C   0  0  0  0  0  0  0  0  0  0  0  0
    9.7501  -18.9953   27.2967 C   0  0  0  0  0  0  0  0  0  0  0  0
   10.9558  -18.1762   27.1501 C   0  0  0  0  0  0  0  0  0  0  0  0
   10.7501  -16.7499   27.5345 C   0  0  2  0  0  0  0  0  0  0  0  0
   10.1191  -16.0016   26.4274 N   0  0  0  0  0  0  0  0  0  0  0  0
   12.0381  -16.1117   27.8599 C   0  0  0  0  0  0  0  0  0  0  0  0
   12.5546  -15.0370   27.1378 O   0  0  0  0  0  0  0  0  0  0  0  0
    8.8113  -19.0964   26.3032 C   0  0  0  0  0  0  0  0  0  0  0  0
    7.6604  -19.8594   26.4554 C   0  0  0  0  0  0  0  0  0  0  0  0
   12.7441  -16.5113   28.8183 O   0  0  0  0  0  0  0  0  0  0  0  0
  2  3  1  0
  2  1  1  1
  3  4  1  0
  4  5  1  0
  5  6  1  0
  7  6  1  0
  8  9  2  0
  8  2  1  0
 10 11  1  0
 11 12  1  0
 12 14  1  0
 12 13  1  6
 14 15  1  1
 15  8  1  0
 16 14  1  0
 16 17  2  0
 18 19  1  0
 19 29  2  0
 20 21  2  0
 20 19  1  0
 21 22  1  0
 22 23  1  0
 22 28  2  0
 24 25  1  0
 24 23  1  6
 25 16  1  0
 26 24  1  0
 27 26  1  0
 29 28  1  0
 30 26  2  0
M  END
$$$$
