KIY.pdb
     RDKit          3D

 30 30  0  0  1  0  0  0  0  0999 V2000
    9.6427  -18.5808   17.8473 N   0  0  0  0  0  0  0  0  0  0  0  0
    9.1625  -18.3459   19.1719 C   0  0  1  0  0  0  0  0  0  0  0  0
    9.6590  -19.4154   20.0932 C   0  0  0  0  0  0  0  0  0  0  0  0
    9.2749  -20.8040   19.7499 C   0  0  0  0  0  0  0  0  0  0  0  0
    9.7157  -21.8748   20.6849 C   0  0  0  0  0  0  0  0  0  0  0  0
    9.3594  -23.2665   20.2416 C   0  0  0  0  0  0  0  0  0  0  0  0
   10.5493  -23.9446   19.7115 N   0  0  0  0  0  0  0  0  0  0  0  0
    9.5425  -16.9842   19.6225 C   0  0  0  0  0  0  0  0  0  0  0  0
   10.6177  -16.5016   19.1998 O   0  0  0  0  0  0  0  0  0  0  0  0
    6.0818  -12.9493   19.8857 C   0  0  0  0  0  0  0  0  0  0  0  0
    7.4010  -13.6935   19.5996 C   0  0  0  0  0  0  0  0  0  0  0  0
    8.0079  -13.9887   20.9375 C   0  0  2  0  0  0  0  0  0  0  0  0
    8.1881  -12.7222   21.7449 C   0  0  0  0  0  0  0  0  0  0  0  0
    9.2176  -14.8576   20.9325 C   0  0  2  0  0  0  0  0  0  0  0  0
    8.7681  -16.1846   20.5048 N   0  0  0  0  0  0  0  0  0  0  0  0
   10.0060  -14.9218   22.1557 C   0  0  0  0  0  0  0  0  0  0  0  0
   10.4650  -13.8198   22.6423 O   0  0  0  0  0  0  0  0  0  0  0  0
   10.7005  -14.8957   30.5740 O   0  0  0  0  0  0  0  0  0  0  0  0
   10.4013  -15.0678   29.2144 C   0  0  0  0  0  0  0  0  0  0  0  0
   10.1866  -16.3097   28.6708 C   0  0  0  0  0  0  0  0  0  0  0  0
    9.8955  -16.4357   27.3326 C   0  0  0  0  0  0  0  0  0  0  0  0
    9.8185  -15.2975   26.5269 C   0  0  0  0  0  0  0  0  0  0  0  0
    9.5277  -15.4479   25.0990 C   0  0  0  0  0  0  0  0  0  0  0  0
   10.6680  -16.0128   24.3212 C   0  0  2  0  0  0  0  0  0  0  0  0
   10.3251  -16.0949   22.8861 N   0  0  0  0  0  0  0  0  0  0  0  0
   11.0025  -17.3648   24.8031 C   0  0  0  0  0  0  0  0  0  0  0  0
   12.1045  -17.6284   25.6152 O   0  0  0  0  0  0  0  0  0  0  0  0
   10.0387  -14.0729   27.1018 C   0  0  0  0  0  0  0  0  0  0  0  0
   10.3330  -13.9383   28.4527 C   0  0  0  0  0  0  0  0  0  0  0  0
   10.3001  -18.3609   24.5010 O   0  0  0  0  0  0  0  0  0  0  0  0
  2  3  1  0
  2  1  1  6
  3  4  1  0
  4  5  1  0
  5  6  1  0
  7  6  1  0
  8  9  2  0
  8  2  1  0
 10 11  1  0
 11 12  1  0
 12 14  1  0
 12 13  1  6
 14 15  1  1
 15  8  1  0
 16 14  1  0
 16 17  2  0
 18 19  1  0
 19 29  2  0
 20 21  2  0
 20 19  1  0
 21 22  1  0
 22 23  1  0
 22 28  2  0
 24 25  1  0
 24 23  1  1
 25 16  1  0
 26 24  1  0
 27 26  1  0
 29 28  1  0
 30 26  2  0
M  END
$$$$
