KIY.pdb
     RDKit          3D

 30 30  0  0  1  0  0  0  0  0999 V2000
    7.3434  -15.3565   19.5623 N   0  0  0  0  0  0  0  0  0  0  0  0
    6.9309  -15.8275   20.8462 C   0  0  1  0  0  0  0  0  0  0  0  0
    6.8888  -17.3233   20.8531 C   0  0  0  0  0  0  0  0  0  0  0  0
    6.4133  -17.9696   19.6082 C   0  0  0  0  0  0  0  0  0  0  0  0
    7.4436  -18.3033   18.5874 C   0  0  0  0  0  0  0  0  0  0  0  0
    6.9731  -19.2562   17.5240 C   0  0  0  0  0  0  0  0  0  0  0  0
    8.0536  -19.5079   16.5618 N   0  0  0  0  0  0  0  0  0  0  0  0
    7.8146  -15.2775   21.9037 C   0  0  0  0  0  0  0  0  0  0  0  0
    8.9868  -14.9681   21.5909 O   0  0  0  0  0  0  0  0  0  0  0  0
    5.7273  -12.1808   25.7703 C   0  0  0  0  0  0  0  0  0  0  0  0
    6.6359  -12.6666   24.6238 C   0  0  0  0  0  0  0  0  0  0  0  0
    7.4959  -13.7464   25.2069 C   0  0  2  0  0  0  0  0  0  0  0  0
    8.2687  -13.2395   26.4044 C   0  0  0  0  0  0  0  0  0  0  0  0
    8.3401  -14.5057   24.2429 C   0  0  2  0  0  0  0  0  0  0  0  0
    7.4223  -15.0760   23.2539 N   0  0  0  0  0  0  0  0  0  0  0  0
    9.2436  -15.5113   24.7856 C   0  0  0  0  0  0  0  0  0  0  0  0
    8.7567  -16.4007   25.5816 O   0  0  0  0  0  0  0  0  0  0  0  0
   11.0555  -16.9984   31.8521 O   0  0  0  0  0  0  0  0  0  0  0  0
   11.1313  -16.4790   30.5512 C   0  0  0  0  0  0  0  0  0  0  0  0
   11.2058  -17.2932   29.4487 C   0  0  0  0  0  0  0  0  0  0  0  0
   11.2787  -16.7443   28.1898 C   0  0  0  0  0  0  0  0  0  0  0  0
   11.2769  -15.3563   28.0346 C   0  0  0  0  0  0  0  0  0  0  0  0
   11.3756  -14.7849   26.6893 C   0  0  0  0  0  0  0  0  0  0  0  0
   11.5930  -15.8097   25.6278 C   0  0  2  0  0  0  0  0  0  0  0  0
   10.6327  -15.6196   24.5207 N   0  0  0  0  0  0  0  0  0  0  0  0
   11.4167  -17.1664   26.1758 C   0  0  0  0  0  0  0  0  0  0  0  0
   10.4501  -18.0538   25.7050 O   0  0  0  0  0  0  0  0  0  0  0  0
   11.2018  -14.5726   29.1566 C   0  0  0  0  0  0  0  0  0  0  0  0
   11.1278  -15.1203   30.4311 C   0  0  0  0  0  0  0  0  0  0  0  0
   12.1398  -17.5959   27.1082 O   0  0  0  0  0  0  0  0  0  0  0  0
  2  3  1  0
  2  1  1  6
  3  4  1  0
  4  5  1  0
  5  6  1  0
  7  6  1  0
  8  9  2  0
  8  2  1  0
 10 11  1  0
 11 12  1  0
 12 14  1  0
 12 13  1  1
 14 15  1  6
 15  8  1  0
 16 14  1  0
 16 17  2  0
 18 19  1  0
 19 29  2  0
 20 21  2  0
 20 19  1  0
 21 22  1  0
 22 23  1  0
 22 28  2  0
 24 25  1  0
 24 23  1  1
 25 16  1  0
 26 24  1  0
 27 26  1  0
 29 28  1  0
 30 26  2  0
M  END
$$$$
