KIY.pdb
     RDKit          3D

 30 30  0  0  1  0  0  0  0  0999 V2000
    9.1151  -15.4943   20.8450 N   0  0  0  0  0  0  0  0  0  0  0  0
    8.5539  -16.0782   22.0216 C   0  0  1  0  0  0  0  0  0  0  0  0
    8.8730  -17.5393   22.0697 C   0  0  0  0  0  0  0  0  0  0  0  0
    8.5190  -18.3257   20.8656 C   0  0  0  0  0  0  0  0  0  0  0  0
    7.0727  -18.4277   20.5297 C   0  0  0  0  0  0  0  0  0  0  0  0
    6.7745  -19.3032   19.3445 C   0  0  0  0  0  0  0  0  0  0  0  0
    5.3462  -19.2275   19.0113 N   0  0  0  0  0  0  0  0  0  0  0  0
    9.0216  -15.3529   23.2287 C   0  0  0  0  0  0  0  0  0  0  0  0
   10.2269  -15.0187   23.2859 O   0  0  0  0  0  0  0  0  0  0  0  0
    5.9510  -11.8900   25.9708 C   0  0  0  0  0  0  0  0  0  0  0  0
    7.1598  -12.5025   25.2362 C   0  0  0  0  0  0  0  0  0  0  0  0
    7.6942  -13.5719   26.1396 C   0  0  2  0  0  0  0  0  0  0  0  0
    8.0617  -13.0070   27.4938 C   0  0  0  0  0  0  0  0  0  0  0  0
    8.7511  -14.4497   25.5642 C   0  0  2  0  0  0  0  0  0  0  0  0
    8.1938  -15.0088   24.3303 N   0  0  0  0  0  0  0  0  0  0  0  0
    9.3083  -15.4853   26.4240 C   0  0  0  0  0  0  0  0  0  0  0  0
    8.6038  -16.5437   26.6368 O   0  0  0  0  0  0  0  0  0  0  0  0
   13.4392  -18.2575   22.1854 O   0  0  0  0  0  0  0  0  0  0  0  0
   13.2036  -17.9476   23.5332 C   0  0  0  0  0  0  0  0  0  0  0  0
   12.9347  -18.9196   24.4642 C   0  0  0  0  0  0  0  0  0  0  0  0
   12.7094  -18.5741   25.7762 C   0  0  0  0  0  0  0  0  0  0  0  0
   12.7546  -17.2320   26.1602 C   0  0  0  0  0  0  0  0  0  0  0  0
   12.4926  -16.8764   27.5570 C   0  0  0  0  0  0  0  0  0  0  0  0
   11.0514  -16.6158   27.8388 C   0  0  2  0  0  0  0  0  0  0  0  0
   10.5745  -15.4525   27.0621 N   0  0  0  0  0  0  0  0  0  0  0  0
   10.8469  -16.3404   29.2721 C   0  0  0  0  0  0  0  0  0  0  0  0
   11.0585  -17.2961   30.2647 O   0  0  0  0  0  0  0  0  0  0  0  0
   13.0255  -16.2871   25.2050 C   0  0  0  0  0  0  0  0  0  0  0  0
   13.2542  -16.6290   23.8781 C   0  0  0  0  0  0  0  0  0  0  0  0
   10.4659  -15.2139   29.6753 O   0  0  0  0  0  0  0  0  0  0  0  0
  2  3  1  0
  2  1  1  6
  3  4  1  0
  4  5  1  0
  5  6  1  0
  7  6  1  0
  8  9  2  0
  8  2  1  0
 10 11  1  0
 11 12  1  0
 12 14  1  0
 12 13  1  1
 14 15  1  6
 15  8  1  0
 16 14  1  0
 16 17  2  0
 18 19  1  0
 19 29  2  0
 20 21  2  0
 20 19  1  0
 21 22  1  0
 22 23  1  0
 22 28  2  0
 24 25  1  0
 24 23  1  1
 25 16  1  0
 26 24  1  0
 27 26  1  0
 29 28  1  0
 30 26  2  0
M  END
$$$$
