GKK.pdb
     RDKit          3D

 23 22  0  0  1  0  0  0  0  0999 V2000
    8.5369  -12.1947   18.1949 N   0  0  0  0  0  0  0  0  0  0  0  0
    9.2677  -13.3624   18.5858 C   0  0  0  0  0  0  0  0  0  0  0  0
    8.4854  -14.1534   19.5682 C   0  0  0  0  0  0  0  0  0  0  0  0
    7.4722  -13.6395   20.0969 O   0  0  0  0  0  0  0  0  0  0  0  0
    8.8724  -15.4728   19.9092 N   0  0  0  0  0  0  0  0  0  0  0  0
    8.1496  -16.2462   20.9163 C   0  0  1  0  0  0  0  0  0  0  0  0
    8.4558  -17.7144   20.7645 C   0  0  0  0  0  0  0  0  0  0  0  0
    7.8195  -18.6085   21.7661 C   0  0  0  0  0  0  0  0  0  0  0  0
    8.1791  -20.0732   21.5098 C   0  0  0  0  0  0  0  0  0  0  0  0
    7.5826  -20.9580   22.5633 C   0  0  0  0  0  0  0  0  0  0  0  0
    7.9946  -22.3234   22.2909 N   0  0  0  0  0  0  0  0  0  0  0  0
    8.5680  -15.7948   22.2871 C   0  0  0  0  0  0  0  0  0  0  0  0
    9.7706  -15.5799   22.5751 O   0  0  0  0  0  0  0  0  0  0  0  0
    7.6172  -15.5926   23.3148 N   0  0  0  0  0  0  0  0  0  0  0  0
    7.9740  -14.7707   24.4800 C   0  0  1  0  0  0  0  0  0  0  0  0
    6.8790  -13.8120   24.7929 C   0  0  0  0  0  0  0  0  0  0  0  0
    7.1748  -13.0303   26.0358 C   0  0  0  0  0  0  0  0  0  0  0  0
    6.0024  -12.1146   26.3998 C   0  0  0  0  0  0  0  0  0  0  0  0
    6.3700  -11.3810   27.6840 C   0  0  0  0  0  0  0  0  0  0  0  0
    5.2817  -10.5121   28.0837 N   0  0  0  0  0  0  0  0  0  0  0  0
    8.2316  -15.7177   25.5700 C   0  0  0  0  0  0  0  0  0  0  0  0
    7.6149  -16.7950   25.6780 O   0  0  0  0  0  0  0  0  0  0  0  0
    9.1869  -15.4352   26.5289 O   0  0  0  0  0  0  0  0  0  0  0  0
  1  2  1  0
  3  2  1  0
  3  4  2  0
  5  3  1  0
  6  5  1  0
  6 12  1  0
  6  7  1  1
  8  7  1  0
  9  8  1  0
  9 10  1  0
 11 10  1  0
 12 14  1  0
 13 12  2  0
 14 15  1  0
 15 21  1  0
 15 16  1  1
 17 16  1  0
 18 17  1  0
 19 18  1  0
 20 19  1  0
 21 22  2  0
 21 23  1  0
M  END
$$$$
