GKK.pdb
     RDKit          3D

 23 22  0  0  1  0  0  0  0  0999 V2000
    4.2212  -20.2748   23.1832 N   0  0  0  0  0  0  0  0  0  0  0  0
    4.3045  -18.8506   23.3058 C   0  0  0  0  0  0  0  0  0  0  0  0
    5.5942  -18.3621   22.7571 C   0  0  0  0  0  0  0  0  0  0  0  0
    6.5003  -19.1887   22.5007 O   0  0  0  0  0  0  0  0  0  0  0  0
    5.8059  -16.9811   22.5236 N   0  0  0  0  0  0  0  0  0  0  0  0
    7.0721  -16.4797   21.9942 C   0  0  1  0  0  0  0  0  0  0  0  0
    6.8698  -15.1334   21.3469 C   0  0  0  0  0  0  0  0  0  0  0  0
    8.0447  -14.5901   20.6176 C   0  0  0  0  0  0  0  0  0  0  0  0
    7.6924  -13.2934   19.8862 C   0  0  0  0  0  0  0  0  0  0  0  0
    8.8514  -12.8174   19.0624 C   0  0  0  0  0  0  0  0  0  0  0  0
    8.4186  -11.6575   18.3038 N   0  0  0  0  0  0  0  0  0  0  0  0
    8.0627  -16.3431   23.1159 C   0  0  0  0  0  0  0  0  0  0  0  0
    7.7554  -15.8088   24.2093 O   0  0  0  0  0  0  0  0  0  0  0  0
    9.3900  -16.8142   22.9838 N   0  0  0  0  0  0  0  0  0  0  0  0
   10.3109  -16.7144   24.1251 C   0  0  1  0  0  0  0  0  0  0  0  0
   10.2121  -17.9299   24.9786 C   0  0  0  0  0  0  0  0  0  0  0  0
   10.8539  -17.7139   26.3146 C   0  0  0  0  0  0  0  0  0  0  0  0
   10.7482  -18.9706   27.1835 C   0  0  0  0  0  0  0  0  0  0  0  0
   11.4242  -18.6699   28.5158 C   0  0  0  0  0  0  0  0  0  0  0  0
   11.2659  -19.7959   29.4137 N   0  0  0  0  0  0  0  0  0  0  0  0
   11.6452  -16.5325   23.5439 C   0  0  0  0  0  0  0  0  0  0  0  0
   11.9130  -16.8598   22.3718 O   0  0  0  0  0  0  0  0  0  0  0  0
   12.6651  -15.9806   24.2968 O   0  0  0  0  0  0  0  0  0  0  0  0
  1  2  1  0
  3  2  1  0
  3  4  2  0
  5  3  1  0
  6  5  1  0
  6 12  1  0
  6  7  1  1
  8  7  1  0
  9  8  1  0
  9 10  1  0
 11 10  1  0
 12 14  1  0
 13 12  2  0
 14 15  1  0
 15 21  1  0
 15 16  1  6
 17 16  1  0
 18 17  1  0
 19 18  1  0
 20 19  1  0
 21 22  2  0
 21 23  1  0
M  END
$$$$
