GKK.pdb
     RDKit          3D

 23 22  0  0  1  0  0  0  0  0999 V2000
    5.6101  -19.2252   21.0925 N   0  0  0  0  0  0  0  0  0  0  0  0
    5.6006  -17.9220   21.6858 C   0  0  0  0  0  0  0  0  0  0  0  0
    6.8748  -17.2172   21.3985 C   0  0  0  0  0  0  0  0  0  0  0  0
    7.8233  -17.8560   20.8862 O   0  0  0  0  0  0  0  0  0  0  0  0
    7.0249  -15.8405   21.6967 N   0  0  0  0  0  0  0  0  0  0  0  0
    8.2800  -15.1356   21.4465 C   0  0  1  0  0  0  0  0  0  0  0  0
    8.0218  -13.6625   21.2576 C   0  0  0  0  0  0  0  0  0  0  0  0
    7.3050  -13.2926   20.0099 C   0  0  0  0  0  0  0  0  0  0  0  0
    8.2189  -13.4122   18.7889 C   0  0  0  0  0  0  0  0  0  0  0  0
    7.4811  -13.0456   17.5360 C   0  0  0  0  0  0  0  0  0  0  0  0
    8.3821  -13.2296   16.4124 N   0  0  0  0  0  0  0  0  0  0  0  0
    9.2022  -15.3280   22.6172 C   0  0  0  0  0  0  0  0  0  0  0  0
    8.8557  -15.0368   23.7879 O   0  0  0  0  0  0  0  0  0  0  0  0
   10.5064  -15.8483   22.4459 N   0  0  0  0  0  0  0  0  0  0  0  0
   11.3225  -16.1609   23.6278 C   0  0  1  0  0  0  0  0  0  0  0  0
   11.0582  -17.5519   24.0871 C   0  0  0  0  0  0  0  0  0  0  0  0
   11.9222  -17.9159   25.2551 C   0  0  0  0  0  0  0  0  0  0  0  0
   11.7432  -19.3896   25.6316 C   0  0  0  0  0  0  0  0  0  0  0  0
   12.6053  -19.6615   26.8585 C   0  0  0  0  0  0  0  0  0  0  0  0
   12.5120  -21.0599   27.2260 N   0  0  0  0  0  0  0  0  0  0  0  0
   12.7145  -15.9512   23.2159 C   0  0  0  0  0  0  0  0  0  0  0  0
   13.6622  -15.9854   24.0242 O   0  0  0  0  0  0  0  0  0  0  0  0
   13.0205  -15.7045   21.8903 O   0  0  0  0  0  0  0  0  0  0  0  0
  1  2  1  0
  3  2  1  0
  3  4  2  0
  5  3  1  0
  6  5  1  0
  6 12  1  0
  6  7  1  1
  8  7  1  0
  9  8  1  0
  9 10  1  0
 11 10  1  0
 12 14  1  0
 13 12  2  0
 14 15  1  0
 15 21  1  0
 15 16  1  6
 17 16  1  0
 18 17  1  0
 19 18  1  0
 20 19  1  0
 21 22  2  0
 21 23  1  0
M  END
$$$$
