GKK.pdb
     RDKit          3D

 23 22  0  0  1  0  0  0  0  0999 V2000
    6.9138  -18.8812   17.1462 N   0  0  0  0  0  0  0  0  0  0  0  0
    6.0971  -19.8233   17.8505 C   0  0  0  0  0  0  0  0  0  0  0  0
    5.8400  -19.3481   19.2329 C   0  0  0  0  0  0  0  0  0  0  0  0
    6.5499  -18.4294   19.7042 O   0  0  0  0  0  0  0  0  0  0  0  0
    4.8075  -19.9205   20.0158 N   0  0  0  0  0  0  0  0  0  0  0  0
    4.5306  -19.4577   21.3738 C   0  0  1  0  0  0  0  0  0  0  0  0
    3.1549  -19.8985   21.8043 C   0  0  0  0  0  0  0  0  0  0  0  0
    2.0338  -19.4211   20.9542 C   0  0  0  0  0  0  0  0  0  0  0  0
    0.6952  -19.9866   21.4324 C   0  0  0  0  0  0  0  0  0  0  0  0
   -0.4414  -19.3800   20.6652 C   0  0  0  0  0  0  0  0  0  0  0  0
   -1.6581  -20.0821   21.0323 N   0  0  0  0  0  0  0  0  0  0  0  0
    5.5499  -20.0349   22.3151 C   0  0  0  0  0  0  0  0  0  0  0  0
    5.8340  -21.2574   22.3149 O   0  0  0  0  0  0  0  0  0  0  0  0
    6.2348  -19.2183   23.2453 N   0  0  0  0  0  0  0  0  0  0  0  0
    7.3233  -19.7922   24.0491 C   0  0  1  0  0  0  0  0  0  0  0  0
    8.6375  -19.2570   23.5991 C   0  0  0  0  0  0  0  0  0  0  0  0
    9.2322  -20.1052   22.5174 C   0  0  0  0  0  0  0  0  0  0  0  0
   10.5854  -19.5483   22.0653 C   0  0  0  0  0  0  0  0  0  0  0  0
   11.0783  -20.4117   20.9103 C   0  0  0  0  0  0  0  0  0  0  0  0
   12.3664  -19.9325   20.4518 N   0  0  0  0  0  0  0  0  0  0  0  0
    7.0136  -19.4477   25.4407 C   0  0  0  0  0  0  0  0  0  0  0  0
    6.1924  -18.5602   25.7418 O   0  0  0  0  0  0  0  0  0  0  0  0
    7.6376  -20.1129   26.4799 O   0  0  0  0  0  0  0  0  0  0  0  0
  1  2  1  0
  3  2  1  0
  3  4  2  0
  5  3  1  0
  6  5  1  0
  6 12  1  0
  6  7  1  1
  8  7  1  0
  9  8  1  0
  9 10  1  0
 11 10  1  0
 12 14  1  0
 13 12  2  0
 14 15  1  0
 15 21  1  0
 15 16  1  6
 17 16  1  0
 18 17  1  0
 19 18  1  0
 20 19  1  0
 21 22  2  0
 21 23  1  0
M  END
$$$$
