GKK.pdb
     RDKit          3D

 23 22  0  0  1  0  0  0  0  0999 V2000
    5.2504  -19.3850   23.8362 N   0  0  0  0  0  0  0  0  0  0  0  0
    5.4220  -17.9652   23.9065 C   0  0  0  0  0  0  0  0  0  0  0  0
    6.6904  -17.5675   23.2461 C   0  0  0  0  0  0  0  0  0  0  0  0
    7.5019  -18.4566   22.8981 O   0  0  0  0  0  0  0  0  0  0  0  0
    6.9872  -16.2029   23.0089 N   0  0  0  0  0  0  0  0  0  0  0  0
    8.3029  -15.7766   22.5376 C   0  0  1  0  0  0  0  0  0  0  0  0
    8.1788  -14.5235   21.7088 C   0  0  0  0  0  0  0  0  0  0  0  0
    7.6031  -14.7074   20.3516 C   0  0  0  0  0  0  0  0  0  0  0  0
    7.9245  -13.5164   19.4468 C   0  0  0  0  0  0  0  0  0  0  0  0
    7.3260  -13.7079   18.0853 C   0  0  0  0  0  0  0  0  0  0  0  0
    7.6084  -12.5210   17.2981 N   0  0  0  0  0  0  0  0  0  0  0  0
    9.1905  -15.5004   23.7183 C   0  0  0  0  0  0  0  0  0  0  0  0
    8.7212  -15.2386   24.8526 O   0  0  0  0  0  0  0  0  0  0  0  0
   10.5998  -15.5246   23.5982 N   0  0  0  0  0  0  0  0  0  0  0  0
   11.4097  -16.0932   24.6850 C   0  0  1  0  0  0  0  0  0  0  0  0
   10.9380  -17.4648   25.0199 C   0  0  0  0  0  0  0  0  0  0  0  0
   10.8115  -17.6535   26.5004 C   0  0  0  0  0  0  0  0  0  0  0  0
   10.5157  -19.1165   26.8434 C   0  0  0  0  0  0  0  0  0  0  0  0
   10.5731  -19.2567   28.3598 C   0  0  0  0  0  0  0  0  0  0  0  0
   10.2724  -20.6220   28.7401 N   0  0  0  0  0  0  0  0  0  0  0  0
   12.7946  -16.0682   24.2031 C   0  0  0  0  0  0  0  0  0  0  0  0
   13.7700  -16.1962   24.9678 O   0  0  0  0  0  0  0  0  0  0  0  0
   13.0624  -15.8987   22.8572 O   0  0  0  0  0  0  0  0  0  0  0  0
  1  2  1  0
  3  2  1  0
  3  4  2  0
  5  3  1  0
  6  5  1  0
  6 12  1  0
  6  7  1  1
  8  7  1  0
  9  8  1  0
  9 10  1  0
 11 10  1  0
 12 14  1  0
 13 12  2  0
 14 15  1  0
 15 21  1  0
 15 16  1  6
 17 16  1  0
 18 17  1  0
 19 18  1  0
 20 19  1  0
 21 22  2  0
 21 23  1  0
M  END
$$$$
