GKK.pdb
     RDKit          3D

 23 22  0  0  1  0  0  0  0  0999 V2000
   14.9900  -14.9206   16.1291 N   0  0  0  0  0  0  0  0  0  0  0  0
   13.9720  -15.7115   16.7524 C   0  0  0  0  0  0  0  0  0  0  0  0
   13.6139  -15.1391   18.0742 C   0  0  0  0  0  0  0  0  0  0  0  0
   14.5021  -14.5777   18.7568 O   0  0  0  0  0  0  0  0  0  0  0  0
   12.2876  -15.2224   18.5649 N   0  0  0  0  0  0  0  0  0  0  0  0
   11.9379  -14.7628   19.9070 C   0  0  1  0  0  0  0  0  0  0  0  0
   10.4413  -14.6446   20.0439 C   0  0  0  0  0  0  0  0  0  0  0  0
    9.8014  -13.6006   19.2024 C   0  0  0  0  0  0  0  0  0  0  0  0
    8.2821  -13.5984   19.3812 C   0  0  0  0  0  0  0  0  0  0  0  0
    7.6594  -12.4694   18.6156 C   0  0  0  0  0  0  0  0  0  0  0  0
    6.2191  -12.5562   18.7768 N   0  0  0  0  0  0  0  0  0  0  0  0
   12.4490  -15.7473   20.9206 C   0  0  0  0  0  0  0  0  0  0  0  0
   12.2850  -16.9841   20.7836 O   0  0  0  0  0  0  0  0  0  0  0  0
   13.1402  -15.3170   22.0775 N   0  0  0  0  0  0  0  0  0  0  0  0
   13.7605  -16.3129   22.9629 C   0  0  1  0  0  0  0  0  0  0  0  0
   15.1041  -15.8484   23.4043 C   0  0  0  0  0  0  0  0  0  0  0  0
   16.1431  -16.9080   23.2014 C   0  0  0  0  0  0  0  0  0  0  0  0
   17.5277  -16.4061   23.6218 C   0  0  0  0  0  0  0  0  0  0  0  0
   18.4814  -17.5941   23.5837 C   0  0  0  0  0  0  0  0  0  0  0  0
   19.8219  -17.1606   23.9219 N   0  0  0  0  0  0  0  0  0  0  0  0
   12.8241  -16.4912   24.0776 C   0  0  0  0  0  0  0  0  0  0  0  0
   13.0030  -17.3421   24.9701 O   0  0  0  0  0  0  0  0  0  0  0  0
   11.6922  -15.7026   24.1712 O   0  0  0  0  0  0  0  0  0  0  0  0
  1  2  1  0
  3  2  1  0
  3  4  2  0
  5  3  1  0
  6  5  1  0
  6 12  1  0
  6  7  1  6
  8  7  1  0
  9  8  1  0
  9 10  1  0
 11 10  1  0
 12 14  1  0
 13 12  2  0
 14 15  1  0
 15 21  1  0
 15 16  1  1
 17 16  1  0
 18 17  1  0
 19 18  1  0
 20 19  1  0
 21 22  2  0
 21 23  1  0
M  END
$$$$
