GKK.pdb
     RDKit          3D

 23 22  0  0  1  0  0  0  0  0999 V2000
    4.8228  -19.3465   22.3125 N   0  0  0  0  0  0  0  0  0  0  0  0
    4.7957  -17.9497   22.6265 C   0  0  0  0  0  0  0  0  0  0  0  0
    6.1353  -17.3483   22.4103 C   0  0  0  0  0  0  0  0  0  0  0  0
    7.1107  -18.0993   22.1769 O   0  0  0  0  0  0  0  0  0  0  0  0
    6.3170  -15.9445   22.4653 N   0  0  0  0  0  0  0  0  0  0  0  0
    7.6160  -15.3300   22.2009 C   0  0  1  0  0  0  0  0  0  0  0  0
    7.4332  -13.9200   21.6999 C   0  0  0  0  0  0  0  0  0  0  0  0
    6.9005  -13.7948   20.3186 C   0  0  0  0  0  0  0  0  0  0  0  0
    8.0219  -13.5220   19.3144 C   0  0  0  0  0  0  0  0  0  0  0  0
    7.4713  -13.3977   17.9251 C   0  0  0  0  0  0  0  0  0  0  0  0
    8.5708  -13.0808   17.0315 N   0  0  0  0  0  0  0  0  0  0  0  0
    8.4220  -15.3018   23.4688 C   0  0  0  0  0  0  0  0  0  0  0  0
    7.9001  -15.0380   24.5794 O   0  0  0  0  0  0  0  0  0  0  0  0
    9.8103  -15.5731   23.4616 N   0  0  0  0  0  0  0  0  0  0  0  0
   10.4805  -15.9529   24.7135 C   0  0  1  0  0  0  0  0  0  0  0  0
    9.8635  -17.1840   25.2788 C   0  0  0  0  0  0  0  0  0  0  0  0
   10.5530  -17.6132   26.5373 C   0  0  0  0  0  0  0  0  0  0  0  0
    9.9476  -18.9115   27.0790 C   0  0  0  0  0  0  0  0  0  0  0  0
   10.6172  -19.2120   28.4145 C   0  0  0  0  0  0  0  0  0  0  0  0
   10.0337  -20.4011   29.0016 N   0  0  0  0  0  0  0  0  0  0  0  0
   11.8949  -16.1307   24.3686 C   0  0  0  0  0  0  0  0  0  0  0  0
   12.7830  -16.2519   25.2342 O   0  0  0  0  0  0  0  0  0  0  0  0
   12.2909  -16.1697   23.0443 O   0  0  0  0  0  0  0  0  0  0  0  0
  1  2  1  0
  3  2  1  0
  3  4  2  0
  5  3  1  0
  6  5  1  0
  6 12  1  0
  6  7  1  1
  8  7  1  0
  9  8  1  0
  9 10  1  0
 11 10  1  0
 12 14  1  0
 13 12  2  0
 14 15  1  0
 15 21  1  0
 15 16  1  6
 17 16  1  0
 18 17  1  0
 19 18  1  0
 20 19  1  0
 21 22  2  0
 21 23  1  0
M  END
$$$$
