GKK.pdb
     RDKit          3D

 23 22  0  0  1  0  0  0  0  0999 V2000
    5.8630  -19.1438   18.0896 N   0  0  0  0  0  0  0  0  0  0  0  0
    6.1240  -20.3708   18.7801 C   0  0  0  0  0  0  0  0  0  0  0  0
    5.5718  -20.3134   20.1566 C   0  0  0  0  0  0  0  0  0  0  0  0
    5.4886  -19.2049   20.7348 O   0  0  0  0  0  0  0  0  0  0  0  0
    5.1424  -21.4919   20.8149 N   0  0  0  0  0  0  0  0  0  0  0  0
    4.6307  -21.4610   22.1832 C   0  0  1  0  0  0  0  0  0  0  0  0
    3.6688  -22.6002   22.4058 C   0  0  0  0  0  0  0  0  0  0  0  0
    3.0509  -22.6626   23.7554 C   0  0  0  0  0  0  0  0  0  0  0  0
    2.1140  -23.8654   23.8814 C   0  0  0  0  0  0  0  0  0  0  0  0
    1.4014  -23.8469   25.2007 C   0  0  0  0  0  0  0  0  0  0  0  0
    0.5166  -24.9970   25.2508 N   0  0  0  0  0  0  0  0  0  0  0  0
    5.7763  -21.5879   23.1473 C   0  0  0  0  0  0  0  0  0  0  0  0
    6.7006  -22.4186   22.9715 O   0  0  0  0  0  0  0  0  0  0  0  0
    5.8596  -20.7711   24.2992 N   0  0  0  0  0  0  0  0  0  0  0  0
    7.0626  -20.8277   25.1418 C   0  0  1  0  0  0  0  0  0  0  0  0
    7.1848  -19.5867   25.9549 C   0  0  0  0  0  0  0  0  0  0  0  0
    8.4188  -19.6080   26.8034 C   0  0  0  0  0  0  0  0  0  0  0  0
    8.5420  -18.3211   27.6246 C   0  0  0  0  0  0  0  0  0  0  0  0
    9.8707  -18.3730   28.3691 C   0  0  0  0  0  0  0  0  0  0  0  0
   10.0828  -17.1315   29.0852 N   0  0  0  0  0  0  0  0  0  0  0  0
    6.9165  -22.0348   25.9620 C   0  0  0  0  0  0  0  0  0  0  0  0
    5.8061  -22.4535   26.3416 O   0  0  0  0  0  0  0  0  0  0  0  0
    8.0313  -22.7576   26.3449 O   0  0  0  0  0  0  0  0  0  0  0  0
  1  2  1  0
  3  2  1  0
  3  4  2  0
  5  3  1  0
  6  5  1  0
  6 12  1  0
  6  7  1  6
  8  7  1  0
  9  8  1  0
  9 10  1  0
 11 10  1  0
 12 14  1  0
 13 12  2  0
 14 15  1  0
 15 21  1  0
 15 16  1  1
 17 16  1  0
 18 17  1  0
 19 18  1  0
 20 19  1  0
 21 22  2  0
 21 23  1  0
M  END
$$$$
