GKK.pdb
     RDKit          3D

 23 22  0  0  1  0  0  0  0  0999 V2000
   -0.0920  -20.7720   22.1558 N   0  0  0  0  0  0  0  0  0  0  0  0
    0.7110  -19.5973   22.3164 C   0  0  0  0  0  0  0  0  0  0  0  0
    2.1504  -19.9380   22.1940 C   0  0  0  0  0  0  0  0  0  0  0  0
    2.5151  -21.1221   22.3811 O   0  0  0  0  0  0  0  0  0  0  0  0
    3.1057  -18.9434   21.8701 N   0  0  0  0  0  0  0  0  0  0  0  0
    4.5177  -19.2701   21.6844 C   0  0  1  0  0  0  0  0  0  0  0  0
    5.1653  -18.2741   20.7564 C   0  0  0  0  0  0  0  0  0  0  0  0
    6.5807  -18.5547   20.4023 C   0  0  0  0  0  0  0  0  0  0  0  0
    7.0933  -17.5732   19.3467 C   0  0  0  0  0  0  0  0  0  0  0  0
    8.4778  -17.9438   18.9056 C   0  0  0  0  0  0  0  0  0  0  0  0
    8.9338  -16.9393   17.9617 N   0  0  0  0  0  0  0  0  0  0  0  0
    5.2175  -19.2323   23.0136 C   0  0  0  0  0  0  0  0  0  0  0  0
    5.0089  -18.3164   23.8460 O   0  0  0  0  0  0  0  0  0  0  0  0
    6.1457  -20.2340   23.3826 N   0  0  0  0  0  0  0  0  0  0  0  0
    6.7263  -20.2214   24.7329 C   0  0  1  0  0  0  0  0  0  0  0  0
    6.3782  -21.4738   25.4585 C   0  0  0  0  0  0  0  0  0  0  0  0
    7.0733  -21.5498   26.7830 C   0  0  0  0  0  0  0  0  0  0  0  0
    6.7261  -22.8519   27.5107 C   0  0  0  0  0  0  0  0  0  0  0  0
    7.5506  -22.9000   28.7914 C   0  0  0  0  0  0  0  0  0  0  0  0
    7.3068  -24.1470   29.4876 N   0  0  0  0  0  0  0  0  0  0  0  0
    8.1710  -20.0555   24.5424 C   0  0  0  0  0  0  0  0  0  0  0  0
    8.7832  -20.5777   23.5910 O   0  0  0  0  0  0  0  0  0  0  0  0
    8.9100  -19.2983   25.4325 O   0  0  0  0  0  0  0  0  0  0  0  0
  1  2  1  0
  3  2  1  0
  3  4  2  0
  5  3  1  0
  6  5  1  0
  6 12  1  0
  6  7  1  6
  8  7  1  0
  9  8  1  0
  9 10  1  0
 11 10  1  0
 12 14  1  0
 13 12  2  0
 14 15  1  0
 15 21  1  0
 15 16  1  6
 17 16  1  0
 18 17  1  0
 19 18  1  0
 20 19  1  0
 21 22  2  0
 21 23  1  0
M  END
$$$$
