INC.pdb
     RDKit          3D

 23 22  0  0  1  0  0  0  0  0999 V2000
   26.0936  -14.0730  -17.0575 C   0  0  0  0  0  0  0  0  0  0  0  0
   27.0122  -15.1284  -16.5459 C   0  0  0  0  0  0  0  0  0  0  0  0
   26.2859  -16.3510  -16.0122 C   0  0  2  0  0  0  0  0  0  0  0  0
   25.3332  -15.9148  -14.9583 C   0  0  0  0  0  0  0  0  0  0  0  0
   27.3027  -17.3509  -15.5779 C   0  0  2  0  0  0  0  0  0  0  0  0
   28.0829  -17.7130  -16.7723 N   0  0  0  0  0  0  0  0  0  0  0  0
   26.7340  -18.5883  -15.0274 C   0  0  0  0  0  0  0  0  0  0  0  0
   26.3380  -19.4701  -15.8328 O   0  0  0  0  0  0  0  0  0  0  0  0
   25.0965  -22.3241  -11.7329 N   0  0  0  0  0  0  0  0  0  0  0  0
   25.8080  -21.3611  -10.9739 C   0  0  0  0  0  0  0  0  0  0  0  0
   26.0186  -21.5434   -9.7519 O   0  0  0  0  0  0  0  0  0  0  0  0
   26.3052  -20.1399  -11.6127 C   0  0  0  0  0  0  0  0  0  0  0  0
   26.0331  -20.0935  -13.1085 C   0  0  2  0  0  0  0  0  0  0  0  0
   26.5952  -18.8691  -13.6408 N   0  0  0  0  0  0  0  0  0  0  0  0
   24.5591  -20.0149  -13.2418 C   0  0  0  0  0  0  0  0  0  0  0  0
   23.9613  -19.0187  -12.7776 O   0  0  0  0  0  0  0  0  0  0  0  0
   23.7771  -21.0221  -13.8762 N   0  0  0  0  0  0  0  0  0  0  0  0
   22.3404  -20.8935  -14.0474 C   0  0  1  0  0  0  0  0  0  0  0  0
   21.9112  -21.7719  -15.2172 C   0  0  0  0  0  0  0  0  0  0  0  0
   20.3715  -21.1763  -15.9509 S   0  0  0  0  0  0  0  0  0  0  0  0
   21.6619  -21.2836  -12.8000 C   0  0  0  0  0  0  0  0  0  0  0  0
   20.4443  -20.7021  -12.3990 O   0  0  0  0  0  0  0  0  0  0  0  0
   22.1228  -22.1546  -12.0186 O   0  0  0  0  0  0  0  0  0  0  0  0
  2  1  1  0
  3  2  1  0
  3  4  1  1
  5  3  1  0
  5  6  1  6
  7  5  1  0
  7  8  2  0
 10 12  1  0
 10  9  1  0
 11 10  2  0
 13 12  1  1
 13 14  1  0
 13 15  1  0
 14  7  1  0
 15 17  1  0
 16 15  2  0
 17 18  1  0
 18 21  1  0
 19 20  1  0
 18 19  1  6
 21 23  2  0
 21 22  1  0
M  END
$$$$
