INC.pdb
     RDKit          3D

 23 22  0  0  1  0  0  0  0  0999 V2000
   16.5777  -13.3030  -15.0808 C   0  0  0  0  0  0  0  0  0  0  0  0
   16.3641  -13.0463  -13.6289 C   0  0  0  0  0  0  0  0  0  0  0  0
   16.0086  -11.6023  -13.3194 C   0  0  2  0  0  0  0  0  0  0  0  0
   17.2101  -10.7580  -13.5483 C   0  0  0  0  0  0  0  0  0  0  0  0
   15.4400  -11.5417  -11.9427 C   0  0  2  0  0  0  0  0  0  0  0  0
   14.2361  -12.3884  -11.9402 N   0  0  0  0  0  0  0  0  0  0  0  0
   15.0365  -10.1952  -11.5163 C   0  0  0  0  0  0  0  0  0  0  0  0
   14.1331   -9.6110  -12.1687 O   0  0  0  0  0  0  0  0  0  0  0  0
   14.8245   -5.6106   -8.9506 N   0  0  0  0  0  0  0  0  0  0  0  0
   15.2242   -6.6282   -8.0481 C   0  0  0  0  0  0  0  0  0  0  0  0
   15.3298   -6.3863   -6.8229 O   0  0  0  0  0  0  0  0  0  0  0  0
   15.5185   -7.9762   -8.5408 C   0  0  0  0  0  0  0  0  0  0  0  0
   15.2111   -8.1533  -10.0199 C   0  0  2  0  0  0  0  0  0  0  0  0
   15.5936   -9.4943  -10.4122 N   0  0  0  0  0  0  0  0  0  0  0  0
   16.0990   -7.2001  -10.7269 C   0  0  0  0  0  0  0  0  0  0  0  0
   17.2952   -7.5134  -10.9168 O   0  0  0  0  0  0  0  0  0  0  0  0
   15.6604   -5.9331  -11.2074 N   0  0  0  0  0  0  0  0  0  0  0  0
   16.5422   -5.0304  -11.9267 C   0  0  1  0  0  0  0  0  0  0  0  0
   16.8288   -5.6255  -13.3007 C   0  0  0  0  0  0  0  0  0  0  0  0
   17.7179   -4.4525  -14.3482 S   0  0  0  0  0  0  0  0  0  0  0  0
   15.9068   -3.7060  -12.0322 C   0  0  0  0  0  0  0  0  0  0  0  0
   14.5433   -3.5071  -11.7448 O   0  0  0  0  0  0  0  0  0  0  0  0
   16.5365   -2.6755  -12.3829 O   0  0  0  0  0  0  0  0  0  0  0  0
  2  1  1  0
  3  2  1  0
  3  4  1  1
  5  3  1  0
  5  6  1  6
  7  5  1  0
  7  8  2  0
 10 12  1  0
 10  9  1  0
 11 10  2  0
 13 12  1  1
 13 14  1  0
 13 15  1  0
 14  7  1  0
 15 17  1  0
 16 15  2  0
 17 18  1  0
 18 21  1  0
 19 20  1  0
 18 19  1  6
 21 23  2  0
 21 22  1  0
M  END
$$$$
