INC.pdb
     RDKit          3D

 23 22  0  0  1  0  0  0  0  0999 V2000
   29.7848  -18.5643  -16.7154 C   0  0  0  0  0  0  0  0  0  0  0  0
   28.4096  -18.2095  -16.2654 C   0  0  0  0  0  0  0  0  0  0  0  0
   27.7044  -19.3407  -15.5373 C   0  0  2  0  0  0  0  0  0  0  0  0
   27.8095  -20.5736  -16.3606 C   0  0  0  0  0  0  0  0  0  0  0  0
   26.3153  -18.9030  -15.2197 C   0  0  2  0  0  0  0  0  0  0  0  0
   26.4272  -17.6641  -14.4329 N   0  0  0  0  0  0  0  0  0  0  0  0
   25.5472  -19.8677  -14.4215 C   0  0  0  0  0  0  0  0  0  0  0  0
   25.1688  -20.9311  -14.9774 O   0  0  0  0  0  0  0  0  0  0  0  0
   26.7058  -21.4672  -11.0353 N   0  0  0  0  0  0  0  0  0  0  0  0
   25.7972  -20.7102  -10.2536 C   0  0  0  0  0  0  0  0  0  0  0  0
   26.0801  -20.3984   -9.0731 O   0  0  0  0  0  0  0  0  0  0  0  0
   24.5151  -20.2838  -10.8202 C   0  0  0  0  0  0  0  0  0  0  0  0
   24.3746  -20.6135  -12.2983 C   0  0  2  0  0  0  0  0  0  0  0  0
   25.1950  -19.6906  -13.0558 N   0  0  0  0  0  0  0  0  0  0  0  0
   22.9561  -20.3433  -12.6325 C   0  0  0  0  0  0  0  0  0  0  0  0
   22.5299  -19.1693  -12.5604 O   0  0  0  0  0  0  0  0  0  0  0  0
   22.0414  -21.3579  -13.0356 N   0  0  0  0  0  0  0  0  0  0  0  0
   20.6825  -21.0550  -13.4496 C   0  0  1  0  0  0  0  0  0  0  0  0
   20.4434  -21.6779  -14.8204 C   0  0  0  0  0  0  0  0  0  0  0  0
   21.4045  -23.1937  -15.0258 S   0  0  0  0  0  0  0  0  0  0  0  0
   19.7378  -21.5746  -12.4466 C   0  0  0  0  0  0  0  0  0  0  0  0
   18.4129  -21.1079  -12.3565 O   0  0  0  0  0  0  0  0  0  0  0  0
   20.0513  -22.4619  -11.6123 O   0  0  0  0  0  0  0  0  0  0  0  0
  2  1  1  0
  3  2  1  0
  3  4  1  6
  5  3  1  0
  5  6  1  1
  7  5  1  0
  7  8  2  0
 10 12  1  0
 10  9  1  0
 11 10  2  0
 13 12  1  1
 13 14  1  0
 13 15  1  0
 14  7  1  0
 15 17  1  0
 16 15  2  0
 17 18  1  0
 18 21  1  0
 19 20  1  0
 18 19  1  6
 21 23  2  0
 21 22  1  0
M  END
$$$$
