INC.pdb
     RDKit          3D

 23 22  0  0  1  0  0  0  0  0999 V2000
   18.9168  -15.3983  -18.7867 C   0  0  0  0  0  0  0  0  0  0  0  0
   19.8692  -14.5066  -18.0674 C   0  0  0  0  0  0  0  0  0  0  0  0
   19.4236  -13.0549  -18.0310 C   0  0  2  0  0  0  0  0  0  0  0  0
   19.0785  -12.6295  -19.4125 C   0  0  0  0  0  0  0  0  0  0  0  0
   20.4877  -12.2520  -17.3639 C   0  0  2  0  0  0  0  0  0  0  0  0
   20.6961  -12.8420  -16.0316 N   0  0  0  0  0  0  0  0  0  0  0  0
   20.1442  -10.8365  -17.1735 C   0  0  0  0  0  0  0  0  0  0  0  0
   20.0708  -10.1007  -18.1915 O   0  0  0  0  0  0  0  0  0  0  0  0
   16.7851   -9.0841  -16.6512 N   0  0  0  0  0  0  0  0  0  0  0  0
   16.9732   -9.0334  -15.2470 C   0  0  0  0  0  0  0  0  0  0  0  0
   15.9943   -9.1295  -14.4702 O   0  0  0  0  0  0  0  0  0  0  0  0
   18.3177   -8.8678  -14.6890 C   0  0  0  0  0  0  0  0  0  0  0  0
   19.4097   -8.8701  -15.7478 C   0  0  2  0  0  0  0  0  0  0  0  0
   19.8858  -10.2279  -15.9151 N   0  0  0  0  0  0  0  0  0  0  0  0
   20.5165   -8.0651  -15.1787 C   0  0  0  0  0  0  0  0  0  0  0  0
   21.2019   -8.5486  -14.2505 O   0  0  0  0  0  0  0  0  0  0  0  0
   20.8462   -6.7569  -15.6353 N   0  0  0  0  0  0  0  0  0  0  0  0
   22.0184   -6.0434  -15.1594 C   0  0  1  0  0  0  0  0  0  0  0  0
   22.3452   -4.9324  -16.1509 C   0  0  0  0  0  0  0  0  0  0  0  0
   23.6287   -3.8372  -15.5052 S   0  0  0  0  0  0  0  0  0  0  0  0
   21.7524   -5.5072  -13.8138 C   0  0  0  0  0  0  0  0  0  0  0  0
   22.7134   -5.5575  -12.7866 O   0  0  0  0  0  0  0  0  0  0  0  0
   20.6580   -4.9740  -13.4982 O   0  0  0  0  0  0  0  0  0  0  0  0
  2  1  1  0
  3  2  1  0
  3  4  1  6
  5  3  1  0
  5  6  1  1
  7  5  1  0
  7  8  2  0
 10 12  1  0
 10  9  1  0
 11 10  2  0
 13 12  1  1
 13 14  1  0
 13 15  1  0
 14  7  1  0
 15 17  1  0
 16 15  2  0
 17 18  1  0
 18 21  1  0
 19 20  1  0
 18 19  1  6
 21 23  2  0
 21 22  1  0
M  END
$$$$
