INC.pdb
     RDKit          3D

 23 22  0  0  1  0  0  0  0  0999 V2000
   15.9436  -14.1337  -12.5799 C   0  0  0  0  0  0  0  0  0  0  0  0
   16.7033  -12.9045  -12.2171 C   0  0  0  0  0  0  0  0  0  0  0  0
   15.8103  -11.7334  -11.8452 C   0  0  2  0  0  0  0  0  0  0  0  0
   14.8743  -11.4741  -12.9701 C   0  0  0  0  0  0  0  0  0  0  0  0
   16.6772  -10.5837  -11.4595 C   0  0  2  0  0  0  0  0  0  0  0  0
   17.3783  -10.9727  -10.2251 N   0  0  0  0  0  0  0  0  0  0  0  0
   15.9429   -9.3425  -11.1804 C   0  0  0  0  0  0  0  0  0  0  0  0
   15.4146   -8.7344  -12.1469 O   0  0  0  0  0  0  0  0  0  0  0  0
   13.8647   -5.1853   -8.7496 N   0  0  0  0  0  0  0  0  0  0  0  0
   14.4223   -6.0267   -7.7542 C   0  0  0  0  0  0  0  0  0  0  0  0
   14.2968   -5.7447   -6.5395 O   0  0  0  0  0  0  0  0  0  0  0  0
   15.1526   -7.2377   -8.1373 C   0  0  0  0  0  0  0  0  0  0  0  0
   15.1353   -7.4983   -9.6357 C   0  0  2  0  0  0  0  0  0  0  0  0
   15.7816   -8.7697   -9.8894 N   0  0  0  0  0  0  0  0  0  0  0  0
   15.9738   -6.4325  -10.2340 C   0  0  0  0  0  0  0  0  0  0  0  0
   17.2108   -6.6043  -10.3068 O   0  0  0  0  0  0  0  0  0  0  0  0
   15.4427   -5.2100  -10.7361 N   0  0  0  0  0  0  0  0  0  0  0  0
   16.2460   -4.2747  -11.5042 C   0  0  1  0  0  0  0  0  0  0  0  0
   16.6768   -4.9551  -12.7986 C   0  0  0  0  0  0  0  0  0  0  0  0
   17.4563   -3.7789  -13.9268 S   0  0  0  0  0  0  0  0  0  0  0  0
   15.4611   -3.0569  -11.7678 C   0  0  0  0  0  0  0  0  0  0  0  0
   16.0507   -1.7789  -11.7904 O   0  0  0  0  0  0  0  0  0  0  0  0
   14.2231   -3.0800  -11.9881 O   0  0  0  0  0  0  0  0  0  0  0  0
  2  1  1  0
  3  2  1  0
  3  4  1  6
  5  3  1  0
  5  6  1  1
  7  5  1  0
  7  8  2  0
 10 12  1  0
 10  9  1  0
 11 10  2  0
 13 12  1  1
 13 14  1  0
 13 15  1  0
 14  7  1  0
 15 17  1  0
 16 15  2  0
 17 18  1  0
 18 21  1  0
 19 20  1  0
 18 19  1  6
 21 23  2  0
 21 22  1  0
M  END
$$$$
