INC.pdb
     RDKit          3D

 23 22  0  0  1  0  0  0  0  0999 V2000
   27.1395  -20.8544   -9.0888 C   0  0  0  0  0  0  0  0  0  0  0  0
   26.9659  -21.3567  -10.4806 C   0  0  0  0  0  0  0  0  0  0  0  0
   25.6517  -20.9329  -11.1136 C   0  0  2  0  0  0  0  0  0  0  0  0
   24.5371  -21.3817  -10.2389 C   0  0  0  0  0  0  0  0  0  0  0  0
   25.6132  -21.4504  -12.5110 C   0  0  2  0  0  0  0  0  0  0  0  0
   26.7652  -20.8645  -13.2153 N   0  0  0  0  0  0  0  0  0  0  0  0
   24.4027  -21.0818  -13.2569 C   0  0  0  0  0  0  0  0  0  0  0  0
   24.1343  -19.8595  -13.3875 O   0  0  0  0  0  0  0  0  0  0  0  0
   24.4826  -21.8557  -17.2252 N   0  0  0  0  0  0  0  0  0  0  0  0
   23.3730  -21.1898  -16.6462 C   0  0  0  0  0  0  0  0  0  0  0  0
   23.2709  -19.9428  -16.7186 O   0  0  0  0  0  0  0  0  0  0  0  0
   22.3322  -21.9556  -15.9557 C   0  0  0  0  0  0  0  0  0  0  0  0
   22.2456  -21.6431  -14.4697 C   0  0  2  0  0  0  0  0  0  0  0  0
   23.5020  -22.0089  -13.8484 N   0  0  0  0  0  0  0  0  0  0  0  0
   21.1939  -22.5407  -13.9357 C   0  0  0  0  0  0  0  0  0  0  0  0
   21.4646  -23.2795  -12.9631 O   0  0  0  0  0  0  0  0  0  0  0  0
   19.8774  -22.6091  -14.4750 N   0  0  0  0  0  0  0  0  0  0  0  0
   18.7356  -23.0254  -13.6793 C   0  0  1  0  0  0  0  0  0  0  0  0
   18.5492  -22.0287  -12.5409 C   0  0  0  0  0  0  0  0  0  0  0  0
   17.7999  -22.8174  -11.0984 S   0  0  0  0  0  0  0  0  0  0  0  0
   17.5410  -23.0968  -14.5374 C   0  0  0  0  0  0  0  0  0  0  0  0
   16.5639  -24.0971  -14.3752 O   0  0  0  0  0  0  0  0  0  0  0  0
   17.3183  -22.2753  -15.4632 O   0  0  0  0  0  0  0  0  0  0  0  0
  2  1  1  0
  3  2  1  0
  3  4  1  1
  5  3  1  0
  5  6  1  6
  7  5  1  0
  7  8  2  0
 10 12  1  0
 10  9  1  0
 11 10  2  0
 13 12  1  6
 13 14  1  0
 13 15  1  0
 14  7  1  0
 15 17  1  0
 16 15  2  0
 17 18  1  0
 18 21  1  0
 19 20  1  0
 18 19  1  1
 21 23  2  0
 21 22  1  0
M  END
$$$$
