ADS.pdb
     RDKit          3D

 20 19  0  0  1  0  0  0  0  0999 V2000
   15.5644   -8.8586  -15.4472 C   0  0  0  0  0  0  0  0  0  0  0  0
   16.4187   -9.8493  -16.1901 C   0  0  2  0  0  0  0  0  0  0  0  0
   16.2608  -11.1802  -15.6442 N   0  0  0  0  0  0  0  0  0  0  0  0
   17.8574   -9.4685  -16.0626 C   0  0  0  0  0  0  0  0  0  0  0  0
   18.4621   -9.7038  -14.9715 O   0  0  0  0  0  0  0  0  0  0  0  0
   18.5779   -8.8567  -17.1043 N   0  0  0  0  0  0  0  0  0  0  0  0
   19.9760   -8.5568  -16.9603 C   0  0  1  0  0  0  0  0  0  0  0  0
   20.7573   -8.6941  -18.2426 C   0  0  0  0  0  0  0  0  0  0  0  0
   22.1938   -8.4761  -18.0898 C   0  0  0  0  0  0  0  0  0  0  0  0
   22.8614   -7.9683  -19.0152 O   0  0  0  0  0  0  0  0  0  0  0  0
   20.1621   -7.2260  -16.3323 C   0  0  0  0  0  0  0  0  0  0  0  0
   19.4134   -6.2725  -16.6539 O   0  0  0  0  0  0  0  0  0  0  0  0
   22.8471   -8.8235  -16.9253 O   0  0  0  0  0  0  0  0  0  0  0  0
   21.6204   -4.4508  -12.7648 O   0  0  0  0  0  0  0  0  0  0  0  0
   21.4492   -5.7282  -13.2828 C   0  0  0  0  0  0  0  0  0  0  0  0
   21.2673   -5.6683  -14.7847 C   0  0  2  0  0  0  0  0  0  0  0  0
   21.1699   -6.9869  -15.3672 N   0  0  0  0  0  0  0  0  0  0  0  0
   22.4704   -5.0111  -15.3948 C   0  0  0  0  0  0  0  0  0  0  0  0
   23.4489   -5.7256  -15.7607 O   0  0  0  0  0  0  0  0  0  0  0  0
   22.5579   -3.6420  -15.5771 O   0  0  0  0  0  0  0  0  0  0  0  0
  2  1  1  1
  2  3  1  0
  4  2  1  0
  4  5  2  0
  6  4  1  0
  7  6  1  0
  7  8  1  6
  9  8  1  0
  9 10  2  0
 11  7  1  0
 12 11  2  0
 13  9  1  0
 14 15  1  0
 16 15  1  1
 16 17  1  0
 16 18  1  0
 17 11  1  0
 18 19  2  0
 18 20  1  0
M  END
$$$$
