ADS.pdb
     RDKit          3D

 20 19  0  0  1  0  0  0  0  0999 V2000
   17.2799  -12.0034  -17.5687 C   0  0  0  0  0  0  0  0  0  0  0  0
   18.0207  -11.6077  -16.3205 C   0  0  2  0  0  0  0  0  0  0  0  0
   17.2546  -11.9372  -15.1379 N   0  0  0  0  0  0  0  0  0  0  0  0
   18.2538  -10.1322  -16.3201 C   0  0  0  0  0  0  0  0  0  0  0  0
   19.0986   -9.6421  -17.1310 O   0  0  0  0  0  0  0  0  0  0  0  0
   17.5748   -9.2548  -15.4555 N   0  0  0  0  0  0  0  0  0  0  0  0
   17.8986   -7.8552  -15.4177 C   0  0  1  0  0  0  0  0  0  0  0  0
   16.7360   -6.9775  -15.0283 C   0  0  0  0  0  0  0  0  0  0  0  0
   17.0710   -5.5594  -14.9224 C   0  0  0  0  0  0  0  0  0  0  0  0
   17.1352   -5.0034  -13.8058 O   0  0  0  0  0  0  0  0  0  0  0  0
   19.0884   -7.6178  -14.5643 C   0  0  0  0  0  0  0  0  0  0  0  0
   19.1498   -8.1295  -13.4207 O   0  0  0  0  0  0  0  0  0  0  0  0
   17.3239   -4.8012  -16.0470 O   0  0  0  0  0  0  0  0  0  0  0  0
   22.8003   -6.6811  -16.0151 O   0  0  0  0  0  0  0  0  0  0  0  0
   22.5741   -7.2780  -14.7814 C   0  0  0  0  0  0  0  0  0  0  0  0
   21.3300   -6.7036  -14.1376 C   0  0  2  0  0  0  0  0  0  0  0  0
   20.1758   -6.8223  -14.9986 N   0  0  0  0  0  0  0  0  0  0  0  0
   21.5411   -5.2383  -13.8926 C   0  0  0  0  0  0  0  0  0  0  0  0
   20.8749   -4.3952  -14.5615 O   0  0  0  0  0  0  0  0  0  0  0  0
   22.4427   -4.7629  -12.9565 O   0  0  0  0  0  0  0  0  0  0  0  0
  2  1  1  6
  2  3  1  0
  4  2  1  0
  4  5  2  0
  6  4  1  0
  7  6  1  0
  7  8  1  1
  9  8  1  0
  9 10  2  0
 11  7  1  0
 12 11  2  0
 13  9  1  0
 14 15  1  0
 16 15  1  6
 16 17  1  0
 16 18  1  0
 17 11  1  0
 18 19  2  0
 18 20  1  0
M  END
$$$$
