ADS.pdb
     RDKit          3D

 20 19  0  0  1  0  0  0  0  0999 V2000
   24.0077  -12.2412  -17.2815 C   0  0  0  0  0  0  0  0  0  0  0  0
   24.0673  -11.1318  -16.2672 C   0  0  2  0  0  0  0  0  0  0  0  0
   23.8075  -11.6343  -14.9352 N   0  0  0  0  0  0  0  0  0  0  0  0
   23.0281  -10.1060  -16.5817 C   0  0  0  0  0  0  0  0  0  0  0  0
   23.1407   -9.4213  -17.6446 O   0  0  0  0  0  0  0  0  0  0  0  0
   21.9222   -9.8625  -15.7473 N   0  0  0  0  0  0  0  0  0  0  0  0
   20.9690   -8.8344  -16.0632 C   0  0  1  0  0  0  0  0  0  0  0  0
   19.5361   -9.2580  -15.8614 C   0  0  0  0  0  0  0  0  0  0  0  0
   19.1227  -10.3776  -16.7042 C   0  0  0  0  0  0  0  0  0  0  0  0
   19.2295  -10.3107  -17.9468 O   0  0  0  0  0  0  0  0  0  0  0  0
   21.2900   -7.5834  -15.3337 C   0  0  0  0  0  0  0  0  0  0  0  0
   21.6508   -7.6345  -14.1335 O   0  0  0  0  0  0  0  0  0  0  0  0
   18.6064  -11.5319  -16.1524 O   0  0  0  0  0  0  0  0  0  0  0  0
   23.1528   -3.2804  -15.3030 O   0  0  0  0  0  0  0  0  0  0  0  0
   22.6887   -4.3648  -16.0366 C   0  0  0  0  0  0  0  0  0  0  0  0
   21.6869   -5.1598  -15.2262 C   0  0  2  0  0  0  0  0  0  0  0  0
   21.2032   -6.3124  -15.9509 N   0  0  0  0  0  0  0  0  0  0  0  0
   20.4952   -4.2940  -14.9406 C   0  0  0  0  0  0  0  0  0  0  0  0
   19.5804   -4.1914  -15.8094 O   0  0  0  0  0  0  0  0  0  0  0  0
   20.3507   -3.5944  -13.7553 O   0  0  0  0  0  0  0  0  0  0  0  0
  2  1  1  6
  2  3  1  0
  4  2  1  0
  4  5  2  0
  6  4  1  0
  7  6  1  0
  7  8  1  1
  9  8  1  0
  9 10  2  0
 11  7  1  0
 12 11  2  0
 13  9  1  0
 14 15  1  0
 16 15  1  6
 16 17  1  0
 16 18  1  0
 17 11  1  0
 18 19  2  0
 18 20  1  0
M  END
$$$$
