ADS.pdb
     RDKit          3D

 20 19  0  0  1  0  0  0  0  0999 V2000
   18.2704  -12.0724  -15.1500 C   0  0  0  0  0  0  0  0  0  0  0  0
   17.4621  -11.2015  -16.0727 C   0  0  2  0  0  0  0  0  0  0  0  0
   17.3286  -11.8139  -17.3770 N   0  0  0  0  0  0  0  0  0  0  0  0
   18.1466   -9.8859  -16.2512 C   0  0  0  0  0  0  0  0  0  0  0  0
   19.3871   -9.8688  -16.5198 O   0  0  0  0  0  0  0  0  0  0  0  0
   17.4739   -8.6561  -16.1342 N   0  0  0  0  0  0  0  0  0  0  0  0
   18.1622   -7.4129  -16.3491 C   0  0  1  0  0  0  0  0  0  0  0  0
   17.2552   -6.2883  -16.7805 C   0  0  0  0  0  0  0  0  0  0  0  0
   17.9513   -5.0313  -17.0448 C   0  0  0  0  0  0  0  0  0  0  0  0
   19.0498   -5.0261  -17.6392 O   0  0  0  0  0  0  0  0  0  0  0  0
   18.9722   -7.0528  -15.1599 C   0  0  0  0  0  0  0  0  0  0  0  0
   18.4472   -7.0579  -14.0208 O   0  0  0  0  0  0  0  0  0  0  0  0
   17.4164   -3.8234  -16.6470 O   0  0  0  0  0  0  0  0  0  0  0  0
   21.8013   -8.5795  -13.3447 O   0  0  0  0  0  0  0  0  0  0  0  0
   22.2387   -7.3696  -13.8686 C   0  0  0  0  0  0  0  0  0  0  0  0
   21.0726   -6.4210  -14.0498 C   0  0  2  0  0  0  0  0  0  0  0  0
   20.3387   -6.6974  -15.2633 N   0  0  0  0  0  0  0  0  0  0  0  0
   21.5983   -5.0207  -14.1688 C   0  0  0  0  0  0  0  0  0  0  0  0
   22.2547   -4.5209  -13.2089 O   0  0  0  0  0  0  0  0  0  0  0  0
   21.3945   -4.2428  -15.2950 O   0  0  0  0  0  0  0  0  0  0  0  0
  2  1  1  1
  2  3  1  0
  4  2  1  0
  4  5  2  0
  6  4  1  0
  7  6  1  0
  7  8  1  1
  9  8  1  0
  9 10  2  0
 11  7  1  0
 12 11  2  0
 13  9  1  0
 14 15  1  0
 16 15  1  6
 16 17  1  0
 16 18  1  0
 17 11  1  0
 18 19  2  0
 18 20  1  0
M  END
$$$$
