ADS.pdb
     RDKit          3D

 20 19  0  0  1  0  0  0  0  0999 V2000
   16.6822  -10.6863  -16.2016 C   0  0  0  0  0  0  0  0  0  0  0  0
   17.1315   -9.3498  -16.7261 C   0  0  2  0  0  0  0  0  0  0  0  0
   17.2341   -9.3686  -18.1695 N   0  0  0  0  0  0  0  0  0  0  0  0
   18.4799   -9.0201  -16.1745 C   0  0  0  0  0  0  0  0  0  0  0  0
   18.6351   -8.9720  -14.9155 O   0  0  0  0  0  0  0  0  0  0  0  0
   19.5938   -8.7587  -16.9927 N   0  0  0  0  0  0  0  0  0  0  0  0
   20.8864   -8.4973  -16.4217 C   0  0  1  0  0  0  0  0  0  0  0  0
   22.0176   -9.1719  -17.1558 C   0  0  0  0  0  0  0  0  0  0  0  0
   22.0677  -10.6201  -16.9689 C   0  0  0  0  0  0  0  0  0  0  0  0
   21.6935  -11.3913  -17.8773 O   0  0  0  0  0  0  0  0  0  0  0  0
   21.1067   -7.0378  -16.2757 C   0  0  0  0  0  0  0  0  0  0  0  0
   21.1171   -6.3022  -17.2916 O   0  0  0  0  0  0  0  0  0  0  0  0
   22.5272  -11.1708  -15.7903 O   0  0  0  0  0  0  0  0  0  0  0  0
   19.3882   -4.5298  -13.9675 O   0  0  0  0  0  0  0  0  0  0  0  0
   20.1973   -4.2493  -15.0613 C   0  0  0  0  0  0  0  0  0  0  0  0
   21.5063   -5.0027  -14.9559 C   0  0  2  0  0  0  0  0  0  0  0  0
   21.3091   -6.4330  -15.0118 N   0  0  0  0  0  0  0  0  0  0  0  0
   22.1354   -4.7019  -13.6273 C   0  0  0  0  0  0  0  0  0  0  0  0
   22.3038   -5.6397  -12.7941 O   0  0  0  0  0  0  0  0  0  0  0  0
   22.5442   -3.4293  -13.2688 O   0  0  0  0  0  0  0  0  0  0  0  0
  2  1  1  1
  2  3  1  0
  4  2  1  0
  4  5  2  0
  6  4  1  0
  7  6  1  0
  7  8  1  6
  9  8  1  0
  9 10  2  0
 11  7  1  0
 12 11  2  0
 13  9  1  0
 14 15  1  0
 16 15  1  1
 16 17  1  0
 16 18  1  0
 17 11  1  0
 18 19  2  0
 18 20  1  0
M  END
$$$$
