ADS.pdb
     RDKit          3D

 20 19  0  0  1  0  0  0  0  0999 V2000
   19.0877  -12.7860  -18.0096 C   0  0  0  0  0  0  0  0  0  0  0  0
   19.3353  -12.0504  -16.7210 C   0  0  2  0  0  0  0  0  0  0  0  0
   18.1029  -11.8665  -15.9852 N   0  0  0  0  0  0  0  0  0  0  0  0
   19.9011  -10.6992  -17.0136 C   0  0  0  0  0  0  0  0  0  0  0  0
   21.0547  -10.6149  -17.5365 O   0  0  0  0  0  0  0  0  0  0  0  0
   19.2085   -9.5073  -16.7338 N   0  0  0  0  0  0  0  0  0  0  0  0
   19.7921   -8.2267  -17.0249 C   0  0  1  0  0  0  0  0  0  0  0  0
   19.1143   -7.4987  -18.1581 C   0  0  0  0  0  0  0  0  0  0  0  0
   19.6979   -6.1937  -18.4599 C   0  0  0  0  0  0  0  0  0  0  0  0
   20.9334   -6.0652  -18.5905 O   0  0  0  0  0  0  0  0  0  0  0  0
   19.8717   -7.3985  -15.7969 C   0  0  0  0  0  0  0  0  0  0  0  0
   18.9949   -7.5132  -14.9074 O   0  0  0  0  0  0  0  0  0  0  0  0
   18.9039   -5.0752  -18.6078 O   0  0  0  0  0  0  0  0  0  0  0  0
   21.7597   -6.4723  -12.0231 O   0  0  0  0  0  0  0  0  0  0  0  0
   21.5226   -7.0205  -13.2772 C   0  0  0  0  0  0  0  0  0  0  0  0
   21.1139   -5.9403  -14.2563 C   0  0  2  0  0  0  0  0  0  0  0  0
   20.9175   -6.4677  -15.5870 N   0  0  0  0  0  0  0  0  0  0  0  0
   22.2151   -4.9253  -14.3488 C   0  0  0  0  0  0  0  0  0  0  0  0
   22.9580   -4.9076  -15.3733 O   0  0  0  0  0  0  0  0  0  0  0  0
   22.4568   -3.9969  -13.3513 O   0  0  0  0  0  0  0  0  0  0  0  0
  2  1  1  6
  2  3  1  0
  4  2  1  0
  4  5  2  0
  6  4  1  0
  7  6  1  0
  7  8  1  6
  9  8  1  0
  9 10  2  0
 11  7  1  0
 12 11  2  0
 13  9  1  0
 14 15  1  0
 16 15  1  1
 16 17  1  0
 16 18  1  0
 17 11  1  0
 18 19  2  0
 18 20  1  0
M  END
$$$$
