DDV.pdb
     RDKit          3D

 24 23  0  0  1  0  0  0  0  0999 V2000
   17.0083  -11.9588  -14.2931 N   0  0  0  0  0  0  0  0  0  0  0  0
   15.8192  -11.3185  -13.8005 C   0  0  1  0  0  0  0  0  0  0  0  0
   14.9860  -12.3032  -13.0177 C   0  0  0  0  0  0  0  0  0  0  0  0
   14.2607  -13.2445  -13.8734 C   0  0  0  0  0  0  0  0  0  0  0  0
   14.4086  -13.1466  -15.1185 O   0  0  0  0  0  0  0  0  0  0  0  0
   16.1314  -10.1025  -12.9965 C   0  0  0  0  0  0  0  0  0  0  0  0
   16.5209  -10.1845  -11.8032 O   0  0  0  0  0  0  0  0  0  0  0  0
   13.4166  -14.2436  -13.4131 O   0  0  0  0  0  0  0  0  0  0  0  0
   16.0081   -8.7883  -13.5280 N   0  0  0  0  0  0  0  0  0  0  0  0
   16.4484   -7.6118  -12.8414 C   0  0  1  0  0  0  0  0  0  0  0  0
   16.9107   -6.5023  -13.7573 C   0  0  0  0  0  0  0  0  0  0  0  0
   17.4073   -5.3162  -13.0638 C   0  0  0  0  0  0  0  0  0  0  0  0
   18.3752   -5.4219  -12.2753 O   0  0  0  0  0  0  0  0  0  0  0  0
   15.4232   -7.0410  -11.9367 C   0  0  0  0  0  0  0  0  0  0  0  0
   14.2852   -6.7998  -12.3957 O   0  0  0  0  0  0  0  0  0  0  0  0
   16.8483   -4.0632  -13.2415 O   0  0  0  0  0  0  0  0  0  0  0  0
   16.1324   -6.7284   -7.9359 C   0  0  0  0  0  0  0  0  0  0  0  0
   14.6843   -6.7524   -8.3513 C   0  0  2  0  0  0  0  0  0  0  0  0
   14.2124   -8.1988   -8.5243 C   0  0  0  0  0  0  0  0  0  0  0  0
   14.6068   -6.1245   -9.7329 C   0  0  2  0  0  0  0  0  0  0  0  0
   15.6379   -6.7439  -10.5724 N   0  0  0  0  0  0  0  0  0  0  0  0
   14.9236   -4.6637   -9.6567 C   0  0  0  0  0  0  0  0  0  0  0  0
   16.0816   -4.1377  -10.2114 O   0  0  0  0  0  0  0  0  0  0  0  0
   14.1539   -3.8454   -9.0859 O   0  0  0  0  0  0  0  0  0  0  0  0
  2  1  1  1
  3  4  1  0
  3  2  1  0
  4  8  1  0
  5  4  2  0
  6  2  1  0
  7  6  2  0
  9  6  1  0
 10 14  1  0
 10  9  1  0
 10 11  1  6
 12 11  1  0
 13 12  2  0
 14 21  1  0
 15 14  2  0
 16 12  1  0
 18 20  1  0
 18 17  1  6
 19 18  1  0
 20 22  1  0
 20 21  1  6
 22 24  2  0
 22 23  1  0
M  END
$$$$
