DDV.pdb
     RDKit          3D

 24 23  0  0  1  0  0  0  0  0999 V2000
   16.0755  -14.0653  -16.2032 N   0  0  0  0  0  0  0  0  0  0  0  0
   15.9395  -12.6362  -16.2797 C   0  0  1  0  0  0  0  0  0  0  0  0
   15.1765  -12.1230  -15.0834 C   0  0  0  0  0  0  0  0  0  0  0  0
   13.7982  -12.6150  -15.0315 C   0  0  0  0  0  0  0  0  0  0  0  0
   13.2138  -12.8529  -16.1193 O   0  0  0  0  0  0  0  0  0  0  0  0
   17.2585  -11.9562  -16.4225 C   0  0  0  0  0  0  0  0  0  0  0  0
   18.2957  -12.4097  -15.8739 O   0  0  0  0  0  0  0  0  0  0  0  0
   13.0821  -12.8407  -13.8658 O   0  0  0  0  0  0  0  0  0  0  0  0
   17.4199  -10.7637  -17.1817 N   0  0  0  0  0  0  0  0  0  0  0  0
   18.6752  -10.0967  -17.3516 C   0  0  1  0  0  0  0  0  0  0  0  0
   18.8748   -9.5032  -18.7269 C   0  0  0  0  0  0  0  0  0  0  0  0
   20.1685   -8.8526  -18.9204 C   0  0  0  0  0  0  0  0  0  0  0  0
   20.2125   -7.6958  -19.3995 O   0  0  0  0  0  0  0  0  0  0  0  0
   18.9043   -9.0152  -16.3650 C   0  0  0  0  0  0  0  0  0  0  0  0
   17.9832   -8.1984  -16.1454 O   0  0  0  0  0  0  0  0  0  0  0  0
   21.3648   -9.4660  -18.5933 O   0  0  0  0  0  0  0  0  0  0  0  0
   22.4897   -8.7159  -14.3558 C   0  0  0  0  0  0  0  0  0  0  0  0
   21.2770   -8.1992  -13.6260 C   0  0  2  0  0  0  0  0  0  0  0  0
   20.5892   -9.3436  -12.8762 C   0  0  0  0  0  0  0  0  0  0  0  0
   20.2839   -7.7410  -14.6809 C   0  0  2  0  0  0  0  0  0  0  0  0
   20.1044   -8.8344  -15.6420 N   0  0  0  0  0  0  0  0  0  0  0  0
   20.8363   -6.5762  -15.4413 C   0  0  0  0  0  0  0  0  0  0  0  0
   20.8642   -5.2983  -14.9009 O   0  0  0  0  0  0  0  0  0  0  0  0
   21.3010   -6.7023  -16.6057 O   0  0  0  0  0  0  0  0  0  0  0  0
  2  1  1  1
  3  4  1  0
  3  2  1  0
  4  8  1  0
  5  4  2  0
  6  2  1  0
  7  6  2  0
  9  6  1  0
 10 14  1  0
 10  9  1  0
 10 11  1  6
 12 11  1  0
 13 12  2  0
 14 21  1  0
 15 14  2  0
 16 12  1  0
 18 20  1  0
 18 17  1  6
 19 18  1  0
 20 22  1  0
 20 21  1  6
 22 24  2  0
 22 23  1  0
M  END
$$$$
