DDV.pdb
     RDKit          3D

 24 23  0  0  1  0  0  0  0  0999 V2000
   25.4891  -20.6269  -18.3560 N   0  0  0  0  0  0  0  0  0  0  0  0
   26.0411  -19.5929  -17.5237 C   0  0  1  0  0  0  0  0  0  0  0  0
   26.1699  -18.3098  -18.3071 C   0  0  0  0  0  0  0  0  0  0  0  0
   27.0901  -18.4229  -19.4405 C   0  0  0  0  0  0  0  0  0  0  0  0
   26.6081  -18.3716  -20.6010 O   0  0  0  0  0  0  0  0  0  0  0  0
   25.2488  -19.3972  -16.2761 C   0  0  0  0  0  0  0  0  0  0  0  0
   25.4482  -18.4140  -15.5172 O   0  0  0  0  0  0  0  0  0  0  0  0
   28.4630  -18.5836  -19.3321 O   0  0  0  0  0  0  0  0  0  0  0  0
   24.2287  -20.3041  -15.8741 N   0  0  0  0  0  0  0  0  0  0  0  0
   23.4912  -20.1762  -14.6537 C   0  0  1  0  0  0  0  0  0  0  0  0
   22.0280  -20.5320  -14.7795 C   0  0  0  0  0  0  0  0  0  0  0  0
   21.3015  -19.7500  -15.7770 C   0  0  0  0  0  0  0  0  0  0  0  0
   21.1528  -18.5176  -15.6069 O   0  0  0  0  0  0  0  0  0  0  0  0
   24.0492  -20.9825  -13.5428 C   0  0  0  0  0  0  0  0  0  0  0  0
   23.7580  -22.1969  -13.4776 O   0  0  0  0  0  0  0  0  0  0  0  0
   20.7625  -20.3179  -16.9177 O   0  0  0  0  0  0  0  0  0  0  0  0
   26.5971  -19.3878  -10.5429 C   0  0  0  0  0  0  0  0  0  0  0  0
   26.7740  -20.7976  -11.0443 C   0  0  2  0  0  0  0  0  0  0  0  0
   27.5989  -20.7956  -12.3343 C   0  0  0  0  0  0  0  0  0  0  0  0
   25.3970  -21.3073  -11.4354 C   0  0  2  0  0  0  0  0  0  0  0  0
   24.8992  -20.4743  -12.5353 N   0  0  0  0  0  0  0  0  0  0  0  0
   24.4410  -21.1441  -10.2954 C   0  0  0  0  0  0  0  0  0  0  0  0
   24.4940  -21.9612   -9.1751 O   0  0  0  0  0  0  0  0  0  0  0  0
   23.5451  -20.2580  -10.3006 O   0  0  0  0  0  0  0  0  0  0  0  0
  2  1  1  6
  3  4  1  0
  3  2  1  0
  4  8  1  0
  5  4  2  0
  6  2  1  0
  7  6  2  0
  9  6  1  0
 10 14  1  0
 10  9  1  0
 10 11  1  6
 12 11  1  0
 13 12  2  0
 14 21  1  0
 15 14  2  0
 16 12  1  0
 18 20  1  0
 18 17  1  6
 19 18  1  0
 20 22  1  0
 20 21  1  6
 22 24  2  0
 22 23  1  0
M  END
$$$$
