DDV.pdb
     RDKit          3D

 24 23  0  0  1  0  0  0  0  0999 V2000
   18.8092  -11.5507  -15.4740 N   0  0  0  0  0  0  0  0  0  0  0  0
   18.7573  -10.3486  -16.2606 C   0  0  1  0  0  0  0  0  0  0  0  0
   17.4554  -10.2816  -17.0204 C   0  0  0  0  0  0  0  0  0  0  0  0
   17.3304  -11.3328  -18.0323 C   0  0  0  0  0  0  0  0  0  0  0  0
   18.3825  -11.8830  -18.4466 O   0  0  0  0  0  0  0  0  0  0  0  0
   18.9723   -9.1284  -15.4314 C   0  0  0  0  0  0  0  0  0  0  0  0
   18.3485   -8.9463  -14.3543 O   0  0  0  0  0  0  0  0  0  0  0  0
   16.1315  -11.7717  -18.5732 O   0  0  0  0  0  0  0  0  0  0  0  0
   19.8884   -8.1066  -15.8071 N   0  0  0  0  0  0  0  0  0  0  0  0
   20.0835   -6.9028  -15.0571 C   0  0  1  0  0  0  0  0  0  0  0  0
   21.4106   -6.8351  -14.3376 C   0  0  0  0  0  0  0  0  0  0  0  0
   21.6017   -5.6272  -13.5384 C   0  0  0  0  0  0  0  0  0  0  0  0
   20.6702   -5.2160  -12.8084 O   0  0  0  0  0  0  0  0  0  0  0  0
   19.9604   -5.6739  -15.8757 C   0  0  0  0  0  0  0  0  0  0  0  0
   20.8597   -5.4122  -16.7043 O   0  0  0  0  0  0  0  0  0  0  0  0
   22.7827   -4.9066  -13.5519 O   0  0  0  0  0  0  0  0  0  0  0  0
   16.4059   -3.6534  -16.2020 C   0  0  0  0  0  0  0  0  0  0  0  0
   17.4300   -3.5651  -17.3036 C   0  0  2  0  0  0  0  0  0  0  0  0
   17.3808   -4.8284  -18.1676 C   0  0  0  0  0  0  0  0  0  0  0  0
   18.7978   -3.5704  -16.6418 C   0  0  2  0  0  0  0  0  0  0  0  0
   18.8859   -4.7608  -15.7892 N   0  0  0  0  0  0  0  0  0  0  0  0
   18.9452   -2.3795  -15.7473 C   0  0  0  0  0  0  0  0  0  0  0  0
   18.9206   -2.4970  -14.3649 O   0  0  0  0  0  0  0  0  0  0  0  0
   19.0981   -1.2167  -16.2081 O   0  0  0  0  0  0  0  0  0  0  0  0
  2  1  1  1
  3  4  1  0
  3  2  1  0
  4  8  1  0
  5  4  2  0
  6  2  1  0
  7  6  2  0
  9  6  1  0
 10 14  1  0
 10  9  1  0
 10 11  1  6
 12 11  1  0
 13 12  2  0
 14 21  1  0
 15 14  2  0
 16 12  1  0
 18 20  1  0
 18 17  1  1
 19 18  1  0
 20 22  1  0
 20 21  1  1
 22 24  2  0
 22 23  1  0
M  END
$$$$
