DDV.pdb
     RDKit          3D

 24 23  0  0  1  0  0  0  0  0999 V2000
   27.2515  -35.5730   -0.9375 N   0  0  0  0  0  0  0  0  0  0  0  0
   27.2077  -34.1428   -1.0767 C   0  0  1  0  0  0  0  0  0  0  0  0
   26.9407  -33.7695   -2.5141 C   0  0  0  0  0  0  0  0  0  0  0  0
   28.0264  -34.1593   -3.4162 C   0  0  0  0  0  0  0  0  0  0  0  0
   28.9886  -34.8114   -2.9363 O   0  0  0  0  0  0  0  0  0  0  0  0
   26.2143  -33.5218   -0.1547 C   0  0  0  0  0  0  0  0  0  0  0  0
   26.0151  -32.2798   -0.1417 O   0  0  0  0  0  0  0  0  0  0  0  0
   28.0756  -33.8624   -4.7697 O   0  0  0  0  0  0  0  0  0  0  0  0
   25.4395  -34.2917    0.7572 N   0  0  0  0  0  0  0  0  0  0  0  0
   24.4598  -33.7285    1.6362 C   0  0  1  0  0  0  0  0  0  0  0  0
   23.1680  -34.5101    1.6983 C   0  0  0  0  0  0  0  0  0  0  0  0
   22.1246  -33.8859    2.5084 C   0  0  0  0  0  0  0  0  0  0  0  0
   21.9252  -32.6525    2.4149 O   0  0  0  0  0  0  0  0  0  0  0  0
   24.9442  -33.5622    3.0266 C   0  0  0  0  0  0  0  0  0  0  0  0
   25.3180  -34.5755    3.6569 O   0  0  0  0  0  0  0  0  0  0  0  0
   21.3355  -34.6066    3.3870 O   0  0  0  0  0  0  0  0  0  0  0  0
   25.3709  -29.8021    4.6649 C   0  0  0  0  0  0  0  0  0  0  0  0
   26.3510  -30.8636    5.0927 C   0  0  2  0  0  0  0  0  0  0  0  0
   27.4878  -30.9694    4.0723 C   0  0  0  0  0  0  0  0  0  0  0  0
   25.6195  -32.1943    5.0355 C   0  0  2  0  0  0  0  0  0  0  0  0
   25.0167  -32.3250    3.7047 N   0  0  0  0  0  0  0  0  0  0  0  0
   24.4988  -32.2125    6.0274 C   0  0  0  0  0  0  0  0  0  0  0  0
   24.7294  -32.3669    7.3870 O   0  0  0  0  0  0  0  0  0  0  0  0
   23.2958  -32.0887    5.6737 O   0  0  0  0  0  0  0  0  0  0  0  0
  2  1  1  6
  3  4  1  0
  3  2  1  0
  4  8  1  0
  5  4  2  0
  6  2  1  0
  7  6  2  0
  9  6  1  0
 10 14  1  0
 10  9  1  0
 10 11  1  1
 12 11  1  0
 13 12  2  0
 14 21  1  0
 15 14  2  0
 16 12  1  0
 18 20  1  0
 18 17  1  6
 19 18  1  0
 20 22  1  0
 20 21  1  6
 22 24  2  0
 22 23  1  0
M  END
$$$$
