DDV.pdb
     RDKit          3D

 24 23  0  0  1  0  0  0  0  0999 V2000
   16.5903  -14.2396  -17.5592 N   0  0  0  0  0  0  0  0  0  0  0  0
   16.7830  -13.5308  -16.3235 C   0  0  1  0  0  0  0  0  0  0  0  0
   17.3967  -14.4446  -15.2914 C   0  0  0  0  0  0  0  0  0  0  0  0
   16.4937  -15.5177  -14.8702 C   0  0  0  0  0  0  0  0  0  0  0  0
   17.0027  -16.5830  -14.4372 O   0  0  0  0  0  0  0  0  0  0  0  0
   17.5915  -12.2921  -16.5100 C   0  0  0  0  0  0  0  0  0  0  0  0
   18.6694  -12.3011  -17.1584 O   0  0  0  0  0  0  0  0  0  0  0  0
   15.1095  -15.4491  -14.9121 O   0  0  0  0  0  0  0  0  0  0  0  0
   17.1941  -11.0373  -15.9696 N   0  0  0  0  0  0  0  0  0  0  0  0
   17.8857   -9.8101  -16.2252 C   0  0  1  0  0  0  0  0  0  0  0  0
   16.9854   -8.5979  -16.2846 C   0  0  0  0  0  0  0  0  0  0  0  0
   17.6786   -7.3466  -16.5814 C   0  0  0  0  0  0  0  0  0  0  0  0
   18.5051   -7.3067  -17.5221 O   0  0  0  0  0  0  0  0  0  0  0  0
   18.9533   -9.5209  -15.2392 C   0  0  0  0  0  0  0  0  0  0  0  0
   18.6734   -9.5660  -14.0212 O   0  0  0  0  0  0  0  0  0  0  0  0
   17.4598   -6.1868  -15.8595 O   0  0  0  0  0  0  0  0  0  0  0  0
   22.8193   -8.8891  -16.4677 C   0  0  0  0  0  0  0  0  0  0  0  0
   22.6370   -9.4436  -15.0786 C   0  0  2  0  0  0  0  0  0  0  0  0
   22.4905  -10.9667  -15.1371 C   0  0  0  0  0  0  0  0  0  0  0  0
   21.3076   -8.9204  -14.5611 C   0  0  2  0  0  0  0  0  0  0  0  0
   20.2851   -9.1927  -15.5770 N   0  0  0  0  0  0  0  0  0  0  0  0
   21.3675   -7.4350  -14.3875 C   0  0  0  0  0  0  0  0  0  0  0  0
   22.0756   -6.8492  -13.3478 O   0  0  0  0  0  0  0  0  0  0  0  0
   20.7783   -6.6491  -15.1768 O   0  0  0  0  0  0  0  0  0  0  0  0
  2  1  1  6
  3  4  1  0
  3  2  1  0
  4  8  1  0
  5  4  2  0
  6  2  1  0
  7  6  2  0
  9  6  1  0
 10 14  1  0
 10  9  1  0
 10 11  1  1
 12 11  1  0
 13 12  2  0
 14 21  1  0
 15 14  2  0
 16 12  1  0
 18 20  1  0
 18 17  1  6
 19 18  1  0
 20 22  1  0
 20 21  1  6
 22 24  2  0
 22 23  1  0
M  END
$$$$
