DDV.pdb
     RDKit          3D

 24 23  0  0  1  0  0  0  0  0999 V2000
   27.5563  -24.1256  -17.8084 N   0  0  0  0  0  0  0  0  0  0  0  0
   27.8681  -23.0857  -16.8661 C   0  0  1  0  0  0  0  0  0  0  0  0
   28.5642  -21.9439  -17.5649 C   0  0  0  0  0  0  0  0  0  0  0  0
   29.8901  -22.3067  -18.0693 C   0  0  0  0  0  0  0  0  0  0  0  0
   30.2947  -23.4818  -17.8775 O   0  0  0  0  0  0  0  0  0  0  0  0
   26.6600  -22.6216  -16.1260 C   0  0  0  0  0  0  0  0  0  0  0  0
   26.4435  -21.3997  -15.9197 O   0  0  0  0  0  0  0  0  0  0  0  0
   30.7410  -21.4473  -18.7478 O   0  0  0  0  0  0  0  0  0  0  0  0
   25.6888  -23.5267  -15.6138 N   0  0  0  0  0  0  0  0  0  0  0  0
   24.5320  -23.1143  -14.8780 C   0  0  1  0  0  0  0  0  0  0  0  0
   23.3443  -24.0356  -15.0329 C   0  0  0  0  0  0  0  0  0  0  0  0
   22.1269  -23.5645  -14.3769 C   0  0  0  0  0  0  0  0  0  0  0  0
   22.0167  -22.3533  -14.0758 O   0  0  0  0  0  0  0  0  0  0  0  0
   24.7841  -22.9569  -13.4265 C   0  0  0  0  0  0  0  0  0  0  0  0
   24.8470  -23.9825  -12.7137 O   0  0  0  0  0  0  0  0  0  0  0  0
   21.0748  -24.4085  -14.0688 O   0  0  0  0  0  0  0  0  0  0  0  0
   25.7636  -19.3130  -11.8191 C   0  0  0  0  0  0  0  0  0  0  0  0
   26.1654  -20.5392  -11.0413 C   0  0  2  0  0  0  0  0  0  0  0  0
   27.4853  -21.0948  -11.5833 C   0  0  0  0  0  0  0  0  0  0  0  0
   25.1214  -21.6069  -11.3224 C   0  0  2  0  0  0  0  0  0  0  0  0
   24.9618  -21.7152  -12.7765 N   0  0  0  0  0  0  0  0  0  0  0  0
   23.7948  -21.1937  -10.7660 C   0  0  0  0  0  0  0  0  0  0  0  0
   23.5345  -21.2192   -9.4032 O   0  0  0  0  0  0  0  0  0  0  0  0
   22.8545  -20.8042  -11.5089 O   0  0  0  0  0  0  0  0  0  0  0  0
  2  1  1  6
  3  4  1  0
  3  2  1  0
  4  8  1  0
  5  4  2  0
  6  2  1  0
  7  6  2  0
  9  6  1  0
 10 14  1  0
 10  9  1  0
 10 11  1  1
 12 11  1  0
 13 12  2  0
 14 21  1  0
 15 14  2  0
 16 12  1  0
 18 20  1  0
 18 17  1  6
 19 18  1  0
 20 22  1  0
 20 21  1  6
 22 24  2  0
 22 23  1  0
M  END
$$$$
