MWS.pdb
     RDKit          3D

 29 30  0  0  1  0  0  0  0  0999 V2000
   25.2036  -17.1685  -16.1281 C   0  0  0  0  0  0  0  0  0  0  0  0
   26.9047  -16.9165  -16.6680 S   0  0  0  0  0  0  0  0  0  0  0  0
   27.9851  -18.0454  -15.7490 C   0  0  0  0  0  0  0  0  0  0  0  0
   27.2005  -18.8958  -14.7713 C   0  0  0  0  0  0  0  0  0  0  0  0
   28.1141  -19.8121  -13.9828 C   0  0  2  0  0  0  0  0  0  0  0  0
   28.6066  -20.9035  -14.8054 N   0  0  0  0  0  0  0  0  0  0  0  0
   27.3295  -20.3393  -12.8343 C   0  0  0  0  0  0  0  0  0  0  0  0
   26.6779  -21.4041  -13.0202 O   0  0  0  0  0  0  0  0  0  0  0  0
   27.2996  -19.6919  -11.5752 N   0  0  0  0  0  0  0  0  0  0  0  0
   26.4662  -20.2610  -10.4838 C   0  0  1  0  0  0  0  0  0  0  0  0
   26.7937  -19.5032   -9.2472 C   0  0  0  0  0  0  0  0  0  0  0  0
   26.3973  -20.1737   -8.0069 C   0  0  0  0  0  0  0  0  0  0  0  0
   25.2941  -20.9768   -7.7600 C   0  0  0  0  0  0  0  0  0  0  0  0
   25.3017  -21.3472   -6.4737 N   0  0  0  0  0  0  0  0  0  0  0  0
   26.3833  -20.8042   -5.8786 C   0  0  0  0  0  0  0  0  0  0  0  0
   26.8136  -20.8982   -4.5739 C   0  0  0  0  0  0  0  0  0  0  0  0
   27.9850  -20.2219   -4.2248 C   0  0  0  0  0  0  0  0  0  0  0  0
   28.6876  -19.4903   -5.1355 C   0  0  0  0  0  0  0  0  0  0  0  0
   28.2455  -19.3982   -6.4602 C   0  0  0  0  0  0  0  0  0  0  0  0
   27.0786  -20.0723   -6.8072 C   0  0  0  0  0  0  0  0  0  0  0  0
   25.0574  -20.1771  -10.8677 C   0  0  0  0  0  0  0  0  0  0  0  0
   24.4702  -19.0420  -10.8759 O   0  0  0  0  0  0  0  0  0  0  0  0
   22.9261  -23.3651  -12.2541 O   0  0  0  0  0  0  0  0  0  0  0  0
   22.5570  -22.1303  -12.7961 C   0  0  0  0  0  0  0  0  0  0  0  0
   22.8976  -21.0898  -11.7404 C   0  0  2  0  0  0  0  0  0  0  0  0
   24.2497  -21.2598  -11.2536 N   0  0  0  0  0  0  0  0  0  0  0  0
   21.8758  -21.0591  -10.6983 C   0  0  0  0  0  0  0  0  0  0  0  0
   22.2309  -21.2162   -9.3721 O   0  0  0  0  0  0  0  0  0  0  0  0
   20.6496  -20.8866  -11.0240 O   0  0  0  0  0  0  0  0  0  0  0  0
  2  1  1  0
  3  2  1  0
  4  3  1  0
  4  5  1  0
  5  7  1  0
  5  6  1  6
  7  8  2  0
  9 10  1  0
  9  7  1  0
 10 11  1  1
 12 11  1  0
 13 12  2  0
 14 13  1  0
 15 14  1  0
 15 20  2  0
 16 15  1  0
 17 16  2  0
 17 18  1  0
 18 19  2  0
 19 20  1  0
 20 12  1  0
 21 22  2  0
 21 10  1  0
 23 24  1  0
 25 24  1  6
 25 27  1  0
 25 26  1  0
 26 21  1  0
 27 28  1  0
 29 27  2  0
M  END
$$$$
