MWS.pdb
     RDKit          3D

 29 30  0  0  1  0  0  0  0  0999 V2000
   28.7195  -18.8186   -4.7627 C   0  0  0  0  0  0  0  0  0  0  0  0
   28.7077  -20.1657   -5.9603 S   0  0  0  0  0  0  0  0  0  0  0  0
   27.0155  -20.7969   -6.1164 C   0  0  0  0  0  0  0  0  0  0  0  0
   26.3754  -20.3605   -7.4181 C   0  0  0  0  0  0  0  0  0  0  0  0
   27.0422  -21.0209   -8.6077 C   0  0  2  0  0  0  0  0  0  0  0  0
   28.4528  -20.6810   -8.6793 N   0  0  0  0  0  0  0  0  0  0  0  0
   26.3322  -20.5553   -9.8290 C   0  0  0  0  0  0  0  0  0  0  0  0
   26.2650  -19.3092  -10.0183 O   0  0  0  0  0  0  0  0  0  0  0  0
   25.7485  -21.4530  -10.7557 N   0  0  0  0  0  0  0  0  0  0  0  0
   25.1067  -20.9159  -11.9841 C   0  0  1  0  0  0  0  0  0  0  0  0
   25.7130  -21.6300  -13.1387 C   0  0  0  0  0  0  0  0  0  0  0  0
   25.1587  -21.2509  -14.4403 C   0  0  0  0  0  0  0  0  0  0  0  0
   25.1612  -20.0133  -15.0658 C   0  0  0  0  0  0  0  0  0  0  0  0
   24.5072  -20.1102  -16.2298 N   0  0  0  0  0  0  0  0  0  0  0  0
   24.0796  -21.3809  -16.3757 C   0  0  0  0  0  0  0  0  0  0  0  0
   23.3662  -21.9602  -17.4012 C   0  0  0  0  0  0  0  0  0  0  0  0
   23.0519  -23.3168  -17.2900 C   0  0  0  0  0  0  0  0  0  0  0  0
   23.4328  -24.0533  -16.2080 C   0  0  0  0  0  0  0  0  0  0  0  0
   24.1577  -23.4594  -15.1686 C   0  0  0  0  0  0  0  0  0  0  0  0
   24.4706  -22.1079  -15.2802 C   0  0  0  0  0  0  0  0  0  0  0  0
   23.6585  -21.0917  -11.8801 C   0  0  0  0  0  0  0  0  0  0  0  0
   23.1865  -22.1514  -11.3436 O   0  0  0  0  0  0  0  0  0  0  0  0
   20.7362  -18.4509  -11.6595 O   0  0  0  0  0  0  0  0  0  0  0  0
   20.3896  -19.8020  -11.5634 C   0  0  0  0  0  0  0  0  0  0  0  0
   21.3056  -20.5400  -12.5274 C   0  0  2  0  0  0  0  0  0  0  0  0
   22.6901  -20.1738  -12.3196 N   0  0  0  0  0  0  0  0  0  0  0  0
   20.8367  -20.3890  -13.9017 C   0  0  0  0  0  0  0  0  0  0  0  0
   19.5658  -20.8038  -14.2517 O   0  0  0  0  0  0  0  0  0  0  0  0
   21.6129  -19.8707  -14.7782 O   0  0  0  0  0  0  0  0  0  0  0  0
  2  1  1  0
  3  2  1  0
  4  3  1  0
  4  5  1  0
  5  7  1  0
  5  6  1  6
  7  8  2  0
  9 10  1  0
  9  7  1  0
 10 11  1  6
 12 11  1  0
 13 12  2  0
 14 13  1  0
 15 14  1  0
 15 20  2  0
 16 15  1  0
 17 16  2  0
 17 18  1  0
 18 19  2  0
 19 20  1  0
 20 12  1  0
 21 22  2  0
 21 10  1  0
 23 24  1  0
 25 24  1  1
 25 27  1  0
 25 26  1  0
 26 21  1  0
 27 28  1  0
 29 27  2  0
M  END
$$$$
