MWS.pdb
     RDKit          3D

 29 30  0  0  1  0  0  0  0  0999 V2000
   20.4456  -23.6107  -10.9728 C   0  0  0  0  0  0  0  0  0  0  0  0
   20.9962  -23.9571  -12.6539 S   0  0  0  0  0  0  0  0  0  0  0  0
   20.9858  -22.4134  -13.6043 C   0  0  0  0  0  0  0  0  0  0  0  0
   22.2641  -21.6261  -13.4031 C   0  0  0  0  0  0  0  0  0  0  0  0
   22.4737  -21.2809  -11.9426 C   0  0  2  0  0  0  0  0  0  0  0  0
   21.4138  -20.4209  -11.4452 N   0  0  0  0  0  0  0  0  0  0  0  0
   23.7913  -20.5997  -11.8326 C   0  0  0  0  0  0  0  0  0  0  0  0
   23.8228  -19.3609  -12.0720 O   0  0  0  0  0  0  0  0  0  0  0  0
   24.9748  -21.2905  -11.4753 N   0  0  0  0  0  0  0  0  0  0  0  0
   26.2749  -20.5704  -11.5048 C   0  0  1  0  0  0  0  0  0  0  0  0
   27.1413  -21.1960  -10.4710 C   0  0  0  0  0  0  0  0  0  0  0  0
   26.9173  -20.6947   -9.1133 C   0  0  0  0  0  0  0  0  0  0  0  0
   25.8135  -20.0343   -8.5950 C   0  0  0  0  0  0  0  0  0  0  0  0
   26.0517  -19.7219   -7.3153 N   0  0  0  0  0  0  0  0  0  0  0  0
   27.2837  -20.1632   -6.9894 C   0  0  0  0  0  0  0  0  0  0  0  0
   27.9662  -20.0753   -5.7967 C   0  0  0  0  0  0  0  0  0  0  0  0
   29.2491  -20.6252   -5.7390 C   0  0  0  0  0  0  0  0  0  0  0  0
   29.8173  -21.2312   -6.8199 C   0  0  0  0  0  0  0  0  0  0  0  0
   29.1190  -21.3176   -8.0297 C   0  0  0  0  0  0  0  0  0  0  0  0
   27.8410  -20.7697   -8.0863 C   0  0  0  0  0  0  0  0  0  0  0  0
   26.8284  -20.6429  -12.8566 C   0  0  0  0  0  0  0  0  0  0  0  0
   26.8029  -21.7514  -13.4923 O   0  0  0  0  0  0  0  0  0  0  0  0
   27.5572  -17.3847  -15.0600 O   0  0  0  0  0  0  0  0  0  0  0  0
   28.4534  -18.3905  -15.4339 C   0  0  0  0  0  0  0  0  0  0  0  0
   27.8533  -19.6951  -14.9328 C   0  0  2  0  0  0  0  0  0  0  0  0
   27.4020  -19.5728  -13.5634 N   0  0  0  0  0  0  0  0  0  0  0  0
   28.7657  -20.8087  -15.1749 C   0  0  0  0  0  0  0  0  0  0  0  0
   29.0921  -21.1710  -16.4680 O   0  0  0  0  0  0  0  0  0  0  0  0
   29.2589  -21.4461  -14.1800 O   0  0  0  0  0  0  0  0  0  0  0  0
  2  1  1  0
  3  2  1  0
  4  3  1  0
  4  5  1  0
  5  7  1  0
  5  6  1  6
  7  8  2  0
  9 10  1  0
  9  7  1  0
 10 11  1  1
 12 11  1  0
 13 12  2  0
 14 13  1  0
 15 14  1  0
 15 20  2  0
 16 15  1  0
 17 16  2  0
 17 18  1  0
 18 19  2  0
 19 20  1  0
 20 12  1  0
 21 22  2  0
 21 10  1  0
 23 24  1  0
 25 24  1  1
 25 27  1  0
 25 26  1  0
 26 21  1  0
 27 28  1  0
 29 27  2  0
M  END
$$$$
