MWS.pdb
     RDKit          3D

 29 30  0  0  1  0  0  0  0  0999 V2000
   30.9493  -18.0903  -15.8084 C   0  0  0  0  0  0  0  0  0  0  0  0
   30.9253  -18.7545  -17.4839 S   0  0  0  0  0  0  0  0  0  0  0  0
   29.3102  -19.5192  -17.7887 C   0  0  0  0  0  0  0  0  0  0  0  0
   28.8628  -20.3644  -16.6140 C   0  0  0  0  0  0  0  0  0  0  0  0
   27.5387  -21.0442  -16.8979 C   0  0  2  0  0  0  0  0  0  0  0  0
   26.6193  -20.1482  -17.5778 N   0  0  0  0  0  0  0  0  0  0  0  0
   26.9734  -21.4770  -15.5920 C   0  0  0  0  0  0  0  0  0  0  0  0
   27.5579  -22.4227  -14.9945 O   0  0  0  0  0  0  0  0  0  0  0  0
   25.8286  -20.8686  -15.0220 N   0  0  0  0  0  0  0  0  0  0  0  0
   25.2733  -21.4080  -13.7531 C   0  0  1  0  0  0  0  0  0  0  0  0
   25.4299  -20.3460  -12.7244 C   0  0  0  0  0  0  0  0  0  0  0  0
   26.6934  -20.4040  -11.9859 C   0  0  0  0  0  0  0  0  0  0  0  0
   27.9924  -20.3817  -12.4708 C   0  0  0  0  0  0  0  0  0  0  0  0
   28.8444  -20.4968  -11.4448 N   0  0  0  0  0  0  0  0  0  0  0  0
   28.1304  -20.5935  -10.3047 C   0  0  0  0  0  0  0  0  0  0  0  0
   28.5592  -20.7286   -9.0032 C   0  0  0  0  0  0  0  0  0  0  0  0
   27.5873  -20.8083   -8.0029 C   0  0  0  0  0  0  0  0  0  0  0  0
   26.2562  -20.7554   -8.2924 C   0  0  0  0  0  0  0  0  0  0  0  0
   25.8261  -20.6180   -9.6171 C   0  0  0  0  0  0  0  0  0  0  0  0
   26.7950  -20.5385  -10.6130 C   0  0  0  0  0  0  0  0  0  0  0  0
   23.8847  -21.8104  -13.9744 C   0  0  0  0  0  0  0  0  0  0  0  0
   23.0332  -20.9485  -14.3812 O   0  0  0  0  0  0  0  0  0  0  0  0
   22.5140  -25.4872  -13.1026 O   0  0  0  0  0  0  0  0  0  0  0  0
   21.8462  -24.9737  -14.2184 C   0  0  0  0  0  0  0  0  0  0  0  0
   22.0154  -23.4638  -14.1509 C   0  0  2  0  0  0  0  0  0  0  0  0
   23.3688  -23.1035  -13.7869 N   0  0  0  0  0  0  0  0  0  0  0  0
   20.9808  -22.8662  -13.3121 C   0  0  0  0  0  0  0  0  0  0  0  0
   19.6464  -23.0306  -13.6314 O   0  0  0  0  0  0  0  0  0  0  0  0
   21.3207  -22.1886  -12.2802 O   0  0  0  0  0  0  0  0  0  0  0  0
  2  1  1  0
  3  2  1  0
  4  3  1  0
  4  5  1  0
  5  7  1  0
  5  6  1  1
  7  8  2  0
  9 10  1  0
  9  7  1  0
 10 11  1  1
 12 11  1  0
 13 12  2  0
 14 13  1  0
 15 14  1  0
 15 20  2  0
 16 15  1  0
 17 16  2  0
 17 18  1  0
 18 19  2  0
 19 20  1  0
 20 12  1  0
 21 22  2  0
 21 10  1  0
 23 24  1  0
 25 24  1  1
 25 27  1  0
 25 26  1  0
 26 21  1  0
 27 28  1  0
 29 27  2  0
M  END
$$$$
