MWS.pdb
     RDKit          3D

 29 30  0  0  1  0  0  0  0  0999 V2000
   26.7989  -16.9150  -14.9176 C   0  0  0  0  0  0  0  0  0  0  0  0
   28.4436  -17.5553  -14.5513 S   0  0  0  0  0  0  0  0  0  0  0  0
   28.5008  -19.3124  -14.9938 C   0  0  0  0  0  0  0  0  0  0  0  0
   27.6510  -20.1503  -14.0610 C   0  0  0  0  0  0  0  0  0  0  0  0
   28.2674  -20.2319  -12.6792 C   0  0  2  0  0  0  0  0  0  0  0  0
   29.5074  -20.9887  -12.6972 N   0  0  0  0  0  0  0  0  0  0  0  0
   27.2722  -20.8851  -11.7874 C   0  0  0  0  0  0  0  0  0  0  0  0
   27.2354  -22.1467  -11.7891 O   0  0  0  0  0  0  0  0  0  0  0  0
   26.3923  -20.1440  -10.9615 N   0  0  0  0  0  0  0  0  0  0  0  0
   25.2774  -20.8450  -10.2723 C   0  0  1  0  0  0  0  0  0  0  0  0
   25.0915  -20.1770   -8.9570 C   0  0  0  0  0  0  0  0  0  0  0  0
   26.3405  -19.8225   -8.2793 C   0  0  0  0  0  0  0  0  0  0  0  0
   27.3166  -18.9148   -8.6617 C   0  0  0  0  0  0  0  0  0  0  0  0
   28.3102  -18.9371   -7.7648 N   0  0  0  0  0  0  0  0  0  0  0  0
   28.0033  -19.8375   -6.8089 C   0  0  0  0  0  0  0  0  0  0  0  0
   28.7103  -20.2107   -5.6877 C   0  0  0  0  0  0  0  0  0  0  0  0
   28.1484  -21.1840   -4.8580 C   0  0  0  0  0  0  0  0  0  0  0  0
   26.9415  -21.7528   -5.1377 C   0  0  0  0  0  0  0  0  0  0  0  0
   26.2272  -21.3698   -6.2787 C   0  0  0  0  0  0  0  0  0  0  0  0
   26.7877  -20.4000   -7.1046 C   0  0  0  0  0  0  0  0  0  0  0  0
   24.0897  -20.8032  -11.1248 C   0  0  0  0  0  0  0  0  0  0  0  0
   23.7170  -19.6931  -11.6368 O   0  0  0  0  0  0  0  0  0  0  0  0
   21.4624  -23.9567  -11.7463 O   0  0  0  0  0  0  0  0  0  0  0  0
   21.6999  -23.1437  -12.8586 C   0  0  0  0  0  0  0  0  0  0  0  0
   22.1177  -21.7893  -12.3071 C   0  0  2  0  0  0  0  0  0  0  0  0
   23.2861  -21.9052  -11.4614 N   0  0  0  0  0  0  0  0  0  0  0  0
   20.9826  -21.1132  -11.6862 C   0  0  0  0  0  0  0  0  0  0  0  0
   19.8296  -20.8819  -12.4121 O   0  0  0  0  0  0  0  0  0  0  0  0
   21.0654  -20.7363  -10.4653 O   0  0  0  0  0  0  0  0  0  0  0  0
  2  1  1  0
  3  2  1  0
  4  3  1  0
  4  5  1  0
  5  7  1  0
  5  6  1  6
  7  8  2  0
  9 10  1  0
  9  7  1  0
 10 11  1  1
 12 11  1  0
 13 12  2  0
 14 13  1  0
 15 14  1  0
 15 20  2  0
 16 15  1  0
 17 16  2  0
 17 18  1  0
 18 19  2  0
 19 20  1  0
 20 12  1  0
 21 22  2  0
 21 10  1  0
 23 24  1  0
 25 24  1  1
 25 27  1  0
 25 26  1  0
 26 21  1  0
 27 28  1  0
 29 27  2  0
M  END
$$$$
