MWS.pdb
     RDKit          3D

 29 30  0  0  1  0  0  0  0  0999 V2000
   29.8693  -16.8161  -16.2924 C   0  0  0  0  0  0  0  0  0  0  0  0
   29.0942  -17.7292  -14.9454 S   0  0  0  0  0  0  0  0  0  0  0  0
   27.6938  -18.6722  -15.6056 C   0  0  0  0  0  0  0  0  0  0  0  0
   26.9851  -19.4531  -14.5182 C   0  0  0  0  0  0  0  0  0  0  0  0
   27.9681  -20.2445  -13.6794 C   0  0  2  0  0  0  0  0  0  0  0  0
   28.6632  -21.2396  -14.4775 N   0  0  0  0  0  0  0  0  0  0  0  0
   27.1954  -20.8985  -12.5897 C   0  0  0  0  0  0  0  0  0  0  0  0
   26.8225  -22.0891  -12.7804 O   0  0  0  0  0  0  0  0  0  0  0  0
   26.8794  -20.2341  -11.3797 N   0  0  0  0  0  0  0  0  0  0  0  0
   25.8282  -20.7980  -10.4927 C   0  0  1  0  0  0  0  0  0  0  0  0
   26.0631  -20.2429   -9.1336 C   0  0  0  0  0  0  0  0  0  0  0  0
   27.3183  -20.6748   -8.5149 C   0  0  0  0  0  0  0  0  0  0  0  0
   28.2882  -21.5335   -9.0100 C   0  0  0  0  0  0  0  0  0  0  0  0
   29.2522  -21.6800   -8.0929 N   0  0  0  0  0  0  0  0  0  0  0  0
   28.9322  -20.9374   -7.0136 C   0  0  0  0  0  0  0  0  0  0  0  0
   29.6082  -20.7687   -5.8259 C   0  0  0  0  0  0  0  0  0  0  0  0
   29.0374  -19.9300   -4.8656 C   0  0  0  0  0  0  0  0  0  0  0  0
   27.8517  -19.2940   -5.0847 C   0  0  0  0  0  0  0  0  0  0  0  0
   27.1689  -19.4691   -6.2938 C   0  0  0  0  0  0  0  0  0  0  0  0
   27.7383  -20.3047   -7.2499 C   0  0  0  0  0  0  0  0  0  0  0  0
   24.5140  -20.4673  -11.0427 C   0  0  0  0  0  0  0  0  0  0  0  0
   24.1525  -19.2443  -11.1266 O   0  0  0  0  0  0  0  0  0  0  0  0
   22.1629  -23.1828  -12.9678 O   0  0  0  0  0  0  0  0  0  0  0  0
   22.0868  -21.8588  -13.4105 C   0  0  0  0  0  0  0  0  0  0  0  0
   22.3533  -20.9919  -12.1896 C   0  0  2  0  0  0  0  0  0  0  0  0
   23.5699  -21.3933  -11.5169 N   0  0  0  0  0  0  0  0  0  0  0  0
   21.1742  -20.9349  -11.3306 C   0  0  0  0  0  0  0  0  0  0  0  0
   21.2619  -21.3128  -10.0043 O   0  0  0  0  0  0  0  0  0  0  0  0
   20.0600  -20.5332  -11.8170 O   0  0  0  0  0  0  0  0  0  0  0  0
  2  1  1  0
  3  2  1  0
  4  3  1  0
  4  5  1  0
  5  7  1  0
  5  6  1  6
  7  8  2  0
  9 10  1  0
  9  7  1  0
 10 11  1  1
 12 11  1  0
 13 12  2  0
 14 13  1  0
 15 14  1  0
 15 20  2  0
 16 15  1  0
 17 16  2  0
 17 18  1  0
 18 19  2  0
 19 20  1  0
 20 12  1  0
 21 22  2  0
 21 10  1  0
 23 24  1  0
 25 24  1  6
 25 27  1  0
 25 26  1  0
 26 21  1  0
 27 28  1  0
 29 27  2  0
M  END
$$$$
