MWS.pdb
     RDKit          3D

 29 30  0  0  1  0  0  0  0  0999 V2000
   27.4054  -18.3007   -6.1536 C   0  0  0  0  0  0  0  0  0  0  0  0
   28.4795  -19.6507   -6.6759 S   0  0  0  0  0  0  0  0  0  0  0  0
   27.4749  -20.9132   -7.5025 C   0  0  0  0  0  0  0  0  0  0  0  0
   26.6549  -20.3226   -8.6309 C   0  0  0  0  0  0  0  0  0  0  0  0
   26.7342  -21.1815   -9.8767 C   0  0  2  0  0  0  0  0  0  0  0  0
   28.1063  -21.3299  -10.3303 N   0  0  0  0  0  0  0  0  0  0  0  0
   25.9086  -20.5218  -10.9234 C   0  0  0  0  0  0  0  0  0  0  0  0
   26.1809  -19.3213  -11.2023 O   0  0  0  0  0  0  0  0  0  0  0  0
   24.8562  -21.1918  -11.5936 N   0  0  0  0  0  0  0  0  0  0  0  0
   24.1770  -20.5228  -12.7339 C   0  0  1  0  0  0  0  0  0  0  0  0
   24.6289  -21.2101  -13.9725 C   0  0  0  0  0  0  0  0  0  0  0  0
   25.9878  -20.8618  -14.3933 C   0  0  0  0  0  0  0  0  0  0  0  0
   27.1450  -21.6235  -14.3332 C   0  0  0  0  0  0  0  0  0  0  0  0
   28.1718  -20.8960  -14.7897 N   0  0  0  0  0  0  0  0  0  0  0  0
   27.7098  -19.6798  -15.1448 C   0  0  0  0  0  0  0  0  0  0  0  0
   28.3832  -18.5962  -15.6630 C   0  0  0  0  0  0  0  0  0  0  0  0
   27.6448  -17.4436  -15.9417 C   0  0  0  0  0  0  0  0  0  0  0  0
   26.3024  -17.3809  -15.7130 C   0  0  0  0  0  0  0  0  0  0  0  0
   25.6230  -18.4852  -15.1862 C   0  0  0  0  0  0  0  0  0  0  0  0
   26.3594  -19.6332  -14.9090 C   0  0  0  0  0  0  0  0  0  0  0  0
   22.7304  -20.5795  -12.5257 C   0  0  0  0  0  0  0  0  0  0  0  0
   22.1935  -21.6603  -12.1050 O   0  0  0  0  0  0  0  0  0  0  0  0
   20.0553  -17.5607  -13.4993 O   0  0  0  0  0  0  0  0  0  0  0  0
   19.7463  -18.2961  -12.3511 C   0  0  0  0  0  0  0  0  0  0  0  0
   20.4059  -19.6545  -12.5323 C   0  0  2  0  0  0  0  0  0  0  0  0
   21.8316  -19.5215  -12.7409 N   0  0  0  0  0  0  0  0  0  0  0  0
   19.7120  -20.4322  -13.5546 C   0  0  0  0  0  0  0  0  0  0  0  0
   20.3865  -20.8524  -14.6851 O   0  0  0  0  0  0  0  0  0  0  0  0
   18.4746  -20.7198  -13.3947 O   0  0  0  0  0  0  0  0  0  0  0  0
  2  1  1  0
  3  2  1  0
  4  3  1  0
  4  5  1  0
  5  7  1  0
  5  6  1  6
  7  8  2  0
  9 10  1  0
  9  7  1  0
 10 11  1  6
 12 11  1  0
 13 12  2  0
 14 13  1  0
 15 14  1  0
 15 20  2  0
 16 15  1  0
 17 16  2  0
 17 18  1  0
 18 19  2  0
 19 20  1  0
 20 12  1  0
 21 22  2  0
 21 10  1  0
 23 24  1  0
 25 24  1  6
 25 27  1  0
 25 26  1  0
 26 21  1  0
 27 28  1  0
 29 27  2  0
M  END
$$$$
