KVQ.pdb
     RDKit          3D

 26 25  0  0  1  0  0  0  0  0999 V2000
   27.4054  -22.6219  -16.1281 N   0  0  0  0  0  0  0  0  0  0  0  0
   26.9945  -21.2908  -15.6475 C   0  0  1  0  0  0  0  0  0  0  0  0
   26.3222  -20.5934  -16.7995 C   0  0  0  0  0  0  0  0  0  0  0  0
   27.2142  -20.2257  -17.9294 C   0  0  0  0  0  0  0  0  0  0  0  0
   28.2704  -19.2203  -17.5818 C   0  0  0  0  0  0  0  0  0  0  0  0
   29.1229  -18.8197  -18.7504 C   0  0  0  0  0  0  0  0  0  0  0  0
   30.0995  -17.8257  -18.4370 N   0  0  0  0  0  0  0  0  0  0  0  0
   26.0771  -21.5465  -14.5024 C   0  0  0  0  0  0  0  0  0  0  0  0
   25.2639  -22.5259  -14.6110 O   0  0  0  0  0  0  0  0  0  0  0  0
   26.8905  -21.0747  -10.4881 C   0  0  0  0  0  0  0  0  0  0  0  0
   25.6453  -20.4689  -11.0233 C   0  0  2  0  0  0  0  0  0  0  0  0
   24.5498  -20.6139   -9.9595 C   0  0  0  0  0  0  0  0  0  0  0  0
   25.1009  -21.0594  -12.2831 C   0  0  2  0  0  0  0  0  0  0  0  0
   26.0736  -20.7649  -13.3302 N   0  0  0  0  0  0  0  0  0  0  0  0
   23.7855  -20.5080  -12.5974 C   0  0  0  0  0  0  0  0  0  0  0  0
   23.7449  -19.2869  -12.9945 O   0  0  0  0  0  0  0  0  0  0  0  0
   21.1679  -18.2437  -15.5155 N   0  0  0  0  0  0  0  0  0  0  0  0
   19.9114  -18.8776  -15.4971 C   0  0  0  0  0  0  0  0  0  0  0  0
   18.9117  -18.3046  -15.9570 O   0  0  0  0  0  0  0  0  0  0  0  0
   19.7571  -20.2522  -14.9238 C   0  0  0  0  0  0  0  0  0  0  0  0
   21.0641  -20.7895  -14.4357 C   0  0  0  0  0  0  0  0  0  0  0  0
   21.2973  -20.4903  -12.9913 C   0  0  2  0  0  0  0  0  0  0  0  0
   22.5351  -21.1404  -12.5282 N   0  0  0  0  0  0  0  0  0  0  0  0
   20.2086  -20.9364  -12.1134 C   0  0  0  0  0  0  0  0  0  0  0  0
   20.1518  -22.2773  -11.6816 O   0  0  0  0  0  0  0  0  0  0  0  0
   19.2689  -20.1813  -11.6901 O   0  0  0  0  0  0  0  0  0  0  0  0
  2  3  1  0
  2  1  1  6
  4  5  1  0
  4  3  1  0
  5  6  1  0
  7  6  1  0
  8  9  2  0
  8  2  1  0
 11 10  1  1
 11 13  1  0
 11 12  1  0
 13 15  1  0
 13 14  1  6
 14  8  1  0
 15 16  2  0
 17 18  1  0
 18 20  1  0
 18 19  2  0
 20 21  1  0
 22 21  1  6
 22 24  1  0
 23 22  1  0
 23 15  1  0
 24 26  2  0
 24 25  1  0
M  END
$$$$
