KVQ.pdb
     RDKit          3D

 26 25  0  0  1  0  0  0  0  0999 V2000
   29.8298  -23.1749  -18.7446 N   0  0  0  0  0  0  0  0  0  0  0  0
   29.3476  -23.8720  -17.5392 C   0  0  1  0  0  0  0  0  0  0  0  0
   30.1073  -23.3076  -16.3689 C   0  0  0  0  0  0  0  0  0  0  0  0
   31.1468  -24.2002  -15.7944 C   0  0  0  0  0  0  0  0  0  0  0  0
   32.1962  -24.6368  -16.7718 C   0  0  0  0  0  0  0  0  0  0  0  0
   33.2433  -25.5267  -16.1680 C   0  0  0  0  0  0  0  0  0  0  0  0
   34.2421  -25.9526  -17.0958 N   0  0  0  0  0  0  0  0  0  0  0  0
   27.8855  -23.5943  -17.4765 C   0  0  0  0  0  0  0  0  0  0  0  0
   27.4576  -22.5658  -18.1022 O   0  0  0  0  0  0  0  0  0  0  0  0
   25.1410  -26.5172  -16.2786 C   0  0  0  0  0  0  0  0  0  0  0  0
   24.8297  -25.3319  -17.1165 C   0  0  2  0  0  0  0  0  0  0  0  0
   25.1740  -25.6737  -18.5717 C   0  0  0  0  0  0  0  0  0  0  0  0
   25.5584  -24.0696  -16.7883 C   0  0  2  0  0  0  0  0  0  0  0  0
   26.9780  -24.4065  -16.7683 N   0  0  0  0  0  0  0  0  0  0  0  0
   25.1149  -23.5234  -15.5084 C   0  0  0  0  0  0  0  0  0  0  0  0
   25.4347  -24.1807  -14.4518 O   0  0  0  0  0  0  0  0  0  0  0  0
   25.8928  -21.9135  -11.1932 N   0  0  0  0  0  0  0  0  0  0  0  0
   24.8270  -21.0301  -10.9397 C   0  0  0  0  0  0  0  0  0  0  0  0
   24.4773  -20.7852   -9.7748 O   0  0  0  0  0  0  0  0  0  0  0  0
   24.0961  -20.3703  -12.0678 C   0  0  0  0  0  0  0  0  0  0  0  0
   24.6202  -20.8196  -13.3940 C   0  0  0  0  0  0  0  0  0  0  0  0
   23.8786  -22.0012  -13.9269 C   0  0  2  0  0  0  0  0  0  0  0  0
   24.3766  -22.3552  -15.2671 N   0  0  0  0  0  0  0  0  0  0  0  0
   22.4302  -21.7885  -14.0356 C   0  0  0  0  0  0  0  0  0  0  0  0
   21.8577  -21.4352  -15.2746 O   0  0  0  0  0  0  0  0  0  0  0  0
   21.6103  -21.9007  -13.0622 O   0  0  0  0  0  0  0  0  0  0  0  0
  2  3  1  0
  2  1  1  6
  4  5  1  0
  4  3  1  0
  5  6  1  0
  7  6  1  0
  8  9  2  0
  8  2  1  0
 11 10  1  1
 11 13  1  0
 11 12  1  0
 13 15  1  0
 13 14  1  1
 14  8  1  0
 15 16  2  0
 17 18  1  0
 18 20  1  0
 18 19  2  0
 20 21  1  0
 22 21  1  6
 22 24  1  0
 23 22  1  0
 23 15  1  0
 24 26  2  0
 24 25  1  0
M  END
$$$$
