KVQ.pdb
     RDKit          3D

 26 25  0  0  1  0  0  0  0  0999 V2000
   12.8721  -11.1640  -11.0802 N   0  0  0  0  0  0  0  0  0  0  0  0
   14.3220  -10.9607  -10.9125 C   0  0  1  0  0  0  0  0  0  0  0  0
   15.0037  -11.6929  -12.0370 C   0  0  0  0  0  0  0  0  0  0  0  0
   14.8207  -13.1674  -12.0401 C   0  0  0  0  0  0  0  0  0  0  0  0
   15.5826  -13.8830  -13.1146 C   0  0  0  0  0  0  0  0  0  0  0  0
   15.4881  -15.3780  -13.0208 C   0  0  0  0  0  0  0  0  0  0  0  0
   16.1356  -15.9252  -11.8714 N   0  0  0  0  0  0  0  0  0  0  0  0
   14.5262   -9.4863  -10.9656 C   0  0  0  0  0  0  0  0  0  0  0  0
   13.8271   -8.8284  -11.8087 O   0  0  0  0  0  0  0  0  0  0  0  0
   15.8703   -7.4198   -7.7508 C   0  0  0  0  0  0  0  0  0  0  0  0
   15.2359   -6.7826   -8.9321 C   0  0  2  0  0  0  0  0  0  0  0  0
   13.7144   -6.8999   -8.7766 C   0  0  0  0  0  0  0  0  0  0  0  0
   15.5765   -7.3591  -10.2677 C   0  0  2  0  0  0  0  0  0  0  0  0
   15.4418   -8.8062  -10.1385 N   0  0  0  0  0  0  0  0  0  0  0  0
   16.9252   -6.9767  -10.6775 C   0  0  0  0  0  0  0  0  0  0  0  0
   17.8997   -7.4391   -9.9797 O   0  0  0  0  0  0  0  0  0  0  0  0
   19.9406   -9.2600  -14.6701 N   0  0  0  0  0  0  0  0  0  0  0  0
   20.9011   -8.2885  -14.3321 C   0  0  0  0  0  0  0  0  0  0  0  0
   22.0647   -8.3824  -14.7521 O   0  0  0  0  0  0  0  0  0  0  0  0
   20.5384   -7.1257  -13.4612 C   0  0  0  0  0  0  0  0  0  0  0  0
   19.1205   -7.2144  -12.9954 C   0  0  0  0  0  0  0  0  0  0  0  0
   18.7171   -6.0330  -12.1760 C   0  0  2  0  0  0  0  0  0  0  0  0
   17.3126   -6.1612  -11.7513 N   0  0  0  0  0  0  0  0  0  0  0  0
   18.8503   -4.7526  -12.8816 C   0  0  0  0  0  0  0  0  0  0  0  0
   17.7023   -4.0731  -13.3380 O   0  0  0  0  0  0  0  0  0  0  0  0
   19.9645   -4.1781  -13.1279 O   0  0  0  0  0  0  0  0  0  0  0  0
  2  3  1  0
  2  1  1  6
  4  5  1  0
  4  3  1  0
  5  6  1  0
  7  6  1  0
  8  9  2  0
  8  2  1  0
 11 10  1  1
 11 13  1  0
 11 12  1  0
 13 15  1  0
 13 14  1  1
 14  8  1  0
 15 16  2  0
 17 18  1  0
 18 20  1  0
 18 19  2  0
 20 21  1  0
 22 21  1  6
 22 24  1  0
 23 22  1  0
 23 15  1  0
 24 26  2  0
 24 25  1  0
M  END
$$$$
