KVQ.pdb
     RDKit          3D

 26 25  0  0  1  0  0  0  0  0999 V2000
   22.4718  -21.7658   -8.1206 N   0  0  0  0  0  0  0  0  0  0  0  0
   22.0121  -22.1558   -9.4653 C   0  0  1  0  0  0  0  0  0  0  0  0
   20.5229  -21.9416   -9.5024 C   0  0  0  0  0  0  0  0  0  0  0  0
   19.7018  -23.1009   -9.0673 C   0  0  0  0  0  0  0  0  0  0  0  0
   18.5218  -22.7388   -8.2167 C   0  0  0  0  0  0  0  0  0  0  0  0
   17.6779  -23.9184   -7.8305 C   0  0  0  0  0  0  0  0  0  0  0  0
   16.6088  -23.5951   -6.9402 N   0  0  0  0  0  0  0  0  0  0  0  0
   22.7536  -21.2754  -10.4106 C   0  0  0  0  0  0  0  0  0  0  0  0
   22.2342  -20.1404  -10.6835 O   0  0  0  0  0  0  0  0  0  0  0  0
   26.8692  -21.0325  -10.7018 C   0  0  0  0  0  0  0  0  0  0  0  0
   26.0808  -21.1261  -11.9563 C   0  0  2  0  0  0  0  0  0  0  0  0
   26.7566  -20.2404  -13.0107 C   0  0  0  0  0  0  0  0  0  0  0  0
   24.6526  -20.6933  -11.8837 C   0  0  2  0  0  0  0  0  0  0  0  0
   23.9793  -21.6406  -11.0015 N   0  0  0  0  0  0  0  0  0  0  0  0
   24.0434  -20.6643  -13.2108 C   0  0  0  0  0  0  0  0  0  0  0  0
   23.8058  -21.7972  -13.7681 O   0  0  0  0  0  0  0  0  0  0  0  0
   19.6373  -17.0081  -15.4508 N   0  0  0  0  0  0  0  0  0  0  0  0
   19.8884  -17.8270  -16.5675 C   0  0  0  0  0  0  0  0  0  0  0  0
   19.1827  -17.7372  -17.5840 O   0  0  0  0  0  0  0  0  0  0  0  0
   21.0091  -18.8199  -16.5507 C   0  0  0  0  0  0  0  0  0  0  0  0
   21.7208  -18.8169  -15.2359 C   0  0  0  0  0  0  0  0  0  0  0  0
   22.9427  -19.6753  -15.2497 C   0  0  2  0  0  0  0  0  0  0  0  0
   23.6704  -19.5488  -13.9754 N   0  0  0  0  0  0  0  0  0  0  0  0
   23.8817  -19.3473  -16.3293 C   0  0  0  0  0  0  0  0  0  0  0  0
   24.8752  -18.3670  -16.1299 O   0  0  0  0  0  0  0  0  0  0  0  0
   23.8745  -19.8975  -17.4824 O   0  0  0  0  0  0  0  0  0  0  0  0
  2  3  1  0
  2  1  1  1
  4  5  1  0
  4  3  1  0
  5  6  1  0
  7  6  1  0
  8  9  2  0
  8  2  1  0
 11 10  1  1
 11 13  1  0
 11 12  1  0
 13 15  1  0
 13 14  1  1
 14  8  1  0
 15 16  2  0
 17 18  1  0
 18 20  1  0
 18 19  2  0
 20 21  1  0
 22 21  1  1
 22 24  1  0
 23 22  1  0
 23 15  1  0
 24 26  2  0
 24 25  1  0
M  END
$$$$
