KVQ.pdb
     RDKit          3D

 26 25  0  0  1  0  0  0  0  0999 V2000
   31.9177  -33.1550  -17.0203 N   0  0  0  0  0  0  0  0  0  0  0  0
   31.1288  -31.9220  -16.8503 C   0  0  1  0  0  0  0  0  0  0  0  0
   31.6081  -30.9442  -17.8893 C   0  0  0  0  0  0  0  0  0  0  0  0
   32.9060  -30.2848  -17.5923 C   0  0  0  0  0  0  0  0  0  0  0  0
   33.3142  -29.2445  -18.5914 C   0  0  0  0  0  0  0  0  0  0  0  0
   34.6507  -28.6267  -18.3001 C   0  0  0  0  0  0  0  0  0  0  0  0
   35.0578  -27.6537  -19.2631 N   0  0  0  0  0  0  0  0  0  0  0  0
   29.7086  -32.3284  -17.0404 C   0  0  0  0  0  0  0  0  0  0  0  0
   29.4826  -33.3268  -17.8049 O   0  0  0  0  0  0  0  0  0  0  0  0
   25.5179  -33.3692  -15.2595 C   0  0  0  0  0  0  0  0  0  0  0  0
   26.9467  -33.0128  -15.4479 C   0  0  2  0  0  0  0  0  0  0  0  0
   27.4112  -32.2365  -14.2092 C   0  0  0  0  0  0  0  0  0  0  0  0
   27.2749  -32.1652  -16.6337 C   0  0  2  0  0  0  0  0  0  0  0  0
   28.6297  -31.6667  -16.4216 N   0  0  0  0  0  0  0  0  0  0  0  0
   26.3152  -31.0744  -16.7826 C   0  0  0  0  0  0  0  0  0  0  0  0
   26.3060  -30.1763  -15.8640 O   0  0  0  0  0  0  0  0  0  0  0  0
   22.1874  -29.5025  -21.1374 N   0  0  0  0  0  0  0  0  0  0  0  0
   22.2212  -28.3244  -20.3682 C   0  0  0  0  0  0  0  0  0  0  0  0
   21.3739  -27.4352  -20.5431 O   0  0  0  0  0  0  0  0  0  0  0  0
   23.2776  -28.1218  -19.3265 C   0  0  0  0  0  0  0  0  0  0  0  0
   24.1979  -29.2973  -19.2471 C   0  0  0  0  0  0  0  0  0  0  0  0
   24.4893  -29.6961  -17.8378 C   0  0  2  0  0  0  0  0  0  0  0  0
   25.3857  -30.8645  -17.8123 N   0  0  0  0  0  0  0  0  0  0  0  0
   23.2913  -30.0412  -17.0628 C   0  0  0  0  0  0  0  0  0  0  0  0
   22.6208  -29.0501  -16.3171 O   0  0  0  0  0  0  0  0  0  0  0  0
   22.7837  -31.2122  -17.0039 O   0  0  0  0  0  0  0  0  0  0  0  0
  2  3  1  0
  2  1  1  6
  4  5  1  0
  4  3  1  0
  5  6  1  0
  7  6  1  0
  8  9  2  0
  8  2  1  0
 11 10  1  1
 11 13  1  0
 11 12  1  0
 13 15  1  0
 13 14  1  1
 14  8  1  0
 15 16  2  0
 17 18  1  0
 18 20  1  0
 18 19  2  0
 20 21  1  0
 22 21  1  6
 22 24  1  0
 23 22  1  0
 23 15  1  0
 24 26  2  0
 24 25  1  0
M  END
$$$$
