KVQ.pdb
     RDKit          3D

 26 25  0  0  1  0  0  0  0  0999 V2000
   22.4335  -21.4004  -14.5486 N   0  0  0  0  0  0  0  0  0  0  0  0
   21.3170  -20.6678  -13.9255 C   0  0  1  0  0  0  0  0  0  0  0  0
   20.9940  -19.5058  -14.8257 C   0  0  0  0  0  0  0  0  0  0  0  0
   21.8553  -19.3740  -16.0292 C   0  0  0  0  0  0  0  0  0  0  0  0
   23.2498  -18.9041  -15.7434 C   0  0  0  0  0  0  0  0  0  0  0  0
   24.0655  -18.6635  -16.9802 C   0  0  0  0  0  0  0  0  0  0  0  0
   25.4398  -18.3773  -16.7172 N   0  0  0  0  0  0  0  0  0  0  0  0
   20.2045  -21.6526  -13.8192 C   0  0  0  0  0  0  0  0  0  0  0  0
   19.0940  -21.3429  -14.3698 O   0  0  0  0  0  0  0  0  0  0  0  0
   20.6415  -25.7037  -13.7001 C   0  0  0  0  0  0  0  0  0  0  0  0
   19.4103  -24.9121  -13.9482 C   0  0  2  0  0  0  0  0  0  0  0  0
   19.4882  -24.3438  -15.3709 C   0  0  0  0  0  0  0  0  0  0  0  0
   19.1632  -23.7545  -13.0366 C   0  0  2  0  0  0  0  0  0  0  0  0
   20.3298  -22.8853  -13.1487 N   0  0  0  0  0  0  0  0  0  0  0  0
   18.9535  -24.2023  -11.6623 C   0  0  0  0  0  0  0  0  0  0  0  0
   19.7247  -23.7052  -10.7631 O   0  0  0  0  0  0  0  0  0  0  0  0
   19.7600  -24.0232   -7.0837 N   0  0  0  0  0  0  0  0  0  0  0  0
   18.6299  -24.7834   -6.7289 C   0  0  0  0  0  0  0  0  0  0  0  0
   18.6802  -25.5772   -5.7767 O   0  0  0  0  0  0  0  0  0  0  0  0
   17.3483  -24.6493   -7.4916 C   0  0  0  0  0  0  0  0  0  0  0  0
   17.5995  -24.2940   -8.9219 C   0  0  0  0  0  0  0  0  0  0  0  0
   17.9280  -25.4892   -9.7547 C   0  0  2  0  0  0  0  0  0  0  0  0
   18.0052  -25.1153  -11.1772 N   0  0  0  0  0  0  0  0  0  0  0  0
   16.9499  -26.5774   -9.6362 C   0  0  0  0  0  0  0  0  0  0  0  0
   17.0467  -27.5042   -8.5781 O   0  0  0  0  0  0  0  0  0  0  0  0
   15.9781  -26.7640  -10.4445 O   0  0  0  0  0  0  0  0  0  0  0  0
  2  3  1  0
  2  1  1  6
  4  5  1  0
  4  3  1  0
  5  6  1  0
  7  6  1  0
  8  9  2  0
  8  2  1  0
 11 10  1  1
 11 13  1  0
 11 12  1  0
 13 15  1  0
 13 14  1  1
 14  8  1  0
 15 16  2  0
 17 18  1  0
 18 20  1  0
 18 19  2  0
 20 21  1  0
 22 21  1  1
 22 24  1  0
 23 22  1  0
 23 15  1  0
 24 26  2  0
 24 25  1  0
M  END
$$$$
