KVQ.pdb
     RDKit          3D

 26 25  0  0  1  0  0  0  0  0999 V2000
   20.1556  -20.7821  -11.7113 N   0  0  0  0  0  0  0  0  0  0  0  0
   21.0551  -21.4516  -12.6675 C   0  0  1  0  0  0  0  0  0  0  0  0
   20.3633  -21.4440  -14.0042 C   0  0  0  0  0  0  0  0  0  0  0  0
   19.7083  -22.7207  -14.3894 C   0  0  0  0  0  0  0  0  0  0  0  0
   18.6034  -23.1505  -13.4719 C   0  0  0  0  0  0  0  0  0  0  0  0
   17.8909  -24.3888  -13.9321 C   0  0  0  0  0  0  0  0  0  0  0  0
   17.1841  -24.2231  -15.1622 N   0  0  0  0  0  0  0  0  0  0  0  0
   22.3135  -20.6549  -12.6555 C   0  0  0  0  0  0  0  0  0  0  0  0
   22.2007  -19.3824  -12.6339 O   0  0  0  0  0  0  0  0  0  0  0  0
   26.0886  -22.3330  -11.7825 C   0  0  0  0  0  0  0  0  0  0  0  0
   25.7159  -20.8998  -11.6780 C   0  0  2  0  0  0  0  0  0  0  0  0
   25.0472  -20.6798  -10.3151 C   0  0  0  0  0  0  0  0  0  0  0  0
   24.7701  -20.3768  -12.7095 C   0  0  2  0  0  0  0  0  0  0  0  0
   23.5948  -21.2405  -12.6667 N   0  0  0  0  0  0  0  0  0  0  0  0
   25.3868  -20.3691  -14.0334 C   0  0  0  0  0  0  0  0  0  0  0  0
   25.4515  -21.4928  -14.6529 O   0  0  0  0  0  0  0  0  0  0  0  0
   22.5164  -19.4283  -18.3849 N   0  0  0  0  0  0  0  0  0  0  0  0
   23.7145  -19.2984  -19.1118 C   0  0  0  0  0  0  0  0  0  0  0  0
   23.6995  -19.2949  -20.3524 O   0  0  0  0  0  0  0  0  0  0  0  0
   25.0271  -19.1624  -18.4042 C   0  0  0  0  0  0  0  0  0  0  0  0
   24.8501  -19.1738  -16.9196 C   0  0  0  0  0  0  0  0  0  0  0  0
   26.1471  -19.3207  -16.1943 C   0  0  2  0  0  0  0  0  0  0  0  0
   25.9257  -19.2828  -14.7386 N   0  0  0  0  0  0  0  0  0  0  0  0
   27.1265  -18.2768  -16.5198 C   0  0  0  0  0  0  0  0  0  0  0  0
   27.9264  -18.3920  -17.6750 O   0  0  0  0  0  0  0  0  0  0  0  0
   27.3239  -17.2292  -15.8155 O   0  0  0  0  0  0  0  0  0  0  0  0
  2  3  1  0
  2  1  1  1
  4  5  1  0
  4  3  1  0
  5  6  1  0
  7  6  1  0
  8  9  2  0
  8  2  1  0
 11 10  1  6
 11 13  1  0
 11 12  1  0
 13 15  1  0
 13 14  1  6
 14  8  1  0
 15 16  2  0
 17 18  1  0
 18 20  1  0
 18 19  2  0
 20 21  1  0
 22 21  1  6
 22 24  1  0
 23 22  1  0
 23 15  1  0
 24 26  2  0
 24 25  1  0
M  END
$$$$
