GIK.pdb
     RDKit          3D

 22 21  0  0  1  0  0  0  0  0999 V2000
    6.2603  -19.7052   27.0743 N   0  0  0  0  0  0  0  0  0  0  0  0
    6.7009  -18.4625   27.6550 C   0  0  0  0  0  0  0  0  0  0  0  0
    6.9167  -17.4701   26.5733 C   0  0  0  0  0  0  0  0  0  0  0  0
    6.7021  -17.7981   25.3611 O   0  0  0  0  0  0  0  0  0  0  0  0
    6.0061  -12.1423   25.4996 C   0  0  0  0  0  0  0  0  0  0  0  0
    7.4497  -12.6897   25.4323 C   0  0  0  0  0  0  0  0  0  0  0  0
    7.6062  -13.8113   26.3956 C   0  0  2  0  0  0  0  0  0  0  0  0
    8.8325  -13.5424   27.2506 C   0  0  0  0  0  0  0  0  0  0  0  0
    7.6543  -15.1947   25.7880 C   0  0  2  0  0  0  0  0  0  0  0  0
    7.3562  -16.1698   26.8723 N   0  0  0  0  0  0  0  0  0  0  0  0
    8.9706  -15.5438   25.2086 C   0  0  0  0  0  0  0  0  0  0  0  0
    9.9341  -15.9436   25.9400 O   0  0  0  0  0  0  0  0  0  0  0  0
    9.1911  -15.4489   23.8245 N   0  0  0  0  0  0  0  0  0  0  0  0
   10.4117  -16.1389   23.2154 C   0  0  1  0  0  0  0  0  0  0  0  0
    9.8053  -17.2904   22.5407 C   0  0  0  0  0  0  0  0  0  0  0  0
   10.2401  -18.6488   22.4508 C   0  0  0  0  0  0  0  0  0  0  0  0
   10.7004  -19.4131   21.3122 C   0  0  0  0  0  0  0  0  0  0  0  0
   11.6976  -20.4834   21.4748 C   0  0  0  0  0  0  0  0  0  0  0  0
   11.1221  -21.7938   21.6787 N   0  0  0  0  0  0  0  0  0  0  0  0
   11.0609  -15.0739   22.4998 C   0  0  0  0  0  0  0  0  0  0  0  0
   12.4219  -15.0809   22.2607 O   0  0  0  0  0  0  0  0  0  0  0  0
   10.4325  -14.0908   22.0607 O   0  0  0  0  0  0  0  0  0  0  0  0
  2  3  1  0
  2  1  1  0
  3 10  1  0
  4  3  2  0
  6  5  1  0
  7  9  1  0
  7  6  1  0
  7  8  1  6
  9 11  1  0
  9 10  1  1
 11 13  1  0
 11 12  2  0
 13 14  1  0
 14 20  1  0
 14 15  1  6
 16 15  1  0
 17 18  1  0
 17 16  1  0
 19 18  1  0
 20 21  1  0
 22 20  2  0
M  END
$$$$
