GIK.pdb
     RDKit          3D

 22 21  0  0  1  0  0  0  0  0999 V2000
    8.0554  -18.1392   16.0948 N   0  0  0  0  0  0  0  0  0  0  0  0
    7.3745  -17.8431   17.3296 C   0  0  0  0  0  0  0  0  0  0  0  0
    8.3092  -17.1416   18.2438 C   0  0  0  0  0  0  0  0  0  0  0  0
    9.5627  -17.3483   18.1485 O   0  0  0  0  0  0  0  0  0  0  0  0
    6.8754  -12.1390   20.1239 C   0  0  0  0  0  0  0  0  0  0  0  0
    7.7043  -13.2952   19.5204 C   0  0  0  0  0  0  0  0  0  0  0  0
    8.0558  -14.2701   20.5864 C   0  0  2  0  0  0  0  0  0  0  0  0
    8.8654  -13.5479   21.6496 C   0  0  0  0  0  0  0  0  0  0  0  0
    8.7584  -15.5250   20.1207 C   0  0  2  0  0  0  0  0  0  0  0  0
    7.8254  -16.2498   19.2154 N   0  0  0  0  0  0  0  0  0  0  0  0
    9.1306  -16.4410   21.2219 C   0  0  0  0  0  0  0  0  0  0  0  0
    8.2464  -17.0448   21.9122 O   0  0  0  0  0  0  0  0  0  0  0  0
   10.4804  -16.6754   21.5323 N   0  0  0  0  0  0  0  0  0  0  0  0
   10.8332  -17.7564   22.5540 C   0  0  1  0  0  0  0  0  0  0  0  0
   11.9626  -18.4305   21.9065 C   0  0  0  0  0  0  0  0  0  0  0  0
   12.4818  -19.7501   22.0834 C   0  0  0  0  0  0  0  0  0  0  0  0
   13.6039  -20.4091   21.4518 C   0  0  0  0  0  0  0  0  0  0  0  0
   13.9577  -21.7952   21.7980 C   0  0  0  0  0  0  0  0  0  0  0  0
   15.0924  -22.3103   21.0651 N   0  0  0  0  0  0  0  0  0  0  0  0
   10.9715  -17.0123   23.7767 C   0  0  0  0  0  0  0  0  0  0  0  0
   10.8308  -17.6115   25.0138 O   0  0  0  0  0  0  0  0  0  0  0  0
   11.2227  -15.7912   23.7847 O   0  0  0  0  0  0  0  0  0  0  0  0
  2  3  1  0
  2  1  1  0
  3 10  1  0
  4  3  2  0
  6  5  1  0
  7  9  1  0
  7  6  1  0
  7  8  1  1
  9 11  1  0
  9 10  1  6
 11 13  1  0
 11 12  2  0
 13 14  1  0
 14 20  1  0
 14 15  1  6
 16 15  1  0
 17 18  1  0
 17 16  1  0
 19 18  1  0
 20 21  1  0
 22 20  2  0
M  END
$$$$
