GIK.pdb
     RDKit          3D

 22 21  0  0  1  0  0  0  0  0999 V2000
    5.1329  -19.3347   25.1404 N   0  0  0  0  0  0  0  0  0  0  0  0
    5.5215  -18.2510   26.0067 C   0  0  0  0  0  0  0  0  0  0  0  0
    6.1638  -17.1872   25.1961 C   0  0  0  0  0  0  0  0  0  0  0  0
    6.3884  -17.3835   23.9575 O   0  0  0  0  0  0  0  0  0  0  0  0
    5.9021  -11.8533   26.7700 C   0  0  0  0  0  0  0  0  0  0  0  0
    5.9069  -13.0670   25.8134 C   0  0  0  0  0  0  0  0  0  0  0  0
    7.2691  -13.6604   25.7629 C   0  0  2  0  0  0  0  0  0  0  0  0
    8.2183  -12.6340   25.1689 C   0  0  0  0  0  0  0  0  0  0  0  0
    7.3793  -14.9876   25.0474 C   0  0  2  0  0  0  0  0  0  0  0  0
    6.5278  -15.9630   25.7812 N   0  0  0  0  0  0  0  0  0  0  0  0
    8.7571  -15.5261   25.0032 C   0  0  0  0  0  0  0  0  0  0  0  0
    9.3737  -15.8631   26.0658 O   0  0  0  0  0  0  0  0  0  0  0  0
    9.4233  -15.6873   23.7770 N   0  0  0  0  0  0  0  0  0  0  0  0
   10.7272  -16.4843   23.7366 C   0  0  1  0  0  0  0  0  0  0  0  0
   10.5435  -17.3083   22.5382 C   0  0  0  0  0  0  0  0  0  0  0  0
   10.8878  -18.6724   22.2874 C   0  0  0  0  0  0  0  0  0  0  0  0
   10.0692  -19.7810   21.8476 C   0  0  0  0  0  0  0  0  0  0  0  0
   10.6562  -21.1130   21.6299 C   0  0  0  0  0  0  0  0  0  0  0  0
    9.6976  -22.1159   21.2233 N   0  0  0  0  0  0  0  0  0  0  0  0
   11.7339  -15.4615   23.8279 C   0  0  0  0  0  0  0  0  0  0  0  0
   12.9782  -15.7109   24.3743 O   0  0  0  0  0  0  0  0  0  0  0  0
   11.5367  -14.2993   23.4219 O   0  0  0  0  0  0  0  0  0  0  0  0
  2  3  1  0
  2  1  1  0
  3 10  1  0
  4  3  2  0
  6  5  1  0
  7  9  1  0
  7  6  1  0
  7  8  1  6
  9 11  1  0
  9 10  1  1
 11 13  1  0
 11 12  2  0
 13 14  1  0
 14 20  1  0
 14 15  1  6
 16 15  1  0
 17 18  1  0
 17 16  1  0
 19 18  1  0
 20 21  1  0
 22 20  2  0
M  END
$$$$
