GIK.pdb
     RDKit          3D

 22 21  0  0  1  0  0  0  0  0999 V2000
    4.5263  -18.8377   22.3744 N   0  0  0  0  0  0  0  0  0  0  0  0
    4.5229  -17.4692   21.9240 C   0  0  0  0  0  0  0  0  0  0  0  0
    5.8994  -17.0855   21.5246 C   0  0  0  0  0  0  0  0  0  0  0  0
    6.4728  -17.6945   20.5637 O   0  0  0  0  0  0  0  0  0  0  0  0
    7.0501  -12.0624   20.5303 C   0  0  0  0  0  0  0  0  0  0  0  0
    7.0470  -13.6076   20.5117 C   0  0  0  0  0  0  0  0  0  0  0  0
    7.9102  -14.1241   21.6066 C   0  0  2  0  0  0  0  0  0  0  0  0
    9.3099  -13.5647   21.4190 C   0  0  0  0  0  0  0  0  0  0  0  0
    7.9373  -15.6272   21.7656 C   0  0  2  0  0  0  0  0  0  0  0  0
    6.5787  -16.0557   22.1965 N   0  0  0  0  0  0  0  0  0  0  0  0
    8.9082  -16.1001   22.7775 C   0  0  0  0  0  0  0  0  0  0  0  0
    8.7425  -15.8653   24.0186 O   0  0  0  0  0  0  0  0  0  0  0  0
   10.0435  -16.8324   22.3926 N   0  0  0  0  0  0  0  0  0  0  0  0
   11.0376  -17.2831   23.4629 C   0  0  1  0  0  0  0  0  0  0  0  0
   11.3281  -18.6590   23.0486 C   0  0  0  0  0  0  0  0  0  0  0  0
   10.5448  -19.8487   23.1646 C   0  0  0  0  0  0  0  0  0  0  0  0
   10.7951  -21.1877   22.6781 C   0  0  0  0  0  0  0  0  0  0  0  0
    9.8275  -22.2708   22.9171 C   0  0  0  0  0  0  0  0  0  0  0  0
   10.1519  -23.5057   22.2391 N   0  0  0  0  0  0  0  0  0  0  0  0
   12.0285  -16.2412   23.4424 C   0  0  0  0  0  0  0  0  0  0  0  0
   12.6987  -15.8509   24.5859 O   0  0  0  0  0  0  0  0  0  0  0  0
   12.3325  -15.6361   22.3956 O   0  0  0  0  0  0  0  0  0  0  0  0
  2  3  1  0
  2  1  1  0
  3 10  1  0
  4  3  2  0
  6  5  1  0
  7  9  1  0
  7  6  1  0
  7  8  1  6
  9 11  1  0
  9 10  1  1
 11 13  1  0
 11 12  2  0
 13 14  1  0
 14 20  1  0
 14 15  1  6
 16 15  1  0
 17 18  1  0
 17 16  1  0
 19 18  1  0
 20 21  1  0
 22 20  2  0
M  END
$$$$
