GIK.pdb
     RDKit          3D

 22 21  0  0  1  0  0  0  0  0999 V2000
    5.5945  -19.4819   25.0313 N   0  0  0  0  0  0  0  0  0  0  0  0
    5.5656  -18.2181   25.7225 C   0  0  0  0  0  0  0  0  0  0  0  0
    6.3750  -17.2315   24.9656 C   0  0  0  0  0  0  0  0  0  0  0  0
    6.8684  -17.5513   23.8353 O   0  0  0  0  0  0  0  0  0  0  0  0
    7.0834  -11.8163   26.9669 C   0  0  0  0  0  0  0  0  0  0  0  0
    7.3999  -13.3017   26.6814 C   0  0  0  0  0  0  0  0  0  0  0  0
    7.1499  -13.6010   25.2467 C   0  0  2  0  0  0  0  0  0  0  0  0
    5.6960  -13.2886   24.9372 C   0  0  0  0  0  0  0  0  0  0  0  0
    7.5191  -14.9955   24.7946 C   0  0  2  0  0  0  0  0  0  0  0  0
    6.6036  -15.9457   25.4832 N   0  0  0  0  0  0  0  0  0  0  0  0
    8.9095  -15.3790   25.1262 C   0  0  0  0  0  0  0  0  0  0  0  0
    9.3162  -15.4275   26.3325 O   0  0  0  0  0  0  0  0  0  0  0  0
    9.8224  -15.7088   24.1107 N   0  0  0  0  0  0  0  0  0  0  0  0
   11.2246  -16.1818   24.4941 C   0  0  1  0  0  0  0  0  0  0  0  0
   11.0635  -17.6389   24.5000 C   0  0  0  0  0  0  0  0  0  0  0  0
   11.6161  -18.6307   25.3679 C   0  0  0  0  0  0  0  0  0  0  0  0
   11.0511  -19.2797   26.5307 C   0  0  0  0  0  0  0  0  0  0  0  0
   11.8194  -20.2859   27.2814 C   0  0  0  0  0  0  0  0  0  0  0  0
   11.1629  -20.7460   28.4844 N   0  0  0  0  0  0  0  0  0  0  0  0
   12.0656  -15.4982   23.5490 C   0  0  0  0  0  0  0  0  0  0  0  0
   13.4038  -15.2638   23.8012 O   0  0  0  0  0  0  0  0  0  0  0  0
   11.6326  -15.0808   22.4570 O   0  0  0  0  0  0  0  0  0  0  0  0
  2  3  1  0
  2  1  1  0
  3 10  1  0
  4  3  2  0
  6  5  1  0
  7  9  1  0
  7  6  1  0
  7  8  1  1
  9 11  1  0
  9 10  1  1
 11 13  1  0
 11 12  2  0
 13 14  1  0
 14 20  1  0
 14 15  1  6
 16 15  1  0
 17 18  1  0
 17 16  1  0
 19 18  1  0
 20 21  1  0
 22 20  2  0
M  END
$$$$
