GIK.pdb
     RDKit          3D

 22 21  0  0  1  0  0  0  0  0999 V2000
    7.3530  -14.6916   19.6203 N   0  0  0  0  0  0  0  0  0  0  0  0
    6.5717  -14.7103   20.8307 C   0  0  0  0  0  0  0  0  0  0  0  0
    7.4663  -14.4717   21.9902 C   0  0  0  0  0  0  0  0  0  0  0  0
    8.7260  -14.6065   21.8563 O   0  0  0  0  0  0  0  0  0  0  0  0
    7.0632  -11.5653   27.4111 C   0  0  0  0  0  0  0  0  0  0  0  0
    7.9023  -12.5404   26.5547 C   0  0  0  0  0  0  0  0  0  0  0  0
    7.1112  -12.9801   25.3752 C   0  0  2  0  0  0  0  0  0  0  0  0
    5.8113  -13.5910   25.8694 C   0  0  0  0  0  0  0  0  0  0  0  0
    7.8236  -13.9079   24.4176 C   0  0  2  0  0  0  0  0  0  0  0  0
    6.9376  -14.0980   23.2369 N   0  0  0  0  0  0  0  0  0  0  0  0
    8.1158  -15.2414   24.9891 C   0  0  0  0  0  0  0  0  0  0  0  0
    7.2175  -16.1410   25.0713 O   0  0  0  0  0  0  0  0  0  0  0  0
    9.4042  -15.5543   25.4532 N   0  0  0  0  0  0  0  0  0  0  0  0
    9.7136  -16.9885   25.8827 C   0  0  1  0  0  0  0  0  0  0  0  0
   10.4437  -17.5037   24.7205 C   0  0  0  0  0  0  0  0  0  0  0  0
   11.8338  -17.4416   24.3949 C   0  0  0  0  0  0  0  0  0  0  0  0
   12.5561  -17.9741   23.2604 C   0  0  0  0  0  0  0  0  0  0  0  0
   14.0198  -17.8482   23.1709 C   0  0  0  0  0  0  0  0  0  0  0  0
   14.5797  -18.3819   21.9495 N   0  0  0  0  0  0  0  0  0  0  0  0
   10.3291  -16.8142   27.1706 C   0  0  0  0  0  0  0  0  0  0  0  0
   10.6541  -17.8903   27.9741 O   0  0  0  0  0  0  0  0  0  0  0  0
   10.5991  -15.6868   27.6291 O   0  0  0  0  0  0  0  0  0  0  0  0
  2  3  1  0
  2  1  1  0
  3 10  1  0
  4  3  2  0
  6  5  1  0
  7  9  1  0
  7  6  1  0
  7  8  1  1
  9 11  1  0
  9 10  1  6
 11 13  1  0
 11 12  2  0
 13 14  1  0
 14 20  1  0
 14 15  1  6
 16 15  1  0
 17 18  1  0
 17 16  1  0
 19 18  1  0
 20 21  1  0
 22 20  2  0
M  END
$$$$
