GIK.pdb
     RDKit          3D

 22 21  0  0  1  0  0  0  0  0999 V2000
    5.2956  -19.7133   23.8463 N   0  0  0  0  0  0  0  0  0  0  0  0
    5.4383  -18.7386   24.8977 C   0  0  0  0  0  0  0  0  0  0  0  0
    6.2859  -17.6215   24.4129 C   0  0  0  0  0  0  0  0  0  0  0  0
    6.8703  -17.7136   23.2846 O   0  0  0  0  0  0  0  0  0  0  0  0
    6.9609  -11.6213   25.6012 C   0  0  0  0  0  0  0  0  0  0  0  0
    7.5871  -12.8562   24.9150 C   0  0  0  0  0  0  0  0  0  0  0  0
    6.8923  -14.0892   25.3704 C   0  0  2  0  0  0  0  0  0  0  0  0
    6.9520  -14.1417   26.8873 C   0  0  0  0  0  0  0  0  0  0  0  0
    7.3821  -15.3814   24.7575 C   0  0  2  0  0  0  0  0  0  0  0  0
    6.4513  -16.4607   25.1866 N   0  0  0  0  0  0  0  0  0  0  0  0
    8.7481  -15.7603   25.1825 C   0  0  0  0  0  0  0  0  0  0  0  0
    9.0044  -16.0805   26.3886 O   0  0  0  0  0  0  0  0  0  0  0  0
    9.8048  -15.7833   24.2572 N   0  0  0  0  0  0  0  0  0  0  0  0
   11.1831  -16.2635   24.7119 C   0  0  1  0  0  0  0  0  0  0  0  0
   10.9759  -17.7094   24.8367 C   0  0  0  0  0  0  0  0  0  0  0  0
   11.2774  -18.6014   25.9117 C   0  0  0  0  0  0  0  0  0  0  0  0
   12.1232  -19.7743   25.9483 C   0  0  0  0  0  0  0  0  0  0  0  0
   12.2482  -20.5768   27.1758 C   0  0  0  0  0  0  0  0  0  0  0  0
   10.9811  -20.9818   27.7420 N   0  0  0  0  0  0  0  0  0  0  0  0
   12.0648  -15.6879   23.7328 C   0  0  0  0  0  0  0  0  0  0  0  0
   13.3843  -15.3972   24.0223 O   0  0  0  0  0  0  0  0  0  0  0  0
   11.6859  -15.4199   22.5756 O   0  0  0  0  0  0  0  0  0  0  0  0
  2  3  1  0
  2  1  1  0
  3 10  1  0
  4  3  2  0
  6  5  1  0
  7  9  1  0
  7  6  1  0
  7  8  1  1
  9 11  1  0
  9 10  1  1
 11 13  1  0
 11 12  2  0
 13 14  1  0
 14 20  1  0
 14 15  1  6
 16 15  1  0
 17 18  1  0
 17 16  1  0
 19 18  1  0
 20 21  1  0
 22 20  2  0
M  END
$$$$
