GIK.pdb
     RDKit          3D

 22 21  0  0  1  0  0  0  0  0999 V2000
    4.2479  -18.8039   23.0655 N   0  0  0  0  0  0  0  0  0  0  0  0
    4.9379  -18.4312   24.2741 C   0  0  0  0  0  0  0  0  0  0  0  0
    5.9132  -17.3565   23.9652 C   0  0  0  0  0  0  0  0  0  0  0  0
    6.5781  -17.3979   22.8792 O   0  0  0  0  0  0  0  0  0  0  0  0
    7.2129  -11.6920   26.0959 C   0  0  0  0  0  0  0  0  0  0  0  0
    7.6543  -12.8426   25.1635 C   0  0  0  0  0  0  0  0  0  0  0  0
    6.7950  -14.0336   25.3951 C   0  0  2  0  0  0  0  0  0  0  0  0
    6.7563  -14.3149   26.8872 C   0  0  0  0  0  0  0  0  0  0  0  0
    7.1681  -15.2725   24.6132 C   0  0  2  0  0  0  0  0  0  0  0  0
    6.1116  -16.2914   24.8594 N   0  0  0  0  0  0  0  0  0  0  0  0
    8.4683  -15.8569   25.0109 C   0  0  0  0  0  0  0  0  0  0  0  0
    8.6141  -16.4589   26.1241 O   0  0  0  0  0  0  0  0  0  0  0  0
    9.5828  -15.7679   24.1605 N   0  0  0  0  0  0  0  0  0  0  0  0
   10.7690  -16.7054   24.3862 C   0  0  1  0  0  0  0  0  0  0  0  0
   10.7791  -17.4876   23.1464 C   0  0  0  0  0  0  0  0  0  0  0  0
   10.1502  -18.7307   22.8275 C   0  0  0  0  0  0  0  0  0  0  0  0
   10.1233  -19.4778   21.5892 C   0  0  0  0  0  0  0  0  0  0  0  0
    9.4346  -20.7759   21.5057 C   0  0  0  0  0  0  0  0  0  0  0  0
    9.5606  -21.4238   20.2196 N   0  0  0  0  0  0  0  0  0  0  0  0
   11.8304  -15.8032   24.7429 C   0  0  0  0  0  0  0  0  0  0  0  0
   11.8170  -14.4755   24.3605 O   0  0  0  0  0  0  0  0  0  0  0  0
   12.8161  -16.1708   25.4119 O   0  0  0  0  0  0  0  0  0  0  0  0
  2  3  1  0
  2  1  1  0
  3 10  1  0
  4  3  2  0
  6  5  1  0
  7  9  1  0
  7  6  1  0
  7  8  1  1
  9 11  1  0
  9 10  1  1
 11 13  1  0
 11 12  2  0
 13 14  1  0
 14 20  1  0
 14 15  1  6
 16 15  1  0
 17 18  1  0
 17 16  1  0
 19 18  1  0
 20 21  1  0
 22 20  2  0
M  END
$$$$
