WTY.pdb
     RDKit          3D

 34 36  0  0  1  0  0  0  0  0999 V2000
    6.5648  -17.2341   24.6086 N   0  0  0  0  0  0  0  0  0  0  0  0
    7.5469  -16.3090   24.1286 C   0  0  1  0  0  0  0  0  0  0  0  0
    8.1106  -15.4617   25.2406 C   0  0  0  0  0  0  0  0  0  0  0  0
    7.1591  -14.4623   25.7725 C   0  0  0  0  0  0  0  0  0  0  0  0
    6.1699  -14.7402   26.6898 C   0  0  0  0  0  0  0  0  0  0  0  0
    5.4997  -13.6095   26.9798 N   0  0  0  0  0  0  0  0  0  0  0  0
    6.0238  -12.5860   26.2731 C   0  0  0  0  0  0  0  0  0  0  0  0
    5.6778  -11.2537   26.2281 C   0  0  0  0  0  0  0  0  0  0  0  0
    6.3687  -10.3991   25.4129 C   0  0  0  0  0  0  0  0  0  0  0  0
    7.3993  -10.9125   24.6566 C   0  0  0  0  0  0  0  0  0  0  0  0
    7.7488  -12.2548   24.7015 C   0  0  0  0  0  0  0  0  0  0  0  0
    7.0643  -13.1188   25.5149 C   0  0  0  0  0  0  0  0  0  0  0  0
    8.6519  -17.0546   23.4767 C   0  0  0  0  0  0  0  0  0  0  0  0
    8.8961  -18.2192   23.8743 O   0  0  0  0  0  0  0  0  0  0  0  0
   10.0493  -17.0948   19.7935 C   0  0  0  0  0  0  0  0  0  0  0  0
   11.1369  -16.7396   20.7676 C   0  0  1  0  0  0  0  0  0  0  0  0
   11.3380  -15.3569   20.6684 O   0  0  0  0  0  0  0  0  0  0  0  0
   10.7649  -17.0349   22.2008 C   0  0  2  0  0  0  0  0  0  0  0  0
    9.4387  -16.5138   22.4328 N   0  0  0  0  0  0  0  0  0  0  0  0
   11.7523  -16.4856   23.1591 C   0  0  0  0  0  0  0  0  0  0  0  0
   11.8095  -15.2528   23.3234 O   0  0  0  0  0  0  0  0  0  0  0  0
    8.8260  -15.4251   28.8374 O   0  0  0  0  0  0  0  0  0  0  0  0
    9.9844  -15.8427   28.1907 C   0  0  0  0  0  0  0  0  0  0  0  0
   11.0747  -15.0228   28.0218 C   0  0  0  0  0  0  0  0  0  0  0  0
   12.2143  -15.4519   27.3788 C   0  0  0  0  0  0  0  0  0  0  0  0
   12.3331  -16.7286   26.8644 C   0  0  0  0  0  0  0  0  0  0  0  0
   13.5303  -17.2057   26.1639 C   0  0  0  0  0  0  0  0  0  0  0  0
   13.6214  -16.7497   24.7617 C   0  0  2  0  0  0  0  0  0  0  0  0
   12.6317  -17.3077   23.8936 N   0  0  0  0  0  0  0  0  0  0  0  0
   14.9419  -17.0696   24.1846 C   0  0  0  0  0  0  0  0  0  0  0  0
   15.9793  -16.6228   24.7394 O   0  0  0  0  0  0  0  0  0  0  0  0
   11.2143  -17.5561   27.0431 C   0  0  0  0  0  0  0  0  0  0  0  0
   10.0785  -17.1225   27.6863 C   0  0  0  0  0  0  0  0  0  0  0  0
   15.0846  -17.8572   23.0339 O   0  0  0  0  0  0  0  0  0  0  0  0
  2  1  1  1
  2 13  1  0
  2  3  1  0
  4  3  1  0
  5  4  2  0
  6  7  1  0
  6  5  1  0
  7 12  2  0
  8  9  2  0
  8  7  1  0
  9 10  1  0
 10 11  2  0
 12  4  1  0
 12 11  1  0
 13 14  2  0
 16 15  1  6
 16 18  1  0
 17 16  1  0
 18 20  1  0
 18 19  1  1
 19 13  1  0
 20 29  1  0
 20 21  2  0
 22 23  1  0
 23 33  2  0
 23 24  1  0
 24 25  2  0
 25 26  1  0
 26 27  1  0
 28 27  1  1
 28 30  1  0
 29 28  1  0
 30 31  2  0
 30 34  1  0
 32 26  2  0
 33 32  1  0
M  END
$$$$
