WTY.pdb
     RDKit          3D

 34 36  0  0  1  0  0  0  0  0999 V2000
    6.5656  -17.2088   23.9438 N   0  0  0  0  0  0  0  0  0  0  0  0
    7.6624  -16.2994   23.8001 C   0  0  1  0  0  0  0  0  0  0  0  0
    7.9960  -15.6127   25.0999 C   0  0  0  0  0  0  0  0  0  0  0  0
    6.9982  -14.6039   25.5169 C   0  0  0  0  0  0  0  0  0  0  0  0
    5.8105  -14.8986   26.1489 C   0  0  0  0  0  0  0  0  0  0  0  0
    5.1487  -13.7561   26.4106 N   0  0  0  0  0  0  0  0  0  0  0  0
    5.8730  -12.7083   25.9646 C   0  0  0  0  0  0  0  0  0  0  0  0
    5.6141  -11.3560   25.9987 C   0  0  0  0  0  0  0  0  0  0  0  0
    6.5172  -10.4771   25.4657 C   0  0  0  0  0  0  0  0  0  0  0  0
    7.6683  -10.9869   24.9063 C   0  0  0  0  0  0  0  0  0  0  0  0
    7.9302  -12.3493   24.8716 C   0  0  0  0  0  0  0  0  0  0  0  0
    7.0332  -13.2377   25.4033 C   0  0  0  0  0  0  0  0  0  0  0  0
    8.8567  -17.0370   23.3189 C   0  0  0  0  0  0  0  0  0  0  0  0
    9.0246  -18.2154   23.7152 O   0  0  0  0  0  0  0  0  0  0  0  0
   10.5321  -17.3291   19.8764 C   0  0  0  0  0  0  0  0  0  0  0  0
   11.5684  -16.9147   20.8823 C   0  0  1  0  0  0  0  0  0  0  0  0
   11.8021  -15.5473   20.6879 O   0  0  0  0  0  0  0  0  0  0  0  0
   11.1088  -17.0904   22.3097 C   0  0  2  0  0  0  0  0  0  0  0  0
    9.8098  -16.4738   22.4381 N   0  0  0  0  0  0  0  0  0  0  0  0
   12.0823  -16.5410   23.2821 C   0  0  0  0  0  0  0  0  0  0  0  0
   12.0612  -15.3212   23.5304 O   0  0  0  0  0  0  0  0  0  0  0  0
    9.0344  -15.4177   28.7612 O   0  0  0  0  0  0  0  0  0  0  0  0
   10.2083  -15.8525   28.1551 C   0  0  0  0  0  0  0  0  0  0  0  0
   11.2943  -15.0304   27.9699 C   0  0  0  0  0  0  0  0  0  0  0  0
   12.4496  -15.4767   27.3677 C   0  0  0  0  0  0  0  0  0  0  0  0
   12.5893  -16.7738   26.9130 C   0  0  0  0  0  0  0  0  0  0  0  0
   13.8035  -17.2699   26.2565 C   0  0  0  0  0  0  0  0  0  0  0  0
   13.9673  -16.7929   24.8679 C   0  0  2  0  0  0  0  0  0  0  0  0
   13.0338  -17.3489   23.9384 N   0  0  0  0  0  0  0  0  0  0  0  0
   15.3214  -17.0906   24.3611 C   0  0  0  0  0  0  0  0  0  0  0  0
   16.3217  -16.6598   24.9915 O   0  0  0  0  0  0  0  0  0  0  0  0
   11.4746  -17.6032   27.1078 C   0  0  0  0  0  0  0  0  0  0  0  0
   10.3231  -17.1524   27.7101 C   0  0  0  0  0  0  0  0  0  0  0  0
   15.5363  -17.8396   23.1959 O   0  0  0  0  0  0  0  0  0  0  0  0
  2  1  1  1
  2 13  1  0
  2  3  1  0
  4  3  1  0
  5  4  2  0
  6  7  1  0
  6  5  1  0
  7 12  2  0
  8  9  2  0
  8  7  1  0
  9 10  1  0
 10 11  2  0
 12  4  1  0
 12 11  1  0
 13 14  2  0
 16 15  1  6
 16 18  1  0
 17 16  1  0
 18 20  1  0
 18 19  1  6
 19 13  1  0
 20 29  1  0
 20 21  2  0
 22 23  1  0
 23 33  2  0
 23 24  1  0
 24 25  2  0
 25 26  1  0
 26 27  1  0
 28 27  1  1
 28 30  1  0
 29 28  1  0
 30 31  2  0
 30 34  1  0
 32 26  2  0
 33 32  1  0
M  END
$$$$
