WTY.pdb
     RDKit          3D

 34 36  0  0  1  0  0  0  0  0999 V2000
    7.4813  -17.3766   25.5067 N   0  0  0  0  0  0  0  0  0  0  0  0
    7.1445  -17.5243   24.1227 C   0  0  1  0  0  0  0  0  0  0  0  0
    6.3623  -16.3436   23.6065 C   0  0  0  0  0  0  0  0  0  0  0  0
    6.2554  -15.2284   24.5719 C   0  0  0  0  0  0  0  0  0  0  0  0
    5.5791  -15.2977   25.7697 C   0  0  0  0  0  0  0  0  0  0  0  0
    5.6966  -14.1236   26.4173 N   0  0  0  0  0  0  0  0  0  0  0  0
    6.4373  -13.2755   25.6732 C   0  0  0  0  0  0  0  0  0  0  0  0
    6.8228  -11.9744   25.9084 C   0  0  0  0  0  0  0  0  0  0  0  0
    7.5810  -11.3119   24.9818 C   0  0  0  0  0  0  0  0  0  0  0  0
    7.9345  -11.9824   23.8315 C   0  0  0  0  0  0  0  0  0  0  0  0
    7.5467  -13.2935   23.5937 C   0  0  0  0  0  0  0  0  0  0  0  0
    6.7883  -13.9662   24.5152 C   0  0  0  0  0  0  0  0  0  0  0  0
    8.3867  -17.6717   23.3245 C   0  0  0  0  0  0  0  0  0  0  0  0
    8.5489  -18.7306   22.6714 O   0  0  0  0  0  0  0  0  0  0  0  0
    9.9776  -16.5886   20.4498 C   0  0  0  0  0  0  0  0  0  0  0  0
   10.9790  -16.2807   21.5269 C   0  0  1  0  0  0  0  0  0  0  0  0
   10.8627  -14.9146   21.8139 O   0  0  0  0  0  0  0  0  0  0  0  0
   10.7143  -17.0305   22.8104 C   0  0  2  0  0  0  0  0  0  0  0  0
    9.3913  -16.6773   23.2675 N   0  0  0  0  0  0  0  0  0  0  0  0
   11.7467  -16.7610   23.8383 C   0  0  0  0  0  0  0  0  0  0  0  0
   12.2495  -15.6238   23.9022 O   0  0  0  0  0  0  0  0  0  0  0  0
    8.7524  -14.0433   28.7491 O   0  0  0  0  0  0  0  0  0  0  0  0
    9.7401  -14.9353   28.3453 C   0  0  0  0  0  0  0  0  0  0  0  0
    9.5389  -16.2946   28.3056 C   0  0  0  0  0  0  0  0  0  0  0  0
   10.5277  -17.1644   27.9031 C   0  0  0  0  0  0  0  0  0  0  0  0
   11.7799  -16.7275   27.5158 C   0  0  0  0  0  0  0  0  0  0  0  0
   12.8540  -17.6339   27.0960 C   0  0  0  0  0  0  0  0  0  0  0  0
   13.2384  -17.4853   25.6773 C   0  0  2  0  0  0  0  0  0  0  0  0
   12.1826  -17.7457   24.7489 N   0  0  0  0  0  0  0  0  0  0  0  0
   14.3568  -18.3855   25.3338 C   0  0  0  0  0  0  0  0  0  0  0  0
   14.2036  -19.2331   24.4164 O   0  0  0  0  0  0  0  0  0  0  0  0
   11.9732  -15.3386   27.5602 C   0  0  0  0  0  0  0  0  0  0  0  0
   10.9819  -14.4742   27.9628 C   0  0  0  0  0  0  0  0  0  0  0  0
   15.5910  -18.3317   25.9961 O   0  0  0  0  0  0  0  0  0  0  0  0
  2  1  1  1
  2 13  1  0
  2  3  1  0
  4  3  1  0
  5  4  2  0
  6  7  1  0
  6  5  1  0
  7 12  2  0
  8  9  2  0
  8  7  1  0
  9 10  1  0
 10 11  2  0
 12  4  1  0
 12 11  1  0
 13 14  2  0
 16 15  1  6
 16 18  1  0
 17 16  1  0
 18 20  1  0
 18 19  1  1
 19 13  1  0
 20 29  1  0
 20 21  2  0
 22 23  1  0
 23 33  2  0
 23 24  1  0
 24 25  2  0
 25 26  1  0
 26 27  1  0
 28 27  1  1
 28 30  1  0
 29 28  1  0
 30 31  2  0
 30 34  1  0
 32 26  2  0
 33 32  1  0
M  END
$$$$
