WTY.pdb
     RDKit          3D

 34 36  0  0  1  0  0  0  0  0999 V2000
    5.7295  -18.1027   22.3455 N   0  0  0  0  0  0  0  0  0  0  0  0
    6.4916  -17.0666   21.7158 C   0  0  1  0  0  0  0  0  0  0  0  0
    6.0672  -15.6967   22.1799 C   0  0  0  0  0  0  0  0  0  0  0  0
    6.1686  -15.5024   23.6425 C   0  0  0  0  0  0  0  0  0  0  0  0
    5.8007  -16.4418   24.5801 C   0  0  0  0  0  0  0  0  0  0  0  0
    6.0425  -15.9601   25.8134 N   0  0  0  0  0  0  0  0  0  0  0  0
    6.5634  -14.7190   25.7138 C   0  0  0  0  0  0  0  0  0  0  0  0
    6.9637  -13.8306   26.6871 C   0  0  0  0  0  0  0  0  0  0  0  0
    7.4623  -12.6080   26.3282 C   0  0  0  0  0  0  0  0  0  0  0  0
    7.5455  -12.3082   24.9862 C   0  0  0  0  0  0  0  0  0  0  0  0
    7.1426  -13.2027   24.0047 C   0  0  0  0  0  0  0  0  0  0  0  0
    6.6429  -14.4298   24.3531 C   0  0  0  0  0  0  0  0  0  0  0  0
    7.9316  -17.2585   22.0182 C   0  0  0  0  0  0  0  0  0  0  0  0
    8.2427  -18.0466   22.9434 O   0  0  0  0  0  0  0  0  0  0  0  0
   11.2226  -15.0157   20.1977 C   0  0  0  0  0  0  0  0  0  0  0  0
   11.1971  -16.4930   20.4709 C   0  0  1  0  0  0  0  0  0  0  0  0
   12.5104  -16.8749   20.7734 O   0  0  0  0  0  0  0  0  0  0  0  0
   10.3409  -16.8586   21.6595 C   0  0  2  0  0  0  0  0  0  0  0  0
    8.9641  -16.5955   21.3141 N   0  0  0  0  0  0  0  0  0  0  0  0
   10.7522  -16.1386   22.8873 C   0  0  0  0  0  0  0  0  0  0  0  0
   10.1008  -15.1400   23.2457 O   0  0  0  0  0  0  0  0  0  0  0  0
   11.1596  -14.6003   31.2426 O   0  0  0  0  0  0  0  0  0  0  0  0
   11.0702  -15.0290   29.9225 C   0  0  0  0  0  0  0  0  0  0  0  0
   10.8946  -14.1598   28.8722 C   0  0  0  0  0  0  0  0  0  0  0  0
   10.8080  -14.6007   27.5704 C   0  0  0  0  0  0  0  0  0  0  0  0
   10.8912  -15.9394   27.2393 C   0  0  0  0  0  0  0  0  0  0  0  0
   10.7885  -16.4357   25.8628 C   0  0  0  0  0  0  0  0  0  0  0  0
   11.9806  -16.1532   25.0373 C   0  0  2  0  0  0  0  0  0  0  0  0
   11.8559  -16.5421   23.6670 N   0  0  0  0  0  0  0  0  0  0  0  0
   13.1740  -16.8324   25.5792 C   0  0  0  0  0  0  0  0  0  0  0  0
   13.8699  -16.2494   26.4507 O   0  0  0  0  0  0  0  0  0  0  0  0
   11.0705  -16.8166   28.3195 C   0  0  0  0  0  0  0  0  0  0  0  0
   11.1567  -16.3709   29.6178 C   0  0  0  0  0  0  0  0  0  0  0  0
   13.5642  -18.1106   25.1562 O   0  0  0  0  0  0  0  0  0  0  0  0
  2  1  1  1
  2 13  1  0
  2  3  1  0
  4  3  1  0
  5  4  2  0
  6  7  1  0
  6  5  1  0
  7 12  2  0
  8  9  2  0
  8  7  1  0
  9 10  1  0
 10 11  2  0
 12  4  1  0
 12 11  1  0
 13 14  2  0
 16 15  1  1
 16 18  1  0
 17 16  1  0
 18 20  1  0
 18 19  1  6
 19 13  1  0
 20 29  1  0
 20 21  2  0
 22 23  1  0
 23 33  2  0
 23 24  1  0
 24 25  2  0
 25 26  1  0
 26 27  1  0
 28 27  1  1
 28 30  1  0
 29 28  1  0
 30 31  2  0
 30 34  1  0
 32 26  2  0
 33 32  1  0
M  END
$$$$
