WTY.pdb
     RDKit          3D

 34 36  0  0  1  0  0  0  0  0999 V2000
    6.9655  -17.3570   25.2186 N   0  0  0  0  0  0  0  0  0  0  0  0
    7.6559  -16.4167   24.3880 C   0  0  1  0  0  0  0  0  0  0  0  0
    8.2082  -15.2630   25.1856 C   0  0  0  0  0  0  0  0  0  0  0  0
    7.1695  -14.3786   25.7565 C   0  0  0  0  0  0  0  0  0  0  0  0
    6.1625  -14.8012   26.5959 C   0  0  0  0  0  0  0  0  0  0  0  0
    5.4058  -13.7464   26.9516 N   0  0  0  0  0  0  0  0  0  0  0  0
    5.8898  -12.6315   26.3649 C   0  0  0  0  0  0  0  0  0  0  0  0
    5.4572  -11.3252   26.4211 C   0  0  0  0  0  0  0  0  0  0  0  0
    6.1235  -10.3576   25.7198 C   0  0  0  0  0  0  0  0  0  0  0  0
    7.2182  -10.7334   24.9726 C   0  0  0  0  0  0  0  0  0  0  0  0
    7.6550  -12.0494   24.9155 C   0  0  0  0  0  0  0  0  0  0  0  0
    6.9957  -13.0258   25.6146 C   0  0  0  0  0  0  0  0  0  0  0  0
    8.7700  -17.1011   23.6865 C   0  0  0  0  0  0  0  0  0  0  0  0
    9.3948  -17.9986   24.3014 O   0  0  0  0  0  0  0  0  0  0  0  0
   11.9244  -17.1090   19.8567 C   0  0  0  0  0  0  0  0  0  0  0  0
   10.6157  -16.7009   20.4718 C   0  0  1  0  0  0  0  0  0  0  0  0
    9.6083  -17.3846   19.7791 O   0  0  0  0  0  0  0  0  0  0  0  0
   10.5004  -17.0899   21.9261 C   0  0  2  0  0  0  0  0  0  0  0  0
    9.1577  -16.7882   22.3624 N   0  0  0  0  0  0  0  0  0  0  0  0
   11.5204  -16.4204   22.7664 C   0  0  0  0  0  0  0  0  0  0  0  0
   11.4514  -15.1879   22.9287 O   0  0  0  0  0  0  0  0  0  0  0  0
    9.2543  -15.9981   28.9607 O   0  0  0  0  0  0  0  0  0  0  0  0
   10.3472  -16.2242   28.1307 C   0  0  0  0  0  0  0  0  0  0  0  0
   11.1585  -15.2094   27.6818 C   0  0  0  0  0  0  0  0  0  0  0  0
   12.2371  -15.4503   26.8602 C   0  0  0  0  0  0  0  0  0  0  0  0
   12.5702  -16.7223   26.4363 C   0  0  0  0  0  0  0  0  0  0  0  0
   13.7052  -17.0040   25.5508 C   0  0  0  0  0  0  0  0  0  0  0  0
   13.5476  -16.4560   24.1879 C   0  0  2  0  0  0  0  0  0  0  0  0
   12.5688  -17.1274   23.3908 N   0  0  0  0  0  0  0  0  0  0  0  0
   14.8236  -16.5021   23.4471 C   0  0  0  0  0  0  0  0  0  0  0  0
   14.8936  -17.1740   22.3854 O   0  0  0  0  0  0  0  0  0  0  0  0
   11.7352  -17.7496   26.9011 C   0  0  0  0  0  0  0  0  0  0  0  0
   10.6593  -17.5034   27.7218 C   0  0  0  0  0  0  0  0  0  0  0  0
   15.9682  -15.8216   23.8851 O   0  0  0  0  0  0  0  0  0  0  0  0
  2  1  1  1
  2 13  1  0
  2  3  1  0
  4  3  1  0
  5  4  2  0
  6  7  1  0
  6  5  1  0
  7 12  2  0
  8  9  2  0
  8  7  1  0
  9 10  1  0
 10 11  2  0
 12  4  1  0
 12 11  1  0
 13 14  2  0
 16 15  1  6
 16 18  1  0
 17 16  1  0
 18 20  1  0
 18 19  1  1
 19 13  1  0
 20 29  1  0
 20 21  2  0
 22 23  1  0
 23 33  2  0
 23 24  1  0
 24 25  2  0
 25 26  1  0
 26 27  1  0
 28 27  1  1
 28 30  1  0
 29 28  1  0
 30 31  2  0
 30 34  1  0
 32 26  2  0
 33 32  1  0
M  END
$$$$
