IVQ.pdb
     RDKit          3D

 25 24  0  0  1  0  0  0  0  0999 V2000
    7.3855  -18.1799   21.8785 C   0  0  0  0  0  0  0  0  0  0  0  0
    7.9908  -16.7944   21.8050 C   0  0  0  0  0  0  0  0  0  0  0  0
    6.9207  -15.7600   21.5931 C   0  0  2  0  0  0  0  0  0  0  0  0
    6.2049  -16.0392   20.2840 C   0  0  0  0  0  0  0  0  0  0  0  0
    7.3985  -14.3510   21.6866 C   0  0  2  0  0  0  0  0  0  0  0  0
    8.3544  -14.1060   20.6593 N   0  0  0  0  0  0  0  0  0  0  0  0
    8.0160  -14.0322   23.0134 C   0  0  0  0  0  0  0  0  0  0  0  0
    9.2645  -14.0806   23.1547 O   0  0  0  0  0  0  0  0  0  0  0  0
    6.2346  -11.3569   25.6298 C   0  0  0  0  0  0  0  0  0  0  0  0
    6.4582  -12.7268   26.2389 C   0  0  2  0  0  0  0  0  0  0  0  0
    6.8728  -12.4871   27.6665 C   0  0  0  0  0  0  0  0  0  0  0  0
    7.5080  -13.4445   25.4640 C   0  0  2  0  0  0  0  0  0  0  0  0
    7.1816  -13.6860   24.0703 N   0  0  0  0  0  0  0  0  0  0  0  0
    8.1020  -14.6407   26.0335 C   0  0  0  0  0  0  0  0  0  0  0  0
    7.3761  -15.7075   26.0891 O   0  0  0  0  0  0  0  0  0  0  0  0
   11.8604  -17.6184   23.9651 N   0  0  0  0  0  0  0  0  0  0  0  0
   12.5185  -16.6322   24.7135 C   0  0  0  0  0  0  0  0  0  0  0  0
   13.5617  -16.1102   24.2988 O   0  0  0  0  0  0  0  0  0  0  0  0
   11.9566  -16.2071   26.0226 C   0  0  0  0  0  0  0  0  0  0  0  0
   10.6576  -16.9032   26.3233 C   0  0  0  0  0  0  0  0  0  0  0  0
    9.8211  -16.0656   27.2205 C   0  0  2  0  0  0  0  0  0  0  0  0
    9.4033  -14.8248   26.5512 N   0  0  0  0  0  0  0  0  0  0  0  0
   10.4833  -15.7794   28.4893 C   0  0  0  0  0  0  0  0  0  0  0  0
   10.8604  -16.7501   29.2593 O   0  0  0  0  0  0  0  0  0  0  0  0
   10.7826  -14.5354   29.0077 O   0  0  0  0  0  0  0  0  0  0  0  0
  1  2  1  0
  3  2  1  0
  3  5  1  0
  3  4  1  6
  5  6  1  6
  7  5  1  0
  7  8  2  0
 10  9  1  6
 10 12  1  0
 11 10  1  0
 12 13  1  6
 12 14  1  0
 13  7  1  0
 14 22  1  0
 15 14  2  0
 17 16  1  0
 17 19  1  0
 18 17  2  0
 20 19  1  0
 21 20  1  6
 21 23  1  0
 22 21  1  0
 23 24  2  0
 23 25  1  0
M  END
$$$$
