IVQ.pdb
     RDKit          3D

 25 24  0  0  1  0  0  0  0  0999 V2000
    6.9527  -11.5339   27.7779 C   0  0  0  0  0  0  0  0  0  0  0  0
    6.0758  -12.4763   26.9815 C   0  0  0  0  0  0  0  0  0  0  0  0
    6.9147  -13.3813   26.1229 C   0  0  2  0  0  0  0  0  0  0  0  0
    7.8820  -12.5437   25.3062 C   0  0  0  0  0  0  0  0  0  0  0  0
    6.1327  -14.3273   25.2770 C   0  0  2  0  0  0  0  0  0  0  0  0
    5.2886  -15.1187   26.1079 N   0  0  0  0  0  0  0  0  0  0  0  0
    7.0018  -15.2336   24.4607 C   0  0  0  0  0  0  0  0  0  0  0  0
    7.2957  -16.3785   24.8895 O   0  0  0  0  0  0  0  0  0  0  0  0
    6.8270  -14.9890   20.3325 C   0  0  0  0  0  0  0  0  0  0  0  0
    8.2372  -14.8759   20.8770 C   0  0  2  0  0  0  0  0  0  0  0  0
    9.1196  -15.6204   19.9104 C   0  0  0  0  0  0  0  0  0  0  0  0
    8.2851  -15.4625   22.2448 C   0  0  2  0  0  0  0  0  0  0  0  0
    7.4685  -14.7800   23.2320 N   0  0  0  0  0  0  0  0  0  0  0  0
    9.5781  -15.7783   22.8250 C   0  0  0  0  0  0  0  0  0  0  0  0
   10.2172  -14.8311   23.4270 O   0  0  0  0  0  0  0  0  0  0  0  0
   11.2636  -19.3488   26.9312 N   0  0  0  0  0  0  0  0  0  0  0  0
   12.5722  -19.1965   26.4513 C   0  0  0  0  0  0  0  0  0  0  0  0
   13.5461  -19.4860   27.1586 O   0  0  0  0  0  0  0  0  0  0  0  0
   12.7938  -18.6803   25.0748 C   0  0  0  0  0  0  0  0  0  0  0  0
   11.4973  -18.4884   24.3368 C   0  0  0  0  0  0  0  0  0  0  0  0
   11.5205  -17.2102   23.5807 C   0  0  2  0  0  0  0  0  0  0  0  0
   10.2680  -17.0108   22.8367 N   0  0  0  0  0  0  0  0  0  0  0  0
   12.6773  -17.1095   22.6963 C   0  0  0  0  0  0  0  0  0  0  0  0
   12.5623  -17.4013   21.4397 O   0  0  0  0  0  0  0  0  0  0  0  0
   13.9550  -16.7171   23.0417 O   0  0  0  0  0  0  0  0  0  0  0  0
  1  2  1  0
  3  2  1  0
  3  5  1  0
  3  4  1  6
  5  6  1  1
  7  5  1  0
  7  8  2  0
 10  9  1  6
 10 12  1  0
 11 10  1  0
 12 13  1  1
 12 14  1  0
 13  7  1  0
 14 22  1  0
 15 14  2  0
 17 16  1  0
 17 19  1  0
 18 17  2  0
 20 19  1  0
 21 20  1  6
 21 23  1  0
 22 21  1  0
 23 24  2  0
 23 25  1  0
M  END
$$$$
