IVQ.pdb
     RDKit          3D

 25 24  0  0  1  0  0  0  0  0999 V2000
    6.8559  -11.1767   27.5806 C   0  0  0  0  0  0  0  0  0  0  0  0
    6.1198  -12.4148   27.1151 C   0  0  0  0  0  0  0  0  0  0  0  0
    7.0371  -13.3133   26.3333 C   0  0  2  0  0  0  0  0  0  0  0  0
    7.9019  -12.4701   25.4138 C   0  0  0  0  0  0  0  0  0  0  0  0
    6.3468  -14.4161   25.6058 C   0  0  2  0  0  0  0  0  0  0  0  0
    5.6186  -15.2134   26.5351 N   0  0  0  0  0  0  0  0  0  0  0  0
    7.2928  -15.2943   24.8461 C   0  0  0  0  0  0  0  0  0  0  0  0
    7.6171  -16.4180   25.3077 O   0  0  0  0  0  0  0  0  0  0  0  0
    7.1128  -14.9129   20.8076 C   0  0  0  0  0  0  0  0  0  0  0  0
    8.5538  -14.9614   21.2754 C   0  0  2  0  0  0  0  0  0  0  0  0
    9.2889  -15.8165   20.2775 C   0  0  0  0  0  0  0  0  0  0  0  0
    8.6062  -15.5337   22.6491 C   0  0  2  0  0  0  0  0  0  0  0  0
    7.7956  -14.8387   23.6326 N   0  0  0  0  0  0  0  0  0  0  0  0
    9.9009  -15.8466   23.2270 C   0  0  0  0  0  0  0  0  0  0  0  0
   10.4998  -14.9227   23.9022 O   0  0  0  0  0  0  0  0  0  0  0  0
   15.0415  -16.9794   21.3456 N   0  0  0  0  0  0  0  0  0  0  0  0
   14.6386  -16.0016   22.2662 C   0  0  0  0  0  0  0  0  0  0  0  0
   15.4715  -15.3835   22.9421 O   0  0  0  0  0  0  0  0  0  0  0  0
   13.1919  -15.7025   22.4334 C   0  0  0  0  0  0  0  0  0  0  0  0
   12.7218  -15.9911   23.8327 C   0  0  0  0  0  0  0  0  0  0  0  0
   11.9158  -17.2385   23.8573 C   0  0  2  0  0  0  0  0  0  0  0  0
   10.6313  -17.0540   23.1659 N   0  0  0  0  0  0  0  0  0  0  0  0
   11.7143  -17.7424   25.2122 C   0  0  0  0  0  0  0  0  0  0  0  0
   12.7301  -18.1081   25.9276 O   0  0  0  0  0  0  0  0  0  0  0  0
   10.5115  -17.8864   25.8743 O   0  0  0  0  0  0  0  0  0  0  0  0
  1  2  1  0
  3  2  1  0
  3  5  1  0
  3  4  1  6
  5  6  1  1
  7  5  1  0
  7  8  2  0
 10  9  1  6
 10 12  1  0
 11 10  1  0
 12 13  1  1
 12 14  1  0
 13  7  1  0
 14 22  1  0
 15 14  2  0
 17 16  1  0
 17 19  1  0
 18 17  2  0
 20 19  1  0
 21 20  1  1
 21 23  1  0
 22 21  1  0
 23 24  2  0
 23 25  1  0
M  END
$$$$
