IVQ.pdb
     RDKit          3D

 25 24  0  0  1  0  0  0  0  0999 V2000
    6.8537  -11.5456   27.6667 C   0  0  0  0  0  0  0  0  0  0  0  0
    6.0215  -12.5729   26.9297 C   0  0  0  0  0  0  0  0  0  0  0  0
    6.8990  -13.4683   26.1000 C   0  0  2  0  0  0  0  0  0  0  0  0
    7.8220  -12.6165   25.2475 C   0  0  0  0  0  0  0  0  0  0  0  0
    6.1594  -14.4808   25.2939 C   0  0  2  0  0  0  0  0  0  0  0  0
    5.4109  -15.3243   26.1644 N   0  0  0  0  0  0  0  0  0  0  0  0
    7.0629  -15.3281   24.4520 C   0  0  0  0  0  0  0  0  0  0  0  0
    7.4152  -16.4658   24.8550 O   0  0  0  0  0  0  0  0  0  0  0  0
    6.8322  -14.8579   20.3841 C   0  0  0  0  0  0  0  0  0  0  0  0
    8.2668  -14.8273   20.8726 C   0  0  2  0  0  0  0  0  0  0  0  0
    9.0716  -15.5906   19.8543 C   0  0  0  0  0  0  0  0  0  0  0  0
    8.3398  -15.4487   22.2239 C   0  0  2  0  0  0  0  0  0  0  0  0
    7.4956  -14.8283   23.2288 N   0  0  0  0  0  0  0  0  0  0  0  0
    9.6452  -15.7256   22.7962 C   0  0  0  0  0  0  0  0  0  0  0  0
   10.2338  -14.7764   23.4447 O   0  0  0  0  0  0  0  0  0  0  0  0
   11.1609  -19.9538   26.5439 N   0  0  0  0  0  0  0  0  0  0  0  0
   11.2683  -18.6087   26.9244 C   0  0  0  0  0  0  0  0  0  0  0  0
   11.2096  -18.2788   28.1162 O   0  0  0  0  0  0  0  0  0  0  0  0
   11.4554  -17.5640   25.8833 C   0  0  0  0  0  0  0  0  0  0  0  0
   11.5536  -18.1615   24.5064 C   0  0  0  0  0  0  0  0  0  0  0  0
   11.6612  -17.0873   23.4863 C   0  0  2  0  0  0  0  0  0  0  0  0
   10.3963  -16.9212   22.7552 N   0  0  0  0  0  0  0  0  0  0  0  0
   12.7736  -17.3046   22.5667 C   0  0  0  0  0  0  0  0  0  0  0  0
   12.5498  -17.7345   21.3657 O   0  0  0  0  0  0  0  0  0  0  0  0
   14.1143  -17.0965   22.8215 O   0  0  0  0  0  0  0  0  0  0  0  0
  1  2  1  0
  3  2  1  0
  3  5  1  0
  3  4  1  6
  5  6  1  1
  7  5  1  0
  7  8  2  0
 10  9  1  6
 10 12  1  0
 11 10  1  0
 12 13  1  1
 12 14  1  0
 13  7  1  0
 14 22  1  0
 15 14  2  0
 17 16  1  0
 17 19  1  0
 18 17  2  0
 20 19  1  0
 21 20  1  1
 21 23  1  0
 22 21  1  0
 23 24  2  0
 23 25  1  0
M  END
$$$$
