IVQ.pdb
     RDKit          3D

 25 24  0  0  1  0  0  0  0  0999 V2000
    6.5008  -11.4268   27.7494 C   0  0  0  0  0  0  0  0  0  0  0  0
    5.8488  -12.5973   27.0451 C   0  0  0  0  0  0  0  0  0  0  0  0
    6.8055  -13.2297   26.0731 C   0  0  2  0  0  0  0  0  0  0  0  0
    7.3230  -12.1703   25.1170 C   0  0  0  0  0  0  0  0  0  0  0  0
    6.2611  -14.4190   25.3580 C   0  0  2  0  0  0  0  0  0  0  0  0
    5.7412  -15.3453   26.3072 N   0  0  0  0  0  0  0  0  0  0  0  0
    7.2865  -15.1103   24.5132 C   0  0  0  0  0  0  0  0  0  0  0  0
    7.9950  -16.0250   25.0055 O   0  0  0  0  0  0  0  0  0  0  0  0
    8.1230  -13.4619   20.5258 C   0  0  0  0  0  0  0  0  0  0  0  0
    7.8234  -14.9311   20.7485 C   0  0  2  0  0  0  0  0  0  0  0  0
    6.3429  -15.0941   20.5279 C   0  0  0  0  0  0  0  0  0  0  0  0
    8.2289  -15.3121   22.1298 C   0  0  2  0  0  0  0  0  0  0  0  0
    7.4313  -14.7179   23.1872 N   0  0  0  0  0  0  0  0  0  0  0  0
    9.6338  -15.2429   22.4900 C   0  0  0  0  0  0  0  0  0  0  0  0
   10.0307  -14.2262   23.1805 O   0  0  0  0  0  0  0  0  0  0  0  0
   10.1859  -19.3404   26.2220 N   0  0  0  0  0  0  0  0  0  0  0  0
   11.2896  -18.5094   26.4607 C   0  0  0  0  0  0  0  0  0  0  0  0
   11.7243  -18.3442   27.6081 O   0  0  0  0  0  0  0  0  0  0  0  0
   11.9472  -17.8170   25.3212 C   0  0  0  0  0  0  0  0  0  0  0  0
   10.9416  -17.2940   24.3325 C   0  0  0  0  0  0  0  0  0  0  0  0
   11.6329  -16.6159   23.2061 C   0  0  2  0  0  0  0  0  0  0  0  0
   10.6713  -16.1545   22.1939 N   0  0  0  0  0  0  0  0  0  0  0  0
   12.6662  -17.4530   22.6045 C   0  0  0  0  0  0  0  0  0  0  0  0
   13.8663  -17.4554   23.0916 O   0  0  0  0  0  0  0  0  0  0  0  0
   12.5247  -18.2971   21.5213 O   0  0  0  0  0  0  0  0  0  0  0  0
  1  2  1  0
  3  2  1  0
  3  5  1  0
  3  4  1  6
  5  6  1  1
  7  5  1  0
  7  8  2  0
 10  9  1  1
 10 12  1  0
 11 10  1  0
 12 13  1  1
 12 14  1  0
 13  7  1  0
 14 22  1  0
 15 14  2  0
 17 16  1  0
 17 19  1  0
 18 17  2  0
 20 19  1  0
 21 20  1  1
 21 23  1  0
 22 21  1  0
 23 24  2  0
 23 25  1  0
M  END
$$$$
