IVQ.pdb
     RDKit          3D

 25 24  0  0  1  0  0  0  0  0999 V2000
    6.4589  -11.0720   27.3266 C   0  0  0  0  0  0  0  0  0  0  0  0
    5.7914  -12.2837   26.7121 C   0  0  0  0  0  0  0  0  0  0  0  0
    6.8041  -13.1497   26.0162 C   0  0  2  0  0  0  0  0  0  0  0  0
    7.6564  -12.2892   25.1012 C   0  0  0  0  0  0  0  0  0  0  0  0
    6.2255  -14.3267   25.3078 C   0  0  2  0  0  0  0  0  0  0  0  0
    5.5392  -15.1526   26.2439 N   0  0  0  0  0  0  0  0  0  0  0  0
    7.2597  -15.1470   24.6003 C   0  0  0  0  0  0  0  0  0  0  0  0
    7.8088  -16.1126   25.1895 O   0  0  0  0  0  0  0  0  0  0  0  0
    6.8672  -15.2895   20.5460 C   0  0  0  0  0  0  0  0  0  0  0  0
    8.3196  -15.1065   20.9394 C   0  0  2  0  0  0  0  0  0  0  0  0
    9.1168  -15.9934   20.0200 C   0  0  0  0  0  0  0  0  0  0  0  0
    8.4931  -15.4828   22.3697 C   0  0  2  0  0  0  0  0  0  0  0  0
    7.5915  -14.8157   23.2914 N   0  0  0  0  0  0  0  0  0  0  0  0
    9.8320  -15.4965   22.9314 C   0  0  0  0  0  0  0  0  0  0  0  0
   10.1240  -14.6035   23.8176 O   0  0  0  0  0  0  0  0  0  0  0  0
    9.6940  -18.1979   27.0647 N   0  0  0  0  0  0  0  0  0  0  0  0
   11.0692  -18.4689   27.0278 C   0  0  0  0  0  0  0  0  0  0  0  0
   11.6691  -18.8501   28.0414 O   0  0  0  0  0  0  0  0  0  0  0  0
   11.8175  -18.2965   25.7548 C   0  0  0  0  0  0  0  0  0  0  0  0
   10.9399  -17.7484   24.6631 C   0  0  0  0  0  0  0  0  0  0  0  0
   11.7487  -16.9540   23.7034 C   0  0  2  0  0  0  0  0  0  0  0  0
   10.9031  -16.3732   22.6500 N   0  0  0  0  0  0  0  0  0  0  0  0
   12.8452  -17.7272   23.1286 C   0  0  0  0  0  0  0  0  0  0  0  0
   12.6524  -18.4341   22.0607 O   0  0  0  0  0  0  0  0  0  0  0  0
   14.1407  -17.8070   23.5989 O   0  0  0  0  0  0  0  0  0  0  0  0
  1  2  1  0
  3  2  1  0
  3  5  1  0
  3  4  1  6
  5  6  1  1
  7  5  1  0
  7  8  2  0
 10  9  1  6
 10 12  1  0
 11 10  1  0
 12 13  1  1
 12 14  1  0
 13  7  1  0
 14 22  1  0
 15 14  2  0
 17 16  1  0
 17 19  1  0
 18 17  2  0
 20 19  1  0
 21 20  1  1
 21 23  1  0
 22 21  1  0
 23 24  2  0
 23 25  1  0
M  END
$$$$
