IVQ.pdb
     RDKit          3D

 25 24  0  0  1  0  0  0  0  0999 V2000
    6.9423  -11.3355   27.3670 C   0  0  0  0  0  0  0  0  0  0  0  0
    6.0585  -12.2990   26.6041 C   0  0  0  0  0  0  0  0  0  0  0  0
    6.8915  -13.3062   25.8613 C   0  0  2  0  0  0  0  0  0  0  0  0
    7.9423  -12.5808   25.0404 C   0  0  0  0  0  0  0  0  0  0  0  0
    6.1051  -14.2739   25.0446 C   0  0  2  0  0  0  0  0  0  0  0  0
    5.2000  -14.9799   25.8883 N   0  0  0  0  0  0  0  0  0  0  0  0
    6.9678  -15.2612   24.3206 C   0  0  0  0  0  0  0  0  0  0  0  0
    7.2163  -16.3794   24.8392 O   0  0  0  0  0  0  0  0  0  0  0  0
    7.0196  -15.1918   20.1962 C   0  0  0  0  0  0  0  0  0  0  0  0
    8.4128  -15.1619   20.7928 C   0  0  2  0  0  0  0  0  0  0  0  0
    9.2633  -16.0396   19.9133 C   0  0  0  0  0  0  0  0  0  0  0  0
    8.3582  -15.6597   22.1953 C   0  0  2  0  0  0  0  0  0  0  0  0
    7.4795  -14.9117   23.0760 N   0  0  0  0  0  0  0  0  0  0  0  0
    9.6039  -15.9428   22.8854 C   0  0  0  0  0  0  0  0  0  0  0  0
   10.2834  -14.9427   23.3394 O   0  0  0  0  0  0  0  0  0  0  0  0
   11.0958  -20.1953   27.2427 N   0  0  0  0  0  0  0  0  0  0  0  0
   11.1777  -18.8019   27.1108 C   0  0  0  0  0  0  0  0  0  0  0  0
   10.5371  -18.0538   27.8609 O   0  0  0  0  0  0  0  0  0  0  0  0
   12.0452  -18.2141   26.0562 C   0  0  0  0  0  0  0  0  0  0  0  0
   11.5452  -18.5436   24.6764 C   0  0  0  0  0  0  0  0  0  0  0  0
   11.4999  -17.3173   23.8395 C   0  0  2  0  0  0  0  0  0  0  0  0
   10.2069  -17.1923   23.1507 N   0  0  0  0  0  0  0  0  0  0  0  0
   12.6076  -17.2513   22.8913 C   0  0  0  0  0  0  0  0  0  0  0  0
   12.4410  -17.6447   21.6686 O   0  0  0  0  0  0  0  0  0  0  0  0
   13.8864  -16.7937   23.1388 O   0  0  0  0  0  0  0  0  0  0  0  0
  1  2  1  0
  3  2  1  0
  3  5  1  0
  3  4  1  6
  5  6  1  1
  7  5  1  0
  7  8  2  0
 10  9  1  6
 10 12  1  0
 11 10  1  0
 12 13  1  1
 12 14  1  0
 13  7  1  0
 14 22  1  0
 15 14  2  0
 17 16  1  0
 17 19  1  0
 18 17  2  0
 20 19  1  0
 21 20  1  6
 21 23  1  0
 22 21  1  0
 23 24  2  0
 23 25  1  0
M  END
$$$$
