HIR.pdb
     RDKit          3D

 30 30  0  0  1  0  0  0  0  0999 V2000
    9.0477  -15.7892   13.8497 N   0  0  0  0  0  0  0  0  0  0  0  0
    8.6287  -16.3291   15.1156 C   0  0  1  0  0  0  0  0  0  0  0  0
    8.9618  -17.7978   15.2539 C   0  0  0  0  0  0  0  0  0  0  0  0
    8.3008  -18.6129   14.2167 C   0  0  0  0  0  0  0  0  0  0  0  0
    7.0489  -18.4711   13.6796 C   0  0  0  0  0  0  0  0  0  0  0  0
    6.9026  -19.4518   12.7741 N   0  0  0  0  0  0  0  0  0  0  0  0
    8.0340  -20.2047   12.7318 C   0  0  0  0  0  0  0  0  0  0  0  0
    8.8648  -19.6669   13.6221 N   0  0  0  0  0  0  0  0  0  0  0  0
    9.1731  -15.5383   16.2474 C   0  0  0  0  0  0  0  0  0  0  0  0
   10.3504  -15.0957   16.2461 O   0  0  0  0  0  0  0  0  0  0  0  0
    7.1924  -11.9643   21.0084 C   0  0  0  0  0  0  0  0  0  0  0  0
    8.2403  -12.7140   20.2683 C   0  0  0  0  0  0  0  0  0  0  0  0
    7.7877  -13.6880   19.2503 C   0  0  2  0  0  0  0  0  0  0  0  0
    6.8043  -14.7064   19.8024 C   0  0  0  0  0  0  0  0  0  0  0  0
    8.8237  -14.4069   18.4688 C   0  0  2  0  0  0  0  0  0  0  0  0
    8.3598  -15.2443   17.4075 N   0  0  0  0  0  0  0  0  0  0  0  0
    9.7820  -15.1595   19.3213 C   0  0  0  0  0  0  0  0  0  0  0  0
    9.5773  -16.3818   19.5620 O   0  0  0  0  0  0  0  0  0  0  0  0
   17.5770  -12.9557   18.6884 N   0  0  0  0  0  0  0  0  0  0  0  0
   17.3969  -14.0900   19.5654 C   0  0  0  0  0  0  0  0  0  0  0  0
   18.3938  -14.5251   20.2203 N   0  0  0  0  0  0  0  0  0  0  0  0
   16.0990  -14.6369   19.6250 N   0  0  0  0  0  0  0  0  0  0  0  0
   15.0542  -14.0218   18.7526 C   0  0  0  0  0  0  0  0  0  0  0  0
   13.7761  -14.7201   19.0513 C   0  0  0  0  0  0  0  0  0  0  0  0
   13.2612  -14.8825   20.3996 C   0  0  0  0  0  0  0  0  0  0  0  0
   11.9176  -15.3520   20.6922 C   0  0  2  0  0  0  0  0  0  0  0  0
   10.9294  -14.5772   19.8893 N   0  0  0  0  0  0  0  0  0  0  0  0
   11.4081  -15.3767   22.0437 C   0  0  0  0  0  0  0  0  0  0  0  0
   10.5428  -14.6784   22.5939 O   0  0  0  0  0  0  0  0  0  0  0  0
   11.9596  -16.3516   22.9382 O   0  0  0  0  0  0  0  0  0  0  0  0
  2  1  1  6
  3  4  1  0
  3  2  1  0
  4  5  2  0
  6  5  1  0
  7  6  1  0
  8  7  2  0
  8  4  1  0
  9 10  2  0
  9  2  1  0
 11 12  1  0
 12 13  1  0
 13 15  1  0
 13 14  1  1
 15 16  1  6
 16  9  1  0
 17 15  1  0
 18 17  2  0
 19 20  1  0
 20 22  1  0
 21 20  2  0
 22 23  1  0
 23 24  1  0
 24 25  1  0
 26 25  1  1
 26 28  1  0
 26 27  1  0
 27 17  1  0
 28 30  1  0
 29 28  2  0
M  END
$$$$
