HIR.pdb
     RDKit          3D

 30 30  0  0  1  0  0  0  0  0999 V2000
    8.7346  -13.6108   20.4344 N   0  0  0  0  0  0  0  0  0  0  0  0
    7.9689  -14.4430   21.3237 C   0  0  1  0  0  0  0  0  0  0  0  0
    8.0250  -15.9039   20.9368 C   0  0  0  0  0  0  0  0  0  0  0  0
    7.5023  -16.1342   19.5763 C   0  0  0  0  0  0  0  0  0  0  0  0
    7.1074  -15.2162   18.6398 C   0  0  0  0  0  0  0  0  0  0  0  0
    6.7084  -15.9099   17.5616 N   0  0  0  0  0  0  0  0  0  0  0  0
    6.8443  -17.2414   17.8011 C   0  0  0  0  0  0  0  0  0  0  0  0
    7.3300  -17.3431   19.0365 N   0  0  0  0  0  0  0  0  0  0  0  0
    8.3722  -14.2380   22.7372 C   0  0  0  0  0  0  0  0  0  0  0  0
    9.5796  -14.2013   23.0874 O   0  0  0  0  0  0  0  0  0  0  0  0
    6.4136  -10.8433   26.6844 C   0  0  0  0  0  0  0  0  0  0  0  0
    6.3783  -11.9029   25.6434 C   0  0  0  0  0  0  0  0  0  0  0  0
    6.7929  -13.2651   26.0462 C   0  0  2  0  0  0  0  0  0  0  0  0
    7.3245  -13.3251   27.4685 C   0  0  0  0  0  0  0  0  0  0  0  0
    7.7317  -13.9955   25.1595 C   0  0  2  0  0  0  0  0  0  0  0  0
    7.3792  -14.0712   23.7765 N   0  0  0  0  0  0  0  0  0  0  0  0
    8.0794  -15.3501   25.6651 C   0  0  0  0  0  0  0  0  0  0  0  0
    7.1725  -16.2179   25.8011 O   0  0  0  0  0  0  0  0  0  0  0  0
   14.0253  -18.7955   21.7207 N   0  0  0  0  0  0  0  0  0  0  0  0
   13.3472  -19.6287   22.6871 C   0  0  0  0  0  0  0  0  0  0  0  0
   13.3778  -20.8896   22.5408 N   0  0  0  0  0  0  0  0  0  0  0  0
   12.6891  -18.9604   23.7394 N   0  0  0  0  0  0  0  0  0  0  0  0
   11.8990  -19.7940   24.6943 C   0  0  0  0  0  0  0  0  0  0  0  0
   11.4733  -18.8969   25.8009 C   0  0  0  0  0  0  0  0  0  0  0  0
   10.8073  -17.6260   25.5755 C   0  0  0  0  0  0  0  0  0  0  0  0
    9.7454  -17.1168   26.4268 C   0  0  2  0  0  0  0  0  0  0  0  0
    9.3888  -15.7312   26.0095 N   0  0  0  0  0  0  0  0  0  0  0  0
    9.8867  -17.0812   27.8640 C   0  0  0  0  0  0  0  0  0  0  0  0
    9.9773  -16.1202   28.6434 O   0  0  0  0  0  0  0  0  0  0  0  0
    9.9345  -18.3373   28.5529 O   0  0  0  0  0  0  0  0  0  0  0  0
  2  1  1  6
  3  4  1  0
  3  2  1  0
  4  5  2  0
  6  5  1  0
  7  6  1  0
  8  7  2  0
  8  4  1  0
  9 10  2  0
  9  2  1  0
 11 12  1  0
 12 13  1  0
 13 15  1  0
 13 14  1  1
 15 16  1  6
 16  9  1  0
 17 15  1  0
 18 17  2  0
 19 20  1  0
 20 22  1  0
 21 20  2  0
 22 23  1  0
 23 24  1  0
 24 25  1  0
 26 25  1  6
 26 28  1  0
 26 27  1  0
 27 17  1  0
 28 30  1  0
 29 28  2  0
M  END
$$$$
