HIR.pdb
     RDKit          3D

 30 30  0  0  1  0  0  0  0  0999 V2000
   10.1195  -17.4941   16.2364 N   0  0  0  0  0  0  0  0  0  0  0  0
    9.2140  -17.6936   17.3363 C   0  0  1  0  0  0  0  0  0  0  0  0
    9.0987  -19.1491   17.7307 C   0  0  0  0  0  0  0  0  0  0  0  0
    8.4907  -19.9634   16.6610 C   0  0  0  0  0  0  0  0  0  0  0  0
    7.2472  -20.5357   16.6170 C   0  0  0  0  0  0  0  0  0  0  0  0
    7.1573  -21.1769   15.4405 N   0  0  0  0  0  0  0  0  0  0  0  0
    8.3159  -21.0194   14.7467 C   0  0  0  0  0  0  0  0  0  0  0  0
    9.1060  -20.2756   15.5180 N   0  0  0  0  0  0  0  0  0  0  0  0
    9.5769  -16.8421   18.4964 C   0  0  0  0  0  0  0  0  0  0  0  0
   10.7618  -16.7435   18.9064 O   0  0  0  0  0  0  0  0  0  0  0  0
    6.6340  -12.1705   19.8822 C   0  0  0  0  0  0  0  0  0  0  0  0
    7.7313  -13.1443   19.6470 C   0  0  0  0  0  0  0  0  0  0  0  0
    7.9460  -14.1872   20.6746 C   0  0  2  0  0  0  0  0  0  0  0  0
    8.3209  -13.6128   22.0306 C   0  0  0  0  0  0  0  0  0  0  0  0
    8.8808  -15.2941   20.3554 C   0  0  2  0  0  0  0  0  0  0  0  0
    8.5686  -16.0854   19.2069 N   0  0  0  0  0  0  0  0  0  0  0  0
    9.1562  -16.1803   21.5174 C   0  0  0  0  0  0  0  0  0  0  0  0
    8.3017  -17.0439   21.8607 O   0  0  0  0  0  0  0  0  0  0  0  0
   16.5854  -15.9610   24.0418 N   0  0  0  0  0  0  0  0  0  0  0  0
   16.1597  -16.2476   22.6910 C   0  0  0  0  0  0  0  0  0  0  0  0
   16.8559  -15.8136   21.7219 N   0  0  0  0  0  0  0  0  0  0  0  0
   14.9773  -17.0026   22.5528 N   0  0  0  0  0  0  0  0  0  0  0  0
   14.4991  -17.7546   23.7515 C   0  0  0  0  0  0  0  0  0  0  0  0
   13.1157  -17.2872   24.0311 C   0  0  0  0  0  0  0  0  0  0  0  0
   11.9842  -17.6161   23.1820 C   0  0  0  0  0  0  0  0  0  0  0  0
   10.6525  -17.0676   23.3750 C   0  0  2  0  0  0  0  0  0  0  0  0
   10.3393  -16.1120   22.2749 N   0  0  0  0  0  0  0  0  0  0  0  0
   10.2848  -16.4026   24.6035 C   0  0  0  0  0  0  0  0  0  0  0  0
    9.9221  -15.2348   24.8129 O   0  0  0  0  0  0  0  0  0  0  0  0
   10.3282  -17.1756   25.8099 O   0  0  0  0  0  0  0  0  0  0  0  0
  2  1  1  6
  3  4  1  0
  3  2  1  0
  4  5  2  0
  6  5  1  0
  7  6  1  0
  8  7  2  0
  8  4  1  0
  9 10  2  0
  9  2  1  0
 11 12  1  0
 12 13  1  0
 13 15  1  0
 13 14  1  1
 15 16  1  6
 16  9  1  0
 17 15  1  0
 18 17  2  0
 19 20  1  0
 20 22  1  0
 21 20  2  0
 22 23  1  0
 23 24  1  0
 24 25  1  0
 26 25  1  1
 26 28  1  0
 26 27  1  0
 27 17  1  0
 28 30  1  0
 29 28  2  0
M  END
$$$$
