HIR.pdb
     RDKit          3D

 30 30  0  0  1  0  0  0  0  0999 V2000
    5.8689  -19.5560   26.3367 N   0  0  0  0  0  0  0  0  0  0  0  0
    6.9325  -18.6067   26.5298 C   0  0  1  0  0  0  0  0  0  0  0  0
    8.2960  -19.2099   26.2762 C   0  0  0  0  0  0  0  0  0  0  0  0
    8.8872  -19.7721   27.5055 C   0  0  0  0  0  0  0  0  0  0  0  0
    8.2620  -20.1644   28.6592 C   0  0  0  0  0  0  0  0  0  0  0  0
    9.2211  -20.6065   29.4885 N   0  0  0  0  0  0  0  0  0  0  0  0
   10.4327  -20.5001   28.8809 C   0  0  0  0  0  0  0  0  0  0  0  0
   10.1937  -19.9887   27.6752 N   0  0  0  0  0  0  0  0  0  0  0  0
    6.7188  -17.3828   25.7179 C   0  0  0  0  0  0  0  0  0  0  0  0
    6.1219  -17.4127   24.6112 O   0  0  0  0  0  0  0  0  0  0  0  0
    6.4292  -12.1107   27.8003 C   0  0  0  0  0  0  0  0  0  0  0  0
    6.1931  -13.2334   26.8562 C   0  0  0  0  0  0  0  0  0  0  0  0
    7.3147  -13.6273   25.9750 C   0  0  2  0  0  0  0  0  0  0  0  0
    7.6354  -12.5796   24.9220 C   0  0  0  0  0  0  0  0  0  0  0  0
    7.2463  -14.9545   25.3156 C   0  0  2  0  0  0  0  0  0  0  0  0
    7.1951  -16.0952   26.1752 N   0  0  0  0  0  0  0  0  0  0  0  0
    8.2985  -15.1494   24.2830 C   0  0  0  0  0  0  0  0  0  0  0  0
    9.1949  -16.0204   24.4612 O   0  0  0  0  0  0  0  0  0  0  0  0
    8.1844  -11.9093   15.9331 N   0  0  0  0  0  0  0  0  0  0  0  0
    8.7180  -13.2425   15.7724 C   0  0  0  0  0  0  0  0  0  0  0  0
    8.9642  -13.6693   14.6022 N   0  0  0  0  0  0  0  0  0  0  0  0
    8.9266  -13.9812   16.9548 N   0  0  0  0  0  0  0  0  0  0  0  0
    8.2707  -13.4825   18.2005 C   0  0  0  0  0  0  0  0  0  0  0  0
    8.7979  -14.3015   19.3239 C   0  0  0  0  0  0  0  0  0  0  0  0
    8.4013  -14.0951   20.7057 C   0  0  0  0  0  0  0  0  0  0  0  0
    8.7705  -14.9929   21.7871 C   0  0  2  0  0  0  0  0  0  0  0  0
    8.3565  -14.4036   23.0919 N   0  0  0  0  0  0  0  0  0  0  0  0
   10.1334  -15.4391   21.9607 C   0  0  0  0  0  0  0  0  0  0  0  0
   11.0274  -15.0300   22.7173 O   0  0  0  0  0  0  0  0  0  0  0  0
   10.5768  -16.5341   21.1488 O   0  0  0  0  0  0  0  0  0  0  0  0
  2  1  1  6
  3  4  1  0
  3  2  1  0
  4  5  2  0
  6  5  1  0
  7  6  1  0
  8  7  2  0
  8  4  1  0
  9 10  2  0
  9  2  1  0
 11 12  1  0
 12 13  1  0
 13 15  1  0
 13 14  1  6
 15 16  1  1
 16  9  1  0
 17 15  1  0
 18 17  2  0
 19 20  1  0
 20 22  1  0
 21 20  2  0
 22 23  1  0
 23 24  1  0
 24 25  1  0
 26 25  1  6
 26 28  1  0
 26 27  1  0
 27 17  1  0
 28 30  1  0
 29 28  2  0
M  END
$$$$
