HIR.pdb
     RDKit          3D

 30 30  0  0  1  0  0  0  0  0999 V2000
    7.0891  -18.9918   27.8411 N   0  0  0  0  0  0  0  0  0  0  0  0
    8.0217  -17.9441   27.5216 C   0  0  1  0  0  0  0  0  0  0  0  0
    9.3782  -18.4818   27.1245 C   0  0  0  0  0  0  0  0  0  0  0  0
   10.1733  -18.8924   28.2976 C   0  0  0  0  0  0  0  0  0  0  0  0
   10.4791  -18.1748   29.4234 C   0  0  0  0  0  0  0  0  0  0  0  0
   11.2252  -18.9749   30.2020 N   0  0  0  0  0  0  0  0  0  0  0  0
   11.3939  -20.1771   29.5897 C   0  0  0  0  0  0  0  0  0  0  0  0
   10.7408  -20.0933   28.4327 N   0  0  0  0  0  0  0  0  0  0  0  0
    7.4744  -17.0298   26.4885 C   0  0  0  0  0  0  0  0  0  0  0  0
    6.8173  -17.4539   25.5035 O   0  0  0  0  0  0  0  0  0  0  0  0
    6.5291  -11.7824   27.8393 C   0  0  0  0  0  0  0  0  0  0  0  0
    6.1769  -12.9099   26.9380 C   0  0  0  0  0  0  0  0  0  0  0  0
    7.1578  -13.2756   25.8922 C   0  0  2  0  0  0  0  0  0  0  0  0
    6.9898  -12.4686   24.6157 C   0  0  0  0  0  0  0  0  0  0  0  0
    7.2861  -14.7090   25.5318 C   0  0  2  0  0  0  0  0  0  0  0  0
    7.6795  -15.6001   26.5777 N   0  0  0  0  0  0  0  0  0  0  0  0
    8.1338  -14.9365   24.3314 C   0  0  0  0  0  0  0  0  0  0  0  0
    9.2935  -15.4167   24.4675 O   0  0  0  0  0  0  0  0  0  0  0  0
    8.3430  -12.7458   17.3197 N   0  0  0  0  0  0  0  0  0  0  0  0
    8.5245  -13.9100   16.4832 C   0  0  0  0  0  0  0  0  0  0  0  0
    9.2438  -13.8124   15.4415 N   0  0  0  0  0  0  0  0  0  0  0  0
    7.8725  -15.0887   16.8988 N   0  0  0  0  0  0  0  0  0  0  0  0
    7.0107  -15.0039   18.1157 C   0  0  0  0  0  0  0  0  0  0  0  0
    7.9071  -15.1597   19.2916 C   0  0  0  0  0  0  0  0  0  0  0  0
    7.4445  -15.0199   20.6612 C   0  0  0  0  0  0  0  0  0  0  0  0
    8.2692  -15.3208   21.8192 C   0  0  2  0  0  0  0  0  0  0  0  0
    7.7113  -14.6413   23.0227 N   0  0  0  0  0  0  0  0  0  0  0  0
    9.6875  -15.0471   21.8229 C   0  0  0  0  0  0  0  0  0  0  0  0
   10.6528  -15.7810   21.5605 O   0  0  0  0  0  0  0  0  0  0  0  0
   10.1022  -13.7226   22.1814 O   0  0  0  0  0  0  0  0  0  0  0  0
  2  1  1  6
  3  4  1  0
  3  2  1  0
  4  5  2  0
  6  5  1  0
  7  6  1  0
  8  7  2  0
  8  4  1  0
  9 10  2  0
  9  2  1  0
 11 12  1  0
 12 13  1  0
 13 15  1  0
 13 14  1  6
 15 16  1  1
 16  9  1  0
 17 15  1  0
 18 17  2  0
 19 20  1  0
 20 22  1  0
 21 20  2  0
 22 23  1  0
 23 24  1  0
 24 25  1  0
 26 25  1  6
 26 28  1  0
 26 27  1  0
 27 17  1  0
 28 30  1  0
 29 28  2  0
M  END
$$$$
