HIR.pdb
     RDKit          3D

 30 30  0  0  1  0  0  0  0  0999 V2000
    7.4737  -15.6821   20.9756 N   0  0  0  0  0  0  0  0  0  0  0  0
    8.4552  -14.6336   21.0592 C   0  0  1  0  0  0  0  0  0  0  0  0
    8.1382  -13.4735   20.1422 C   0  0  0  0  0  0  0  0  0  0  0  0
    7.9536  -13.9100   18.7449 C   0  0  0  0  0  0  0  0  0  0  0  0
    8.0511  -15.1701   18.2174 C   0  0  0  0  0  0  0  0  0  0  0  0
    7.7993  -15.0604   16.9030 N   0  0  0  0  0  0  0  0  0  0  0  0
    7.5465  -13.7604   16.5950 C   0  0  0  0  0  0  0  0  0  0  0  0
    7.6485  -13.0870   17.7389 N   0  0  0  0  0  0  0  0  0  0  0  0
    8.6474  -14.1836   22.4603 C   0  0  0  0  0  0  0  0  0  0  0  0
    9.1015  -13.0440   22.7383 O   0  0  0  0  0  0  0  0  0  0  0  0
    6.9557  -11.6144   26.9572 C   0  0  0  0  0  0  0  0  0  0  0  0
    7.7655  -12.8140   26.6209 C   0  0  0  0  0  0  0  0  0  0  0  0
    7.6231  -13.3691   25.2566 C   0  0  2  0  0  0  0  0  0  0  0  0
    6.1732  -13.5634   24.8456 C   0  0  0  0  0  0  0  0  0  0  0  0
    8.3772  -14.6037   24.9275 C   0  0  2  0  0  0  0  0  0  0  0  0
    8.3158  -15.0497   23.5711 N   0  0  0  0  0  0  0  0  0  0  0  0
    8.0745  -15.7354   25.8436 C   0  0  0  0  0  0  0  0  0  0  0  0
    6.9328  -16.2736   25.8154 O   0  0  0  0  0  0  0  0  0  0  0  0
   10.9888  -21.1234   21.7309 N   0  0  0  0  0  0  0  0  0  0  0  0
   11.9900  -21.4299   22.7267 C   0  0  0  0  0  0  0  0  0  0  0  0
   12.6649  -22.4991   22.6111 N   0  0  0  0  0  0  0  0  0  0  0  0
   12.1408  -20.4967   23.7724 N   0  0  0  0  0  0  0  0  0  0  0  0
   11.1073  -19.4248   23.8902 C   0  0  0  0  0  0  0  0  0  0  0  0
   11.4676  -18.6059   25.0777 C   0  0  0  0  0  0  0  0  0  0  0  0
   10.6719  -17.4785   25.5304 C   0  0  0  0  0  0  0  0  0  0  0  0
    9.6717  -17.5748   26.5801 C   0  0  2  0  0  0  0  0  0  0  0  0
    9.0057  -16.2538   26.7614 N   0  0  0  0  0  0  0  0  0  0  0  0
   10.0149  -18.0383   27.9046 C   0  0  0  0  0  0  0  0  0  0  0  0
   10.2544  -19.1810   28.3239 O   0  0  0  0  0  0  0  0  0  0  0  0
   10.1082  -17.0549   28.9433 O   0  0  0  0  0  0  0  0  0  0  0  0
  2  1  1  1
  3  4  1  0
  3  2  1  0
  4  5  2  0
  6  5  1  0
  7  6  1  0
  8  7  2  0
  8  4  1  0
  9 10  2  0
  9  2  1  0
 11 12  1  0
 12 13  1  0
 13 15  1  0
 13 14  1  1
 15 16  1  6
 16  9  1  0
 17 15  1  0
 18 17  2  0
 19 20  1  0
 20 22  1  0
 21 20  2  0
 22 23  1  0
 23 24  1  0
 24 25  1  0
 26 25  1  6
 26 28  1  0
 26 27  1  0
 27 17  1  0
 28 30  1  0
 29 28  2  0
M  END
$$$$
