HIR.pdb
     RDKit          3D

 30 30  0  0  1  0  0  0  0  0999 V2000
    8.7902  -15.8170   20.7540 N   0  0  0  0  0  0  0  0  0  0  0  0
    7.8911  -16.0872   21.8440 C   0  0  1  0  0  0  0  0  0  0  0  0
    7.4886  -17.5434   21.9113 C   0  0  0  0  0  0  0  0  0  0  0  0
    6.7275  -17.9605   20.7180 C   0  0  0  0  0  0  0  0  0  0  0  0
    6.3255  -17.2069   19.6474 C   0  0  0  0  0  0  0  0  0  0  0  0
    5.6631  -18.0315   18.8202 N   0  0  0  0  0  0  0  0  0  0  0  0
    5.6409  -19.2843   19.3480 C   0  0  0  0  0  0  0  0  0  0  0  0
    6.2977  -19.2062   20.5033 N   0  0  0  0  0  0  0  0  0  0  0  0
    8.4506  -15.6165   23.1356 C   0  0  0  0  0  0  0  0  0  0  0  0
    9.6896  -15.5634   23.3456 O   0  0  0  0  0  0  0  0  0  0  0  0
    5.8722  -11.7036   26.0101 C   0  0  0  0  0  0  0  0  0  0  0  0
    6.9646  -12.5425   25.4526 C   0  0  0  0  0  0  0  0  0  0  0  0
    7.3485  -13.7519   26.2141 C   0  0  2  0  0  0  0  0  0  0  0  0
    8.0921  -13.4300   27.4996 C   0  0  0  0  0  0  0  0  0  0  0  0
    8.0871  -14.8191   25.4954 C   0  0  2  0  0  0  0  0  0  0  0  0
    7.5809  -15.1968   24.2133 N   0  0  0  0  0  0  0  0  0  0  0  0
    8.3145  -16.0327   26.3241 C   0  0  0  0  0  0  0  0  0  0  0  0
    7.3259  -16.6872   26.7579 O   0  0  0  0  0  0  0  0  0  0  0  0
    9.2680  -22.4330   25.2729 N   0  0  0  0  0  0  0  0  0  0  0  0
    9.3400  -21.8544   23.9508 C   0  0  0  0  0  0  0  0  0  0  0  0
    8.5587  -22.2855   23.0476 N   0  0  0  0  0  0  0  0  0  0  0  0
   10.2948  -20.8343   23.7638 N   0  0  0  0  0  0  0  0  0  0  0  0
   11.0572  -20.3791   24.9648 C   0  0  0  0  0  0  0  0  0  0  0  0
   10.2004  -19.3905   25.6712 C   0  0  0  0  0  0  0  0  0  0  0  0
   10.6388  -18.6660   26.8512 C   0  0  0  0  0  0  0  0  0  0  0  0
    9.8152  -17.6884   27.5422 C   0  0  2  0  0  0  0  0  0  0  0  0
    9.5952  -16.5058   26.6622 N   0  0  0  0  0  0  0  0  0  0  0  0
   10.1951  -17.1647   28.8337 C   0  0  0  0  0  0  0  0  0  0  0  0
   10.6054  -16.0405   29.1609 O   0  0  0  0  0  0  0  0  0  0  0  0
   10.0999  -18.0493   29.9576 O   0  0  0  0  0  0  0  0  0  0  0  0
  2  1  1  6
  3  4  1  0
  3  2  1  0
  4  5  2  0
  6  5  1  0
  7  6  1  0
  8  7  2  0
  8  4  1  0
  9 10  2  0
  9  2  1  0
 11 12  1  0
 12 13  1  0
 13 15  1  0
 13 14  1  1
 15 16  1  6
 16  9  1  0
 17 15  1  0
 18 17  2  0
 19 20  1  0
 20 22  1  0
 21 20  2  0
 22 23  1  0
 23 24  1  0
 24 25  1  0
 26 25  1  6
 26 28  1  0
 26 27  1  0
 27 17  1  0
 28 30  1  0
 29 28  2  0
M  END
$$$$
