HIR.pdb
     RDKit          3D

 30 30  0  0  1  0  0  0  0  0999 V2000
    9.8773  -14.2153   20.4689 N   0  0  0  0  0  0  0  0  0  0  0  0
    8.6633  -14.2659   21.2390 C   0  0  1  0  0  0  0  0  0  0  0  0
    7.6409  -15.2066   20.6416 C   0  0  0  0  0  0  0  0  0  0  0  0
    7.2799  -14.8245   19.2629 C   0  0  0  0  0  0  0  0  0  0  0  0
    6.9728  -13.5858   18.7660 C   0  0  0  0  0  0  0  0  0  0  0  0
    6.7132  -13.7464   17.4584 N   0  0  0  0  0  0  0  0  0  0  0  0
    6.8505  -15.0573   17.1248 C   0  0  0  0  0  0  0  0  0  0  0  0
    7.1961  -15.6859   18.2462 N   0  0  0  0  0  0  0  0  0  0  0  0
    8.9382  -14.5919   22.6606 C   0  0  0  0  0  0  0  0  0  0  0  0
   10.0143  -15.1316   23.0248 O   0  0  0  0  0  0  0  0  0  0  0  0
    5.9446  -11.4420   26.1632 C   0  0  0  0  0  0  0  0  0  0  0  0
    7.1423  -12.0832   25.5613 C   0  0  0  0  0  0  0  0  0  0  0  0
    7.4474  -13.4720   25.9708 C   0  0  2  0  0  0  0  0  0  0  0  0
    7.9908  -13.5652   27.3868 C   0  0  0  0  0  0  0  0  0  0  0  0
    8.3105  -14.2848   25.0789 C   0  0  2  0  0  0  0  0  0  0  0  0
    7.9666  -14.2975   23.6918 N   0  0  0  0  0  0  0  0  0  0  0  0
    8.5033  -15.6779   25.5624 C   0  0  0  0  0  0  0  0  0  0  0  0
    7.5233  -16.4735   25.5820 O   0  0  0  0  0  0  0  0  0  0  0  0
   10.8015  -19.2177   22.0978 N   0  0  0  0  0  0  0  0  0  0  0  0
   11.6884  -20.3330   22.3374 C   0  0  0  0  0  0  0  0  0  0  0  0
   11.5492  -21.3888   21.6459 N   0  0  0  0  0  0  0  0  0  0  0  0
   12.6597  -20.1571   23.3438 N   0  0  0  0  0  0  0  0  0  0  0  0
   12.6320  -18.8738   24.1077 C   0  0  0  0  0  0  0  0  0  0  0  0
   11.6658  -19.0558   25.2230 C   0  0  0  0  0  0  0  0  0  0  0  0
   11.3138  -17.9900   26.1447 C   0  0  0  0  0  0  0  0  0  0  0  0
    9.9442  -17.5914   26.4220 C   0  0  2  0  0  0  0  0  0  0  0  0
    9.7411  -16.1735   26.0101 N   0  0  0  0  0  0  0  0  0  0  0  0
    9.3807  -17.7110   27.7467 C   0  0  0  0  0  0  0  0  0  0  0  0
    9.4231  -16.9374   28.7157 O   0  0  0  0  0  0  0  0  0  0  0  0
    8.6391  -18.9015   28.0425 O   0  0  0  0  0  0  0  0  0  0  0  0
  2  1  1  6
  3  4  1  0
  3  2  1  0
  4  5  2  0
  6  5  1  0
  7  6  1  0
  8  7  2  0
  8  4  1  0
  9 10  2  0
  9  2  1  0
 11 12  1  0
 12 13  1  0
 13 15  1  0
 13 14  1  1
 15 16  1  6
 16  9  1  0
 17 15  1  0
 18 17  2  0
 19 20  1  0
 20 22  1  0
 21 20  2  0
 22 23  1  0
 23 24  1  0
 24 25  1  0
 26 25  1  1
 26 28  1  0
 26 27  1  0
 27 17  1  0
 28 30  1  0
 29 28  2  0
M  END
$$$$
