RFG.pdb
     RDKit          3D

 27 27  0  0  1  0  0  0  0  0999 V2000
   18.8357  -24.0529   -7.8096 N   0  0  0  0  0  0  0  0  0  0  0  0
   17.8541  -23.8615   -8.8090 C   0  0  0  0  0  0  0  0  0  0  0  0
   16.6267  -23.6666   -8.5197 N   0  0  0  0  0  0  0  0  0  0  0  0
   18.2622  -23.8911  -10.1847 N   0  0  0  0  0  0  0  0  0  0  0  0
   19.3750  -23.1392  -10.6617 C   0  0  0  0  0  0  0  0  0  0  0  0
   19.7953  -22.0304   -9.7257 C   0  0  0  0  0  0  0  0  0  0  0  0
   21.0027  -21.3556  -10.3606 C   0  0  0  0  0  0  0  0  0  0  0  0
   20.7771  -21.2240  -11.8314 C   0  0  2  0  0  0  0  0  0  0  0  0
   20.9207  -22.4789  -12.5076 N   0  0  0  0  0  0  0  0  0  0  0  0
   21.6953  -20.1753  -12.3861 C   0  0  0  0  0  0  0  0  0  0  0  0
   21.6274  -19.0129  -11.9140 O   0  0  0  0  0  0  0  0  0  0  0  0
   15.8605  -23.5610   -9.1927 N   0  0  0  0  0  0  0  0  0  0  0  0
   22.6335  -20.4306  -13.4156 C   0  0  1  0  0  0  0  0  0  0  0  0
   23.4465  -19.3298  -13.8952 C   0  0  0  0  0  0  0  0  0  0  0  0
   24.9009  -19.6710  -13.9520 C   0  0  0  0  0  0  0  0  0  0  0  0
   25.7625  -18.6435  -14.5316 C   0  0  0  0  0  0  0  0  0  0  0  0
   25.8988  -17.4360  -13.8959 C   0  0  0  0  0  0  0  0  0  0  0  0
   26.6937  -16.4186  -14.3853 C   0  0  0  0  0  0  0  0  0  0  0  0
   27.3716  -16.6183  -15.5459 C   0  0  0  0  0  0  0  0  0  0  0  0
   27.2576  -17.8220  -16.2127 C   0  0  0  0  0  0  0  0  0  0  0  0
   26.4444  -18.8479  -15.7014 C   0  0  0  0  0  0  0  0  0  0  0  0
   23.0325  -19.0423  -15.3118 O   0  0  0  0  0  0  0  0  0  0  0  0
   22.7455  -20.0075  -16.0569 N   0  0  0  0  0  0  0  0  0  0  0  0
   22.9561  -17.7211  -15.8260 C   0  0  0  0  0  0  0  0  0  0  0  0
   22.2487  -17.5116  -17.0679 C   0  0  0  0  0  0  0  0  0  0  0  0
   23.2152  -17.2256  -18.1426 O   0  0  0  0  0  0  0  0  0  0  0  0
   22.9933  -16.3211  -18.9708 O   0  0  0  0  0  0  0  0  0  0  0  0
  2  1  1  0
  3  2  2  0
  4  2  1  0
  5  4  1  0
  6  5  1  0
  7  6  1  0
  8  7  1  0
  8  9  1  6
 10  8  1  0
 10 11  2  0
 12 10  1  0
 13 12  1  0
 13 14  1  1
 15 14  1  0
 15 16  2  0
 16 17  1  0
 18 17  2  0
 19 18  1  0
 20 19  2  0
 20 15  1  0
 21 13  1  0
 22 21  2  0
 23 21  1  0
 24 25  1  0
 24 23  1  0
 25 27  1  0
 26 25  2  0
M  END
$$$$
