RFG.pdb
     RDKit          3D

 27 27  0  0  1  0  0  0  0  0999 V2000
   27.2617  -19.7472  -20.9305 N   0  0  0  0  0  0  0  0  0  0  0  0
   27.2891  -21.1584  -21.0146 C   0  0  0  0  0  0  0  0  0  0  0  0
   28.1470  -21.7744  -21.7305 N   0  0  0  0  0  0  0  0  0  0  0  0
   26.3178  -21.9079  -20.2698 N   0  0  0  0  0  0  0  0  0  0  0  0
   26.1746  -21.7718  -18.8584 C   0  0  0  0  0  0  0  0  0  0  0  0
   26.2511  -20.3399  -18.3830 C   0  0  0  0  0  0  0  0  0  0  0  0
   25.8995  -20.3508  -16.9023 C   0  0  0  0  0  0  0  0  0  0  0  0
   26.9483  -21.1047  -16.1521 C   0  0  2  0  0  0  0  0  0  0  0  0
   27.2375  -22.3678  -16.7635 N   0  0  0  0  0  0  0  0  0  0  0  0
   26.5286  -21.2535  -14.7196 C   0  0  0  0  0  0  0  0  0  0  0  0
   25.8801  -22.2785  -14.3915 O   0  0  0  0  0  0  0  0  0  0  0  0
   28.1997  -22.7896  -21.8641 N   0  0  0  0  0  0  0  0  0  0  0  0
   26.8263  -20.2959  -13.7197 C   0  0  1  0  0  0  0  0  0  0  0  0
   26.4856  -20.6067  -12.3450 C   0  0  0  0  0  0  0  0  0  0  0  0
   27.3741  -19.9149  -11.3617 C   0  0  0  0  0  0  0  0  0  0  0  0
   27.0047  -20.0828   -9.9583 C   0  0  0  0  0  0  0  0  0  0  0  0
   26.2741  -19.1078   -9.3288 C   0  0  0  0  0  0  0  0  0  0  0  0
   25.8907  -19.1975   -8.0054 C   0  0  0  0  0  0  0  0  0  0  0  0
   26.2506  -20.2973   -7.2929 C   0  0  0  0  0  0  0  0  0  0  0  0
   26.9864  -21.2986   -7.8949 C   0  0  0  0  0  0  0  0  0  0  0  0
   27.3688  -21.1924   -9.2431 C   0  0  0  0  0  0  0  0  0  0  0  0
   25.0992  -20.0834  -12.0906 O   0  0  0  0  0  0  0  0  0  0  0  0
   24.7763  -18.9816  -12.5915 N   0  0  0  0  0  0  0  0  0  0  0  0
   24.1520  -20.7948  -11.3079 C   0  0  0  0  0  0  0  0  0  0  0  0
   22.8642  -20.1844  -11.0727 C   0  0  0  0  0  0  0  0  0  0  0  0
   21.9120  -20.6309  -12.1046 O   0  0  0  0  0  0  0  0  0  0  0  0
   22.3193  -21.1613  -13.1563 O   0  0  0  0  0  0  0  0  0  0  0  0
  2  1  1  0
  3  2  2  0
  4  2  1  0
  5  4  1  0
  6  5  1  0
  7  6  1  0
  8  7  1  0
  8  9  1  6
 10  8  1  0
 10 11  2  0
 12 10  1  0
 13 12  1  0
 13 14  1  1
 15 14  1  0
 15 16  2  0
 16 17  1  0
 18 17  2  0
 19 18  1  0
 20 19  2  0
 20 15  1  0
 21 13  1  0
 22 21  2  0
 23 21  1  0
 24 25  1  0
 24 23  1  0
 25 27  1  0
 26 25  2  0
M  END
$$$$
