RFG.pdb
     RDKit          3D

 27 27  0  0  1  0  0  0  0  0999 V2000
   28.8732  -21.4900  -17.4116 N   0  0  0  0  0  0  0  0  0  0  0  0
   28.9510  -22.4904  -16.4155 C   0  0  0  0  0  0  0  0  0  0  0  0
   29.2814  -23.6916  -16.6910 N   0  0  0  0  0  0  0  0  0  0  0  0
   28.6456  -22.1322  -15.0596 N   0  0  0  0  0  0  0  0  0  0  0  0
   27.5907  -21.2313  -14.7326 C   0  0  0  0  0  0  0  0  0  0  0  0
   28.0225  -19.7838  -14.7134 C   0  0  0  0  0  0  0  0  0  0  0  0
   26.7911  -18.9643  -14.3553 C   0  0  0  0  0  0  0  0  0  0  0  0
   25.6228  -19.4601  -15.1430 C   0  0  2  0  0  0  0  0  0  0  0  0
   25.9937  -19.8171  -16.4801 N   0  0  0  0  0  0  0  0  0  0  0  0
   24.5292  -18.4336  -15.1152 C   0  0  0  0  0  0  0  0  0  0  0  0
   24.1568  -17.9889  -14.0007 O   0  0  0  0  0  0  0  0  0  0  0  0
   29.2111  -24.4943  -16.0569 N   0  0  0  0  0  0  0  0  0  0  0  0
   23.8957  -17.9423  -16.2825 C   0  0  1  0  0  0  0  0  0  0  0  0
   22.8637  -16.9346  -16.1339 C   0  0  0  0  0  0  0  0  0  0  0  0
   23.1056  -15.7329  -16.9897 C   0  0  0  0  0  0  0  0  0  0  0  0
   24.4280  -15.1262  -16.8572 C   0  0  0  0  0  0  0  0  0  0  0  0
   24.6896  -14.2965  -15.7971 C   0  0  0  0  0  0  0  0  0  0  0  0
   25.9142  -13.6874  -15.6085 C   0  0  0  0  0  0  0  0  0  0  0  0
   26.9052  -13.9173  -16.5093 C   0  0  0  0  0  0  0  0  0  0  0  0
   26.6768  -14.7473  -17.5888 C   0  0  0  0  0  0  0  0  0  0  0  0
   25.4246  -15.3601  -17.7668 C   0  0  0  0  0  0  0  0  0  0  0  0
   21.5711  -17.5330  -16.6154 O   0  0  0  0  0  0  0  0  0  0  0  0
   21.5453  -18.0629  -17.7501 N   0  0  0  0  0  0  0  0  0  0  0  0
   20.3890  -17.5173  -15.8291 C   0  0  0  0  0  0  0  0  0  0  0  0
   19.2414  -18.2531  -16.3067 C   0  0  0  0  0  0  0  0  0  0  0  0
   18.4614  -18.7478  -15.1588 O   0  0  0  0  0  0  0  0  0  0  0  0
   17.3484  -19.2815  -15.3312 O   0  0  0  0  0  0  0  0  0  0  0  0
  2  1  1  0
  3  2  2  0
  4  2  1  0
  5  4  1  0
  6  5  1  0
  7  6  1  0
  8  7  1  0
  8  9  1  6
 10  8  1  0
 10 11  2  0
 12 10  1  0
 13 12  1  0
 13 14  1  1
 15 14  1  0
 15 16  2  0
 16 17  1  0
 18 17  2  0
 19 18  1  0
 20 19  2  0
 20 15  1  0
 21 13  1  0
 22 21  2  0
 23 21  1  0
 24 25  1  0
 24 23  1  0
 25 27  1  0
 26 25  2  0
M  END
$$$$
