RFG.pdb
     RDKit          3D

 27 27  0  0  1  0  0  0  0  0999 V2000
   16.7724  -14.3393  -17.8359 N   0  0  0  0  0  0  0  0  0  0  0  0
   17.4812  -15.5381  -18.0797 C   0  0  0  0  0  0  0  0  0  0  0  0
   16.9691  -16.5011  -18.7418 N   0  0  0  0  0  0  0  0  0  0  0  0
   18.8135  -15.6639  -17.5609 N   0  0  0  0  0  0  0  0  0  0  0  0
   19.4269  -14.6346  -16.7892 C   0  0  0  0  0  0  0  0  0  0  0  0
   19.9057  -13.4669  -17.6194 C   0  0  0  0  0  0  0  0  0  0  0  0
   20.4652  -12.4385  -16.6470 C   0  0  0  0  0  0  0  0  0  0  0  0
   21.9571  -12.4527  -16.7187 C   0  0  2  0  0  0  0  0  0  0  0  0
   22.4909  -13.7583  -16.4667 N   0  0  0  0  0  0  0  0  0  0  0  0
   22.5127  -11.4242  -15.7786 C   0  0  0  0  0  0  0  0  0  0  0  0
   22.7540  -11.7674  -14.5942 O   0  0  0  0  0  0  0  0  0  0  0  0
   17.4297  -17.3902  -18.9623 N   0  0  0  0  0  0  0  0  0  0  0  0
   22.7774  -10.0863  -16.1597 C   0  0  1  0  0  0  0  0  0  0  0  0
   23.4954   -9.2348  -15.2312 C   0  0  0  0  0  0  0  0  0  0  0  0
   24.7792   -8.7198  -15.7981 C   0  0  0  0  0  0  0  0  0  0  0  0
   25.7971   -9.7335  -16.0640 C   0  0  0  0  0  0  0  0  0  0  0  0
   26.3359  -10.4425  -15.0211 C   0  0  0  0  0  0  0  0  0  0  0  0
   27.3018  -11.4133  -15.1967 C   0  0  0  0  0  0  0  0  0  0  0  0
   27.7399  -11.6807  -16.4549 C   0  0  0  0  0  0  0  0  0  0  0  0
   27.2193  -10.9859  -17.5285 C   0  0  0  0  0  0  0  0  0  0  0  0
   26.2364  -10.0006  -17.3333 C   0  0  0  0  0  0  0  0  0  0  0  0
   22.6420   -8.0244  -14.9712 O   0  0  0  0  0  0  0  0  0  0  0  0
   23.0323   -7.1908  -14.1218 N   0  0  0  0  0  0  0  0  0  0  0  0
   21.4182   -7.7987  -15.6548 C   0  0  0  0  0  0  0  0  0  0  0  0
   20.6460   -6.6293  -15.3044 C   0  0  0  0  0  0  0  0  0  0  0  0
   20.9147   -5.5533  -16.2743 O   0  0  0  0  0  0  0  0  0  0  0  0
   21.7358   -5.7215  -17.1967 O   0  0  0  0  0  0  0  0  0  0  0  0
  2  1  1  0
  3  2  2  0
  4  2  1  0
  5  4  1  0
  6  5  1  0
  7  6  1  0
  8  7  1  0
  8  9  1  1
 10  8  1  0
 10 11  2  0
 12 10  1  0
 13 12  1  0
 13 14  1  1
 15 14  1  0
 15 16  2  0
 16 17  1  0
 18 17  2  0
 19 18  1  0
 20 19  2  0
 20 15  1  0
 21 13  1  0
 22 21  2  0
 23 21  1  0
 24 25  1  0
 24 23  1  0
 25 27  1  0
 26 25  2  0
M  END
$$$$
