RFG.pdb
     RDKit          3D

 27 27  0  0  1  0  0  0  0  0999 V2000
   28.4589  -17.0822  -18.3887 N   0  0  0  0  0  0  0  0  0  0  0  0
   27.5986  -16.3233  -17.5623 C   0  0  0  0  0  0  0  0  0  0  0  0
   26.9464  -15.3214  -18.0084 N   0  0  0  0  0  0  0  0  0  0  0  0
   27.4648  -16.6997  -16.1838 N   0  0  0  0  0  0  0  0  0  0  0  0
   28.2649  -17.7223  -15.5960 C   0  0  0  0  0  0  0  0  0  0  0  0
   27.8356  -19.1175  -15.9848 C   0  0  0  0  0  0  0  0  0  0  0  0
   26.7701  -19.5424  -14.9846 C   0  0  0  0  0  0  0  0  0  0  0  0
   27.4207  -20.2537  -13.8435 C   0  0  2  0  0  0  0  0  0  0  0  0
   28.4259  -21.1717  -14.2905 N   0  0  0  0  0  0  0  0  0  0  0  0
   26.3708  -20.9275  -13.0104 C   0  0  0  0  0  0  0  0  0  0  0  0
   25.8813  -22.0072  -13.4266 O   0  0  0  0  0  0  0  0  0  0  0  0
   26.4012  -14.6606  -17.4449 N   0  0  0  0  0  0  0  0  0  0  0  0
   25.9039  -20.4064  -11.7793 C   0  0  2  0  0  0  0  0  0  0  0  0
   24.8864  -21.1472  -11.0593 C   0  0  0  0  0  0  0  0  0  0  0  0
   25.0294  -21.0278   -9.5760 C   0  0  0  0  0  0  0  0  0  0  0  0
   26.3839  -20.7629   -9.0972 C   0  0  0  0  0  0  0  0  0  0  0  0
   27.4106  -21.5884   -9.4779 C   0  0  0  0  0  0  0  0  0  0  0  0
   28.7143  -21.4005   -9.0637 C   0  0  0  0  0  0  0  0  0  0  0  0
   28.9962  -20.3542   -8.2439 C   0  0  0  0  0  0  0  0  0  0  0  0
   27.9868  -19.5027   -7.8406 C   0  0  0  0  0  0  0  0  0  0  0  0
   26.6647  -19.7074   -8.2711 C   0  0  0  0  0  0  0  0  0  0  0  0
   23.5545  -20.5369  -11.3978 O   0  0  0  0  0  0  0  0  0  0  0  0
   23.3675  -19.3274  -11.1310 N   0  0  0  0  0  0  0  0  0  0  0  0
   22.5116  -21.2831  -12.0071 C   0  0  0  0  0  0  0  0  0  0  0  0
   21.2988  -20.5889  -12.3726 C   0  0  0  0  0  0  0  0  0  0  0  0
   20.1314  -21.3713  -11.9301 O   0  0  0  0  0  0  0  0  0  0  0  0
   20.2800  -22.4981  -11.4187 O   0  0  0  0  0  0  0  0  0  0  0  0
  2  1  1  0
  3  2  2  0
  4  2  1  0
  5  4  1  0
  6  5  1  0
  7  6  1  0
  8  7  1  0
  8  9  1  6
 10  8  1  0
 10 11  2  0
 12 10  1  0
 13 12  1  0
 13 14  1  6
 15 14  1  0
 15 16  2  0
 16 17  1  0
 18 17  2  0
 19 18  1  0
 20 19  2  0
 20 15  1  0
 21 13  1  0
 22 21  2  0
 23 21  1  0
 24 25  1  0
 24 23  1  0
 25 27  1  0
 26 25  2  0
M  END
$$$$
