RFG.pdb
     RDKit          3D

 27 27  0  0  1  0  0  0  0  0999 V2000
   25.1192  -23.5737  -15.8025 N   0  0  0  0  0  0  0  0  0  0  0  0
   26.4349  -24.0721  -15.9434 C   0  0  0  0  0  0  0  0  0  0  0  0
   26.7046  -25.3114  -15.8045 N   0  0  0  0  0  0  0  0  0  0  0  0
   27.4886  -23.1471  -16.2498 N   0  0  0  0  0  0  0  0  0  0  0  0
   27.2269  -21.8003  -16.6357 C   0  0  0  0  0  0  0  0  0  0  0  0
   27.3086  -21.5772  -18.1275 C   0  0  0  0  0  0  0  0  0  0  0  0
   25.8854  -21.3447  -18.6140 C   0  0  0  0  0  0  0  0  0  0  0  0
   25.7094  -19.9001  -18.9509 C   0  0  2  0  0  0  0  0  0  0  0  0
   26.9603  -19.2627  -19.2366 N   0  0  0  0  0  0  0  0  0  0  0  0
   24.9666  -19.2151  -17.8421 C   0  0  0  0  0  0  0  0  0  0  0  0
   25.6165  -18.4905  -17.0475 O   0  0  0  0  0  0  0  0  0  0  0  0
   27.6437  -25.7185  -15.7429 N   0  0  0  0  0  0  0  0  0  0  0  0
   23.5702  -19.3455  -17.6464 C   0  0  1  0  0  0  0  0  0  0  0  0
   22.9381  -18.5293  -16.6281 C   0  0  0  0  0  0  0  0  0  0  0  0
   21.9250  -17.5866  -17.1935 C   0  0  0  0  0  0  0  0  0  0  0  0
   22.4541  -16.5671  -18.0963 C   0  0  0  0  0  0  0  0  0  0  0  0
   22.2171  -16.6661  -19.4434 C   0  0  0  0  0  0  0  0  0  0  0  0
   22.6866  -15.7419  -20.3554 C   0  0  0  0  0  0  0  0  0  0  0  0
   23.4149  -14.6877  -19.9029 C   0  0  0  0  0  0  0  0  0  0  0  0
   23.6729  -14.5565  -18.5528 C   0  0  0  0  0  0  0  0  0  0  0  0
   23.1878  -15.5058  -17.6371 C   0  0  0  0  0  0  0  0  0  0  0  0
   22.1812  -19.4507  -15.7121 O   0  0  0  0  0  0  0  0  0  0  0  0
   21.6687  -20.4855  -16.1973 N   0  0  0  0  0  0  0  0  0  0  0  0
   22.0323  -19.1865  -14.3250 C   0  0  0  0  0  0  0  0  0  0  0  0
   21.2465  -20.1059  -13.5353 C   0  0  0  0  0  0  0  0  0  0  0  0
   19.8135  -19.8490  -13.7618 O   0  0  0  0  0  0  0  0  0  0  0  0
   18.9477  -20.4816  -13.1266 O   0  0  0  0  0  0  0  0  0  0  0  0
  2  1  1  0
  3  2  2  0
  4  2  1  0
  5  4  1  0
  6  5  1  0
  7  6  1  0
  8  7  1  0
  8  9  1  1
 10  8  1  0
 10 11  2  0
 12 10  1  0
 13 12  1  0
 13 14  1  1
 15 14  1  0
 15 16  2  0
 16 17  1  0
 18 17  2  0
 19 18  1  0
 20 19  2  0
 20 15  1  0
 21 13  1  0
 22 21  2  0
 23 21  1  0
 24 25  1  0
 24 23  1  0
 25 27  1  0
 26 25  2  0
M  END
$$$$
