RFG.pdb
     RDKit          3D

 27 27  0  0  1  0  0  0  0  0999 V2000
   30.4205  -25.0501  -15.9973 N   0  0  0  0  0  0  0  0  0  0  0  0
   29.1089  -25.0374  -16.5254 C   0  0  0  0  0  0  0  0  0  0  0  0
   28.3453  -26.0574  -16.4581 N   0  0  0  0  0  0  0  0  0  0  0  0
   28.6352  -23.8373  -17.1540 N   0  0  0  0  0  0  0  0  0  0  0  0
   29.0027  -22.5414  -16.6881 C   0  0  0  0  0  0  0  0  0  0  0  0
   28.8299  -22.3687  -15.1974 C   0  0  0  0  0  0  0  0  0  0  0  0
   28.1781  -21.0096  -14.9867 C   0  0  0  0  0  0  0  0  0  0  0  0
   27.4368  -20.6213  -16.2241 C   0  0  2  0  0  0  0  0  0  0  0  0
   28.2483  -19.8394  -17.1089 N   0  0  0  0  0  0  0  0  0  0  0  0
   26.1695  -19.9131  -15.8461 C   0  0  0  0  0  0  0  0  0  0  0  0
   26.2502  -18.7366  -15.4125 O   0  0  0  0  0  0  0  0  0  0  0  0
   27.4159  -26.1410  -16.8830 N   0  0  0  0  0  0  0  0  0  0  0  0
   24.8876  -20.5054  -15.9529 C   0  0  2  0  0  0  0  0  0  0  0  0
   23.7256  -19.6912  -15.6539 C   0  0  0  0  0  0  0  0  0  0  0  0
   22.7247  -19.6875  -16.7643 C   0  0  0  0  0  0  0  0  0  0  0  0
   21.5136  -18.9102  -16.5126 C   0  0  0  0  0  0  0  0  0  0  0  0
   21.6059  -17.5556  -16.3195 C   0  0  0  0  0  0  0  0  0  0  0  0
   20.5055  -16.7582  -16.0755 C   0  0  0  0  0  0  0  0  0  0  0  0
   19.2768  -17.3364  -16.0237 C   0  0  0  0  0  0  0  0  0  0  0  0
   19.1469  -18.6979  -16.2135 C   0  0  0  0  0  0  0  0  0  0  0  0
   20.2768  -19.4959  -16.4611 C   0  0  0  0  0  0  0  0  0  0  0  0
   23.0306  -20.3076  -14.4715 O   0  0  0  0  0  0  0  0  0  0  0  0
   22.9142  -21.5541  -14.4313 N   0  0  0  0  0  0  0  0  0  0  0  0
   22.5082  -19.5264  -13.4072 C   0  0  0  0  0  0  0  0  0  0  0  0
   21.8876  -20.2121  -12.2977 C   0  0  0  0  0  0  0  0  0  0  0  0
   20.4720  -20.4745  -12.6108 O   0  0  0  0  0  0  0  0  0  0  0  0
   20.0081  -20.1931  -13.7328 O   0  0  0  0  0  0  0  0  0  0  0  0
  2  1  1  0
  3  2  2  0
  4  2  1  0
  5  4  1  0
  6  5  1  0
  7  6  1  0
  8  7  1  0
  8  9  1  6
 10  8  1  0
 10 11  2  0
 12 10  1  0
 13 12  1  0
 13 14  1  6
 15 14  1  0
 15 16  2  0
 16 17  1  0
 18 17  2  0
 19 18  1  0
 20 19  2  0
 20 15  1  0
 21 13  1  0
 22 21  2  0
 23 21  1  0
 24 25  1  0
 24 23  1  0
 25 27  1  0
 26 25  2  0
M  END
$$$$
