RFG.pdb
     RDKit          3D

 27 27  0  0  1  0  0  0  0  0999 V2000
   28.6341  -21.5389  -18.5371 N   0  0  0  0  0  0  0  0  0  0  0  0
   28.1807  -20.2244  -18.2811 C   0  0  0  0  0  0  0  0  0  0  0  0
   27.4610  -19.5847  -19.1183 N   0  0  0  0  0  0  0  0  0  0  0  0
   28.5487  -19.6021  -17.0413 N   0  0  0  0  0  0  0  0  0  0  0  0
   29.2598  -20.3018  -16.0234 C   0  0  0  0  0  0  0  0  0  0  0  0
   28.5066  -21.4908  -15.4747 C   0  0  0  0  0  0  0  0  0  0  0  0
   28.3002  -21.2308  -13.9894 C   0  0  0  0  0  0  0  0  0  0  0  0
   27.0918  -20.3728  -13.8024 C   0  0  2  0  0  0  0  0  0  0  0  0
   27.4400  -18.9979  -13.5996 N   0  0  0  0  0  0  0  0  0  0  0  0
   26.2615  -20.9170  -12.6777 C   0  0  0  0  0  0  0  0  0  0  0  0
   25.9999  -22.1459  -12.6700 O   0  0  0  0  0  0  0  0  0  0  0  0
   27.0309  -18.6671  -18.9627 N   0  0  0  0  0  0  0  0  0  0  0  0
   25.7576  -20.1142  -11.6257 C   0  0  2  0  0  0  0  0  0  0  0  0
   24.9358  -20.7448  -10.6109 C   0  0  0  0  0  0  0  0  0  0  0  0
   25.0797  -20.0982   -9.2707 C   0  0  0  0  0  0  0  0  0  0  0  0
   26.4285  -20.1142   -8.7097 C   0  0  0  0  0  0  0  0  0  0  0  0
   27.1710  -21.2659   -8.7635 C   0  0  0  0  0  0  0  0  0  0  0  0
   28.4507  -21.3552   -8.2530 C   0  0  0  0  0  0  0  0  0  0  0  0
   29.0016  -20.2574   -7.6717 C   0  0  0  0  0  0  0  0  0  0  0  0
   28.2825  -19.0809   -7.6001 C   0  0  0  0  0  0  0  0  0  0  0  0
   26.9808  -19.0060   -8.1247 C   0  0  0  0  0  0  0  0  0  0  0  0
   23.4980  -20.5577  -11.0093 O   0  0  0  0  0  0  0  0  0  0  0  0
   23.0969  -19.3999  -11.2689 N   0  0  0  0  0  0  0  0  0  0  0  0
   22.5892  -21.6447  -11.1010 C   0  0  0  0  0  0  0  0  0  0  0  0
   21.2058  -21.3548  -11.3988 C   0  0  0  0  0  0  0  0  0  0  0  0
   20.8759  -21.8580  -12.7436 O   0  0  0  0  0  0  0  0  0  0  0  0
   21.7743  -22.2594  -13.5086 O   0  0  0  0  0  0  0  0  0  0  0  0
  2  1  1  0
  3  2  2  0
  4  2  1  0
  5  4  1  0
  6  5  1  0
  7  6  1  0
  8  7  1  0
  8  9  1  1
 10  8  1  0
 10 11  2  0
 12 10  1  0
 13 12  1  0
 13 14  1  6
 15 14  1  0
 15 16  2  0
 16 17  1  0
 18 17  2  0
 19 18  1  0
 20 19  2  0
 20 15  1  0
 21 13  1  0
 22 21  2  0
 23 21  1  0
 24 25  1  0
 24 23  1  0
 25 27  1  0
 26 25  2  0
M  END
$$$$
