RFG.pdb
     RDKit          3D

 27 27  0  0  1  0  0  0  0  0999 V2000
   20.4652  -22.5789   -9.4064 N   0  0  0  0  0  0  0  0  0  0  0  0
   20.6892  -22.2079   -8.0606 C   0  0  0  0  0  0  0  0  0  0  0  0
   20.0104  -22.7064   -7.1021 N   0  0  0  0  0  0  0  0  0  0  0  0
   21.7112  -21.2408   -7.7776 N   0  0  0  0  0  0  0  0  0  0  0  0
   23.0765  -21.4566   -8.1252 C   0  0  0  0  0  0  0  0  0  0  0  0
   23.4689  -20.8204   -9.4379 C   0  0  0  0  0  0  0  0  0  0  0  0
   23.5698  -21.9461  -10.4572 C   0  0  0  0  0  0  0  0  0  0  0  0
   24.8820  -21.8540  -11.1651 C   0  0  2  0  0  0  0  0  0  0  0  0
   25.9859  -21.9379  -10.2556 N   0  0  0  0  0  0  0  0  0  0  0  0
   24.9203  -20.5987  -11.9856 C   0  0  0  0  0  0  0  0  0  0  0  0
   25.0168  -19.4980  -11.3875 O   0  0  0  0  0  0  0  0  0  0  0  0
   20.0898  -22.4495   -6.1127 N   0  0  0  0  0  0  0  0  0  0  0  0
   24.8521  -20.5933  -13.4000 C   0  0  1  0  0  0  0  0  0  0  0  0
   25.1236  -19.3516  -14.0980 C   0  0  0  0  0  0  0  0  0  0  0  0
   26.4185  -19.3826  -14.8444 C   0  0  0  0  0  0  0  0  0  0  0  0
   27.5981  -19.6882  -14.0386 C   0  0  0  0  0  0  0  0  0  0  0  0
   28.0579  -20.9785  -13.9727 C   0  0  0  0  0  0  0  0  0  0  0  0
   29.1645  -21.3413  -13.2310 C   0  0  0  0  0  0  0  0  0  0  0  0
   29.8292  -20.3819  -12.5352 C   0  0  0  0  0  0  0  0  0  0  0  0
   29.3940  -19.0722  -12.5787 C   0  0  0  0  0  0  0  0  0  0  0  0
   28.2659  -18.7189  -13.3386 C   0  0  0  0  0  0  0  0  0  0  0  0
   24.0510  -19.1696  -15.1360 O   0  0  0  0  0  0  0  0  0  0  0  0
   23.5885  -20.1876  -15.7006 N   0  0  0  0  0  0  0  0  0  0  0  0
   23.5495  -17.8898  -15.4915 C   0  0  0  0  0  0  0  0  0  0  0  0
   22.5699  -17.8102  -16.5501 C   0  0  0  0  0  0  0  0  0  0  0  0
   21.2304  -17.6173  -15.9676 O   0  0  0  0  0  0  0  0  0  0  0  0
   20.9446  -18.1080  -14.8582 O   0  0  0  0  0  0  0  0  0  0  0  0
  2  1  1  0
  3  2  2  0
  4  2  1  0
  5  4  1  0
  6  5  1  0
  7  6  1  0
  8  7  1  0
  8  9  1  1
 10  8  1  0
 10 11  2  0
 12 10  1  0
 13 12  1  0
 13 14  1  6
 15 14  1  0
 15 16  2  0
 16 17  1  0
 18 17  2  0
 19 18  1  0
 20 19  2  0
 20 15  1  0
 21 13  1  0
 22 21  2  0
 23 21  1  0
 24 25  1  0
 24 23  1  0
 25 27  1  0
 26 25  2  0
M  END
$$$$
