RFG.pdb
     RDKit          3D

 27 27  0  0  1  0  0  0  0  0999 V2000
   26.2457  -18.4132  -20.1992 N   0  0  0  0  0  0  0  0  0  0  0  0
   27.2602  -17.6375  -19.5925 C   0  0  0  0  0  0  0  0  0  0  0  0
   27.5208  -16.4491  -19.9771 N   0  0  0  0  0  0  0  0  0  0  0  0
   28.0125  -18.2152  -18.5154 N   0  0  0  0  0  0  0  0  0  0  0  0
   27.6227  -19.4332  -17.8862 C   0  0  0  0  0  0  0  0  0  0  0  0
   26.3441  -19.3148  -17.0905 C   0  0  0  0  0  0  0  0  0  0  0  0
   26.0366  -20.7027  -16.5469 C   0  0  0  0  0  0  0  0  0  0  0  0
   27.0208  -21.0418  -15.4757 C   0  0  2  0  0  0  0  0  0  0  0  0
   27.8812  -22.1197  -15.8636 N   0  0  0  0  0  0  0  0  0  0  0  0
   26.2893  -21.3343  -14.1991 C   0  0  0  0  0  0  0  0  0  0  0  0
   25.8016  -22.4814  -14.0405 O   0  0  0  0  0  0  0  0  0  0  0  0
   28.2380  -15.8331  -19.5802 N   0  0  0  0  0  0  0  0  0  0  0  0
   26.1206  -20.3817  -13.1650 C   0  0  2  0  0  0  0  0  0  0  0  0
   25.3807  -20.7737  -11.9812 C   0  0  0  0  0  0  0  0  0  0  0  0
   25.9093  -20.1380  -10.7357 C   0  0  0  0  0  0  0  0  0  0  0  0
   27.2564  -20.5486  -10.3468 C   0  0  0  0  0  0  0  0  0  0  0  0
   28.2127  -20.7355  -11.3117 C   0  0  0  0  0  0  0  0  0  0  0  0
   29.5048  -21.1242  -11.0187 C   0  0  0  0  0  0  0  0  0  0  0  0
   29.8474  -21.3314   -9.7202 C   0  0  0  0  0  0  0  0  0  0  0  0
   28.9097  -21.1525   -8.7226 C   0  0  0  0  0  0  0  0  0  0  0  0
   27.5985  -20.7564   -9.0371 C   0  0  0  0  0  0  0  0  0  0  0  0
   23.9724  -20.2705  -12.1379 O   0  0  0  0  0  0  0  0  0  0  0  0
   23.7999  -19.0804  -12.4884 N   0  0  0  0  0  0  0  0  0  0  0  0
   22.8417  -21.0967  -11.9042 C   0  0  0  0  0  0  0  0  0  0  0  0
   21.5286  -20.5312  -12.1098 C   0  0  0  0  0  0  0  0  0  0  0  0
   20.5047  -21.5612  -11.8617 O   0  0  0  0  0  0  0  0  0  0  0  0
   19.3205  -21.2390  -11.6451 O   0  0  0  0  0  0  0  0  0  0  0  0
  2  1  1  0
  3  2  2  0
  4  2  1  0
  5  4  1  0
  6  5  1  0
  7  6  1  0
  8  7  1  0
  8  9  1  6
 10  8  1  0
 10 11  2  0
 12 10  1  0
 13 12  1  0
 13 14  1  6
 15 14  1  0
 15 16  2  0
 16 17  1  0
 18 17  2  0
 19 18  1  0
 20 19  2  0
 20 15  1  0
 21 13  1  0
 22 21  2  0
 23 21  1  0
 24 25  1  0
 24 23  1  0
 25 27  1  0
 26 25  2  0
M  END
$$$$
