SKT.pdb
     RDKit          3D

 23 22  0  0  1  0  0  0  0  0999 V2000
   14.3569  -12.1225  -17.3467 O   0  0  0  0  0  0  0  0  0  0  0  0
   15.3789  -11.6843  -16.5089 C   0  0  0  0  0  0  0  0  0  0  0  0
   16.3940  -12.7999  -16.3133 C   0  0  2  0  0  0  0  0  0  0  0  0
   15.8187  -13.7328  -15.3624 N   0  0  0  0  0  0  0  0  0  0  0  0
   17.6488  -12.1998  -15.7650 C   0  0  0  0  0  0  0  0  0  0  0  0
   17.6359  -11.8461  -14.5565 O   0  0  0  0  0  0  0  0  0  0  0  0
   18.8164  -12.0251  -16.5498 N   0  0  0  0  0  0  0  0  0  0  0  0
   20.0604  -11.5805  -16.0195 C   0  0  1  0  0  0  0  0  0  0  0  0
   21.2546  -12.3684  -16.5197 C   0  0  0  0  0  0  0  0  0  0  0  0
   22.5399  -11.9776  -15.9242 C   0  0  0  0  0  0  0  0  0  0  0  0
   23.6855  -12.7503  -16.4935 C   0  0  0  0  0  0  0  0  0  0  0  0
   25.0226  -12.5235  -15.8934 C   0  0  0  0  0  0  0  0  0  0  0  0
   26.1277  -13.1829  -16.5305 N   0  0  0  0  0  0  0  0  0  0  0  0
   20.2777  -10.1090  -16.2322 C   0  0  0  0  0  0  0  0  0  0  0  0
   20.6515   -9.6971  -17.3604 O   0  0  0  0  0  0  0  0  0  0  0  0
   17.8305   -7.3218  -16.0698 C   0  0  0  0  0  0  0  0  0  0  0  0
   18.9340   -6.9946  -15.0832 C   0  0  1  0  0  0  0  0  0  0  0  0
   18.5013   -7.3580  -13.8148 O   0  0  0  0  0  0  0  0  0  0  0  0
   20.2209   -7.7257  -15.4233 C   0  0  2  0  0  0  0  0  0  0  0  0
   20.0724   -9.1612  -15.1902 N   0  0  0  0  0  0  0  0  0  0  0  0
   21.2814   -7.1840  -14.5358 C   0  0  0  0  0  0  0  0  0  0  0  0
   21.9028   -7.8993  -13.7032 O   0  0  0  0  0  0  0  0  0  0  0  0
   21.6201   -5.8517  -14.6032 O   0  0  0  0  0  0  0  0  0  0  0  0
  2  1  1  0
  2  3  1  0
  3  5  1  0
  3  4  1  1
  5  6  2  0
  7  8  1  0
  7  5  1  0
  8  9  1  6
 10  9  1  0
 11 10  1  0
 11 12  1  0
 13 12  1  0
 14 15  2  0
 14  8  1  0
 17 16  1  6
 17 19  1  0
 18 17  1  0
 19 21  1  0
 19 20  1  1
 20 14  1  0
 21 23  1  0
 22 21  2  0
M  END
$$$$
