SKT.pdb
     RDKit          3D

 23 22  0  0  1  0  0  0  0  0999 V2000
   17.3310  -14.9560  -13.8709 O   0  0  0  0  0  0  0  0  0  0  0  0
   16.7426  -13.7312  -14.1745 C   0  0  0  0  0  0  0  0  0  0  0  0
   15.4376  -13.5862  -13.4070 C   0  0  2  0  0  0  0  0  0  0  0  0
   14.4450  -14.3797  -14.1073 N   0  0  0  0  0  0  0  0  0  0  0  0
   15.0512  -12.1419  -13.4098 C   0  0  0  0  0  0  0  0  0  0  0  0
   14.5529  -11.6828  -14.4713 O   0  0  0  0  0  0  0  0  0  0  0  0
   15.2273  -11.3035  -12.2804 N   0  0  0  0  0  0  0  0  0  0  0  0
   14.8962   -9.9190  -12.2702 C   0  0  1  0  0  0  0  0  0  0  0  0
   14.2634   -9.4514  -10.9749 C   0  0  0  0  0  0  0  0  0  0  0  0
   12.8357   -9.7719  -10.8394 C   0  0  0  0  0  0  0  0  0  0  0  0
   12.3190   -9.4842   -9.4670 C   0  0  0  0  0  0  0  0  0  0  0  0
   10.8875   -9.7711   -9.2064 C   0  0  0  0  0  0  0  0  0  0  0  0
   10.3974   -9.4351   -7.8991 N   0  0  0  0  0  0  0  0  0  0  0  0
   16.0697   -9.0495  -12.6233 C   0  0  0  0  0  0  0  0  0  0  0  0
   17.0331   -8.9569  -11.8199 O   0  0  0  0  0  0  0  0  0  0  0  0
   18.2807   -9.1534  -15.8728 C   0  0  0  0  0  0  0  0  0  0  0  0
   17.6661   -7.7821  -15.6722 C   0  0  1  0  0  0  0  0  0  0  0  0
   16.5303   -7.6972  -16.4663 O   0  0  0  0  0  0  0  0  0  0  0  0
   17.3032   -7.5411  -14.2174 C   0  0  2  0  0  0  0  0  0  0  0  0
   16.1251   -8.3230  -13.8463 N   0  0  0  0  0  0  0  0  0  0  0  0
   17.0057   -6.0932  -14.0731 C   0  0  0  0  0  0  0  0  0  0  0  0
   15.8461   -5.6572  -13.8357 O   0  0  0  0  0  0  0  0  0  0  0  0
   18.0166   -5.1677  -14.1987 O   0  0  0  0  0  0  0  0  0  0  0  0
  2  1  1  0
  2  3  1  0
  3  5  1  0
  3  4  1  6
  5  6  2  0
  7  8  1  0
  7  5  1  0
  8  9  1  1
 10  9  1  0
 11 10  1  0
 11 12  1  0
 13 12  1  0
 14 15  2  0
 14  8  1  0
 17 16  1  1
 17 19  1  0
 18 17  1  0
 19 21  1  0
 19 20  1  6
 20 14  1  0
 21 23  1  0
 22 21  2  0
M  END
$$$$
