SKT.pdb
     RDKit          3D

 23 22  0  0  1  0  0  0  0  0999 V2000
   26.8193  -11.4898  -15.2732 O   0  0  0  0  0  0  0  0  0  0  0  0
   26.0406  -10.3850  -15.6070 C   0  0  0  0  0  0  0  0  0  0  0  0
   25.0446  -10.7695  -16.6903 C   0  0  2  0  0  0  0  0  0  0  0  0
   25.7984  -10.9299  -17.9197 N   0  0  0  0  0  0  0  0  0  0  0  0
   24.0501   -9.6615  -16.8260 C   0  0  0  0  0  0  0  0  0  0  0  0
   24.3749   -8.6836  -17.5499 O   0  0  0  0  0  0  0  0  0  0  0  0
   22.7892   -9.6854  -16.1786 N   0  0  0  0  0  0  0  0  0  0  0  0
   21.7712   -8.7163  -16.4048 C   0  0  1  0  0  0  0  0  0  0  0  0
   20.3857   -9.3104  -16.5610 C   0  0  0  0  0  0  0  0  0  0  0  0
   19.3376   -8.3395  -16.9049 C   0  0  0  0  0  0  0  0  0  0  0  0
   17.9916   -8.9781  -17.0233 C   0  0  0  0  0  0  0  0  0  0  0  0
   16.8921   -8.1480  -17.5724 C   0  0  0  0  0  0  0  0  0  0  0  0
   15.5924   -8.7571  -17.6131 N   0  0  0  0  0  0  0  0  0  0  0  0
   21.7644   -7.6409  -15.3554 C   0  0  0  0  0  0  0  0  0  0  0  0
   21.7819   -7.9644  -14.1400 O   0  0  0  0  0  0  0  0  0  0  0  0
   23.0074   -3.6824  -16.2324 C   0  0  0  0  0  0  0  0  0  0  0  0
   23.0025   -4.3330  -14.8631 C   0  0  1  0  0  0  0  0  0  0  0  0
   23.0155   -3.3267  -13.9065 O   0  0  0  0  0  0  0  0  0  0  0  0
   21.7838   -5.2183  -14.6707 C   0  0  2  0  0  0  0  0  0  0  0  0
   21.7387   -6.2590  -15.6964 N   0  0  0  0  0  0  0  0  0  0  0  0
   20.5859   -4.3486  -14.7905 C   0  0  0  0  0  0  0  0  0  0  0  0
   19.7576   -4.4579  -15.7355 O   0  0  0  0  0  0  0  0  0  0  0  0
   20.3451   -3.3761  -13.8468 O   0  0  0  0  0  0  0  0  0  0  0  0
  2  1  1  0
  2  3  1  0
  3  5  1  0
  3  4  1  6
  5  6  2  0
  7  8  1  0
  7  5  1  0
  8  9  1  1
 10  9  1  0
 11 10  1  0
 11 12  1  0
 13 12  1  0
 14 15  2  0
 14  8  1  0
 17 16  1  6
 17 19  1  0
 18 17  1  0
 19 21  1  0
 19 20  1  6
 20 14  1  0
 21 23  1  0
 22 21  2  0
M  END
$$$$
