SKT.pdb
     RDKit          3D

 23 22  0  0  1  0  0  0  0  0999 V2000
   21.3020  -14.2099  -18.4595 O   0  0  0  0  0  0  0  0  0  0  0  0
   20.8905  -12.8800  -18.4813 C   0  0  0  0  0  0  0  0  0  0  0  0
   21.6396  -12.0950  -17.4157 C   0  0  2  0  0  0  0  0  0  0  0  0
   21.4813  -12.8187  -16.1680 N   0  0  0  0  0  0  0  0  0  0  0  0
   21.0233  -10.7365  -17.3154 C   0  0  0  0  0  0  0  0  0  0  0  0
   21.0811  -10.0029  -18.3373 O   0  0  0  0  0  0  0  0  0  0  0  0
   20.3950  -10.2699  -16.1335 N   0  0  0  0  0  0  0  0  0  0  0  0
   19.8276   -8.9705  -16.0056 C   0  0  1  0  0  0  0  0  0  0  0  0
   18.3899   -8.9760  -15.5260 C   0  0  0  0  0  0  0  0  0  0  0  0
   17.7616   -7.6494  -15.4570 C   0  0  0  0  0  0  0  0  0  0  0  0
   16.3275   -7.7234  -15.0431 C   0  0  0  0  0  0  0  0  0  0  0  0
   15.6137   -6.4402  -14.8351 C   0  0  0  0  0  0  0  0  0  0  0  0
   14.2667   -6.5317  -14.3460 N   0  0  0  0  0  0  0  0  0  0  0  0
   20.6631   -8.0655  -15.1451 C   0  0  0  0  0  0  0  0  0  0  0  0
   20.9823   -8.4371  -13.9865 O   0  0  0  0  0  0  0  0  0  0  0  0
   24.1695   -6.6780  -15.8225 C   0  0  0  0  0  0  0  0  0  0  0  0
   23.2052   -5.5280  -15.6080 C   0  0  1  0  0  0  0  0  0  0  0  0
   22.8021   -5.0640  -16.8531 O   0  0  0  0  0  0  0  0  0  0  0  0
   21.9958   -5.9583  -14.7965 C   0  0  2  0  0  0  0  0  0  0  0  0
   21.1073   -6.7930  -15.6032 N   0  0  0  0  0  0  0  0  0  0  0  0
   21.2812   -4.7232  -14.3848 C   0  0  0  0  0  0  0  0  0  0  0  0
   20.1516   -4.4046  -14.8469 O   0  0  0  0  0  0  0  0  0  0  0  0
   21.8509   -3.8740  -13.4636 O   0  0  0  0  0  0  0  0  0  0  0  0
  2  1  1  0
  2  3  1  0
  3  5  1  0
  3  4  1  1
  5  6  2  0
  7  8  1  0
  7  5  1  0
  8  9  1  1
 10  9  1  0
 11 10  1  0
 11 12  1  0
 13 12  1  0
 14 15  2  0
 14  8  1  0
 17 16  1  6
 17 19  1  0
 18 17  1  0
 19 21  1  0
 19 20  1  6
 20 14  1  0
 21 23  1  0
 22 21  2  0
M  END
$$$$
