SKT.pdb
     RDKit          3D

 23 22  0  0  1  0  0  0  0  0999 V2000
   37.4465  -30.2251    6.8999 O   0  0  0  0  0  0  0  0  0  0  0  0
   36.2124  -29.9072    6.3392 C   0  0  0  0  0  0  0  0  0  0  0  0
   36.4076  -29.4347    4.9068 C   0  0  2  0  0  0  0  0  0  0  0  0
   35.6749  -28.1899    4.7689 N   0  0  0  0  0  0  0  0  0  0  0  0
   35.8492  -30.4758    3.9905 C   0  0  0  0  0  0  0  0  0  0  0  0
   34.6029  -30.6545    4.0160 O   0  0  0  0  0  0  0  0  0  0  0  0
   36.6648  -31.2426    3.1209 N   0  0  0  0  0  0  0  0  0  0  0  0
   36.1555  -32.2379    2.2397 C   0  0  1  0  0  0  0  0  0  0  0  0
   36.9112  -32.3393    0.9300 C   0  0  0  0  0  0  0  0  0  0  0  0
   36.4357  -33.3976    0.0281 C   0  0  0  0  0  0  0  0  0  0  0  0
   35.4728  -32.8815   -0.9917 C   0  0  0  0  0  0  0  0  0  0  0  0
   34.9081  -33.8624   -1.9500 C   0  0  0  0  0  0  0  0  0  0  0  0
   34.0255  -33.3377   -2.9538 N   0  0  0  0  0  0  0  0  0  0  0  0
   36.0618  -33.5864    2.8958 C   0  0  0  0  0  0  0  0  0  0  0  0
   37.0855  -34.0854    3.4300 O   0  0  0  0  0  0  0  0  0  0  0  0
   33.4079  -35.0492    5.5198 C   0  0  0  0  0  0  0  0  0  0  0  0
   33.4622  -35.8632    4.2421 C   0  0  1  0  0  0  0  0  0  0  0  0
   32.4025  -35.4717    3.4348 O   0  0  0  0  0  0  0  0  0  0  0  0
   34.7768  -35.6628    3.5086 C   0  0  2  0  0  0  0  0  0  0  0  0
   34.8431  -34.3212    2.9318 N   0  0  0  0  0  0  0  0  0  0  0  0
   34.8329  -36.6749    2.4232 C   0  0  0  0  0  0  0  0  0  0  0  0
   34.8489  -36.3621    1.2014 O   0  0  0  0  0  0  0  0  0  0  0  0
   34.8697  -38.0152    2.7342 O   0  0  0  0  0  0  0  0  0  0  0  0
  2  1  1  0
  2  3  1  0
  3  5  1  0
  3  4  1  1
  5  6  2  0
  7  8  1  0
  7  5  1  0
  8  9  1  6
 10  9  1  0
 11 10  1  0
 11 12  1  0
 13 12  1  0
 14 15  2  0
 14  8  1  0
 17 16  1  1
 17 19  1  0
 18 17  1  0
 19 21  1  0
 19 20  1  6
 20 14  1  0
 21 23  1  0
 22 21  2  0
M  END
$$$$
