SKT.pdb
     RDKit          3D

 23 22  0  0  1  0  0  0  0  0999 V2000
   27.5505  -22.7321  -15.4651 O   0  0  0  0  0  0  0  0  0  0  0  0
   26.5763  -21.9178  -14.8938 C   0  0  0  0  0  0  0  0  0  0  0  0
   26.2261  -20.7897  -15.8519 C   0  0  2  0  0  0  0  0  0  0  0  0
   27.4113  -19.9630  -15.9828 N   0  0  0  0  0  0  0  0  0  0  0  0
   25.1017  -20.0036  -15.2579 C   0  0  0  0  0  0  0  0  0  0  0  0
   25.2902  -19.5033  -14.1177 O   0  0  0  0  0  0  0  0  0  0  0  0
   23.8667  -19.8142  -15.9276 N   0  0  0  0  0  0  0  0  0  0  0  0
   22.7752  -19.0879  -15.3728 C   0  0  1  0  0  0  0  0  0  0  0  0
   22.2044  -18.0369  -16.3037 C   0  0  0  0  0  0  0  0  0  0  0  0
   21.1185  -17.2320  -15.7272 C   0  0  0  0  0  0  0  0  0  0  0  0
   20.5121  -16.3011  -16.7268 C   0  0  0  0  0  0  0  0  0  0  0  0
   19.3860  -15.4520  -16.2682 C   0  0  0  0  0  0  0  0  0  0  0  0
   18.8474  -14.5326  -17.2307 N   0  0  0  0  0  0  0  0  0  0  0  0
   21.6844  -19.9919  -14.8722 C   0  0  0  0  0  0  0  0  0  0  0  0
   21.2389  -20.8966  -15.6240 O   0  0  0  0  0  0  0  0  0  0  0  0
   20.2413  -19.7445  -10.7714 C   0  0  0  0  0  0  0  0  0  0  0  0
   20.3893  -21.0351  -11.5528 C   0  0  1  0  0  0  0  0  0  0  0  0
   19.4623  -21.9456  -11.0631 O   0  0  0  0  0  0  0  0  0  0  0  0
   20.1680  -20.8156  -13.0391 C   0  0  2  0  0  0  0  0  0  0  0  0
   21.1363  -19.8552  -13.5655 N   0  0  0  0  0  0  0  0  0  0  0  0
   18.7934  -20.2782  -13.2038 C   0  0  0  0  0  0  0  0  0  0  0  0
   18.5653  -19.0802  -13.5260 O   0  0  0  0  0  0  0  0  0  0  0  0
   17.7061  -21.0979  -13.0031 O   0  0  0  0  0  0  0  0  0  0  0  0
  2  1  1  0
  2  3  1  0
  3  5  1  0
  3  4  1  1
  5  6  2  0
  7  8  1  0
  7  5  1  0
  8  9  1  6
 10  9  1  0
 11 10  1  0
 11 12  1  0
 13 12  1  0
 14 15  2  0
 14  8  1  0
 17 16  1  1
 17 19  1  0
 18 17  1  0
 19 21  1  0
 19 20  1  1
 20 14  1  0
 21 23  1  0
 22 21  2  0
M  END
$$$$
