SKT.pdb
     RDKit          3D

 23 22  0  0  1  0  0  0  0  0999 V2000
   13.4632   -8.2667  -16.5528 O   0  0  0  0  0  0  0  0  0  0  0  0
   14.7004   -8.3718  -15.9227 C   0  0  0  0  0  0  0  0  0  0  0  0
   15.7521   -7.6305  -16.7336 C   0  0  2  0  0  0  0  0  0  0  0  0
   15.8667   -8.3181  -18.0062 N   0  0  0  0  0  0  0  0  0  0  0  0
   17.0461   -7.6902  -15.9872 C   0  0  0  0  0  0  0  0  0  0  0  0
   17.0413   -7.2822  -14.7959 O   0  0  0  0  0  0  0  0  0  0  0  0
   18.2412   -8.1804  -16.5714 N   0  0  0  0  0  0  0  0  0  0  0  0
   19.4999   -8.1766  -15.9065 C   0  0  1  0  0  0  0  0  0  0  0  0
   20.4553   -9.2444  -16.4006 C   0  0  0  0  0  0  0  0  0  0  0  0
   21.7592   -9.2614  -15.7231 C   0  0  0  0  0  0  0  0  0  0  0  0
   22.6293  -10.3796  -16.1985 C   0  0  0  0  0  0  0  0  0  0  0  0
   23.9978  -10.4626  -15.6332 C   0  0  0  0  0  0  0  0  0  0  0  0
   24.8317  -11.5188  -16.1341 N   0  0  0  0  0  0  0  0  0  0  0  0
   20.1595   -6.8270  -15.9419 C   0  0  0  0  0  0  0  0  0  0  0  0
   20.6337   -6.4001  -17.0259 O   0  0  0  0  0  0  0  0  0  0  0  0
   20.9369   -2.2948  -14.3988 C   0  0  0  0  0  0  0  0  0  0  0  0
   20.1862   -3.6088  -14.3095 C   0  0  1  0  0  0  0  0  0  0  0  0
   19.0429   -3.5075  -15.0909 O   0  0  0  0  0  0  0  0  0  0  0  0
   21.0395   -4.7720  -14.7841 C   0  0  2  0  0  0  0  0  0  0  0  0
   20.2649   -6.0118  -14.7797 N   0  0  0  0  0  0  0  0  0  0  0  0
   22.1798   -4.8938  -13.8405 C   0  0  0  0  0  0  0  0  0  0  0  0
   23.2277   -4.1996  -13.9463 O   0  0  0  0  0  0  0  0  0  0  0  0
   22.1180   -5.7922  -12.7996 O   0  0  0  0  0  0  0  0  0  0  0  0
  2  1  1  0
  2  3  1  0
  3  5  1  0
  3  4  1  6
  5  6  2  0
  7  8  1  0
  7  5  1  0
  8  9  1  6
 10  9  1  0
 11 10  1  0
 11 12  1  0
 13 12  1  0
 14 15  2  0
 14  8  1  0
 17 16  1  6
 17 19  1  0
 18 17  1  0
 19 21  1  0
 19 20  1  1
 20 14  1  0
 21 23  1  0
 22 21  2  0
M  END
$$$$
