SKT.pdb
     RDKit          3D

 23 22  0  0  1  0  0  0  0  0999 V2000
   13.4393  -10.6266  -16.6298 O   0  0  0  0  0  0  0  0  0  0  0  0
   14.7417  -10.3743  -16.2072 C   0  0  0  0  0  0  0  0  0  0  0  0
   15.6307  -11.5587  -16.5536 C   0  0  2  0  0  0  0  0  0  0  0  0
   15.3358  -12.6041  -15.5914 N   0  0  0  0  0  0  0  0  0  0  0  0
   17.0563  -11.1242  -16.4349 C   0  0  0  0  0  0  0  0  0  0  0  0
   17.5503  -11.0851  -15.2773 O   0  0  0  0  0  0  0  0  0  0  0  0
   17.8403  -10.7662  -17.5605 N   0  0  0  0  0  0  0  0  0  0  0  0
   19.2319  -10.4751  -17.4883 C   0  0  1  0  0  0  0  0  0  0  0  0
   20.0076  -10.8888  -18.7229 C   0  0  0  0  0  0  0  0  0  0  0  0
   21.4458  -10.5917  -18.6713 C   0  0  0  0  0  0  0  0  0  0  0  0
   22.2604  -11.7961  -18.3260 C   0  0  0  0  0  0  0  0  0  0  0  0
   23.7295  -11.6178  -18.2304 C   0  0  0  0  0  0  0  0  0  0  0  0
   24.4874  -12.7706  -17.8322 N   0  0  0  0  0  0  0  0  0  0  0  0
   19.4966   -9.0323  -17.1628 C   0  0  0  0  0  0  0  0  0  0  0  0
   19.0092   -8.1345  -17.8967 O   0  0  0  0  0  0  0  0  0  0  0  0
   19.0162   -7.1598  -13.6690 C   0  0  0  0  0  0  0  0  0  0  0  0
   20.4345   -7.0486  -14.1928 C   0  0  1  0  0  0  0  0  0  0  0  0
   21.2057   -8.0148  -13.5605 O   0  0  0  0  0  0  0  0  0  0  0  0
   20.4898   -7.2417  -15.6981 C   0  0  2  0  0  0  0  0  0  0  0  0
   20.2866   -8.6478  -16.0427 N   0  0  0  0  0  0  0  0  0  0  0  0
   21.8376   -6.8087  -16.1471 C   0  0  0  0  0  0  0  0  0  0  0  0
   22.6546   -7.5933  -16.7021 O   0  0  0  0  0  0  0  0  0  0  0  0
   22.2376   -5.5047  -15.9630 O   0  0  0  0  0  0  0  0  0  0  0  0
  2  1  1  0
  2  3  1  0
  3  5  1  0
  3  4  1  1
  5  6  2  0
  7  8  1  0
  7  5  1  0
  8  9  1  6
 10  9  1  0
 11 10  1  0
 11 12  1  0
 13 12  1  0
 14 15  2  0
 14  8  1  0
 17 16  1  1
 17 19  1  0
 18 17  1  0
 19 21  1  0
 19 20  1  1
 20 14  1  0
 21 23  1  0
 22 21  2  0
M  END
$$$$
