SKT.pdb
     RDKit          3D

 23 22  0  0  1  0  0  0  0  0999 V2000
   16.6898  -23.3560   -6.2866 O   0  0  0  0  0  0  0  0  0  0  0  0
   16.5321  -24.1974   -5.1886 C   0  0  0  0  0  0  0  0  0  0  0  0
   16.9346  -25.6143   -5.5678 C   0  0  2  0  0  0  0  0  0  0  0  0
   15.8870  -26.1359   -6.4256 N   0  0  0  0  0  0  0  0  0  0  0  0
   17.0368  -26.4228   -4.3144 C   0  0  0  0  0  0  0  0  0  0  0  0
   15.9769  -26.6018   -3.6584 O   0  0  0  0  0  0  0  0  0  0  0  0
   18.2612  -26.9754   -3.8615 N   0  0  0  0  0  0  0  0  0  0  0  0
   18.3741  -27.7868   -2.6972 C   0  0  1  0  0  0  0  0  0  0  0  0
   19.5702  -28.7174   -2.7146 C   0  0  0  0  0  0  0  0  0  0  0  0
   19.5924  -29.7075   -1.6290 C   0  0  0  0  0  0  0  0  0  0  0  0
   20.8245  -30.5528   -1.6592 C   0  0  0  0  0  0  0  0  0  0  0  0
   20.8930  -31.6876   -0.7069 C   0  0  0  0  0  0  0  0  0  0  0  0
   22.0462  -32.5371   -0.8090 N   0  0  0  0  0  0  0  0  0  0  0  0
   18.3608  -26.9750   -1.4329 C   0  0  0  0  0  0  0  0  0  0  0  0
   19.1471  -26.0001   -1.3170 O   0  0  0  0  0  0  0  0  0  0  0  0
   16.1525  -24.5822   -0.0713 C   0  0  0  0  0  0  0  0  0  0  0  0
   16.2071  -25.6692    0.9840 C   0  0  1  0  0  0  0  0  0  0  0  0
   15.0987  -26.4888    0.8179 O   0  0  0  0  0  0  0  0  0  0  0  0
   17.4811  -26.4885    0.8753 C   0  0  2  0  0  0  0  0  0  0  0  0
   17.4805  -27.2770   -0.3557 N   0  0  0  0  0  0  0  0  0  0  0  0
   17.5201  -27.3976    2.0490 C   0  0  0  0  0  0  0  0  0  0  0  0
   17.3312  -28.6410    1.9532 O   0  0  0  0  0  0  0  0  0  0  0  0
   17.7703  -26.8900    3.3037 O   0  0  0  0  0  0  0  0  0  0  0  0
  2  1  1  0
  2  3  1  0
  3  5  1  0
  3  4  1  6
  5  6  2  0
  7  8  1  0
  7  5  1  0
  8  9  1  6
 10  9  1  0
 11 10  1  0
 11 12  1  0
 13 12  1  0
 14 15  2  0
 14  8  1  0
 17 16  1  6
 17 19  1  0
 18 17  1  0
 19 21  1  0
 19 20  1  6
 20 14  1  0
 21 23  1  0
 22 21  2  0
M  END
$$$$
