VFN.pdb
     RDKit          3D

 27 27  0  0  1  0  0  0  0  0999 V2000
    8.7915  -12.4996   20.1472 C   0  0  0  0  0  0  0  0  0  0  0  0
    7.5559  -13.3388   20.2863 C   0  0  1  0  0  0  0  0  0  0  0  0
    6.7371  -13.3280   19.0196 C   0  0  0  0  0  0  0  0  0  0  0  0
    7.8929  -14.7205   20.7523 C   0  0  2  0  0  0  0  0  0  0  0  0
    6.6658  -15.4882   20.7917 N   0  0  0  0  0  0  0  0  0  0  0  0
    8.5822  -14.7515   22.0516 C   0  0  0  0  0  0  0  0  0  0  0  0
    9.7493  -14.3234   22.2302 O   0  0  0  0  0  0  0  0  0  0  0  0
    7.8770  -15.3000   23.1614 N   0  0  0  0  0  0  0  0  0  0  0  0
    8.4482  -15.5958   24.4352 C   0  0  1  0  0  0  0  0  0  0  0  0
    7.4955  -15.4937   25.6123 C   0  0  0  0  0  0  0  0  0  0  0  0
    7.0947  -14.0945   25.9107 C   0  0  0  0  0  0  0  0  0  0  0  0
    5.8645  -13.5584   25.5946 C   0  0  0  0  0  0  0  0  0  0  0  0
    5.5390  -12.2344   25.8845 C   0  0  0  0  0  0  0  0  0  0  0  0
    6.4984  -11.4725   26.5040 C   0  0  0  0  0  0  0  0  0  0  0  0
    7.7325  -11.9890   26.8282 C   0  0  0  0  0  0  0  0  0  0  0  0
    8.0558  -13.2939   26.5435 C   0  0  0  0  0  0  0  0  0  0  0  0
    9.2926  -16.7970   24.4522 C   0  0  0  0  0  0  0  0  0  0  0  0
    8.7822  -17.9066   24.0689 O   0  0  0  0  0  0  0  0  0  0  0  0
   12.5399  -19.5029   21.3771 N   0  0  0  0  0  0  0  0  0  0  0  0
   12.8956  -18.5566   22.4030 C   0  0  0  0  0  0  0  0  0  0  0  0
   14.0875  -18.5561   22.7782 O   0  0  0  0  0  0  0  0  0  0  0  0
   11.8262  -17.6767   22.9166 C   0  0  0  0  0  0  0  0  0  0  0  0
   11.6210  -17.7859   24.4135 C   0  0  2  0  0  0  0  0  0  0  0  0
   10.6470  -16.8002   24.8705 N   0  0  0  0  0  0  0  0  0  0  0  0
   12.8809  -17.6130   25.1421 C   0  0  0  0  0  0  0  0  0  0  0  0
   13.2071  -16.4270   25.7663 O   0  0  0  0  0  0  0  0  0  0  0  0
   13.7045  -18.5562   25.2147 O   0  0  0  0  0  0  0  0  0  0  0  0
  2  1  1  6
  2  4  1  0
  3  2  1  0
  4  5  1  1
  6  7  2  0
  6  4  1  0
  8  6  1  0
  9  8  1  0
  9 17  1  0
  9 10  1  1
 11 12  2  0
 11 10  1  0
 13 12  1  0
 14 13  2  0
 15 14  1  0
 15 16  2  0
 16 11  1  0
 17 24  1  0
 18 17  2  0
 19 20  1  0
 20 22  1  0
 21 20  2  0
 23 22  1  6
 23 25  1  0
 24 23  1  0
 25 27  2  0
 25 26  1  0
M  END
$$$$
