VFN.pdb
     RDKit          3D

 27 27  0  0  1  0  0  0  0  0999 V2000
    6.3858  -13.8918   19.4859 C   0  0  0  0  0  0  0  0  0  0  0  0
    7.7821  -14.1627   19.0090 C   0  0  1  0  0  0  0  0  0  0  0  0
    8.5448  -12.8815   18.7814 C   0  0  0  0  0  0  0  0  0  0  0  0
    8.4907  -15.1091   19.9268 C   0  0  2  0  0  0  0  0  0  0  0  0
    7.6829  -16.3053   20.0422 N   0  0  0  0  0  0  0  0  0  0  0  0
    8.7856  -14.5362   21.2494 C   0  0  0  0  0  0  0  0  0  0  0  0
    9.6690  -13.6662   21.4493 O   0  0  0  0  0  0  0  0  0  0  0  0
    8.0204  -15.0019   22.3573 N   0  0  0  0  0  0  0  0  0  0  0  0
    8.1089  -14.4975   23.6892 C   0  0  1  0  0  0  0  0  0  0  0  0
    6.8105  -14.5115   24.4752 C   0  0  0  0  0  0  0  0  0  0  0  0
    6.8382  -13.6046   25.6517 C   0  0  0  0  0  0  0  0  0  0  0  0
    6.1960  -12.3858   25.7037 C   0  0  0  0  0  0  0  0  0  0  0  0
    6.2615  -11.5634   26.8273 C   0  0  0  0  0  0  0  0  0  0  0  0
    6.9974  -12.0152   27.8947 C   0  0  0  0  0  0  0  0  0  0  0  0
    7.6456  -13.2291   27.8628 C   0  0  0  0  0  0  0  0  0  0  0  0
    7.5826  -14.0416   26.7562 C   0  0  0  0  0  0  0  0  0  0  0  0
    9.2693  -14.9884   24.4432 C   0  0  0  0  0  0  0  0  0  0  0  0
    9.3623  -14.6867   25.6838 O   0  0  0  0  0  0  0  0  0  0  0  0
   11.0605  -18.1174   27.0417 N   0  0  0  0  0  0  0  0  0  0  0  0
   10.1849  -18.7244   26.0724 C   0  0  0  0  0  0  0  0  0  0  0  0
    9.6248  -19.7892   26.4101 O   0  0  0  0  0  0  0  0  0  0  0  0
   10.0283  -18.0382   24.7739 C   0  0  0  0  0  0  0  0  0  0  0  0
   10.9642  -16.8605   24.5962 C   0  0  2  0  0  0  0  0  0  0  0  0
   10.2982  -15.7808   23.8752 N   0  0  0  0  0  0  0  0  0  0  0  0
   12.1875  -17.2489   23.8885 C   0  0  0  0  0  0  0  0  0  0  0  0
   12.3559  -17.0170   22.5392 O   0  0  0  0  0  0  0  0  0  0  0  0
   13.1240  -17.8109   24.5052 O   0  0  0  0  0  0  0  0  0  0  0  0
  2  1  1  1
  2  4  1  0
  3  2  1  0
  4  5  1  1
  6  7  2  0
  6  4  1  0
  8  6  1  0
  9  8  1  0
  9 17  1  0
  9 10  1  1
 11 12  2  0
 11 10  1  0
 13 12  1  0
 14 13  2  0
 15 14  1  0
 15 16  2  0
 16 11  1  0
 17 24  1  0
 18 17  2  0
 19 20  1  0
 20 22  1  0
 21 20  2  0
 23 22  1  6
 23 25  1  0
 24 23  1  0
 25 27  2  0
 25 26  1  0
M  END
$$$$
