VFN.pdb
     RDKit          3D

 27 27  0  0  1  0  0  0  0  0999 V2000
    8.4448  -17.1634   18.0591 C   0  0  0  0  0  0  0  0  0  0  0  0
    8.6217  -16.0863   19.0882 C   0  0  1  0  0  0  0  0  0  0  0  0
    7.3550  -15.2888   19.2743 C   0  0  0  0  0  0  0  0  0  0  0  0
    9.1519  -16.6479   20.3701 C   0  0  2  0  0  0  0  0  0  0  0  0
    8.2815  -17.7321   20.7744 N   0  0  0  0  0  0  0  0  0  0  0  0
    9.2874  -15.6468   21.4396 C   0  0  0  0  0  0  0  0  0  0  0  0
   10.2053  -14.7906   21.4788 O   0  0  0  0  0  0  0  0  0  0  0  0
    8.3178  -15.6591   22.4835 N   0  0  0  0  0  0  0  0  0  0  0  0
    8.3177  -14.7926   23.6173 C   0  0  1  0  0  0  0  0  0  0  0  0
    6.9569  -14.2567   24.0233 C   0  0  0  0  0  0  0  0  0  0  0  0
    7.0271  -13.3084   25.1648 C   0  0  0  0  0  0  0  0  0  0  0  0
    7.6174  -12.0641   25.1012 C   0  0  0  0  0  0  0  0  0  0  0  0
    7.6694  -11.2137   26.2043 C   0  0  0  0  0  0  0  0  0  0  0  0
    7.1048  -11.6638   27.3720 C   0  0  0  0  0  0  0  0  0  0  0  0
    6.5103  -12.9025   27.4561 C   0  0  0  0  0  0  0  0  0  0  0  0
    6.4579  -13.7428   26.3700 C   0  0  0  0  0  0  0  0  0  0  0  0
    9.1310  -15.2721   24.7418 C   0  0  0  0  0  0  0  0  0  0  0  0
    9.2090  -14.5442   25.7919 O   0  0  0  0  0  0  0  0  0  0  0  0
    9.9919  -20.3166   27.5972 N   0  0  0  0  0  0  0  0  0  0  0  0
    9.9674  -18.8779   27.6603 C   0  0  0  0  0  0  0  0  0  0  0  0
   10.3999  -18.3540   28.7090 O   0  0  0  0  0  0  0  0  0  0  0  0
    9.4364  -18.1549   26.4869 C   0  0  0  0  0  0  0  0  0  0  0  0
   10.3889  -17.1129   25.9375 C   0  0  2  0  0  0  0  0  0  0  0  0
    9.8389  -16.5002   24.7329 N   0  0  0  0  0  0  0  0  0  0  0  0
   11.7042  -17.6894   25.6446 C   0  0  0  0  0  0  0  0  0  0  0  0
   12.1436  -17.8875   24.3521 O   0  0  0  0  0  0  0  0  0  0  0  0
   12.4721  -18.0214   26.5791 O   0  0  0  0  0  0  0  0  0  0  0  0
  2  1  1  6
  2  4  1  0
  3  2  1  0
  4  5  1  1
  6  7  2  0
  6  4  1  0
  8  6  1  0
  9  8  1  0
  9 17  1  0
  9 10  1  1
 11 12  2  0
 11 10  1  0
 13 12  1  0
 14 13  2  0
 15 14  1  0
 15 16  2  0
 16 11  1  0
 17 24  1  0
 18 17  2  0
 19 20  1  0
 20 22  1  0
 21 20  2  0
 23 22  1  6
 23 25  1  0
 24 23  1  0
 25 27  2  0
 25 26  1  0
M  END
$$$$
