VFN.pdb
     RDKit          3D

 27 27  0  0  1  0  0  0  0  0999 V2000
    7.5036  -18.1828   20.7469 C   0  0  0  0  0  0  0  0  0  0  0  0
    8.7211  -17.9278   19.9084 C   0  0  1  0  0  0  0  0  0  0  0  0
    8.5412  -18.4465   18.5035 C   0  0  0  0  0  0  0  0  0  0  0  0
    9.1125  -16.4838   19.9521 C   0  0  2  0  0  0  0  0  0  0  0  0
   10.3295  -16.3294   19.1830 N   0  0  0  0  0  0  0  0  0  0  0  0
    9.2751  -15.9594   21.3171 C   0  0  0  0  0  0  0  0  0  0  0  0
   10.2444  -16.2473   22.0619 O   0  0  0  0  0  0  0  0  0  0  0  0
    8.2712  -15.0772   21.8105 N   0  0  0  0  0  0  0  0  0  0  0  0
    8.2120  -14.5575   23.1382 C   0  0  1  0  0  0  0  0  0  0  0  0
    7.2584  -13.3934   23.3367 C   0  0  0  0  0  0  0  0  0  0  0  0
    7.1896  -12.9380   24.7492 C   0  0  0  0  0  0  0  0  0  0  0  0
    8.1592  -12.1743   25.3634 C   0  0  0  0  0  0  0  0  0  0  0  0
    8.0556  -11.7813   26.6968 C   0  0  0  0  0  0  0  0  0  0  0  0
    6.9396  -12.1863   27.3864 C   0  0  0  0  0  0  0  0  0  0  0  0
    5.9602  -12.9487   26.7913 C   0  0  0  0  0  0  0  0  0  0  0  0
    6.0601  -13.3374   25.4770 C   0  0  0  0  0  0  0  0  0  0  0  0
    8.1268  -15.5849   24.1838 C   0  0  0  0  0  0  0  0  0  0  0  0
    7.1122  -16.3653   24.1906 O   0  0  0  0  0  0  0  0  0  0  0  0
   11.5676  -19.8007   25.9260 N   0  0  0  0  0  0  0  0  0  0  0  0
   10.2180  -19.2979   25.9113 C   0  0  0  0  0  0  0  0  0  0  0  0
    9.3652  -19.9589   26.5414 O   0  0  0  0  0  0  0  0  0  0  0  0
    9.9644  -18.0534   25.1572 C   0  0  0  0  0  0  0  0  0  0  0  0
    9.2418  -16.9947   25.9643 C   0  0  2  0  0  0  0  0  0  0  0  0
    9.1073  -15.7642   25.1917 N   0  0  0  0  0  0  0  0  0  0  0  0
    9.9344  -16.7153   27.2255 C   0  0  0  0  0  0  0  0  0  0  0  0
   10.3315  -15.4412   27.5742 O   0  0  0  0  0  0  0  0  0  0  0  0
   10.1859  -17.6451   28.0288 O   0  0  0  0  0  0  0  0  0  0  0  0
  2  1  1  1
  2  4  1  0
  3  2  1  0
  4  5  1  6
  6  7  2  0
  6  4  1  0
  8  6  1  0
  9  8  1  0
  9 17  1  0
  9 10  1  6
 11 12  2  0
 11 10  1  0
 13 12  1  0
 14 13  2  0
 15 14  1  0
 15 16  2  0
 16 11  1  0
 17 24  1  0
 18 17  2  0
 19 20  1  0
 20 22  1  0
 21 20  2  0
 23 22  1  6
 23 25  1  0
 24 23  1  0
 25 27  2  0
 25 26  1  0
M  END
$$$$
