VFN.pdb
     RDKit          3D

 27 27  0  0  1  0  0  0  0  0999 V2000
    7.2488  -13.4686   17.9486 C   0  0  0  0  0  0  0  0  0  0  0  0
    8.0353  -13.4093   19.2247 C   0  0  1  0  0  0  0  0  0  0  0  0
    7.5190  -12.3275   20.1403 C   0  0  0  0  0  0  0  0  0  0  0  0
    8.0959  -14.7520   19.8830 C   0  0  2  0  0  0  0  0  0  0  0  0
    6.7477  -15.2761   19.9492 N   0  0  0  0  0  0  0  0  0  0  0  0
    8.7234  -14.7272   21.2134 C   0  0  0  0  0  0  0  0  0  0  0  0
    9.9500  -14.5333   21.4005 O   0  0  0  0  0  0  0  0  0  0  0  0
    7.8831  -14.9361   22.3449 N   0  0  0  0  0  0  0  0  0  0  0  0
    8.2894  -14.8090   23.7069 C   0  0  1  0  0  0  0  0  0  0  0  0
    7.1898  -14.4182   24.6775 C   0  0  0  0  0  0  0  0  0  0  0  0
    7.7105  -14.0306   26.0138 C   0  0  0  0  0  0  0  0  0  0  0  0
    8.1973  -14.9251   26.9432 C   0  0  0  0  0  0  0  0  0  0  0  0
    8.6644  -14.5138   28.1905 C   0  0  0  0  0  0  0  0  0  0  0  0
    8.6224  -13.1693   28.4652 C   0  0  0  0  0  0  0  0  0  0  0  0
    8.1405  -12.2602   27.5509 C   0  0  0  0  0  0  0  0  0  0  0  0
    7.6795  -12.6632   26.3206 C   0  0  0  0  0  0  0  0  0  0  0  0
    9.1474  -15.9009   24.1838 C   0  0  0  0  0  0  0  0  0  0  0  0
    8.6947  -17.0973   24.1363 O   0  0  0  0  0  0  0  0  0  0  0  0
   14.0982  -18.3562   23.8077 N   0  0  0  0  0  0  0  0  0  0  0  0
   13.8266  -17.3946   24.8450 C   0  0  0  0  0  0  0  0  0  0  0  0
   14.4804  -17.5101   25.9036 O   0  0  0  0  0  0  0  0  0  0  0  0
   12.8058  -16.3640   24.5663 C   0  0  0  0  0  0  0  0  0  0  0  0
   11.3971  -16.7999   24.9130 C   0  0  2  0  0  0  0  0  0  0  0  0
   10.4546  -15.7071   24.6966 N   0  0  0  0  0  0  0  0  0  0  0  0
   11.3055  -17.2668   26.2993 C   0  0  0  0  0  0  0  0  0  0  0  0
   11.1086  -16.3970   27.3516 O   0  0  0  0  0  0  0  0  0  0  0  0
   11.4063  -18.4887   26.5635 O   0  0  0  0  0  0  0  0  0  0  0  0
  2  1  1  6
  2  4  1  0
  3  2  1  0
  4  5  1  1
  6  7  2  0
  6  4  1  0
  8  6  1  0
  9  8  1  0
  9 17  1  0
  9 10  1  1
 11 12  2  0
 11 10  1  0
 13 12  1  0
 14 13  2  0
 15 14  1  0
 15 16  2  0
 16 11  1  0
 17 24  1  0
 18 17  2  0
 19 20  1  0
 20 22  1  0
 21 20  2  0
 23 22  1  1
 23 25  1  0
 24 23  1  0
 25 27  2  0
 25 26  1  0
M  END
$$$$
