VFN.pdb
     RDKit          3D

 27 27  0  0  1  0  0  0  0  0999 V2000
    7.4720  -13.6482   18.4922 C   0  0  0  0  0  0  0  0  0  0  0  0
    8.1926  -13.4920   19.7986 C   0  0  1  0  0  0  0  0  0  0  0  0
    7.4245  -12.6082   20.7494 C   0  0  0  0  0  0  0  0  0  0  0  0
    8.5352  -14.8246   20.3875 C   0  0  2  0  0  0  0  0  0  0  0  0
    7.3212  -15.6119   20.4424 N   0  0  0  0  0  0  0  0  0  0  0  0
    9.1731  -14.7369   21.7103 C   0  0  0  0  0  0  0  0  0  0  0  0
   10.3830  -14.4469   21.8813 O   0  0  0  0  0  0  0  0  0  0  0  0
    8.3637  -14.9978   22.8534 N   0  0  0  0  0  0  0  0  0  0  0  0
    8.8262  -15.0148   24.2032 C   0  0  1  0  0  0  0  0  0  0  0  0
    7.8393  -14.4959   25.2331 C   0  0  0  0  0  0  0  0  0  0  0  0
    8.4346  -14.3643   26.5879 C   0  0  0  0  0  0  0  0  0  0  0  0
    8.5940  -15.4138   27.4677 C   0  0  0  0  0  0  0  0  0  0  0  0
    9.1476  -15.2381   28.7348 C   0  0  0  0  0  0  0  0  0  0  0  0
    9.5340  -13.9670   29.0812 C   0  0  0  0  0  0  0  0  0  0  0  0
    9.3837  -12.9060   28.2172 C   0  0  0  0  0  0  0  0  0  0  0  0
    8.8381  -13.0766   26.9675 C   0  0  0  0  0  0  0  0  0  0  0  0
    9.4981  -16.2606   24.5939 C   0  0  0  0  0  0  0  0  0  0  0  0
    8.8170  -17.3444   24.6010 O   0  0  0  0  0  0  0  0  0  0  0  0
   13.6378  -16.4902   22.4766 N   0  0  0  0  0  0  0  0  0  0  0  0
   12.9063  -17.5482   23.1248 C   0  0  0  0  0  0  0  0  0  0  0  0
   12.3058  -18.3533   22.3815 O   0  0  0  0  0  0  0  0  0  0  0  0
   12.9314  -17.5866   24.6011 C   0  0  0  0  0  0  0  0  0  0  0  0
   11.5528  -17.5932   25.2288 C   0  0  2  0  0  0  0  0  0  0  0  0
   10.8639  -16.3341   24.9659 N   0  0  0  0  0  0  0  0  0  0  0  0
   11.6220  -17.8286   26.6738 C   0  0  0  0  0  0  0  0  0  0  0  0
   12.1850  -18.9718   27.2017 O   0  0  0  0  0  0  0  0  0  0  0  0
   11.1622  -16.9808   27.4757 O   0  0  0  0  0  0  0  0  0  0  0  0
  2  1  1  6
  2  4  1  0
  3  2  1  0
  4  5  1  1
  6  7  2  0
  6  4  1  0
  8  6  1  0
  9  8  1  0
  9 17  1  0
  9 10  1  1
 11 12  2  0
 11 10  1  0
 13 12  1  0
 14 13  2  0
 15 14  1  0
 15 16  2  0
 16 11  1  0
 17 24  1  0
 18 17  2  0
 19 20  1  0
 20 22  1  0
 21 20  2  0
 23 22  1  1
 23 25  1  0
 24 23  1  0
 25 27  2  0
 25 26  1  0
M  END
$$$$
