VFN.pdb
     RDKit          3D

 27 27  0  0  1  0  0  0  0  0999 V2000
    7.9902  -14.0765   17.2522 C   0  0  0  0  0  0  0  0  0  0  0  0
    8.3041  -13.6297   18.6495 C   0  0  1  0  0  0  0  0  0  0  0  0
    7.1740  -12.8213   19.2363 C   0  0  0  0  0  0  0  0  0  0  0  0
    8.7010  -14.7887   19.5092 C   0  0  2  0  0  0  0  0  0  0  0  0
    7.6768  -15.8049   19.3864 N   0  0  0  0  0  0  0  0  0  0  0  0
    8.9258  -14.4269   20.9174 C   0  0  0  0  0  0  0  0  0  0  0  0
    9.9160  -13.7653   21.3160 O   0  0  0  0  0  0  0  0  0  0  0  0
    7.9603  -14.8566   21.8728 N   0  0  0  0  0  0  0  0  0  0  0  0
    8.0299  -14.6183   23.2781 C   0  0  1  0  0  0  0  0  0  0  0  0
    6.7885  -13.9973   23.8924 C   0  0  0  0  0  0  0  0  0  0  0  0
    6.9901  -13.5801   25.3039 C   0  0  0  0  0  0  0  0  0  0  0  0
    6.6996  -14.3732   26.3936 C   0  0  0  0  0  0  0  0  0  0  0  0
    6.8947  -13.9322   27.7015 C   0  0  0  0  0  0  0  0  0  0  0  0
    7.3928  -12.6639   27.8693 C   0  0  0  0  0  0  0  0  0  0  0  0
    7.6895  -11.8566   26.7946 C   0  0  0  0  0  0  0  0  0  0  0  0
    7.4980  -12.2891   25.5043 C   0  0  0  0  0  0  0  0  0  0  0  0
    8.5843  -15.7363   24.0518 C   0  0  0  0  0  0  0  0  0  0  0  0
    7.8064  -16.7012   24.3721 O   0  0  0  0  0  0  0  0  0  0  0  0
   11.5935  -18.0005   22.7856 N   0  0  0  0  0  0  0  0  0  0  0  0
   12.3673  -17.1330   23.6359 C   0  0  0  0  0  0  0  0  0  0  0  0
   13.3201  -16.5262   23.1016 O   0  0  0  0  0  0  0  0  0  0  0  0
   11.9679  -17.0387   25.0548 C   0  0  0  0  0  0  0  0  0  0  0  0
   10.4712  -16.9172   25.2542 C   0  0  2  0  0  0  0  0  0  0  0  0
    9.9375  -15.8104   24.4673 N   0  0  0  0  0  0  0  0  0  0  0  0
   10.1315  -16.7301   26.6677 C   0  0  0  0  0  0  0  0  0  0  0  0
   10.3994  -17.6940   27.6173 O   0  0  0  0  0  0  0  0  0  0  0  0
    9.5796  -15.6710   27.0510 O   0  0  0  0  0  0  0  0  0  0  0  0
  2  1  1  6
  2  4  1  0
  3  2  1  0
  4  5  1  1
  6  7  2  0
  6  4  1  0
  8  6  1  0
  9  8  1  0
  9 17  1  0
  9 10  1  1
 11 12  2  0
 11 10  1  0
 13 12  1  0
 14 13  2  0
 15 14  1  0
 15 16  2  0
 16 11  1  0
 17 24  1  0
 18 17  2  0
 19 20  1  0
 20 22  1  0
 21 20  2  0
 23 22  1  1
 23 25  1  0
 24 23  1  0
 25 27  2  0
 25 26  1  0
M  END
$$$$
