FKN.pdb
     RDKit          3D

 29 29  0  0  1  0  0  0  0  0999 V2000
   26.5704  -18.4447   -7.6719 N   0  0  0  0  0  0  0  0  0  0  0  0
   27.1310  -19.5953   -8.3458 C   0  0  1  0  0  0  0  0  0  0  0  0
   27.0509  -20.8371   -7.4863 C   0  0  0  0  0  0  0  0  0  0  0  0
   27.8594  -20.7465   -6.2720 C   0  0  0  0  0  0  0  0  0  0  0  0
   27.2376  -20.5689   -5.0480 C   0  0  0  0  0  0  0  0  0  0  0  0
   28.0297  -20.4875   -3.9230 C   0  0  0  0  0  0  0  0  0  0  0  0
   29.4201  -20.5792   -3.9969 C   0  0  0  0  0  0  0  0  0  0  0  0
   30.0159  -20.7560   -5.2287 C   0  0  0  0  0  0  0  0  0  0  0  0
   29.2481  -20.8409   -6.3707 C   0  0  0  0  0  0  0  0  0  0  0  0
   26.3322  -19.7787   -9.6103 C   0  0  0  0  0  0  0  0  0  0  0  0
   25.0755  -19.8310   -9.6000 O   0  0  0  0  0  0  0  0  0  0  0  0
   26.9770  -19.9002  -10.8725 N   0  0  0  0  0  0  0  0  0  0  0  0
   26.3565  -19.5846  -12.1458 C   0  0  1  0  0  0  0  0  0  0  0  0
   27.3970  -19.7089  -13.2259 C   0  0  0  0  0  0  0  0  0  0  0  0
   26.7776  -19.4175  -14.5603 C   0  0  0  0  0  0  0  0  0  0  0  0
   26.9026  -17.9572  -14.8708 C   0  0  0  0  0  0  0  0  0  0  0  0
   26.2392  -17.7655  -16.2463 C   0  0  0  0  0  0  0  0  0  0  0  0
   27.2910  -17.8837  -17.2290 N   0  0  0  0  0  0  0  0  0  0  0  0
   25.2749  -20.5741  -12.4601 C   0  0  0  0  0  0  0  0  0  0  0  0
   25.5523  -21.7804  -12.2704 O   0  0  0  0  0  0  0  0  0  0  0  0
   20.7227  -22.7030  -13.5425 N   0  0  0  0  0  0  0  0  0  0  0  0
   20.5845  -21.4965  -12.7725 C   0  0  0  0  0  0  0  0  0  0  0  0
   19.4723  -21.2035  -12.3004 O   0  0  0  0  0  0  0  0  0  0  0  0
   21.7508  -20.6450  -12.5631 C   0  0  0  0  0  0  0  0  0  0  0  0
   22.9994  -21.1643  -13.1931 C   0  0  2  0  0  0  0  0  0  0  0  0
   24.0329  -20.1464  -12.9380 N   0  0  0  0  0  0  0  0  0  0  0  0
   22.9316  -21.3699  -14.6501 C   0  0  0  0  0  0  0  0  0  0  0  0
   23.0119  -22.4769  -15.2348 O   0  0  0  0  0  0  0  0  0  0  0  0
   22.7624  -20.2622  -15.5167 O   0  0  0  0  0  0  0  0  0  0  0  0
  2  1  1  1
  3  2  1  0
  3  4  1  0
  4  9  2  0
  4  5  1  0
  5  6  2  0
  6  7  1  0
  8  7  2  0
  9  8  1  0
 10 12  1  0
 10  2  1  0
 11 10  2  0
 13 14  1  6
 13 12  1  0
 14 15  1  0
 15 16  1  0
 16 17  1  0
 17 18  1  0
 19 13  1  0
 20 19  2  0
 21 22  1  0
 22 24  1  0
 22 23  2  0
 25 24  1  6
 25 27  1  0
 25 26  1  0
 26 19  1  0
 27 29  1  0
 28 27  2  0
M  END
$$$$
