FKN.pdb
     RDKit          3D

 29 29  0  0  1  0  0  0  0  0999 V2000
   18.1205  -27.0850   -7.8979 N   0  0  0  0  0  0  0  0  0  0  0  0
   17.8025  -25.6931   -8.1307 C   0  0  1  0  0  0  0  0  0  0  0  0
   18.4268  -24.7973   -7.0842 C   0  0  0  0  0  0  0  0  0  0  0  0
   17.7641  -24.8865   -5.7845 C   0  0  0  0  0  0  0  0  0  0  0  0
   18.2892  -25.7109   -4.8042 C   0  0  0  0  0  0  0  0  0  0  0  0
   17.6394  -25.7716   -3.5902 C   0  0  0  0  0  0  0  0  0  0  0  0
   16.4842  -25.0302   -3.3389 C   0  0  0  0  0  0  0  0  0  0  0  0
   15.9807  -24.2160   -4.3323 C   0  0  0  0  0  0  0  0  0  0  0  0
   16.6102  -24.1358   -5.5564 C   0  0  0  0  0  0  0  0  0  0  0  0
   18.3389  -25.3572   -9.4982 C   0  0  0  0  0  0  0  0  0  0  0  0
   19.3742  -25.9039   -9.9579 O   0  0  0  0  0  0  0  0  0  0  0  0
   17.6873  -24.4009  -10.3256 N   0  0  0  0  0  0  0  0  0  0  0  0
   18.0425  -24.1317  -11.7066 C   0  0  1  0  0  0  0  0  0  0  0  0
   16.8569  -24.4562  -12.5747 C   0  0  0  0  0  0  0  0  0  0  0  0
   17.2219  -24.2728  -14.0178 C   0  0  0  0  0  0  0  0  0  0  0  0
   16.0369  -24.5729  -14.8840 C   0  0  0  0  0  0  0  0  0  0  0  0
   16.2895  -23.8295  -16.2078 C   0  0  0  0  0  0  0  0  0  0  0  0
   15.1525  -24.1032  -17.0553 N   0  0  0  0  0  0  0  0  0  0  0  0
   18.3410  -22.6745  -11.8953 C   0  0  0  0  0  0  0  0  0  0  0  0
   17.5603  -21.8700  -11.3373 O   0  0  0  0  0  0  0  0  0  0  0  0
   22.8336  -18.9855  -13.8394 N   0  0  0  0  0  0  0  0  0  0  0  0
   21.4730  -19.2741  -13.4745 C   0  0  0  0  0  0  0  0  0  0  0  0
   20.6691  -18.3348  -13.3432 O   0  0  0  0  0  0  0  0  0  0  0  0
   21.0676  -20.6603  -13.2671 C   0  0  0  0  0  0  0  0  0  0  0  0
   19.6418  -20.8185  -12.8579 C   0  0  2  0  0  0  0  0  0  0  0  0
   19.4378  -22.2634  -12.6580 N   0  0  0  0  0  0  0  0  0  0  0  0
   18.6485  -20.3645  -13.8464 C   0  0  0  0  0  0  0  0  0  0  0  0
   18.4207  -20.9080  -14.9538 O   0  0  0  0  0  0  0  0  0  0  0  0
   17.8527  -19.2230  -13.5809 O   0  0  0  0  0  0  0  0  0  0  0  0
  2  1  1  1
  3  2  1  0
  3  4  1  0
  4  9  2  0
  4  5  1  0
  5  6  2  0
  6  7  1  0
  8  7  2  0
  9  8  1  0
 10 12  1  0
 10  2  1  0
 11 10  2  0
 13 14  1  6
 13 12  1  0
 14 15  1  0
 15 16  1  0
 16 17  1  0
 17 18  1  0
 19 13  1  0
 20 19  2  0
 21 22  1  0
 22 24  1  0
 22 23  2  0
 25 24  1  6
 25 27  1  0
 25 26  1  0
 26 19  1  0
 27 29  1  0
 28 27  2  0
M  END
$$$$
