FKN.pdb
     RDKit          3D

 29 29  0  0  1  0  0  0  0  0999 V2000
   28.3831  -20.9787   -9.6662 N   0  0  0  0  0  0  0  0  0  0  0  0
   27.0110  -20.6515   -9.3455 C   0  0  1  0  0  0  0  0  0  0  0  0
   26.9233  -19.4293   -8.4589 C   0  0  0  0  0  0  0  0  0  0  0  0
   27.5389  -19.6271   -7.1481 C   0  0  0  0  0  0  0  0  0  0  0  0
   28.7332  -18.9934   -6.8507 C   0  0  0  0  0  0  0  0  0  0  0  0
   29.2864  -19.2017   -5.6056 C   0  0  0  0  0  0  0  0  0  0  0  0
   28.6740  -20.0244   -4.6594 C   0  0  0  0  0  0  0  0  0  0  0  0
   27.4842  -20.6447   -4.9800 C   0  0  0  0  0  0  0  0  0  0  0  0
   26.9081  -20.4544   -6.2181 C   0  0  0  0  0  0  0  0  0  0  0  0
   26.3157  -20.3996  -10.6584 C   0  0  0  0  0  0  0  0  0  0  0  0
   26.6750  -19.4766  -11.4336 O   0  0  0  0  0  0  0  0  0  0  0  0
   25.2180  -21.2045  -11.0717 N   0  0  0  0  0  0  0  0  0  0  0  0
   24.5049  -21.0405  -12.3249 C   0  0  1  0  0  0  0  0  0  0  0  0
   24.3801  -22.3889  -12.9813 C   0  0  0  0  0  0  0  0  0  0  0  0
   25.5799  -22.6437  -13.8444 C   0  0  0  0  0  0  0  0  0  0  0  0
   25.4343  -23.9620  -14.5410 C   0  0  0  0  0  0  0  0  0  0  0  0
   26.7258  -24.1466  -15.3577 C   0  0  0  0  0  0  0  0  0  0  0  0
   26.6488  -25.4590  -15.9558 N   0  0  0  0  0  0  0  0  0  0  0  0
   23.1132  -20.5425  -12.0734 C   0  0  0  0  0  0  0  0  0  0  0  0
   22.5601  -20.9435  -11.0239 O   0  0  0  0  0  0  0  0  0  0  0  0
   18.6622  -17.9666  -12.4414 N   0  0  0  0  0  0  0  0  0  0  0  0
   19.5819  -17.4183  -13.4012 C   0  0  0  0  0  0  0  0  0  0  0  0
   19.2269  -16.4499  -14.0954 O   0  0  0  0  0  0  0  0  0  0  0  0
   20.9087  -18.0101  -13.5383 C   0  0  0  0  0  0  0  0  0  0  0  0
   21.1406  -19.1866  -12.6510 C   0  0  2  0  0  0  0  0  0  0  0  0
   22.4899  -19.6782  -12.9779 N   0  0  0  0  0  0  0  0  0  0  0  0
   20.2045  -20.3090  -12.8352 C   0  0  0  0  0  0  0  0  0  0  0  0
   19.1683  -20.5130  -12.1582 O   0  0  0  0  0  0  0  0  0  0  0  0
   20.4411  -21.2726  -13.8464 O   0  0  0  0  0  0  0  0  0  0  0  0
  2  1  1  6
  3  2  1  0
  3  4  1  0
  4  9  2  0
  4  5  1  0
  5  6  2  0
  6  7  1  0
  8  7  2  0
  9  8  1  0
 10 12  1  0
 10  2  1  0
 11 10  2  0
 13 14  1  1
 13 12  1  0
 14 15  1  0
 15 16  1  0
 16 17  1  0
 17 18  1  0
 19 13  1  0
 20 19  2  0
 21 22  1  0
 22 24  1  0
 22 23  2  0
 25 24  1  6
 25 27  1  0
 25 26  1  0
 26 19  1  0
 27 29  1  0
 28 27  2  0
M  END
$$$$
