FKN.pdb
     RDKit          3D

 29 29  0  0  1  0  0  0  0  0999 V2000
   29.4548  -10.3068  -19.7273 N   0  0  0  0  0  0  0  0  0  0  0  0
   29.0531   -9.9130  -18.3946 C   0  0  1  0  0  0  0  0  0  0  0  0
   29.4144   -8.4727  -18.1076 C   0  0  0  0  0  0  0  0  0  0  0  0
   30.8511   -8.2158  -18.1865 C   0  0  0  0  0  0  0  0  0  0  0  0
   31.7001   -8.7861  -17.2536 C   0  0  0  0  0  0  0  0  0  0  0  0
   33.0492   -8.5232  -17.3570 C   0  0  0  0  0  0  0  0  0  0  0  0
   33.5620   -7.7079  -18.3666 C   0  0  0  0  0  0  0  0  0  0  0  0
   32.6952   -7.1512  -19.2843 C   0  0  0  0  0  0  0  0  0  0  0  0
   31.3408   -7.3972  -19.2049 C   0  0  0  0  0  0  0  0  0  0  0  0
   27.5600  -10.1042  -18.3265 C   0  0  0  0  0  0  0  0  0  0  0  0
   26.8507  -10.1678  -19.3633 O   0  0  0  0  0  0  0  0  0  0  0  0
   26.8931  -10.2206  -17.0752 N   0  0  0  0  0  0  0  0  0  0  0  0
   25.4650  -10.4269  -16.9215 C   0  0  1  0  0  0  0  0  0  0  0  0
   25.2497  -11.6592  -16.0850 C   0  0  0  0  0  0  0  0  0  0  0  0
   23.7885  -11.9953  -16.0471 C   0  0  0  0  0  0  0  0  0  0  0  0
   23.5860  -13.3046  -15.3476 C   0  0  0  0  0  0  0  0  0  0  0  0
   22.0943  -13.6425  -15.5196 C   0  0  0  0  0  0  0  0  0  0  0  0
   21.8427  -14.8119  -14.7101 N   0  0  0  0  0  0  0  0  0  0  0  0
   24.8474   -9.2786  -16.1813 C   0  0  0  0  0  0  0  0  0  0  0  0
   25.4385   -8.9037  -15.1429 O   0  0  0  0  0  0  0  0  0  0  0  0
   20.5920   -6.0474  -18.0464 N   0  0  0  0  0  0  0  0  0  0  0  0
   21.7075   -6.9234  -17.8099 C   0  0  0  0  0  0  0  0  0  0  0  0
   21.7542   -8.0170  -18.3994 O   0  0  0  0  0  0  0  0  0  0  0  0
   22.7574   -6.5095  -16.8849 C   0  0  0  0  0  0  0  0  0  0  0  0
   23.1210   -7.5490  -15.8787 C   0  0  2  0  0  0  0  0  0  0  0  0
   23.6746   -8.6771  -16.6468 N   0  0  0  0  0  0  0  0  0  0  0  0
   22.0004   -8.0683  -15.0760 C   0  0  0  0  0  0  0  0  0  0  0  0
   21.4928   -9.2102  -15.1853 O   0  0  0  0  0  0  0  0  0  0  0  0
   21.4033   -7.2562  -14.0806 O   0  0  0  0  0  0  0  0  0  0  0  0
  2  1  1  6
  3  2  1  0
  3  4  1  0
  4  9  2  0
  4  5  1  0
  5  6  2  0
  6  7  1  0
  8  7  2  0
  9  8  1  0
 10 12  1  0
 10  2  1  0
 11 10  2  0
 13 14  1  1
 13 12  1  0
 14 15  1  0
 15 16  1  0
 16 17  1  0
 17 18  1  0
 19 13  1  0
 20 19  2  0
 21 22  1  0
 22 24  1  0
 22 23  2  0
 25 24  1  6
 25 27  1  0
 25 26  1  0
 26 19  1  0
 27 29  1  0
 28 27  2  0
M  END
$$$$
