FKN.pdb
     RDKit          3D

 29 29  0  0  1  0  0  0  0  0999 V2000
   28.3130  -21.1196   -9.3334 N   0  0  0  0  0  0  0  0  0  0  0  0
   26.9647  -20.6701   -9.0642 C   0  0  1  0  0  0  0  0  0  0  0  0
   26.9525  -19.4593   -8.1580 C   0  0  0  0  0  0  0  0  0  0  0  0
   27.5861  -19.7058   -6.8641 C   0  0  0  0  0  0  0  0  0  0  0  0
   28.7686  -19.0594   -6.5474 C   0  0  0  0  0  0  0  0  0  0  0  0
   29.3394  -19.3146   -5.3190 C   0  0  0  0  0  0  0  0  0  0  0  0
   28.7560  -20.1963   -4.4084 C   0  0  0  0  0  0  0  0  0  0  0  0
   27.5775  -20.8283   -4.7477 C   0  0  0  0  0  0  0  0  0  0  0  0
   26.9843  -20.5918   -5.9697 C   0  0  0  0  0  0  0  0  0  0  0  0
   26.3540  -20.3333  -10.3999 C   0  0  0  0  0  0  0  0  0  0  0  0
   26.6696  -19.2917  -11.0305 O   0  0  0  0  0  0  0  0  0  0  0  0
   25.3897  -21.1893  -11.0009 N   0  0  0  0  0  0  0  0  0  0  0  0
   24.7550  -20.9404  -12.2819 C   0  0  1  0  0  0  0  0  0  0  0  0
   25.0406  -22.1068  -13.1889 C   0  0  0  0  0  0  0  0  0  0  0  0
   26.2724  -21.8281  -13.9978 C   0  0  0  0  0  0  0  0  0  0  0  0
   26.5443  -22.9757  -14.9217 C   0  0  0  0  0  0  0  0  0  0  0  0
   27.8044  -22.5835  -15.7136 C   0  0  0  0  0  0  0  0  0  0  0  0
   28.1397  -23.7197  -16.5400 N   0  0  0  0  0  0  0  0  0  0  0  0
   23.2664  -20.8613  -12.1214 C   0  0  0  0  0  0  0  0  0  0  0  0
   22.7842  -21.4313  -11.1161 O   0  0  0  0  0  0  0  0  0  0  0  0
   18.5017  -18.3936  -11.7059 N   0  0  0  0  0  0  0  0  0  0  0  0
   19.2290  -18.4224  -12.9460 C   0  0  0  0  0  0  0  0  0  0  0  0
   18.6168  -18.2344  -14.0116 O   0  0  0  0  0  0  0  0  0  0  0  0
   20.6667  -18.6712  -12.9254 C   0  0  0  0  0  0  0  0  0  0  0  0
   21.0292  -20.1151  -12.8292 C   0  0  2  0  0  0  0  0  0  0  0  0
   22.4825  -20.1818  -13.0582 N   0  0  0  0  0  0  0  0  0  0  0  0
   20.3847  -20.9939  -13.8202 C   0  0  0  0  0  0  0  0  0  0  0  0
   20.8782  -21.3360  -14.9217 O   0  0  0  0  0  0  0  0  0  0  0  0
   19.0983  -21.5293  -13.5647 O   0  0  0  0  0  0  0  0  0  0  0  0
  2  1  1  6
  3  2  1  0
  3  4  1  0
  4  9  2  0
  4  5  1  0
  5  6  2  0
  6  7  1  0
  8  7  2  0
  9  8  1  0
 10 12  1  0
 10  2  1  0
 11 10  2  0
 13 14  1  6
 13 12  1  0
 14 15  1  0
 15 16  1  0
 16 17  1  0
 17 18  1  0
 19 13  1  0
 20 19  2  0
 21 22  1  0
 22 24  1  0
 22 23  2  0
 25 24  1  6
 25 27  1  0
 25 26  1  0
 26 19  1  0
 27 29  1  0
 28 27  2  0
M  END
$$$$
