FKN.pdb
     RDKit          3D

 29 29  0  0  1  0  0  0  0  0999 V2000
   26.0438  -22.1451  -12.4039 N   0  0  0  0  0  0  0  0  0  0  0  0
   25.0296  -21.1137  -12.3908 C   0  0  1  0  0  0  0  0  0  0  0  0
   25.4876  -19.8931  -11.6240 C   0  0  0  0  0  0  0  0  0  0  0  0
   25.6187  -20.1343  -10.1885 C   0  0  0  0  0  0  0  0  0  0  0  0
   24.5025  -20.4868   -9.4494 C   0  0  0  0  0  0  0  0  0  0  0  0
   24.6614  -20.7069   -8.0981 C   0  0  0  0  0  0  0  0  0  0  0  0
   25.9042  -20.5824   -7.4760 C   0  0  0  0  0  0  0  0  0  0  0  0
   27.0014  -20.2299   -8.2344 C   0  0  0  0  0  0  0  0  0  0  0  0
   26.8717  -20.0037   -9.5884 C   0  0  0  0  0  0  0  0  0  0  0  0
   24.7636  -20.7605  -13.8313 C   0  0  0  0  0  0  0  0  0  0  0  0
   25.6689  -20.8029  -14.7034 O   0  0  0  0  0  0  0  0  0  0  0  0
   23.4668  -20.3627  -14.2601 N   0  0  0  0  0  0  0  0  0  0  0  0
   23.1074  -20.0809  -15.6375 C   0  0  1  0  0  0  0  0  0  0  0  0
   21.6064  -20.0644  -15.7437 C   0  0  0  0  0  0  0  0  0  0  0  0
   21.2030  -19.7599  -17.1558 C   0  0  0  0  0  0  0  0  0  0  0  0
   19.7167  -19.8835  -17.2977 C   0  0  0  0  0  0  0  0  0  0  0  0
   19.4121  -19.5743  -18.7744 C   0  0  0  0  0  0  0  0  0  0  0  0
   17.9947  -19.7863  -18.9539 N   0  0  0  0  0  0  0  0  0  0  0  0
   23.5923  -18.7194  -16.0364 C   0  0  0  0  0  0  0  0  0  0  0  0
   23.3242  -17.7813  -15.2515 O   0  0  0  0  0  0  0  0  0  0  0  0
   27.9326  -15.6398  -17.6553 N   0  0  0  0  0  0  0  0  0  0  0  0
   26.9499  -16.2752  -18.4908 C   0  0  0  0  0  0  0  0  0  0  0  0
   26.7033  -15.7926  -19.6098 O   0  0  0  0  0  0  0  0  0  0  0  0
   26.2657  -17.4698  -18.0072 C   0  0  0  0  0  0  0  0  0  0  0  0
   24.8933  -17.2102  -17.4833 C   0  0  2  0  0  0  0  0  0  0  0  0
   24.3030  -18.5348  -17.2258 N   0  0  0  0  0  0  0  0  0  0  0  0
   23.9920  -16.4960  -18.4038 C   0  0  0  0  0  0  0  0  0  0  0  0
   23.7549  -15.2643  -18.3829 O   0  0  0  0  0  0  0  0  0  0  0  0
   23.3062  -17.2060  -19.4199 O   0  0  0  0  0  0  0  0  0  0  0  0
  2  1  1  6
  3  2  1  0
  3  4  1  0
  4  9  2  0
  4  5  1  0
  5  6  2  0
  6  7  1  0
  8  7  2  0
  9  8  1  0
 10 12  1  0
 10  2  1  0
 11 10  2  0
 13 14  1  1
 13 12  1  0
 14 15  1  0
 15 16  1  0
 16 17  1  0
 17 18  1  0
 19 13  1  0
 20 19  2  0
 21 22  1  0
 22 24  1  0
 22 23  2  0
 25 24  1  6
 25 27  1  0
 25 26  1  0
 26 19  1  0
 27 29  1  0
 28 27  2  0
M  END
$$$$
