HSI.pdb
     RDKit          3D

 25 25  0  0  1  0  0  0  0  0999 V2000
   10.2249  -17.9471   18.0404 N   0  0  0  0  0  0  0  0  0  0  0  0
    9.1300  -17.5153   18.8573 C   0  0  1  0  0  0  0  0  0  0  0  0
    8.2298  -18.7363   19.0772 C   0  0  0  0  0  0  0  0  0  0  0  0
    7.5146  -18.9769   17.7968 C   0  0  0  0  0  0  0  0  0  0  0  0
    6.8207  -18.0516   17.0062 C   0  0  0  0  0  0  0  0  0  0  0  0
    6.3234  -18.6799   15.9363 N   0  0  0  0  0  0  0  0  0  0  0  0
    6.6698  -19.9697   16.0079 C   0  0  0  0  0  0  0  0  0  0  0  0
    7.3904  -20.1404   17.1370 N   0  0  0  0  0  0  0  0  0  0  0  0
    9.5846  -16.9617   20.1612 C   0  0  0  0  0  0  0  0  0  0  0  0
   10.6689  -17.3467   20.6682 O   0  0  0  0  0  0  0  0  0  0  0  0
    7.2478  -14.6748   22.7641 O   0  0  0  0  0  0  0  0  0  0  0  0
    8.5495  -14.2384   22.4977 C   0  0  0  0  0  0  0  0  0  0  0  0
    9.3520  -15.4537   22.1043 C   0  0  2  0  0  0  0  0  0  0  0  0
    8.8360  -15.9950   20.8812 N   0  0  0  0  0  0  0  0  0  0  0  0
    9.4183  -16.4602   23.1908 C   0  0  0  0  0  0  0  0  0  0  0  0
    8.5110  -17.3312   23.2057 O   0  0  0  0  0  0  0  0  0  0  0  0
   12.6872  -20.5771   25.8644 C   0  0  0  0  0  0  0  0  0  0  0  0
   11.7145  -19.4893   26.1578 C   0  0  0  0  0  0  0  0  0  0  0  0
   11.4618  -18.5043   25.0729 C   0  0  2  0  0  0  0  0  0  0  0  0
   12.7421  -18.0312   24.4144 C   0  0  0  0  0  0  0  0  0  0  0  0
   10.4249  -17.4813   25.2930 C   0  0  2  0  0  0  0  0  0  0  0  0
   10.4013  -16.5052   24.1799 N   0  0  0  0  0  0  0  0  0  0  0  0
   10.3711  -16.7966   26.5796 C   0  0  0  0  0  0  0  0  0  0  0  0
   10.5876  -15.5747   26.7554 O   0  0  0  0  0  0  0  0  0  0  0  0
   10.0576  -17.4850   27.7805 O   0  0  0  0  0  0  0  0  0  0  0  0
  2  3  1  0
  2  1  1  6
  4  8  1  0
  4  3  1  0
  5  4  2  0
  6  5  1  0
  6  7  1  0
  7  8  2  0
  9  2  1  0
 10  9  2  0
 11 12  1  0
 13 12  1  1
 13 14  1  0
 14  9  1  0
 15 13  1  0
 15 22  1  0
 16 15  2  0
 18 17  1  0
 19 18  1  0
 19 20  1  1
 21 22  1  6
 21 23  1  0
 21 19  1  0
 23 25  1  0
 24 23  2  0
M  END
$$$$
