HSI.pdb
     RDKit          3D

 25 25  0  0  1  0  0  0  0  0999 V2000
    7.6128  -19.2003   19.3582 N   0  0  0  0  0  0  0  0  0  0  0  0
    7.7719  -17.8067   19.6498 C   0  0  1  0  0  0  0  0  0  0  0  0
    7.1333  -17.0334   18.4906 C   0  0  0  0  0  0  0  0  0  0  0  0
    8.0591  -17.1540   17.3343 C   0  0  0  0  0  0  0  0  0  0  0  0
    9.3168  -17.7698   17.2934 C   0  0  0  0  0  0  0  0  0  0  0  0
    9.8176  -17.6551   16.0593 N   0  0  0  0  0  0  0  0  0  0  0  0
    8.9331  -16.9913   15.3071 C   0  0  0  0  0  0  0  0  0  0  0  0
    7.8721  -16.6920   16.0867 N   0  0  0  0  0  0  0  0  0  0  0  0
    7.1389  -17.4260   20.9411 C   0  0  0  0  0  0  0  0  0  0  0  0
    5.9413  -17.0439   20.9701 O   0  0  0  0  0  0  0  0  0  0  0  0
    8.0506  -18.8454   24.6166 O   0  0  0  0  0  0  0  0  0  0  0  0
    6.8431  -18.2640   24.2168 C   0  0  0  0  0  0  0  0  0  0  0  0
    7.1885  -17.0550   23.3832 C   0  0  2  0  0  0  0  0  0  0  0  0
    7.8373  -17.4736   22.1753 N   0  0  0  0  0  0  0  0  0  0  0  0
    7.9811  -16.0571   24.1407 C   0  0  0  0  0  0  0  0  0  0  0  0
    9.2126  -16.0098   23.8891 O   0  0  0  0  0  0  0  0  0  0  0  0
    6.3059  -11.0649   26.8392 C   0  0  0  0  0  0  0  0  0  0  0  0
    6.5342  -12.5104   26.5677 C   0  0  0  0  0  0  0  0  0  0  0  0
    7.7384  -12.8614   25.7692 C   0  0  2  0  0  0  0  0  0  0  0  0
    7.6945  -12.2753   24.3724 C   0  0  0  0  0  0  0  0  0  0  0  0
    8.2737  -14.2289   25.8862 C   0  0  2  0  0  0  0  0  0  0  0  0
    7.4625  -15.1829   25.0964 N   0  0  0  0  0  0  0  0  0  0  0  0
    8.5535  -14.7658   27.2130 C   0  0  0  0  0  0  0  0  0  0  0  0
    7.9955  -15.7687   27.7170 O   0  0  0  0  0  0  0  0  0  0  0  0
    9.5159  -14.1737   28.0717 O   0  0  0  0  0  0  0  0  0  0  0  0
  2  3  1  0
  2  1  1  6
  4  8  1  0
  4  3  1  0
  5  4  2  0
  6  5  1  0
  6  7  1  0
  7  8  2  0
  9  2  1  0
 10  9  2  0
 11 12  1  0
 13 12  1  1
 13 14  1  0
 14  9  1  0
 15 13  1  0
 15 22  1  0
 16 15  2  0
 18 17  1  0
 19 18  1  0
 19 20  1  6
 21 22  1  1
 21 23  1  0
 21 19  1  0
 23 25  1  0
 24 23  2  0
M  END
$$$$
