HSI.pdb
     RDKit          3D

 25 25  0  0  1  0  0  0  0  0999 V2000
    7.4183  -17.2948   18.8943 N   0  0  0  0  0  0  0  0  0  0  0  0
    7.7435  -16.2134   19.7759 C   0  0  1  0  0  0  0  0  0  0  0  0
    6.9226  -15.0028   19.3175 C   0  0  0  0  0  0  0  0  0  0  0  0
    7.6034  -14.4545   18.1155 C   0  0  0  0  0  0  0  0  0  0  0  0
    8.7490  -14.9412   17.4724 C   0  0  0  0  0  0  0  0  0  0  0  0
    9.0294  -14.1547   16.4286 N   0  0  0  0  0  0  0  0  0  0  0  0
    8.1111  -13.1838   16.3756 C   0  0  0  0  0  0  0  0  0  0  0  0
    7.2522  -13.3730   17.4002 N   0  0  0  0  0  0  0  0  0  0  0  0
    7.4456  -16.5367   21.1971 C   0  0  0  0  0  0  0  0  0  0  0  0
    6.2658  -16.7825   21.5559 O   0  0  0  0  0  0  0  0  0  0  0  0
    9.8109  -18.4211   23.7387 O   0  0  0  0  0  0  0  0  0  0  0  0
    8.4316  -18.2673   23.9110 C   0  0  0  0  0  0  0  0  0  0  0  0
    8.0983  -16.8383   23.5608 C   0  0  2  0  0  0  0  0  0  0  0  0
    8.4529  -16.5830   22.1954 N   0  0  0  0  0  0  0  0  0  0  0  0
    8.7130  -15.8706   24.5008 C   0  0  0  0  0  0  0  0  0  0  0  0
    9.8532  -15.4369   24.1945 O   0  0  0  0  0  0  0  0  0  0  0  0
    6.1057  -11.7563   26.1653 C   0  0  0  0  0  0  0  0  0  0  0  0
    7.2725  -12.6203   25.8378 C   0  0  0  0  0  0  0  0  0  0  0  0
    7.8948  -13.3636   26.9653 C   0  0  2  0  0  0  0  0  0  0  0  0
    8.3667  -12.4422   28.0722 C   0  0  0  0  0  0  0  0  0  0  0  0
    8.7740  -14.5013   26.6446 C   0  0  2  0  0  0  0  0  0  0  0  0
    8.1225  -15.4169   25.6807 N   0  0  0  0  0  0  0  0  0  0  0  0
    9.3835  -15.2517   27.7366 C   0  0  0  0  0  0  0  0  0  0  0  0
    9.0473  -16.4050   28.0941 O   0  0  0  0  0  0  0  0  0  0  0  0
   10.4455  -14.7161   28.5107 O   0  0  0  0  0  0  0  0  0  0  0  0
  2  3  1  0
  2  1  1  6
  4  8  1  0
  4  3  1  0
  5  4  2  0
  6  5  1  0
  6  7  1  0
  7  8  2  0
  9  2  1  0
 10  9  2  0
 11 12  1  0
 13 12  1  1
 13 14  1  0
 14  9  1  0
 15 13  1  0
 15 22  1  0
 16 15  2  0
 18 17  1  0
 19 18  1  0
 19 20  1  6
 21 22  1  1
 21 23  1  0
 21 19  1  0
 23 25  1  0
 24 23  2  0
M  END
$$$$
