HSI.pdb
     RDKit          3D

 25 25  0  0  1  0  0  0  0  0999 V2000
   10.5499  -19.0649   20.3731 N   0  0  0  0  0  0  0  0  0  0  0  0
    9.6577  -18.6717   21.4228 C   0  0  1  0  0  0  0  0  0  0  0  0
   10.3101  -19.0948   22.7437 C   0  0  0  0  0  0  0  0  0  0  0  0
    9.7406  -20.4214   23.0966 C   0  0  0  0  0  0  0  0  0  0  0  0
    8.6996  -21.1125   22.4628 C   0  0  0  0  0  0  0  0  0  0  0  0
    8.4979  -22.2720   23.0966 N   0  0  0  0  0  0  0  0  0  0  0  0
    9.3664  -22.3532   24.1105 C   0  0  0  0  0  0  0  0  0  0  0  0
   10.1144  -21.2290   24.1030 N   0  0  0  0  0  0  0  0  0  0  0  0
    9.3933  -17.2077   21.4178 C   0  0  0  0  0  0  0  0  0  0  0  0
   10.3420  -16.3942   21.2793 O   0  0  0  0  0  0  0  0  0  0  0  0
    5.6487  -15.6891   22.0735 O   0  0  0  0  0  0  0  0  0  0  0  0
    6.4835  -14.9030   21.2728 C   0  0  0  0  0  0  0  0  0  0  0  0
    7.9047  -15.2487   21.6419 C   0  0  2  0  0  0  0  0  0  0  0  0
    8.0893  -16.6683   21.5656 N   0  0  0  0  0  0  0  0  0  0  0  0
    8.2951  -14.6923   22.9595 C   0  0  0  0  0  0  0  0  0  0  0  0
    8.5279  -13.4569   23.0009 O   0  0  0  0  0  0  0  0  0  0  0  0
    6.1145  -12.0283   25.4886 C   0  0  0  0  0  0  0  0  0  0  0  0
    7.2248  -12.8923   25.0027 C   0  0  0  0  0  0  0  0  0  0  0  0
    7.7044  -13.9528   25.9281 C   0  0  2  0  0  0  0  0  0  0  0  0
    7.8315  -13.4581   27.3549 C   0  0  0  0  0  0  0  0  0  0  0  0
    8.7656  -14.8582   25.4546 C   0  0  2  0  0  0  0  0  0  0  0  0
    8.4194  -15.4334   24.1351 N   0  0  0  0  0  0  0  0  0  0  0  0
    9.2625  -15.8937   26.3535 C   0  0  0  0  0  0  0  0  0  0  0  0
    8.8877  -17.0897   26.3522 O   0  0  0  0  0  0  0  0  0  0  0  0
   10.2469  -15.6196   27.3384 O   0  0  0  0  0  0  0  0  0  0  0  0
  2  3  1  0
  2  1  1  6
  4  8  1  0
  4  3  1  0
  5  4  2  0
  6  5  1  0
  6  7  1  0
  7  8  2  0
  9  2  1  0
 10  9  2  0
 11 12  1  0
 13 12  1  1
 13 14  1  0
 14  9  1  0
 15 13  1  0
 15 22  1  0
 16 15  2  0
 18 17  1  0
 19 18  1  0
 19 20  1  1
 21 22  1  6
 21 23  1  0
 21 19  1  0
 23 25  1  0
 24 23  2  0
M  END
$$$$
