HSI.pdb
     RDKit          3D

 25 25  0  0  1  0  0  0  0  0999 V2000
    7.5352  -17.5447   19.1729 N   0  0  0  0  0  0  0  0  0  0  0  0
    7.9376  -16.4944   20.0603 C   0  0  1  0  0  0  0  0  0  0  0  0
    7.0704  -15.2747   19.7291 C   0  0  0  0  0  0  0  0  0  0  0  0
    7.9955  -14.1226   19.5689 C   0  0  0  0  0  0  0  0  0  0  0  0
    9.3878  -14.1029   19.7239 C   0  0  0  0  0  0  0  0  0  0  0  0
    9.8343  -12.8650   19.4891 N   0  0  0  0  0  0  0  0  0  0  0  0
    8.7861  -12.0900   19.1901 C   0  0  0  0  0  0  0  0  0  0  0  0
    7.6775  -12.8593   19.2407 N   0  0  0  0  0  0  0  0  0  0  0  0
    7.7787  -16.8737   21.4900 C   0  0  0  0  0  0  0  0  0  0  0  0
    6.6966  -17.3682   21.8966 O   0  0  0  0  0  0  0  0  0  0  0  0
   10.4812  -18.4201   23.8452 O   0  0  0  0  0  0  0  0  0  0  0  0
    9.1027  -18.4387   24.0803 C   0  0  0  0  0  0  0  0  0  0  0  0
    8.5898  -17.0446   23.8174 C   0  0  2  0  0  0  0  0  0  0  0  0
    8.8148  -16.7008   22.4439 N   0  0  0  0  0  0  0  0  0  0  0  0
    9.1604  -16.0488   24.7559 C   0  0  0  0  0  0  0  0  0  0  0  0
   10.2756  -15.5577   24.4441 O   0  0  0  0  0  0  0  0  0  0  0  0
    6.2214  -12.2915   26.5720 C   0  0  0  0  0  0  0  0  0  0  0  0
    7.5300  -12.9068   26.2197 C   0  0  0  0  0  0  0  0  0  0  0  0
    8.2418  -13.6364   27.3023 C   0  0  2  0  0  0  0  0  0  0  0  0
    8.6973  -12.7146   28.4156 C   0  0  0  0  0  0  0  0  0  0  0  0
    9.1780  -14.7069   26.9178 C   0  0  2  0  0  0  0  0  0  0  0  0
    8.5547  -15.6276   25.9401 N   0  0  0  0  0  0  0  0  0  0  0  0
    9.8631  -15.4550   27.9657 C   0  0  0  0  0  0  0  0  0  0  0  0
   10.8584  -15.0472   28.6091 O   0  0  0  0  0  0  0  0  0  0  0  0
    9.4419  -16.7531   28.3551 O   0  0  0  0  0  0  0  0  0  0  0  0
  2  3  1  0
  2  1  1  6
  4  8  1  0
  4  3  1  0
  5  4  2  0
  6  5  1  0
  6  7  1  0
  7  8  2  0
  9  2  1  0
 10  9  2  0
 11 12  1  0
 13 12  1  1
 13 14  1  0
 14  9  1  0
 15 13  1  0
 15 22  1  0
 16 15  2  0
 18 17  1  0
 19 18  1  0
 19 20  1  6
 21 22  1  1
 21 23  1  0
 21 19  1  0
 23 25  1  0
 24 23  2  0
M  END
$$$$
