HSI.pdb
     RDKit          3D

 25 25  0  0  1  0  0  0  0  0999 V2000
    8.6304  -17.5328   18.6823 N   0  0  0  0  0  0  0  0  0  0  0  0
    9.2266  -17.6593   19.9788 C   0  0  1  0  0  0  0  0  0  0  0  0
   10.5918  -16.9656   19.9109 C   0  0  0  0  0  0  0  0  0  0  0  0
   11.5366  -17.9388   19.3035 C   0  0  0  0  0  0  0  0  0  0  0  0
   11.2753  -19.2472   18.8762 C   0  0  0  0  0  0  0  0  0  0  0  0
   12.4009  -19.7790   18.3895 N   0  0  0  0  0  0  0  0  0  0  0  0
   13.3732  -18.8659   18.4868 C   0  0  0  0  0  0  0  0  0  0  0  0
   12.8413  -17.7554   19.0410 N   0  0  0  0  0  0  0  0  0  0  0  0
    8.3866  -17.0526   21.0462 C   0  0  0  0  0  0  0  0  0  0  0  0
    7.7952  -15.9619   20.8424 O   0  0  0  0  0  0  0  0  0  0  0  0
    7.4289  -18.9303   24.6787 O   0  0  0  0  0  0  0  0  0  0  0  0
    6.5398  -18.1037   23.9844 C   0  0  0  0  0  0  0  0  0  0  0  0
    7.3651  -17.0452   23.2958 C   0  0  2  0  0  0  0  0  0  0  0  0
    8.2144  -17.6591   22.3174 N   0  0  0  0  0  0  0  0  0  0  0  0
    8.1173  -16.2042   24.2575 C   0  0  0  0  0  0  0  0  0  0  0  0
    9.3720  -16.2721   24.2014 O   0  0  0  0  0  0  0  0  0  0  0  0
    5.5402  -11.8971   26.5315 C   0  0  0  0  0  0  0  0  0  0  0  0
    6.6128  -12.7125   25.8990 C   0  0  0  0  0  0  0  0  0  0  0  0
    7.4577  -13.5314   26.8082 C   0  0  2  0  0  0  0  0  0  0  0  0
    8.0987  -12.7016   27.9024 C   0  0  0  0  0  0  0  0  0  0  0  0
    8.2969  -14.5857   26.2128 C   0  0  2  0  0  0  0  0  0  0  0  0
    7.5376  -15.3579   25.2032 N   0  0  0  0  0  0  0  0  0  0  0  0
    9.0377  -15.4801   27.0950 C   0  0  0  0  0  0  0  0  0  0  0  0
   10.1392  -15.2143   27.6309 O   0  0  0  0  0  0  0  0  0  0  0  0
    8.5526  -16.7711   27.4299 O   0  0  0  0  0  0  0  0  0  0  0  0
  2  3  1  0
  2  1  1  6
  4  8  1  0
  4  3  1  0
  5  4  2  0
  6  5  1  0
  6  7  1  0
  7  8  2  0
  9  2  1  0
 10  9  2  0
 11 12  1  0
 13 12  1  1
 13 14  1  0
 14  9  1  0
 15 13  1  0
 15 22  1  0
 16 15  2  0
 18 17  1  0
 19 18  1  0
 19 20  1  6
 21 22  1  1
 21 23  1  0
 21 19  1  0
 23 25  1  0
 24 23  2  0
M  END
$$$$
