HSI.pdb
     RDKit          3D

 25 25  0  0  1  0  0  0  0  0999 V2000
    8.1160  -13.7313   18.4447 N   0  0  0  0  0  0  0  0  0  0  0  0
    8.6909  -14.7439   19.2794 C   0  0  1  0  0  0  0  0  0  0  0  0
   10.1575  -14.3580   19.5020 C   0  0  0  0  0  0  0  0  0  0  0  0
   10.9361  -14.9822   18.4007 C   0  0  0  0  0  0  0  0  0  0  0  0
   10.4604  -15.7634   17.3395 C   0  0  0  0  0  0  0  0  0  0  0  0
   11.4916  -16.1277   16.5709 N   0  0  0  0  0  0  0  0  0  0  0  0
   12.6089  -15.6124   17.0952 C   0  0  0  0  0  0  0  0  0  0  0  0
   12.2634  -14.9208   18.2022 N   0  0  0  0  0  0  0  0  0  0  0  0
    7.9820  -14.8693   20.5813 C   0  0  0  0  0  0  0  0  0  0  0  0
    7.5412  -13.8453   21.1628 O   0  0  0  0  0  0  0  0  0  0  0  0
    7.4685  -18.3734   23.1384 O   0  0  0  0  0  0  0  0  0  0  0  0
    6.4522  -17.5758   22.6028 C   0  0  0  0  0  0  0  0  0  0  0  0
    7.0199  -16.1882   22.4358 C   0  0  2  0  0  0  0  0  0  0  0  0
    7.7724  -16.1202   21.2174 N   0  0  0  0  0  0  0  0  0  0  0  0
    7.8053  -15.7557   23.6165 C   0  0  0  0  0  0  0  0  0  0  0  0
    9.0557  -15.8575   23.5273 O   0  0  0  0  0  0  0  0  0  0  0  0
    6.1932  -11.7328   27.4555 C   0  0  0  0  0  0  0  0  0  0  0  0
    6.4029  -13.0993   26.9041 C   0  0  0  0  0  0  0  0  0  0  0  0
    7.7211  -13.3734   26.2729 C   0  0  2  0  0  0  0  0  0  0  0  0
    8.0878  -12.3359   25.2309 C   0  0  0  0  0  0  0  0  0  0  0  0
    8.0577  -14.7705   25.9490 C   0  0  2  0  0  0  0  0  0  0  0  0
    7.2605  -15.2527   24.7984 N   0  0  0  0  0  0  0  0  0  0  0  0
    8.0673  -15.7604   27.0200 C   0  0  0  0  0  0  0  0  0  0  0  0
    7.3175  -16.7629   27.0815 O   0  0  0  0  0  0  0  0  0  0  0  0
    8.9597  -15.6642   28.1193 O   0  0  0  0  0  0  0  0  0  0  0  0
  2  3  1  0
  2  1  1  6
  4  8  1  0
  4  3  1  0
  5  4  2  0
  6  5  1  0
  6  7  1  0
  7  8  2  0
  9  2  1  0
 10  9  2  0
 11 12  1  0
 13 12  1  1
 13 14  1  0
 14  9  1  0
 15 13  1  0
 15 22  1  0
 16 15  2  0
 18 17  1  0
 19 18  1  0
 19 20  1  6
 21 22  1  6
 21 23  1  0
 21 19  1  0
 23 25  1  0
 24 23  2  0
M  END
$$$$
