IDW.pdb
     RDKit          3D

 31 32  0  0  1  0  0  0  0  0999 V2000
   28.5307  -17.1664  -17.7983 C   0  0  0  0  0  0  0  0  0  0  0  0
   28.3109  -18.4339  -17.0263 C   0  0  0  0  0  0  0  0  0  0  0  0
   27.8223  -18.1553  -15.6001 C   0  0  2  0  0  0  0  0  0  0  0  0
   28.7236  -18.8278  -14.6205 C   0  0  0  0  0  0  0  0  0  0  0  0
   26.3972  -18.5785  -15.5386 C   0  0  2  0  0  0  0  0  0  0  0  0
   25.6366  -17.7998  -16.4801 N   0  0  0  0  0  0  0  0  0  0  0  0
   25.8149  -18.5484  -14.1819 C   0  0  0  0  0  0  0  0  0  0  0  0
   25.7573  -17.3994  -13.6298 O   0  0  0  0  0  0  0  0  0  0  0  0
   25.3359  -19.6619  -13.4810 N   0  0  0  0  0  0  0  0  0  0  0  0
   24.8619  -19.4763  -12.1208 C   0  0  1  0  0  0  0  0  0  0  0  0
   23.3675  -19.5579  -12.0260 C   0  0  0  0  0  0  0  0  0  0  0  0
   22.8713  -20.8597  -12.4943 C   0  0  0  0  0  0  0  0  0  0  0  0
   23.4137  -21.4590  -13.4551 O   0  0  0  0  0  0  0  0  0  0  0  0
   25.4124  -20.6000  -11.2822 C   0  0  0  0  0  0  0  0  0  0  0  0
   25.6737  -21.7122  -11.8121 O   0  0  0  0  0  0  0  0  0  0  0  0
   21.7691  -21.4650  -11.8695 O   0  0  0  0  0  0  0  0  0  0  0  0
   25.6525  -20.4588   -9.9042 N   0  0  0  0  0  0  0  0  0  0  0  0
   26.0501  -21.5194   -9.0139 C   0  0  1  0  0  0  0  0  0  0  0  0
   27.5377  -21.2975   -8.7090 C   0  0  0  0  0  0  0  0  0  0  0  0
   27.6925  -20.2366   -7.6563 C   0  0  0  0  0  0  0  0  0  0  0  0
   27.2018  -18.9493   -7.7145 C   0  0  0  0  0  0  0  0  0  0  0  0
   27.5427  -18.3059   -6.5892 N   0  0  0  0  0  0  0  0  0  0  0  0
   28.2552  -19.1243   -5.7633 C   0  0  0  0  0  0  0  0  0  0  0  0
   28.8197  -18.9406   -4.5224 C   0  0  0  0  0  0  0  0  0  0  0  0
   29.4951  -19.9686   -3.9179 C   0  0  0  0  0  0  0  0  0  0  0  0
   29.5862  -21.1794   -4.5925 C   0  0  0  0  0  0  0  0  0  0  0  0
   29.0249  -21.3663   -5.8295 C   0  0  0  0  0  0  0  0  0  0  0  0
   28.3404  -20.3266   -6.4437 C   0  0  0  0  0  0  0  0  0  0  0  0
   25.2633  -21.5301   -7.7654 C   0  0  0  0  0  0  0  0  0  0  0  0
   25.5850  -22.3114   -6.8407 O   0  0  0  0  0  0  0  0  0  0  0  0
   24.1765  -20.6934   -7.5962 O   0  0  0  0  0  0  0  0  0  0  0  0
  1  2  1  0
  2  3  1  0
  3  4  1  1
  5  3  1  0
  5  6  1  6
  7  5  1  0
  7  8  2  0
  9  7  1  0
 10  9  1  0
 10 11  1  6
 12 13  2  0
 12 11  1  0
 14 10  1  0
 15 14  2  0
 16 12  1  0
 17 14  1  0
 18 19  1  1
 18 17  1  0
 20 19  1  0
 21 20  2  0
 22 23  1  0
 22 21  1  0
 23 28  2  0
 24 25  2  0
 24 23  1  0
 25 26  1  0
 26 27  2  0
 28 27  1  0
 28 20  1  0
 29 18  1  0
 30 29  2  0
 31 29  1  0
M  END
$$$$
