IDW.pdb
     RDKit          3D

 31 32  0  0  1  0  0  0  0  0999 V2000
   28.3250  -20.9015  -14.1816 C   0  0  0  0  0  0  0  0  0  0  0  0
   27.2529  -21.2843  -13.2042 C   0  0  0  0  0  0  0  0  0  0  0  0
   26.7421  -20.0733  -12.4151 C   0  0  2  0  0  0  0  0  0  0  0  0
   27.8776  -19.4281  -11.6950 C   0  0  0  0  0  0  0  0  0  0  0  0
   25.6371  -20.5571  -11.5440 C   0  0  2  0  0  0  0  0  0  0  0  0
   26.1533  -21.5533  -10.6428 N   0  0  0  0  0  0  0  0  0  0  0  0
   24.4467  -21.0266  -12.2809 C   0  0  0  0  0  0  0  0  0  0  0  0
   24.6800  -21.6494  -13.3700 O   0  0  0  0  0  0  0  0  0  0  0  0
   23.1187  -20.8404  -11.8779 N   0  0  0  0  0  0  0  0  0  0  0  0
   22.0552  -21.3009  -12.7531 C   0  0  1  0  0  0  0  0  0  0  0  0
   20.9552  -21.9838  -11.9965 C   0  0  0  0  0  0  0  0  0  0  0  0
   19.8984  -22.4597  -12.9006 C   0  0  0  0  0  0  0  0  0  0  0  0
   19.5593  -23.6682  -12.9310 O   0  0  0  0  0  0  0  0  0  0  0  0
   21.4436  -20.0926  -13.4127 C   0  0  0  0  0  0  0  0  0  0  0  0
   21.1737  -19.0703  -12.7286 O   0  0  0  0  0  0  0  0  0  0  0  0
   19.2407  -21.5623  -13.7571 O   0  0  0  0  0  0  0  0  0  0  0  0
   21.1547  -20.0551  -14.7880 N   0  0  0  0  0  0  0  0  0  0  0  0
   20.5141  -18.9634  -15.4762 C   0  0  1  0  0  0  0  0  0  0  0  0
   21.6169  -17.9474  -15.8028 C   0  0  0  0  0  0  0  0  0  0  0  0
   22.6732  -18.5933  -16.6542 C   0  0  0  0  0  0  0  0  0  0  0  0
   22.4588  -19.3780  -17.7676 C   0  0  0  0  0  0  0  0  0  0  0  0
   23.6445  -19.7693  -18.2549 N   0  0  0  0  0  0  0  0  0  0  0  0
   24.6643  -19.2699  -17.4997 C   0  0  0  0  0  0  0  0  0  0  0  0
   26.0328  -19.3811  -17.5835 C   0  0  0  0  0  0  0  0  0  0  0  0
   26.8290  -18.7542  -16.6608 C   0  0  0  0  0  0  0  0  0  0  0  0
   26.2137  -18.0167  -15.6573 C   0  0  0  0  0  0  0  0  0  0  0  0
   24.8499  -17.9036  -15.5705 C   0  0  0  0  0  0  0  0  0  0  0  0
   24.0416  -18.5376  -16.5039 C   0  0  0  0  0  0  0  0  0  0  0  0
   19.8321  -19.3995  -16.7101 C   0  0  0  0  0  0  0  0  0  0  0  0
   19.1057  -18.5903  -17.3319 O   0  0  0  0  0  0  0  0  0  0  0  0
   19.9793  -20.6855  -17.1940 O   0  0  0  0  0  0  0  0  0  0  0  0
  1  2  1  0
  2  3  1  0
  3  4  1  1
  5  3  1  0
  5  6  1  6
  7  5  1  0
  7  8  2  0
  9  7  1  0
 10  9  1  0
 10 11  1  1
 12 13  2  0
 12 11  1  0
 14 10  1  0
 15 14  2  0
 16 12  1  0
 17 14  1  0
 18 19  1  6
 18 17  1  0
 20 19  1  0
 21 20  2  0
 22 23  1  0
 22 21  1  0
 23 28  2  0
 24 25  2  0
 24 23  1  0
 25 26  1  0
 26 27  2  0
 28 27  1  0
 28 20  1  0
 29 18  1  0
 30 29  2  0
 31 29  1  0
M  END
$$$$
