IDW.pdb
     RDKit          3D

 31 32  0  0  1  0  0  0  0  0999 V2000
   28.1727  -18.6832  -20.2721 C   0  0  0  0  0  0  0  0  0  0  0  0
   28.0262  -19.6282  -19.1159 C   0  0  0  0  0  0  0  0  0  0  0  0
   29.2781  -19.6452  -18.2314 C   0  0  2  0  0  0  0  0  0  0  0  0
   30.4685  -20.0078  -19.0534 C   0  0  0  0  0  0  0  0  0  0  0  0
   28.9945  -20.5624  -17.0946 C   0  0  2  0  0  0  0  0  0  0  0  0
   28.8281  -21.8990  -17.6017 N   0  0  0  0  0  0  0  0  0  0  0  0
   27.8656  -20.1386  -16.2422 C   0  0  0  0  0  0  0  0  0  0  0  0
   28.0009  -19.0078  -15.6665 O   0  0  0  0  0  0  0  0  0  0  0  0
   26.6917  -20.8714  -16.0290 N   0  0  0  0  0  0  0  0  0  0  0  0
   25.6905  -20.3334  -15.1249 C   0  0  1  0  0  0  0  0  0  0  0  0
   24.3328  -20.2672  -15.7584 C   0  0  0  0  0  0  0  0  0  0  0  0
   23.3598  -19.6120  -14.8727 C   0  0  0  0  0  0  0  0  0  0  0  0
   22.1475  -19.5216  -15.1866 O   0  0  0  0  0  0  0  0  0  0  0  0
   25.5768  -21.2703  -13.9508 C   0  0  0  0  0  0  0  0  0  0  0  0
   25.7306  -22.5092  -14.1160 O   0  0  0  0  0  0  0  0  0  0  0  0
   23.7716  -19.0686  -13.6452 O   0  0  0  0  0  0  0  0  0  0  0  0
   25.3005  -20.8125  -12.6506 N   0  0  0  0  0  0  0  0  0  0  0  0
   25.0891  -21.6513  -11.4984 C   0  0  1  0  0  0  0  0  0  0  0  0
   26.4480  -21.7776  -10.7965 C   0  0  0  0  0  0  0  0  0  0  0  0
   26.5482  -20.7682   -9.6881 C   0  0  0  0  0  0  0  0  0  0  0  0
   25.6000  -19.8246   -9.3535 C   0  0  0  0  0  0  0  0  0  0  0  0
   26.0505  -19.1099   -8.3129 N   0  0  0  0  0  0  0  0  0  0  0  0
   27.2850  -19.5436   -7.9288 C   0  0  0  0  0  0  0  0  0  0  0  0
   28.1502  -19.1459   -6.9361 C   0  0  0  0  0  0  0  0  0  0  0  0
   29.3543  -19.7818   -6.7813 C   0  0  0  0  0  0  0  0  0  0  0  0
   29.6621  -20.8229   -7.6478 C   0  0  0  0  0  0  0  0  0  0  0  0
   28.8023  -21.2222   -8.6385 C   0  0  0  0  0  0  0  0  0  0  0  0
   27.5822  -20.5796   -8.7972 C   0  0  0  0  0  0  0  0  0  0  0  0
   24.0810  -21.0950  -10.5754 C   0  0  0  0  0  0  0  0  0  0  0  0
   23.7227  -19.9013  -10.7006 O   0  0  0  0  0  0  0  0  0  0  0  0
   23.5236  -21.8666   -9.5735 O   0  0  0  0  0  0  0  0  0  0  0  0
  1  2  1  0
  2  3  1  0
  3  4  1  6
  5  3  1  0
  5  6  1  6
  7  5  1  0
  7  8  2  0
  9  7  1  0
 10  9  1  0
 10 11  1  6
 12 13  2  0
 12 11  1  0
 14 10  1  0
 15 14  2  0
 16 12  1  0
 17 14  1  0
 18 19  1  1
 18 17  1  0
 20 19  1  0
 21 20  2  0
 22 23  1  0
 22 21  1  0
 23 28  2  0
 24 25  2  0
 24 23  1  0
 25 26  1  0
 26 27  2  0
 28 27  1  0
 28 20  1  0
 29 18  1  0
 30 29  2  0
 31 29  1  0
M  END
$$$$
