IDW.pdb
     RDKit          3D

 31 32  0  0  1  0  0  0  0  0999 V2000
   29.3071  -18.5477  -18.2483 C   0  0  0  0  0  0  0  0  0  0  0  0
   29.0882  -19.4241  -17.0504 C   0  0  0  0  0  0  0  0  0  0  0  0
   28.2352  -18.7285  -15.9832 C   0  0  2  0  0  0  0  0  0  0  0  0
   28.8799  -17.4443  -15.5841 C   0  0  0  0  0  0  0  0  0  0  0  0
   28.0400  -19.7056  -14.8782 C   0  0  2  0  0  0  0  0  0  0  0  0
   28.0282  -21.0363  -15.4265 N   0  0  0  0  0  0  0  0  0  0  0  0
   26.8607  -19.4345  -14.0318 C   0  0  0  0  0  0  0  0  0  0  0  0
   26.8276  -18.2840  -13.4809 O   0  0  0  0  0  0  0  0  0  0  0  0
   25.8076  -20.3277  -13.7996 N   0  0  0  0  0  0  0  0  0  0  0  0
   24.7330  -19.9200  -12.9117 C   0  0  1  0  0  0  0  0  0  0  0  0
   23.3812  -20.1246  -13.5280 C   0  0  0  0  0  0  0  0  0  0  0  0
   23.0411  -19.0305  -14.4487 C   0  0  0  0  0  0  0  0  0  0  0  0
   22.8992  -17.8520  -14.0395 O   0  0  0  0  0  0  0  0  0  0  0  0
   24.7888  -20.7947  -11.6866 C   0  0  0  0  0  0  0  0  0  0  0  0
   23.8577  -21.6093  -11.4510 O   0  0  0  0  0  0  0  0  0  0  0  0
   22.8664  -19.2848  -15.8185 O   0  0  0  0  0  0  0  0  0  0  0  0
   25.8576  -20.7405  -10.7750 N   0  0  0  0  0  0  0  0  0  0  0  0
   25.9483  -21.4941   -9.5504 C   0  0  1  0  0  0  0  0  0  0  0  0
   27.3726  -21.2885   -9.0170 C   0  0  0  0  0  0  0  0  0  0  0  0
   27.3708  -20.2386   -7.9421 C   0  0  0  0  0  0  0  0  0  0  0  0
   26.6607  -19.0567   -7.9548 C   0  0  0  0  0  0  0  0  0  0  0  0
   26.9175  -18.3865   -6.8228 N   0  0  0  0  0  0  0  0  0  0  0  0
   27.7869  -19.0836   -6.0369 C   0  0  0  0  0  0  0  0  0  0  0  0
   28.3477  -18.8289   -4.8069 C   0  0  0  0  0  0  0  0  0  0  0  0
   29.2106  -19.7342   -4.2465 C   0  0  0  0  0  0  0  0  0  0  0  0
   29.4920  -20.8961   -4.9538 C   0  0  0  0  0  0  0  0  0  0  0  0
   28.9350  -21.1535   -6.1800 C   0  0  0  0  0  0  0  0  0  0  0  0
   28.0608  -20.2380   -6.7495 C   0  0  0  0  0  0  0  0  0  0  0  0
   24.9546  -21.0613   -8.5489 C   0  0  0  0  0  0  0  0  0  0  0  0
   24.8001  -21.7335   -7.5033 O   0  0  0  0  0  0  0  0  0  0  0  0
   24.1897  -19.9267   -8.7424 O   0  0  0  0  0  0  0  0  0  0  0  0
  1  2  1  0
  2  3  1  0
  3  4  1  1
  5  3  1  0
  5  6  1  6
  7  5  1  0
  7  8  2  0
  9  7  1  0
 10  9  1  0
 10 11  1  6
 12 13  2  0
 12 11  1  0
 14 10  1  0
 15 14  2  0
 16 12  1  0
 17 14  1  0
 18 19  1  1
 18 17  1  0
 20 19  1  0
 21 20  2  0
 22 23  1  0
 22 21  1  0
 23 28  2  0
 24 25  2  0
 24 23  1  0
 25 26  1  0
 26 27  2  0
 28 27  1  0
 28 20  1  0
 29 18  1  0
 30 29  2  0
 31 29  1  0
M  END
$$$$
