IDW.pdb
     RDKit          3D

 31 32  0  0  1  0  0  0  0  0999 V2000
   33.6400  -33.8307   -9.1351 C   0  0  0  0  0  0  0  0  0  0  0  0
   33.9418  -34.9187   -8.1470 C   0  0  0  0  0  0  0  0  0  0  0  0
   32.7888  -35.1266   -7.1582 C   0  0  2  0  0  0  0  0  0  0  0  0
   32.5868  -33.8865   -6.3549 C   0  0  0  0  0  0  0  0  0  0  0  0
   33.1098  -36.3448   -6.3665 C   0  0  2  0  0  0  0  0  0  0  0  0
   33.2007  -37.4716   -7.2572 N   0  0  0  0  0  0  0  0  0  0  0  0
   32.1913  -36.5921   -5.2370 C   0  0  0  0  0  0  0  0  0  0  0  0
   31.0746  -37.1306   -5.5394 O   0  0  0  0  0  0  0  0  0  0  0  0
   32.4545  -36.2848   -3.8965 N   0  0  0  0  0  0  0  0  0  0  0  0
   31.4123  -36.5175   -2.9121 C   0  0  1  0  0  0  0  0  0  0  0  0
   31.9404  -36.4800   -1.5090 C   0  0  0  0  0  0  0  0  0  0  0  0
   30.8610  -36.6486   -0.5257 C   0  0  0  0  0  0  0  0  0  0  0  0
   30.3240  -35.6599    0.0315 O   0  0  0  0  0  0  0  0  0  0  0  0
   30.4088  -35.4002   -3.0286 C   0  0  0  0  0  0  0  0  0  0  0  0
   30.8021  -34.2109   -3.1585 O   0  0  0  0  0  0  0  0  0  0  0  0
   30.4046  -37.9325   -0.1867 O   0  0  0  0  0  0  0  0  0  0  0  0
   29.0225  -35.6317   -2.9979 N   0  0  0  0  0  0  0  0  0  0  0  0
   28.0067  -34.6525   -3.2901 C   0  0  1  0  0  0  0  0  0  0  0  0
   28.3350  -34.0853   -4.6778 C   0  0  0  0  0  0  0  0  0  0  0  0
   27.1826  -33.2628   -5.1811 C   0  0  0  0  0  0  0  0  0  0  0  0
   26.0314  -32.9572   -4.4863 C   0  0  0  0  0  0  0  0  0  0  0  0
   25.2425  -32.2058   -5.2671 N   0  0  0  0  0  0  0  0  0  0  0  0
   25.8284  -31.9911   -6.4796 C   0  0  0  0  0  0  0  0  0  0  0  0
   25.4331  -31.3000   -7.6013 C   0  0  0  0  0  0  0  0  0  0  0  0
   26.2491  -31.2548   -8.7015 C   0  0  0  0  0  0  0  0  0  0  0  0
   27.4668  -31.9205   -8.6421 C   0  0  0  0  0  0  0  0  0  0  0  0
   27.8644  -32.6105   -7.5259 C   0  0  0  0  0  0  0  0  0  0  0  0
   27.0396  -32.6576   -6.4105 C   0  0  0  0  0  0  0  0  0  0  0  0
   26.6487  -35.2299   -3.2765 C   0  0  0  0  0  0  0  0  0  0  0  0
   26.4612  -36.3755   -3.7473 O   0  0  0  0  0  0  0  0  0  0  0  0
   25.5778  -34.5303   -2.7535 O   0  0  0  0  0  0  0  0  0  0  0  0
  1  2  1  0
  2  3  1  0
  3  4  1  1
  5  3  1  0
  5  6  1  6
  7  5  1  0
  7  8  2  0
  9  7  1  0
 10  9  1  0
 10 11  1  1
 12 13  2  0
 12 11  1  0
 14 10  1  0
 15 14  2  0
 16 12  1  0
 17 14  1  0
 18 19  1  6
 18 17  1  0
 20 19  1  0
 21 20  2  0
 22 23  1  0
 22 21  1  0
 23 28  2  0
 24 25  2  0
 24 23  1  0
 25 26  1  0
 26 27  2  0
 28 27  1  0
 28 20  1  0
 29 18  1  0
 30 29  2  0
 31 29  1  0
M  END
$$$$
