IDW.pdb
     RDKit          3D

 31 32  0  0  1  0  0  0  0  0999 V2000
   21.4150  -17.7825  -16.7765 C   0  0  0  0  0  0  0  0  0  0  0  0
   21.5875  -17.4731  -15.3185 C   0  0  0  0  0  0  0  0  0  0  0  0
   22.0293  -18.7065  -14.5224 C   0  0  2  0  0  0  0  0  0  0  0  0
   21.0316  -18.9972  -13.4526 C   0  0  0  0  0  0  0  0  0  0  0  0
   23.4111  -18.4399  -14.0396 C   0  0  2  0  0  0  0  0  0  0  0  0
   24.2542  -18.1504  -15.1695 N   0  0  0  0  0  0  0  0  0  0  0  0
   23.9675  -19.5034  -13.1793 C   0  0  0  0  0  0  0  0  0  0  0  0
   23.2297  -19.8693  -12.2045 O   0  0  0  0  0  0  0  0  0  0  0  0
   25.2126  -20.1193  -13.3553 N   0  0  0  0  0  0  0  0  0  0  0  0
   25.6059  -21.1691  -12.4320 C   0  0  1  0  0  0  0  0  0  0  0  0
   26.6842  -22.0450  -12.9968 C   0  0  0  0  0  0  0  0  0  0  0  0
   26.3758  -22.4534  -14.3747 C   0  0  0  0  0  0  0  0  0  0  0  0
   25.2713  -22.9715  -14.6713 O   0  0  0  0  0  0  0  0  0  0  0  0
   26.1785  -20.5129  -11.2029 C   0  0  0  0  0  0  0  0  0  0  0  0
   26.2738  -19.2585  -11.1446 O   0  0  0  0  0  0  0  0  0  0  0  0
   27.3207  -22.2700  -15.3970 O   0  0  0  0  0  0  0  0  0  0  0  0
   26.6210  -21.2554  -10.0941 N   0  0  0  0  0  0  0  0  0  0  0  0
   27.2644  -20.7081   -8.9269 C   0  0  1  0  0  0  0  0  0  0  0  0
   26.2390  -19.7825   -8.2581 C   0  0  0  0  0  0  0  0  0  0  0  0
   26.9238  -18.9006   -7.2525 C   0  0  0  0  0  0  0  0  0  0  0  0
   27.1499  -17.5458   -7.3732 C   0  0  0  0  0  0  0  0  0  0  0  0
   27.7854  -17.1145   -6.2746 N   0  0  0  0  0  0  0  0  0  0  0  0
   27.9987  -18.1440   -5.4061 C   0  0  0  0  0  0  0  0  0  0  0  0
   28.5965  -18.2170   -4.1694 C   0  0  0  0  0  0  0  0  0  0  0  0
   28.6687  -19.4179   -3.5129 C   0  0  0  0  0  0  0  0  0  0  0  0
   28.1258  -20.5368   -4.1317 C   0  0  0  0  0  0  0  0  0  0  0  0
   27.5292  -20.4680   -5.3643 C   0  0  0  0  0  0  0  0  0  0  0  0
   27.4549  -19.2528   -6.0310 C   0  0  0  0  0  0  0  0  0  0  0  0
   27.7060  -21.7551   -7.9854 C   0  0  0  0  0  0  0  0  0  0  0  0
   28.9310  -21.9465   -7.8065 O   0  0  0  0  0  0  0  0  0  0  0  0
   26.7930  -22.5301   -7.2958 O   0  0  0  0  0  0  0  0  0  0  0  0
  1  2  1  0
  2  3  1  0
  3  4  1  1
  5  3  1  0
  5  6  1  6
  7  5  1  0
  7  8  2  0
  9  7  1  0
 10  9  1  0
 10 11  1  6
 12 13  2  0
 12 11  1  0
 14 10  1  0
 15 14  2  0
 16 12  1  0
 17 14  1  0
 18 19  1  1
 18 17  1  0
 20 19  1  0
 21 20  2  0
 22 23  1  0
 22 21  1  0
 23 28  2  0
 24 25  2  0
 24 23  1  0
 25 26  1  0
 26 27  2  0
 28 27  1  0
 28 20  1  0
 29 18  1  0
 30 29  2  0
 31 29  1  0
M  END
$$$$
