IDW.pdb
     RDKit          3D

 31 32  0  0  1  0  0  0  0  0999 V2000
   27.1076  -15.1078  -20.7674 C   0  0  0  0  0  0  0  0  0  0  0  0
   28.1749  -15.9563  -20.1412 C   0  0  0  0  0  0  0  0  0  0  0  0
   27.7942  -17.4413  -20.1385 C   0  0  2  0  0  0  0  0  0  0  0  0
   26.5105  -17.6289  -19.4029 C   0  0  0  0  0  0  0  0  0  0  0  0
   28.9548  -18.1864  -19.5803 C   0  0  2  0  0  0  0  0  0  0  0  0
   30.1098  -17.9380  -20.4024 N   0  0  0  0  0  0  0  0  0  0  0  0
   28.7075  -19.6279  -19.3769 C   0  0  0  0  0  0  0  0  0  0  0  0
   28.7315  -20.3477  -20.4304 O   0  0  0  0  0  0  0  0  0  0  0  0
   28.4560  -20.2405  -18.1432 N   0  0  0  0  0  0  0  0  0  0  0  0
   28.1571  -21.6616  -18.1205 C   0  0  1  0  0  0  0  0  0  0  0  0
   29.1146  -22.4277  -17.2573 C   0  0  0  0  0  0  0  0  0  0  0  0
   28.8496  -23.8724  -17.3148 C   0  0  0  0  0  0  0  0  0  0  0  0
   27.9865  -24.3482  -18.0927 O   0  0  0  0  0  0  0  0  0  0  0  0
   26.7895  -21.8366  -17.5136 C   0  0  0  0  0  0  0  0  0  0  0  0
   26.2186  -22.9582  -17.5593 O   0  0  0  0  0  0  0  0  0  0  0  0
   29.5641  -24.7578  -16.4921 O   0  0  0  0  0  0  0  0  0  0  0  0
   26.1077  -20.7801  -16.8848 N   0  0  0  0  0  0  0  0  0  0  0  0
   24.7527  -20.8343  -16.3983 C   0  0  1  0  0  0  0  0  0  0  0  0
   24.7061  -19.9559  -15.1407 C   0  0  0  0  0  0  0  0  0  0  0  0
   24.9706  -18.5227  -15.5064 C   0  0  0  0  0  0  0  0  0  0  0  0
   24.0215  -17.5523  -15.7487 C   0  0  0  0  0  0  0  0  0  0  0  0
   24.6447  -16.4029  -16.0437 N   0  0  0  0  0  0  0  0  0  0  0  0
   25.9981  -16.5659  -16.0085 C   0  0  0  0  0  0  0  0  0  0  0  0
   27.0505  -15.7086  -16.2315 C   0  0  0  0  0  0  0  0  0  0  0  0
   28.3390  -16.1625  -16.1223 C   0  0  0  0  0  0  0  0  0  0  0  0
   28.5382  -17.4950  -15.7845 C   0  0  0  0  0  0  0  0  0  0  0  0
   27.4918  -18.3525  -15.5615 C   0  0  0  0  0  0  0  0  0  0  0  0
   26.1860  -17.8951  -15.6716 C   0  0  0  0  0  0  0  0  0  0  0  0
   23.7771  -20.3573  -17.3975 C   0  0  0  0  0  0  0  0  0  0  0  0
   24.1875  -19.8702  -18.4761 O   0  0  0  0  0  0  0  0  0  0  0  0
   22.4170  -20.4378  -17.1662 O   0  0  0  0  0  0  0  0  0  0  0  0
  1  2  1  0
  2  3  1  0
  3  4  1  1
  5  3  1  0
  5  6  1  6
  7  5  1  0
  7  8  2  0
  9  7  1  0
 10  9  1  0
 10 11  1  1
 12 13  2  0
 12 11  1  0
 14 10  1  0
 15 14  2  0
 16 12  1  0
 17 14  1  0
 18 19  1  1
 18 17  1  0
 20 19  1  0
 21 20  2  0
 22 23  1  0
 22 21  1  0
 23 28  2  0
 24 25  2  0
 24 23  1  0
 25 26  1  0
 26 27  2  0
 28 27  1  0
 28 20  1  0
 29 18  1  0
 30 29  2  0
 31 29  1  0
M  END
$$$$
