LQG.pdb
     RDKit          3D

 22 21  0  0  1  0  0  0  0  0999 V2000
    6.8407  -11.9853   24.6495 C   0  0  0  0  0  0  0  0  0  0  0  0
    6.3397  -12.6235   25.9228 C   0  0  2  0  0  0  0  0  0  0  0  0
    6.5452  -11.6738   27.0512 C   0  0  0  0  0  0  0  0  0  0  0  0
    7.0047  -13.9488   26.1099 C   0  0  0  0  0  0  0  0  0  0  0  0
    6.7673  -14.9424   25.0278 C   0  0  2  0  0  0  0  0  0  0  0  0
    5.4423  -15.4731   24.9584 N   0  0  0  0  0  0  0  0  0  0  0  0
    7.7141  -16.0815   25.2585 C   0  0  0  0  0  0  0  0  0  0  0  0
    7.3856  -17.0435   26.0338 O   0  0  0  0  0  0  0  0  0  0  0  0
   10.3061  -17.2849   20.9908 N   0  0  0  0  0  0  0  0  0  0  0  0
   11.1138  -16.3010   21.6290 C   0  0  0  0  0  0  0  0  0  0  0  0
   11.6087  -15.3715   20.9443 O   0  0  0  0  0  0  0  0  0  0  0  0
   11.3683  -16.3728   23.0882 C   0  0  0  0  0  0  0  0  0  0  0  0
   10.7160  -17.5898   23.6344 C   0  0  0  0  0  0  0  0  0  0  0  0
    9.8518  -17.3383   24.8392 C   0  0  2  0  0  0  0  0  0  0  0  0
    8.9927  -16.1825   24.6646 N   0  0  0  0  0  0  0  0  0  0  0  0
   10.6206  -17.2441   26.0921 C   0  0  0  0  0  0  0  0  0  0  0  0
   11.5162  -16.3946   26.2427 O   0  0  0  0  0  0  0  0  0  0  0  0
   10.3296  -18.1404   27.1410 N   0  0  0  0  0  0  0  0  0  0  0  0
   10.9935  -18.0300   28.4226 C   0  0  0  0  0  0  0  0  0  0  0  0
   12.0854  -19.0192   28.5656 C   0  0  0  0  0  0  0  0  0  0  0  0
   13.0006  -19.0449   27.7112 O   0  0  0  0  0  0  0  0  0  0  0  0
   12.1337  -19.9201   29.6111 O   0  0  0  0  0  0  0  0  0  0  0  0
  2  1  1  6
  2  3  1  0
  4  2  1  0
  5  4  1  0
  5  7  1  0
  5  6  1  1
  7  8  2  0
  9 10  1  0
 10 11  2  0
 12 10  1  0
 12 13  1  0
 14 13  1  6
 15  7  1  0
 15 14  1  0
 16 14  1  0
 16 17  2  0
 18 16  1  0
 19 18  1  0
 19 20  1  0
 20 22  1  0
 21 20  2  0
M  END
$$$$
