LQG.pdb
     RDKit          3D

 22 21  0  0  1  0  0  0  0  0999 V2000
    6.1353  -12.2760   26.0473 C   0  0  0  0  0  0  0  0  0  0  0  0
    6.8872  -13.2224   26.9519 C   0  0  2  0  0  0  0  0  0  0  0  0
    7.7928  -12.4318   27.8307 C   0  0  0  0  0  0  0  0  0  0  0  0
    7.5842  -14.2533   26.1242 C   0  0  0  0  0  0  0  0  0  0  0  0
    6.7046  -15.0689   25.2436 C   0  0  2  0  0  0  0  0  0  0  0  0
    5.9076  -16.0513   25.9084 N   0  0  0  0  0  0  0  0  0  0  0  0
    7.5928  -15.7746   24.2637 C   0  0  0  0  0  0  0  0  0  0  0  0
    7.7353  -17.0437   24.3234 O   0  0  0  0  0  0  0  0  0  0  0  0
    5.4472  -16.2188   20.6071 N   0  0  0  0  0  0  0  0  0  0  0  0
    6.7556  -15.9870   20.0950 C   0  0  0  0  0  0  0  0  0  0  0  0
    7.2681  -16.8247   19.3119 O   0  0  0  0  0  0  0  0  0  0  0  0
    7.5061  -14.7680   20.4825 C   0  0  0  0  0  0  0  0  0  0  0  0
    8.8919  -15.1501   20.8544 C   0  0  0  0  0  0  0  0  0  0  0  0
    9.0045  -15.8447   22.1835 C   0  0  2  0  0  0  0  0  0  0  0  0
    8.3150  -15.1246   23.2372 N   0  0  0  0  0  0  0  0  0  0  0  0
   10.3962  -16.1400   22.5650 C   0  0  0  0  0  0  0  0  0  0  0  0
   11.1176  -16.8782   21.8714 O   0  0  0  0  0  0  0  0  0  0  0  0
   10.9166  -15.5695   23.7448 N   0  0  0  0  0  0  0  0  0  0  0  0
   12.1400  -16.0671   24.3376 C   0  0  0  0  0  0  0  0  0  0  0  0
   13.3390  -15.5845   23.6160 C   0  0  0  0  0  0  0  0  0  0  0  0
   13.1930  -14.8304   22.6269 O   0  0  0  0  0  0  0  0  0  0  0  0
   14.6199  -15.9361   23.9940 O   0  0  0  0  0  0  0  0  0  0  0  0
  2  1  1  6
  2  3  1  0
  4  2  1  0
  5  4  1  0
  5  7  1  0
  5  6  1  1
  7  8  2  0
  9 10  1  0
 10 11  2  0
 12 10  1  0
 12 13  1  0
 14 13  1  6
 15  7  1  0
 15 14  1  0
 16 14  1  0
 16 17  2  0
 18 16  1  0
 19 18  1  0
 19 20  1  0
 20 22  1  0
 21 20  2  0
M  END
$$$$
