LQG.pdb
     RDKit          3D

 22 21  0  0  1  0  0  0  0  0999 V2000
    6.0179  -12.7653   24.7680 C   0  0  0  0  0  0  0  0  0  0  0  0
    6.3269  -13.2839   26.1519 C   0  0  2  0  0  0  0  0  0  0  0  0
    6.7718  -12.1469   27.0044 C   0  0  0  0  0  0  0  0  0  0  0  0
    7.3163  -14.3999   26.0554 C   0  0  0  0  0  0  0  0  0  0  0  0
    6.9015  -15.5515   25.2091 C   0  0  2  0  0  0  0  0  0  0  0  0
    6.2317  -16.6110   25.8955 N   0  0  0  0  0  0  0  0  0  0  0  0
    8.1444  -16.1121   24.5861 C   0  0  0  0  0  0  0  0  0  0  0  0
    8.9187  -16.8693   25.2655 O   0  0  0  0  0  0  0  0  0  0  0  0
   10.4780  -19.7722   20.1317 N   0  0  0  0  0  0  0  0  0  0  0  0
   10.2217  -18.4225   19.7569 C   0  0  0  0  0  0  0  0  0  0  0  0
    9.5224  -18.1876   18.7403 O   0  0  0  0  0  0  0  0  0  0  0  0
   10.7750  -17.3048   20.5592 C   0  0  0  0  0  0  0  0  0  0  0  0
    9.6550  -16.5531   21.1799 C   0  0  0  0  0  0  0  0  0  0  0  0
    9.7489  -16.4301   22.6758 C   0  0  2  0  0  0  0  0  0  0  0  0
    8.5464  -15.8614   23.2545 N   0  0  0  0  0  0  0  0  0  0  0  0
   10.9487  -15.7011   23.1213 C   0  0  0  0  0  0  0  0  0  0  0  0
   10.9366  -14.4685   23.2857 O   0  0  0  0  0  0  0  0  0  0  0  0
   12.1351  -16.4229   23.3655 N   0  0  0  0  0  0  0  0  0  0  0  0
   13.3633  -15.7426   23.7182 C   0  0  0  0  0  0  0  0  0  0  0  0
   14.5123  -16.6739   23.7787 C   0  0  0  0  0  0  0  0  0  0  0  0
   14.3304  -17.8846   23.5152 O   0  0  0  0  0  0  0  0  0  0  0  0
   15.7846  -16.2564   24.1167 O   0  0  0  0  0  0  0  0  0  0  0  0
  2  1  1  6
  2  3  1  0
  4  2  1  0
  5  4  1  0
  5  7  1  0
  5  6  1  1
  7  8  2  0
  9 10  1  0
 10 11  2  0
 12 10  1  0
 12 13  1  0
 14 13  1  6
 15  7  1  0
 15 14  1  0
 16 14  1  0
 16 17  2  0
 18 16  1  0
 19 18  1  0
 19 20  1  0
 20 22  1  0
 21 20  2  0
M  END
$$$$
