LQG.pdb
     RDKit          3D

 22 21  0  0  1  0  0  0  0  0999 V2000
    7.1499  -11.2778   25.2878 C   0  0  0  0  0  0  0  0  0  0  0  0
    6.2998  -12.2830   26.0270 C   0  0  2  0  0  0  0  0  0  0  0  0
    5.9803  -11.7434   27.3776 C   0  0  0  0  0  0  0  0  0  0  0  0
    6.9961  -13.6053   26.0454 C   0  0  0  0  0  0  0  0  0  0  0  0
    7.6128  -14.0219   24.7567 C   0  0  2  0  0  0  0  0  0  0  0  0
    6.7233  -14.0848   23.6399 N   0  0  0  0  0  0  0  0  0  0  0  0
    8.1948  -15.3873   24.9666 C   0  0  0  0  0  0  0  0  0  0  0  0
    8.7850  -15.6727   26.0642 O   0  0  0  0  0  0  0  0  0  0  0  0
    5.6130  -21.1895   24.2710 N   0  0  0  0  0  0  0  0  0  0  0  0
    5.7589  -19.9675   23.5545 C   0  0  0  0  0  0  0  0  0  0  0  0
    5.2643  -19.8648   22.4045 O   0  0  0  0  0  0  0  0  0  0  0  0
    6.4880  -18.8269   24.1602 C   0  0  0  0  0  0  0  0  0  0  0  0
    7.8951  -18.8449   23.6865 C   0  0  0  0  0  0  0  0  0  0  0  0
    8.7434  -17.7289   24.2310 C   0  0  2  0  0  0  0  0  0  0  0  0
    8.1421  -16.4272   24.0108 N   0  0  0  0  0  0  0  0  0  0  0  0
   10.1305  -17.7635   23.7366 C   0  0  0  0  0  0  0  0  0  0  0  0
   10.8147  -18.8004   23.7924 O   0  0  0  0  0  0  0  0  0  0  0  0
   10.6896  -16.5908   23.1886 N   0  0  0  0  0  0  0  0  0  0  0  0
   12.0127  -16.5989   22.6012 C   0  0  0  0  0  0  0  0  0  0  0  0
   13.0719  -16.4528   23.6248 C   0  0  0  0  0  0  0  0  0  0  0  0
   14.2331  -16.1550   23.2625 O   0  0  0  0  0  0  0  0  0  0  0  0
   12.8273  -16.6334   24.9719 O   0  0  0  0  0  0  0  0  0  0  0  0
  2  1  1  1
  2  3  1  0
  4  2  1  0
  5  4  1  0
  5  7  1  0
  5  6  1  6
  7  8  2  0
  9 10  1  0
 10 11  2  0
 12 10  1  0
 12 13  1  0
 14 13  1  6
 15  7  1  0
 15 14  1  0
 16 14  1  0
 16 17  2  0
 18 16  1  0
 19 18  1  0
 19 20  1  0
 20 22  1  0
 21 20  2  0
M  END
$$$$
