LQG.pdb
     RDKit          3D

 22 21  0  0  1  0  0  0  0  0999 V2000
    9.0485  -12.9198   19.4649 C   0  0  0  0  0  0  0  0  0  0  0  0
    7.7119  -13.5389   19.7961 C   0  0  2  0  0  0  0  0  0  0  0  0
    6.6301  -12.6307   19.3246 C   0  0  0  0  0  0  0  0  0  0  0  0
    7.6561  -13.8500   21.2568 C   0  0  0  0  0  0  0  0  0  0  0  0
    8.7345  -14.7420   21.7628 C   0  0  2  0  0  0  0  0  0  0  0  0
    8.7978  -16.0359   21.1594 N   0  0  0  0  0  0  0  0  0  0  0  0
    8.5038  -14.9239   23.2328 C   0  0  0  0  0  0  0  0  0  0  0  0
    8.3421  -13.9058   23.9890 O   0  0  0  0  0  0  0  0  0  0  0  0
    7.0461  -19.2657   26.6768 N   0  0  0  0  0  0  0  0  0  0  0  0
    6.4715  -19.1897   25.3761 C   0  0  0  0  0  0  0  0  0  0  0  0
    6.0765  -20.2416   24.8146 O   0  0  0  0  0  0  0  0  0  0  0  0
    6.3405  -17.8811   24.6908 C   0  0  0  0  0  0  0  0  0  0  0  0
    6.8197  -16.8085   25.5990 C   0  0  0  0  0  0  0  0  0  0  0  0
    8.2121  -16.3246   25.3011 C   0  0  2  0  0  0  0  0  0  0  0  0
    8.4483  -16.1807   23.8771 N   0  0  0  0  0  0  0  0  0  0  0  0
    9.2574  -17.1485   25.9322 C   0  0  0  0  0  0  0  0  0  0  0  0
    9.3062  -17.3043   27.1649 O   0  0  0  0  0  0  0  0  0  0  0  0
   10.2219  -17.7721   25.1143 N   0  0  0  0  0  0  0  0  0  0  0  0
   11.6164  -17.3893   25.1804 C   0  0  0  0  0  0  0  0  0  0  0  0
   12.3781  -18.2395   26.1227 C   0  0  0  0  0  0  0  0  0  0  0  0
   13.6074  -18.0454   26.2622 O   0  0  0  0  0  0  0  0  0  0  0  0
   11.7815  -19.2447   26.8583 O   0  0  0  0  0  0  0  0  0  0  0  0
  2  1  1  1
  2  3  1  0
  4  2  1  0
  5  4  1  0
  5  7  1  0
  5  6  1  6
  7  8  2  0
  9 10  1  0
 10 11  2  0
 12 10  1  0
 12 13  1  0
 14 13  1  6
 15  7  1  0
 15 14  1  0
 16 14  1  0
 16 17  2  0
 18 16  1  0
 19 18  1  0
 19 20  1  0
 20 22  1  0
 21 20  2  0
M  END
$$$$
