LQG.pdb
     RDKit          3D

 22 21  0  0  1  0  0  0  0  0999 V2000
    6.5639  -12.6669   27.8863 C   0  0  0  0  0  0  0  0  0  0  0  0
    6.7858  -12.2184   26.4619 C   0  0  2  0  0  0  0  0  0  0  0  0
    5.9702  -10.9987   26.2081 C   0  0  0  0  0  0  0  0  0  0  0  0
    6.4961  -13.3524   25.5325 C   0  0  0  0  0  0  0  0  0  0  0  0
    7.4742  -14.4735   25.5663 C   0  0  2  0  0  0  0  0  0  0  0  0
    8.8187  -14.1088   25.8851 N   0  0  0  0  0  0  0  0  0  0  0  0
    7.4720  -15.1027   24.2058 C   0  0  0  0  0  0  0  0  0  0  0  0
    6.4063  -15.6408   23.7481 O   0  0  0  0  0  0  0  0  0  0  0  0
    7.4228  -13.9141   18.6797 N   0  0  0  0  0  0  0  0  0  0  0  0
    8.0547  -13.1228   19.6808 C   0  0  0  0  0  0  0  0  0  0  0  0
    8.2412  -11.8984   19.4717 O   0  0  0  0  0  0  0  0  0  0  0  0
    8.4886  -13.7384   20.9583 C   0  0  0  0  0  0  0  0  0  0  0  0
    8.1373  -15.1810   20.9449 C   0  0  0  0  0  0  0  0  0  0  0  0
    8.6322  -15.9474   22.1405 C   0  0  2  0  0  0  0  0  0  0  0  0
    8.5980  -15.1516   23.3529 N   0  0  0  0  0  0  0  0  0  0  0  0
    9.9632  -16.5435   21.9341 C   0  0  0  0  0  0  0  0  0  0  0  0
   10.5956  -16.3716   20.8772 O   0  0  0  0  0  0  0  0  0  0  0  0
   10.5280  -17.3261   22.9621 N   0  0  0  0  0  0  0  0  0  0  0  0
   11.8055  -17.9831   22.7837 C   0  0  0  0  0  0  0  0  0  0  0  0
   12.2534  -18.6639   24.0194 C   0  0  0  0  0  0  0  0  0  0  0  0
   11.4265  -18.8667   24.9379 O   0  0  0  0  0  0  0  0  0  0  0  0
   13.5558  -19.0864   24.1995 O   0  0  0  0  0  0  0  0  0  0  0  0
  2  1  1  1
  2  3  1  0
  4  2  1  0
  5  4  1  0
  5  7  1  0
  5  6  1  6
  7  8  2  0
  9 10  1  0
 10 11  2  0
 12 10  1  0
 12 13  1  0
 14 13  1  6
 15  7  1  0
 15 14  1  0
 16 14  1  0
 16 17  2  0
 18 16  1  0
 19 18  1  0
 19 20  1  0
 20 22  1  0
 21 20  2  0
M  END
$$$$
