LQG.pdb
     RDKit          3D

 22 21  0  0  1  0  0  0  0  0999 V2000
    9.2670  -13.0987   19.3110 C   0  0  0  0  0  0  0  0  0  0  0  0
    7.7804  -13.3462   19.4027 C   0  0  2  0  0  0  0  0  0  0  0  0
    7.0905  -12.0502   19.6512 C   0  0  0  0  0  0  0  0  0  0  0  0
    7.5130  -14.3901   20.4383 C   0  0  0  0  0  0  0  0  0  0  0  0
    8.5749  -15.4204   20.5976 C   0  0  2  0  0  0  0  0  0  0  0  0
    8.1687  -16.7676   20.3483 N   0  0  0  0  0  0  0  0  0  0  0  0
    9.0643  -15.3352   22.0119 C   0  0  0  0  0  0  0  0  0  0  0  0
    9.4275  -14.2106   22.4999 O   0  0  0  0  0  0  0  0  0  0  0  0
    7.9092  -19.3791   26.6447 N   0  0  0  0  0  0  0  0  0  0  0  0
    6.9855  -18.4207   26.1387 C   0  0  0  0  0  0  0  0  0  0  0  0
    5.7593  -18.5649   26.3698 O   0  0  0  0  0  0  0  0  0  0  0  0
    7.4665  -17.2630   25.3464 C   0  0  0  0  0  0  0  0  0  0  0  0
    8.9297  -17.3972   25.1319 C   0  0  0  0  0  0  0  0  0  0  0  0
    9.5306  -16.3115   24.2823 C   0  0  2  0  0  0  0  0  0  0  0  0
    9.1609  -16.4420   22.8856 N   0  0  0  0  0  0  0  0  0  0  0  0
   10.9910  -16.1987   24.4367 C   0  0  0  0  0  0  0  0  0  0  0  0
   11.5123  -15.9758   25.5435 O   0  0  0  0  0  0  0  0  0  0  0  0
   11.8115  -16.3480   23.2997 N   0  0  0  0  0  0  0  0  0  0  0  0
   13.2461  -16.1743   23.3867 C   0  0  0  0  0  0  0  0  0  0  0  0
   13.9770  -17.2933   22.7507 C   0  0  0  0  0  0  0  0  0  0  0  0
   14.9122  -17.0384   21.9577 O   0  0  0  0  0  0  0  0  0  0  0  0
   13.6654  -18.6155   22.9996 O   0  0  0  0  0  0  0  0  0  0  0  0
  2  1  1  1
  2  3  1  0
  4  2  1  0
  5  4  1  0
  5  7  1  0
  5  6  1  1
  7  8  2  0
  9 10  1  0
 10 11  2  0
 12 10  1  0
 12 13  1  0
 14 13  1  1
 15  7  1  0
 15 14  1  0
 16 14  1  0
 16 17  2  0
 18 16  1  0
 19 18  1  0
 19 20  1  0
 20 22  1  0
 21 20  2  0
M  END
$$$$
