LQG.pdb
     RDKit          3D

 22 21  0  0  1  0  0  0  0  0999 V2000
    6.0611  -12.3255   26.2536 C   0  0  0  0  0  0  0  0  0  0  0  0
    6.9270  -13.2824   27.0372 C   0  0  2  0  0  0  0  0  0  0  0  0
    7.8767  -12.4980   27.8740 C   0  0  0  0  0  0  0  0  0  0  0  0
    7.5862  -14.2398   26.0978 C   0  0  0  0  0  0  0  0  0  0  0  0
    6.6661  -15.0020   25.2106 C   0  0  2  0  0  0  0  0  0  0  0  0
    6.1804  -16.2367   25.7415 N   0  0  0  0  0  0  0  0  0  0  0  0
    7.4167  -15.3006   23.9479 C   0  0  0  0  0  0  0  0  0  0  0  0
    7.6273  -16.5117   23.5964 O   0  0  0  0  0  0  0  0  0  0  0  0
    9.2127  -13.0083   18.2892 N   0  0  0  0  0  0  0  0  0  0  0  0
    7.8827  -13.4921   18.4473 C   0  0  0  0  0  0  0  0  0  0  0  0
    7.1756  -13.6945   17.4291 O   0  0  0  0  0  0  0  0  0  0  0  0
    7.3375  -13.7544   19.8013 C   0  0  0  0  0  0  0  0  0  0  0  0
    8.4047  -13.5207   20.8069 C   0  0  0  0  0  0  0  0  0  0  0  0
    8.5599  -14.6299   21.8105 C   0  0  2  0  0  0  0  0  0  0  0  0
    7.9316  -14.3120   23.0788 N   0  0  0  0  0  0  0  0  0  0  0  0
    9.9603  -15.0449   22.0009 C   0  0  0  0  0  0  0  0  0  0  0  0
   10.6705  -15.3952   21.0421 O   0  0  0  0  0  0  0  0  0  0  0  0
   10.5023  -15.0427   23.3027 N   0  0  0  0  0  0  0  0  0  0  0  0
   11.9154  -15.2663   23.5230 C   0  0  0  0  0  0  0  0  0  0  0  0
   12.2371  -16.7077   23.6235 C   0  0  0  0  0  0  0  0  0  0  0  0
   11.5362  -17.5341   22.9958 O   0  0  0  0  0  0  0  0  0  0  0  0
   13.2866  -17.1788   24.3876 O   0  0  0  0  0  0  0  0  0  0  0  0
  2  1  1  6
  2  3  1  0
  4  2  1  0
  5  4  1  0
  5  7  1  0
  5  6  1  1
  7  8  2  0
  9 10  1  0
 10 11  2  0
 12 10  1  0
 12 13  1  0
 14 13  1  6
 15  7  1  0
 15 14  1  0
 16 14  1  0
 16 17  2  0
 18 16  1  0
 19 18  1  0
 19 20  1  0
 20 22  1  0
 21 20  2  0
M  END
$$$$
