LQG.pdb
     RDKit          3D

 22 21  0  0  1  0  0  0  0  0999 V2000
    6.8749  -11.5075   24.8503 C   0  0  0  0  0  0  0  0  0  0  0  0
    6.0621  -12.4222   25.7347 C   0  0  2  0  0  0  0  0  0  0  0  0
    5.7062  -11.6937   26.9838 C   0  0  0  0  0  0  0  0  0  0  0  0
    6.8150  -13.6932   25.9612 C   0  0  0  0  0  0  0  0  0  0  0  0
    7.5840  -14.1986   24.7916 C   0  0  2  0  0  0  0  0  0  0  0  0
    6.8009  -14.7491   23.7305 N   0  0  0  0  0  0  0  0  0  0  0  0
    8.5031  -15.2697   25.2968 C   0  0  0  0  0  0  0  0  0  0  0  0
    9.1588  -15.0956   26.3804 O   0  0  0  0  0  0  0  0  0  0  0  0
    7.8625  -21.2130   24.4660 N   0  0  0  0  0  0  0  0  0  0  0  0
    6.9630  -20.1517   24.7697 C   0  0  0  0  0  0  0  0  0  0  0  0
    5.7269  -20.3369   24.6448 O   0  0  0  0  0  0  0  0  0  0  0  0
    7.4805  -18.8400   25.2290 C   0  0  0  0  0  0  0  0  0  0  0  0
    8.9649  -18.8761   25.2238 C   0  0  0  0  0  0  0  0  0  0  0  0
    9.6145  -17.5214   25.1570 C   0  0  2  0  0  0  0  0  0  0  0  0
    8.7124  -16.5067   24.6460 N   0  0  0  0  0  0  0  0  0  0  0  0
   10.8851  -17.5261   24.4121 C   0  0  0  0  0  0  0  0  0  0  0  0
   11.7496  -18.3985   24.6069 O   0  0  0  0  0  0  0  0  0  0  0  0
   11.1208  -16.5155   23.4574 N   0  0  0  0  0  0  0  0  0  0  0  0
   12.3485  -16.4846   22.6910 C   0  0  0  0  0  0  0  0  0  0  0  0
   13.4627  -15.8832   23.4576 C   0  0  0  0  0  0  0  0  0  0  0  0
   13.3235  -15.6923   24.6875 O   0  0  0  0  0  0  0  0  0  0  0  0
   14.6570  -15.5225   22.8652 O   0  0  0  0  0  0  0  0  0  0  0  0
  2  1  1  6
  2  3  1  0
  4  2  1  0
  5  4  1  0
  5  7  1  0
  5  6  1  6
  7  8  2  0
  9 10  1  0
 10 11  2  0
 12 10  1  0
 12 13  1  0
 14 13  1  6
 15  7  1  0
 15 14  1  0
 16 14  1  0
 16 17  2  0
 18 16  1  0
 19 18  1  0
 19 20  1  0
 20 22  1  0
 21 20  2  0
M  END
$$$$
