YDV.pdb
     RDKit          3D

 28 28  0  0  1  0  0  0  0  0999 V2000
    9.4141  -11.9637   19.2082 O   0  0  0  0  0  0  0  0  0  0  0  0
    8.4742  -12.8882   19.6771 C   0  0  0  0  0  0  0  0  0  0  0  0
    8.2070  -14.0121   18.9317 C   0  0  0  0  0  0  0  0  0  0  0  0
    7.2791  -14.9499   19.3702 C   0  0  0  0  0  0  0  0  0  0  0  0
    6.6161  -14.7628   20.5566 C   0  0  0  0  0  0  0  0  0  0  0  0
    5.6297  -15.7487   21.0210 C   0  0  0  0  0  0  0  0  0  0  0  0
    6.2063  -17.1142   21.3249 C   0  0  2  0  0  0  0  0  0  0  0  0
    5.0984  -18.0476   21.4812 N   0  0  0  0  0  0  0  0  0  0  0  0
    7.0313  -17.0346   22.5389 C   0  0  0  0  0  0  0  0  0  0  0  0
    6.4857  -17.0903   23.6626 O   0  0  0  0  0  0  0  0  0  0  0  0
    6.8947  -13.6346   21.2897 C   0  0  0  0  0  0  0  0  0  0  0  0
    7.8122  -12.6893   20.8752 C   0  0  0  0  0  0  0  0  0  0  0  0
    8.4660  -16.8943   22.5450 N   0  0  0  0  0  0  0  0  0  0  0  0
    9.2229  -16.9953   23.7602 C   0  0  1  0  0  0  0  0  0  0  0  0
   10.5957  -17.5713   23.5027 C   0  0  0  0  0  0  0  0  0  0  0  0
   11.4082  -17.6967   24.7030 C   0  0  0  0  0  0  0  0  0  0  0  0
   11.0553  -18.3871   25.6968 O   0  0  0  0  0  0  0  0  0  0  0  0
    9.3216  -15.6786   24.4667 C   0  0  0  0  0  0  0  0  0  0  0  0
   10.0011  -14.7396   23.9930 O   0  0  0  0  0  0  0  0  0  0  0  0
   12.6279  -17.0459   24.8009 O   0  0  0  0  0  0  0  0  0  0  0  0
    6.5412  -14.2840   27.3407 C   0  0  0  0  0  0  0  0  0  0  0  0
    7.7019  -13.4762   26.7911 C   0  0  2  0  0  0  0  0  0  0  0  0
    7.2393  -12.8331   25.5069 C   0  0  0  0  0  0  0  0  0  0  0  0
    8.9246  -14.3520   26.6008 C   0  0  2  0  0  0  0  0  0  0  0  0
    8.6476  -15.4506   25.6974 N   0  0  0  0  0  0  0  0  0  0  0  0
    9.4946  -14.8099   27.8786 C   0  0  0  0  0  0  0  0  0  0  0  0
    9.5564  -16.0481   28.0926 O   0  0  0  0  0  0  0  0  0  0  0  0
    9.9688  -13.9725   28.8629 O   0  0  0  0  0  0  0  0  0  0  0  0
  2  1  1  0
  2 12  2  0
  3  2  1  0
  4  3  2  0
  4  5  1  0
  5 11  2  0
  6  5  1  0
  7  8  1  1
  7  6  1  0
  9  7  1  0
 10  9  2  0
 11 12  1  0
 13  9  1  0
 14 13  1  0
 14 15  1  6
 15 16  1  0
 16 20  1  0
 17 16  2  0
 18 14  1  0
 19 18  2  0
 22 21  1  6
 22 23  1  0
 22 24  1  0
 24 26  1  0
 24 25  1  6
 25 18  1  0
 26 28  1  0
 27 26  2  0
M  END
$$$$
