YDV.pdb
     RDKit          3D

 28 28  0  0  1  0  0  0  0  0999 V2000
   11.7747  -15.7682   23.8699 O   0  0  0  0  0  0  0  0  0  0  0  0
   11.6069  -15.8741   22.4848 C   0  0  0  0  0  0  0  0  0  0  0  0
   12.1048  -16.9754   21.8296 C   0  0  0  0  0  0  0  0  0  0  0  0
   11.9541  -17.1107   20.4542 C   0  0  0  0  0  0  0  0  0  0  0  0
   11.3047  -16.1417   19.7321 C   0  0  0  0  0  0  0  0  0  0  0  0
   11.1486  -16.2775   18.2768 C   0  0  0  0  0  0  0  0  0  0  0  0
   12.0849  -15.4101   17.4642 C   0  0  2  0  0  0  0  0  0  0  0  0
   11.9709  -15.8080   16.0673 N   0  0  0  0  0  0  0  0  0  0  0  0
   13.4562  -15.5688   17.9691 C   0  0  0  0  0  0  0  0  0  0  0  0
   13.9805  -16.7039   17.9902 O   0  0  0  0  0  0  0  0  0  0  0  0
   10.8129  -15.0474   20.4019 C   0  0  0  0  0  0  0  0  0  0  0  0
   10.9499  -14.8909   21.7672 C   0  0  0  0  0  0  0  0  0  0  0  0
   14.2778  -14.4899   18.4581 N   0  0  0  0  0  0  0  0  0  0  0  0
   15.6140  -14.7203   18.9286 C   0  0  1  0  0  0  0  0  0  0  0  0
   16.5431  -13.6081   18.5014 C   0  0  0  0  0  0  0  0  0  0  0  0
   16.8896  -13.6502   17.0891 C   0  0  0  0  0  0  0  0  0  0  0  0
   16.8887  -14.7170   16.4177 O   0  0  0  0  0  0  0  0  0  0  0  0
   15.6574  -14.9099   20.4135 C   0  0  0  0  0  0  0  0  0  0  0  0
   15.1312  -14.0781   21.1875 O   0  0  0  0  0  0  0  0  0  0  0  0
   17.2427  -12.4923   16.4142 O   0  0  0  0  0  0  0  0  0  0  0  0
   15.1944  -17.5522   24.1973 C   0  0  0  0  0  0  0  0  0  0  0  0
   15.7668  -17.6106   22.7934 C   0  0  2  0  0  0  0  0  0  0  0  0
   16.7408  -18.7621   22.7483 C   0  0  0  0  0  0  0  0  0  0  0  0
   16.4048  -16.2880   22.4170 C   0  0  2  0  0  0  0  0  0  0  0  0
   16.2964  -16.0395   20.9935 N   0  0  0  0  0  0  0  0  0  0  0  0
   17.7907  -16.1728   22.9000 C   0  0  0  0  0  0  0  0  0  0  0  0
   18.7246  -16.3762   22.0819 O   0  0  0  0  0  0  0  0  0  0  0  0
   18.1394  -15.8552   24.1933 O   0  0  0  0  0  0  0  0  0  0  0  0
  2  1  1  0
  2 12  2  0
  3  2  1  0
  4  3  2  0
  4  5  1  0
  5 11  2  0
  6  5  1  0
  7  8  1  6
  7  6  1  0
  9  7  1  0
 10  9  2  0
 11 12  1  0
 13  9  1  0
 14 13  1  0
 14 15  1  1
 15 16  1  0
 16 20  1  0
 17 16  2  0
 18 14  1  0
 19 18  2  0
 22 21  1  1
 22 23  1  0
 22 24  1  0
 24 26  1  0
 24 25  1  6
 25 18  1  0
 26 28  1  0
 27 26  2  0
M  END
$$$$
