YDV.pdb
     RDKit          3D

 28 28  0  0  1  0  0  0  0  0999 V2000
    8.1192  -12.4848   16.0885 O   0  0  0  0  0  0  0  0  0  0  0  0
    7.7961  -13.2021   17.2457 C   0  0  0  0  0  0  0  0  0  0  0  0
    8.3013  -14.4696   17.4141 C   0  0  0  0  0  0  0  0  0  0  0  0
    7.9995  -15.2079   18.5527 C   0  0  0  0  0  0  0  0  0  0  0  0
    7.1897  -14.6777   19.5249 C   0  0  0  0  0  0  0  0  0  0  0  0
    6.8629  -15.4572   20.7276 C   0  0  0  0  0  0  0  0  0  0  0  0
    7.5948  -16.7772   20.8346 C   0  0  2  0  0  0  0  0  0  0  0  0
    6.7961  -17.7923   20.1605 N   0  0  0  0  0  0  0  0  0  0  0  0
    7.8093  -17.1009   22.2523 C   0  0  0  0  0  0  0  0  0  0  0  0
    7.4901  -18.2300   22.6845 O   0  0  0  0  0  0  0  0  0  0  0  0
    6.6930  -13.4098   19.3415 C   0  0  0  0  0  0  0  0  0  0  0  0
    6.9789  -12.6570   18.2196 C   0  0  0  0  0  0  0  0  0  0  0  0
    8.3774  -16.1967   23.2208 N   0  0  0  0  0  0  0  0  0  0  0  0
    9.0497  -16.6808   24.3928 C   0  0  1  0  0  0  0  0  0  0  0  0
   10.1781  -17.6168   24.0280 C   0  0  0  0  0  0  0  0  0  0  0  0
   10.9064  -18.1263   25.1798 C   0  0  0  0  0  0  0  0  0  0  0  0
   10.3407  -18.4332   26.2636 O   0  0  0  0  0  0  0  0  0  0  0  0
    9.5443  -15.5605   25.2547 C   0  0  0  0  0  0  0  0  0  0  0  0
   10.7277  -15.1587   25.1774 O   0  0  0  0  0  0  0  0  0  0  0  0
   12.2809  -18.2961   25.1272 O   0  0  0  0  0  0  0  0  0  0  0  0
    6.7709  -13.4460   27.9249 C   0  0  0  0  0  0  0  0  0  0  0  0
    7.9486  -12.8162   27.2050 C   0  0  2  0  0  0  0  0  0  0  0  0
    7.4441  -12.2899   25.8840 C   0  0  0  0  0  0  0  0  0  0  0  0
    9.0781  -13.8146   27.0454 C   0  0  2  0  0  0  0  0  0  0  0  0
    8.6877  -14.9159   26.1883 N   0  0  0  0  0  0  0  0  0  0  0  0
    9.6108  -14.2749   28.3383 C   0  0  0  0  0  0  0  0  0  0  0  0
    9.4702  -15.4878   28.6417 O   0  0  0  0  0  0  0  0  0  0  0  0
   10.2572  -13.4658   29.2453 O   0  0  0  0  0  0  0  0  0  0  0  0
  2  1  1  0
  2 12  2  0
  3  2  1  0
  4  3  2  0
  4  5  1  0
  5 11  2  0
  6  5  1  0
  7  8  1  1
  7  6  1  0
  9  7  1  0
 10  9  2  0
 11 12  1  0
 13  9  1  0
 14 13  1  0
 14 15  1  6
 15 16  1  0
 16 20  1  0
 17 16  2  0
 18 14  1  0
 19 18  2  0
 22 21  1  6
 22 23  1  0
 22 24  1  0
 24 26  1  0
 24 25  1  1
 25 18  1  0
 26 28  1  0
 27 26  2  0
M  END
$$$$
