YDV.pdb
     RDKit          3D

 28 28  0  0  1  0  0  0  0  0999 V2000
    7.1861  -13.7438   15.9197 O   0  0  0  0  0  0  0  0  0  0  0  0
    7.6028  -13.7871   17.2548 C   0  0  0  0  0  0  0  0  0  0  0  0
    7.3691  -12.7031   18.0675 C   0  0  0  0  0  0  0  0  0  0  0  0
    7.7702  -12.7150   19.3986 C   0  0  0  0  0  0  0  0  0  0  0  0
    8.4074  -13.8133   19.9179 C   0  0  0  0  0  0  0  0  0  0  0  0
    8.8388  -13.8278   21.3230 C   0  0  0  0  0  0  0  0  0  0  0  0
    9.6109  -15.0648   21.7269 C   0  0  2  0  0  0  0  0  0  0  0  0
    9.0484  -16.2021   21.0106 N   0  0  0  0  0  0  0  0  0  0  0  0
    9.5247  -15.2379   23.1840 C   0  0  0  0  0  0  0  0  0  0  0  0
    9.9650  -14.3449   23.9405 O   0  0  0  0  0  0  0  0  0  0  0  0
    8.6333  -14.8884   19.0926 C   0  0  0  0  0  0  0  0  0  0  0  0
    8.2440  -14.9003   17.7676 C   0  0  0  0  0  0  0  0  0  0  0  0
    8.9546  -16.3889   23.8386 N   0  0  0  0  0  0  0  0  0  0  0  0
    9.7804  -17.3629   24.4939 C   0  0  1  0  0  0  0  0  0  0  0  0
   10.5814  -18.1624   23.4930 C   0  0  0  0  0  0  0  0  0  0  0  0
   11.4342  -19.1708   24.1033 C   0  0  0  0  0  0  0  0  0  0  0  0
   10.9830  -20.0986   24.8274 O   0  0  0  0  0  0  0  0  0  0  0  0
   10.6780  -16.7360   25.5157 C   0  0  0  0  0  0  0  0  0  0  0  0
   11.8590  -16.4273   25.2370 O   0  0  0  0  0  0  0  0  0  0  0  0
   12.8061  -19.1475   23.9074 O   0  0  0  0  0  0  0  0  0  0  0  0
    9.1268  -14.6990   29.0114 C   0  0  0  0  0  0  0  0  0  0  0  0
   10.4581  -14.5279   28.3041 C   0  0  2  0  0  0  0  0  0  0  0  0
   10.2355  -13.5975   27.1373 C   0  0  0  0  0  0  0  0  0  0  0  0
   11.0206  -15.8713   27.8836 C   0  0  2  0  0  0  0  0  0  0  0  0
   10.2197  -16.4704   26.8349 N   0  0  0  0  0  0  0  0  0  0  0  0
   11.2189  -16.7814   29.0236 C   0  0  0  0  0  0  0  0  0  0  0  0
   10.5694  -17.8586   29.0448 O   0  0  0  0  0  0  0  0  0  0  0  0
   12.0719  -16.5352   30.0757 O   0  0  0  0  0  0  0  0  0  0  0  0
  2  1  1  0
  2 12  2  0
  3  2  1  0
  4  3  2  0
  4  5  1  0
  5 11  2  0
  6  5  1  0
  7  8  1  6
  7  6  1  0
  9  7  1  0
 10  9  2  0
 11 12  1  0
 13  9  1  0
 14 13  1  0
 14 15  1  6
 15 16  1  0
 16 20  1  0
 17 16  2  0
 18 14  1  0
 19 18  2  0
 22 21  1  6
 22 23  1  0
 22 24  1  0
 24 26  1  0
 24 25  1  6
 25 18  1  0
 26 28  1  0
 27 26  2  0
M  END
$$$$
