YDV.pdb
     RDKit          3D

 28 28  0  0  1  0  0  0  0  0999 V2000
    9.2711  -15.3652   26.6188 O   0  0  0  0  0  0  0  0  0  0  0  0
    8.3701  -16.1819   25.9265 C   0  0  0  0  0  0  0  0  0  0  0  0
    7.3332  -15.6028   25.2340 C   0  0  0  0  0  0  0  0  0  0  0  0
    6.4215  -16.3864   24.5358 C   0  0  0  0  0  0  0  0  0  0  0  0
    6.5466  -17.7526   24.5308 C   0  0  0  0  0  0  0  0  0  0  0  0
    5.5813  -18.5854   23.7991 C   0  0  0  0  0  0  0  0  0  0  0  0
    6.1486  -19.8876   23.2776 C   0  0  2  0  0  0  0  0  0  0  0  0
    6.7928  -20.5763   24.3882 N   0  0  0  0  0  0  0  0  0  0  0  0
    7.0922  -19.6048   22.1866 C   0  0  0  0  0  0  0  0  0  0  0  0
    8.2974  -19.9122   22.3155 O   0  0  0  0  0  0  0  0  0  0  0  0
    7.5884  -18.3156   25.2277 C   0  0  0  0  0  0  0  0  0  0  0  0
    8.5066  -17.5584   25.9282 C   0  0  0  0  0  0  0  0  0  0  0  0
    6.7342  -18.9828   20.9363 N   0  0  0  0  0  0  0  0  0  0  0  0
    7.7032  -18.7786   19.8974 C   0  0  1  0  0  0  0  0  0  0  0  0
    7.0365  -18.6324   18.5495 C   0  0  0  0  0  0  0  0  0  0  0  0
    7.9724  -18.6246   17.4356 C   0  0  0  0  0  0  0  0  0  0  0  0
    8.8961  -19.4737   17.3145 O   0  0  0  0  0  0  0  0  0  0  0  0
    8.5888  -17.6054   20.1836 C   0  0  0  0  0  0  0  0  0  0  0  0
    9.6143  -17.3867   19.4994 O   0  0  0  0  0  0  0  0  0  0  0  0
    7.8816  -17.6604   16.4442 O   0  0  0  0  0  0  0  0  0  0  0  0
    7.6106  -14.5513   23.3309 C   0  0  0  0  0  0  0  0  0  0  0  0
    8.2110  -14.3609   21.9507 C   0  0  2  0  0  0  0  0  0  0  0  0
    7.0705  -14.1568   20.9841 C   0  0  0  0  0  0  0  0  0  0  0  0
    9.0905  -15.5384   21.5793 C   0  0  2  0  0  0  0  0  0  0  0  0
    8.2949  -16.7012   21.2406 N   0  0  0  0  0  0  0  0  0  0  0  0
   10.1012  -15.8338   22.6082 C   0  0  0  0  0  0  0  0  0  0  0  0
   10.0340  -16.9374   23.2085 O   0  0  0  0  0  0  0  0  0  0  0  0
   11.1228  -14.9815   22.9618 O   0  0  0  0  0  0  0  0  0  0  0  0
  2  1  1  0
  2 12  2  0
  3  2  1  0
  4  3  2  0
  4  5  1  0
  5 11  2  0
  6  5  1  0
  7  8  1  1
  7  6  1  0
  9  7  1  0
 10  9  2  0
 11 12  1  0
 13  9  1  0
 14 13  1  0
 14 15  1  6
 15 16  1  0
 16 20  1  0
 17 16  2  0
 18 14  1  0
 19 18  2  0
 22 21  1  1
 22 23  1  0
 22 24  1  0
 24 26  1  0
 24 25  1  1
 25 18  1  0
 26 28  1  0
 27 26  2  0
M  END
$$$$
