YDV.pdb
     RDKit          3D

 28 28  0  0  1  0  0  0  0  0999 V2000
    6.3649  -12.5256   27.3950 O   0  0  0  0  0  0  0  0  0  0  0  0
    6.5861  -13.0865   26.1323 C   0  0  0  0  0  0  0  0  0  0  0  0
    7.3315  -12.3918   25.2093 C   0  0  0  0  0  0  0  0  0  0  0  0
    7.5698  -12.9217   23.9463 C   0  0  0  0  0  0  0  0  0  0  0  0
    7.0605  -14.1490   23.6052 C   0  0  0  0  0  0  0  0  0  0  0  0
    7.3047  -14.7104   22.2688 C   0  0  0  0  0  0  0  0  0  0  0  0
    7.4318  -16.2178   22.2380 C   0  0  2  0  0  0  0  0  0  0  0  0
    6.1860  -16.7863   22.7359 N   0  0  0  0  0  0  0  0  0  0  0  0
    8.5847  -16.6256   23.0536 C   0  0  0  0  0  0  0  0  0  0  0  0
    8.4019  -17.3019   24.0893 O   0  0  0  0  0  0  0  0  0  0  0  0
    6.3178  -14.8305   24.5390 C   0  0  0  0  0  0  0  0  0  0  0  0
    6.0680  -14.3251   25.7997 C   0  0  0  0  0  0  0  0  0  0  0  0
    9.9564  -16.3022   22.7502 N   0  0  0  0  0  0  0  0  0  0  0  0
   11.0444  -16.9184   23.4549 C   0  0  1  0  0  0  0  0  0  0  0  0
   12.2353  -17.1251   22.5485 C   0  0  0  0  0  0  0  0  0  0  0  0
   13.2832  -17.9412   23.1422 C   0  0  0  0  0  0  0  0  0  0  0  0
   13.1098  -18.6164   24.1922 O   0  0  0  0  0  0  0  0  0  0  0  0
   11.4316  -16.1395   24.6739 C   0  0  0  0  0  0  0  0  0  0  0  0
   12.3760  -15.3180   24.6437 O   0  0  0  0  0  0  0  0  0  0  0  0
   14.5404  -18.0069   22.5624 O   0  0  0  0  0  0  0  0  0  0  0  0
   10.7723  -13.6688   28.6161 C   0  0  0  0  0  0  0  0  0  0  0  0
   10.3056  -14.3928   27.3671 C   0  0  2  0  0  0  0  0  0  0  0  0
    8.8270  -14.6520   27.5188 C   0  0  0  0  0  0  0  0  0  0  0  0
   11.1043  -15.6630   27.1514 C   0  0  2  0  0  0  0  0  0  0  0  0
   10.7404  -16.3063   25.9049 N   0  0  0  0  0  0  0  0  0  0  0  0
   11.0228  -16.5820   28.2986 C   0  0  0  0  0  0  0  0  0  0  0  0
   10.3935  -17.6616   28.1524 O   0  0  0  0  0  0  0  0  0  0  0  0
   11.5915  -16.3419   29.5290 O   0  0  0  0  0  0  0  0  0  0  0  0
  2  1  1  0
  2 12  2  0
  3  2  1  0
  4  3  2  0
  4  5  1  0
  5 11  2  0
  6  5  1  0
  7  8  1  1
  7  6  1  0
  9  7  1  0
 10  9  2  0
 11 12  1  0
 13  9  1  0
 14 13  1  0
 14 15  1  6
 15 16  1  0
 16 20  1  0
 17 16  2  0
 18 14  1  0
 19 18  2  0
 22 21  1  1
 22 23  1  0
 22 24  1  0
 24 26  1  0
 24 25  1  6
 25 18  1  0
 26 28  1  0
 27 26  2  0
M  END
$$$$
