YDV.pdb
     RDKit          3D

 28 28  0  0  1  0  0  0  0  0999 V2000
    7.4800  -13.2070   14.4987 O   0  0  0  0  0  0  0  0  0  0  0  0
    7.4233  -13.6106   15.8374 C   0  0  0  0  0  0  0  0  0  0  0  0
    7.7898  -12.7246   16.8227 C   0  0  0  0  0  0  0  0  0  0  0  0
    7.7442  -13.0946   18.1620 C   0  0  0  0  0  0  0  0  0  0  0  0
    7.3319  -14.3541   18.5167 C   0  0  0  0  0  0  0  0  0  0  0  0
    7.2881  -14.7516   19.9312 C   0  0  0  0  0  0  0  0  0  0  0  0
    8.6359  -14.7640   20.6188 C   0  0  2  0  0  0  0  0  0  0  0  0
    9.5553  -15.5395   19.7963 N   0  0  0  0  0  0  0  0  0  0  0  0
    8.4898  -15.3356   21.9652 C   0  0  0  0  0  0  0  0  0  0  0  0
    7.4457  -15.1208   22.6187 O   0  0  0  0  0  0  0  0  0  0  0  0
    6.9690  -15.2275   17.5201 C   0  0  0  0  0  0  0  0  0  0  0  0
    7.0055  -14.8830   16.1832 C   0  0  0  0  0  0  0  0  0  0  0  0
    9.4817  -16.1522   22.6190 N   0  0  0  0  0  0  0  0  0  0  0  0
    9.3333  -16.5581   23.9877 C   0  0  1  0  0  0  0  0  0  0  0  0
   10.2158  -17.7426   24.3051 C   0  0  0  0  0  0  0  0  0  0  0  0
   10.0062  -18.8777   23.4195 C   0  0  0  0  0  0  0  0  0  0  0  0
   10.9347  -19.3951   22.7419 O   0  0  0  0  0  0  0  0  0  0  0  0
    9.5958  -15.4290   24.9358 C   0  0  0  0  0  0  0  0  0  0  0  0
   10.6935  -14.8267   24.9363 O   0  0  0  0  0  0  0  0  0  0  0  0
    8.7488  -19.4446   23.2841 O   0  0  0  0  0  0  0  0  0  0  0  0
    6.3327  -13.7853   27.3100 C   0  0  0  0  0  0  0  0  0  0  0  0
    7.5527  -13.0193   26.8340 C   0  0  2  0  0  0  0  0  0  0  0  0
    7.2251  -12.4411   25.4793 C   0  0  0  0  0  0  0  0  0  0  0  0
    8.7749  -13.9157   26.8088 C   0  0  2  0  0  0  0  0  0  0  0  0
    8.6084  -15.0034   25.8657 N   0  0  0  0  0  0  0  0  0  0  0  0
    9.1525  -14.3921   28.1495 C   0  0  0  0  0  0  0  0  0  0  0  0
    9.0430  -15.6208   28.3970 O   0  0  0  0  0  0  0  0  0  0  0  0
    9.6212  -13.5819   29.1590 O   0  0  0  0  0  0  0  0  0  0  0  0
  2  1  1  0
  2 12  2  0
  3  2  1  0
  4  3  2  0
  4  5  1  0
  5 11  2  0
  6  5  1  0
  7  8  1  6
  7  6  1  0
  9  7  1  0
 10  9  2  0
 11 12  1  0
 13  9  1  0
 14 13  1  0
 14 15  1  1
 15 16  1  0
 16 20  1  0
 17 16  2  0
 18 14  1  0
 19 18  2  0
 22 21  1  6
 22 23  1  0
 22 24  1  0
 24 26  1  0
 24 25  1  6
 25 18  1  0
 26 28  1  0
 27 26  2  0
M  END
$$$$
