QYF.pdb
     RDKit          3D

 33 34  0  0  1  0  0  0  0  0999 V2000
   24.9446  -14.0346  -20.8679 N   0  0  0  0  0  0  0  0  0  0  0  0
   25.2413  -13.1522  -21.9249 C   0  0  0  0  0  0  0  0  0  0  0  0
   25.5883  -13.6579  -23.0250 O   0  0  0  0  0  0  0  0  0  0  0  0
   25.1336  -11.6929  -21.6987 C   0  0  0  0  0  0  0  0  0  0  0  0
   24.7376  -11.3752  -20.2725 C   0  0  0  0  0  0  0  0  0  0  0  0
   24.3880   -9.9275  -20.0928 C   0  0  2  0  0  0  0  0  0  0  0  0
   25.5666   -9.0814  -20.1387 N   0  0  0  0  0  0  0  0  0  0  0  0
   23.6275   -9.7460  -18.8345 C   0  0  0  0  0  0  0  0  0  0  0  0
   22.5851  -10.4000  -18.6649 O   0  0  0  0  0  0  0  0  0  0  0  0
   27.8698  -13.2010  -15.0072 O   0  0  0  0  0  0  0  0  0  0  0  0
   27.0213  -12.1002  -15.1260 C   0  0  0  0  0  0  0  0  0  0  0  0
   27.5463  -10.9210  -15.6026 C   0  0  0  0  0  0  0  0  0  0  0  0
   26.7379   -9.7961  -15.7383 C   0  0  0  0  0  0  0  0  0  0  0  0
   25.4063   -9.8193  -15.4076 C   0  0  0  0  0  0  0  0  0  0  0  0
   24.5636   -8.6565  -15.5613 C   0  0  0  0  0  0  0  0  0  0  0  0
   23.4140   -8.7323  -16.5204 C   0  0  2  0  0  0  0  0  0  0  0  0
   24.0577   -8.8593  -17.8420 N   0  0  0  0  0  0  0  0  0  0  0  0
   22.5264   -7.5818  -16.4837 C   0  0  0  0  0  0  0  0  0  0  0  0
   23.0491   -6.4596  -16.8416 O   0  0  0  0  0  0  0  0  0  0  0  0
   24.9036  -11.0337  -14.9258 C   0  0  0  0  0  0  0  0  0  0  0  0
   25.6881  -12.1586  -14.7840 C   0  0  0  0  0  0  0  0  0  0  0  0
   21.1617   -7.5343  -16.1131 N   0  0  0  0  0  0  0  0  0  0  0  0
   20.4584   -6.2547  -15.9904 C   0  0  1  0  0  0  0  0  0  0  0  0
   19.3662   -6.2722  -17.0471 C   0  0  0  0  0  0  0  0  0  0  0  0
   19.8522   -6.2511  -18.4261 C   0  0  0  0  0  0  0  0  0  0  0  0
   20.1660   -5.0273  -19.0299 C   0  0  0  0  0  0  0  0  0  0  0  0
   20.6338   -5.0175  -20.3187 C   0  0  0  0  0  0  0  0  0  0  0  0
   20.7961   -6.1860  -21.0171 C   0  0  0  0  0  0  0  0  0  0  0  0
   20.4851   -7.3964  -20.4182 C   0  0  0  0  0  0  0  0  0  0  0  0
   20.0121   -7.4305  -19.1200 C   0  0  0  0  0  0  0  0  0  0  0  0
   19.8310   -6.0614  -14.6739 C   0  0  0  0  0  0  0  0  0  0  0  0
   19.2164   -4.9883  -14.3761 O   0  0  0  0  0  0  0  0  0  0  0  0
   19.8576   -7.0127  -13.6733 O   0  0  0  0  0  0  0  0  0  0  0  0
  2  1  1  0
  3  2  2  0
  4  2  1  0
  5  4  1  0
  6  5  1  0
  6  7  1  1
  8  6  1  0
  8  9  2  0
 10 11  1  0
 11 12  2  0
 12 13  1  0
 14 13  2  0
 14 15  1  0
 16 15  1  1
 16 17  1  0
 17  8  1  0
 18 16  1  0
 19 18  2  0
 20 14  1  0
 21 20  2  0
 21 11  1  0
 22 18  1  0
 23 24  1  6
 23 22  1  0
 24 25  1  0
 25 26  2  0
 26 27  1  0
 28 27  2  0
 29 28  1  0
 30 25  1  0
 30 29  2  0
 31 33  1  0
 31 23  1  0
 32 31  2  0
M  END
$$$$
