QYF.pdb
     RDKit          3D

 33 34  0  0  1  0  0  0  0  0999 V2000
   13.8109  -13.7453    8.7188 N   0  0  0  0  0  0  0  0  0  0  0  0
   13.1716  -13.7071    7.4642 C   0  0  0  0  0  0  0  0  0  0  0  0
   11.9270  -13.5151    7.4509 O   0  0  0  0  0  0  0  0  0  0  0  0
   13.9791  -13.8915    6.2369 C   0  0  0  0  0  0  0  0  0  0  0  0
   15.4512  -14.0488    6.5536 C   0  0  0  0  0  0  0  0  0  0  0  0
   16.2814  -14.2080    5.3144 C   0  0  2  0  0  0  0  0  0  0  0  0
   15.8765  -15.3692    4.5430 N   0  0  0  0  0  0  0  0  0  0  0  0
   17.7176  -14.2583    5.6740 C   0  0  0  0  0  0  0  0  0  0  0  0
   18.3358  -15.3251    5.5234 O   0  0  0  0  0  0  0  0  0  0  0  0
   23.2725   -8.8932   10.0476 O   0  0  0  0  0  0  0  0  0  0  0  0
   22.5431   -9.5706    9.0703 C   0  0  0  0  0  0  0  0  0  0  0  0
   22.0027  -10.7946    9.3916 C   0  0  0  0  0  0  0  0  0  0  0  0
   21.2673  -11.5071    8.4490 C   0  0  0  0  0  0  0  0  0  0  0  0
   21.0554  -11.0239    7.1823 C   0  0  0  0  0  0  0  0  0  0  0  0
   20.2805  -11.7562    6.2080 C   0  0  0  0  0  0  0  0  0  0  0  0
   19.8086  -13.1338    6.5636 C   0  0  2  0  0  0  0  0  0  0  0  0
   18.3850  -13.1361    6.1759 N   0  0  0  0  0  0  0  0  0  0  0  0
   19.9648  -13.4767    7.9676 C   0  0  0  0  0  0  0  0  0  0  0  0
   18.8993  -13.8855    8.5660 O   0  0  0  0  0  0  0  0  0  0  0  0
   21.6185   -9.7766    6.8875 C   0  0  0  0  0  0  0  0  0  0  0  0
   22.3502   -9.0557    7.8072 C   0  0  0  0  0  0  0  0  0  0  0  0
   21.1352  -13.4268    8.7610 N   0  0  0  0  0  0  0  0  0  0  0  0
   21.5271  -14.5639    9.5979 C   0  0  1  0  0  0  0  0  0  0  0  0
   21.8482  -15.6997    8.6405 C   0  0  0  0  0  0  0  0  0  0  0  0
   20.7754  -16.6798    8.4763 C   0  0  0  0  0  0  0  0  0  0  0  0
   20.8955  -17.6796    7.5033 C   0  0  0  0  0  0  0  0  0  0  0  0
   19.8910  -18.6026    7.3649 C   0  0  0  0  0  0  0  0  0  0  0  0
   18.7782  -18.5565    8.1642 C   0  0  0  0  0  0  0  0  0  0  0  0
   18.6609  -17.5664    9.1267 C   0  0  0  0  0  0  0  0  0  0  0  0
   19.6608  -16.6255    9.2842 C   0  0  0  0  0  0  0  0  0  0  0  0
   22.7173  -14.2961   10.4201 C   0  0  0  0  0  0  0  0  0  0  0  0
   23.6460  -13.5235   10.0221 O   0  0  0  0  0  0  0  0  0  0  0  0
   22.9183  -14.8516   11.6683 O   0  0  0  0  0  0  0  0  0  0  0  0
  2  1  1  0
  3  2  2  0
  4  2  1  0
  5  4  1  0
  6  5  1  0
  6  7  1  1
  8  6  1  0
  8  9  2  0
 10 11  1  0
 11 12  2  0
 12 13  1  0
 14 13  2  0
 14 15  1  0
 16 15  1  1
 16 17  1  0
 17  8  1  0
 18 16  1  0
 19 18  2  0
 20 14  1  0
 21 20  2  0
 21 11  1  0
 22 18  1  0
 23 24  1  6
 23 22  1  0
 24 25  1  0
 25 26  2  0
 26 27  1  0
 28 27  2  0
 29 28  1  0
 30 25  1  0
 30 29  2  0
 31 33  1  0
 31 23  1  0
 32 31  2  0
M  END
$$$$
