QYF.pdb
     RDKit          3D

 33 34  0  0  1  0  0  0  0  0999 V2000
   24.7660  -19.4009  -20.5834 N   0  0  0  0  0  0  0  0  0  0  0  0
   26.1353  -19.4597  -20.9086 C   0  0  0  0  0  0  0  0  0  0  0  0
   26.4827  -19.0363  -22.0427 O   0  0  0  0  0  0  0  0  0  0  0  0
   27.0895  -20.0080  -19.9180 C   0  0  0  0  0  0  0  0  0  0  0  0
   26.3909  -20.4343  -18.6443 C   0  0  0  0  0  0  0  0  0  0  0  0
   27.3607  -20.8834  -17.5917 C   0  0  2  0  0  0  0  0  0  0  0  0
   28.2811  -21.8833  -18.1018 N   0  0  0  0  0  0  0  0  0  0  0  0
   26.6231  -21.3687  -16.4021 C   0  0  0  0  0  0  0  0  0  0  0  0
   26.0570  -22.4730  -16.4577 O   0  0  0  0  0  0  0  0  0  0  0  0
   24.3497  -20.9688   -7.7087 O   0  0  0  0  0  0  0  0  0  0  0  0
   24.8493  -20.7960   -8.9997 C   0  0  0  0  0  0  0  0  0  0  0  0
   26.0628  -21.3652   -9.3105 C   0  0  0  0  0  0  0  0  0  0  0  0
   26.6011  -21.2196  -10.5857 C   0  0  0  0  0  0  0  0  0  0  0  0
   25.9522  -20.5140  -11.5675 C   0  0  0  0  0  0  0  0  0  0  0  0
   26.5033  -20.3741  -12.8952 C   0  0  0  0  0  0  0  0  0  0  0  0
   25.7761  -21.0145  -14.0389 C   0  0  2  0  0  0  0  0  0  0  0  0
   26.5527  -20.6129  -15.2273 N   0  0  0  0  0  0  0  0  0  0  0  0
   24.3857  -20.6101  -14.1663 C   0  0  0  0  0  0  0  0  0  0  0  0
   24.1887  -19.4014  -14.5674 O   0  0  0  0  0  0  0  0  0  0  0  0
   24.7204  -19.9474  -11.2190 C   0  0  0  0  0  0  0  0  0  0  0  0
   24.1708  -20.0802   -9.9615 C   0  0  0  0  0  0  0  0  0  0  0  0
   23.2205  -21.3721  -13.9142 N   0  0  0  0  0  0  0  0  0  0  0  0
   21.9009  -20.7371  -13.8653 C   0  0  1  0  0  0  0  0  0  0  0  0
   21.2726  -20.9677  -15.2298 C   0  0  0  0  0  0  0  0  0  0  0  0
   21.7448  -20.0646  -16.2785 C   0  0  0  0  0  0  0  0  0  0  0  0
   21.3500  -18.7212  -16.2633 C   0  0  0  0  0  0  0  0  0  0  0  0
   21.8081  -17.8781  -17.2428 C   0  0  0  0  0  0  0  0  0  0  0  0
   22.6429  -18.3344  -18.2299 C   0  0  0  0  0  0  0  0  0  0  0  0
   23.0326  -19.6641  -18.2436 C   0  0  0  0  0  0  0  0  0  0  0  0
   22.5835  -20.5322  -17.2664 C   0  0  0  0  0  0  0  0  0  0  0  0
   21.0169  -21.3145  -12.8409 C   0  0  0  0  0  0  0  0  0  0  0  0
   21.3406  -22.3566  -12.1874 O   0  0  0  0  0  0  0  0  0  0  0  0
   19.7866  -20.7808  -12.5117 O   0  0  0  0  0  0  0  0  0  0  0  0
  2  1  1  0
  3  2  2  0
  4  2  1  0
  5  4  1  0
  6  5  1  0
  6  7  1  6
  8  6  1  0
  8  9  2  0
 10 11  1  0
 11 12  2  0
 12 13  1  0
 14 13  2  0
 14 15  1  0
 16 15  1  1
 16 17  1  0
 17  8  1  0
 18 16  1  0
 19 18  2  0
 20 14  1  0
 21 20  2  0
 21 11  1  0
 22 18  1  0
 23 24  1  6
 23 22  1  0
 24 25  1  0
 25 26  2  0
 26 27  1  0
 28 27  2  0
 29 28  1  0
 30 25  1  0
 30 29  2  0
 31 33  1  0
 31 23  1  0
 32 31  2  0
M  END
$$$$
