QYF.pdb
     RDKit          3D

 33 34  0  0  1  0  0  0  0  0999 V2000
   33.4224  -28.9342  -17.8052 N   0  0  0  0  0  0  0  0  0  0  0  0
   33.7790  -27.8161  -18.5841 C   0  0  0  0  0  0  0  0  0  0  0  0
   34.9609  -27.3921  -18.4866 O   0  0  0  0  0  0  0  0  0  0  0  0
   32.7642  -27.1993  -19.4685 C   0  0  0  0  0  0  0  0  0  0  0  0
   31.4588  -27.9655  -19.4421 C   0  0  0  0  0  0  0  0  0  0  0  0
   31.3169  -28.8798  -20.6228 C   0  0  2  0  0  0  0  0  0  0  0  0
   30.7821  -28.1839  -21.7791 N   0  0  0  0  0  0  0  0  0  0  0  0
   30.4905  -30.0529  -20.2544 C   0  0  0  0  0  0  0  0  0  0  0  0
   29.2651  -30.0084  -20.4527 O   0  0  0  0  0  0  0  0  0  0  0  0
   30.6700  -34.7199  -25.3823 O   0  0  0  0  0  0  0  0  0  0  0  0
   30.7437  -34.4512  -24.0155 C   0  0  0  0  0  0  0  0  0  0  0  0
   31.8255  -33.7406  -23.5484 C   0  0  0  0  0  0  0  0  0  0  0  0
   31.9420  -33.4487  -22.1925 C   0  0  0  0  0  0  0  0  0  0  0  0
   30.9967  -33.8516  -21.2830 C   0  0  0  0  0  0  0  0  0  0  0  0
   31.1096  -33.5370  -19.8779 C   0  0  0  0  0  0  0  0  0  0  0  0
   30.2896  -32.4065  -19.3334 C   0  0  2  0  0  0  0  0  0  0  0  0
   31.0597  -31.2001  -19.6919 N   0  0  0  0  0  0  0  0  0  0  0  0
   30.0605  -32.4690  -17.8993 C   0  0  0  0  0  0  0  0  0  0  0  0
   31.0833  -32.2164  -17.1574 O   0  0  0  0  0  0  0  0  0  0  0  0
   29.9092  -34.5724  -21.7904 C   0  0  0  0  0  0  0  0  0  0  0  0
   29.7761  -34.8716  -23.1297 C   0  0  0  0  0  0  0  0  0  0  0  0
   28.8597  -32.7642  -17.2117 N   0  0  0  0  0  0  0  0  0  0  0  0
   28.8314  -32.8543  -15.7495 C   0  0  1  0  0  0  0  0  0  0  0  0
   27.3883  -32.6087  -15.3409 C   0  0  0  0  0  0  0  0  0  0  0  0
   27.0914  -32.9111  -13.9414 C   0  0  0  0  0  0  0  0  0  0  0  0
   26.5434  -34.1548  -13.6040 C   0  0  0  0  0  0  0  0  0  0  0  0
   26.2804  -34.4352  -12.2879 C   0  0  0  0  0  0  0  0  0  0  0  0
   26.5469  -33.5164  -11.3060 C   0  0  0  0  0  0  0  0  0  0  0  0
   27.0892  -32.2860  -11.6414 C   0  0  0  0  0  0  0  0  0  0  0  0
   27.3626  -31.9814  -12.9615 C   0  0  0  0  0  0  0  0  0  0  0  0
   29.2424  -34.1723  -15.2414 C   0  0  0  0  0  0  0  0  0  0  0  0
   29.3917  -34.3937  -13.9977 O   0  0  0  0  0  0  0  0  0  0  0  0
   29.4943  -35.2563  -16.0590 O   0  0  0  0  0  0  0  0  0  0  0  0
  2  1  1  0
  3  2  2  0
  4  2  1  0
  5  4  1  0
  6  5  1  0
  6  7  1  6
  8  6  1  0
  8  9  2  0
 10 11  1  0
 11 12  2  0
 12 13  1  0
 14 13  2  0
 14 15  1  0
 16 15  1  1
 16 17  1  0
 17  8  1  0
 18 16  1  0
 19 18  2  0
 20 14  1  0
 21 20  2  0
 21 11  1  0
 22 18  1  0
 23 24  1  6
 23 22  1  0
 24 25  1  0
 25 26  2  0
 26 27  1  0
 28 27  2  0
 29 28  1  0
 30 25  1  0
 30 29  2  0
 31 33  1  0
 31 23  1  0
 32 31  2  0
M  END
$$$$
