QYF.pdb
     RDKit          3D

 33 34  0  0  1  0  0  0  0  0999 V2000
   29.2911  -19.8421  -19.2734 N   0  0  0  0  0  0  0  0  0  0  0  0
   29.3794  -18.5533  -19.8350 C   0  0  0  0  0  0  0  0  0  0  0  0
   29.9861  -18.4371  -20.9325 O   0  0  0  0  0  0  0  0  0  0  0  0
   28.7645  -17.4112  -19.1208 C   0  0  0  0  0  0  0  0  0  0  0  0
   28.1114  -17.8465  -17.8262 C   0  0  0  0  0  0  0  0  0  0  0  0
   26.6781  -18.2432  -18.0225 C   0  0  2  0  0  0  0  0  0  0  0  0
   25.9726  -17.3016  -18.8727 N   0  0  0  0  0  0  0  0  0  0  0  0
   26.0155  -18.4022  -16.7071 C   0  0  0  0  0  0  0  0  0  0  0  0
   25.8026  -17.3913  -16.0175 O   0  0  0  0  0  0  0  0  0  0  0  0
   19.8244  -16.5971  -17.2195 O   0  0  0  0  0  0  0  0  0  0  0  0
   20.7664  -17.5314  -16.7885 C   0  0  0  0  0  0  0  0  0  0  0  0
   20.9235  -17.7216  -15.4348 C   0  0  0  0  0  0  0  0  0  0  0  0
   21.8511  -18.6431  -14.9578 C   0  0  0  0  0  0  0  0  0  0  0  0
   22.6326  -19.3866  -15.8060 C   0  0  0  0  0  0  0  0  0  0  0  0
   23.5855  -20.3531  -15.3123 C   0  0  0  0  0  0  0  0  0  0  0  0
   24.9552  -19.8741  -14.9358 C   0  0  2  0  0  0  0  0  0  0  0  0
   25.6282  -19.6592  -16.2311 N   0  0  0  0  0  0  0  0  0  0  0  0
   25.7076  -20.8018  -14.1074 C   0  0  0  0  0  0  0  0  0  0  0  0
   26.1111  -21.8758  -14.6942 O   0  0  0  0  0  0  0  0  0  0  0  0
   22.4485  -19.1690  -17.1766 C   0  0  0  0  0  0  0  0  0  0  0  0
   21.5352  -18.2608  -17.6686 C   0  0  0  0  0  0  0  0  0  0  0  0
   26.0606  -20.6765  -12.7430 N   0  0  0  0  0  0  0  0  0  0  0  0
   26.7000  -21.7827  -12.0256 C   0  0  1  0  0  0  0  0  0  0  0  0
   27.8122  -21.1599  -11.1979 C   0  0  0  0  0  0  0  0  0  0  0  0
   27.3522  -20.3139  -10.0974 C   0  0  0  0  0  0  0  0  0  0  0  0
   27.2285  -20.8573   -8.8128 C   0  0  0  0  0  0  0  0  0  0  0  0
   26.8093  -20.0537   -7.7840 C   0  0  0  0  0  0  0  0  0  0  0  0
   26.5122  -18.7328   -7.9992 C   0  0  0  0  0  0  0  0  0  0  0  0
   26.6350  -18.1965   -9.2711 C   0  0  0  0  0  0  0  0  0  0  0  0
   27.0559  -18.9876  -10.3234 C   0  0  0  0  0  0  0  0  0  0  0  0
   25.7844  -22.4920  -11.1185 C   0  0  0  0  0  0  0  0  0  0  0  0
   24.5937  -22.0907  -10.9207 O   0  0  0  0  0  0  0  0  0  0  0  0
   26.1374  -23.6307  -10.4216 O   0  0  0  0  0  0  0  0  0  0  0  0
  2  1  1  0
  3  2  2  0
  4  2  1  0
  5  4  1  0
  6  5  1  0
  6  7  1  6
  8  6  1  0
  8  9  2  0
 10 11  1  0
 11 12  2  0
 12 13  1  0
 14 13  2  0
 14 15  1  0
 16 15  1  6
 16 17  1  0
 17  8  1  0
 18 16  1  0
 19 18  2  0
 20 14  1  0
 21 20  2  0
 21 11  1  0
 22 18  1  0
 23 24  1  1
 23 22  1  0
 24 25  1  0
 25 26  2  0
 26 27  1  0
 28 27  2  0
 29 28  1  0
 30 25  1  0
 30 29  2  0
 31 33  1  0
 31 23  1  0
 32 31  2  0
M  END
$$$$
