QYF.pdb
     RDKit          3D

 33 34  0  0  1  0  0  0  0  0999 V2000
   14.1186  -21.3615    6.2721 N   0  0  0  0  0  0  0  0  0  0  0  0
   13.3076  -20.2672    5.9130 C   0  0  0  0  0  0  0  0  0  0  0  0
   12.1149  -20.2694    6.3175 O   0  0  0  0  0  0  0  0  0  0  0  0
   13.8847  -19.1808    5.0890 C   0  0  0  0  0  0  0  0  0  0  0  0
   15.3197  -19.4719    4.7043 C   0  0  0  0  0  0  0  0  0  0  0  0
   15.7647  -18.6573    3.5259 C   0  0  2  0  0  0  0  0  0  0  0  0
   16.0105  -19.4883    2.3614 N   0  0  0  0  0  0  0  0  0  0  0  0
   16.9543  -17.8531    3.8906 C   0  0  0  0  0  0  0  0  0  0  0  0
   18.0809  -18.2775    3.5849 O   0  0  0  0  0  0  0  0  0  0  0  0
   20.8323  -10.4942    7.3520 O   0  0  0  0  0  0  0  0  0  0  0  0
   19.9705  -11.4746    6.8602 C   0  0  0  0  0  0  0  0  0  0  0  0
   20.0994  -11.8550    5.5441 C   0  0  0  0  0  0  0  0  0  0  0  0
   19.2618  -12.8294    5.0092 C   0  0  0  0  0  0  0  0  0  0  0  0
   18.2902  -13.4395    5.7621 C   0  0  0  0  0  0  0  0  0  0  0  0
   17.4299  -14.4607    5.2116 C   0  0  0  0  0  0  0  0  0  0  0  0
   17.9839  -15.8433    5.0433 C   0  0  2  0  0  0  0  0  0  0  0  0
   16.8333  -16.6348    4.5672 N   0  0  0  0  0  0  0  0  0  0  0  0
   18.5421  -16.4169    6.2567 C   0  0  0  0  0  0  0  0  0  0  0  0
   17.6886  -16.9076    7.0881 O   0  0  0  0  0  0  0  0  0  0  0  0
   18.1851  -13.0298    7.0965 C   0  0  0  0  0  0  0  0  0  0  0  0
   19.0050  -12.0663    7.6447 C   0  0  0  0  0  0  0  0  0  0  0  0
   19.9004  -16.5129    6.6411 N   0  0  0  0  0  0  0  0  0  0  0  0
   20.2807  -17.1217    7.9185 C   0  0  1  0  0  0  0  0  0  0  0  0
   21.2954  -18.2025    7.5836 C   0  0  0  0  0  0  0  0  0  0  0  0
   20.7231  -19.4170    7.0040 C   0  0  0  0  0  0  0  0  0  0  0  0
   20.0407  -20.3208    7.8275 C   0  0  0  0  0  0  0  0  0  0  0  0
   19.4957  -21.4504    7.2737 C   0  0  0  0  0  0  0  0  0  0  0  0
   19.6115  -21.7019    5.9310 C   0  0  0  0  0  0  0  0  0  0  0  0
   20.2872  -20.8065    5.1173 C   0  0  0  0  0  0  0  0  0  0  0  0
   20.8447  -19.6612    5.6536 C   0  0  0  0  0  0  0  0  0  0  0  0
   20.9032  -16.1702    8.8520 C   0  0  0  0  0  0  0  0  0  0  0  0
   21.2091  -16.5020   10.0413 O   0  0  0  0  0  0  0  0  0  0  0  0
   21.2009  -14.8638    8.5182 O   0  0  0  0  0  0  0  0  0  0  0  0
  2  1  1  0
  3  2  2  0
  4  2  1  0
  5  4  1  0
  6  5  1  0
  6  7  1  6
  8  6  1  0
  8  9  2  0
 10 11  1  0
 11 12  2  0
 12 13  1  0
 14 13  2  0
 14 15  1  0
 16 15  1  1
 16 17  1  0
 17  8  1  0
 18 16  1  0
 19 18  2  0
 20 14  1  0
 21 20  2  0
 21 11  1  0
 22 18  1  0
 23 24  1  6
 23 22  1  0
 24 25  1  0
 25 26  2  0
 26 27  1  0
 28 27  2  0
 29 28  1  0
 30 25  1  0
 30 29  2  0
 31 33  1  0
 31 23  1  0
 32 31  2  0
M  END
$$$$
