QYF.pdb
     RDKit          3D

 33 34  0  0  1  0  0  0  0  0999 V2000
   29.9823  -17.2711  -18.3423 N   0  0  0  0  0  0  0  0  0  0  0  0
   30.5158  -18.4149  -18.9678 C   0  0  0  0  0  0  0  0  0  0  0  0
   31.6843  -18.3334  -19.4305 O   0  0  0  0  0  0  0  0  0  0  0  0
   29.6917  -19.6421  -19.0519 C   0  0  0  0  0  0  0  0  0  0  0  0
   28.3940  -19.4987  -18.2854 C   0  0  0  0  0  0  0  0  0  0  0  0
   28.2910  -20.4853  -17.1601 C   0  0  2  0  0  0  0  0  0  0  0  0
   28.3782  -21.8536  -17.6367 N   0  0  0  0  0  0  0  0  0  0  0  0
   27.0458  -20.2464  -16.3940 C   0  0  0  0  0  0  0  0  0  0  0  0
   26.7710  -19.0868  -16.0438 O   0  0  0  0  0  0  0  0  0  0  0  0
   18.7215  -22.3969  -13.8694 O   0  0  0  0  0  0  0  0  0  0  0  0
   20.0047  -22.2702  -14.4018 C   0  0  0  0  0  0  0  0  0  0  0  0
   20.9487  -23.2105  -14.0582 C   0  0  0  0  0  0  0  0  0  0  0  0
   22.2422  -23.1250  -14.5648 C   0  0  0  0  0  0  0  0  0  0  0  0
   22.6203  -22.1155  -15.4139 C   0  0  0  0  0  0  0  0  0  0  0  0
   23.9585  -22.0339  -15.9512 C   0  0  0  0  0  0  0  0  0  0  0  0
   24.9383  -21.1160  -15.2846 C   0  0  2  0  0  0  0  0  0  0  0  0
   26.1807  -21.2938  -16.0603 N   0  0  0  0  0  0  0  0  0  0  0  0
   25.1609  -21.3981  -13.8761 C   0  0  0  0  0  0  0  0  0  0  0  0
   25.8180  -22.4760  -13.6180 O   0  0  0  0  0  0  0  0  0  0  0  0
   21.6367  -21.1754  -15.7434 C   0  0  0  0  0  0  0  0  0  0  0  0
   20.3503  -21.2427  -15.2518 C   0  0  0  0  0  0  0  0  0  0  0  0
   24.7562  -20.6402  -12.7519 N   0  0  0  0  0  0  0  0  0  0  0  0
   24.7865  -21.2159  -11.4048 C   0  0  1  0  0  0  0  0  0  0  0  0
   25.7300  -20.3418  -10.5951 C   0  0  0  0  0  0  0  0  0  0  0  0
   27.0993  -20.2878  -11.1054 C   0  0  0  0  0  0  0  0  0  0  0  0
   27.4186  -19.3942  -12.1350 C   0  0  0  0  0  0  0  0  0  0  0  0
   28.7079  -19.3405  -12.5985 C   0  0  0  0  0  0  0  0  0  0  0  0
   29.6806  -20.1475  -12.0674 C   0  0  0  0  0  0  0  0  0  0  0  0
   29.3630  -21.0313  -11.0483 C   0  0  0  0  0  0  0  0  0  0  0  0
   28.0701  -21.1027  -10.5653 C   0  0  0  0  0  0  0  0  0  0  0  0
   23.4714  -21.2185  -10.7454 C   0  0  0  0  0  0  0  0  0  0  0  0
   22.4584  -20.6557  -11.2697 O   0  0  0  0  0  0  0  0  0  0  0  0
   23.2348  -21.8220   -9.5261 O   0  0  0  0  0  0  0  0  0  0  0  0
  2  1  1  0
  3  2  2  0
  4  2  1  0
  5  4  1  0
  6  5  1  0
  6  7  1  6
  8  6  1  0
  8  9  2  0
 10 11  1  0
 11 12  2  0
 12 13  1  0
 14 13  2  0
 14 15  1  0
 16 15  1  6
 16 17  1  0
 17  8  1  0
 18 16  1  0
 19 18  2  0
 20 14  1  0
 21 20  2  0
 21 11  1  0
 22 18  1  0
 23 24  1  1
 23 22  1  0
 24 25  1  0
 25 26  2  0
 26 27  1  0
 28 27  2  0
 29 28  1  0
 30 25  1  0
 30 29  2  0
 31 33  1  0
 31 23  1  0
 32 31  2  0
M  END
$$$$
