QYF.pdb
     RDKit          3D

 33 34  0  0  1  0  0  0  0  0999 V2000
   30.0409  -17.5404  -16.4564 N   0  0  0  0  0  0  0  0  0  0  0  0
   30.1040  -17.8239  -17.8347 C   0  0  0  0  0  0  0  0  0  0  0  0
   31.2409  -17.8275  -18.3765 O   0  0  0  0  0  0  0  0  0  0  0  0
   28.8506  -18.1006  -18.5728 C   0  0  0  0  0  0  0  0  0  0  0  0
   27.6533  -18.1419  -17.6471 C   0  0  0  0  0  0  0  0  0  0  0  0
   27.6300  -19.3860  -16.8093 C   0  0  2  0  0  0  0  0  0  0  0  0
   27.5677  -20.5830  -17.6281 N   0  0  0  0  0  0  0  0  0  0  0  0
   26.5098  -19.3203  -15.8422 C   0  0  0  0  0  0  0  0  0  0  0  0
   25.5953  -18.5032  -16.0393 O   0  0  0  0  0  0  0  0  0  0  0  0
   19.2150  -21.8561  -12.2279 O   0  0  0  0  0  0  0  0  0  0  0  0
   20.4387  -21.5542  -12.8258 C   0  0  0  0  0  0  0  0  0  0  0  0
   21.3598  -22.5658  -12.9720 C   0  0  0  0  0  0  0  0  0  0  0  0
   22.5943  -22.3120  -13.5626 C   0  0  0  0  0  0  0  0  0  0  0  0
   22.9352  -21.0624  -14.0155 C   0  0  0  0  0  0  0  0  0  0  0  0
   24.2104  -20.8012  -14.6412 C   0  0  0  0  0  0  0  0  0  0  0  0
   25.3116  -20.2285  -13.8007 C   0  0  2  0  0  0  0  0  0  0  0  0
   26.4630  -20.1546  -14.7204 N   0  0  0  0  0  0  0  0  0  0  0  0
   25.6377  -21.0158  -12.6230 C   0  0  0  0  0  0  0  0  0  0  0  0
   26.6828  -21.7632  -12.7208 O   0  0  0  0  0  0  0  0  0  0  0  0
   21.9763  -20.0557  -13.8516 C   0  0  0  0  0  0  0  0  0  0  0  0
   20.7483  -20.2871  -13.2690 C   0  0  0  0  0  0  0  0  0  0  0  0
   24.9614  -21.0635  -11.3811 N   0  0  0  0  0  0  0  0  0  0  0  0
   25.7002  -21.2324  -10.1270 C   0  0  1  0  0  0  0  0  0  0  0  0
   26.7999  -20.1835  -10.1422 C   0  0  0  0  0  0  0  0  0  0  0  0
   27.6016  -20.1233   -8.9207 C   0  0  0  0  0  0  0  0  0  0  0  0
   28.7261  -20.9476   -8.7906 C   0  0  0  0  0  0  0  0  0  0  0  0
   29.4799  -20.8753   -7.6476 C   0  0  0  0  0  0  0  0  0  0  0  0
   29.1458  -20.0101   -6.6381 C   0  0  0  0  0  0  0  0  0  0  0  0
   28.0327  -19.1950   -6.7683 C   0  0  0  0  0  0  0  0  0  0  0  0
   27.2580  -19.2506   -7.9115 C   0  0  0  0  0  0  0  0  0  0  0  0
   24.8697  -21.0205   -8.9314 C   0  0  0  0  0  0  0  0  0  0  0  0
   25.1283  -21.5945   -7.8261 O   0  0  0  0  0  0  0  0  0  0  0  0
   23.7624  -20.1956   -8.9127 O   0  0  0  0  0  0  0  0  0  0  0  0
  2  1  1  0
  3  2  2  0
  4  2  1  0
  5  4  1  0
  6  5  1  0
  6  7  1  6
  8  6  1  0
  8  9  2  0
 10 11  1  0
 11 12  2  0
 12 13  1  0
 14 13  2  0
 14 15  1  0
 16 15  1  6
 16 17  1  0
 17  8  1  0
 18 16  1  0
 19 18  2  0
 20 14  1  0
 21 20  2  0
 21 11  1  0
 22 18  1  0
 23 24  1  6
 23 22  1  0
 24 25  1  0
 25 26  2  0
 26 27  1  0
 28 27  2  0
 29 28  1  0
 30 25  1  0
 30 29  2  0
 31 33  1  0
 31 23  1  0
 32 31  2  0
M  END
$$$$
