FDR.pdb
     RDKit          3D

 31 31  0  0  1  0  0  0  0  0999 V2000
    6.3695  -14.9915   22.5662 N   0  0  0  0  0  0  0  0  0  0  0  0
    7.6852  -14.5424   22.9867 C   0  0  1  0  0  0  0  0  0  0  0  0
    7.6975  -13.0806   23.3396 C   0  0  0  0  0  0  0  0  0  0  0  0
    7.1697  -12.9937   24.7400 C   0  0  0  0  0  0  0  0  0  0  0  0
    8.0824  -12.9036   25.7789 C   0  0  0  0  0  0  0  0  0  0  0  0
    7.6226  -12.8268   27.0840 C   0  0  0  0  0  0  0  0  0  0  0  0
    6.2856  -12.8374   27.3785 C   0  0  0  0  0  0  0  0  0  0  0  0
    5.3857  -12.9278   26.3329 C   0  0  0  0  0  0  0  0  0  0  0  0
    5.8309  -13.0044   25.0332 C   0  0  0  0  0  0  0  0  0  0  0  0
    8.1301  -15.4275   24.0877 C   0  0  0  0  0  0  0  0  0  0  0  0
    9.0342  -15.0573   24.9079 O   0  0  0  0  0  0  0  0  0  0  0  0
    7.5337  -16.7002   24.2216 N   0  0  0  0  0  0  0  0  0  0  0  0
    7.9158  -17.5884   25.2902 C   0  0  1  0  0  0  0  0  0  0  0  0
    6.8312  -18.6577   25.3712 C   0  0  0  0  0  0  0  0  0  0  0  0
    6.6956  -19.3150   24.0199 C   0  0  0  0  0  0  0  0  0  0  0  0
    7.3043  -18.8291   23.0252 O   0  0  0  0  0  0  0  0  0  0  0  0
    9.1618  -18.3077   24.8466 C   0  0  0  0  0  0  0  0  0  0  0  0
    9.1014  -19.2021   23.9552 O   0  0  0  0  0  0  0  0  0  0  0  0
    5.9183  -20.4416   23.8430 O   0  0  0  0  0  0  0  0  0  0  0  0
   14.3132  -15.6985   20.4828 N   0  0  0  0  0  0  0  0  0  0  0  0
   12.9656  -15.2905   20.3216 C   0  0  0  0  0  0  0  0  0  0  0  0
   12.5625  -14.8144   19.1962 N   0  0  0  0  0  0  0  0  0  0  0  0
   11.9999  -15.3801   21.3711 N   0  0  0  0  0  0  0  0  0  0  0  0
   12.3512  -15.7252   22.7327 C   0  0  0  0  0  0  0  0  0  0  0  0
   11.5245  -16.8246   23.3011 C   0  0  0  0  0  0  0  0  0  0  0  0
   12.3806  -17.7759   24.0979 C   0  0  0  0  0  0  0  0  0  0  0  0
   11.5993  -18.5612   25.1245 C   0  0  2  0  0  0  0  0  0  0  0  0
   10.3622  -17.9174   25.4826 N   0  0  0  0  0  0  0  0  0  0  0  0
   12.5008  -18.6856   26.3164 C   0  0  0  0  0  0  0  0  0  0  0  0
   13.6319  -19.4530   26.2300 O   0  0  0  0  0  0  0  0  0  0  0  0
   12.2002  -18.0883   27.3584 O   0  0  0  0  0  0  0  0  0  0  0  0
  2  1  1  1
  2 10  1  0
  3  2  1  0
  3  4  1  0
  4  5  2  0
  4  9  1  0
  5  6  1  0
  6  7  2  0
  8  7  1  0
  9  8  2  0
 10 11  2  0
 12 10  1  0
 12 13  1  0
 13 14  1  6
 13 17  1  0
 15 14  1  0
 16 15  2  0
 17 18  2  0
 19 15  1  0
 20 21  1  0
 21 22  2  0
 21 23  1  0
 23 24  1  0
 24 25  1  0
 25 26  1  0
 27 26  1  6
 27 29  1  0
 28 27  1  0
 28 17  1  0
 29 31  2  0
 29 30  1  0
M  END
$$$$
