FDR.pdb
     RDKit          3D

 31 31  0  0  1  0  0  0  0  0999 V2000
    8.3211  -15.7108   27.1009 N   0  0  0  0  0  0  0  0  0  0  0  0
    7.7659  -16.1436   25.8305 C   0  0  1  0  0  0  0  0  0  0  0  0
    7.6867  -15.0188   24.8355 C   0  0  0  0  0  0  0  0  0  0  0  0
    7.3956  -13.7850   25.6356 C   0  0  0  0  0  0  0  0  0  0  0  0
    6.1521  -13.6735   26.2372 C   0  0  0  0  0  0  0  0  0  0  0  0
    5.8540  -12.5414   26.9789 C   0  0  0  0  0  0  0  0  0  0  0  0
    6.7570  -11.5243   27.1355 C   0  0  0  0  0  0  0  0  0  0  0  0
    7.9937  -11.6480   26.5300 C   0  0  0  0  0  0  0  0  0  0  0  0
    8.3006  -12.7676   25.7914 C   0  0  0  0  0  0  0  0  0  0  0  0
    8.5640  -17.3005   25.3635 C   0  0  0  0  0  0  0  0  0  0  0  0
    9.6789  -17.5962   25.9083 O   0  0  0  0  0  0  0  0  0  0  0  0
    8.0700  -18.0827   24.2969 N   0  0  0  0  0  0  0  0  0  0  0  0
    8.8384  -19.1798   23.7653 C   0  0  1  0  0  0  0  0  0  0  0  0
    7.8316  -20.1881   23.2214 C   0  0  0  0  0  0  0  0  0  0  0  0
    8.5826  -21.3748   22.6698 C   0  0  0  0  0  0  0  0  0  0  0  0
    8.7760  -21.4677   21.4248 O   0  0  0  0  0  0  0  0  0  0  0  0
    9.5819  -18.6608   22.5634 C   0  0  0  0  0  0  0  0  0  0  0  0
    9.0618  -18.7233   21.4129 O   0  0  0  0  0  0  0  0  0  0  0  0
    9.0671  -22.3672   23.4975 O   0  0  0  0  0  0  0  0  0  0  0  0
    7.3847  -14.0572   19.0410 N   0  0  0  0  0  0  0  0  0  0  0  0
    8.4748  -13.1518   19.0243 C   0  0  0  0  0  0  0  0  0  0  0  0
    8.2681  -11.8909   18.8719 N   0  0  0  0  0  0  0  0  0  0  0  0
    9.8323  -13.5733   19.1708 N   0  0  0  0  0  0  0  0  0  0  0  0
   10.1989  -14.8526   19.7413 C   0  0  0  0  0  0  0  0  0  0  0  0
   10.8606  -14.7449   21.0701 C   0  0  0  0  0  0  0  0  0  0  0  0
   10.4060  -15.8562   21.9819 C   0  0  0  0  0  0  0  0  0  0  0  0
   11.3488  -17.0359   21.9970 C   0  0  2  0  0  0  0  0  0  0  0  0
   10.8622  -18.1169   22.8141 N   0  0  0  0  0  0  0  0  0  0  0  0
   12.6507  -16.5116   22.5253 C   0  0  0  0  0  0  0  0  0  0  0  0
   13.0823  -16.9020   23.7651 O   0  0  0  0  0  0  0  0  0  0  0  0
   13.3101  -15.7325   21.8246 O   0  0  0  0  0  0  0  0  0  0  0  0
  2  1  1  1
  2 10  1  0
  3  2  1  0
  3  4  1  0
  4  5  2  0
  4  9  1  0
  5  6  1  0
  6  7  2  0
  8  7  1  0
  9  8  2  0
 10 11  2  0
 12 10  1  0
 12 13  1  0
 13 14  1  6
 13 17  1  0
 15 14  1  0
 16 15  2  0
 17 18  2  0
 19 15  1  0
 20 21  1  0
 21 22  2  0
 21 23  1  0
 23 24  1  0
 24 25  1  0
 25 26  1  0
 27 26  1  1
 27 29  1  0
 28 27  1  0
 28 17  1  0
 29 31  2  0
 29 30  1  0
M  END
$$$$
