FDR.pdb
     RDKit          3D

 31 31  0  0  1  0  0  0  0  0999 V2000
    8.3807  -16.0918   27.4120 N   0  0  0  0  0  0  0  0  0  0  0  0
    7.7868  -16.1952   26.0906 C   0  0  1  0  0  0  0  0  0  0  0  0
    8.0191  -14.9580   25.2679 C   0  0  0  0  0  0  0  0  0  0  0  0
    7.4025  -13.8313   26.0411 C   0  0  0  0  0  0  0  0  0  0  0  0
    8.2459  -12.9559   26.7068 C   0  0  0  0  0  0  0  0  0  0  0  0
    7.7030  -11.9080   27.4333 C   0  0  0  0  0  0  0  0  0  0  0  0
    6.3505  -11.7113   27.5130 C   0  0  0  0  0  0  0  0  0  0  0  0
    5.5204  -12.5917   26.8445 C   0  0  0  0  0  0  0  0  0  0  0  0
    6.0483  -13.6356   26.1199 C   0  0  0  0  0  0  0  0  0  0  0  0
    8.3002  -17.4353   25.4644 C   0  0  0  0  0  0  0  0  0  0  0  0
    9.2568  -18.0940   25.9919 O   0  0  0  0  0  0  0  0  0  0  0  0
    7.7105  -17.8864   24.2634 N   0  0  0  0  0  0  0  0  0  0  0  0
    8.1815  -19.0816   23.6104 C   0  0  1  0  0  0  0  0  0  0  0  0
    7.0110  -19.6156   22.7913 C   0  0  0  0  0  0  0  0  0  0  0  0
    6.0161  -20.2569   23.7271 C   0  0  0  0  0  0  0  0  0  0  0  0
    6.3159  -20.4153   24.9441 O   0  0  0  0  0  0  0  0  0  0  0  0
    9.2203  -18.6595   22.6057 C   0  0  0  0  0  0  0  0  0  0  0  0
    9.7140  -19.5023   21.8032 O   0  0  0  0  0  0  0  0  0  0  0  0
    4.7786  -20.6766   23.2833 O   0  0  0  0  0  0  0  0  0  0  0  0
    8.6704  -13.8076   16.8842 N   0  0  0  0  0  0  0  0  0  0  0  0
    7.7423  -13.5254   17.9174 C   0  0  0  0  0  0  0  0  0  0  0  0
    7.0029  -12.4742   17.8553 N   0  0  0  0  0  0  0  0  0  0  0  0
    7.5770  -14.3680   19.0596 N   0  0  0  0  0  0  0  0  0  0  0  0
    8.5136  -14.3849   20.1637 C   0  0  0  0  0  0  0  0  0  0  0  0
    9.5599  -15.4364   20.0416 C   0  0  0  0  0  0  0  0  0  0  0  0
   10.4452  -15.4496   21.2619 C   0  0  0  0  0  0  0  0  0  0  0  0
   10.6795  -16.8366   21.8114 C   0  0  2  0  0  0  0  0  0  0  0  0
    9.5866  -17.2946   22.6294 N   0  0  0  0  0  0  0  0  0  0  0  0
   11.9453  -16.7509   22.6108 C   0  0  0  0  0  0  0  0  0  0  0  0
   11.8962  -16.9033   23.9711 O   0  0  0  0  0  0  0  0  0  0  0  0
   13.0130  -16.5427   22.0196 O   0  0  0  0  0  0  0  0  0  0  0  0
  2  1  1  1
  2 10  1  0
  3  2  1  0
  3  4  1  0
  4  5  2  0
  4  9  1  0
  5  6  1  0
  6  7  2  0
  8  7  1  0
  9  8  2  0
 10 11  2  0
 12 10  1  0
 12 13  1  0
 13 14  1  6
 13 17  1  0
 15 14  1  0
 16 15  2  0
 17 18  2  0
 19 15  1  0
 20 21  1  0
 21 22  2  0
 21 23  1  0
 23 24  1  0
 24 25  1  0
 25 26  1  0
 27 26  1  1
 27 29  1  0
 28 27  1  0
 28 17  1  0
 29 31  2  0
 29 30  1  0
M  END
$$$$
