FDR.pdb
     RDKit          3D

 31 31  0  0  1  0  0  0  0  0999 V2000
    6.1206  -16.0576   22.6318 N   0  0  0  0  0  0  0  0  0  0  0  0
    6.5791  -16.7172   21.4217 C   0  0  1  0  0  0  0  0  0  0  0  0
    6.1997  -15.9535   20.1830 C   0  0  0  0  0  0  0  0  0  0  0  0
    6.8910  -14.6278   20.2923 C   0  0  0  0  0  0  0  0  0  0  0  0
    7.7576  -14.2560   19.2767 C   0  0  0  0  0  0  0  0  0  0  0  0
    8.4141  -13.0380   19.3541 C   0  0  0  0  0  0  0  0  0  0  0  0
    8.2304  -12.1865   20.4104 C   0  0  0  0  0  0  0  0  0  0  0  0
    7.3634  -12.5694   21.4168 C   0  0  0  0  0  0  0  0  0  0  0  0
    6.7061  -13.7765   21.3503 C   0  0  0  0  0  0  0  0  0  0  0  0
    8.0357  -16.9463   21.5607 C   0  0  0  0  0  0  0  0  0  0  0  0
    8.6886  -17.5975   20.6793 O   0  0  0  0  0  0  0  0  0  0  0  0
    8.7016  -16.4280   22.6928 N   0  0  0  0  0  0  0  0  0  0  0  0
   10.0534  -16.8210   23.0011 C   0  0  1  0  0  0  0  0  0  0  0  0
   10.9612  -15.7540   22.3981 C   0  0  0  0  0  0  0  0  0  0  0  0
   12.3978  -16.1696   22.5977 C   0  0  0  0  0  0  0  0  0  0  0  0
   12.6862  -17.3962   22.6894 O   0  0  0  0  0  0  0  0  0  0  0  0
   10.2221  -16.7012   24.4924 C   0  0  0  0  0  0  0  0  0  0  0  0
    9.9173  -15.6279   25.0868 O   0  0  0  0  0  0  0  0  0  0  0  0
   13.4112  -15.2365   22.6824 O   0  0  0  0  0  0  0  0  0  0  0  0
    5.8139  -23.4925   27.2748 N   0  0  0  0  0  0  0  0  0  0  0  0
    5.9183  -22.3452   28.1002 C   0  0  0  0  0  0  0  0  0  0  0  0
    4.8895  -21.9106   28.7393 N   0  0  0  0  0  0  0  0  0  0  0  0
    7.1389  -21.6213   28.2670 N   0  0  0  0  0  0  0  0  0  0  0  0
    7.9187  -21.1308   27.1500 C   0  0  0  0  0  0  0  0  0  0  0  0
    8.0173  -19.6466   27.0980 C   0  0  0  0  0  0  0  0  0  0  0  0
    8.8421  -19.2098   25.9140 C   0  0  0  0  0  0  0  0  0  0  0  0
   10.0366  -18.3699   26.2991 C   0  0  2  0  0  0  0  0  0  0  0  0
   10.7299  -17.8433   25.1523 N   0  0  0  0  0  0  0  0  0  0  0  0
   10.9310  -19.2725   27.0955 C   0  0  0  0  0  0  0  0  0  0  0  0
   10.8626  -19.2550   28.4633 O   0  0  0  0  0  0  0  0  0  0  0  0
   11.7164  -20.0176   26.4948 O   0  0  0  0  0  0  0  0  0  0  0  0
  2  1  1  1
  2 10  1  0
  3  2  1  0
  3  4  1  0
  4  5  2  0
  4  9  1  0
  5  6  1  0
  6  7  2  0
  8  7  1  0
  9  8  2  0
 10 11  2  0
 12 10  1  0
 12 13  1  0
 13 14  1  6
 13 17  1  0
 15 14  1  0
 16 15  2  0
 17 18  2  0
 19 15  1  0
 20 21  1  0
 21 22  2  0
 21 23  1  0
 23 24  1  0
 24 25  1  0
 25 26  1  0
 27 26  1  6
 27 29  1  0
 28 27  1  0
 28 17  1  0
 29 31  2  0
 29 30  1  0
M  END
$$$$
