FDR.pdb
     RDKit          3D

 31 31  0  0  1  0  0  0  0  0999 V2000
    7.3149  -17.7382   19.3094 N   0  0  0  0  0  0  0  0  0  0  0  0
    7.7517  -16.5977   20.0955 C   0  0  1  0  0  0  0  0  0  0  0  0
    6.5941  -15.8460   20.6927 C   0  0  0  0  0  0  0  0  0  0  0  0
    7.1957  -14.6879   21.4303 C   0  0  0  0  0  0  0  0  0  0  0  0
    7.2994  -14.7733   22.8097 C   0  0  0  0  0  0  0  0  0  0  0  0
    7.8470  -13.7153   23.5177 C   0  0  0  0  0  0  0  0  0  0  0  0
    8.2911  -12.5820   22.8909 C   0  0  0  0  0  0  0  0  0  0  0  0
    8.1817  -12.5096   21.5147 C   0  0  0  0  0  0  0  0  0  0  0  0
    7.6398  -13.5540   20.8014 C   0  0  0  0  0  0  0  0  0  0  0  0
    8.7258  -17.0901   21.0965 C   0  0  0  0  0  0  0  0  0  0  0  0
    8.4021  -17.9815   21.9496 O   0  0  0  0  0  0  0  0  0  0  0  0
   10.0330  -16.5565   21.0945 N   0  0  0  0  0  0  0  0  0  0  0  0
   11.0578  -17.1042   21.9468 C   0  0  1  0  0  0  0  0  0  0  0  0
   12.3875  -16.5798   21.4146 C   0  0  0  0  0  0  0  0  0  0  0  0
   13.5103  -17.3130   22.1063 C   0  0  0  0  0  0  0  0  0  0  0  0
   13.2434  -18.2660   22.8916 O   0  0  0  0  0  0  0  0  0  0  0  0
   10.8890  -16.4768   23.3050 C   0  0  0  0  0  0  0  0  0  0  0  0
   11.1575  -15.2544   23.4831 O   0  0  0  0  0  0  0  0  0  0  0  0
   14.8301  -16.9661   21.9002 O   0  0  0  0  0  0  0  0  0  0  0  0
    4.6648  -13.1789   26.2156 N   0  0  0  0  0  0  0  0  0  0  0  0
    5.8665  -12.4281   26.2334 C   0  0  0  0  0  0  0  0  0  0  0  0
    5.8272  -11.1423   26.2623 N   0  0  0  0  0  0  0  0  0  0  0  0
    7.1591  -13.0372   26.2199 N   0  0  0  0  0  0  0  0  0  0  0  0
    7.3531  -14.4613   26.0444 C   0  0  0  0  0  0  0  0  0  0  0  0
    8.7746  -14.8875   26.1574 C   0  0  0  0  0  0  0  0  0  0  0  0
    8.8960  -16.3815   25.9955 C   0  0  0  0  0  0  0  0  0  0  0  0
   10.3011  -16.8322   25.6738 C   0  0  2  0  0  0  0  0  0  0  0  0
   10.4227  -17.3322   24.3290 N   0  0  0  0  0  0  0  0  0  0  0  0
   10.6255  -17.9028   26.6726 C   0  0  0  0  0  0  0  0  0  0  0  0
   10.9568  -19.1572   26.2340 O   0  0  0  0  0  0  0  0  0  0  0  0
   10.5859  -17.6268   27.8789 O   0  0  0  0  0  0  0  0  0  0  0  0
  2  1  1  1
  2 10  1  0
  3  2  1  0
  3  4  1  0
  4  5  2  0
  4  9  1  0
  5  6  1  0
  6  7  2  0
  8  7  1  0
  9  8  2  0
 10 11  2  0
 12 10  1  0
 12 13  1  0
 13 14  1  6
 13 17  1  0
 15 14  1  0
 16 15  2  0
 17 18  2  0
 19 15  1  0
 20 21  1  0
 21 22  2  0
 21 23  1  0
 23 24  1  0
 24 25  1  0
 25 26  1  0
 27 26  1  1
 27 29  1  0
 28 27  1  0
 28 17  1  0
 29 31  2  0
 29 30  1  0
M  END
$$$$
