FDR.pdb
     RDKit          3D

 31 31  0  0  1  0  0  0  0  0999 V2000
    7.7980  -16.8000   16.9644 N   0  0  0  0  0  0  0  0  0  0  0  0
    8.0464  -15.9228   18.0951 C   0  0  1  0  0  0  0  0  0  0  0  0
    6.7745  -15.3469   18.6539 C   0  0  0  0  0  0  0  0  0  0  0  0
    7.1882  -14.4890   19.8116 C   0  0  0  0  0  0  0  0  0  0  0  0
    6.9500  -14.9599   21.0931 C   0  0  0  0  0  0  0  0  0  0  0  0
    7.3177  -14.1856   22.1820 C   0  0  0  0  0  0  0  0  0  0  0  0
    7.9127  -12.9622   22.0279 C   0  0  0  0  0  0  0  0  0  0  0  0
    8.1447  -12.5041   20.7443 C   0  0  0  0  0  0  0  0  0  0  0  0
    7.7839  -13.2646   19.6557 C   0  0  0  0  0  0  0  0  0  0  0  0
    8.8447  -16.6824   19.0847 C   0  0  0  0  0  0  0  0  0  0  0  0
    8.3801  -17.7316   19.6420 O   0  0  0  0  0  0  0  0  0  0  0  0
   10.1420  -16.2275   19.4066 N   0  0  0  0  0  0  0  0  0  0  0  0
   10.9592  -16.9344   20.3601 C   0  0  1  0  0  0  0  0  0  0  0  0
   12.3648  -16.3553   20.2367 C   0  0  0  0  0  0  0  0  0  0  0  0
   13.3201  -17.2309   21.0096 C   0  0  0  0  0  0  0  0  0  0  0  0
   12.8745  -18.2147   21.6651 O   0  0  0  0  0  0  0  0  0  0  0  0
   10.4792  -16.5444   21.7328 C   0  0  0  0  0  0  0  0  0  0  0  0
   10.6209  -15.3586   22.1474 O   0  0  0  0  0  0  0  0  0  0  0  0
   14.6776  -16.9822   21.0174 O   0  0  0  0  0  0  0  0  0  0  0  0
    8.2735  -19.1125   28.7125 N   0  0  0  0  0  0  0  0  0  0  0  0
    7.2780  -19.9419   28.1385 C   0  0  0  0  0  0  0  0  0  0  0  0
    7.1164  -21.1471   28.5594 N   0  0  0  0  0  0  0  0  0  0  0  0
    6.4178  -19.5019   27.0857 N   0  0  0  0  0  0  0  0  0  0  0  0
    6.8697  -19.3400   25.7197 C   0  0  0  0  0  0  0  0  0  0  0  0
    8.0560  -18.4511   25.5858 C   0  0  0  0  0  0  0  0  0  0  0  0
    8.1374  -17.8796   24.1931 C   0  0  0  0  0  0  0  0  0  0  0  0
    9.4991  -17.3179   23.8597 C   0  0  2  0  0  0  0  0  0  0  0  0
    9.8784  -17.5724   22.4943 N   0  0  0  0  0  0  0  0  0  0  0  0
   10.4555  -17.9737   24.8105 C   0  0  0  0  0  0  0  0  0  0  0  0
   10.7021  -17.3943   26.0267 O   0  0  0  0  0  0  0  0  0  0  0  0
   11.0043  -19.0308   24.4724 O   0  0  0  0  0  0  0  0  0  0  0  0
  2  1  1  6
  2 10  1  0
  3  2  1  0
  3  4  1  0
  4  5  2  0
  4  9  1  0
  5  6  1  0
  6  7  2  0
  8  7  1  0
  9  8  2  0
 10 11  2  0
 12 10  1  0
 12 13  1  0
 13 14  1  1
 13 17  1  0
 15 14  1  0
 16 15  2  0
 17 18  2  0
 19 15  1  0
 20 21  1  0
 21 22  2  0
 21 23  1  0
 23 24  1  0
 24 25  1  0
 25 26  1  0
 27 26  1  6
 27 29  1  0
 28 27  1  0
 28 17  1  0
 29 31  2  0
 29 30  1  0
M  END
$$$$
