FDR.pdb
     RDKit          3D

 31 31  0  0  1  0  0  0  0  0999 V2000
    6.6365  -15.1489   24.3588 N   0  0  0  0  0  0  0  0  0  0  0  0
    7.8459  -15.4192   25.1164 C   0  0  1  0  0  0  0  0  0  0  0  0
    7.6434  -15.2228   26.5935 C   0  0  0  0  0  0  0  0  0  0  0  0
    7.3105  -13.7720   26.7712 C   0  0  0  0  0  0  0  0  0  0  0  0
    5.9796  -13.4212   26.9338 C   0  0  0  0  0  0  0  0  0  0  0  0
    5.6424  -12.0867   27.0952 C   0  0  0  0  0  0  0  0  0  0  0  0
    6.5909  -11.0994   27.0988 C   0  0  0  0  0  0  0  0  0  0  0  0
    7.9148  -11.4628   26.9356 C   0  0  0  0  0  0  0  0  0  0  0  0
    8.2611  -12.7848   26.7746 C   0  0  0  0  0  0  0  0  0  0  0  0
    8.3091  -16.7778   24.7513 C   0  0  0  0  0  0  0  0  0  0  0  0
    9.2904  -17.3250   25.3552 O   0  0  0  0  0  0  0  0  0  0  0  0
    7.6429  -17.4691   23.7160 N   0  0  0  0  0  0  0  0  0  0  0  0
    8.3294  -18.4596   22.9259 C   0  0  1  0  0  0  0  0  0  0  0  0
    7.2992  -19.5328   22.5892 C   0  0  0  0  0  0  0  0  0  0  0  0
    7.9622  -20.5954   21.7479 C   0  0  0  0  0  0  0  0  0  0  0  0
    8.9043  -21.2810   22.2364 O   0  0  0  0  0  0  0  0  0  0  0  0
    8.6851  -17.8132   21.6135 C   0  0  0  0  0  0  0  0  0  0  0  0
    9.1576  -18.5050   20.6667 O   0  0  0  0  0  0  0  0  0  0  0  0
    7.5618  -20.8386   20.4498 O   0  0  0  0  0  0  0  0  0  0  0  0
    8.2928  -13.5203   14.2223 N   0  0  0  0  0  0  0  0  0  0  0  0
    8.2528  -14.1017   15.5141 C   0  0  0  0  0  0  0  0  0  0  0  0
    8.6570  -15.3100   15.6940 N   0  0  0  0  0  0  0  0  0  0  0  0
    7.7733  -13.4004   16.6632 N   0  0  0  0  0  0  0  0  0  0  0  0
    7.5598  -14.0445   17.9423 C   0  0  0  0  0  0  0  0  0  0  0  0
    8.4934  -13.5824   19.0054 C   0  0  0  0  0  0  0  0  0  0  0  0
    8.2291  -14.3113   20.2984 C   0  0  0  0  0  0  0  0  0  0  0  0
    8.7596  -15.7253   20.3028 C   0  0  2  0  0  0  0  0  0  0  0  0
    8.4568  -16.4212   21.5264 N   0  0  0  0  0  0  0  0  0  0  0  0
   10.2419  -15.6061   20.1093 C   0  0  0  0  0  0  0  0  0  0  0  0
   10.7592  -15.6057   18.8412 O   0  0  0  0  0  0  0  0  0  0  0  0
   10.9694  -15.5106   21.1066 O   0  0  0  0  0  0  0  0  0  0  0  0
  2  1  1  6
  2 10  1  0
  3  2  1  0
  3  4  1  0
  4  5  2  0
  4  9  1  0
  5  6  1  0
  6  7  2  0
  8  7  1  0
  9  8  2  0
 10 11  2  0
 12 10  1  0
 12 13  1  0
 13 14  1  6
 13 17  1  0
 15 14  1  0
 16 15  2  0
 17 18  2  0
 19 15  1  0
 20 21  1  0
 21 22  2  0
 21 23  1  0
 23 24  1  0
 24 25  1  0
 25 26  1  0
 27 26  1  1
 27 29  1  0
 28 27  1  0
 28 17  1  0
 29 31  2  0
 29 30  1  0
M  END
$$$$
