FDR.pdb
     RDKit          3D

 31 31  0  0  1  0  0  0  0  0999 V2000
    8.8601  -13.7884   23.5290 N   0  0  0  0  0  0  0  0  0  0  0  0
    7.8874  -14.8493   23.7237 C   0  0  1  0  0  0  0  0  0  0  0  0
    6.6602  -14.6535   22.8769 C   0  0  0  0  0  0  0  0  0  0  0  0
    7.1502  -14.1222   21.5636 C   0  0  0  0  0  0  0  0  0  0  0  0
    7.5999  -12.8122   21.5145 C   0  0  0  0  0  0  0  0  0  0  0  0
    8.0540  -12.2932   20.3124 C   0  0  0  0  0  0  0  0  0  0  0  0
    8.0715  -13.0409   19.1657 C   0  0  0  0  0  0  0  0  0  0  0  0
    7.6202  -14.3462   19.2284 C   0  0  0  0  0  0  0  0  0  0  0  0
    7.1672  -14.8720   20.4165 C   0  0  0  0  0  0  0  0  0  0  0  0
    8.5775  -16.1385   23.4884 C   0  0  0  0  0  0  0  0  0  0  0  0
    8.0222  -17.2481   23.7847 O   0  0  0  0  0  0  0  0  0  0  0  0
    9.8716  -16.1252   22.9239 N   0  0  0  0  0  0  0  0  0  0  0  0
   10.6285  -17.3428   22.7784 C   0  0  1  0  0  0  0  0  0  0  0  0
   11.6577  -17.0827   21.6832 C   0  0  0  0  0  0  0  0  0  0  0  0
   12.3909  -18.3685   21.3907 C   0  0  0  0  0  0  0  0  0  0  0  0
   12.0269  -19.4376   21.9570 O   0  0  0  0  0  0  0  0  0  0  0  0
   11.4218  -17.5273   24.0446 C   0  0  0  0  0  0  0  0  0  0  0  0
   12.1883  -16.6113   24.4588 O   0  0  0  0  0  0  0  0  0  0  0  0
   13.4558  -18.4057   20.5136 O   0  0  0  0  0  0  0  0  0  0  0  0
   13.2517  -21.4796   30.5606 N   0  0  0  0  0  0  0  0  0  0  0  0
   11.9110  -21.7981   30.8911 C   0  0  0  0  0  0  0  0  0  0  0  0
   11.6476  -22.8405   31.5982 N   0  0  0  0  0  0  0  0  0  0  0  0
   10.8009  -21.0030   30.4698 N   0  0  0  0  0  0  0  0  0  0  0  0
   10.4249  -20.8556   29.0793 C   0  0  0  0  0  0  0  0  0  0  0  0
   11.3674  -20.0138   28.2931 C   0  0  0  0  0  0  0  0  0  0  0  0
   10.8782  -19.8493   26.8766 C   0  0  0  0  0  0  0  0  0  0  0  0
   11.7405  -18.9217   26.0538 C   0  0  2  0  0  0  0  0  0  0  0  0
   11.2478  -18.7619   24.7104 N   0  0  0  0  0  0  0  0  0  0  0  0
   13.1101  -19.5323   26.0510 C   0  0  0  0  0  0  0  0  0  0  0  0
   14.0031  -19.1916   27.0320 O   0  0  0  0  0  0  0  0  0  0  0  0
   13.4049  -20.3356   25.1561 O   0  0  0  0  0  0  0  0  0  0  0  0
  2  1  1  6
  2 10  1  0
  3  2  1  0
  3  4  1  0
  4  5  2  0
  4  9  1  0
  5  6  1  0
  6  7  2  0
  8  7  1  0
  9  8  2  0
 10 11  2  0
 12 10  1  0
 12 13  1  0
 13 14  1  6
 13 17  1  0
 15 14  1  0
 16 15  2  0
 17 18  2  0
 19 15  1  0
 20 21  1  0
 21 22  2  0
 21 23  1  0
 23 24  1  0
 24 25  1  0
 25 26  1  0
 27 26  1  1
 27 29  1  0
 28 27  1  0
 28 17  1  0
 29 31  2  0
 29 30  1  0
M  END
$$$$
