FDR.pdb
     RDKit          3D

 31 31  0  0  1  0  0  0  0  0999 V2000
    8.6924  -14.7890   23.0149 N   0  0  0  0  0  0  0  0  0  0  0  0
    9.5774  -15.7585   22.3933 C   0  0  1  0  0  0  0  0  0  0  0  0
   10.0581  -15.3014   21.0437 C   0  0  0  0  0  0  0  0  0  0  0  0
    8.9424  -14.4821   20.4683 C   0  0  0  0  0  0  0  0  0  0  0  0
    9.0453  -13.1014   20.5298 C   0  0  0  0  0  0  0  0  0  0  0  0
    8.0262  -12.3192   20.0100 C   0  0  0  0  0  0  0  0  0  0  0  0
    6.9147  -12.8737   19.4341 C   0  0  0  0  0  0  0  0  0  0  0  0
    6.8245  -14.2521   19.3792 C   0  0  0  0  0  0  0  0  0  0  0  0
    7.8303  -15.0386   19.8921 C   0  0  0  0  0  0  0  0  0  0  0  0
   10.6694  -16.0472   23.3513 C   0  0  0  0  0  0  0  0  0  0  0  0
   11.1749  -15.1252   24.0733 O   0  0  0  0  0  0  0  0  0  0  0  0
   11.1489  -17.3709   23.4586 N   0  0  0  0  0  0  0  0  0  0  0  0
   12.2426  -17.6931   24.3399 C   0  0  1  0  0  0  0  0  0  0  0  0
   12.0570  -19.1526   24.7422 C   0  0  0  0  0  0  0  0  0  0  0  0
   12.5391  -19.3303   26.1608 C   0  0  0  0  0  0  0  0  0  0  0  0
   13.0662  -18.3557   26.7679 O   0  0  0  0  0  0  0  0  0  0  0  0
   13.5027  -17.6566   23.5168 C   0  0  0  0  0  0  0  0  0  0  0  0
   13.6190  -18.3875   22.4919 O   0  0  0  0  0  0  0  0  0  0  0  0
   12.4171  -20.5389   26.8158 O   0  0  0  0  0  0  0  0  0  0  0  0
   14.6241  -15.0367   16.6921 N   0  0  0  0  0  0  0  0  0  0  0  0
   15.1925  -14.2277   17.7073 C   0  0  0  0  0  0  0  0  0  0  0  0
   16.1059  -13.3691   17.4168 N   0  0  0  0  0  0  0  0  0  0  0  0
   14.7969  -14.3149   19.0777 N   0  0  0  0  0  0  0  0  0  0  0  0
   15.5626  -15.0395   20.0702 C   0  0  0  0  0  0  0  0  0  0  0  0
   14.8598  -15.1872   21.3739 C   0  0  0  0  0  0  0  0  0  0  0  0
   15.8523  -15.3358   22.4989 C   0  0  0  0  0  0  0  0  0  0  0  0
   15.7379  -16.6569   23.2218 C   0  0  2  0  0  0  0  0  0  0  0  0
   14.5097  -16.7716   23.9643 N   0  0  0  0  0  0  0  0  0  0  0  0
   16.9236  -16.7256   24.1374 C   0  0  0  0  0  0  0  0  0  0  0  0
   18.1851  -16.7706   23.6060 O   0  0  0  0  0  0  0  0  0  0  0  0
   16.7342  -16.7405   25.3609 O   0  0  0  0  0  0  0  0  0  0  0  0
  2  1  1  1
  2 10  1  0
  3  2  1  0
  3  4  1  0
  4  5  2  0
  4  9  1  0
  5  6  1  0
  6  7  2  0
  8  7  1  0
  9  8  2  0
 10 11  2  0
 12 10  1  0
 12 13  1  0
 13 14  1  6
 13 17  1  0
 15 14  1  0
 16 15  2  0
 17 18  2  0
 19 15  1  0
 20 21  1  0
 21 22  2  0
 21 23  1  0
 23 24  1  0
 24 25  1  0
 25 26  1  0
 27 26  1  1
 27 29  1  0
 28 27  1  0
 28 17  1  0
 29 31  2  0
 29 30  1  0
M  END
$$$$
