NIV.pdb
     RDKit          3D

 24 23  0  0  1  0  0  0  0  0999 V2000
   12.0759  -19.9949   19.4830 N   0  0  0  0  0  0  0  0  0  0  0  0
   12.6867  -19.7996   20.7457 C   0  0  0  0  0  0  0  0  0  0  0  0
   13.3838  -20.7243   21.2109 O   0  0  0  0  0  0  0  0  0  0  0  0
   12.5032  -18.5490   21.4795 C   0  0  0  0  0  0  0  0  0  0  0  0
   11.5746  -17.5579   20.8733 C   0  0  2  0  0  0  0  0  0  0  0  0
   12.1383  -17.0038   19.6863 N   0  0  0  0  0  0  0  0  0  0  0  0
   11.1082  -16.5133   21.8135 C   0  0  0  0  0  0  0  0  0  0  0  0
   11.7922  -15.4784   21.9883 O   0  0  0  0  0  0  0  0  0  0  0  0
    6.4048  -14.4329   21.2505 C   0  0  0  0  0  0  0  0  0  0  0  0
    7.8082  -14.7100   21.6603 C   0  0  0  0  0  0  0  0  0  0  0  0
    8.0333  -15.2135   23.0232 C   0  0  2  0  0  0  0  0  0  0  0  0
    7.1527  -14.5567   24.0708 C   0  0  0  0  0  0  0  0  0  0  0  0
    9.4043  -15.5392   23.4437 C   0  0  2  0  0  0  0  0  0  0  0  0
    9.8996  -16.6390   22.5356 N   0  0  0  0  0  0  0  0  0  0  0  0
    9.7071  -15.9089   24.8129 C   0  0  0  0  0  0  0  0  0  0  0  0
    9.9734  -17.1217   25.1477 O   0  0  0  0  0  0  0  0  0  0  0  0
   10.4692  -14.6696   29.6159 C   0  0  0  0  0  0  0  0  0  0  0  0
    9.9853  -14.3249   28.2418 C   0  0  1  0  0  0  0  0  0  0  0  0
   10.8044  -13.1713   27.7178 C   0  0  0  0  0  0  0  0  0  0  0  0
   10.1596  -15.4765   27.2504 C   0  0  2  0  0  0  0  0  0  0  0  0
    9.7565  -15.0127   25.9088 N   0  0  0  0  0  0  0  0  0  0  0  0
    9.2784  -16.5842   27.6299 C   0  0  0  0  0  0  0  0  0  0  0  0
    9.8005  -17.6415   28.3940 O   0  0  0  0  0  0  0  0  0  0  0  0
    8.0755  -16.6802   27.3309 O   0  0  0  0  0  0  0  0  0  0  0  0
  2  3  2  0
  2  1  1  0
  4  2  1  0
  5  6  1  6
  5  4  1  0
  7  5  1  0
  8  7  2  0
  9 10  1  0
 10 11  1  0
 11 12  1  1
 11 13  1  0
 13 14  1  6
 14  7  1  0
 15 13  1  0
 15 21  1  0
 16 15  2  0
 18 17  1  1
 19 18  1  0
 20 18  1  0
 20 21  1  6
 20 22  1  0
 22 23  1  0
 24 22  2  0
M  END
$$$$
