NIV.pdb
     RDKit          3D

 24 23  0  0  1  0  0  0  0  0999 V2000
   11.3621  -19.8393   17.1353 N   0  0  0  0  0  0  0  0  0  0  0  0
   12.0729  -18.6150   17.0938 C   0  0  0  0  0  0  0  0  0  0  0  0
   13.0170  -18.5105   16.2844 O   0  0  0  0  0  0  0  0  0  0  0  0
   11.7074  -17.5081   17.9755 C   0  0  0  0  0  0  0  0  0  0  0  0
   10.6114  -17.7712   18.9460 C   0  0  2  0  0  0  0  0  0  0  0  0
    9.3697  -17.9413   18.2655 N   0  0  0  0  0  0  0  0  0  0  0  0
   10.5206  -16.7763   20.0389 C   0  0  0  0  0  0  0  0  0  0  0  0
   11.5617  -16.3795   20.6118 O   0  0  0  0  0  0  0  0  0  0  0  0
    7.1455  -12.6189   19.7472 C   0  0  0  0  0  0  0  0  0  0  0  0
    8.2876  -13.4975   20.1184 C   0  0  0  0  0  0  0  0  0  0  0  0
    8.1518  -14.3152   21.3328 C   0  0  2  0  0  0  0  0  0  0  0  0
    7.5706  -13.5615   22.5154 C   0  0  0  0  0  0  0  0  0  0  0  0
    9.1954  -15.3028   21.6458 C   0  0  2  0  0  0  0  0  0  0  0  0
    9.2834  -16.2460   20.4701 N   0  0  0  0  0  0  0  0  0  0  0  0
    9.1478  -16.0933   22.8606 C   0  0  0  0  0  0  0  0  0  0  0  0
    8.1420  -16.8418   23.1469 O   0  0  0  0  0  0  0  0  0  0  0  0
   10.7583  -19.0516   23.7334 C   0  0  0  0  0  0  0  0  0  0  0  0
   11.0380  -18.1653   24.9070 C   0  0  1  0  0  0  0  0  0  0  0  0
   12.3999  -17.5418   24.7261 C   0  0  0  0  0  0  0  0  0  0  0  0
   10.0377  -17.0145   25.0269 C   0  0  2  0  0  0  0  0  0  0  0  0
   10.1690  -16.1464   23.8409 N   0  0  0  0  0  0  0  0  0  0  0  0
   10.3561  -16.2131   26.2117 C   0  0  0  0  0  0  0  0  0  0  0  0
   10.8492  -14.9084   26.0416 O   0  0  0  0  0  0  0  0  0  0  0  0
   10.2273  -16.5896   27.3895 O   0  0  0  0  0  0  0  0  0  0  0  0
  2  3  2  0
  2  1  1  0
  4  2  1  0
  5  6  1  6
  5  4  1  0
  7  5  1  0
  8  7  2  0
  9 10  1  0
 10 11  1  0
 11 12  1  1
 11 13  1  0
 13 14  1  6
 14  7  1  0
 15 13  1  0
 15 21  1  0
 16 15  2  0
 18 17  1  6
 19 18  1  0
 20 18  1  0
 20 21  1  6
 20 22  1  0
 22 23  1  0
 24 22  2  0
M  END
$$$$
