NIV.pdb
     RDKit          3D

 24 23  0  0  1  0  0  0  0  0999 V2000
    7.6769  -18.7016   19.4942 N   0  0  0  0  0  0  0  0  0  0  0  0
    7.1091  -17.8454   20.4689 C   0  0  0  0  0  0  0  0  0  0  0  0
    5.9076  -17.5307   20.3469 O   0  0  0  0  0  0  0  0  0  0  0  0
    7.9111  -17.3471   21.5846 C   0  0  0  0  0  0  0  0  0  0  0  0
    7.9527  -15.8707   21.7603 C   0  0  2  0  0  0  0  0  0  0  0  0
    8.4964  -15.2432   20.6008 N   0  0  0  0  0  0  0  0  0  0  0  0
    8.6238  -15.4291   23.0041 C   0  0  0  0  0  0  0  0  0  0  0  0
    9.8667  -15.2735   23.0230 O   0  0  0  0  0  0  0  0  0  0  0  0
    6.1498  -11.8133   25.9592 C   0  0  0  0  0  0  0  0  0  0  0  0
    7.2287  -12.6365   25.3489 C   0  0  0  0  0  0  0  0  0  0  0  0
    7.7488  -13.7670   26.1319 C   0  0  2  0  0  0  0  0  0  0  0  0
    8.1340  -13.4001   27.5537 C   0  0  0  0  0  0  0  0  0  0  0  0
    8.6061  -14.7590   25.4658 C   0  0  2  0  0  0  0  0  0  0  0  0
    7.9053  -15.1711   24.1936 N   0  0  0  0  0  0  0  0  0  0  0  0
    9.0470  -15.9584   26.1513 C   0  0  0  0  0  0  0  0  0  0  0  0
    8.2257  -16.8850   26.4988 O   0  0  0  0  0  0  0  0  0  0  0  0
   12.6256  -19.2241   27.2340 C   0  0  0  0  0  0  0  0  0  0  0  0
   12.1392  -17.9528   26.6109 C   0  0  1  0  0  0  0  0  0  0  0  0
   12.0333  -18.1567   25.1198 C   0  0  0  0  0  0  0  0  0  0  0  0
   10.7472  -17.5520   27.1018 C   0  0  2  0  0  0  0  0  0  0  0  0
   10.3879  -16.2532   26.5005 N   0  0  0  0  0  0  0  0  0  0  0  0
   10.7728  -17.3851   28.5574 C   0  0  0  0  0  0  0  0  0  0  0  0
   10.9835  -16.1039   29.0945 O   0  0  0  0  0  0  0  0  0  0  0  0
   10.6209  -18.2977   29.3880 O   0  0  0  0  0  0  0  0  0  0  0  0
  2  3  2  0
  2  1  1  0
  4  2  1  0
  5  6  1  6
  5  4  1  0
  7  5  1  0
  8  7  2  0
  9 10  1  0
 10 11  1  0
 11 12  1  1
 11 13  1  0
 13 14  1  6
 14  7  1  0
 15 13  1  0
 15 21  1  0
 16 15  2  0
 18 17  1  1
 19 18  1  0
 20 18  1  0
 20 21  1  6
 20 22  1  0
 22 23  1  0
 24 22  2  0
M  END
$$$$
