NIV.pdb
     RDKit          3D

 24 23  0  0  1  0  0  0  0  0999 V2000
    7.3739  -14.9915   17.9065 N   0  0  0  0  0  0  0  0  0  0  0  0
    8.3164  -15.6020   18.7694 C   0  0  0  0  0  0  0  0  0  0  0  0
    8.8604  -16.6598   18.3918 O   0  0  0  0  0  0  0  0  0  0  0  0
    8.6399  -15.0065   20.0644 C   0  0  0  0  0  0  0  0  0  0  0  0
    8.4016  -15.8577   21.2606 C   0  0  2  0  0  0  0  0  0  0  0  0
    7.0595  -16.3397   21.2733 N   0  0  0  0  0  0  0  0  0  0  0  0
    8.7805  -15.2190   22.5416 C   0  0  0  0  0  0  0  0  0  0  0  0
    9.9256  -14.7308   22.6827 O   0  0  0  0  0  0  0  0  0  0  0  0
    6.2075  -11.6779   26.6654 C   0  0  0  0  0  0  0  0  0  0  0  0
    7.3682  -12.5352   26.3020 C   0  0  0  0  0  0  0  0  0  0  0  0
    7.1401  -13.6150   25.3305 C   0  0  2  0  0  0  0  0  0  0  0  0
    5.8114  -14.3270   25.5086 C   0  0  0  0  0  0  0  0  0  0  0  0
    8.2749  -14.4570   24.9235 C   0  0  2  0  0  0  0  0  0  0  0  0
    7.8856  -15.1362   23.6325 N   0  0  0  0  0  0  0  0  0  0  0  0
    8.8313  -15.4573   25.8140 C   0  0  0  0  0  0  0  0  0  0  0  0
    8.4812  -16.6932   25.7532 O   0  0  0  0  0  0  0  0  0  0  0  0
   11.9698  -14.5550   28.5999 C   0  0  0  0  0  0  0  0  0  0  0  0
   12.0549  -15.6899   27.6273 C   0  0  1  0  0  0  0  0  0  0  0  0
   12.8751  -16.7945   28.2464 C   0  0  0  0  0  0  0  0  0  0  0  0
   10.6857  -16.2873   27.2990 C   0  0  2  0  0  0  0  0  0  0  0  0
    9.8012  -15.2094   26.8163 N   0  0  0  0  0  0  0  0  0  0  0  0
   10.0934  -16.8475   28.5167 C   0  0  0  0  0  0  0  0  0  0  0  0
   10.5346  -18.0994   28.9775 O   0  0  0  0  0  0  0  0  0  0  0  0
    9.2104  -16.3033   29.2021 O   0  0  0  0  0  0  0  0  0  0  0  0
  2  3  2  0
  2  1  1  0
  4  2  1  0
  5  6  1  1
  5  4  1  0
  7  5  1  0
  8  7  2  0
  9 10  1  0
 10 11  1  0
 11 12  1  1
 11 13  1  0
 13 14  1  6
 14  7  1  0
 15 13  1  0
 15 21  1  0
 16 15  2  0
 18 17  1  1
 19 18  1  0
 20 18  1  0
 20 21  1  1
 20 22  1  0
 22 23  1  0
 24 22  2  0
M  END
$$$$
