NIV.pdb
     RDKit          3D

 24 23  0  0  1  0  0  0  0  0999 V2000
    6.8198  -17.9301   18.7327 N   0  0  0  0  0  0  0  0  0  0  0  0
    6.2777  -17.2835   19.8700 C   0  0  0  0  0  0  0  0  0  0  0  0
    5.0445  -17.0959   19.9077 O   0  0  0  0  0  0  0  0  0  0  0  0
    7.1418  -16.8500   20.9663 C   0  0  0  0  0  0  0  0  0  0  0  0
    7.1041  -15.4019   21.3036 C   0  0  2  0  0  0  0  0  0  0  0  0
    7.4235  -14.6125   20.1597 N   0  0  0  0  0  0  0  0  0  0  0  0
    7.9198  -15.0353   22.4839 C   0  0  0  0  0  0  0  0  0  0  0  0
    9.1531  -14.8539   22.3601 O   0  0  0  0  0  0  0  0  0  0  0  0
    6.1175  -11.4276   25.8669 C   0  0  0  0  0  0  0  0  0  0  0  0
    6.9989  -12.3410   25.0906 C   0  0  0  0  0  0  0  0  0  0  0  0
    7.4852  -13.5542   25.7641 C   0  0  2  0  0  0  0  0  0  0  0  0
    8.0089  -13.3062   27.1672 C   0  0  0  0  0  0  0  0  0  0  0  0
    8.2043  -14.5658   24.9755 C   0  0  2  0  0  0  0  0  0  0  0  0
    7.3524  -14.8788   23.7690 N   0  0  0  0  0  0  0  0  0  0  0  0
    8.6346  -15.8186   25.5658 C   0  0  0  0  0  0  0  0  0  0  0  0
    7.7948  -16.6995   25.9810 O   0  0  0  0  0  0  0  0  0  0  0  0
   12.6958  -17.1390   25.4767 C   0  0  0  0  0  0  0  0  0  0  0  0
   11.5296  -18.0720   25.3724 C   0  0  1  0  0  0  0  0  0  0  0  0
   11.9280  -19.4076   25.9499 C   0  0  0  0  0  0  0  0  0  0  0  0
   10.3171  -17.5898   26.1703 C   0  0  2  0  0  0  0  0  0  0  0  0
    9.9823  -16.2180   25.7419 N   0  0  0  0  0  0  0  0  0  0  0  0
   10.6561  -17.5487   27.5953 C   0  0  0  0  0  0  0  0  0  0  0  0
   10.6795  -18.7482   28.3268 O   0  0  0  0  0  0  0  0  0  0  0  0
   10.9336  -16.5216   28.2385 O   0  0  0  0  0  0  0  0  0  0  0  0
  2  3  2  0
  2  1  1  0
  4  2  1  0
  5  6  1  6
  5  4  1  0
  7  5  1  0
  8  7  2  0
  9 10  1  0
 10 11  1  0
 11 12  1  1
 11 13  1  0
 13 14  1  6
 14  7  1  0
 15 13  1  0
 15 21  1  0
 16 15  2  0
 18 17  1  1
 19 18  1  0
 20 18  1  0
 20 21  1  6
 20 22  1  0
 22 23  1  0
 24 22  2  0
M  END
$$$$
