NIV.pdb
     RDKit          3D

 24 23  0  0  1  0  0  0  0  0999 V2000
    9.6651  -15.9602   17.8427 N   0  0  0  0  0  0  0  0  0  0  0  0
    8.5755  -15.6017   18.6734 C   0  0  0  0  0  0  0  0  0  0  0  0
    7.4217  -15.7162   18.2118 O   0  0  0  0  0  0  0  0  0  0  0  0
    8.8006  -15.1123   20.0321 C   0  0  0  0  0  0  0  0  0  0  0  0
    8.4573  -16.0478   21.1362 C   0  0  2  0  0  0  0  0  0  0  0  0
    7.0597  -16.3315   21.1361 N   0  0  0  0  0  0  0  0  0  0  0  0
    8.9420  -15.6155   22.4669 C   0  0  0  0  0  0  0  0  0  0  0  0
   10.1478  -15.3153   22.6263 O   0  0  0  0  0  0  0  0  0  0  0  0
    6.4418  -12.0536   25.3673 C   0  0  0  0  0  0  0  0  0  0  0  0
    7.4359  -13.0017   24.7954 C   0  0  0  0  0  0  0  0  0  0  0  0
    7.7405  -14.2164   25.5658 C   0  0  2  0  0  0  0  0  0  0  0  0
    7.9237  -13.9678   27.0520 C   0  0  0  0  0  0  0  0  0  0  0  0
    8.6153  -15.2366   24.9687 C   0  0  2  0  0  0  0  0  0  0  0  0
    8.0831  -15.5262   23.5859 N   0  0  0  0  0  0  0  0  0  0  0  0
    8.8653  -16.5008   25.6339 C   0  0  0  0  0  0  0  0  0  0  0  0
    7.9343  -17.3683   25.8193 O   0  0  0  0  0  0  0  0  0  0  0  0
   10.8428  -19.3423   24.6077 C   0  0  0  0  0  0  0  0  0  0  0  0
   11.2824  -19.0721   26.0130 C   0  0  1  0  0  0  0  0  0  0  0  0
   12.5639  -18.2769   25.9726 C   0  0  0  0  0  0  0  0  0  0  0  0
   10.2687  -18.2365   26.7962 C   0  0  2  0  0  0  0  0  0  0  0  0
   10.1207  -16.9265   26.1334 N   0  0  0  0  0  0  0  0  0  0  0  0
   10.7730  -18.0031   28.1522 C   0  0  0  0  0  0  0  0  0  0  0  0
   10.7625  -19.0613   29.0764 O   0  0  0  0  0  0  0  0  0  0  0  0
   11.2233  -16.9243   28.5755 O   0  0  0  0  0  0  0  0  0  0  0  0
  2  3  2  0
  2  1  1  0
  4  2  1  0
  5  6  1  1
  5  4  1  0
  7  5  1  0
  8  7  2  0
  9 10  1  0
 10 11  1  0
 11 12  1  1
 11 13  1  0
 13 14  1  6
 14  7  1  0
 15 13  1  0
 15 21  1  0
 16 15  2  0
 18 17  1  6
 19 18  1  0
 20 18  1  0
 20 21  1  6
 20 22  1  0
 22 23  1  0
 24 22  2  0
M  END
$$$$
