NIV.pdb
     RDKit          3D

 24 23  0  0  1  0  0  0  0  0999 V2000
   12.2589  -19.9906   19.5538 N   0  0  0  0  0  0  0  0  0  0  0  0
   12.6360  -19.9477   20.9182 C   0  0  0  0  0  0  0  0  0  0  0  0
   13.1278  -20.9767   21.4249 O   0  0  0  0  0  0  0  0  0  0  0  0
   12.4530  -18.7306   21.7066 C   0  0  0  0  0  0  0  0  0  0  0  0
   11.7010  -17.6269   21.0520 C   0  0  2  0  0  0  0  0  0  0  0  0
   12.4624  -17.0661   19.9844 N   0  0  0  0  0  0  0  0  0  0  0  0
   11.2053  -16.5942   21.9904 C   0  0  0  0  0  0  0  0  0  0  0  0
   11.9345  -15.6213   22.2922 O   0  0  0  0  0  0  0  0  0  0  0  0
    6.5145  -14.5077   21.0197 C   0  0  0  0  0  0  0  0  0  0  0  0
    7.8908  -14.7662   21.5229 C   0  0  0  0  0  0  0  0  0  0  0  0
    8.0338  -15.2195   22.9142 C   0  0  2  0  0  0  0  0  0  0  0  0
    7.1035  -14.5153   23.8853 C   0  0  0  0  0  0  0  0  0  0  0  0
    9.3754  -15.5416   23.4231 C   0  0  2  0  0  0  0  0  0  0  0  0
    9.9182  -16.6630   22.5704 N   0  0  0  0  0  0  0  0  0  0  0  0
    9.5937  -15.8824   24.8157 C   0  0  0  0  0  0  0  0  0  0  0  0
    9.6249  -17.1024   25.2212 O   0  0  0  0  0  0  0  0  0  0  0  0
   10.3567  -14.5255   29.5857 C   0  0  0  0  0  0  0  0  0  0  0  0
   10.0009  -14.1831   28.1724 C   0  0  1  0  0  0  0  0  0  0  0  0
   11.0287  -13.2169   27.6374 C   0  0  0  0  0  0  0  0  0  0  0  0
   10.0184  -15.4025   27.2493 C   0  0  2  0  0  0  0  0  0  0  0  0
    9.8029  -14.9500   25.8614 N   0  0  0  0  0  0  0  0  0  0  0  0
    8.9181  -16.3015   27.6081 C   0  0  0  0  0  0  0  0  0  0  0  0
    9.1849  -17.4181   28.4182 O   0  0  0  0  0  0  0  0  0  0  0  0
    7.7345  -16.1658   27.2528 O   0  0  0  0  0  0  0  0  0  0  0  0
  2  3  2  0
  2  1  1  0
  4  2  1  0
  5  6  1  6
  5  4  1  0
  7  5  1  0
  8  7  2  0
  9 10  1  0
 10 11  1  0
 11 12  1  1
 11 13  1  0
 13 14  1  6
 14  7  1  0
 15 13  1  0
 15 21  1  0
 16 15  2  0
 18 17  1  1
 19 18  1  0
 20 18  1  0
 20 21  1  6
 20 22  1  0
 22 23  1  0
 24 22  2  0
M  END
$$$$
