VRT.pdb
     RDKit          3D

 26 25  0  0  1  0  0  0  0  0999 V2000
    8.3427  -12.3896   20.9253 C   0  0  0  0  0  0  0  0  0  0  0  0
    7.6742  -13.2243   19.8507 C   0  0  1  0  0  0  0  0  0  0  0  0
    7.7917  -12.6083   18.4959 C   0  0  0  0  0  0  0  0  0  0  0  0
    8.2794  -14.5990   19.9444 C   0  0  2  0  0  0  0  0  0  0  0  0
    7.7007  -15.4069   18.8983 N   0  0  0  0  0  0  0  0  0  0  0  0
    8.1039  -15.2406   21.2480 C   0  0  0  0  0  0  0  0  0  0  0  0
    6.9439  -15.5709   21.6376 O   0  0  0  0  0  0  0  0  0  0  0  0
    8.6521  -20.8544   21.8411 N   0  0  0  0  0  0  0  0  0  0  0  0
    9.7564  -20.4753   21.0481 C   0  0  0  0  0  0  0  0  0  0  0  0
    9.6189  -20.3725   19.7793 N   0  0  0  0  0  0  0  0  0  0  0  0
   11.0340  -20.2050   21.6630 N   0  0  0  0  0  0  0  0  0  0  0  0
   11.0800  -19.2302   22.7087 C   0  0  0  0  0  0  0  0  0  0  0  0
    9.9198  -18.2458   22.5428 C   0  0  0  0  0  0  0  0  0  0  0  0
   10.0051  -17.1899   23.5831 C   0  0  0  0  0  0  0  0  0  0  0  0
    8.9579  -16.1126   23.4733 C   0  0  2  0  0  0  0  0  0  0  0  0
    9.1759  -15.5243   22.1271 N   0  0  0  0  0  0  0  0  0  0  0  0
    9.0716  -15.0852   24.5075 C   0  0  0  0  0  0  0  0  0  0  0  0
   10.1513  -14.3991   24.5370 O   0  0  0  0  0  0  0  0  0  0  0  0
   10.3748  -20.1566   19.1137 C   0  0  0  0  0  0  0  0  0  0  0  0
    6.8710  -11.9801   25.5702 C   0  0  2  0  0  0  0  0  0  0  0  0
    7.1539  -12.8906   26.7387 O   0  0  0  0  0  0  0  0  0  0  0  0
    6.0503  -13.7273   26.8969 C   0  0  2  0  0  0  0  0  0  0  0  0
    8.3592  -13.7727   26.4945 N   0  0  0  0  0  0  0  0  0  0  0  0
    8.0905  -14.7745   25.4820 C   0  0  0  0  0  0  0  0  0  0  0  0
    8.8255  -14.4144   27.7559 O   0  0  0  0  0  0  0  0  0  0  0  0
    8.8920  -15.6658   27.8539 O   0  0  0  0  0  0  0  0  0  0  0  0
  2  3  1  6
  2  1  1  0
  4  2  1  0
  4  5  1  6
  6  4  1  0
  6  7  2  0
  9  8  1  0
 10  9  2  0
 11  9  1  0
 12 11  1  0
 13 12  1  0
 13 14  1  0
 15 14  1  1
 16 15  1  0
 16  6  1  0
 17 15  1  0
 18 17  2  0
 20 19  1  1
 20 22  1  0
 21 20  1  0
 22 24  1  0
 22 23  1  1
 23 17  1  0
 24 26  1  0
 25 24  2  0
M  END
$$$$
