VRT.pdb
     RDKit          3D

 26 25  0  0  1  0  0  0  0  0999 V2000
    6.3090  -11.1950   27.1770 C   0  0  0  0  0  0  0  0  0  0  0  0
    7.0699  -12.2675   26.4225 C   0  0  1  0  0  0  0  0  0  0  0  0
    7.9664  -13.0625   27.3130 C   0  0  0  0  0  0  0  0  0  0  0  0
    6.0368  -13.0969   25.7086 C   0  0  2  0  0  0  0  0  0  0  0  0
    5.3235  -13.8624   26.7023 N   0  0  0  0  0  0  0  0  0  0  0  0
    6.5872  -13.9772   24.6771 C   0  0  0  0  0  0  0  0  0  0  0  0
    6.6533  -15.2261   24.8830 O   0  0  0  0  0  0  0  0  0  0  0  0
    8.8888  -16.0042   17.5144 N   0  0  0  0  0  0  0  0  0  0  0  0
    8.8361  -14.7275   16.9150 C   0  0  0  0  0  0  0  0  0  0  0  0
    9.2888  -14.5663   15.7283 N   0  0  0  0  0  0  0  0  0  0  0  0
    8.2751  -13.6093   17.6350 N   0  0  0  0  0  0  0  0  0  0  0  0
    7.3501  -13.8890   18.6894 C   0  0  0  0  0  0  0  0  0  0  0  0
    8.1152  -14.3400   19.9359 C   0  0  0  0  0  0  0  0  0  0  0  0
    7.5945  -13.6269   21.1295 C   0  0  0  0  0  0  0  0  0  0  0  0
    7.6194  -14.4309   22.4032 C   0  0  2  0  0  0  0  0  0  0  0  0
    7.0642  -13.5113   23.4289 N   0  0  0  0  0  0  0  0  0  0  0  0
    8.9598  -14.8750   22.7831 C   0  0  0  0  0  0  0  0  0  0  0  0
    9.7733  -13.9853   23.2119 O   0  0  0  0  0  0  0  0  0  0  0  0
    9.2938  -13.6771   15.2083 C   0  0  0  0  0  0  0  0  0  0  0  0
   10.3776  -17.4575   25.3820 C   0  0  2  0  0  0  0  0  0  0  0  0
   10.8856  -17.7306   23.9884 O   0  0  0  0  0  0  0  0  0  0  0  0
   10.0630  -18.7041   23.4240 C   0  0  2  0  0  0  0  0  0  0  0  0
   10.8087  -16.5049   23.1040 N   0  0  0  0  0  0  0  0  0  0  0  0
    9.4421  -16.2064   22.7241 C   0  0  0  0  0  0  0  0  0  0  0  0
   11.6680  -16.6539   21.8958 O   0  0  0  0  0  0  0  0  0  0  0  0
   11.1600  -16.6913   20.7466 O   0  0  0  0  0  0  0  0  0  0  0  0
  2  3  1  1
  2  1  1  0
  4  2  1  0
  4  5  1  1
  6  4  1  0
  6  7  2  0
  9  8  1  0
 10  9  2  0
 11  9  1  0
 12 11  1  0
 13 12  1  0
 13 14  1  0
 15 14  1  6
 16 15  1  0
 16  6  1  0
 17 15  1  0
 18 17  2  0
 20 19  1  1
 20 22  1  0
 21 20  1  0
 22 24  1  0
 22 23  1  6
 23 17  1  0
 24 26  1  0
 25 24  2  0
M  END
$$$$
