VRT.pdb
     RDKit          3D

 26 25  0  0  1  0  0  0  0  0999 V2000
    7.3261  -12.1844   18.2504 C   0  0  0  0  0  0  0  0  0  0  0  0
    8.0793  -13.0899   19.2050 C   0  0  1  0  0  0  0  0  0  0  0  0
    7.1805  -13.7311   20.2099 C   0  0  0  0  0  0  0  0  0  0  0  0
    8.8308  -14.0749   18.3506 C   0  0  2  0  0  0  0  0  0  0  0  0
    7.8609  -14.9161   17.6920 N   0  0  0  0  0  0  0  0  0  0  0  0
    9.8006  -14.8860   19.0878 C   0  0  0  0  0  0  0  0  0  0  0  0
    9.4666  -16.0289   19.5222 O   0  0  0  0  0  0  0  0  0  0  0  0
   16.4824  -16.1779   17.2635 N   0  0  0  0  0  0  0  0  0  0  0  0
   16.8264  -15.6829   18.5397 C   0  0  0  0  0  0  0  0  0  0  0  0
   17.7567  -16.2527   19.2100 N   0  0  0  0  0  0  0  0  0  0  0  0
   16.1339  -14.5408   19.0870 N   0  0  0  0  0  0  0  0  0  0  0  0
   15.1599  -13.8921   18.2648 C   0  0  0  0  0  0  0  0  0  0  0  0
   13.8139  -14.6075   18.4035 C   0  0  0  0  0  0  0  0  0  0  0  0
   13.4284  -14.6778   19.8356 C   0  0  0  0  0  0  0  0  0  0  0  0
   12.0896  -15.3174   20.0959 C   0  0  2  0  0  0  0  0  0  0  0  0
   11.1251  -14.4652   19.3546 N   0  0  0  0  0  0  0  0  0  0  0  0
   11.7398  -15.3748   21.5145 C   0  0  0  0  0  0  0  0  0  0  0  0
   11.7343  -14.2716   22.1627 O   0  0  0  0  0  0  0  0  0  0  0  0
   18.0713  -15.9721   20.1498 C   0  0  0  0  0  0  0  0  0  0  0  0
    8.6317  -15.8001   23.1989 C   0  0  2  0  0  0  0  0  0  0  0  0
    9.5560  -16.8100   23.8317 O   0  0  0  0  0  0  0  0  0  0  0  0
    9.3387  -18.0332   23.1996 C   0  0  2  0  0  0  0  0  0  0  0  0
   11.0128  -16.4509   23.6338 N   0  0  0  0  0  0  0  0  0  0  0  0
   11.4005  -16.5439   22.2403 C   0  0  0  0  0  0  0  0  0  0  0  0
   11.8993  -17.2965   24.4820 O   0  0  0  0  0  0  0  0  0  0  0  0
   11.7637  -17.3176   25.7315 O   0  0  0  0  0  0  0  0  0  0  0  0
  2  3  1  1
  2  1  1  0
  4  2  1  0
  4  5  1  1
  6  4  1  0
  6  7  2  0
  9  8  1  0
 10  9  2  0
 11  9  1  0
 12 11  1  0
 13 12  1  0
 13 14  1  0
 15 14  1  1
 16 15  1  0
 16  6  1  0
 17 15  1  0
 18 17  2  0
 20 19  1  1
 20 22  1  0
 21 20  1  0
 22 24  1  0
 22 23  1  1
 23 17  1  0
 24 26  1  0
 25 24  2  0
M  END
$$$$
