VRT.pdb
     RDKit          3D

 26 25  0  0  1  0  0  0  0  0999 V2000
    9.2947  -12.8747   18.3094 C   0  0  0  0  0  0  0  0  0  0  0  0
    8.6038  -13.2354   19.6098 C   0  0  1  0  0  0  0  0  0  0  0  0
    7.4144  -12.3747   19.8802 C   0  0  0  0  0  0  0  0  0  0  0  0
    8.2815  -14.7030   19.5253 C   0  0  2  0  0  0  0  0  0  0  0  0
    7.4681  -14.9081   18.3512 N   0  0  0  0  0  0  0  0  0  0  0  0
    7.6150  -15.2368   20.7139 C   0  0  0  0  0  0  0  0  0  0  0  0
    6.3524  -15.3462   20.7335 O   0  0  0  0  0  0  0  0  0  0  0  0
    8.1706  -21.6072   25.2793 N   0  0  0  0  0  0  0  0  0  0  0  0
    7.4704  -20.9304   26.3009 C   0  0  0  0  0  0  0  0  0  0  0  0
    6.8076  -21.6022   27.1662 N   0  0  0  0  0  0  0  0  0  0  0  0
    7.5007  -19.4890   26.3707 N   0  0  0  0  0  0  0  0  0  0  0  0
    8.1795  -18.7831   25.3284 C   0  0  0  0  0  0  0  0  0  0  0  0
    7.1548  -18.2085   24.3472 C   0  0  0  0  0  0  0  0  0  0  0  0
    7.8569  -17.5374   23.2243 C   0  0  0  0  0  0  0  0  0  0  0  0
    7.5986  -16.0573   23.1156 C   0  0  2  0  0  0  0  0  0  0  0  0
    8.3084  -15.6507   21.8759 N   0  0  0  0  0  0  0  0  0  0  0  0
    8.0914  -15.2964   24.2628 C   0  0  0  0  0  0  0  0  0  0  0  0
    9.3575  -15.2634   24.4451 O   0  0  0  0  0  0  0  0  0  0  0  0
    6.1716  -21.2025   27.8710 C   0  0  0  0  0  0  0  0  0  0  0  0
    6.7203  -11.6635   25.8103 C   0  0  2  0  0  0  0  0  0  0  0  0
    6.9810  -12.7663   26.8056 O   0  0  0  0  0  0  0  0  0  0  0  0
    5.7626  -13.3888   27.0725 C   0  0  2  0  0  0  0  0  0  0  0  0
    7.9168  -13.8206   26.2552 N   0  0  0  0  0  0  0  0  0  0  0  0
    7.2933  -14.5852   25.1934 C   0  0  0  0  0  0  0  0  0  0  0  0
    8.4084  -14.7246   27.3330 O   0  0  0  0  0  0  0  0  0  0  0  0
    8.1528  -15.9550   27.3060 O   0  0  0  0  0  0  0  0  0  0  0  0
  2  3  1  6
  2  1  1  0
  4  2  1  0
  4  5  1  6
  6  4  1  0
  6  7  2  0
  9  8  1  0
 10  9  2  0
 11  9  1  0
 12 11  1  0
 13 12  1  0
 13 14  1  0
 15 14  1  1
 16 15  1  0
 16  6  1  0
 17 15  1  0
 18 17  2  0
 20 19  1  1
 20 22  1  0
 21 20  1  0
 22 24  1  0
 22 23  1  1
 23 17  1  0
 24 26  1  0
 25 24  2  0
M  END
$$$$
