VRT.pdb
     RDKit          3D

 26 25  0  0  1  0  0  0  0  0999 V2000
    6.9484  -11.2879   25.4042 C   0  0  0  0  0  0  0  0  0  0  0  0
    6.3707  -11.9471   26.6412 C   0  0  1  0  0  0  0  0  0  0  0  0
    4.8930  -12.1372   26.5475 C   0  0  0  0  0  0  0  0  0  0  0  0
    7.1344  -13.2296   26.8335 C   0  0  2  0  0  0  0  0  0  0  0  0
    8.4492  -12.8900   27.3214 N   0  0  0  0  0  0  0  0  0  0  0  0
    7.2290  -14.0542   25.6281 C   0  0  0  0  0  0  0  0  0  0  0  0
    6.2712  -14.8218   25.3120 O   0  0  0  0  0  0  0  0  0  0  0  0
    8.0253  -12.5711   18.0208 N   0  0  0  0  0  0  0  0  0  0  0  0
    8.1759  -13.9528   17.7754 C   0  0  0  0  0  0  0  0  0  0  0  0
    8.4005  -14.3633   16.5836 N   0  0  0  0  0  0  0  0  0  0  0  0
    8.0775  -14.8987   18.8613 N   0  0  0  0  0  0  0  0  0  0  0  0
    8.7822  -14.6043   20.0705 C   0  0  0  0  0  0  0  0  0  0  0  0
    7.7805  -14.2790   21.1812 C   0  0  0  0  0  0  0  0  0  0  0  0
    8.5086  -13.8916   22.4157 C   0  0  0  0  0  0  0  0  0  0  0  0
    8.4110  -14.8870   23.5422 C   0  0  2  0  0  0  0  0  0  0  0  0
    8.3525  -14.0501   24.7678 N   0  0  0  0  0  0  0  0  0  0  0  0
    9.5450  -15.8080   23.6026 C   0  0  0  0  0  0  0  0  0  0  0  0
   10.6963  -15.3062   23.8478 O   0  0  0  0  0  0  0  0  0  0  0  0
    8.5636  -15.3433   16.3118 C   0  0  0  0  0  0  0  0  0  0  0  0
   10.6811  -18.5125   25.9611 C   0  0  2  0  0  0  0  0  0  0  0  0
   10.5761  -19.0816   24.5684 O   0  0  0  0  0  0  0  0  0  0  0  0
    9.3127  -19.6571   24.4432 C   0  0  2  0  0  0  0  0  0  0  0  0
   10.6928  -18.0106   23.5054 N   0  0  0  0  0  0  0  0  0  0  0  0
    9.4863  -17.2121   23.4183 C   0  0  0  0  0  0  0  0  0  0  0  0
   11.0290  -18.5988   22.1783 O   0  0  0  0  0  0  0  0  0  0  0  0
   10.2819  -18.4122   21.1848 O   0  0  0  0  0  0  0  0  0  0  0  0
  2  3  1  6
  2  1  1  0
  4  2  1  0
  4  5  1  6
  6  4  1  0
  6  7  2  0
  9  8  1  0
 10  9  2  0
 11  9  1  0
 12 11  1  0
 13 12  1  0
 13 14  1  0
 15 14  1  6
 16 15  1  0
 16  6  1  0
 17 15  1  0
 18 17  2  0
 20 19  1  1
 20 22  1  0
 21 20  1  0
 22 24  1  0
 22 23  1  6
 23 17  1  0
 24 26  1  0
 25 24  2  0
M  END
$$$$
