GAQ.pdb
     RDKit          3D

 19 18  0  0  1  0  0  0  0  0999 V2000
    5.7969  -19.4062   21.0265 N   0  0  0  0  0  0  0  0  0  0  0  0
    5.6565  -19.0338   22.3967 C   0  0  0  0  0  0  0  0  0  0  0  0
    6.6152  -17.9284   22.7444 C   0  0  0  0  0  0  0  0  0  0  0  0
    7.4525  -17.4896   21.9230 O   0  0  0  0  0  0  0  0  0  0  0  0
    7.0480  -15.4434   25.5516 C   0  0  0  0  0  0  0  0  0  0  0  0
    7.5375  -16.3072   24.4382 C   0  0  2  0  0  0  0  0  0  0  0  0
    6.6085  -17.3310   24.0350 N   0  0  0  0  0  0  0  0  0  0  0  0
    8.8934  -16.8718   24.7082 C   0  0  0  0  0  0  0  0  0  0  0  0
    9.0176  -18.0402   25.1846 O   0  0  0  0  0  0  0  0  0  0  0  0
   13.6914  -15.5189   21.7067 N   0  0  0  0  0  0  0  0  0  0  0  0
   14.4480  -15.9848   22.8135 C   0  0  0  0  0  0  0  0  0  0  0  0
   15.6482  -16.2872   22.6244 O   0  0  0  0  0  0  0  0  0  0  0  0
   13.8136  -16.1028   24.1507 C   0  0  0  0  0  0  0  0  0  0  0  0
   12.3788  -15.7173   24.0164 C   0  0  0  0  0  0  0  0  0  0  0  0
   11.4143  -16.7106   24.6242 C   0  0  2  0  0  0  0  0  0  0  0  0
   10.0726  -16.1262   24.4427 N   0  0  0  0  0  0  0  0  0  0  0  0
   11.6719  -16.9925   26.0426 C   0  0  0  0  0  0  0  0  0  0  0  0
   12.4747  -18.0408   26.4383 O   0  0  0  0  0  0  0  0  0  0  0  0
   11.1537  -16.2689   26.9259 O   0  0  0  0  0  0  0  0  0  0  0  0
  2  1  1  0
  3  7  1  0
  3  2  1  0
  4  3  2  0
  6  5  1  1
  6  8  1  0
  6  7  1  0
  8  9  2  0
 10 11  1  0
 11 13  1  0
 11 12  2  0
 13 14  1  0
 15 14  1  1
 16 15  1  0
 16  8  1  0
 17 15  1  0
 17 18  1  0
 19 17  2  0
M  END
$$$$
