GAQ.pdb
     RDKit          3D

 19 18  0  0  1  0  0  0  0  0999 V2000
    5.5443  -18.3485   20.5942 N   0  0  0  0  0  0  0  0  0  0  0  0
    5.3557  -16.9381   20.6997 C   0  0  0  0  0  0  0  0  0  0  0  0
    6.6812  -16.2277   20.7129 C   0  0  0  0  0  0  0  0  0  0  0  0
    7.7641  -16.8401   20.8571 O   0  0  0  0  0  0  0  0  0  0  0  0
    7.8992  -12.6977   20.0434 C   0  0  0  0  0  0  0  0  0  0  0  0
    7.9970  -14.0827   20.5891 C   0  0  2  0  0  0  0  0  0  0  0  0
    6.7579  -14.8158   20.5601 N   0  0  0  0  0  0  0  0  0  0  0  0
    8.6248  -14.1190   21.9436 C   0  0  0  0  0  0  0  0  0  0  0  0
    9.7894  -13.6510   22.1227 O   0  0  0  0  0  0  0  0  0  0  0  0
    5.3763  -13.0109   26.6747 N   0  0  0  0  0  0  0  0  0  0  0  0
    6.6061  -12.3086   26.7672 C   0  0  0  0  0  0  0  0  0  0  0  0
    6.6462  -11.2764   27.4749 O   0  0  0  0  0  0  0  0  0  0  0  0
    7.8007  -12.8019   26.0364 C   0  0  0  0  0  0  0  0  0  0  0  0
    7.4093  -14.0331   25.2903 C   0  0  0  0  0  0  0  0  0  0  0  0
    8.5081  -14.6026   24.4217 C   0  0  2  0  0  0  0  0  0  0  0  0
    7.9447  -14.6728   23.0606 N   0  0  0  0  0  0  0  0  0  0  0  0
    8.9819  -15.9229   24.8577 C   0  0  0  0  0  0  0  0  0  0  0  0
    9.8356  -16.0678   25.9302 O   0  0  0  0  0  0  0  0  0  0  0  0
    8.6081  -16.9521   24.2468 O   0  0  0  0  0  0  0  0  0  0  0  0
  2  1  1  0
  3  7  1  0
  3  2  1  0
  4  3  2  0
  6  5  1  1
  6  8  1  0
  6  7  1  0
  8  9  2  0
 10 11  1  0
 11 13  1  0
 11 12  2  0
 13 14  1  0
 15 14  1  1
 16 15  1  0
 16  8  1  0
 17 15  1  0
 17 18  1  0
 19 17  2  0
M  END
$$$$
