GAQ.pdb
     RDKit          3D

 19 18  0  0  1  0  0  0  0  0999 V2000
    8.9756  -15.2950   14.8441 N   0  0  0  0  0  0  0  0  0  0  0  0
    7.9524  -15.0806   15.8151 C   0  0  0  0  0  0  0  0  0  0  0  0
    8.5514  -14.6629   17.1298 C   0  0  0  0  0  0  0  0  0  0  0  0
    9.7473  -14.8941   17.4208 O   0  0  0  0  0  0  0  0  0  0  0  0
    7.3713  -12.7111   20.1754 C   0  0  0  0  0  0  0  0  0  0  0  0
    8.2817  -13.6024   19.3993 C   0  0  2  0  0  0  0  0  0  0  0  0
    7.7740  -13.9806   18.1060 N   0  0  0  0  0  0  0  0  0  0  0  0
    8.7213  -14.7931   20.1861 C   0  0  0  0  0  0  0  0  0  0  0  0
    8.1388  -15.9094   20.0381 O   0  0  0  0  0  0  0  0  0  0  0  0
   14.7289  -17.5918   23.2909 N   0  0  0  0  0  0  0  0  0  0  0  0
   13.8411  -16.5783   22.8446 C   0  0  0  0  0  0  0  0  0  0  0  0
   14.3286  -15.4865   22.4730 O   0  0  0  0  0  0  0  0  0  0  0  0
   12.3775  -16.8270   22.8271 C   0  0  0  0  0  0  0  0  0  0  0  0
   11.7369  -15.7543   22.0119 C   0  0  0  0  0  0  0  0  0  0  0  0
   10.2360  -15.8882   21.8876 C   0  0  2  0  0  0  0  0  0  0  0  0
    9.7933  -14.7131   21.1142 N   0  0  0  0  0  0  0  0  0  0  0  0
    9.5393  -15.9538   23.1792 C   0  0  0  0  0  0  0  0  0  0  0  0
    9.5432  -17.0989   23.9465 O   0  0  0  0  0  0  0  0  0  0  0  0
    8.9212  -14.9496   23.6056 O   0  0  0  0  0  0  0  0  0  0  0  0
  2  1  1  0
  3  7  1  0
  3  2  1  0
  4  3  2  0
  6  5  1  1
  6  8  1  0
  6  7  1  0
  8  9  2  0
 10 11  1  0
 11 13  1  0
 11 12  2  0
 13 14  1  0
 15 14  1  1
 16 15  1  0
 16  8  1  0
 17 15  1  0
 17 18  1  0
 19 17  2  0
M  END
$$$$
