GAQ.pdb
     RDKit          3D

 19 18  0  0  1  0  0  0  0  0999 V2000
    4.4526  -19.1085   19.9785 N   0  0  0  0  0  0  0  0  0  0  0  0
    5.7671  -19.2410   20.5174 C   0  0  0  0  0  0  0  0  0  0  0  0
    5.8433  -18.6159   21.8832 C   0  0  0  0  0  0  0  0  0  0  0  0
    5.2500  -17.5488   22.1617 O   0  0  0  0  0  0  0  0  0  0  0  0
    7.0130  -19.6181   25.3177 C   0  0  0  0  0  0  0  0  0  0  0  0
    6.7648  -18.6299   24.2281 C   0  0  2  0  0  0  0  0  0  0  0  0
    6.6011  -19.2193   22.9245 N   0  0  0  0  0  0  0  0  0  0  0  0
    7.7780  -17.5330   24.2113 C   0  0  0  0  0  0  0  0  0  0  0  0
    8.7928  -17.6097   23.4552 O   0  0  0  0  0  0  0  0  0  0  0  0
    5.0648  -12.4854   26.4295 N   0  0  0  0  0  0  0  0  0  0  0  0
    6.4767  -12.5871   26.5315 C   0  0  0  0  0  0  0  0  0  0  0  0
    7.1384  -11.5314   26.6558 O   0  0  0  0  0  0  0  0  0  0  0  0
    7.1311  -13.9192   26.4896 C   0  0  0  0  0  0  0  0  0  0  0  0
    7.8874  -14.0216   25.2077 C   0  0  0  0  0  0  0  0  0  0  0  0
    8.6547  -15.3144   25.0467 C   0  0  2  0  0  0  0  0  0  0  0  0
    7.6381  -16.3826   25.0323 N   0  0  0  0  0  0  0  0  0  0  0  0
    9.6435  -15.5510   26.1070 C   0  0  0  0  0  0  0  0  0  0  0  0
   10.8635  -14.9096   26.1155 O   0  0  0  0  0  0  0  0  0  0  0  0
    9.3834  -16.3551   27.0334 O   0  0  0  0  0  0  0  0  0  0  0  0
  2  1  1  0
  3  7  1  0
  3  2  1  0
  4  3  2  0
  6  5  1  1
  6  8  1  0
  6  7  1  0
  8  9  2  0
 10 11  1  0
 11 13  1  0
 11 12  2  0
 13 14  1  0
 15 14  1  1
 16 15  1  0
 16  8  1  0
 17 15  1  0
 17 18  1  0
 19 17  2  0
M  END
$$$$
