GAQ.pdb
     RDKit          3D

 19 18  0  0  1  0  0  0  0  0999 V2000
    9.0776  -15.3456   14.0139 N   0  0  0  0  0  0  0  0  0  0  0  0
    8.2098  -15.2601   15.1434 C   0  0  0  0  0  0  0  0  0  0  0  0
    8.9624  -14.7754   16.3519 C   0  0  0  0  0  0  0  0  0  0  0  0
   10.2138  -14.7593   16.3955 O   0  0  0  0  0  0  0  0  0  0  0  0
    8.0271  -13.1374   19.6556 C   0  0  0  0  0  0  0  0  0  0  0  0
    8.9421  -13.7723   18.6630 C   0  0  2  0  0  0  0  0  0  0  0  0
    8.2742  -14.3106   17.5065 N   0  0  0  0  0  0  0  0  0  0  0  0
    9.8529  -14.7772   19.2881 C   0  0  0  0  0  0  0  0  0  0  0  0
    9.5285  -16.0024   19.3217 O   0  0  0  0  0  0  0  0  0  0  0  0
   16.0127  -15.1105   17.6450 N   0  0  0  0  0  0  0  0  0  0  0  0
   15.1180  -14.4584   18.5331 C   0  0  0  0  0  0  0  0  0  0  0  0
   15.5308  -13.4544   19.1571 O   0  0  0  0  0  0  0  0  0  0  0  0
   13.7344  -14.9695   18.7026 C   0  0  0  0  0  0  0  0  0  0  0  0
   13.3996  -14.9214   20.1556 C   0  0  0  0  0  0  0  0  0  0  0  0
   11.9973  -15.3844   20.4803 C   0  0  2  0  0  0  0  0  0  0  0  0
   11.0967  -14.3962   19.8581 N   0  0  0  0  0  0  0  0  0  0  0  0
   11.7307  -15.4973   21.9205 C   0  0  0  0  0  0  0  0  0  0  0  0
   12.3150  -16.4803   22.6900 O   0  0  0  0  0  0  0  0  0  0  0  0
   10.9533  -14.6851   22.4759 O   0  0  0  0  0  0  0  0  0  0  0  0
  2  1  1  0
  3  7  1  0
  3  2  1  0
  4  3  2  0
  6  5  1  1
  6  8  1  0
  6  7  1  0
  8  9  2  0
 10 11  1  0
 11 13  1  0
 11 12  2  0
 13 14  1  0
 15 14  1  1
 16 15  1  0
 16  8  1  0
 17 15  1  0
 17 18  1  0
 19 17  2  0
M  END
$$$$
