YDW.pdb
     RDKit          3D

 35 37  0  0  1  0  0  0  0  0999 V2000
   29.6106  -15.4143  -19.0040 O   0  0  0  0  0  0  0  0  0  0  0  0
   28.3846  -16.0550  -18.7363 C   0  0  0  0  0  0  0  0  0  0  0  0
   27.1826  -15.4155  -18.9609 C   0  0  0  0  0  0  0  0  0  0  0  0
   25.9565  -15.9919  -18.7178 C   0  0  0  0  0  0  0  0  0  0  0  0
   25.9467  -17.2836  -18.2211 C   0  0  0  0  0  0  0  0  0  0  0  0
   24.6330  -17.9058  -17.9586 C   0  0  0  0  0  0  0  0  0  0  0  0
   24.5062  -19.2649  -18.6142 C   0  0  2  0  0  0  0  0  0  0  0  0
   24.6846  -19.1450  -20.0427 N   0  0  0  0  0  0  0  0  0  0  0  0
   23.1531  -19.7864  -18.2713 C   0  0  0  0  0  0  0  0  0  0  0  0
   22.2589  -19.9491  -19.1402 O   0  0  0  0  0  0  0  0  0  0  0  0
   27.1323  -17.9674  -17.9792 C   0  0  0  0  0  0  0  0  0  0  0  0
   28.3403  -17.3400  -18.2416 C   0  0  0  0  0  0  0  0  0  0  0  0
   22.8697  -20.1060  -16.9294 N   0  0  0  0  0  0  0  0  0  0  0  0
   21.5759  -20.6521  -16.5198 C   0  0  1  0  0  0  0  0  0  0  0  0
   21.3803  -21.9522  -17.2505 C   0  0  0  0  0  0  0  0  0  0  0  0
   20.0741  -22.5601  -16.8982 C   0  0  0  0  0  0  0  0  0  0  0  0
   19.8353  -23.7629  -17.2059 O   0  0  0  0  0  0  0  0  0  0  0  0
   21.6014  -20.8440  -15.0463 C   0  0  0  0  0  0  0  0  0  0  0  0
   22.5792  -21.3178  -14.4640 O   0  0  0  0  0  0  0  0  0  0  0  0
   19.0960  -21.8380  -16.2333 O   0  0  0  0  0  0  0  0  0  0  0  0
   20.4552  -20.4629  -14.3061 N   0  0  0  0  0  0  0  0  0  0  0  0
   20.5137  -20.5008  -12.8619 C   0  0  1  0  0  0  0  0  0  0  0  0
   21.2154  -19.2024  -12.4471 C   0  0  0  0  0  0  0  0  0  0  0  0
   20.3386  -18.0777  -12.8374 C   0  0  0  0  0  0  0  0  0  0  0  0
   19.1932  -17.6497  -12.1617 C   0  0  0  0  0  0  0  0  0  0  0  0
   18.6546  -16.6081  -12.8125 N   0  0  0  0  0  0  0  0  0  0  0  0
   19.3905  -16.3118  -13.9051 C   0  0  0  0  0  0  0  0  0  0  0  0
   19.2422  -15.3354  -14.8801 C   0  0  0  0  0  0  0  0  0  0  0  0
   20.1827  -15.2995  -15.8816 C   0  0  0  0  0  0  0  0  0  0  0  0
   21.2412  -16.2112  -15.9106 C   0  0  0  0  0  0  0  0  0  0  0  0
   21.3688  -17.1629  -14.9433 C   0  0  0  0  0  0  0  0  0  0  0  0
   20.4406  -17.2279  -13.9206 C   0  0  0  0  0  0  0  0  0  0  0  0
   19.1460  -20.5158  -12.3320 C   0  0  0  0  0  0  0  0  0  0  0  0
   18.1763  -20.2987  -13.1066 O   0  0  0  0  0  0  0  0  0  0  0  0
   18.9104  -20.7639  -10.9983 O   0  0  0  0  0  0  0  0  0  0  0  0
  2  1  1  0
  3  2  2  0
  4  3  1  0
  5 11  1  0
  5  4  2  0
  6  5  1  0
  7  6  1  0
  7  8  1  6
  9  7  1  0
  9 10  2  0
 11 12  2  0
 12  2  1  0
 13  9  1  0
 14 15  1  6
 14 13  1  0
 16 15  1  0
 17 16  2  0
 18 14  1  0
 19 18  2  0
 20 16  1  0
 21 18  1  0
 22 23  1  1
 22 21  1  0
 23 24  1  0
 24 32  1  0
 25 26  1  0
 25 24  2  0
 26 27  1  0
 27 32  2  0
 27 28  1  0
 28 29  2  0
 29 30  1  0
 31 30  2  0
 32 31  1  0
 33 22  1  0
 33 35  1  0
 34 33  2  0
M  END
$$$$
