YDW.pdb
     RDKit          3D

 35 37  0  0  1  0  0  0  0  0999 V2000
   32.3992  -20.1011  -19.8301 O   0  0  0  0  0  0  0  0  0  0  0  0
   31.2849  -19.9398  -18.9830 C   0  0  0  0  0  0  0  0  0  0  0  0
   31.1479  -20.6927  -17.8348 C   0  0  0  0  0  0  0  0  0  0  0  0
   30.0819  -20.5778  -16.9716 C   0  0  0  0  0  0  0  0  0  0  0  0
   29.1032  -19.6517  -17.2874 C   0  0  0  0  0  0  0  0  0  0  0  0
   27.9573  -19.5252  -16.3638 C   0  0  0  0  0  0  0  0  0  0  0  0
   27.0704  -20.7524  -16.3864 C   0  0  2  0  0  0  0  0  0  0  0  0
   26.7868  -21.1342  -17.7505 N   0  0  0  0  0  0  0  0  0  0  0  0
   25.8269  -20.4015  -15.6442 C   0  0  0  0  0  0  0  0  0  0  0  0
   24.9417  -19.6563  -16.1364 O   0  0  0  0  0  0  0  0  0  0  0  0
   29.1983  -18.8708  -18.4333 C   0  0  0  0  0  0  0  0  0  0  0  0
   30.2934  -19.0269  -19.2688 C   0  0  0  0  0  0  0  0  0  0  0  0
   25.6403  -20.9227  -14.3493 N   0  0  0  0  0  0  0  0  0  0  0  0
   24.4061  -20.7019  -13.5959 C   0  0  1  0  0  0  0  0  0  0  0  0
   23.2780  -21.3073  -14.3854 C   0  0  0  0  0  0  0  0  0  0  0  0
   21.9879  -21.1324  -13.6748 C   0  0  0  0  0  0  0  0  0  0  0  0
   21.2621  -22.1382  -13.4297 O   0  0  0  0  0  0  0  0  0  0  0  0
   24.5567  -21.3446  -12.2644 C   0  0  0  0  0  0  0  0  0  0  0  0
   24.6189  -22.5686  -12.1308 O   0  0  0  0  0  0  0  0  0  0  0  0
   21.5502  -19.8825  -13.2671 O   0  0  0  0  0  0  0  0  0  0  0  0
   24.6299  -20.5056  -11.1253 N   0  0  0  0  0  0  0  0  0  0  0  0
   24.5553  -21.1053   -9.8118 C   0  0  1  0  0  0  0  0  0  0  0  0
   25.1651  -20.0733   -8.8561 C   0  0  0  0  0  0  0  0  0  0  0  0
   26.6251  -20.3043   -8.8235 C   0  0  0  0  0  0  0  0  0  0  0  0
   27.4149  -20.7522   -9.8852 C   0  0  0  0  0  0  0  0  0  0  0  0
   28.6904  -20.8488   -9.4824 N   0  0  0  0  0  0  0  0  0  0  0  0
   28.7977  -20.4835   -8.1870 C   0  0  0  0  0  0  0  0  0  0  0  0
   29.8911  -20.4168   -7.3349 C   0  0  0  0  0  0  0  0  0  0  0  0
   29.6594  -19.9966   -6.0470 C   0  0  0  0  0  0  0  0  0  0  0  0
   28.3741  -19.6525   -5.6205 C   0  0  0  0  0  0  0  0  0  0  0  0
   27.3133  -19.7250   -6.4731 C   0  0  0  0  0  0  0  0  0  0  0  0
   27.5101  -20.1438   -7.7761 C   0  0  0  0  0  0  0  0  0  0  0  0
   23.1458  -21.3249   -9.4699 C   0  0  0  0  0  0  0  0  0  0  0  0
   22.8512  -21.9370   -8.4088 O   0  0  0  0  0  0  0  0  0  0  0  0
   22.1420  -20.8701  -10.2953 O   0  0  0  0  0  0  0  0  0  0  0  0
  2  1  1  0
  3  2  2  0
  4  3  1  0
  5 11  1  0
  5  4  2  0
  6  5  1  0
  7  6  1  0
  7  8  1  6
  9  7  1  0
  9 10  2  0
 11 12  2  0
 12  2  1  0
 13  9  1  0
 14 15  1  6
 14 13  1  0
 16 15  1  0
 17 16  2  0
 18 14  1  0
 19 18  2  0
 20 16  1  0
 21 18  1  0
 22 23  1  1
 22 21  1  0
 23 24  1  0
 24 32  1  0
 25 26  1  0
 25 24  2  0
 26 27  1  0
 27 32  2  0
 27 28  1  0
 28 29  2  0
 29 30  1  0
 31 30  2  0
 32 31  1  0
 33 22  1  0
 33 35  1  0
 34 33  2  0
M  END
$$$$
