YDW.pdb
     RDKit          3D

 35 37  0  0  1  0  0  0  0  0999 V2000
   29.8665  -24.2736  -16.9296 O   0  0  0  0  0  0  0  0  0  0  0  0
   28.7041  -23.5400  -16.6205 C   0  0  0  0  0  0  0  0  0  0  0  0
   27.4889  -24.1703  -16.4472 C   0  0  0  0  0  0  0  0  0  0  0  0
   26.3224  -23.5050  -16.1447 C   0  0  0  0  0  0  0  0  0  0  0  0
   26.3898  -22.1292  -16.0105 C   0  0  0  0  0  0  0  0  0  0  0  0
   25.1403  -21.4113  -15.6861 C   0  0  0  0  0  0  0  0  0  0  0  0
   24.3375  -21.0780  -16.9261 C   0  0  2  0  0  0  0  0  0  0  0  0
   25.0562  -20.1261  -17.7411 N   0  0  0  0  0  0  0  0  0  0  0  0
   23.0322  -20.5291  -16.4621 C   0  0  0  0  0  0  0  0  0  0  0  0
   22.8961  -19.3274  -16.1180 O   0  0  0  0  0  0  0  0  0  0  0  0
   27.5917  -21.4510  -16.1759 C   0  0  0  0  0  0  0  0  0  0  0  0
   28.7374  -22.1698  -16.4801 C   0  0  0  0  0  0  0  0  0  0  0  0
   21.9167  -21.3870  -16.4079 N   0  0  0  0  0  0  0  0  0  0  0  0
   20.5981  -20.9172  -15.9833 C   0  0  1  0  0  0  0  0  0  0  0  0
   19.7581  -20.7449  -17.2192 C   0  0  0  0  0  0  0  0  0  0  0  0
   18.3813  -20.3241  -16.8626 C   0  0  0  0  0  0  0  0  0  0  0  0
   18.1971  -19.2526  -16.2172 O   0  0  0  0  0  0  0  0  0  0  0  0
   20.0225  -21.9295  -15.0600 C   0  0  0  0  0  0  0  0  0  0  0  0
   20.2745  -23.1316  -15.1661 O   0  0  0  0  0  0  0  0  0  0  0  0
   17.2777  -21.0814  -17.2212 O   0  0  0  0  0  0  0  0  0  0  0  0
   19.1598  -21.4772  -14.0314 N   0  0  0  0  0  0  0  0  0  0  0  0
   18.6217  -22.4419  -13.0984 C   0  0  1  0  0  0  0  0  0  0  0  0
   19.0037  -21.9225  -11.7075 C   0  0  0  0  0  0  0  0  0  0  0  0
   18.3698  -20.5977  -11.5370 C   0  0  0  0  0  0  0  0  0  0  0  0
   17.0964  -20.3515  -11.0178 C   0  0  0  0  0  0  0  0  0  0  0  0
   16.8608  -19.0313  -11.0219 N   0  0  0  0  0  0  0  0  0  0  0  0
   17.9258  -18.3706  -11.5243 C   0  0  0  0  0  0  0  0  0  0  0  0
   18.1592  -17.0181  -11.7300 C   0  0  0  0  0  0  0  0  0  0  0  0
   19.3722  -16.6649  -12.2710 C   0  0  0  0  0  0  0  0  0  0  0  0
   20.3258  -17.6326  -12.5978 C   0  0  0  0  0  0  0  0  0  0  0  0
   20.0768  -18.9561  -12.3881 C   0  0  0  0  0  0  0  0  0  0  0  0
   18.8668  -19.3471  -11.8454 C   0  0  0  0  0  0  0  0  0  0  0  0
   17.1613  -22.4687  -13.2332 C   0  0  0  0  0  0  0  0  0  0  0  0
   16.5616  -21.4658  -13.7046 O   0  0  0  0  0  0  0  0  0  0  0  0
   16.4391  -23.5766  -12.8503 O   0  0  0  0  0  0  0  0  0  0  0  0
  2  1  1  0
  3  2  2  0
  4  3  1  0
  5 11  1  0
  5  4  2  0
  6  5  1  0
  7  6  1  0
  7  8  1  6
  9  7  1  0
  9 10  2  0
 11 12  2  0
 12  2  1  0
 13  9  1  0
 14 15  1  6
 14 13  1  0
 16 15  1  0
 17 16  2  0
 18 14  1  0
 19 18  2  0
 20 16  1  0
 21 18  1  0
 22 23  1  1
 22 21  1  0
 23 24  1  0
 24 32  1  0
 25 26  1  0
 25 24  2  0
 26 27  1  0
 27 32  2  0
 27 28  1  0
 28 29  2  0
 29 30  1  0
 31 30  2  0
 32 31  1  0
 33 22  1  0
 33 35  1  0
 34 33  2  0
M  END
$$$$
