YDW.pdb
     RDKit          3D

 35 37  0  0  1  0  0  0  0  0999 V2000
   31.7046  -14.7275  -18.1273 O   0  0  0  0  0  0  0  0  0  0  0  0
   30.7620  -15.5048  -17.4255 C   0  0  0  0  0  0  0  0  0  0  0  0
   29.4917  -15.0283  -17.1736 C   0  0  0  0  0  0  0  0  0  0  0  0
   28.5315  -15.7427  -16.4937 C   0  0  0  0  0  0  0  0  0  0  0  0
   28.8753  -17.0060  -16.0454 C   0  0  0  0  0  0  0  0  0  0  0  0
   27.8478  -17.7761  -15.3151 C   0  0  0  0  0  0  0  0  0  0  0  0
   27.4388  -19.0288  -16.0611 C   0  0  2  0  0  0  0  0  0  0  0  0
   26.9719  -18.6875  -17.3850 N   0  0  0  0  0  0  0  0  0  0  0  0
   26.3713  -19.6842  -15.2541 C   0  0  0  0  0  0  0  0  0  0  0  0
   25.1834  -19.2719  -15.2553 O   0  0  0  0  0  0  0  0  0  0  0  0
   30.1427  -17.5280  -16.2758 C   0  0  0  0  0  0  0  0  0  0  0  0
   31.0725  -16.7659  -16.9660 C   0  0  0  0  0  0  0  0  0  0  0  0
   26.7073  -20.8011  -14.4650 N   0  0  0  0  0  0  0  0  0  0  0  0
   25.6925  -21.5881  -13.7645 C   0  0  1  0  0  0  0  0  0  0  0  0
   25.9538  -23.0381  -14.0676 C   0  0  0  0  0  0  0  0  0  0  0  0
   25.6232  -23.3461  -15.4803 C   0  0  0  0  0  0  0  0  0  0  0  0
   25.0658  -22.4706  -16.2023 O   0  0  0  0  0  0  0  0  0  0  0  0
   25.8048  -21.2978  -12.3113 C   0  0  0  0  0  0  0  0  0  0  0  0
   26.8946  -21.2256  -11.7397 O   0  0  0  0  0  0  0  0  0  0  0  0
   25.9113  -24.5816  -16.0379 O   0  0  0  0  0  0  0  0  0  0  0  0
   24.6087  -21.1002  -11.5783 N   0  0  0  0  0  0  0  0  0  0  0  0
   24.6797  -21.0228  -10.1362 C   0  0  1  0  0  0  0  0  0  0  0  0
   25.8465  -20.0752   -9.8347 C   0  0  0  0  0  0  0  0  0  0  0  0
   26.3323  -20.3858   -8.4732 C   0  0  0  0  0  0  0  0  0  0  0  0
   26.1163  -21.5730   -7.7694 C   0  0  0  0  0  0  0  0  0  0  0  0
   26.7009  -21.4904   -6.5653 N   0  0  0  0  0  0  0  0  0  0  0  0
   27.3063  -20.2918   -6.4238 C   0  0  0  0  0  0  0  0  0  0  0  0
   28.0303  -19.7421   -5.3752 C   0  0  0  0  0  0  0  0  0  0  0  0
   28.5240  -18.4715   -5.5504 C   0  0  0  0  0  0  0  0  0  0  0  0
   28.3022  -17.7685   -6.7375 C   0  0  0  0  0  0  0  0  0  0  0  0
   27.5881  -18.3263   -7.7556 C   0  0  0  0  0  0  0  0  0  0  0  0
   27.0766  -19.6030   -7.6134 C   0  0  0  0  0  0  0  0  0  0  0  0
   23.4296  -20.4460   -9.6300 C   0  0  0  0  0  0  0  0  0  0  0  0
   22.6905  -19.7843  -10.4067 O   0  0  0  0  0  0  0  0  0  0  0  0
   23.0556  -20.6191   -8.3163 O   0  0  0  0  0  0  0  0  0  0  0  0
  2  1  1  0
  3  2  2  0
  4  3  1  0
  5 11  1  0
  5  4  2  0
  6  5  1  0
  7  6  1  0
  7  8  1  6
  9  7  1  0
  9 10  2  0
 11 12  2  0
 12  2  1  0
 13  9  1  0
 14 15  1  1
 14 13  1  0
 16 15  1  0
 17 16  2  0
 18 14  1  0
 19 18  2  0
 20 16  1  0
 21 18  1  0
 22 23  1  6
 22 21  1  0
 23 24  1  0
 24 32  1  0
 25 26  1  0
 25 24  2  0
 26 27  1  0
 27 32  2  0
 27 28  1  0
 28 29  2  0
 29 30  1  0
 31 30  2  0
 32 31  1  0
 33 22  1  0
 33 35  1  0
 34 33  2  0
M  END
$$$$
