YDW.pdb
     RDKit          3D

 35 37  0  0  1  0  0  0  0  0999 V2000
   28.2779  -14.3301  -18.9857 O   0  0  0  0  0  0  0  0  0  0  0  0
   27.5850  -14.9803  -17.9455 C   0  0  0  0  0  0  0  0  0  0  0  0
   26.2995  -14.6112  -17.6060 C   0  0  0  0  0  0  0  0  0  0  0  0
   25.5758  -15.2103  -16.6001 C   0  0  0  0  0  0  0  0  0  0  0  0
   26.1856  -16.2373  -15.9010 C   0  0  0  0  0  0  0  0  0  0  0  0
   25.4125  -16.8830  -14.8205 C   0  0  0  0  0  0  0  0  0  0  0  0
   25.4839  -18.3937  -14.8945 C   0  0  2  0  0  0  0  0  0  0  0  0
   24.8743  -18.8596  -16.1186 N   0  0  0  0  0  0  0  0  0  0  0  0
   24.7763  -18.9200  -13.6934 C   0  0  0  0  0  0  0  0  0  0  0  0
   23.9933  -18.2091  -13.0133 O   0  0  0  0  0  0  0  0  0  0  0  0
   27.4790  -16.6436  -16.2074 C   0  0  0  0  0  0  0  0  0  0  0  0
   28.1636  -16.0061  -17.2304 C   0  0  0  0  0  0  0  0  0  0  0  0
   24.9943  -20.2574  -13.3099 N   0  0  0  0  0  0  0  0  0  0  0  0
   24.4271  -20.8132  -12.0815 C   0  0  1  0  0  0  0  0  0  0  0  0
   23.7786  -22.1239  -12.4336 C   0  0  0  0  0  0  0  0  0  0  0  0
   22.3550  -21.9230  -12.7981 C   0  0  0  0  0  0  0  0  0  0  0  0
   21.8630  -20.7583  -12.7989 O   0  0  0  0  0  0  0  0  0  0  0  0
   25.5305  -20.9877  -11.1012 C   0  0  0  0  0  0  0  0  0  0  0  0
   26.6508  -21.3765  -11.4379 O   0  0  0  0  0  0  0  0  0  0  0  0
   21.5388  -22.9889  -13.1416 O   0  0  0  0  0  0  0  0  0  0  0  0
   25.2652  -20.6913   -9.7416 N   0  0  0  0  0  0  0  0  0  0  0  0
   26.2534  -21.0420   -8.7460 C   0  0  1  0  0  0  0  0  0  0  0  0
   27.1223  -19.7907   -8.5742 C   0  0  0  0  0  0  0  0  0  0  0  0
   28.2059  -20.1274   -7.6263 C   0  0  0  0  0  0  0  0  0  0  0  0
   29.2152  -21.0724   -7.8266 C   0  0  0  0  0  0  0  0  0  0  0  0
   30.0128  -21.1080   -6.7491 N   0  0  0  0  0  0  0  0  0  0  0  0
   29.5841  -20.2231   -5.8239 C   0  0  0  0  0  0  0  0  0  0  0  0
   30.0684  -19.8975   -4.5647 C   0  0  0  0  0  0  0  0  0  0  0  0
   29.3885  -18.9332   -3.8600 C   0  0  0  0  0  0  0  0  0  0  0  0
   28.2577  -18.3109   -4.3951 C   0  0  0  0  0  0  0  0  0  0  0  0
   27.7978  -18.6453   -5.6338 C   0  0  0  0  0  0  0  0  0  0  0  0
   28.4575  -19.6115   -6.3707 C   0  0  0  0  0  0  0  0  0  0  0  0
   25.5689  -21.3466   -7.4849 C   0  0  0  0  0  0  0  0  0  0  0  0
   26.2130  -21.8740   -6.5392 O   0  0  0  0  0  0  0  0  0  0  0  0
   24.2312  -21.0632   -7.3235 O   0  0  0  0  0  0  0  0  0  0  0  0
  2  1  1  0
  3  2  2  0
  4  3  1  0
  5 11  1  0
  5  4  2  0
  6  5  1  0
  7  6  1  0
  7  8  1  6
  9  7  1  0
  9 10  2  0
 11 12  2  0
 12  2  1  0
 13  9  1  0
 14 15  1  6
 14 13  1  0
 16 15  1  0
 17 16  2  0
 18 14  1  0
 19 18  2  0
 20 16  1  0
 21 18  1  0
 22 23  1  1
 22 21  1  0
 23 24  1  0
 24 32  1  0
 25 26  1  0
 25 24  2  0
 26 27  1  0
 27 32  2  0
 27 28  1  0
 28 29  2  0
 29 30  1  0
 31 30  2  0
 32 31  1  0
 33 22  1  0
 33 35  1  0
 34 33  2  0
M  END
$$$$
