YDW.pdb
     RDKit          3D

 35 37  0  0  1  0  0  0  0  0999 V2000
   17.5944  -15.6044  -14.6479 O   0  0  0  0  0  0  0  0  0  0  0  0
   18.6899  -16.4745  -14.4808 C   0  0  0  0  0  0  0  0  0  0  0  0
   18.5017  -17.8051  -14.1678 C   0  0  0  0  0  0  0  0  0  0  0  0
   19.5333  -18.6995  -13.9929 C   0  0  0  0  0  0  0  0  0  0  0  0
   20.8234  -18.2215  -14.1429 C   0  0  0  0  0  0  0  0  0  0  0  0
   21.9336  -19.1780  -13.9560 C   0  0  0  0  0  0  0  0  0  0  0  0
   22.5944  -19.5457  -15.2678 C   0  0  2  0  0  0  0  0  0  0  0  0
   21.6369  -20.1785  -16.1452 N   0  0  0  0  0  0  0  0  0  0  0  0
   23.7269  -20.4575  -14.9414 C   0  0  0  0  0  0  0  0  0  0  0  0
   23.6033  -21.7088  -14.9537 O   0  0  0  0  0  0  0  0  0  0  0  0
   21.0620  -16.8890  -14.4579 C   0  0  0  0  0  0  0  0  0  0  0  0
   19.9863  -16.0303  -14.6232 C   0  0  0  0  0  0  0  0  0  0  0  0
   24.9748  -19.8963  -14.6083 N   0  0  0  0  0  0  0  0  0  0  0  0
   26.1117  -20.7220  -14.2016 C   0  0  1  0  0  0  0  0  0  0  0  0
   27.3175  -20.2391  -14.9601 C   0  0  0  0  0  0  0  0  0  0  0  0
   28.5098  -21.0543  -14.6230 C   0  0  0  0  0  0  0  0  0  0  0  0
   28.4217  -21.9718  -13.7575 O   0  0  0  0  0  0  0  0  0  0  0  0
   26.2868  -20.5756  -12.7331 C   0  0  0  0  0  0  0  0  0  0  0  0
   26.6860  -19.5272  -12.2220 O   0  0  0  0  0  0  0  0  0  0  0  0
   29.7327  -20.8360  -15.2371 O   0  0  0  0  0  0  0  0  0  0  0  0
   25.9786  -21.6884  -11.9124 N   0  0  0  0  0  0  0  0  0  0  0  0
   25.8879  -21.4960  -10.4822 C   0  0  1  0  0  0  0  0  0  0  0  0
   27.2035  -20.8216  -10.0763 C   0  0  0  0  0  0  0  0  0  0  0  0
   27.1015  -20.4722   -8.6433 C   0  0  0  0  0  0  0  0  0  0  0  0
   25.9271  -20.1794   -7.9456 C   0  0  0  0  0  0  0  0  0  0  0  0
   26.2248  -19.9035   -6.6674 N   0  0  0  0  0  0  0  0  0  0  0  0
   27.5572  -19.9976   -6.4697 C   0  0  0  0  0  0  0  0  0  0  0  0
   28.3375  -19.8076   -5.3379 C   0  0  0  0  0  0  0  0  0  0  0  0
   29.6938  -19.9841   -5.4727 C   0  0  0  0  0  0  0  0  0  0  0  0
   30.2565  -20.3399   -6.7012 C   0  0  0  0  0  0  0  0  0  0  0  0
   29.4725  -20.5216   -7.8012 C   0  0  0  0  0  0  0  0  0  0  0  0
   28.1039  -20.3523   -7.7016 C   0  0  0  0  0  0  0  0  0  0  0  0
   24.7627  -20.6000  -10.1946 C   0  0  0  0  0  0  0  0  0  0  0  0
   24.4231  -19.7349  -11.0454 O   0  0  0  0  0  0  0  0  0  0  0  0
   24.0742  -20.6935   -9.0059 O   0  0  0  0  0  0  0  0  0  0  0  0
  2  1  1  0
  3  2  2  0
  4  3  1  0
  5 11  1  0
  5  4  2  0
  6  5  1  0
  7  6  1  0
  7  8  1  6
  9  7  1  0
  9 10  2  0
 11 12  2  0
 12  2  1  0
 13  9  1  0
 14 15  1  6
 14 13  1  0
 16 15  1  0
 17 16  2  0
 18 14  1  0
 19 18  2  0
 20 16  1  0
 21 18  1  0
 22 23  1  6
 22 21  1  0
 23 24  1  0
 24 32  1  0
 25 26  1  0
 25 24  2  0
 26 27  1  0
 27 32  2  0
 27 28  1  0
 28 29  2  0
 29 30  1  0
 31 30  2  0
 32 31  1  0
 33 22  1  0
 33 35  1  0
 34 33  2  0
M  END
$$$$
