PQG.pdb
     RDKit          3D

 21 21  0  0  1  0  0  0  0  0999 V2000
    7.5299  -18.3463   19.2982 N   0  0  0  0  0  0  0  0  0  0  0  0
    6.6889  -18.9872   18.2962 C   0  0  0  0  0  0  0  0  0  0  0  0
    6.9069  -18.2390   17.0163 C   0  0  0  0  0  0  0  0  0  0  0  0
    8.0963  -17.3554   17.2131 C   0  0  0  0  0  0  0  0  0  0  0  0
    8.5939  -17.6996   18.5971 C   0  0  1  0  0  0  0  0  0  0  0  0
    9.0528  -16.4519   19.2557 C   0  0  0  0  0  0  0  0  0  0  0  0
   10.1160  -15.9200   18.8440 O   0  0  0  0  0  0  0  0  0  0  0  0
    8.0689  -13.2869   17.4981 N   0  0  0  0  0  0  0  0  0  0  0  0
    8.0741  -12.8074   18.8071 C   0  0  0  0  0  0  0  0  0  0  0  0
    8.8943  -11.9727   19.2026 O   0  0  0  0  0  0  0  0  0  0  0  0
    7.0449  -13.3247   19.7711 C   0  0  0  0  0  0  0  0  0  0  0  0
    7.6670  -13.6368   21.1020 C   0  0  0  0  0  0  0  0  0  0  0  0
    8.7976  -14.5784   20.9533 C   0  0  2  0  0  0  0  0  0  0  0  0
    8.3676  -15.8292   20.3142 N   0  0  0  0  0  0  0  0  0  0  0  0
    9.4704  -14.8432   22.2205 C   0  0  0  0  0  0  0  0  0  0  0  0
    9.9575  -13.9491   22.9419 O   0  0  0  0  0  0  0  0  0  0  0  0
    9.5858  -16.2118   22.6763 N   0  0  0  0  0  0  0  0  0  0  0  0
   10.2545  -16.4528   23.9406 C   0  0  0  0  0  0  0  0  0  0  0  0
   11.4041  -17.3550   23.8000 C   0  0  0  0  0  0  0  0  0  0  0  0
   12.0922  -17.8857   24.8919 O   0  0  0  0  0  0  0  0  0  0  0  0
   11.7847  -17.6625   22.6506 O   0  0  0  0  0  0  0  0  0  0  0  0
  2  1  1  0
  3  4  1  0
  3  2  1  0
  4  5  1  0
  5  1  1  0
  5  6  1  1
  7  6  2  0
  8  9  1  0
  9 11  1  0
 10  9  2  0
 11 12  1  0
 13 12  1  1
 13 14  1  0
 13 15  1  0
 14  6  1  0
 15 17  1  0
 16 15  2  0
 17 18  1  0
 18 19  1  0
 19 21  2  0
 19 20  1  0
M  END
$$$$
