PQG.pdb
     RDKit          3D

 21 21  0  0  1  0  0  0  0  0999 V2000
    7.4026  -15.1674   20.3230 N   0  0  0  0  0  0  0  0  0  0  0  0
    6.7464  -14.6306   19.1385 C   0  0  0  0  0  0  0  0  0  0  0  0
    7.1826  -13.2017   19.0214 C   0  0  0  0  0  0  0  0  0  0  0  0
    8.3211  -13.0038   19.9694 C   0  0  0  0  0  0  0  0  0  0  0  0
    8.5723  -14.3772   20.5454 C   0  0  1  0  0  0  0  0  0  0  0  0
    8.9120  -14.2298   21.9821 C   0  0  0  0  0  0  0  0  0  0  0  0
   10.0280  -13.7311   22.2799 O   0  0  0  0  0  0  0  0  0  0  0  0
    4.9722  -12.4778   26.4381 N   0  0  0  0  0  0  0  0  0  0  0  0
    6.2717  -12.3941   26.9356 C   0  0  0  0  0  0  0  0  0  0  0  0
    6.6282  -11.4982   27.7077 O   0  0  0  0  0  0  0  0  0  0  0  0
    7.2745  -13.4312   26.5173 C   0  0  0  0  0  0  0  0  0  0  0  0
    7.0235  -13.8803   25.1062 C   0  0  0  0  0  0  0  0  0  0  0  0
    8.2832  -14.2817   24.4436 C   0  0  2  0  0  0  0  0  0  0  0  0
    8.0581  -14.6154   23.0308 N   0  0  0  0  0  0  0  0  0  0  0  0
    8.9524  -15.3759   25.1390 C   0  0  0  0  0  0  0  0  0  0  0  0
    9.2704  -15.3336   26.3450 O   0  0  0  0  0  0  0  0  0  0  0  0
    9.2703  -16.5800   24.4019 N   0  0  0  0  0  0  0  0  0  0  0  0
    9.7929  -17.7120   25.1429 C   0  0  0  0  0  0  0  0  0  0  0  0
   11.2607  -17.7393   25.1569 C   0  0  0  0  0  0  0  0  0  0  0  0
   12.0455  -16.7254   24.6061 O   0  0  0  0  0  0  0  0  0  0  0  0
   11.8347  -18.7146   25.6861 O   0  0  0  0  0  0  0  0  0  0  0  0
  2  1  1  0
  3  4  1  0
  3  2  1  0
  4  5  1  0
  5  1  1  0
  5  6  1  1
  7  6  2  0
  8  9  1  0
  9 11  1  0
 10  9  2  0
 11 12  1  0
 13 12  1  1
 13 14  1  0
 13 15  1  0
 14  6  1  0
 15 17  1  0
 16 15  2  0
 17 18  1  0
 18 19  1  0
 19 21  2  0
 19 20  1  0
M  END
$$$$
