PQG.pdb
     RDKit          3D

 21 21  0  0  1  0  0  0  0  0999 V2000
    8.2408  -15.0429   19.6694 N   0  0  0  0  0  0  0  0  0  0  0  0
    7.6199  -14.5462   18.4489 C   0  0  0  0  0  0  0  0  0  0  0  0
    7.0155  -13.2179   18.7893 C   0  0  0  0  0  0  0  0  0  0  0  0
    7.5452  -12.8168   20.1282 C   0  0  0  0  0  0  0  0  0  0  0  0
    8.5322  -13.9040   20.4818 C   0  0  1  0  0  0  0  0  0  0  0  0
    8.4251  -14.1818   21.9353 C   0  0  0  0  0  0  0  0  0  0  0  0
    8.5813  -13.2237   22.7356 O   0  0  0  0  0  0  0  0  0  0  0  0
    7.0957  -19.3718   24.8302 N   0  0  0  0  0  0  0  0  0  0  0  0
    6.9048  -18.4863   25.8898 C   0  0  0  0  0  0  0  0  0  0  0  0
    6.8604  -18.8616   27.0659 O   0  0  0  0  0  0  0  0  0  0  0  0
    6.7473  -17.0229   25.5902 C   0  0  0  0  0  0  0  0  0  0  0  0
    6.9361  -16.7531   24.1247 C   0  0  0  0  0  0  0  0  0  0  0  0
    7.9772  -15.7267   23.9025 C   0  0  2  0  0  0  0  0  0  0  0  0
    8.1590  -15.4549   22.4704 N   0  0  0  0  0  0  0  0  0  0  0  0
    9.2455  -16.0762   24.5334 C   0  0  0  0  0  0  0  0  0  0  0  0
    9.3783  -16.2533   25.7615 O   0  0  0  0  0  0  0  0  0  0  0  0
   10.4198  -16.2284   23.7015 N   0  0  0  0  0  0  0  0  0  0  0  0
   11.6767  -16.5457   24.3519 C   0  0  0  0  0  0  0  0  0  0  0  0
   12.8017  -16.5704   23.4090 C   0  0  0  0  0  0  0  0  0  0  0  0
   14.1186  -16.8117   23.8025 O   0  0  0  0  0  0  0  0  0  0  0  0
   12.5706  -16.3662   22.1984 O   0  0  0  0  0  0  0  0  0  0  0  0
  2  1  1  0
  3  4  1  0
  3  2  1  0
  4  5  1  0
  5  1  1  0
  5  6  1  1
  7  6  2  0
  8  9  1  0
  9 11  1  0
 10  9  2  0
 11 12  1  0
 13 12  1  6
 13 14  1  0
 13 15  1  0
 14  6  1  0
 15 17  1  0
 16 15  2  0
 17 18  1  0
 18 19  1  0
 19 21  2  0
 19 20  1  0
M  END
$$$$
