PQG.pdb
     RDKit          3D

 21 21  0  0  1  0  0  0  0  0999 V2000
    8.0923  -15.1132   19.9200 N   0  0  0  0  0  0  0  0  0  0  0  0
    7.3786  -14.6346   18.7438 C   0  0  0  0  0  0  0  0  0  0  0  0
    6.7314  -13.3412   19.1360 C   0  0  0  0  0  0  0  0  0  0  0  0
    7.3178  -12.9287   20.4475 C   0  0  0  0  0  0  0  0  0  0  0  0
    8.3749  -13.9700   20.7295 C   0  0  1  0  0  0  0  0  0  0  0  0
    8.3657  -14.2680   22.1829 C   0  0  0  0  0  0  0  0  0  0  0  0
    8.6128  -13.3289   22.9827 O   0  0  0  0  0  0  0  0  0  0  0  0
    6.9331  -19.6325   24.9787 N   0  0  0  0  0  0  0  0  0  0  0  0
    6.9963  -18.7904   26.0879 C   0  0  0  0  0  0  0  0  0  0  0  0
    7.0300  -19.2218   27.2449 O   0  0  0  0  0  0  0  0  0  0  0  0
    7.0245  -17.3049   25.8677 C   0  0  0  0  0  0  0  0  0  0  0  0
    7.0952  -16.9820   24.4025 C   0  0  0  0  0  0  0  0  0  0  0  0
    7.9799  -15.8232   24.1551 C   0  0  2  0  0  0  0  0  0  0  0  0
    8.0966  -15.5403   22.7183 N   0  0  0  0  0  0  0  0  0  0  0  0
    9.2955  -15.9888   24.7638 C   0  0  0  0  0  0  0  0  0  0  0  0
    9.4923  -15.9665   25.9958 O   0  0  0  0  0  0  0  0  0  0  0  0
   10.4417  -16.1902   23.9036 N   0  0  0  0  0  0  0  0  0  0  0  0
   11.7316  -16.4071   24.5303 C   0  0  0  0  0  0  0  0  0  0  0  0
   12.8065  -16.5852   23.5462 C   0  0  0  0  0  0  0  0  0  0  0  0
   12.5802  -16.6134   22.1695 O   0  0  0  0  0  0  0  0  0  0  0  0
   13.9780  -16.7177   23.9592 O   0  0  0  0  0  0  0  0  0  0  0  0
  2  1  1  0
  3  4  1  0
  3  2  1  0
  4  5  1  0
  5  1  1  0
  5  6  1  1
  7  6  2  0
  8  9  1  0
  9 11  1  0
 10  9  2  0
 11 12  1  0
 13 12  1  6
 13 14  1  0
 13 15  1  0
 14  6  1  0
 15 17  1  0
 16 15  2  0
 17 18  1  0
 18 19  1  0
 19 21  2  0
 19 20  1  0
M  END
$$$$
