PQG.pdb
     RDKit          3D

 21 21  0  0  1  0  0  0  0  0999 V2000
    9.4816  -14.2489   19.9667 N   0  0  0  0  0  0  0  0  0  0  0  0
    9.1011  -13.9783   18.5868 C   0  0  0  0  0  0  0  0  0  0  0  0
    7.6938  -13.4649   18.6266 C   0  0  0  0  0  0  0  0  0  0  0  0
    7.3701  -13.1608   20.0538 C   0  0  0  0  0  0  0  0  0  0  0  0
    8.6596  -13.4241   20.7949 C   0  0  1  0  0  0  0  0  0  0  0  0
    8.3327  -14.0498   22.0998 C   0  0  0  0  0  0  0  0  0  0  0  0
    7.4942  -13.4743   22.8404 O   0  0  0  0  0  0  0  0  0  0  0  0
   10.4207  -19.8221   22.7218 N   0  0  0  0  0  0  0  0  0  0  0  0
   10.6203  -19.0707   23.8789 C   0  0  0  0  0  0  0  0  0  0  0  0
   10.9953  -19.5781   24.9408 O   0  0  0  0  0  0  0  0  0  0  0  0
   10.3702  -17.5904   23.8322 C   0  0  0  0  0  0  0  0  0  0  0  0
    8.8982  -17.2944   23.8748 C   0  0  0  0  0  0  0  0  0  0  0  0
    8.6484  -15.8369   23.8785 C   0  0  2  0  0  0  0  0  0  0  0  0
    8.9064  -15.2497   22.5569 N   0  0  0  0  0  0  0  0  0  0  0  0
    9.4078  -15.1458   24.9150 C   0  0  0  0  0  0  0  0  0  0  0  0
   10.5368  -14.6487   24.7262 O   0  0  0  0  0  0  0  0  0  0  0  0
    8.8321  -15.0236   26.2371 N   0  0  0  0  0  0  0  0  0  0  0  0
    9.4706  -14.1204   27.1752 C   0  0  0  0  0  0  0  0  0  0  0  0
   10.2842  -14.8322   28.1686 C   0  0  0  0  0  0  0  0  0  0  0  0
   10.8577  -14.2025   29.2740 O   0  0  0  0  0  0  0  0  0  0  0  0
   10.4722  -16.0581   28.0185 O   0  0  0  0  0  0  0  0  0  0  0  0
  2  1  1  0
  3  4  1  0
  3  2  1  0
  4  5  1  0
  5  1  1  0
  5  6  1  1
  7  6  2  0
  8  9  1  0
  9 11  1  0
 10  9  2  0
 11 12  1  0
 13 12  1  6
 13 14  1  0
 13 15  1  0
 14  6  1  0
 15 17  1  0
 16 15  2  0
 17 18  1  0
 18 19  1  0
 19 21  2  0
 19 20  1  0
M  END
$$$$
