PQG.pdb
     RDKit          3D

 21 21  0  0  1  0  0  0  0  0999 V2000
    7.2703  -15.4825   20.2134 N   0  0  0  0  0  0  0  0  0  0  0  0
    6.4791  -15.0326   19.0761 C   0  0  0  0  0  0  0  0  0  0  0  0
    6.9131  -13.6281   18.7850 C   0  0  0  0  0  0  0  0  0  0  0  0
    8.1618  -13.3760   19.5669 C   0  0  0  0  0  0  0  0  0  0  0  0
    8.4670  -14.7016   20.2233 C   0  0  1  0  0  0  0  0  0  0  0  0
    8.9826  -14.4420   21.5900 C   0  0  0  0  0  0  0  0  0  0  0  0
   10.1030  -13.8813   21.7051 O   0  0  0  0  0  0  0  0  0  0  0  0
    5.4015  -13.2404   26.4944 N   0  0  0  0  0  0  0  0  0  0  0  0
    6.6643  -12.9321   26.9979 C   0  0  0  0  0  0  0  0  0  0  0  0
    6.8221  -12.3224   28.0605 O   0  0  0  0  0  0  0  0  0  0  0  0
    7.8768  -13.3570   26.2198 C   0  0  0  0  0  0  0  0  0  0  0  0
    7.4817  -13.9911   24.9168 C   0  0  0  0  0  0  0  0  0  0  0  0
    8.6722  -14.3350   24.1098 C   0  0  2  0  0  0  0  0  0  0  0  0
    8.2909  -14.7866   22.7650 N   0  0  0  0  0  0  0  0  0  0  0  0
    9.5253  -15.3180   24.7692 C   0  0  0  0  0  0  0  0  0  0  0  0
   10.1493  -15.0904   25.8256 O   0  0  0  0  0  0  0  0  0  0  0  0
    9.6636  -16.6308   24.1763 N   0  0  0  0  0  0  0  0  0  0  0  0
   10.5983  -17.5568   24.7866 C   0  0  0  0  0  0  0  0  0  0  0  0
   10.0401  -18.2083   25.9779 C   0  0  0  0  0  0  0  0  0  0  0  0
    9.9410  -19.5939   26.1109 O   0  0  0  0  0  0  0  0  0  0  0  0
    9.6348  -17.4902   26.9164 O   0  0  0  0  0  0  0  0  0  0  0  0
  2  1  1  0
  3  4  1  0
  3  2  1  0
  4  5  1  0
  5  1  1  0
  5  6  1  1
  7  6  2  0
  8  9  1  0
  9 11  1  0
 10  9  2  0
 11 12  1  0
 13 12  1  1
 13 14  1  0
 13 15  1  0
 14  6  1  0
 15 17  1  0
 16 15  2  0
 17 18  1  0
 18 19  1  0
 19 21  2  0
 19 20  1  0
M  END
$$$$
