PQG.pdb
     RDKit          3D

 21 21  0  0  1  0  0  0  0  0999 V2000
    7.5142  -15.2745   20.3570 N   0  0  0  0  0  0  0  0  0  0  0  0
    6.7983  -14.7820   19.1879 C   0  0  0  0  0  0  0  0  0  0  0  0
    7.1862  -13.3435   19.0264 C   0  0  0  0  0  0  0  0  0  0  0  0
    8.3527  -13.0924   19.9266 C   0  0  0  0  0  0  0  0  0  0  0  0
    8.6668  -14.4456   20.5195 C   0  0  1  0  0  0  0  0  0  0  0  0
    9.0551  -14.2584   21.9391 C   0  0  0  0  0  0  0  0  0  0  0  0
   10.0815  -13.5750   22.1884 O   0  0  0  0  0  0  0  0  0  0  0  0
    5.3668  -12.2533   25.9242 N   0  0  0  0  0  0  0  0  0  0  0  0
    6.3929  -12.5155   26.8306 C   0  0  0  0  0  0  0  0  0  0  0  0
    6.4469  -11.9793   27.9421 O   0  0  0  0  0  0  0  0  0  0  0  0
    7.4719  -13.4851   26.4411 C   0  0  0  0  0  0  0  0  0  0  0  0
    7.2562  -13.9935   25.0443 C   0  0  0  0  0  0  0  0  0  0  0  0
    8.5350  -14.3993   24.4224 C   0  0  2  0  0  0  0  0  0  0  0  0
    8.3418  -14.8013   23.0227 N   0  0  0  0  0  0  0  0  0  0  0  0
    9.2126  -15.4471   25.1785 C   0  0  0  0  0  0  0  0  0  0  0  0
    9.3456  -15.4252   26.4190 O   0  0  0  0  0  0  0  0  0  0  0  0
    9.7644  -16.5776   24.4631 N   0  0  0  0  0  0  0  0  0  0  0  0
   10.4540  -17.5966   25.2311 C   0  0  0  0  0  0  0  0  0  0  0  0
   10.9458  -18.6929   24.3875 C   0  0  0  0  0  0  0  0  0  0  0  0
   11.5206  -19.8534   24.9074 O   0  0  0  0  0  0  0  0  0  0  0  0
   10.8457  -18.5830   23.1472 O   0  0  0  0  0  0  0  0  0  0  0  0
  2  1  1  0
  3  4  1  0
  3  2  1  0
  4  5  1  0
  5  1  1  0
  5  6  1  1
  7  6  2  0
  8  9  1  0
  9 11  1  0
 10  9  2  0
 11 12  1  0
 13 12  1  1
 13 14  1  0
 13 15  1  0
 14  6  1  0
 15 17  1  0
 16 15  2  0
 17 18  1  0
 18 19  1  0
 19 21  2  0
 19 20  1  0
M  END
$$$$
