PQG.pdb
     RDKit          3D

 21 21  0  0  1  0  0  0  0  0999 V2000
    7.8164  -15.2734   19.8227 N   0  0  0  0  0  0  0  0  0  0  0  0
    7.1079  -14.7797   18.6496 C   0  0  0  0  0  0  0  0  0  0  0  0
    7.3383  -13.2996   18.6052 C   0  0  0  0  0  0  0  0  0  0  0  0
    8.4232  -12.9875   19.5848 C   0  0  0  0  0  0  0  0  0  0  0  0
    8.8586  -14.3372   20.1045 C   0  0  1  0  0  0  0  0  0  0  0  0
    9.1529  -14.2107   21.5532 C   0  0  0  0  0  0  0  0  0  0  0  0
   10.1060  -13.4675   21.9024 O   0  0  0  0  0  0  0  0  0  0  0  0
    5.4871  -14.1449   26.6697 N   0  0  0  0  0  0  0  0  0  0  0  0
    6.0250  -12.9668   26.1538 C   0  0  0  0  0  0  0  0  0  0  0  0
    5.6538  -11.8500   26.5291 O   0  0  0  0  0  0  0  0  0  0  0  0
    7.0947  -13.0592   25.1033 C   0  0  0  0  0  0  0  0  0  0  0  0
    7.3143  -14.4855   24.6869 C   0  0  0  0  0  0  0  0  0  0  0  0
    8.6131  -14.6447   23.9980 C   0  0  2  0  0  0  0  0  0  0  0  0
    8.4275  -14.8740   22.5590 N   0  0  0  0  0  0  0  0  0  0  0  0
    9.4325  -15.6949   24.5933 C   0  0  0  0  0  0  0  0  0  0  0  0
    9.7202  -15.7398   25.8068 O   0  0  0  0  0  0  0  0  0  0  0  0
    9.9455  -16.7465   23.7416 N   0  0  0  0  0  0  0  0  0  0  0  0
   10.6483  -17.8481   24.3708 C   0  0  0  0  0  0  0  0  0  0  0  0
   12.1053  -17.6692   24.3416 C   0  0  0  0  0  0  0  0  0  0  0  0
   12.9985  -18.6230   24.8311 O   0  0  0  0  0  0  0  0  0  0  0  0
   12.5676  -16.6150   23.8564 O   0  0  0  0  0  0  0  0  0  0  0  0
  2  1  1  0
  3  4  1  0
  3  2  1  0
  4  5  1  0
  5  1  1  0
  5  6  1  1
  7  6  2  0
  8  9  1  0
  9 11  1  0
 10  9  2  0
 11 12  1  0
 13 12  1  1
 13 14  1  0
 13 15  1  0
 14  6  1  0
 15 17  1  0
 16 15  2  0
 17 18  1  0
 18 19  1  0
 19 21  2  0
 19 20  1  0
M  END
$$$$
