PQG.pdb
     RDKit          3D

 21 21  0  0  1  0  0  0  0  0999 V2000
    7.1072  -15.1371   19.9091 N   0  0  0  0  0  0  0  0  0  0  0  0
    6.4036  -14.5342   18.7850 C   0  0  0  0  0  0  0  0  0  0  0  0
    6.9448  -13.1443   18.6405 C   0  0  0  0  0  0  0  0  0  0  0  0
    8.1687  -13.0513   19.4934 C   0  0  0  0  0  0  0  0  0  0  0  0
    8.3520  -14.4476   20.0395 C   0  0  1  0  0  0  0  0  0  0  0  0
    8.8178  -14.3457   21.4444 C   0  0  0  0  0  0  0  0  0  0  0  0
    9.9892  -13.9370   21.6531 O   0  0  0  0  0  0  0  0  0  0  0  0
    5.3978  -12.7747   26.3183 N   0  0  0  0  0  0  0  0  0  0  0  0
    6.6625  -12.8567   26.8991 C   0  0  0  0  0  0  0  0  0  0  0  0
    6.9009  -12.4198   28.0296 O   0  0  0  0  0  0  0  0  0  0  0  0
    7.7752  -13.4997   26.1217 C   0  0  0  0  0  0  0  0  0  0  0  0
    7.3191  -13.8677   24.7387 C   0  0  0  0  0  0  0  0  0  0  0  0
    8.4250  -14.4558   23.9526 C   0  0  2  0  0  0  0  0  0  0  0  0
    8.0251  -14.6799   22.5570 N   0  0  0  0  0  0  0  0  0  0  0  0
    8.9417  -15.6817   24.5516 C   0  0  0  0  0  0  0  0  0  0  0  0
    8.2160  -16.6278   24.9194 O   0  0  0  0  0  0  0  0  0  0  0  0
   10.3706  -15.8200   24.7348 N   0  0  0  0  0  0  0  0  0  0  0  0
   10.8618  -17.0379   25.3504 C   0  0  0  0  0  0  0  0  0  0  0  0
   12.3248  -17.1431   25.2881 C   0  0  0  0  0  0  0  0  0  0  0  0
   13.0342  -18.2142   25.8332 O   0  0  0  0  0  0  0  0  0  0  0  0
   12.9653  -16.2326   24.7212 O   0  0  0  0  0  0  0  0  0  0  0  0
  2  1  1  0
  3  4  1  0
  3  2  1  0
  4  5  1  0
  5  1  1  0
  5  6  1  1
  7  6  2  0
  8  9  1  0
  9 11  1  0
 10  9  2  0
 11 12  1  0
 13 12  1  1
 13 14  1  0
 13 15  1  0
 14  6  1  0
 15 17  1  0
 16 15  2  0
 17 18  1  0
 18 19  1  0
 19 21  2  0
 19 20  1  0
M  END
$$$$
