SRH.pdb
     RDKit          3D

 28 28  0  0  1  0  0  0  0  0999 V2000
   22.1159   -6.0900  -16.4467 O   0  0  0  0  0  0  0  0  0  0  0  0
   21.6538   -6.9705  -15.4686 C   0  0  0  0  0  0  0  0  0  0  0  0
   20.9070   -6.1503  -14.4383 C   0  0  2  0  0  0  0  0  0  0  0  0
   21.8466   -5.4816  -13.5800 N   0  0  0  0  0  0  0  0  0  0  0  0
   19.9684   -6.9560  -13.6518 C   0  0  0  0  0  0  0  0  0  0  0  0
   20.3653   -7.8929  -12.8989 O   0  0  0  0  0  0  0  0  0  0  0  0
   15.2466   -6.6585   -7.2481 N   0  0  0  0  0  0  0  0  0  0  0  0
   14.3661   -7.4533   -8.0197 C   0  0  0  0  0  0  0  0  0  0  0  0
   13.4125   -8.1072   -7.4533 N   0  0  0  0  0  0  0  0  0  0  0  0
   14.4918   -7.5669   -9.4490 N   0  0  0  0  0  0  0  0  0  0  0  0
   15.6014   -6.9182  -10.1566 C   0  0  0  0  0  0  0  0  0  0  0  0
   15.4431   -7.1685  -11.6751 C   0  0  0  0  0  0  0  0  0  0  0  0
   16.6401   -6.5645  -12.2990 C   0  0  0  0  0  0  0  0  0  0  0  0
   17.6084   -7.5104  -12.9636 C   0  0  2  0  0  0  0  0  0  0  0  0
   18.5830   -6.6908  -13.7258 N   0  0  0  0  0  0  0  0  0  0  0  0
   17.0212   -8.5398  -13.8050 C   0  0  0  0  0  0  0  0  0  0  0  0
   16.6027   -8.1886  -14.9639 O   0  0  0  0  0  0  0  0  0  0  0  0
   12.7278   -8.6372   -8.0129 N   0  0  0  0  0  0  0  0  0  0  0  0
   16.8581   -9.8985  -13.4953 C   0  0  1  0  0  0  0  0  0  0  0  0
   16.2650  -10.8835  -14.3805 C   0  0  0  0  0  0  0  0  0  0  0  0
   17.2581  -11.9579  -14.7630 C   0  0  0  0  0  0  0  0  0  0  0  0
   18.2707  -11.4877  -15.7308 C   0  0  0  0  0  0  0  0  0  0  0  0
   19.6321  -11.4950  -15.5511 N   0  0  0  0  0  0  0  0  0  0  0  0
   20.2352  -10.9927  -16.6456 C   0  0  0  0  0  0  0  0  0  0  0  0
   19.2684  -10.6673  -17.5172 N   0  0  0  0  0  0  0  0  0  0  0  0
   18.0735  -10.9715  -16.9532 C   0  0  0  0  0  0  0  0  0  0  0  0
   15.1016  -11.5548  -13.7912 O   0  0  0  0  0  0  0  0  0  0  0  0
   14.2426  -12.2661  -14.5878 O   0  0  0  0  0  0  0  0  0  0  0  0
  2  1  1  0
  3  2  1  0
  3  4  1  1
  5  3  1  0
  5  6  2  0
  7  8  1  0
  8  9  2  0
 10  8  1  0
 10 11  1  0
 11 12  1  0
 12 13  1  0
 14 13  1  6
 14 15  1  0
 15  5  1  0
 16 14  1  0
 17 16  2  0
 18 16  1  0
 19 18  1  0
 19 20  1  1
 20 21  1  0
 21 22  2  0
 22 23  1  0
 24 23  1  0
 25 21  1  0
 25 24  2  0
 26 27  1  0
 26 19  1  0
 28 26  2  0
M  END
$$$$
