SRH.pdb
     RDKit          3D

 28 28  0  0  1  0  0  0  0  0999 V2000
   27.5652  -20.4164  -20.2767 O   0  0  0  0  0  0  0  0  0  0  0  0
   27.0308  -21.6347  -19.8572 C   0  0  0  0  0  0  0  0  0  0  0  0
   27.7973  -22.0639  -18.6241 C   0  0  2  0  0  0  0  0  0  0  0  0
   28.5132  -23.2797  -18.8995 N   0  0  0  0  0  0  0  0  0  0  0  0
   26.9312  -22.2259  -17.4526 C   0  0  0  0  0  0  0  0  0  0  0  0
   26.2043  -23.2508  -17.2998 O   0  0  0  0  0  0  0  0  0  0  0  0
   25.3687  -19.6100   -9.2757 N   0  0  0  0  0  0  0  0  0  0  0  0
   26.4059  -20.5502   -9.4816 C   0  0  0  0  0  0  0  0  0  0  0  0
   26.8211  -21.2859   -8.5100 N   0  0  0  0  0  0  0  0  0  0  0  0
   27.0354  -20.7263  -10.7640 N   0  0  0  0  0  0  0  0  0  0  0  0
   26.7245  -19.8262  -11.8801 C   0  0  0  0  0  0  0  0  0  0  0  0
   25.8207  -20.5723  -12.8900 C   0  0  0  0  0  0  0  0  0  0  0  0
   26.6373  -20.7179  -14.1142 C   0  0  0  0  0  0  0  0  0  0  0  0
   25.9508  -21.3062  -15.3211 C   0  0  2  0  0  0  0  0  0  0  0  0
   26.8976  -21.2208  -16.4607 N   0  0  0  0  0  0  0  0  0  0  0  0
   24.6627  -20.7294  -15.6684 C   0  0  0  0  0  0  0  0  0  0  0  0
   24.6650  -19.6503  -16.3590 O   0  0  0  0  0  0  0  0  0  0  0  0
   27.6456  -21.8950   -8.6209 N   0  0  0  0  0  0  0  0  0  0  0  0
   23.3931  -21.2246  -15.3345 C   0  0  2  0  0  0  0  0  0  0  0  0
   22.1625  -20.8758  -16.0197 C   0  0  0  0  0  0  0  0  0  0  0  0
   22.1303  -21.4334  -17.4250 C   0  0  0  0  0  0  0  0  0  0  0  0
   20.9570  -20.9775  -18.1986 C   0  0  0  0  0  0  0  0  0  0  0  0
   20.5982  -19.6740  -18.4390 N   0  0  0  0  0  0  0  0  0  0  0  0
   19.4742  -19.6440  -19.1804 C   0  0  0  0  0  0  0  0  0  0  0  0
   19.1175  -20.9165  -19.4120 N   0  0  0  0  0  0  0  0  0  0  0  0
   20.0255  -21.7241  -18.8107 C   0  0  0  0  0  0  0  0  0  0  0  0
   20.9649  -21.3654  -15.3286 O   0  0  0  0  0  0  0  0  0  0  0  0
   19.7980  -20.6488  -15.3854 O   0  0  0  0  0  0  0  0  0  0  0  0
  2  1  1  0
  3  2  1  0
  3  4  1  6
  5  3  1  0
  5  6  2  0
  7  8  1  0
  8  9  2  0
 10  8  1  0
 10 11  1  0
 11 12  1  0
 12 13  1  0
 14 13  1  1
 14 15  1  0
 15  5  1  0
 16 14  1  0
 17 16  2  0
 18 16  1  0
 19 18  1  0
 19 20  1  6
 20 21  1  0
 21 22  2  0
 22 23  1  0
 24 23  1  0
 25 21  1  0
 25 24  2  0
 26 27  1  0
 26 19  1  0
 28 26  2  0
M  END
$$$$
