SRH.pdb
     RDKit          3D

 28 28  0  0  1  0  0  0  0  0999 V2000
   17.9565  -14.4143  -17.4901 O   0  0  0  0  0  0  0  0  0  0  0  0
   18.7777  -13.4575  -16.8936 C   0  0  0  0  0  0  0  0  0  0  0  0
   20.2104  -13.9060  -17.0896 C   0  0  2  0  0  0  0  0  0  0  0  0
   20.4171  -15.1652  -16.4275 N   0  0  0  0  0  0  0  0  0  0  0  0
   21.1796  -12.9098  -16.6236 C   0  0  0  0  0  0  0  0  0  0  0  0
   22.1517  -13.2264  -15.8772 O   0  0  0  0  0  0  0  0  0  0  0  0
   28.4480  -11.7270  -18.2303 N   0  0  0  0  0  0  0  0  0  0  0  0
   28.2597  -10.4832  -17.5826 C   0  0  0  0  0  0  0  0  0  0  0  0
   29.2593   -9.6991  -17.3737 N   0  0  0  0  0  0  0  0  0  0  0  0
   26.9648  -10.0424  -17.1343 N   0  0  0  0  0  0  0  0  0  0  0  0
   25.7694  -10.8551  -17.3854 C   0  0  0  0  0  0  0  0  0  0  0  0
   24.5239  -10.0821  -16.8907 C   0  0  0  0  0  0  0  0  0  0  0  0
   23.3785  -10.9839  -17.1386 C   0  0  0  0  0  0  0  0  0  0  0  0
   22.0393  -10.5411  -16.6055 C   0  0  2  0  0  0  0  0  0  0  0  0
   21.0376  -11.5586  -17.0101 N   0  0  0  0  0  0  0  0  0  0  0  0
   21.6095   -9.2056  -16.9856 C   0  0  0  0  0  0  0  0  0  0  0  0
   21.5392   -8.9412  -18.2373 O   0  0  0  0  0  0  0  0  0  0  0  0
   29.1207   -8.7574  -16.9774 N   0  0  0  0  0  0  0  0  0  0  0  0
   21.2523   -8.1529  -16.1297 C   0  0  1  0  0  0  0  0  0  0  0  0
   20.8753   -6.8220  -16.5676 C   0  0  0  0  0  0  0  0  0  0  0  0
   19.4492   -6.4935  -16.1866 C   0  0  0  0  0  0  0  0  0  0  0  0
   18.4579   -7.3405  -16.8817 C   0  0  0  0  0  0  0  0  0  0  0  0
   18.7287   -8.3043  -17.8216 N   0  0  0  0  0  0  0  0  0  0  0  0
   17.5779   -8.8708  -18.2325 C   0  0  0  0  0  0  0  0  0  0  0  0
   16.5805   -8.2746  -17.5617 N   0  0  0  0  0  0  0  0  0  0  0  0
   17.1239   -7.3429  -16.7401 C   0  0  0  0  0  0  0  0  0  0  0  0
   21.7301   -5.7713  -16.0047 O   0  0  0  0  0  0  0  0  0  0  0  0
   21.5616   -4.4676  -16.3925 O   0  0  0  0  0  0  0  0  0  0  0  0
  2  1  1  0
  3  2  1  0
  3  4  1  1
  5  3  1  0
  5  6  2  0
  7  8  1  0
  8  9  2  0
 10  8  1  0
 10 11  1  0
 11 12  1  0
 12 13  1  0
 14 13  1  6
 14 15  1  0
 15  5  1  0
 16 14  1  0
 17 16  2  0
 18 16  1  0
 19 18  1  0
 19 20  1  1
 20 21  1  0
 21 22  2  0
 22 23  1  0
 24 23  1  0
 25 21  1  0
 25 24  2  0
 26 27  1  0
 26 19  1  0
 28 26  2  0
M  END
$$$$
