MCY.pdb
     RDKit          3D

 27 27  0  0  1  0  0  0  0  0999 V2000
   31.3426  -23.2784  -18.7812 C   0  0  0  0  0  0  0  0  0  0  0  0
   30.6026  -22.0953  -19.9504 S   0  0  0  0  0  0  0  0  0  0  0  0
   29.1780  -21.2792  -19.1952 C   0  0  0  0  0  0  0  0  0  0  0  0
   28.4314  -22.2281  -18.2692 C   0  0  0  0  0  0  0  0  0  0  0  0
   27.2638  -21.5216  -17.6034 C   0  0  2  0  0  0  0  0  0  0  0  0
   27.2124  -20.1340  -17.9928 N   0  0  0  0  0  0  0  0  0  0  0  0
   27.4243  -21.6671  -16.1257 C   0  0  0  0  0  0  0  0  0  0  0  0
   27.2485  -22.8172  -15.6295 O   0  0  0  0  0  0  0  0  0  0  0  0
   27.7578  -20.5344  -15.3731 N   0  0  0  0  0  0  0  0  0  0  0  0
   27.8103  -20.5979  -13.9407 C   0  0  1  0  0  0  0  0  0  0  0  0
   28.7472  -19.5226  -13.3733 C   0  0  0  0  0  0  0  0  0  0  0  0
   30.4629  -20.0327  -13.4673 S   0  0  0  0  0  0  0  0  0  0  0  0
   26.4684  -20.2984  -13.3335 C   0  0  0  0  0  0  0  0  0  0  0  0
   25.6840  -19.5314  -13.9431 O   0  0  0  0  0  0  0  0  0  0  0  0
   18.6474  -20.1880  -10.0916 O   0  0  0  0  0  0  0  0  0  0  0  0
   19.8620  -20.5213  -10.6443 C   0  0  0  0  0  0  0  0  0  0  0  0
   20.9577  -19.7663  -10.2711 C   0  0  0  0  0  0  0  0  0  0  0  0
   22.1934  -20.0689  -10.8031 C   0  0  0  0  0  0  0  0  0  0  0  0
   22.3659  -21.1152  -11.7062 C   0  0  0  0  0  0  0  0  0  0  0  0
   23.6947  -21.3823  -12.2569 C   0  0  0  0  0  0  0  0  0  0  0  0
   24.7593  -20.6233  -11.5035 C   0  0  2  0  0  0  0  0  0  0  0  0
   26.0693  -20.8549  -12.1014 N   0  0  0  0  0  0  0  0  0  0  0  0
   24.8177  -20.9755  -10.0771 C   0  0  0  0  0  0  0  0  0  0  0  0
   24.2791  -20.1848   -9.0817 O   0  0  0  0  0  0  0  0  0  0  0  0
   21.2810  -21.8717  -12.0831 C   0  0  0  0  0  0  0  0  0  0  0  0
   20.0539  -21.5493  -11.5368 C   0  0  0  0  0  0  0  0  0  0  0  0
   25.3813  -22.0406   -9.7288 O   0  0  0  0  0  0  0  0  0  0  0  0
  2  1  1  0
  3  2  1  0
  4  5  1  0
  4  3  1  0
  5  6  1  1
  7  8  2  0
  7  5  1  0
  9  7  1  0
 10  9  1  0
 10 11  1  1
 12 11  1  0
 13 14  2  0
 13 10  1  0
 16 15  1  0
 17 16  2  0
 18 17  1  0
 19 25  1  0
 19 18  2  0
 20 19  1  0
 21 22  1  0
 21 20  1  6
 22 13  1  0
 23 21  1  0
 24 23  1  0
 25 26  2  0
 26 16  1  0
 27 23  2  0
M  END
$$$$
