MCY.pdb
     RDKit          3D

 27 27  0  0  1  0  0  0  0  0999 V2000
   18.4916  -12.9963  -17.2011 C   0  0  0  0  0  0  0  0  0  0  0  0
   18.5358  -13.5125  -18.9463 S   0  0  0  0  0  0  0  0  0  0  0  0
   20.0211  -12.8694  -19.7503 C   0  0  0  0  0  0  0  0  0  0  0  0
   20.8762  -12.0809  -18.7693 C   0  0  0  0  0  0  0  0  0  0  0  0
   22.1206  -11.5426  -19.4531 C   0  0  2  0  0  0  0  0  0  0  0  0
   23.1002  -12.5853  -19.6338 N   0  0  0  0  0  0  0  0  0  0  0  0
   22.6577  -10.4300  -18.6138 C   0  0  0  0  0  0  0  0  0  0  0  0
   23.6969  -10.6625  -17.9313 O   0  0  0  0  0  0  0  0  0  0  0  0
   21.9901   -9.1992  -18.6255 N   0  0  0  0  0  0  0  0  0  0  0  0
   22.4962   -8.0859  -17.8753 C   0  0  1  0  0  0  0  0  0  0  0  0
   22.7072   -6.8616  -18.7768 C   0  0  0  0  0  0  0  0  0  0  0  0
   21.2092   -6.4351  -19.6637 S   0  0  0  0  0  0  0  0  0  0  0  0
   21.5069   -7.6341  -16.8381 C   0  0  0  0  0  0  0  0  0  0  0  0
   20.2889   -7.8820  -17.0124 O   0  0  0  0  0  0  0  0  0  0  0  0
   18.0692   -5.1131   -9.1897 O   0  0  0  0  0  0  0  0  0  0  0  0
   18.9465   -5.3688  -10.2177 C   0  0  0  0  0  0  0  0  0  0  0  0
   19.3521   -6.6780  -10.3951 C   0  0  0  0  0  0  0  0  0  0  0  0
   20.2312   -6.9755  -11.4149 C   0  0  0  0  0  0  0  0  0  0  0  0
   20.7209   -5.9914  -12.2705 C   0  0  0  0  0  0  0  0  0  0  0  0
   21.6675   -6.3565  -13.3245 C   0  0  0  0  0  0  0  0  0  0  0  0
   20.9772   -6.4683  -14.6618 C   0  0  2  0  0  0  0  0  0  0  0  0
   21.9100   -6.9417  -15.6782 N   0  0  0  0  0  0  0  0  0  0  0  0
   20.3850   -5.2001  -15.1123 C   0  0  0  0  0  0  0  0  0  0  0  0
   19.0601   -4.8707  -14.9071 O   0  0  0  0  0  0  0  0  0  0  0  0
   20.3226   -4.6860  -12.1012 C   0  0  0  0  0  0  0  0  0  0  0  0
   19.4416   -4.4129  -11.0729 C   0  0  0  0  0  0  0  0  0  0  0  0
   21.1021   -4.3659  -15.7152 O   0  0  0  0  0  0  0  0  0  0  0  0
  2  1  1  0
  3  2  1  0
  4  5  1  0
  4  3  1  0
  5  6  1  1
  7  8  2  0
  7  5  1  0
  9  7  1  0
 10  9  1  0
 10 11  1  6
 12 11  1  0
 13 14  2  0
 13 10  1  0
 16 15  1  0
 17 16  2  0
 18 17  1  0
 19 25  1  0
 19 18  2  0
 20 19  1  0
 21 22  1  0
 21 20  1  1
 22 13  1  0
 23 21  1  0
 24 23  1  0
 25 26  2  0
 26 16  1  0
 27 23  2  0
M  END
$$$$
