MCY.pdb
     RDKit          3D

 27 27  0  0  1  0  0  0  0  0999 V2000
   16.7369  -14.5146  -20.2444 C   0  0  0  0  0  0  0  0  0  0  0  0
   18.0756  -13.4131  -20.7999 S   0  0  0  0  0  0  0  0  0  0  0  0
   19.5974  -13.7739  -19.8943 C   0  0  0  0  0  0  0  0  0  0  0  0
   19.4475  -13.4394  -18.4175 C   0  0  0  0  0  0  0  0  0  0  0  0
   20.7812  -13.5580  -17.7014 C   0  0  2  0  0  0  0  0  0  0  0  0
   21.0236  -14.9180  -17.2873 N   0  0  0  0  0  0  0  0  0  0  0  0
   20.7562  -12.6288  -16.5324 C   0  0  0  0  0  0  0  0  0  0  0  0
   19.9480  -12.8907  -15.5953 O   0  0  0  0  0  0  0  0  0  0  0  0
   21.6199  -11.5267  -16.5338 N   0  0  0  0  0  0  0  0  0  0  0  0
   21.5128  -10.5127  -15.5244 C   0  0  1  0  0  0  0  0  0  0  0  0
   22.8910  -10.1559  -14.9504 C   0  0  0  0  0  0  0  0  0  0  0  0
   22.7790   -8.8214  -13.7592 S   0  0  0  0  0  0  0  0  0  0  0  0
   20.9904   -9.2261  -16.0993 C   0  0  0  0  0  0  0  0  0  0  0  0
   21.5154   -8.7709  -17.1445 O   0  0  0  0  0  0  0  0  0  0  0  0
   16.1276   -2.2260  -17.9376 O   0  0  0  0  0  0  0  0  0  0  0  0
   16.5592   -3.4334  -17.4398 C   0  0  0  0  0  0  0  0  0  0  0  0
   17.2928   -4.2430  -18.2861 C   0  0  0  0  0  0  0  0  0  0  0  0
   17.7438   -5.4616  -17.8245 C   0  0  0  0  0  0  0  0  0  0  0  0
   17.4794   -5.8975  -16.5283 C   0  0  0  0  0  0  0  0  0  0  0  0
   17.9637   -7.2080  -16.0940 C   0  0  0  0  0  0  0  0  0  0  0  0
   19.4670   -7.2170  -15.9626 C   0  0  2  0  0  0  0  0  0  0  0  0
   19.9296   -8.5196  -15.4971 N   0  0  0  0  0  0  0  0  0  0  0  0
   19.9720   -6.1788  -15.0520 C   0  0  0  0  0  0  0  0  0  0  0  0
   20.3770   -4.9306  -15.4809 O   0  0  0  0  0  0  0  0  0  0  0  0
   16.7501   -5.0982  -15.6794 C   0  0  0  0  0  0  0  0  0  0  0  0
   16.3093   -3.8823  -16.1646 C   0  0  0  0  0  0  0  0  0  0  0  0
   20.0473   -6.4213  -13.8236 O   0  0  0  0  0  0  0  0  0  0  0  0
  2  1  1  0
  3  2  1  0
  4  5  1  0
  4  3  1  0
  5  6  1  1
  7  8  2  0
  7  5  1  0
  9  7  1  0
 10  9  1  0
 10 11  1  6
 12 11  1  0
 13 14  2  0
 13 10  1  0
 16 15  1  0
 17 16  2  0
 18 17  1  0
 19 25  1  0
 19 18  2  0
 20 19  1  0
 21 22  1  0
 21 20  1  1
 22 13  1  0
 23 21  1  0
 24 23  1  0
 25 26  2  0
 26 16  1  0
 27 23  2  0
M  END
$$$$
