MCY.pdb
     RDKit          3D

 27 27  0  0  1  0  0  0  0  0999 V2000
   19.6174  -27.1271  -12.7950 C   0  0  0  0  0  0  0  0  0  0  0  0
   17.9426  -26.8321  -13.4448 S   0  0  0  0  0  0  0  0  0  0  0  0
   17.2075  -25.3882  -12.6443 C   0  0  0  0  0  0  0  0  0  0  0  0
   17.8273  -24.0996  -13.1645 C   0  0  0  0  0  0  0  0  0  0  0  0
   19.0900  -23.7605  -12.3923 C   0  0  2  0  0  0  0  0  0  0  0  0
   18.7865  -23.4669  -11.0134 N   0  0  0  0  0  0  0  0  0  0  0  0
   19.7394  -22.5969  -13.0669 C   0  0  0  0  0  0  0  0  0  0  0  0
   19.0740  -21.5246  -13.1509 O   0  0  0  0  0  0  0  0  0  0  0  0
   21.0383  -22.7515  -13.5667 N   0  0  0  0  0  0  0  0  0  0  0  0
   21.6929  -21.6713  -14.2472 C   0  0  1  0  0  0  0  0  0  0  0  0
   23.2056  -21.6896  -13.9871 C   0  0  0  0  0  0  0  0  0  0  0  0
   24.0330  -20.3467  -14.8382 S   0  0  0  0  0  0  0  0  0  0  0  0
   21.5571  -21.8057  -15.7379 C   0  0  0  0  0  0  0  0  0  0  0  0
   21.7430  -22.9293  -16.2655 O   0  0  0  0  0  0  0  0  0  0  0  0
   20.9773  -14.5240  -17.5584 O   0  0  0  0  0  0  0  0  0  0  0  0
   20.7036  -15.8478  -17.8121 C   0  0  0  0  0  0  0  0  0  0  0  0
   20.1759  -16.5964  -16.7771 C   0  0  0  0  0  0  0  0  0  0  0  0
   19.8876  -17.9277  -16.9914 C   0  0  0  0  0  0  0  0  0  0  0  0
   20.1143  -18.5373  -18.2232 C   0  0  0  0  0  0  0  0  0  0  0  0
   19.8099  -19.9582  -18.3928 C   0  0  0  0  0  0  0  0  0  0  0  0
   20.9824  -20.8184  -17.9898 C   0  0  2  0  0  0  0  0  0  0  0  0
   21.2272  -20.7064  -16.5563 N   0  0  0  0  0  0  0  0  0  0  0  0
   22.2184  -20.4827  -18.7118 C   0  0  0  0  0  0  0  0  0  0  0  0
   23.3340  -19.9542  -18.0936 O   0  0  0  0  0  0  0  0  0  0  0  0
   20.6392  -17.7999  -19.2586 C   0  0  0  0  0  0  0  0  0  0  0  0
   20.9196  -16.4685  -19.0195 C   0  0  0  0  0  0  0  0  0  0  0  0
   22.2802  -20.6771  -19.9496 O   0  0  0  0  0  0  0  0  0  0  0  0
  2  1  1  0
  3  2  1  0
  4  5  1  0
  4  3  1  0
  5  6  1  1
  7  8  2  0
  7  5  1  0
  9  7  1  0
 10  9  1  0
 10 11  1  6
 12 11  1  0
 13 14  2  0
 13 10  1  0
 16 15  1  0
 17 16  2  0
 18 17  1  0
 19 25  1  0
 19 18  2  0
 20 19  1  0
 21 22  1  0
 21 20  1  6
 22 13  1  0
 23 21  1  0
 24 23  1  0
 25 26  2  0
 26 16  1  0
 27 23  2  0
M  END
$$$$
