MCY.pdb
     RDKit          3D

 27 27  0  0  1  0  0  0  0  0999 V2000
   14.0797  -14.5801    3.1616 C   0  0  0  0  0  0  0  0  0  0  0  0
   13.5060  -13.0902    4.0363 S   0  0  0  0  0  0  0  0  0  0  0  0
   14.9184  -12.1360    4.6369 C   0  0  0  0  0  0  0  0  0  0  0  0
   16.0661  -13.0512    5.0377 C   0  0  0  0  0  0  0  0  0  0  0  0
   17.3001  -12.2412    5.3941 C   0  0  2  0  0  0  0  0  0  0  0  0
   17.7896  -11.5177    4.2468 N   0  0  0  0  0  0  0  0  0  0  0  0
   18.3295  -13.1857    5.9224 C   0  0  0  0  0  0  0  0  0  0  0  0
   18.6122  -14.1962    5.2161 O   0  0  0  0  0  0  0  0  0  0  0  0
   18.9227  -12.9069    7.1597 N   0  0  0  0  0  0  0  0  0  0  0  0
   19.8929  -13.8010    7.7233 C   0  0  1  0  0  0  0  0  0  0  0  0
   20.4740  -13.2362    9.0270 C   0  0  0  0  0  0  0  0  0  0  0  0
   21.8015  -12.0761    8.7042 S   0  0  0  0  0  0  0  0  0  0  0  0
   19.2641  -15.1081    8.1167 C   0  0  0  0  0  0  0  0  0  0  0  0
   18.1098  -15.1025    8.6093 O   0  0  0  0  0  0  0  0  0  0  0  0
   16.0205  -22.9899    8.5317 O   0  0  0  0  0  0  0  0  0  0  0  0
   16.7296  -21.8710    8.1618 C   0  0  0  0  0  0  0  0  0  0  0  0
   16.2257  -20.6436    8.5485 C   0  0  0  0  0  0  0  0  0  0  0  0
   16.9075  -19.4977    8.1971 C   0  0  0  0  0  0  0  0  0  0  0  0
   18.0903  -19.5450    7.4631 C   0  0  0  0  0  0  0  0  0  0  0  0
   18.7645  -18.2988    7.0987 C   0  0  0  0  0  0  0  0  0  0  0  0
   19.3552  -17.6239    8.3123 C   0  0  2  0  0  0  0  0  0  0  0  0
   19.9349  -16.3363    7.9472 N   0  0  0  0  0  0  0  0  0  0  0  0
   20.3822  -18.4365    8.9807 C   0  0  0  0  0  0  0  0  0  0  0  0
   20.0909  -19.3648    9.9603 O   0  0  0  0  0  0  0  0  0  0  0  0
   18.5989  -20.7621    7.0740 C   0  0  0  0  0  0  0  0  0  0  0  0
   17.8981  -21.8955    7.4379 C   0  0  0  0  0  0  0  0  0  0  0  0
   21.5863  -18.2920    8.6600 O   0  0  0  0  0  0  0  0  0  0  0  0
  2  1  1  0
  3  2  1  0
  4  5  1  0
  4  3  1  0
  5  6  1  6
  7  8  2  0
  7  5  1  0
  9  7  1  0
 10  9  1  0
 10 11  1  1
 12 11  1  0
 13 14  2  0
 13 10  1  0
 16 15  1  0
 17 16  2  0
 18 17  1  0
 19 25  1  0
 19 18  2  0
 20 19  1  0
 21 22  1  0
 21 20  1  6
 22 13  1  0
 23 21  1  0
 24 23  1  0
 25 26  2  0
 26 16  1  0
 27 23  2  0
M  END
$$$$
