MCY.pdb
     RDKit          3D

 27 27  0  0  1  0  0  0  0  0999 V2000
   26.3852  -14.9017  -14.6369 C   0  0  0  0  0  0  0  0  0  0  0  0
   27.2085  -14.8780  -16.2604 S   0  0  0  0  0  0  0  0  0  0  0  0
   27.9425  -16.4917  -16.6120 C   0  0  0  0  0  0  0  0  0  0  0  0
   26.9112  -17.4462  -17.1956 C   0  0  0  0  0  0  0  0  0  0  0  0
   26.6479  -17.1254  -18.6563 C   0  0  2  0  0  0  0  0  0  0  0  0
   27.8227  -16.5688  -19.2805 N   0  0  0  0  0  0  0  0  0  0  0  0
   25.4976  -16.1746  -18.7150 C   0  0  0  0  0  0  0  0  0  0  0  0
   25.7620  -14.9378  -18.7244 O   0  0  0  0  0  0  0  0  0  0  0  0
   24.1987  -16.6961  -18.7561 N   0  0  0  0  0  0  0  0  0  0  0  0
   23.0678  -15.8288  -18.9217 C   0  0  1  0  0  0  0  0  0  0  0  0
   22.9847  -15.2965  -20.3590 C   0  0  0  0  0  0  0  0  0  0  0  0
   23.2999  -16.5921  -21.5567 S   0  0  0  0  0  0  0  0  0  0  0  0
   21.7779  -16.5709  -18.7110 C   0  0  0  0  0  0  0  0  0  0  0  0
   21.7401  -17.8024  -18.9501 O   0  0  0  0  0  0  0  0  0  0  0  0
   13.9143  -18.9068  -15.7403 O   0  0  0  0  0  0  0  0  0  0  0  0
   15.0875  -18.2288  -15.9764 C   0  0  0  0  0  0  0  0  0  0  0  0
   16.2631  -18.9524  -15.9099 C   0  0  0  0  0  0  0  0  0  0  0  0
   17.4607  -18.3089  -16.1405 C   0  0  0  0  0  0  0  0  0  0  0  0
   17.5164  -16.9494  -16.4385 C   0  0  0  0  0  0  0  0  0  0  0  0
   18.8144  -16.3100  -16.6550 C   0  0  0  0  0  0  0  0  0  0  0  0
   19.3452  -16.6087  -18.0357 C   0  0  2  0  0  0  0  0  0  0  0  0
   20.6133  -15.9218  -18.2531 N   0  0  0  0  0  0  0  0  0  0  0  0
   18.4101  -16.2327  -19.1062 C   0  0  0  0  0  0  0  0  0  0  0  0
   17.4132  -17.0698  -19.5662 O   0  0  0  0  0  0  0  0  0  0  0  0
   16.3514  -16.2217  -16.5067 C   0  0  0  0  0  0  0  0  0  0  0  0
   15.1646  -16.8884  -16.2719 C   0  0  0  0  0  0  0  0  0  0  0  0
   18.5086  -15.1020  -19.6404 O   0  0  0  0  0  0  0  0  0  0  0  0
  2  1  1  0
  3  2  1  0
  4  5  1  0
  4  3  1  0
  5  6  1  1
  7  8  2  0
  7  5  1  0
  9  7  1  0
 10  9  1  0
 10 11  1  6
 12 11  1  0
 13 14  2  0
 13 10  1  0
 16 15  1  0
 17 16  2  0
 18 17  1  0
 19 25  1  0
 19 18  2  0
 20 19  1  0
 21 22  1  0
 21 20  1  1
 22 13  1  0
 23 21  1  0
 24 23  1  0
 25 26  2  0
 26 16  1  0
 27 23  2  0
M  END
$$$$
