MCY.pdb
     RDKit          3D

 27 27  0  0  1  0  0  0  0  0999 V2000
   26.1778  -16.2578  -15.6966 C   0  0  0  0  0  0  0  0  0  0  0  0
   27.8102  -16.8569  -15.1580 S   0  0  0  0  0  0  0  0  0  0  0  0
   28.1038  -18.5239  -15.7914 C   0  0  0  0  0  0  0  0  0  0  0  0
   26.8841  -19.4100  -15.5851 C   0  0  0  0  0  0  0  0  0  0  0  0
   27.1687  -20.4835  -14.5494 C   0  0  2  0  0  0  0  0  0  0  0  0
   28.1837  -21.3943  -15.0181 N   0  0  0  0  0  0  0  0  0  0  0  0
   25.8868  -21.1955  -14.2656 C   0  0  0  0  0  0  0  0  0  0  0  0
   25.6296  -22.2293  -14.9474 O   0  0  0  0  0  0  0  0  0  0  0  0
   25.0442  -20.6871  -13.2694 N   0  0  0  0  0  0  0  0  0  0  0  0
   23.8178  -21.3543  -12.9388 C   0  0  1  0  0  0  0  0  0  0  0  0
   23.5327  -21.2732  -11.4327 C   0  0  0  0  0  0  0  0  0  0  0  0
   22.8372  -19.6840  -10.9821 S   0  0  0  0  0  0  0  0  0  0  0  0
   22.6411  -20.6835  -13.5899 C   0  0  0  0  0  0  0  0  0  0  0  0
   22.6167  -19.4303  -13.6557 O   0  0  0  0  0  0  0  0  0  0  0  0
   16.7096  -25.6825  -13.4263 O   0  0  0  0  0  0  0  0  0  0  0  0
   17.5443  -24.7655  -14.0213 C   0  0  0  0  0  0  0  0  0  0  0  0
   16.9715  -23.6016  -14.4981 C   0  0  0  0  0  0  0  0  0  0  0  0
   17.7748  -22.6570  -15.1013 C   0  0  0  0  0  0  0  0  0  0  0  0
   19.1476  -22.8452  -15.2426 C   0  0  0  0  0  0  0  0  0  0  0  0
   19.9524  -21.8207  -15.9084 C   0  0  0  0  0  0  0  0  0  0  0  0
   20.4960  -20.8238  -14.9145 C   0  0  2  0  0  0  0  0  0  0  0  0
   21.5676  -21.4226  -14.1270 N   0  0  0  0  0  0  0  0  0  0  0  0
   19.4685  -20.3015  -14.0016 C   0  0  0  0  0  0  0  0  0  0  0  0
   18.4931  -19.4071  -14.3953 O   0  0  0  0  0  0  0  0  0  0  0  0
   19.7260  -24.0004  -14.7711 C   0  0  0  0  0  0  0  0  0  0  0  0
   18.9008  -24.9315  -14.1708 C   0  0  0  0  0  0  0  0  0  0  0  0
   19.4631  -20.6736  -12.8037 O   0  0  0  0  0  0  0  0  0  0  0  0
  2  1  1  0
  3  2  1  0
  4  5  1  0
  4  3  1  0
  5  6  1  6
  7  8  2  0
  7  5  1  0
  9  7  1  0
 10  9  1  0
 10 11  1  1
 12 11  1  0
 13 14  2  0
 13 10  1  0
 16 15  1  0
 17 16  2  0
 18 17  1  0
 19 25  1  0
 19 18  2  0
 20 19  1  0
 21 22  1  0
 21 20  1  6
 22 13  1  0
 23 21  1  0
 24 23  1  0
 25 26  2  0
 26 16  1  0
 27 23  2  0
M  END
$$$$
