MCY.pdb
     RDKit          3D

 27 27  0  0  1  0  0  0  0  0999 V2000
   30.1736  -23.8284  -18.5950 C   0  0  0  0  0  0  0  0  0  0  0  0
   29.8228  -22.0858  -18.9879 S   0  0  0  0  0  0  0  0  0  0  0  0
   29.8935  -21.0809  -17.4875 C   0  0  0  0  0  0  0  0  0  0  0  0
   29.1005  -21.7251  -16.3599 C   0  0  0  0  0  0  0  0  0  0  0  0
   27.7133  -21.1154  -16.2619 C   0  0  2  0  0  0  0  0  0  0  0  0
   27.7876  -19.6772  -16.1859 N   0  0  0  0  0  0  0  0  0  0  0  0
   27.0455  -21.6909  -15.0562 C   0  0  0  0  0  0  0  0  0  0  0  0
   26.9324  -22.9492  -14.9960 O   0  0  0  0  0  0  0  0  0  0  0  0
   26.5836  -20.8167  -14.0647 N   0  0  0  0  0  0  0  0  0  0  0  0
   25.8600  -21.3148  -12.9303 C   0  0  1  0  0  0  0  0  0  0  0  0
   26.1542  -20.4797  -11.6764 C   0  0  0  0  0  0  0  0  0  0  0  0
   25.1339  -20.9912  -10.2944 S   0  0  0  0  0  0  0  0  0  0  0  0
   24.3762  -21.1921  -13.1351 C   0  0  0  0  0  0  0  0  0  0  0  0
   23.8756  -20.0501  -13.2783 O   0  0  0  0  0  0  0  0  0  0  0  0
   15.9935  -23.3914  -14.5695 O   0  0  0  0  0  0  0  0  0  0  0  0
   17.3537  -23.4469  -14.3731 C   0  0  0  0  0  0  0  0  0  0  0  0
   17.8000  -23.6816  -13.0863 C   0  0  0  0  0  0  0  0  0  0  0  0
   19.1567  -23.7445  -12.8480 C   0  0  0  0  0  0  0  0  0  0  0  0
   20.0885  -23.5778  -13.8698 C   0  0  0  0  0  0  0  0  0  0  0  0
   21.5174  -23.6338  -13.5605 C   0  0  0  0  0  0  0  0  0  0  0  0
   22.1025  -22.2484  -13.4360 C   0  0  2  0  0  0  0  0  0  0  0  0
   23.5348  -22.3225  -13.1706 N   0  0  0  0  0  0  0  0  0  0  0  0
   21.4637  -21.4456  -12.3827 C   0  0  0  0  0  0  0  0  0  0  0  0
   21.6746  -21.6627  -11.0356 O   0  0  0  0  0  0  0  0  0  0  0  0
   19.6532  -23.3439  -15.1532 C   0  0  0  0  0  0  0  0  0  0  0  0
   18.2898  -23.2853  -15.3669 C   0  0  0  0  0  0  0  0  0  0  0  0
   20.6855  -20.5159  -12.7043 O   0  0  0  0  0  0  0  0  0  0  0  0
  2  1  1  0
  3  2  1  0
  4  5  1  0
  4  3  1  0
  5  6  1  1
  7  8  2  0
  7  5  1  0
  9  7  1  0
 10  9  1  0
 10 11  1  1
 12 11  1  0
 13 14  2  0
 13 10  1  0
 16 15  1  0
 17 16  2  0
 18 17  1  0
 19 25  1  0
 19 18  2  0
 20 19  1  0
 21 22  1  0
 21 20  1  1
 22 13  1  0
 23 21  1  0
 24 23  1  0
 25 26  2  0
 26 16  1  0
 27 23  2  0
M  END
$$$$
