MCY.pdb
     RDKit          3D

 27 27  0  0  1  0  0  0  0  0999 V2000
   20.1608  -22.1713  -16.6913 C   0  0  0  0  0  0  0  0  0  0  0  0
   20.0330  -20.6513  -17.6849 S   0  0  0  0  0  0  0  0  0  0  0  0
   21.6155  -20.2898  -18.4794 C   0  0  0  0  0  0  0  0  0  0  0  0
   22.7802  -20.7006  -17.5906 C   0  0  0  0  0  0  0  0  0  0  0  0
   23.0555  -19.6389  -16.5405 C   0  0  2  0  0  0  0  0  0  0  0  0
   23.2620  -18.3502  -17.1538 N   0  0  0  0  0  0  0  0  0  0  0  0
   24.2538  -20.0688  -15.7595 C   0  0  0  0  0  0  0  0  0  0  0  0
   24.2805  -21.2619  -15.3403 O   0  0  0  0  0  0  0  0  0  0  0  0
   25.2757  -19.1385  -15.5337 N   0  0  0  0  0  0  0  0  0  0  0  0
   26.4430  -19.5026  -14.7831 C   0  0  1  0  0  0  0  0  0  0  0  0
   27.5556  -18.4584  -14.9498 C   0  0  0  0  0  0  0  0  0  0  0  0
   27.9218  -18.1614  -16.6790 S   0  0  0  0  0  0  0  0  0  0  0  0
   26.1556  -19.5266  -13.3081 C   0  0  0  0  0  0  0  0  0  0  0  0
   25.5908  -18.5361  -12.7836 O   0  0  0  0  0  0  0  0  0  0  0  0
   20.0285  -19.9498  -12.2888 O   0  0  0  0  0  0  0  0  0  0  0  0
   21.2787  -20.3573  -11.8855 C   0  0  0  0  0  0  0  0  0  0  0  0
   21.9761  -21.1977  -12.7324 C   0  0  0  0  0  0  0  0  0  0  0  0
   23.2331  -21.6286  -12.3641 C   0  0  0  0  0  0  0  0  0  0  0  0
   23.8179  -21.2391  -11.1614 C   0  0  0  0  0  0  0  0  0  0  0  0
   25.1462  -21.7407  -10.8083 C   0  0  0  0  0  0  0  0  0  0  0  0
   26.2089  -20.7029  -11.0745 C   0  0  2  0  0  0  0  0  0  0  0  0
   26.5025  -20.6292  -12.5012 N   0  0  0  0  0  0  0  0  0  0  0  0
   27.4589  -20.9576  -10.3433 C   0  0  0  0  0  0  0  0  0  0  0  0
   27.5690  -20.8393   -8.9722 O   0  0  0  0  0  0  0  0  0  0  0  0
   23.1310  -20.4031  -10.3126 C   0  0  0  0  0  0  0  0  0  0  0  0
   21.8738  -19.9849  -10.7034 C   0  0  0  0  0  0  0  0  0  0  0  0
   28.4853  -21.2980  -10.9791 O   0  0  0  0  0  0  0  0  0  0  0  0
  2  1  1  0
  3  2  1  0
  4  5  1  0
  4  3  1  0
  5  6  1  6
  7  8  2  0
  7  5  1  0
  9  7  1  0
 10  9  1  0
 10 11  1  1
 12 11  1  0
 13 14  2  0
 13 10  1  0
 16 15  1  0
 17 16  2  0
 18 17  1  0
 19 25  1  0
 19 18  2  0
 20 19  1  0
 21 22  1  0
 21 20  1  6
 22 13  1  0
 23 21  1  0
 24 23  1  0
 25 26  2  0
 26 16  1  0
 27 23  2  0
M  END
$$$$
