MCY.pdb
     RDKit          3D

 27 27  0  0  1  0  0  0  0  0999 V2000
   18.6880  -18.2597  -11.0334 C   0  0  0  0  0  0  0  0  0  0  0  0
   18.8361  -17.2537  -12.5434 S   0  0  0  0  0  0  0  0  0  0  0  0
   19.3730  -18.2824  -13.9289 C   0  0  0  0  0  0  0  0  0  0  0  0
   20.2773  -19.4104  -13.4545 C   0  0  0  0  0  0  0  0  0  0  0  0
   20.8777  -20.1512  -14.6362 C   0  0  2  0  0  0  0  0  0  0  0  0
   19.8791  -20.9485  -15.3046 N   0  0  0  0  0  0  0  0  0  0  0  0
   21.9971  -20.9971  -14.1241 C   0  0  0  0  0  0  0  0  0  0  0  0
   21.6997  -21.9566  -13.3556 O   0  0  0  0  0  0  0  0  0  0  0  0
   23.3049  -20.6875  -14.5172 N   0  0  0  0  0  0  0  0  0  0  0  0
   24.4153  -21.4550  -14.0310 C   0  0  1  0  0  0  0  0  0  0  0  0
   25.4869  -21.6261  -15.1165 C   0  0  0  0  0  0  0  0  0  0  0  0
   26.9726  -22.3815  -14.4572 S   0  0  0  0  0  0  0  0  0  0  0  0
   25.1163  -20.7454  -12.9067 C   0  0  0  0  0  0  0  0  0  0  0  0
   25.4057  -19.5316  -13.0418 O   0  0  0  0  0  0  0  0  0  0  0  0
   28.8902  -18.7897   -5.2997 O   0  0  0  0  0  0  0  0  0  0  0  0
   28.1734  -19.4302   -6.2833 C   0  0  0  0  0  0  0  0  0  0  0  0
   28.8072  -20.4490   -6.9692 C   0  0  0  0  0  0  0  0  0  0  0  0
   28.1223  -21.1159   -7.9630 C   0  0  0  0  0  0  0  0  0  0  0  0
   26.8090  -20.7898   -8.2933 C   0  0  0  0  0  0  0  0  0  0  0  0
   26.1336  -21.5150   -9.3696 C   0  0  0  0  0  0  0  0  0  0  0  0
   26.3392  -20.8319  -10.6993 C   0  0  2  0  0  0  0  0  0  0  0  0
   25.4559  -21.4054  -11.7083 N   0  0  0  0  0  0  0  0  0  0  0  0
   27.7266  -20.9121  -11.1798 C   0  0  0  0  0  0  0  0  0  0  0  0
   28.5482  -19.8093  -11.3017 O   0  0  0  0  0  0  0  0  0  0  0  0
   26.1706  -19.7774   -7.6159 C   0  0  0  0  0  0  0  0  0  0  0  0
   26.8773  -19.1242   -6.6249 C   0  0  0  0  0  0  0  0  0  0  0  0
   28.2033  -22.0272  -11.5006 O   0  0  0  0  0  0  0  0  0  0  0  0
  2  1  1  0
  3  2  1  0
  4  5  1  0
  4  3  1  0
  5  6  1  1
  7  8  2  0
  7  5  1  0
  9  7  1  0
 10  9  1  0
 10 11  1  6
 12 11  1  0
 13 14  2  0
 13 10  1  0
 16 15  1  0
 17 16  2  0
 18 17  1  0
 19 25  1  0
 19 18  2  0
 20 19  1  0
 21 22  1  0
 21 20  1  1
 22 13  1  0
 23 21  1  0
 24 23  1  0
 25 26  2  0
 26 16  1  0
 27 23  2  0
M  END
$$$$
