MCY.pdb
     RDKit          3D

 27 27  0  0  1  0  0  0  0  0999 V2000
   24.0960  -27.4431  -16.4564 C   0  0  0  0  0  0  0  0  0  0  0  0
   24.6802  -27.9137  -18.1151 S   0  0  0  0  0  0  0  0  0  0  0  0
   25.1876  -26.4452  -19.0383 C   0  0  0  0  0  0  0  0  0  0  0  0
   24.9333  -25.1787  -18.2342 C   0  0  0  0  0  0  0  0  0  0  0  0
   25.2657  -23.9452  -19.0550 C   0  0  2  0  0  0  0  0  0  0  0  0
   26.4718  -24.1458  -19.8196 N   0  0  0  0  0  0  0  0  0  0  0  0
   25.4026  -22.7936  -18.1138 C   0  0  0  0  0  0  0  0  0  0  0  0
   26.4689  -22.1156  -18.1716 O   0  0  0  0  0  0  0  0  0  0  0  0
   24.3543  -22.5264  -17.2248 N   0  0  0  0  0  0  0  0  0  0  0  0
   24.3275  -21.3054  -16.4720 C   0  0  1  0  0  0  0  0  0  0  0  0
   22.9986  -20.5629  -16.6695 C   0  0  0  0  0  0  0  0  0  0  0  0
   22.6772  -20.2449  -18.4038 S   0  0  0  0  0  0  0  0  0  0  0  0
   24.4019  -21.5751  -14.9953 C   0  0  0  0  0  0  0  0  0  0  0  0
   23.5567  -22.3435  -14.4753 O   0  0  0  0  0  0  0  0  0  0  0  0
   26.3154  -20.2202   -6.5340 O   0  0  0  0  0  0  0  0  0  0  0  0
   26.3951  -20.2769   -7.9059 C   0  0  0  0  0  0  0  0  0  0  0  0
   25.9028  -19.1978   -8.6154 C   0  0  0  0  0  0  0  0  0  0  0  0
   25.9644  -19.2163   -9.9928 C   0  0  0  0  0  0  0  0  0  0  0  0
   26.5095  -20.2936  -10.6874 C   0  0  0  0  0  0  0  0  0  0  0  0
   26.5328  -20.2726  -12.1501 C   0  0  0  0  0  0  0  0  0  0  0  0
   25.3700  -21.0440  -12.7246 C   0  0  2  0  0  0  0  0  0  0  0  0
   25.3931  -20.9895  -14.1819 N   0  0  0  0  0  0  0  0  0  0  0  0
   24.0657  -20.5583  -12.2503 C   0  0  0  0  0  0  0  0  0  0  0  0
   23.4184  -19.4714  -12.8033 O   0  0  0  0  0  0  0  0  0  0  0  0
   27.0016  -21.3715   -9.9894 C   0  0  0  0  0  0  0  0  0  0  0  0
   26.9287  -21.3298   -8.6106 C   0  0  0  0  0  0  0  0  0  0  0  0
   23.4996  -21.1458  -11.2975 O   0  0  0  0  0  0  0  0  0  0  0  0
  2  1  1  0
  3  2  1  0
  4  5  1  0
  4  3  1  0
  5  6  1  1
  7  8  2  0
  7  5  1  0
  9  7  1  0
 10  9  1  0
 10 11  1  1
 12 11  1  0
 13 14  2  0
 13 10  1  0
 16 15  1  0
 17 16  2  0
 18 17  1  0
 19 25  1  0
 19 18  2  0
 20 19  1  0
 21 22  1  0
 21 20  1  1
 22 13  1  0
 23 21  1  0
 24 23  1  0
 25 26  2  0
 26 16  1  0
 27 23  2  0
M  END
$$$$
