DQN.pdb
     RDKit          3D

 26 25  0  0  1  0  0  0  0  0999 V2000
   27.7999  -21.4347  -16.0985 N   0  0  0  0  0  0  0  0  0  0  0  0
   27.0728  -20.3795  -15.4435 C   0  0  1  0  0  0  0  0  0  0  0  0
   26.5877  -19.4310  -16.5187 C   0  0  0  0  0  0  0  0  0  0  0  0
   27.7557  -18.7199  -17.0967 C   0  0  0  0  0  0  0  0  0  0  0  0
   28.2295  -19.0665  -18.2058 O   0  0  0  0  0  0  0  0  0  0  0  0
   25.9416  -20.9636  -14.6803 C   0  0  0  0  0  0  0  0  0  0  0  0
   25.4222  -22.0210  -15.0964 O   0  0  0  0  0  0  0  0  0  0  0  0
   28.3593  -17.6592  -16.4411 O   0  0  0  0  0  0  0  0  0  0  0  0
   25.4644  -20.5035   -8.5629 N   0  0  0  0  0  0  0  0  0  0  0  0
   26.3997  -21.0989   -9.4488 C   0  0  0  0  0  0  0  0  0  0  0  0
   27.5102  -21.4539   -9.0065 O   0  0  0  0  0  0  0  0  0  0  0  0
   26.0380  -21.2779  -10.8482 C   0  0  0  0  0  0  0  0  0  0  0  0
   24.7198  -20.7361  -11.2723 C   0  0  0  0  0  0  0  0  0  0  0  0
   24.3977  -20.8783  -12.7327 C   0  0  2  0  0  0  0  0  0  0  0  0
   25.4779  -20.3165  -13.5061 N   0  0  0  0  0  0  0  0  0  0  0  0
   23.1232  -20.3262  -13.1616 C   0  0  0  0  0  0  0  0  0  0  0  0
   22.9460  -19.1186  -13.5032 O   0  0  0  0  0  0  0  0  0  0  0  0
   19.3458  -18.3836  -15.9046 N   0  0  0  0  0  0  0  0  0  0  0  0
   19.6374  -19.7918  -15.7966 C   0  0  0  0  0  0  0  0  0  0  0  0
   18.7686  -20.6079  -16.2261 O   0  0  0  0  0  0  0  0  0  0  0  0
   20.8937  -20.2428  -15.2104 C   0  0  0  0  0  0  0  0  0  0  0  0
   20.7123  -20.6702  -13.7969 C   0  0  2  0  0  0  0  0  0  0  0  0
   21.9746  -21.1539  -13.2167 N   0  0  0  0  0  0  0  0  0  0  0  0
   19.6648  -21.7081  -13.6816 C   0  0  0  0  0  0  0  0  0  0  0  0
   18.3480  -21.3048  -13.3876 O   0  0  0  0  0  0  0  0  0  0  0  0
   19.8905  -22.9291  -13.8325 O   0  0  0  0  0  0  0  0  0  0  0  0
  2  1  1  6
  2  3  1  0
  4  3  1  0
  4  8  1  0
  5  4  2  0
  6  7  2  0
  6  2  1  0
  9 10  1  0
 10 12  1  0
 11 10  2  0
 12 13  1  0
 14 13  1  1
 14 15  1  0
 15  6  1  0
 16 14  1  0
 17 16  2  0
 19 20  2  0
 19 18  1  0
 21 19  1  0
 22 21  1  6
 22 23  1  0
 23 16  1  0
 24 22  1  0
 25 24  1  0
 26 24  2  0
M  END
$$$$
