DQN.pdb
     RDKit          3D

 26 25  0  0  1  0  0  0  0  0999 V2000
   17.1343   -9.6684  -14.8200 N   0  0  0  0  0  0  0  0  0  0  0  0
   16.8188  -10.5793  -13.7514 C   0  0  1  0  0  0  0  0  0  0  0  0
   17.6649  -11.8185  -13.9504 C   0  0  0  0  0  0  0  0  0  0  0  0
   17.0390  -12.6665  -14.9960 C   0  0  0  0  0  0  0  0  0  0  0  0
   15.7903  -12.7485  -15.0887 O   0  0  0  0  0  0  0  0  0  0  0  0
   17.1053   -9.9263  -12.4496 C   0  0  0  0  0  0  0  0  0  0  0  0
   16.8916  -10.5678  -11.3989 O   0  0  0  0  0  0  0  0  0  0  0  0
   17.8012  -13.3908  -15.8981 O   0  0  0  0  0  0  0  0  0  0  0  0
   21.8525   -6.2532  -11.5567 N   0  0  0  0  0  0  0  0  0  0  0  0
   20.7950   -5.6713  -12.3033 C   0  0  0  0  0  0  0  0  0  0  0  0
   21.0413   -4.6984  -13.0432 O   0  0  0  0  0  0  0  0  0  0  0  0
   19.4531   -6.2249  -12.1842 C   0  0  0  0  0  0  0  0  0  0  0  0
   19.2792   -7.3577  -11.2369 C   0  0  0  0  0  0  0  0  0  0  0  0
   17.8981   -7.9453  -11.1725 C   0  0  2  0  0  0  0  0  0  0  0  0
   17.6106   -8.6010  -12.4247 N   0  0  0  0  0  0  0  0  0  0  0  0
   16.8289   -7.0248  -10.8222 C   0  0  0  0  0  0  0  0  0  0  0  0
   16.0886   -6.4350  -11.6651 O   0  0  0  0  0  0  0  0  0  0  0  0
   13.6709   -3.9388   -8.2287 N   0  0  0  0  0  0  0  0  0  0  0  0
   13.9719   -5.0477   -7.3573 C   0  0  0  0  0  0  0  0  0  0  0  0
   13.3514   -5.1156   -6.2547 O   0  0  0  0  0  0  0  0  0  0  0  0
   14.9591   -6.0468   -7.7478 C   0  0  0  0  0  0  0  0  0  0  0  0
   15.5485   -5.7383   -9.0787 C   0  0  2  0  0  0  0  0  0  0  0  0
   16.5596   -6.7359   -9.4616 N   0  0  0  0  0  0  0  0  0  0  0  0
   16.1340   -4.3802   -9.1032 C   0  0  0  0  0  0  0  0  0  0  0  0
   15.3114   -3.3000   -9.4767 O   0  0  0  0  0  0  0  0  0  0  0  0
   17.3261   -4.1426   -8.8081 O   0  0  0  0  0  0  0  0  0  0  0  0
  2  1  1  6
  2  3  1  0
  4  3  1  0
  4  8  1  0
  5  4  2  0
  6  7  2  0
  6  2  1  0
  9 10  1  0
 10 12  1  0
 11 10  2  0
 12 13  1  0
 14 13  1  6
 14 15  1  0
 15  6  1  0
 16 14  1  0
 17 16  2  0
 19 20  2  0
 19 18  1  0
 21 19  1  0
 22 21  1  1
 22 23  1  0
 23 16  1  0
 24 22  1  0
 25 24  1  0
 26 24  2  0
M  END
$$$$
