DQN.pdb
     RDKit          3D

 26 25  0  0  1  0  0  0  0  0999 V2000
   27.8210  -20.0768  -15.9279 N   0  0  0  0  0  0  0  0  0  0  0  0
   26.5513  -20.1864  -16.5967 C   0  0  1  0  0  0  0  0  0  0  0  0
   26.7512  -21.0821  -17.8003 C   0  0  0  0  0  0  0  0  0  0  0  0
   27.6524  -20.4008  -18.7635 C   0  0  0  0  0  0  0  0  0  0  0  0
   27.8783  -19.1703  -18.6662 O   0  0  0  0  0  0  0  0  0  0  0  0
   25.5493  -20.7498  -15.6576 C   0  0  0  0  0  0  0  0  0  0  0  0
   24.6044  -21.4215  -16.1235 O   0  0  0  0  0  0  0  0  0  0  0  0
   28.2707  -21.0900  -19.7941 O   0  0  0  0  0  0  0  0  0  0  0  0
   26.0022  -20.4958   -9.2666 N   0  0  0  0  0  0  0  0  0  0  0  0
   24.6967  -21.0043   -9.4928 C   0  0  0  0  0  0  0  0  0  0  0  0
   23.9756  -21.2768   -8.5126 O   0  0  0  0  0  0  0  0  0  0  0  0
   24.2358  -21.1945  -10.8612 C   0  0  0  0  0  0  0  0  0  0  0  0
   25.1995  -20.8610  -11.9434 C   0  0  0  0  0  0  0  0  0  0  0  0
   24.6620  -20.9513  -13.3433 C   0  0  2  0  0  0  0  0  0  0  0  0
   25.6833  -20.5169  -14.2647 N   0  0  0  0  0  0  0  0  0  0  0  0
   23.4158  -20.2465  -13.5948 C   0  0  0  0  0  0  0  0  0  0  0  0
   23.3410  -19.0374  -13.9672 O   0  0  0  0  0  0  0  0  0  0  0  0
   18.5982  -19.1396  -14.7408 N   0  0  0  0  0  0  0  0  0  0  0  0
   19.6671  -19.3215  -15.6917 C   0  0  0  0  0  0  0  0  0  0  0  0
   19.4709  -18.9293  -16.8805 O   0  0  0  0  0  0  0  0  0  0  0  0
   20.9232  -19.9375  -15.2818 C   0  0  0  0  0  0  0  0  0  0  0  0
   20.9109  -20.2882  -13.8359 C   0  0  2  0  0  0  0  0  0  0  0  0
   22.1774  -20.9136  -13.4250 N   0  0  0  0  0  0  0  0  0  0  0  0
   19.7725  -21.1744  -13.5095 C   0  0  0  0  0  0  0  0  0  0  0  0
   18.6236  -20.6062  -12.9263 O   0  0  0  0  0  0  0  0  0  0  0  0
   19.7793  -22.4064  -13.7261 O   0  0  0  0  0  0  0  0  0  0  0  0
  2  1  1  1
  2  3  1  0
  4  3  1  0
  4  8  1  0
  5  4  2  0
  6  7  2  0
  6  2  1  0
  9 10  1  0
 10 12  1  0
 11 10  2  0
 12 13  1  0
 14 13  1  1
 14 15  1  0
 15  6  1  0
 16 14  1  0
 17 16  2  0
 19 20  2  0
 19 18  1  0
 21 19  1  0
 22 21  1  6
 22 23  1  0
 23 16  1  0
 24 22  1  0
 25 24  1  0
 26 24  2  0
M  END
$$$$
