DQN.pdb
     RDKit          3D

 26 25  0  0  1  0  0  0  0  0999 V2000
   13.7154  -12.7972  -14.4923 N   0  0  0  0  0  0  0  0  0  0  0  0
   14.0316  -11.3999  -14.3544 C   0  0  1  0  0  0  0  0  0  0  0  0
   13.5091  -10.9501  -13.0069 C   0  0  0  0  0  0  0  0  0  0  0  0
   12.0250  -10.9371  -13.0454 C   0  0  0  0  0  0  0  0  0  0  0  0
   11.4162  -10.5248  -14.0624 O   0  0  0  0  0  0  0  0  0  0  0  0
   15.5009  -11.2169  -14.4587 C   0  0  0  0  0  0  0  0  0  0  0  0
   16.2477  -12.0245  -13.8661 O   0  0  0  0  0  0  0  0  0  0  0  0
   11.2654  -11.3745  -11.9726 O   0  0  0  0  0  0  0  0  0  0  0  0
   18.3926  -11.1036  -19.5345 N   0  0  0  0  0  0  0  0  0  0  0  0
   19.4492  -10.6916  -18.6813 C   0  0  0  0  0  0  0  0  0  0  0  0
   20.6124  -10.6633  -19.1296 O   0  0  0  0  0  0  0  0  0  0  0  0
   19.1467  -10.3147  -17.3073 C   0  0  0  0  0  0  0  0  0  0  0  0
   17.7200  -10.3838  -16.8941 C   0  0  0  0  0  0  0  0  0  0  0  0
   17.4398  -10.0263  -15.4621 C   0  0  2  0  0  0  0  0  0  0  0  0
   16.0222  -10.1402  -15.2211 N   0  0  0  0  0  0  0  0  0  0  0  0
   17.9292   -8.7307  -15.0205 C   0  0  0  0  0  0  0  0  0  0  0  0
   17.2592   -7.6564  -15.0769 O   0  0  0  0  0  0  0  0  0  0  0  0
   20.9255   -4.9393  -13.3217 N   0  0  0  0  0  0  0  0  0  0  0  0
   21.6686   -6.1499  -13.0723 C   0  0  0  0  0  0  0  0  0  0  0  0
   22.7899   -6.0437  -12.4921 O   0  0  0  0  0  0  0  0  0  0  0  0
   21.1326   -7.4426  -13.4808 C   0  0  0  0  0  0  0  0  0  0  0  0
   19.7799   -7.3046  -14.0849 C   0  0  2  0  0  0  0  0  0  0  0  0
   19.2357   -8.6112  -14.4855 N   0  0  0  0  0  0  0  0  0  0  0  0
   19.8015   -6.3825  -15.2413 C   0  0  0  0  0  0  0  0  0  0  0  0
   19.4003   -5.0472  -15.0442 O   0  0  0  0  0  0  0  0  0  0  0  0
   20.1592   -6.7303  -16.3884 O   0  0  0  0  0  0  0  0  0  0  0  0
  2  1  1  1
  2  3  1  0
  4  3  1  0
  4  8  1  0
  5  4  2  0
  6  7  2  0
  6  2  1  0
  9 10  1  0
 10 12  1  0
 11 10  2  0
 12 13  1  0
 14 13  1  6
 14 15  1  0
 15  6  1  0
 16 14  1  0
 17 16  2  0
 19 20  2  0
 19 18  1  0
 21 19  1  0
 22 21  1  6
 22 23  1  0
 23 16  1  0
 24 22  1  0
 25 24  1  0
 26 24  2  0
M  END
$$$$
