DQN.pdb
     RDKit          3D

 26 25  0  0  1  0  0  0  0  0999 V2000
   16.6584  -13.0764  -15.5264 N   0  0  0  0  0  0  0  0  0  0  0  0
   16.3427  -11.6723  -15.5127 C   0  0  1  0  0  0  0  0  0  0  0  0
   15.8027  -11.3448  -14.1372 C   0  0  0  0  0  0  0  0  0  0  0  0
   14.4858  -12.0086  -13.9658 C   0  0  0  0  0  0  0  0  0  0  0  0
   13.4517  -11.3303  -13.7531 O   0  0  0  0  0  0  0  0  0  0  0  0
   17.5673  -10.8912  -15.8184 C   0  0  0  0  0  0  0  0  0  0  0  0
   18.6701  -11.3320  -15.4303 O   0  0  0  0  0  0  0  0  0  0  0  0
   14.3507  -13.3857  -14.0336 O   0  0  0  0  0  0  0  0  0  0  0  0
   18.1644   -7.0749  -20.7726 N   0  0  0  0  0  0  0  0  0  0  0  0
   19.4216   -6.9666  -20.1229 C   0  0  0  0  0  0  0  0  0  0  0  0
   20.3510   -6.3685  -20.7002 O   0  0  0  0  0  0  0  0  0  0  0  0
   19.5918   -7.5569  -18.8024 C   0  0  0  0  0  0  0  0  0  0  0  0
   18.4392   -8.3238  -18.2596 C   0  0  0  0  0  0  0  0  0  0  0  0
   18.6421   -8.9259  -16.8983 C   0  0  2  0  0  0  0  0  0  0  0  0
   17.4621   -9.6728  -16.5373 N   0  0  0  0  0  0  0  0  0  0  0  0
   19.0025   -7.9990  -15.8380 C   0  0  0  0  0  0  0  0  0  0  0  0
   18.1665   -7.3414  -15.1487 O   0  0  0  0  0  0  0  0  0  0  0  0
   21.4243   -5.1848  -12.3869 N   0  0  0  0  0  0  0  0  0  0  0  0
   21.8028   -6.5728  -12.2883 C   0  0  0  0  0  0  0  0  0  0  0  0
   22.4006   -6.9470  -11.2356 O   0  0  0  0  0  0  0  0  0  0  0  0
   21.5000   -7.4995  -13.3722 C   0  0  0  0  0  0  0  0  0  0  0  0
   20.7625   -6.8253  -14.4745 C   0  0  2  0  0  0  0  0  0  0  0  0
   20.3658   -7.7827  -15.5185 N   0  0  0  0  0  0  0  0  0  0  0  0
   21.5631   -5.7292  -15.0624 C   0  0  0  0  0  0  0  0  0  0  0  0
   21.6576   -4.5133  -14.3585 O   0  0  0  0  0  0  0  0  0  0  0  0
   22.1619   -5.8286  -16.1561 O   0  0  0  0  0  0  0  0  0  0  0  0
  2  1  1  1
  2  3  1  0
  4  3  1  0
  4  8  1  0
  5  4  2  0
  6  7  2  0
  6  2  1  0
  9 10  1  0
 10 12  1  0
 11 10  2  0
 12 13  1  0
 14 13  1  6
 14 15  1  0
 15  6  1  0
 16 14  1  0
 17 16  2  0
 19 20  2  0
 19 18  1  0
 21 19  1  0
 22 21  1  1
 22 23  1  0
 23 16  1  0
 24 22  1  0
 25 24  1  0
 26 24  2  0
M  END
$$$$
