DQN.pdb
     RDKit          3D

 26 25  0  0  1  0  0  0  0  0999 V2000
   27.8119  -20.6633  -15.5875 N   0  0  0  0  0  0  0  0  0  0  0  0
   26.9087  -21.6656  -16.0883 C   0  0  1  0  0  0  0  0  0  0  0  0
   27.7017  -22.9437  -16.2570 C   0  0  0  0  0  0  0  0  0  0  0  0
   28.8333  -22.6900  -17.1840 C   0  0  0  0  0  0  0  0  0  0  0  0
   28.9593  -21.5761  -17.7480 O   0  0  0  0  0  0  0  0  0  0  0  0
   25.7894  -21.8405  -15.1292 C   0  0  0  0  0  0  0  0  0  0  0  0
   24.8997  -22.6767  -15.3944 O   0  0  0  0  0  0  0  0  0  0  0  0
   29.7817  -23.6620  -17.4578 O   0  0  0  0  0  0  0  0  0  0  0  0
   26.0716  -20.4343   -8.9739 N   0  0  0  0  0  0  0  0  0  0  0  0
   24.7516  -20.9260   -9.1473 C   0  0  0  0  0  0  0  0  0  0  0  0
   24.0485  -21.1390   -8.1398 O   0  0  0  0  0  0  0  0  0  0  0  0
   24.2554  -21.1689  -10.4949 C   0  0  0  0  0  0  0  0  0  0  0  0
   25.2295  -21.0018  -11.6059 C   0  0  0  0  0  0  0  0  0  0  0  0
   24.6846  -21.2263  -12.9877 C   0  0  2  0  0  0  0  0  0  0  0  0
   25.7527  -21.0629  -13.9433 N   0  0  0  0  0  0  0  0  0  0  0  0
   23.5383  -20.4141  -13.3611 C   0  0  0  0  0  0  0  0  0  0  0  0
   23.6055  -19.1931  -13.6944 O   0  0  0  0  0  0  0  0  0  0  0  0
   19.0693  -19.1099  -15.4033 N   0  0  0  0  0  0  0  0  0  0  0  0
   20.3062  -19.3343  -16.1101 C   0  0  0  0  0  0  0  0  0  0  0  0
   20.3835  -18.9247  -17.3066 O   0  0  0  0  0  0  0  0  0  0  0  0
   21.4188  -20.0108  -15.4546 C   0  0  0  0  0  0  0  0  0  0  0  0
   21.1140  -20.3026  -14.0279 C   0  0  2  0  0  0  0  0  0  0  0  0
   22.2397  -20.9806  -13.3669 N   0  0  0  0  0  0  0  0  0  0  0  0
   19.8819  -21.1106  -13.8981 C   0  0  0  0  0  0  0  0  0  0  0  0
   18.6479  -20.5108  -14.2149 O   0  0  0  0  0  0  0  0  0  0  0  0
   19.8811  -22.3030  -13.5201 O   0  0  0  0  0  0  0  0  0  0  0  0
  2  1  1  1
  2  3  1  0
  4  3  1  0
  4  8  1  0
  5  4  2  0
  6  7  2  0
  6  2  1  0
  9 10  1  0
 10 12  1  0
 11 10  2  0
 12 13  1  0
 14 13  1  1
 14 15  1  0
 15  6  1  0
 16 14  1  0
 17 16  2  0
 19 20  2  0
 19 18  1  0
 21 19  1  0
 22 21  1  6
 22 23  1  0
 23 16  1  0
 24 22  1  0
 25 24  1  0
 26 24  2  0
M  END
$$$$
