DQN.pdb
     RDKit          3D

 26 25  0  0  1  0  0  0  0  0999 V2000
   25.9872  -20.7010  -14.6564 N   0  0  0  0  0  0  0  0  0  0  0  0
   26.1448  -19.3409  -15.0999 C   0  0  1  0  0  0  0  0  0  0  0  0
   27.5114  -19.2311  -15.7412 C   0  0  0  0  0  0  0  0  0  0  0  0
   27.6380  -20.2764  -16.7879 C   0  0  0  0  0  0  0  0  0  0  0  0
   26.7117  -21.1003  -16.9829 O   0  0  0  0  0  0  0  0  0  0  0  0
   25.0629  -19.0098  -16.0607 C   0  0  0  0  0  0  0  0  0  0  0  0
   25.2027  -19.3430  -17.2568 O   0  0  0  0  0  0  0  0  0  0  0  0
   28.7702  -20.3803  -17.5795 O   0  0  0  0  0  0  0  0  0  0  0  0
   21.5178  -22.3925  -17.3250 N   0  0  0  0  0  0  0  0  0  0  0  0
   20.7054  -21.3283  -17.7958 C   0  0  0  0  0  0  0  0  0  0  0  0
   19.7020  -21.5936  -18.4869 O   0  0  0  0  0  0  0  0  0  0  0  0
   21.0658  -19.9576  -17.4602 C   0  0  0  0  0  0  0  0  0  0  0  0
   22.3117  -19.7684  -16.6709 C   0  0  0  0  0  0  0  0  0  0  0  0
   22.6892  -18.3429  -16.3837 C   0  0  2  0  0  0  0  0  0  0  0  0
   23.9042  -18.3291  -15.6065 N   0  0  0  0  0  0  0  0  0  0  0  0
   21.6675  -17.5284  -15.7466 C   0  0  0  0  0  0  0  0  0  0  0  0
   21.3798  -17.5783  -14.5133 O   0  0  0  0  0  0  0  0  0  0  0  0
   17.9708  -14.1700  -14.7576 N   0  0  0  0  0  0  0  0  0  0  0  0
   19.1755  -13.5478  -15.2490 C   0  0  0  0  0  0  0  0  0  0  0  0
   19.2763  -12.2897  -15.1375 O   0  0  0  0  0  0  0  0  0  0  0  0
   20.2305  -14.3543  -15.8505 C   0  0  0  0  0  0  0  0  0  0  0  0
   19.8523  -15.7922  -15.9050 C   0  0  2  0  0  0  0  0  0  0  0  0
   20.9170  -16.6040  -16.5145 N   0  0  0  0  0  0  0  0  0  0  0  0
   18.5804  -15.9841  -16.6353 C   0  0  0  0  0  0  0  0  0  0  0  0
   17.3782  -15.9890  -15.9021 O   0  0  0  0  0  0  0  0  0  0  0  0
   18.5190  -16.1425  -17.8745 O   0  0  0  0  0  0  0  0  0  0  0  0
  2  1  1  6
  2  3  1  0
  4  3  1  0
  4  8  1  0
  5  4  2  0
  6  7  2  0
  6  2  1  0
  9 10  1  0
 10 12  1  0
 11 10  2  0
 12 13  1  0
 14 13  1  1
 14 15  1  0
 15  6  1  0
 16 14  1  0
 17 16  2  0
 19 20  2  0
 19 18  1  0
 21 19  1  0
 22 21  1  6
 22 23  1  0
 23 16  1  0
 24 22  1  0
 25 24  1  0
 26 24  2  0
M  END
$$$$
