DQN.pdb
     RDKit          3D

 26 25  0  0  1  0  0  0  0  0999 V2000
   18.1562  -24.8541   -9.3204 N   0  0  0  0  0  0  0  0  0  0  0  0
   18.4837  -24.8063  -10.7210 C   0  0  1  0  0  0  0  0  0  0  0  0
   17.3572  -25.4841  -11.4710 C   0  0  0  0  0  0  0  0  0  0  0  0
   17.3683  -26.9337  -11.1503 C   0  0  0  0  0  0  0  0  0  0  0  0
   16.4887  -27.4295  -10.4051 O   0  0  0  0  0  0  0  0  0  0  0  0
   18.6438  -23.3911  -11.1392 C   0  0  0  0  0  0  0  0  0  0  0  0
   17.9311  -22.5220  -10.5936 O   0  0  0  0  0  0  0  0  0  0  0  0
   18.3387  -27.7834  -11.6557 O   0  0  0  0  0  0  0  0  0  0  0  0
   23.7082  -20.9887  -14.1096 N   0  0  0  0  0  0  0  0  0  0  0  0
   22.7469  -19.9517  -14.2307 C   0  0  0  0  0  0  0  0  0  0  0  0
   23.0694  -18.8921  -14.8035 O   0  0  0  0  0  0  0  0  0  0  0  0
   21.4125  -20.1527  -13.6828 C   0  0  0  0  0  0  0  0  0  0  0  0
   21.1386  -21.4741  -13.0585 C   0  0  0  0  0  0  0  0  0  0  0  0
   19.7233  -21.6994  -12.6076 C   0  0  2  0  0  0  0  0  0  0  0  0
   19.5928  -23.0574  -12.1394 N   0  0  0  0  0  0  0  0  0  0  0  0
   18.6876  -21.3942  -13.5809 C   0  0  0  0  0  0  0  0  0  0  0  0
   18.3711  -22.1492  -14.5484 O   0  0  0  0  0  0  0  0  0  0  0  0
   14.8132  -17.1085  -15.4218 N   0  0  0  0  0  0  0  0  0  0  0  0
   14.9732  -18.4504  -14.9186 C   0  0  0  0  0  0  0  0  0  0  0  0
   14.1683  -19.3357  -15.3358 O   0  0  0  0  0  0  0  0  0  0  0  0
   16.0300  -18.7597  -13.9633 C   0  0  0  0  0  0  0  0  0  0  0  0
   16.9269  -19.8322  -14.4723 C   0  0  2  0  0  0  0  0  0  0  0  0
   17.9571  -20.1842  -13.4829 N   0  0  0  0  0  0  0  0  0  0  0  0
   17.5580  -19.4403  -15.7514 C   0  0  0  0  0  0  0  0  0  0  0  0
   17.0147  -19.9406  -16.9503 O   0  0  0  0  0  0  0  0  0  0  0  0
   18.5524  -18.6848  -15.8216 O   0  0  0  0  0  0  0  0  0  0  0  0
  2  1  1  1
  2  3  1  0
  4  3  1  0
  4  8  1  0
  5  4  2  0
  6  7  2  0
  6  2  1  0
  9 10  1  0
 10 12  1  0
 11 10  2  0
 12 13  1  0
 14 13  1  6
 14 15  1  0
 15  6  1  0
 16 14  1  0
 17 16  2  0
 19 20  2  0
 19 18  1  0
 21 19  1  0
 22 21  1  1
 22 23  1  0
 23 16  1  0
 24 22  1  0
 25 24  1  0
 26 24  2  0
M  END
$$$$
