DQN.pdb
     RDKit          3D

 26 25  0  0  1  0  0  0  0  0999 V2000
   21.0648  -13.2568  -18.9793 N   0  0  0  0  0  0  0  0  0  0  0  0
   21.6962  -12.3450  -18.0620 C   0  0  1  0  0  0  0  0  0  0  0  0
   23.1342  -12.1826  -18.5055 C   0  0  0  0  0  0  0  0  0  0  0  0
   23.8743  -13.4350  -18.2092 C   0  0  0  0  0  0  0  0  0  0  0  0
   23.9859  -14.3319  -19.0797 O   0  0  0  0  0  0  0  0  0  0  0  0
   20.9702  -11.0504  -18.0796 C   0  0  0  0  0  0  0  0  0  0  0  0
   20.7761  -10.4885  -19.1785 O   0  0  0  0  0  0  0  0  0  0  0  0
   24.4626  -13.6580  -16.9749 O   0  0  0  0  0  0  0  0  0  0  0  0
   17.3265  -12.1547  -16.7109 N   0  0  0  0  0  0  0  0  0  0  0  0
   17.4291  -11.5217  -15.4448 C   0  0  0  0  0  0  0  0  0  0  0  0
   17.0506  -12.1372  -14.4286 O   0  0  0  0  0  0  0  0  0  0  0  0
   17.9721  -10.1724  -15.3673 C   0  0  0  0  0  0  0  0  0  0  0  0
   18.3311   -9.5216  -16.6551 C   0  0  0  0  0  0  0  0  0  0  0  0
   19.7925   -9.2354  -16.8538 C   0  0  2  0  0  0  0  0  0  0  0  0
   20.5160  -10.4832  -16.8612 N   0  0  0  0  0  0  0  0  0  0  0  0
   20.3936   -8.3035  -15.9139 C   0  0  0  0  0  0  0  0  0  0  0  0
   21.3887   -8.5736  -15.1770 O   0  0  0  0  0  0  0  0  0  0  0  0
   21.7928   -4.3101  -13.1701 N   0  0  0  0  0  0  0  0  0  0  0  0
   22.5290   -4.8300  -14.2958 C   0  0  0  0  0  0  0  0  0  0  0  0
   23.7092   -4.4050  -14.4748 O   0  0  0  0  0  0  0  0  0  0  0  0
   21.9205   -5.8104  -15.1869 C   0  0  0  0  0  0  0  0  0  0  0  0
   20.4816   -6.0157  -14.8687 C   0  0  2  0  0  0  0  0  0  0  0  0
   19.8662   -6.9957  -15.7769 N   0  0  0  0  0  0  0  0  0  0  0  0
   19.7362   -4.7389  -14.9118 C   0  0  0  0  0  0  0  0  0  0  0  0
   19.8474   -3.8581  -13.8187 O   0  0  0  0  0  0  0  0  0  0  0  0
   19.0104   -4.4013  -15.8729 O   0  0  0  0  0  0  0  0  0  0  0  0
  2  1  1  6
  2  3  1  0
  4  3  1  0
  4  8  1  0
  5  4  2  0
  6  7  2  0
  6  2  1  0
  9 10  1  0
 10 12  1  0
 11 10  2  0
 12 13  1  0
 14 13  1  1
 14 15  1  0
 15  6  1  0
 16 14  1  0
 17 16  2  0
 19 20  2  0
 19 18  1  0
 21 19  1  0
 22 21  1  6
 22 23  1  0
 23 16  1  0
 24 22  1  0
 25 24  1  0
 26 24  2  0
M  END
$$$$
