GKW.pdb
     RDKit          3D

 28 29  0  0  1  0  0  0  0  0999 V2000
    6.7053  -20.6754   22.9704 N   0  0  0  0  0  0  0  0  0  0  0  0
    6.1968  -19.3158   23.0771 C   0  0  0  0  0  0  0  0  0  0  0  0
    7.2138  -18.3604   22.4931 C   0  0  0  0  0  0  0  0  0  0  0  0
    8.3495  -18.7669   22.1472 O   0  0  0  0  0  0  0  0  0  0  0  0
    6.9132  -16.9937   22.3229 N   0  0  0  0  0  0  0  0  0  0  0  0
    7.9972  -16.0994   21.8814 C   0  0  1  0  0  0  0  0  0  0  0  0
    7.2931  -14.9537   21.2075 C   0  0  0  0  0  0  0  0  0  0  0  0
    8.1928  -14.0511   20.4543 C   0  0  0  0  0  0  0  0  0  0  0  0
    7.5051  -13.5313   19.1962 C   0  0  0  0  0  0  0  0  0  0  0  0
    8.5243  -12.6649   18.4676 C   0  0  0  0  0  0  0  0  0  0  0  0
    7.9665  -12.2156   17.2291 N   0  0  0  0  0  0  0  0  0  0  0  0
    8.7444  -15.6029   23.0708 C   0  0  0  0  0  0  0  0  0  0  0  0
    8.9832  -14.3798   23.1217 O   0  0  0  0  0  0  0  0  0  0  0  0
    9.1718  -16.4717   24.1078 N   0  0  0  0  0  0  0  0  0  0  0  0
    9.9531  -15.9696   25.1954 C   0  0  1  0  0  0  0  0  0  0  0  0
    9.2515  -15.8987   26.5040 C   0  0  0  0  0  0  0  0  0  0  0  0
    7.9089  -15.3004   26.4059 C   0  0  0  0  0  0  0  0  0  0  0  0
    6.7211  -15.9116   26.2023 C   0  0  0  0  0  0  0  0  0  0  0  0
    5.7380  -14.9620   26.1774 N   0  0  0  0  0  0  0  0  0  0  0  0
    6.2785  -13.7594   26.3614 C   0  0  0  0  0  0  0  0  0  0  0  0
    5.7471  -12.4865   26.4216 C   0  0  0  0  0  0  0  0  0  0  0  0
    6.5997  -11.4119   26.6290 C   0  0  0  0  0  0  0  0  0  0  0  0
    7.9553  -11.6096   26.7728 C   0  0  0  0  0  0  0  0  0  0  0  0
    8.4984  -12.8791   26.7146 C   0  0  0  0  0  0  0  0  0  0  0  0
    7.6294  -13.9357   26.5069 C   0  0  0  0  0  0  0  0  0  0  0  0
   11.1017  -16.9379   25.3847 C   0  0  0  0  0  0  0  0  0  0  0  0
   11.1689  -18.1084   24.6265 O   0  0  0  0  0  0  0  0  0  0  0  0
   12.0203  -16.7376   26.2093 O   0  0  0  0  0  0  0  0  0  0  0  0
  1  2  1  0
  2  3  1  0
  3  4  2  0
  5  6  1  0
  5  3  1  0
  6  7  1  1
  8  7  1  0
  9  8  1  0
 10  9  1  0
 11 10  1  0
 12  6  1  0
 12 13  2  0
 14 12  1  0
 15 14  1  0
 15 26  1  0
 15 16  1  1
 17 16  1  0
 18 17  2  0
 19 20  1  0
 19 18  1  0
 20 25  2  0
 21 20  1  0
 21 22  2  0
 22 23  1  0
 23 24  2  0
 25 17  1  0
 25 24  1  0
 26 28  2  0
 26 27  1  0
M  END
$$$$
