GKW.pdb
     RDKit          3D

 28 29  0  0  1  0  0  0  0  0999 V2000
    7.6188  -12.1773   18.9824 N   0  0  0  0  0  0  0  0  0  0  0  0
    8.5806  -13.2610   18.8433 C   0  0  0  0  0  0  0  0  0  0  0  0
    8.3899  -14.2401   19.9804 C   0  0  0  0  0  0  0  0  0  0  0  0
    7.9265  -13.8591   21.0826 O   0  0  0  0  0  0  0  0  0  0  0  0
    8.7266  -15.6009   19.8319 N   0  0  0  0  0  0  0  0  0  0  0  0
    8.3754  -16.5212   20.9271 C   0  0  1  0  0  0  0  0  0  0  0  0
    8.4870  -17.8930   20.3203 C   0  0  0  0  0  0  0  0  0  0  0  0
    8.1873  -18.9958   21.2615 C   0  0  0  0  0  0  0  0  0  0  0  0
    8.2235  -20.3413   20.5445 C   0  0  0  0  0  0  0  0  0  0  0  0
    7.8742  -21.3993   21.5833 C   0  0  0  0  0  0  0  0  0  0  0  0
    7.8585  -22.6879   20.9617 N   0  0  0  0  0  0  0  0  0  0  0  0
    9.3645  -16.3763   22.0317 C   0  0  0  0  0  0  0  0  0  0  0  0
   10.5632  -16.2565   21.7088 O   0  0  0  0  0  0  0  0  0  0  0  0
    8.9744  -16.3730   23.3958 N   0  0  0  0  0  0  0  0  0  0  0  0
    9.9314  -16.0918   24.4207 C   0  0  1  0  0  0  0  0  0  0  0  0
    9.7112  -14.8255   25.1675 C   0  0  0  0  0  0  0  0  0  0  0  0
    8.2987  -14.6044   25.5223 C   0  0  0  0  0  0  0  0  0  0  0  0
    7.3004  -15.5084   25.6314 C   0  0  0  0  0  0  0  0  0  0  0  0
    6.1516  -14.8533   25.9780 N   0  0  0  0  0  0  0  0  0  0  0  0
    6.4012  -13.5506   26.0911 C   0  0  0  0  0  0  0  0  0  0  0  0
    5.6115  -12.4641   26.4110 C   0  0  0  0  0  0  0  0  0  0  0  0
    6.1867  -11.2020   26.4432 C   0  0  0  0  0  0  0  0  0  0  0  0
    7.5243  -11.0335   26.1609 C   0  0  0  0  0  0  0  0  0  0  0  0
    8.3245  -12.1136   25.8397 C   0  0  0  0  0  0  0  0  0  0  0  0
    7.7296  -13.3626   25.8136 C   0  0  0  0  0  0  0  0  0  0  0  0
    9.8144  -17.2072   25.4380 C   0  0  0  0  0  0  0  0  0  0  0  0
   10.7672  -17.3411   26.4497 O   0  0  0  0  0  0  0  0  0  0  0  0
    8.8809  -18.0392   25.4184 O   0  0  0  0  0  0  0  0  0  0  0  0
  1  2  1  0
  2  3  1  0
  3  4  2  0
  5  6  1  0
  5  3  1  0
  6  7  1  6
  8  7  1  0
  9  8  1  0
 10  9  1  0
 11 10  1  0
 12  6  1  0
 12 13  2  0
 14 12  1  0
 15 14  1  0
 15 26  1  0
 15 16  1  1
 17 16  1  0
 18 17  2  0
 19 20  1  0
 19 18  1  0
 20 25  2  0
 21 20  1  0
 21 22  2  0
 22 23  1  0
 23 24  2  0
 25 17  1  0
 25 24  1  0
 26 28  2  0
 26 27  1  0
M  END
$$$$
