GKW.pdb
     RDKit          3D

 28 29  0  0  1  0  0  0  0  0999 V2000
    5.7432  -19.2269   20.8913 N   0  0  0  0  0  0  0  0  0  0  0  0
    5.5947  -17.9392   21.5534 C   0  0  0  0  0  0  0  0  0  0  0  0
    6.8524  -17.1261   21.3406 C   0  0  0  0  0  0  0  0  0  0  0  0
    7.8790  -17.6519   20.8464 O   0  0  0  0  0  0  0  0  0  0  0  0
    6.9036  -15.7615   21.6907 N   0  0  0  0  0  0  0  0  0  0  0  0
    8.1746  -15.0452   21.4882 C   0  0  1  0  0  0  0  0  0  0  0  0
    7.7721  -13.7104   20.9235 C   0  0  0  0  0  0  0  0  0  0  0  0
    7.2576  -13.7719   19.5367 C   0  0  0  0  0  0  0  0  0  0  0  0
    8.3391  -13.3641   18.5419 C   0  0  0  0  0  0  0  0  0  0  0  0
    7.7011  -13.4109   17.1595 C   0  0  0  0  0  0  0  0  0  0  0  0
    8.7101  -13.2162   16.1640 N   0  0  0  0  0  0  0  0  0  0  0  0
    8.8498  -14.8540   22.8025 C   0  0  0  0  0  0  0  0  0  0  0  0
    8.9876  -13.6816   23.2051 O   0  0  0  0  0  0  0  0  0  0  0  0
    9.3203  -15.9483   23.5732 N   0  0  0  0  0  0  0  0  0  0  0  0
   10.1086  -15.7214   24.7448 C   0  0  1  0  0  0  0  0  0  0  0  0
    9.4005  -15.9190   26.0368 C   0  0  0  0  0  0  0  0  0  0  0  0
    8.0703  -15.2867   26.0671 C   0  0  0  0  0  0  0  0  0  0  0  0
    6.8690  -15.8239   25.7608 C   0  0  0  0  0  0  0  0  0  0  0  0
    5.9059  -14.8680   25.9270 N   0  0  0  0  0  0  0  0  0  0  0  0
    6.4726  -13.7339   26.3331 C   0  0  0  0  0  0  0  0  0  0  0  0
    5.9684  -12.4858   26.6407 C   0  0  0  0  0  0  0  0  0  0  0  0
    6.8444  -11.4879   27.0424 C   0  0  0  0  0  0  0  0  0  0  0  0
    8.1962  -11.7363   27.1337 C   0  0  0  0  0  0  0  0  0  0  0  0
    8.7123  -12.9815   26.8285 C   0  0  0  0  0  0  0  0  0  0  0  0
    7.8202  -13.9613   26.4301 C   0  0  0  0  0  0  0  0  0  0  0  0
   11.2270  -16.7416   24.7165 C   0  0  0  0  0  0  0  0  0  0  0  0
   12.2235  -16.7223   25.6942 O   0  0  0  0  0  0  0  0  0  0  0  0
   11.3068  -17.6269   23.8367 O   0  0  0  0  0  0  0  0  0  0  0  0
  1  2  1  0
  2  3  1  0
  3  4  2  0
  5  6  1  0
  5  3  1  0
  6  7  1  1
  8  7  1  0
  9  8  1  0
 10  9  1  0
 11 10  1  0
 12  6  1  0
 12 13  2  0
 14 12  1  0
 15 14  1  0
 15 26  1  0
 15 16  1  1
 17 16  1  0
 18 17  2  0
 19 20  1  0
 19 18  1  0
 20 25  2  0
 21 20  1  0
 21 22  2  0
 22 23  1  0
 23 24  2  0
 25 17  1  0
 25 24  1  0
 26 28  2  0
 26 27  1  0
M  END
$$$$
