GKW.pdb
     RDKit          3D

 28 29  0  0  1  0  0  0  0  0999 V2000
    6.2183  -19.2896   23.6232 N   0  0  0  0  0  0  0  0  0  0  0  0
    6.7600  -19.5939   22.3069 C   0  0  0  0  0  0  0  0  0  0  0  0
    7.6308  -18.4435   21.8527 C   0  0  0  0  0  0  0  0  0  0  0  0
    8.7603  -18.6554   21.3487 O   0  0  0  0  0  0  0  0  0  0  0  0
    7.1977  -17.1084   21.9835 N   0  0  0  0  0  0  0  0  0  0  0  0
    8.0923  -16.0430   21.4993 C   0  0  1  0  0  0  0  0  0  0  0  0
    7.1769  -14.8901   21.1906 C   0  0  0  0  0  0  0  0  0  0  0  0
    7.8548  -13.7312   20.5668 C   0  0  0  0  0  0  0  0  0  0  0  0
    7.7630  -13.8072   19.0464 C   0  0  0  0  0  0  0  0  0  0  0  0
    8.5854  -12.6470   18.5007 C   0  0  0  0  0  0  0  0  0  0  0  0
    8.5674  -12.6837   17.0705 N   0  0  0  0  0  0  0  0  0  0  0  0
    9.0380  -15.6596   22.5848 C   0  0  0  0  0  0  0  0  0  0  0  0
    9.8599  -14.7569   22.3296 O   0  0  0  0  0  0  0  0  0  0  0  0
    9.0160  -16.2852   23.8580 N   0  0  0  0  0  0  0  0  0  0  0  0
    9.8920  -15.8403   24.8973 C   0  0  1  0  0  0  0  0  0  0  0  0
    9.2556  -15.6450   26.2264 C   0  0  0  0  0  0  0  0  0  0  0  0
    7.8847  -15.1134   26.1359 C   0  0  0  0  0  0  0  0  0  0  0  0
    6.7297  -15.7796   25.9173 C   0  0  0  0  0  0  0  0  0  0  0  0
    5.6999  -14.8804   25.9078 N   0  0  0  0  0  0  0  0  0  0  0  0
    6.1788  -13.6559   26.1161 C   0  0  0  0  0  0  0  0  0  0  0  0
    5.5837  -12.4127   26.1991 C   0  0  0  0  0  0  0  0  0  0  0  0
    6.3807  -11.3007   26.4293 C   0  0  0  0  0  0  0  0  0  0  0  0
    7.7442  -11.4326   26.5732 C   0  0  0  0  0  0  0  0  0  0  0  0
    8.3508  -12.6718   26.4923 C   0  0  0  0  0  0  0  0  0  0  0  0
    7.5366  -13.7666   26.2621 C   0  0  0  0  0  0  0  0  0  0  0  0
   10.9293  -16.9277   25.0822 C   0  0  0  0  0  0  0  0  0  0  0  0
   12.0307  -16.7170   25.9139 O   0  0  0  0  0  0  0  0  0  0  0  0
   10.8483  -18.0376   24.5115 O   0  0  0  0  0  0  0  0  0  0  0  0
  1  2  1  0
  2  3  1  0
  3  4  2  0
  5  6  1  0
  5  3  1  0
  6  7  1  1
  8  7  1  0
  9  8  1  0
 10  9  1  0
 11 10  1  0
 12  6  1  0
 12 13  2  0
 14 12  1  0
 15 14  1  0
 15 26  1  0
 15 16  1  1
 17 16  1  0
 18 17  2  0
 19 20  1  0
 19 18  1  0
 20 25  2  0
 21 20  1  0
 21 22  2  0
 22 23  1  0
 23 24  2  0
 25 17  1  0
 25 24  1  0
 26 28  2  0
 26 27  1  0
M  END
$$$$
