GKW.pdb
     RDKit          3D

 28 29  0  0  1  0  0  0  0  0999 V2000
    6.4039  -19.7546   21.0537 N   0  0  0  0  0  0  0  0  0  0  0  0
    6.1700  -18.4459   21.6462 C   0  0  0  0  0  0  0  0  0  0  0  0
    7.4042  -17.5914   21.4603 C   0  0  0  0  0  0  0  0  0  0  0  0
    8.4704  -18.0920   21.0276 O   0  0  0  0  0  0  0  0  0  0  0  0
    7.3888  -16.2156   21.7674 N   0  0  0  0  0  0  0  0  0  0  0  0
    8.6068  -15.4343   21.4923 C   0  0  1  0  0  0  0  0  0  0  0  0
    8.1082  -14.0469   21.1939 C   0  0  0  0  0  0  0  0  0  0  0  0
    7.3967  -13.9260   19.9013 C   0  0  0  0  0  0  0  0  0  0  0  0
    8.2949  -13.2834   18.8496 C   0  0  0  0  0  0  0  0  0  0  0  0
    7.4916  -13.2408   17.5561 C   0  0  0  0  0  0  0  0  0  0  0  0
    8.2701  -12.6111   16.5342 N   0  0  0  0  0  0  0  0  0  0  0  0
    9.4652  -15.4109   22.7097 C   0  0  0  0  0  0  0  0  0  0  0  0
   10.5763  -14.8530   22.6108 O   0  0  0  0  0  0  0  0  0  0  0  0
    9.0499  -15.9936   23.9349 N   0  0  0  0  0  0  0  0  0  0  0  0
    9.9619  -16.0978   25.0316 C   0  0  1  0  0  0  0  0  0  0  0  0
    9.5408  -15.4055   26.2779 C   0  0  0  0  0  0  0  0  0  0  0  0
    8.1361  -14.9629   26.2443 C   0  0  0  0  0  0  0  0  0  0  0  0
    7.0212  -15.6955   26.0300 C   0  0  0  0  0  0  0  0  0  0  0  0
    5.9352  -14.8668   26.0828 N   0  0  0  0  0  0  0  0  0  0  0  0
    6.3390  -13.6220   26.3265 C   0  0  0  0  0  0  0  0  0  0  0  0
    5.6667  -12.4249   26.4739 C   0  0  0  0  0  0  0  0  0  0  0  0
    6.3957  -11.2720   26.7267 C   0  0  0  0  0  0  0  0  0  0  0  0
    7.7685  -11.3185   26.8295 C   0  0  0  0  0  0  0  0  0  0  0  0
    8.4521  -12.5109   26.6841 C   0  0  0  0  0  0  0  0  0  0  0  0
    7.7047  -13.6478   26.4324 C   0  0  0  0  0  0  0  0  0  0  0  0
   10.0547  -17.5690   25.3772 C   0  0  0  0  0  0  0  0  0  0  0  0
   11.0545  -18.0295   26.2361 O   0  0  0  0  0  0  0  0  0  0  0  0
    9.2588  -18.4182   24.9195 O   0  0  0  0  0  0  0  0  0  0  0  0
  1  2  1  0
  2  3  1  0
  3  4  2  0
  5  6  1  0
  5  3  1  0
  6  7  1  1
  8  7  1  0
  9  8  1  0
 10  9  1  0
 11 10  1  0
 12  6  1  0
 12 13  2  0
 14 12  1  0
 15 14  1  0
 15 26  1  0
 15 16  1  1
 17 16  1  0
 18 17  2  0
 19 20  1  0
 19 18  1  0
 20 25  2  0
 21 20  1  0
 21 22  2  0
 22 23  1  0
 23 24  2  0
 25 17  1  0
 25 24  1  0
 26 28  2  0
 26 27  1  0
M  END
$$$$
