YSH.pdb
     RDKit          3D

 29 30  0  0  1  0  0  0  0  0999 V2000
    7.7866  -12.2183   17.3017 O   0  0  0  0  0  0  0  0  0  0  0  0
    7.8050  -12.8949   18.5279 C   0  0  0  0  0  0  0  0  0  0  0  0
    6.9772  -13.9717   18.7691 C   0  0  0  0  0  0  0  0  0  0  0  0
    7.0123  -14.6256   19.9887 C   0  0  0  0  0  0  0  0  0  0  0  0
    7.8638  -14.2372   21.0050 C   0  0  0  0  0  0  0  0  0  0  0  0
    7.8997  -14.9442   22.3192 C   0  0  0  0  0  0  0  0  0  0  0  0
    9.2460  -15.5803   22.4578 C   0  0  2  0  0  0  0  0  0  0  0  0
    9.5512  -16.3134   21.2605 N   0  0  0  0  0  0  0  0  0  0  0  0
    9.3801  -16.4002   23.6818 C   0  0  0  0  0  0  0  0  0  0  0  0
    8.9296  -15.9442   24.7536 O   0  0  0  0  0  0  0  0  0  0  0  0
    8.6887  -13.1577   20.7533 C   0  0  0  0  0  0  0  0  0  0  0  0
    8.6570  -12.5032   19.5394 C   0  0  0  0  0  0  0  0  0  0  0  0
   11.9178  -19.5656   23.8278 O   0  0  0  0  0  0  0  0  0  0  0  0
   10.7176  -19.8354   24.5112 C   0  0  0  0  0  0  0  0  0  0  0  0
   10.0785  -18.5128   24.8808 C   0  0  2  0  0  0  0  0  0  0  0  0
    9.9945  -17.6790   23.7012 N   0  0  0  0  0  0  0  0  0  0  0  0
   10.9143  -17.8989   25.9394 C   0  0  0  0  0  0  0  0  0  0  0  0
   12.0069  -17.3353   25.7414 O   0  0  0  0  0  0  0  0  0  0  0  0
   10.4264  -17.9626   27.2721 N   0  0  0  0  0  0  0  0  0  0  0  0
   11.1864  -17.4896   28.4057 C   0  0  1  0  0  0  0  0  0  0  0  0
   10.2967  -16.4599   29.1095 C   0  0  0  0  0  0  0  0  0  0  0  0
   10.0833  -15.2550   28.2679 C   0  0  0  0  0  0  0  0  0  0  0  0
   10.5951  -15.0138   27.0142 C   0  0  0  0  0  0  0  0  0  0  0  0
   10.1752  -13.8133   26.5811 N   0  0  0  0  0  0  0  0  0  0  0  0
    9.3888  -13.2733   27.5559 C   0  0  0  0  0  0  0  0  0  0  0  0
    9.3425  -14.1598   28.5730 N   0  0  0  0  0  0  0  0  0  0  0  0
   11.5856  -18.5694   29.3157 C   0  0  0  0  0  0  0  0  0  0  0  0
   11.1683  -19.7314   29.1073 O   0  0  0  0  0  0  0  0  0  0  0  0
   12.4102  -18.3480   30.4001 O   0  0  0  0  0  0  0  0  0  0  0  0
  2  1  1  0
  3  2  2  0
  4  3  1  0
  5  4  2  0
  5 11  1  0
  6  7  1  0
  6  5  1  0
  7  8  1  6
  7  9  1  0
  9 10  2  0
 11 12  2  0
 12  2  1  0
 13 14  1  0
 15 14  1  6
 16  9  1  0
 16 15  1  0
 17 15  1  0
 17 18  2  0
 19 17  1  0
 20 19  1  0
 20 27  1  0
 20 21  1  1
 22 21  1  0
 22 26  1  0
 23 24  1  0
 23 22  2  0
 24 25  1  0
 25 26  2  0
 27 28  2  0
 27 29  1  0
M  END
$$$$
