YSH.pdb
     RDKit          3D

 29 30  0  0  1  0  0  0  0  0999 V2000
    7.4931  -12.1799   17.1474 O   0  0  0  0  0  0  0  0  0  0  0  0
    7.7691  -12.9574   18.2792 C   0  0  0  0  0  0  0  0  0  0  0  0
    9.0488  -13.3864   18.5640 C   0  0  0  0  0  0  0  0  0  0  0  0
    9.2986  -14.1541   19.6884 C   0  0  0  0  0  0  0  0  0  0  0  0
    8.2948  -14.5210   20.5639 C   0  0  0  0  0  0  0  0  0  0  0  0
    8.5669  -15.3489   21.7759 C   0  0  0  0  0  0  0  0  0  0  0  0
    8.6985  -16.7720   21.3353 C   0  0  2  0  0  0  0  0  0  0  0  0
    7.4427  -17.2232   20.8030 N   0  0  0  0  0  0  0  0  0  0  0  0
    9.2265  -17.6628   22.3919 C   0  0  0  0  0  0  0  0  0  0  0  0
    8.5098  -17.8902   23.3890 O   0  0  0  0  0  0  0  0  0  0  0  0
    7.0166  -14.0863   20.2696 C   0  0  0  0  0  0  0  0  0  0  0  0
    6.7633  -13.3210   19.1502 C   0  0  0  0  0  0  0  0  0  0  0  0
   13.2580  -18.3119   22.4375 O   0  0  0  0  0  0  0  0  0  0  0  0
   12.5404  -19.3567   23.0492 C   0  0  0  0  0  0  0  0  0  0  0  0
   11.1949  -18.8128   23.4832 C   0  0  2  0  0  0  0  0  0  0  0  0
   10.5061  -18.2727   22.3310 N   0  0  0  0  0  0  0  0  0  0  0  0
   11.4480  -17.7809   24.5162 C   0  0  0  0  0  0  0  0  0  0  0  0
   11.7452  -16.5958   24.2757 O   0  0  0  0  0  0  0  0  0  0  0  0
   11.3416  -18.1812   25.8751 N   0  0  0  0  0  0  0  0  0  0  0  0
   11.3365  -17.2381   26.9692 C   0  0  1  0  0  0  0  0  0  0  0  0
   10.1947  -16.2595   26.6767 C   0  0  0  0  0  0  0  0  0  0  0  0
   10.0661  -15.2342   27.7435 C   0  0  0  0  0  0  0  0  0  0  0  0
   10.7952  -15.1467   28.9066 C   0  0  0  0  0  0  0  0  0  0  0  0
   10.3851  -14.0812   29.6146 N   0  0  0  0  0  0  0  0  0  0  0  0
    9.3871  -13.4749   28.9098 C   0  0  0  0  0  0  0  0  0  0  0  0
    9.2049  -14.1861   27.7769 N   0  0  0  0  0  0  0  0  0  0  0  0
   11.1730  -17.8827   28.2773 C   0  0  0  0  0  0  0  0  0  0  0  0
   11.3401  -17.2069   29.3180 O   0  0  0  0  0  0  0  0  0  0  0  0
   10.8393  -19.2161   28.4018 O   0  0  0  0  0  0  0  0  0  0  0  0
  2  1  1  0
  3  2  2  0
  4  3  1  0
  5  4  2  0
  5 11  1  0
  6  7  1  0
  6  5  1  0
  7  8  1  1
  7  9  1  0
  9 10  2  0
 11 12  2  0
 12  2  1  0
 13 14  1  0
 15 14  1  6
 16  9  1  0
 16 15  1  0
 17 15  1  0
 17 18  2  0
 19 17  1  0
 20 19  1  0
 20 27  1  0
 20 21  1  6
 22 21  1  0
 22 26  1  0
 23 24  1  0
 23 22  2  0
 24 25  1  0
 25 26  2  0
 27 28  2  0
 27 29  1  0
M  END
$$$$
