YSH.pdb
     RDKit          3D

 29 30  0  0  1  0  0  0  0  0999 V2000
   15.4038  -19.3436    7.4379 O   0  0  0  0  0  0  0  0  0  0  0  0
   15.2873  -18.5843    8.6091 C   0  0  0  0  0  0  0  0  0  0  0  0
   14.5807  -17.3998    8.6324 C   0  0  0  0  0  0  0  0  0  0  0  0
   14.4785  -16.6656    9.8015 C   0  0  0  0  0  0  0  0  0  0  0  0
   15.0696  -17.0775   10.9803 C   0  0  0  0  0  0  0  0  0  0  0  0
   14.9578  -16.2837   12.2397 C   0  0  0  0  0  0  0  0  0  0  0  0
   13.6031  -16.5383   12.8199 C   0  0  2  0  0  0  0  0  0  0  0  0
   12.6013  -15.9948   11.9452 N   0  0  0  0  0  0  0  0  0  0  0  0
   13.4670  -16.0613   14.2137 C   0  0  0  0  0  0  0  0  0  0  0  0
   12.7131  -15.0913   14.4378 O   0  0  0  0  0  0  0  0  0  0  0  0
   15.7750  -18.2651   10.9463 C   0  0  0  0  0  0  0  0  0  0  0  0
   15.8792  -18.9999    9.7835 C   0  0  0  0  0  0  0  0  0  0  0  0
   11.8690  -18.8559   17.0742 O   0  0  0  0  0  0  0  0  0  0  0  0
   12.6253  -18.3982   15.9793 C   0  0  0  0  0  0  0  0  0  0  0  0
   13.4812  -17.2403   16.4493 C   0  0  2  0  0  0  0  0  0  0  0  0
   14.1494  -16.6494   15.3099 N   0  0  0  0  0  0  0  0  0  0  0  0
   14.4414  -17.7756   17.4431 C   0  0  0  0  0  0  0  0  0  0  0  0
   14.1236  -18.2599   18.5454 O   0  0  0  0  0  0  0  0  0  0  0  0
   15.8205  -17.7289   17.1057 N   0  0  0  0  0  0  0  0  0  0  0  0
   16.8492  -18.3025   17.9418 C   0  0  1  0  0  0  0  0  0  0  0  0
   18.1768  -18.0169   17.2325 C   0  0  0  0  0  0  0  0  0  0  0  0
   18.1966  -18.5833   15.8598 C   0  0  0  0  0  0  0  0  0  0  0  0
   17.3361  -19.5176   15.3320 C   0  0  0  0  0  0  0  0  0  0  0  0
   17.6788  -19.7752   14.0588 N   0  0  0  0  0  0  0  0  0  0  0  0
   18.7647  -19.0063   13.7586 C   0  0  0  0  0  0  0  0  0  0  0  0
   19.0671  -18.2886   14.8614 N   0  0  0  0  0  0  0  0  0  0  0  0
   16.8404  -17.7649   19.3072 C   0  0  0  0  0  0  0  0  0  0  0  0
   15.9461  -16.9544   19.6404 O   0  0  0  0  0  0  0  0  0  0  0  0
   17.7892  -18.1235   20.2433 O   0  0  0  0  0  0  0  0  0  0  0  0
  2  1  1  0
  3  2  2  0
  4  3  1  0
  5  4  2  0
  5 11  1  0
  6  7  1  0
  6  5  1  0
  7  8  1  6
  7  9  1  0
  9 10  2  0
 11 12  2  0
 12  2  1  0
 13 14  1  0
 15 14  1  6
 16  9  1  0
 16 15  1  0
 17 15  1  0
 17 18  2  0
 19 17  1  0
 20 19  1  0
 20 27  1  0
 20 21  1  6
 22 21  1  0
 22 26  1  0
 23 24  1  0
 23 22  2  0
 24 25  1  0
 25 26  2  0
 27 28  2  0
 27 29  1  0
M  END
$$$$
