YSH.pdb
     RDKit          3D

 29 30  0  0  1  0  0  0  0  0999 V2000
   13.0459  -13.5930    4.0947 O   0  0  0  0  0  0  0  0  0  0  0  0
   13.4429  -13.9004    5.4022 C   0  0  0  0  0  0  0  0  0  0  0  0
   12.9268  -14.9887    6.0747 C   0  0  0  0  0  0  0  0  0  0  0  0
   13.3336  -15.2737    7.3668 C   0  0  0  0  0  0  0  0  0  0  0  0
   14.2601  -14.4948    8.0327 C   0  0  0  0  0  0  0  0  0  0  0  0
   14.6971  -14.8046    9.4262 C   0  0  0  0  0  0  0  0  0  0  0  0
   13.7249  -14.1603   10.3623 C   0  0  2  0  0  0  0  0  0  0  0  0
   13.8050  -12.7327   10.2229 N   0  0  0  0  0  0  0  0  0  0  0  0
   13.8802  -14.6090   11.7635 C   0  0  0  0  0  0  0  0  0  0  0  0
   14.7093  -14.0186   12.4870 O   0  0  0  0  0  0  0  0  0  0  0  0
   14.7708  -13.4073    7.3505 C   0  0  0  0  0  0  0  0  0  0  0  0
   14.3682  -13.1196    6.0628 C   0  0  0  0  0  0  0  0  0  0  0  0
   12.2672  -18.1906   13.0438 O   0  0  0  0  0  0  0  0  0  0  0  0
   12.2395  -17.1638   14.0058 C   0  0  0  0  0  0  0  0  0  0  0  0
   13.3375  -16.1754   13.6714 C   0  0  2  0  0  0  0  0  0  0  0  0
   13.1354  -15.6764   12.3283 N   0  0  0  0  0  0  0  0  0  0  0  0
   14.6300  -16.8861   13.8138 C   0  0  0  0  0  0  0  0  0  0  0  0
   15.4192  -17.1152   12.8782 O   0  0  0  0  0  0  0  0  0  0  0  0
   14.9859  -17.3345   15.1139 N   0  0  0  0  0  0  0  0  0  0  0  0
   16.1876  -18.0914   15.3776 C   0  0  1  0  0  0  0  0  0  0  0  0
   17.3544  -17.1816   14.9801 C   0  0  0  0  0  0  0  0  0  0  0  0
   18.6649  -17.8454   15.1989 C   0  0  0  0  0  0  0  0  0  0  0  0
   19.3298  -18.0022   16.3927 C   0  0  0  0  0  0  0  0  0  0  0  0
   20.4850  -18.6546   16.1810 N   0  0  0  0  0  0  0  0  0  0  0  0
   20.5708  -18.9222   14.8463 C   0  0  0  0  0  0  0  0  0  0  0  0
   19.4591  -18.4251   14.2638 N   0  0  0  0  0  0  0  0  0  0  0  0
   16.2936  -18.5252   16.7754 C   0  0  0  0  0  0  0  0  0  0  0  0
   16.6964  -19.6834   17.0282 O   0  0  0  0  0  0  0  0  0  0  0  0
   15.9628  -17.6962   17.8282 O   0  0  0  0  0  0  0  0  0  0  0  0
  2  1  1  0
  3  2  2  0
  4  3  1  0
  5  4  2  0
  5 11  1  0
  6  7  1  0
  6  5  1  0
  7  8  1  1
  7  9  1  0
  9 10  2  0
 11 12  2  0
 12  2  1  0
 13 14  1  0
 15 14  1  6
 16  9  1  0
 16 15  1  0
 17 15  1  0
 17 18  2  0
 19 17  1  0
 20 19  1  0
 20 27  1  0
 20 21  1  1
 22 21  1  0
 22 26  1  0
 23 24  1  0
 23 22  2  0
 24 25  1  0
 25 26  2  0
 27 28  2  0
 27 29  1  0
M  END
$$$$
