YSH.pdb
     RDKit          3D

 29 30  0  0  1  0  0  0  0  0999 V2000
    5.9306  -12.0888   19.2338 O   0  0  0  0  0  0  0  0  0  0  0  0
    7.1497  -12.7643   19.3727 C   0  0  0  0  0  0  0  0  0  0  0  0
    7.1995  -14.0916   19.7451 C   0  0  0  0  0  0  0  0  0  0  0  0
    8.4158  -14.7393   19.8764 C   0  0  0  0  0  0  0  0  0  0  0  0
    9.6172  -14.0978   19.6445 C   0  0  0  0  0  0  0  0  0  0  0  0
   10.9275  -14.7988   19.7867 C   0  0  0  0  0  0  0  0  0  0  0  0
   11.5150  -14.9481   18.4196 C   0  0  2  0  0  0  0  0  0  0  0  0
   10.5959  -15.6685   17.5829 N   0  0  0  0  0  0  0  0  0  0  0  0
   12.8692  -15.5436   18.4290 C   0  0  0  0  0  0  0  0  0  0  0  0
   12.9802  -16.7610   18.6848 O   0  0  0  0  0  0  0  0  0  0  0  0
    9.5564  -12.7686   19.2720 C   0  0  0  0  0  0  0  0  0  0  0  0
    8.3465  -12.1193   19.1401 C   0  0  0  0  0  0  0  0  0  0  0  0
   16.2621  -13.1372   18.3658 O   0  0  0  0  0  0  0  0  0  0  0  0
   16.3809  -14.3736   17.7041 C   0  0  0  0  0  0  0  0  0  0  0  0
   15.3858  -15.3351   18.3204 C   0  0  2  0  0  0  0  0  0  0  0  0
   14.0496  -14.8028   18.1623 N   0  0  0  0  0  0  0  0  0  0  0  0
   15.7555  -15.4999   19.7459 C   0  0  0  0  0  0  0  0  0  0  0  0
   15.2108  -14.9018   20.6926 O   0  0  0  0  0  0  0  0  0  0  0  0
   16.8074  -16.4068   20.0443 N   0  0  0  0  0  0  0  0  0  0  0  0
   17.2734  -16.6473   21.3903 C   0  0  1  0  0  0  0  0  0  0  0  0
   17.9618  -18.0156   21.3598 C   0  0  0  0  0  0  0  0  0  0  0  0
   16.9761  -19.1253   21.4116 C   0  0  0  0  0  0  0  0  0  0  0  0
   15.6363  -19.0357   21.7097 C   0  0  0  0  0  0  0  0  0  0  0  0
   15.0811  -20.2578   21.6538 N   0  0  0  0  0  0  0  0  0  0  0  0
   16.0627  -21.1435   21.3185 C   0  0  0  0  0  0  0  0  0  0  0  0
   17.2067  -20.4414   21.1749 N   0  0  0  0  0  0  0  0  0  0  0  0
   18.1777  -15.5990   21.8769 C   0  0  0  0  0  0  0  0  0  0  0  0
   18.6994  -14.8108   21.0557 O   0  0  0  0  0  0  0  0  0  0  0  0
   18.4752  -15.4501   23.2163 O   0  0  0  0  0  0  0  0  0  0  0  0
  2  1  1  0
  3  2  2  0
  4  3  1  0
  5  4  2  0
  5 11  1  0
  6  7  1  0
  6  5  1  0
  7  8  1  6
  7  9  1  0
  9 10  2  0
 11 12  2  0
 12  2  1  0
 13 14  1  0
 15 14  1  1
 16  9  1  0
 16 15  1  0
 17 15  1  0
 17 18  2  0
 19 17  1  0
 20 19  1  0
 20 27  1  0
 20 21  1  6
 22 21  1  0
 22 26  1  0
 23 24  1  0
 23 22  2  0
 24 25  1  0
 25 26  2  0
 27 28  2  0
 27 29  1  0
M  END
$$$$
