YSH.pdb
     RDKit          3D

 29 30  0  0  1  0  0  0  0  0999 V2000
    7.4876  -13.3228   16.0805 O   0  0  0  0  0  0  0  0  0  0  0  0
    7.6236  -13.4266   17.4707 C   0  0  0  0  0  0  0  0  0  0  0  0
    8.8231  -13.1630   18.0988 C   0  0  0  0  0  0  0  0  0  0  0  0
    8.9347  -13.2719   19.4743 C   0  0  0  0  0  0  0  0  0  0  0  0
    7.8680  -13.6436   20.2696 C   0  0  0  0  0  0  0  0  0  0  0  0
    7.9911  -13.7602   21.7527 C   0  0  0  0  0  0  0  0  0  0  0  0
    8.6404  -15.0732   22.0541 C   0  0  2  0  0  0  0  0  0  0  0  0
    7.8791  -16.1305   21.4486 N   0  0  0  0  0  0  0  0  0  0  0  0
    8.8741  -15.2899   23.4988 C   0  0  0  0  0  0  0  0  0  0  0  0
    9.5884  -14.4705   24.1136 O   0  0  0  0  0  0  0  0  0  0  0  0
    6.6711  -13.9054   19.6306 C   0  0  0  0  0  0  0  0  0  0  0  0
    6.5555  -13.7981   18.2603 C   0  0  0  0  0  0  0  0  0  0  0  0
    6.5061  -17.7690   25.6417 O   0  0  0  0  0  0  0  0  0  0  0  0
    7.2480  -16.7989   26.3411 C   0  0  0  0  0  0  0  0  0  0  0  0
    8.5725  -16.6157   25.6294 C   0  0  2  0  0  0  0  0  0  0  0  0
    8.3282  -16.3813   24.2226 N   0  0  0  0  0  0  0  0  0  0  0  0
    9.3714  -17.8423   25.8601 C   0  0  0  0  0  0  0  0  0  0  0  0
    9.2784  -18.8852   25.1861 O   0  0  0  0  0  0  0  0  0  0  0  0
   10.3073  -17.8176   26.9285 N   0  0  0  0  0  0  0  0  0  0  0  0
   10.9571  -19.0080   27.4256 C   0  0  1  0  0  0  0  0  0  0  0  0
   12.4593  -18.7830   27.2255 C   0  0  0  0  0  0  0  0  0  0  0  0
   12.8042  -18.6384   25.7882 C   0  0  0  0  0  0  0  0  0  0  0  0
   11.9369  -18.6284   24.7207 C   0  0  0  0  0  0  0  0  0  0  0  0
   12.6305  -18.4772   23.5800 N   0  0  0  0  0  0  0  0  0  0  0  0
   13.9517  -18.3888   23.9074 C   0  0  0  0  0  0  0  0  0  0  0  0
   14.0411  -18.4883   25.2507 N   0  0  0  0  0  0  0  0  0  0  0  0
   10.6360  -19.2894   28.8295 C   0  0  0  0  0  0  0  0  0  0  0  0
    9.9626  -18.4594   29.4818 O   0  0  0  0  0  0  0  0  0  0  0  0
   11.0525  -20.4442   29.4604 O   0  0  0  0  0  0  0  0  0  0  0  0
  2  1  1  0
  3  2  2  0
  4  3  1  0
  5  4  2  0
  5 11  1  0
  6  7  1  0
  6  5  1  0
  7  8  1  1
  7  9  1  0
  9 10  2  0
 11 12  2  0
 12  2  1  0
 13 14  1  0
 15 14  1  1
 16  9  1  0
 16 15  1  0
 17 15  1  0
 17 18  2  0
 19 17  1  0
 20 19  1  0
 20 27  1  0
 20 21  1  1
 22 21  1  0
 22 26  1  0
 23 24  1  0
 23 22  2  0
 24 25  1  0
 25 26  2  0
 27 28  2  0
 27 29  1  0
M  END
$$$$
