YSH.pdb
     RDKit          3D

 29 30  0  0  1  0  0  0  0  0999 V2000
    7.5144  -12.3848   17.0518 O   0  0  0  0  0  0  0  0  0  0  0  0
    7.6643  -12.9825   18.3096 C   0  0  0  0  0  0  0  0  0  0  0  0
    8.9109  -13.2182   18.8512 C   0  0  0  0  0  0  0  0  0  0  0  0
    9.0354  -13.8104   20.0963 C   0  0  0  0  0  0  0  0  0  0  0  0
    7.9356  -14.1869   20.8427 C   0  0  0  0  0  0  0  0  0  0  0  0
    8.0728  -14.8252   22.1852 C   0  0  0  0  0  0  0  0  0  0  0  0
    8.4406  -16.2590   21.9725 C   0  0  2  0  0  0  0  0  0  0  0  0
    7.3570  -16.9356   21.3152 N   0  0  0  0  0  0  0  0  0  0  0  0
    8.8735  -16.9398   23.2125 C   0  0  0  0  0  0  0  0  0  0  0  0
    7.9993  -17.2951   24.0305 O   0  0  0  0  0  0  0  0  0  0  0  0
    6.6917  -13.9464   20.2913 C   0  0  0  0  0  0  0  0  0  0  0  0
    6.5630  -13.3566   19.0510 C   0  0  0  0  0  0  0  0  0  0  0  0
   12.8709  -17.3645   24.0198 O   0  0  0  0  0  0  0  0  0  0  0  0
   12.0654  -18.3780   24.5716 C   0  0  0  0  0  0  0  0  0  0  0  0
   10.6692  -17.8207   24.7578 C   0  0  2  0  0  0  0  0  0  0  0  0
   10.2318  -17.2103   23.5209 N   0  0  0  0  0  0  0  0  0  0  0  0
   10.7281  -16.8446   25.8713 C   0  0  0  0  0  0  0  0  0  0  0  0
   10.9950  -15.6355   25.7398 O   0  0  0  0  0  0  0  0  0  0  0  0
   10.4595  -17.3320   27.1783 N   0  0  0  0  0  0  0  0  0  0  0  0
   10.5568  -16.5023   28.3568 C   0  0  1  0  0  0  0  0  0  0  0  0
    9.1609  -15.9084   28.5706 C   0  0  0  0  0  0  0  0  0  0  0  0
    8.9663  -14.6686   27.7765 C   0  0  0  0  0  0  0  0  0  0  0  0
    9.9025  -14.0161   27.0085 C   0  0  0  0  0  0  0  0  0  0  0  0
    9.3442  -12.9319   26.4448 N   0  0  0  0  0  0  0  0  0  0  0  0
    8.0421  -12.8799   26.8476 C   0  0  0  0  0  0  0  0  0  0  0  0
    7.8278  -13.9403   27.6551 N   0  0  0  0  0  0  0  0  0  0  0  0
   11.0156  -17.2414   29.5386 C   0  0  0  0  0  0  0  0  0  0  0  0
   11.0863  -18.4906   29.4902 O   0  0  0  0  0  0  0  0  0  0  0  0
   11.3742  -16.6042   30.7091 O   0  0  0  0  0  0  0  0  0  0  0  0
  2  1  1  0
  3  2  2  0
  4  3  1  0
  5  4  2  0
  5 11  1  0
  6  7  1  0
  6  5  1  0
  7  8  1  1
  7  9  1  0
  9 10  2  0
 11 12  2  0
 12  2  1  0
 13 14  1  0
 15 14  1  6
 16  9  1  0
 16 15  1  0
 17 15  1  0
 17 18  2  0
 19 17  1  0
 20 19  1  0
 20 27  1  0
 20 21  1  1
 22 21  1  0
 22 26  1  0
 23 24  1  0
 23 22  2  0
 24 25  1  0
 25 26  2  0
 27 28  2  0
 27 29  1  0
M  END
$$$$
