YSH.pdb
     RDKit          3D

 29 30  0  0  1  0  0  0  0  0999 V2000
    6.0918  -10.9367   26.5166 O   0  0  0  0  0  0  0  0  0  0  0  0
    6.2894  -12.2025   25.9505 C   0  0  0  0  0  0  0  0  0  0  0  0
    6.8629  -12.3531   24.7050 C   0  0  0  0  0  0  0  0  0  0  0  0
    7.0487  -13.6140   24.1648 C   0  0  0  0  0  0  0  0  0  0  0  0
    6.6749  -14.7620   24.8364 C   0  0  0  0  0  0  0  0  0  0  0  0
    6.8765  -16.1206   24.2516 C   0  0  0  0  0  0  0  0  0  0  0  0
    6.7344  -16.0035   22.7675 C   0  0  2  0  0  0  0  0  0  0  0  0
    5.4614  -16.5364   22.3680 N   0  0  0  0  0  0  0  0  0  0  0  0
    7.8651  -16.6022   22.0247 C   0  0  0  0  0  0  0  0  0  0  0  0
    7.6117  -17.4312   21.1257 O   0  0  0  0  0  0  0  0  0  0  0  0
    6.1014  -14.6003   26.0831 C   0  0  0  0  0  0  0  0  0  0  0  0
    5.9144  -13.3456   26.6250 C   0  0  0  0  0  0  0  0  0  0  0  0
   10.1224  -14.8823   20.0322 O   0  0  0  0  0  0  0  0  0  0  0  0
   10.1245  -16.2896   20.0410 C   0  0  0  0  0  0  0  0  0  0  0  0
   10.3263  -16.7512   21.4695 C   0  0  2  0  0  0  0  0  0  0  0  0
    9.2236  -16.2830   22.2810 N   0  0  0  0  0  0  0  0  0  0  0  0
   11.6267  -16.2093   21.9292 C   0  0  0  0  0  0  0  0  0  0  0  0
   11.8917  -14.9971   22.0338 O   0  0  0  0  0  0  0  0  0  0  0  0
   12.6370  -17.1469   22.2730 N   0  0  0  0  0  0  0  0  0  0  0  0
   13.7450  -16.8189   23.1397 C   0  0  1  0  0  0  0  0  0  0  0  0
   13.8983  -18.0062   24.0957 C   0  0  0  0  0  0  0  0  0  0  0  0
   12.7591  -18.0954   25.0444 C   0  0  0  0  0  0  0  0  0  0  0  0
   11.9649  -17.0651   25.4911 C   0  0  0  0  0  0  0  0  0  0  0  0
   11.0414  -17.5456   26.3403 N   0  0  0  0  0  0  0  0  0  0  0  0
   11.2361  -18.8915   26.4455 C   0  0  0  0  0  0  0  0  0  0  0  0
   12.2818  -19.2101   25.6534 N   0  0  0  0  0  0  0  0  0  0  0  0
   14.9867  -16.5552   22.4035 C   0  0  0  0  0  0  0  0  0  0  0  0
   15.0137  -16.7341   21.1645 O   0  0  0  0  0  0  0  0  0  0  0  0
   16.1333  -16.1140   23.0325 O   0  0  0  0  0  0  0  0  0  0  0  0
  2  1  1  0
  3  2  2  0
  4  3  1  0
  5  4  2  0
  5 11  1  0
  6  7  1  0
  6  5  1  0
  7  8  1  6
  7  9  1  0
  9 10  2  0
 11 12  2  0
 12  2  1  0
 13 14  1  0
 15 14  1  6
 16  9  1  0
 16 15  1  0
 17 15  1  0
 17 18  2  0
 19 17  1  0
 20 19  1  0
 20 27  1  0
 20 21  1  1
 22 21  1  0
 22 26  1  0
 23 24  1  0
 23 22  2  0
 24 25  1  0
 25 26  2  0
 27 28  2  0
 27 29  1  0
M  END
$$$$
