YSH.pdb
     RDKit          3D

 29 30  0  0  1  0  0  0  0  0999 V2000
   20.4380  -23.8803   10.9718 O   0  0  0  0  0  0  0  0  0  0  0  0
   19.5520  -23.2371   11.8454 C   0  0  0  0  0  0  0  0  0  0  0  0
   19.9361  -22.1321   12.5765 C   0  0  0  0  0  0  0  0  0  0  0  0
   19.0437  -21.5122   13.4340 C   0  0  0  0  0  0  0  0  0  0  0  0
   17.7478  -21.9631   13.5954 C   0  0  0  0  0  0  0  0  0  0  0  0
   16.7874  -21.2925   14.5208 C   0  0  0  0  0  0  0  0  0  0  0  0
   15.7319  -20.6392   13.6868 C   0  0  2  0  0  0  0  0  0  0  0  0
   16.3193  -19.5701   12.9279 N   0  0  0  0  0  0  0  0  0  0  0  0
   14.5546  -20.2060   14.4711 C   0  0  0  0  0  0  0  0  0  0  0  0
   14.3231  -18.9825   14.5667 O   0  0  0  0  0  0  0  0  0  0  0  0
   17.3731  -23.0704   12.8587 C   0  0  0  0  0  0  0  0  0  0  0  0
   18.2592  -23.6912   12.0030 C   0  0  0  0  0  0  0  0  0  0  0  0
   11.7632  -22.9303   15.9403 O   0  0  0  0  0  0  0  0  0  0  0  0
   11.3687  -21.6161   15.6277 C   0  0  0  0  0  0  0  0  0  0  0  0
   12.5361  -20.6938   15.9119 C   0  0  2  0  0  0  0  0  0  0  0  0
   13.6742  -21.1093   15.1207 N   0  0  0  0  0  0  0  0  0  0  0  0
   12.8118  -20.7654   17.3662 C   0  0  0  0  0  0  0  0  0  0  0  0
   11.9846  -20.4983   18.2579 O   0  0  0  0  0  0  0  0  0  0  0  0
   14.1152  -21.1684   17.7620 N   0  0  0  0  0  0  0  0  0  0  0  0
   14.4959  -21.3318   19.1458 C   0  0  1  0  0  0  0  0  0  0  0  0
   15.0993  -22.7358   19.2540 C   0  0  0  0  0  0  0  0  0  0  0  0
   14.0494  -23.7859   19.2295 C   0  0  0  0  0  0  0  0  0  0  0  0
   12.7918  -23.7190   19.7825 C   0  0  0  0  0  0  0  0  0  0  0  0
   12.1370  -24.8688   19.5495 N   0  0  0  0  0  0  0  0  0  0  0  0
   12.9714  -25.6847   18.8434 C   0  0  0  0  0  0  0  0  0  0  0  0
   14.1279  -25.0137   18.6570 N   0  0  0  0  0  0  0  0  0  0  0  0
   15.4371  -20.3032   19.6039 C   0  0  0  0  0  0  0  0  0  0  0  0
   16.3280  -19.8973   18.8235 O   0  0  0  0  0  0  0  0  0  0  0  0
   15.3743  -19.7640   20.8729 O   0  0  0  0  0  0  0  0  0  0  0  0
  2  1  1  0
  3  2  2  0
  4  3  1  0
  5  4  2  0
  5 11  1  0
  6  7  1  0
  6  5  1  0
  7  8  1  1
  7  9  1  0
  9 10  2  0
 11 12  2  0
 12  2  1  0
 13 14  1  0
 15 14  1  1
 16  9  1  0
 16 15  1  0
 17 15  1  0
 17 18  2  0
 19 17  1  0
 20 19  1  0
 20 27  1  0
 20 21  1  6
 22 21  1  0
 22 26  1  0
 23 24  1  0
 23 22  2  0
 24 25  1  0
 25 26  2  0
 27 28  2  0
 27 29  1  0
M  END
$$$$
