WLY.pdb
     RDKit          3D

 35 37  0  0  1  0  0  0  0  0999 V2000
   24.9387  -20.8844  -17.1749 N   0  0  0  0  0  0  0  0  0  0  0  0
   24.7686  -19.9402  -16.0643 C   0  0  1  0  0  0  0  0  0  0  0  0
   23.2998  -19.5406  -16.1159 C   0  0  0  0  0  0  0  0  0  0  0  0
   22.9860  -18.7472  -17.3142 C   0  0  0  0  0  0  0  0  0  0  0  0
   22.3361  -19.1243  -18.4718 C   0  0  0  0  0  0  0  0  0  0  0  0
   22.2619  -18.0816  -19.3197 N   0  0  0  0  0  0  0  0  0  0  0  0
   22.8522  -17.0015  -18.7547 C   0  0  0  0  0  0  0  0  0  0  0  0
   23.0387  -15.7014  -19.2071 C   0  0  0  0  0  0  0  0  0  0  0  0
   23.6880  -14.7789  -18.4086 C   0  0  0  0  0  0  0  0  0  0  0  0
   24.1444  -15.1744  -17.1602 C   0  0  0  0  0  0  0  0  0  0  0  0
   23.9475  -16.4751  -16.7303 C   0  0  0  0  0  0  0  0  0  0  0  0
   23.3054  -17.3991  -17.5119 C   0  0  0  0  0  0  0  0  0  0  0  0
   25.0185  -20.6185  -14.7760 C   0  0  0  0  0  0  0  0  0  0  0  0
   24.6411  -21.8060  -14.6302 O   0  0  0  0  0  0  0  0  0  0  0  0
   29.3656  -20.2730  -11.3658 C   0  0  0  0  0  0  0  0  0  0  0  0
   28.2341  -20.8914  -12.2613 C   0  0  1  0  0  0  0  0  0  0  0  0
   28.3941  -22.3824  -11.9799 C   0  0  0  0  0  0  0  0  0  0  0  0
   26.9964  -20.2874  -11.7543 C   0  0  0  0  0  0  0  0  0  0  0  0
   25.6782  -20.5894  -12.3569 C   0  0  2  0  0  0  0  0  0  0  0  0
   25.6690  -19.9534  -13.7203 N   0  0  0  0  0  0  0  0  0  0  0  0
   24.4519  -20.2408  -11.6745 C   0  0  0  0  0  0  0  0  0  0  0  0
   24.3187  -19.0195  -11.2805 O   0  0  0  0  0  0  0  0  0  0  0  0
   19.1094  -21.4219  -16.0936 O   0  0  0  0  0  0  0  0  0  0  0  0
   19.6916  -20.9270  -14.9471 C   0  0  0  0  0  0  0  0  0  0  0  0
   21.0418  -20.6655  -14.9242 C   0  0  0  0  0  0  0  0  0  0  0  0
   21.6482  -20.1696  -13.7884 C   0  0  0  0  0  0  0  0  0  0  0  0
   20.9108  -19.9195  -12.6317 C   0  0  0  0  0  0  0  0  0  0  0  0
   21.6036  -19.3905  -11.4483 C   0  0  0  0  0  0  0  0  0  0  0  0
   22.2280  -20.5469  -10.6347 C   0  0  2  0  0  0  0  0  0  0  0  0
   23.3375  -21.0558  -11.3742 N   0  0  0  0  0  0  0  0  0  0  0  0
   21.2024  -21.5705  -10.4181 C   0  0  0  0  0  0  0  0  0  0  0  0
   20.0464  -21.4602   -9.6905 O   0  0  0  0  0  0  0  0  0  0  0  0
   19.5640  -20.1921  -12.6893 C   0  0  0  0  0  0  0  0  0  0  0  0
   18.9382  -20.6893  -13.8185 C   0  0  0  0  0  0  0  0  0  0  0  0
   21.3920  -22.7197  -10.9699 O   0  0  0  0  0  0  0  0  0  0  0  0
  2  1  1  6
  3  2  1  0
  4  5  2  0
  4  3  1  0
  6  5  1  0
  7 12  2  0
  7  6  1  0
  8  7  1  0
  9 10  1  0
  9  8  2  0
 10 11  2  0
 11 12  1  0
 12  4  1  0
 13  2  1  0
 14 13  2  0
 16 15  1  1
 16 18  1  0
 17 16  1  0
 19 18  1  1
 19 21  1  0
 19 20  1  0
 20 13  1  0
 21 30  1  0
 22 21  2  0
 23 24  1  0
 24 25  2  0
 24 34  1  0
 25 26  1  0
 26 27  2  0
 27 28  1  0
 29 28  1  6
 29 31  1  0
 30 29  1  0
 31 35  2  0
 31 32  1  0
 33 27  1  0
 34 33  2  0
M  END
$$$$
