WLY.pdb
     RDKit          3D

 35 37  0  0  1  0  0  0  0  0999 V2000
   23.7182  -19.1308  -11.3480 N   0  0  0  0  0  0  0  0  0  0  0  0
   24.3791  -20.4398  -11.4062 C   0  0  1  0  0  0  0  0  0  0  0  0
   25.3760  -20.3208  -12.5516 C   0  0  0  0  0  0  0  0  0  0  0  0
   24.7467  -19.8109  -13.7796 C   0  0  0  0  0  0  0  0  0  0  0  0
   24.9527  -18.6177  -14.4418 C   0  0  0  0  0  0  0  0  0  0  0  0
   24.1634  -18.5519  -15.5300 N   0  0  0  0  0  0  0  0  0  0  0  0
   23.4239  -19.6834  -15.6165 C   0  0  0  0  0  0  0  0  0  0  0  0
   22.4730  -20.1040  -16.5377 C   0  0  0  0  0  0  0  0  0  0  0  0
   21.8593  -21.3328  -16.3843 C   0  0  0  0  0  0  0  0  0  0  0  0
   22.2090  -22.1281  -15.3034 C   0  0  0  0  0  0  0  0  0  0  0  0
   23.1591  -21.6884  -14.3981 C   0  0  0  0  0  0  0  0  0  0  0  0
   23.7749  -20.4726  -14.5386 C   0  0  0  0  0  0  0  0  0  0  0  0
   25.1334  -20.6857  -10.1601 C   0  0  0  0  0  0  0  0  0  0  0  0
   25.9060  -21.6724  -10.1012 O   0  0  0  0  0  0  0  0  0  0  0  0
   28.6003  -18.6175   -6.5821 C   0  0  0  0  0  0  0  0  0  0  0  0
   27.8498  -19.8224   -7.2526 C   0  0  1  0  0  0  0  0  0  0  0  0
   28.2806  -20.9887   -6.3681 C   0  0  0  0  0  0  0  0  0  0  0  0
   26.4300  -19.4617   -7.1662 C   0  0  0  0  0  0  0  0  0  0  0  0
   25.3669  -20.3514   -7.6860 C   0  0  2  0  0  0  0  0  0  0  0  0
   24.9961  -19.8335   -9.0489 N   0  0  0  0  0  0  0  0  0  0  0  0
   24.1545  -20.5800   -6.9315 C   0  0  0  0  0  0  0  0  0  0  0  0
   23.3893  -19.5639   -6.7160 O   0  0  0  0  0  0  0  0  0  0  0  0
   16.6131  -23.7442   -8.8752 O   0  0  0  0  0  0  0  0  0  0  0  0
   17.9361  -23.4081   -8.6884 C   0  0  0  0  0  0  0  0  0  0  0  0
   18.2630  -22.1638   -8.2017 C   0  0  0  0  0  0  0  0  0  0  0  0
   19.5803  -21.8034   -8.0058 C   0  0  0  0  0  0  0  0  0  0  0  0
   20.6177  -22.6891   -8.2952 C   0  0  0  0  0  0  0  0  0  0  0  0
   22.0042  -22.2575   -8.0683 C   0  0  0  0  0  0  0  0  0  0  0  0
   22.2925  -22.1643   -6.5527 C   0  0  2  0  0  0  0  0  0  0  0  0
   23.6586  -21.7859   -6.3873 N   0  0  0  0  0  0  0  0  0  0  0  0
   22.0107  -23.4670   -5.9444 C   0  0  0  0  0  0  0  0  0  0  0  0
   22.7594  -24.6118   -6.0266 O   0  0  0  0  0  0  0  0  0  0  0  0
   20.2554  -23.9241   -8.7799 C   0  0  0  0  0  0  0  0  0  0  0  0
   18.9406  -24.3037   -8.9829 C   0  0  0  0  0  0  0  0  0  0  0  0
   20.9336  -23.5689   -5.2440 O   0  0  0  0  0  0  0  0  0  0  0  0
  2  1  1  1
  3  2  1  0
  4  5  2  0
  4  3  1  0
  6  5  1  0
  7 12  2  0
  7  6  1  0
  8  7  1  0
  9 10  1  0
  9  8  2  0
 10 11  2  0
 11 12  1  0
 12  4  1  0
 13  2  1  0
 14 13  2  0
 16 15  1  1
 16 18  1  0
 17 16  1  0
 19 18  1  1
 19 21  1  0
 19 20  1  0
 20 13  1  0
 21 30  1  0
 22 21  2  0
 23 24  1  0
 24 25  2  0
 24 34  1  0
 25 26  1  0
 26 27  2  0
 27 28  1  0
 29 28  1  6
 29 31  1  0
 30 29  1  0
 31 35  2  0
 31 32  1  0
 33 27  1  0
 34 33  2  0
M  END
$$$$
