WLY.pdb
     RDKit          3D

 35 37  0  0  1  0  0  0  0  0999 V2000
   26.2843  -20.0973  -16.6882 N   0  0  0  0  0  0  0  0  0  0  0  0
   25.7874  -19.3314  -15.5392 C   0  0  1  0  0  0  0  0  0  0  0  0
   24.8357  -18.3047  -16.1391 C   0  0  0  0  0  0  0  0  0  0  0  0
   25.5541  -17.2384  -16.8539 C   0  0  0  0  0  0  0  0  0  0  0  0
   25.6359  -16.9903  -18.2090 C   0  0  0  0  0  0  0  0  0  0  0  0
   26.4033  -15.9077  -18.4342 N   0  0  0  0  0  0  0  0  0  0  0  0
   26.8441  -15.4168  -17.2513 C   0  0  0  0  0  0  0  0  0  0  0  0
   27.6521  -14.3308  -16.9389 C   0  0  0  0  0  0  0  0  0  0  0  0
   27.9504  -14.0491  -15.6191 C   0  0  0  0  0  0  0  0  0  0  0  0
   27.4318  -14.8646  -14.6245 C   0  0  0  0  0  0  0  0  0  0  0  0
   26.6291  -15.9411  -14.9592 C   0  0  0  0  0  0  0  0  0  0  0  0
   26.3258  -16.2313  -16.2634 C   0  0  0  0  0  0  0  0  0  0  0  0
   25.0129  -20.2091  -14.6381 C   0  0  0  0  0  0  0  0  0  0  0  0
   24.4487  -21.2237  -15.1138 O   0  0  0  0  0  0  0  0  0  0  0  0
   26.2942  -20.7406   -9.2495 C   0  0  0  0  0  0  0  0  0  0  0  0
   26.1203  -20.9687  -10.7929 C   0  0  1  0  0  0  0  0  0  0  0  0
   26.6095  -22.4050  -10.9526 C   0  0  0  0  0  0  0  0  0  0  0  0
   24.6869  -20.7647  -11.0328 C   0  0  0  0  0  0  0  0  0  0  0  0
   24.1041  -20.8512  -12.3910 C   0  0  2  0  0  0  0  0  0  0  0  0
   24.9020  -19.9223  -13.2650 N   0  0  0  0  0  0  0  0  0  0  0  0
   22.6970  -20.6020  -12.6130 C   0  0  0  0  0  0  0  0  0  0  0  0
   22.2558  -19.4179  -12.3526 O   0  0  0  0  0  0  0  0  0  0  0  0
   20.8120  -26.0011  -17.1727 O   0  0  0  0  0  0  0  0  0  0  0  0
   20.5778  -24.7897  -16.5595 C   0  0  0  0  0  0  0  0  0  0  0  0
   21.5686  -23.8361  -16.5294 C   0  0  0  0  0  0  0  0  0  0  0  0
   21.3587  -22.6153  -15.9216 C   0  0  0  0  0  0  0  0  0  0  0  0
   20.1373  -22.3130  -15.3207 C   0  0  0  0  0  0  0  0  0  0  0  0
   19.9635  -20.9982  -14.6872 C   0  0  0  0  0  0  0  0  0  0  0  0
   20.3379  -21.0743  -13.1895 C   0  0  2  0  0  0  0  0  0  0  0  0
   21.7028  -21.4812  -13.0976 N   0  0  0  0  0  0  0  0  0  0  0  0
   19.4400  -22.0279  -12.5331 C   0  0  0  0  0  0  0  0  0  0  0  0
   18.0909  -21.9052  -12.3260 O   0  0  0  0  0  0  0  0  0  0  0  0
   19.1692  -23.2888  -15.3692 C   0  0  0  0  0  0  0  0  0  0  0  0
   19.3608  -24.5182  -15.9737 C   0  0  0  0  0  0  0  0  0  0  0  0
   19.9628  -23.1195  -12.0901 O   0  0  0  0  0  0  0  0  0  0  0  0
  2  1  1  6
  3  2  1  0
  4  5  2  0
  4  3  1  0
  6  5  1  0
  7 12  2  0
  7  6  1  0
  8  7  1  0
  9 10  1  0
  9  8  2  0
 10 11  2  0
 11 12  1  0
 12  4  1  0
 13  2  1  0
 14 13  2  0
 16 15  1  1
 16 18  1  0
 17 16  1  0
 19 18  1  1
 19 21  1  0
 19 20  1  0
 20 13  1  0
 21 30  1  0
 22 21  2  0
 23 24  1  0
 24 25  2  0
 24 34  1  0
 25 26  1  0
 26 27  2  0
 27 28  1  0
 29 28  1  6
 29 31  1  0
 30 29  1  0
 31 35  2  0
 31 32  1  0
 33 27  1  0
 34 33  2  0
M  END
$$$$
