WLY.pdb
     RDKit          3D

 35 37  0  0  1  0  0  0  0  0999 V2000
   26.0527  -18.0841  -21.9366 N   0  0  0  0  0  0  0  0  0  0  0  0
   25.2214  -17.0613  -21.2912 C   0  0  1  0  0  0  0  0  0  0  0  0
   23.9069  -17.0874  -22.0601 C   0  0  0  0  0  0  0  0  0  0  0  0
   24.0510  -16.5380  -23.4171 C   0  0  0  0  0  0  0  0  0  0  0  0
   24.2717  -17.1938  -24.6112 C   0  0  0  0  0  0  0  0  0  0  0  0
   24.3407  -16.3050  -25.6196 N   0  0  0  0  0  0  0  0  0  0  0  0
   24.1701  -15.0547  -25.1276 C   0  0  0  0  0  0  0  0  0  0  0  0
   24.1543  -13.8086  -25.7414 C   0  0  0  0  0  0  0  0  0  0  0  0
   23.9549  -12.6690  -24.9853 C   0  0  0  0  0  0  0  0  0  0  0  0
   23.7731  -12.7945  -23.6162 C   0  0  0  0  0  0  0  0  0  0  0  0
   23.7929  -14.0463  -23.0263 C   0  0  0  0  0  0  0  0  0  0  0  0
   23.9895  -15.1837  -23.7643 C   0  0  0  0  0  0  0  0  0  0  0  0
   24.9452  -17.4387  -19.8900 C   0  0  0  0  0  0  0  0  0  0  0  0
   25.0027  -18.6486  -19.5630 O   0  0  0  0  0  0  0  0  0  0  0  0
   26.4257  -14.3750  -15.5159 C   0  0  0  0  0  0  0  0  0  0  0  0
   26.3096  -15.4909  -16.6141 C   0  0  1  0  0  0  0  0  0  0  0  0
   27.2396  -16.5678  -16.0632 C   0  0  0  0  0  0  0  0  0  0  0  0
   24.8847  -15.8414  -16.6291 C   0  0  0  0  0  0  0  0  0  0  0  0
   24.3527  -16.9033  -17.5130 C   0  0  2  0  0  0  0  0  0  0  0  0
   24.6213  -16.4653  -18.9270 N   0  0  0  0  0  0  0  0  0  0  0  0
   22.9749  -17.3312  -17.4142 C   0  0  0  0  0  0  0  0  0  0  0  0
   22.0644  -16.4837  -17.7564 O   0  0  0  0  0  0  0  0  0  0  0  0
   15.0564  -20.7990  -17.1392 O   0  0  0  0  0  0  0  0  0  0  0  0
   16.4226  -20.6385  -17.2165 C   0  0  0  0  0  0  0  0  0  0  0  0
   16.9574  -19.7676  -18.1370 C   0  0  0  0  0  0  0  0  0  0  0  0
   18.3221  -19.5892  -18.2339 C   0  0  0  0  0  0  0  0  0  0  0  0
   19.1981  -20.2860  -17.4024 C   0  0  0  0  0  0  0  0  0  0  0  0
   20.6435  -20.0601  -17.5447 C   0  0  0  0  0  0  0  0  0  0  0  0
   21.0570  -18.7692  -16.8020 C   0  0  2  0  0  0  0  0  0  0  0  0
   22.4577  -18.5785  -16.9982 N   0  0  0  0  0  0  0  0  0  0  0  0
   20.7213  -18.9202  -15.3839 C   0  0  0  0  0  0  0  0  0  0  0  0
   21.5779  -19.1387  -14.3368 O   0  0  0  0  0  0  0  0  0  0  0  0
   18.6298  -21.1482  -16.4940 C   0  0  0  0  0  0  0  0  0  0  0  0
   17.2644  -21.3403  -16.3819 C   0  0  0  0  0  0  0  0  0  0  0  0
   19.4757  -18.8415  -15.0624 O   0  0  0  0  0  0  0  0  0  0  0  0
  2  1  1  6
  3  2  1  0
  4  5  2  0
  4  3  1  0
  6  5  1  0
  7 12  2  0
  7  6  1  0
  8  7  1  0
  9 10  1  0
  9  8  2  0
 10 11  2  0
 11 12  1  0
 12  4  1  0
 13  2  1  0
 14 13  2  0
 16 15  1  1
 16 18  1  0
 17 16  1  0
 19 18  1  1
 19 21  1  0
 19 20  1  0
 20 13  1  0
 21 30  1  0
 22 21  2  0
 23 24  1  0
 24 25  2  0
 24 34  1  0
 25 26  1  0
 26 27  2  0
 27 28  1  0
 29 28  1  6
 29 31  1  0
 30 29  1  0
 31 35  2  0
 31 32  1  0
 33 27  1  0
 34 33  2  0
M  END
$$$$
