WLY.pdb
     RDKit          3D

 35 37  0  0  1  0  0  0  0  0999 V2000
   28.2502  -20.7047  -13.8179 N   0  0  0  0  0  0  0  0  0  0  0  0
   26.9456  -20.3236  -13.2642 C   0  0  1  0  0  0  0  0  0  0  0  0
   25.9261  -20.9398  -14.2132 C   0  0  0  0  0  0  0  0  0  0  0  0
   25.9567  -20.3078  -15.5413 C   0  0  0  0  0  0  0  0  0  0  0  0
   26.8492  -20.4867  -16.5786 C   0  0  0  0  0  0  0  0  0  0  0  0
   26.5080  -19.7059  -17.6204 N   0  0  0  0  0  0  0  0  0  0  0  0
   25.3963  -18.9991  -17.3057 C   0  0  0  0  0  0  0  0  0  0  0  0
   24.6530  -18.0687  -18.0211 C   0  0  0  0  0  0  0  0  0  0  0  0
   23.5376  -17.4880  -17.4477 C   0  0  0  0  0  0  0  0  0  0  0  0
   23.1802  -17.8498  -16.1575 C   0  0  0  0  0  0  0  0  0  0  0  0
   23.9358  -18.7789  -15.4637 C   0  0  0  0  0  0  0  0  0  0  0  0
   25.0435  -19.3619  -16.0205 C   0  0  0  0  0  0  0  0  0  0  0  0
   26.7614  -20.9304  -11.9300 C   0  0  0  0  0  0  0  0  0  0  0  0
   26.6910  -22.1793  -11.8339 O   0  0  0  0  0  0  0  0  0  0  0  0
   27.7879  -18.7115   -6.8184 C   0  0  0  0  0  0  0  0  0  0  0  0
   27.8103  -19.7100   -8.0297 C   0  0  1  0  0  0  0  0  0  0  0  0
   28.4426  -20.9481   -7.4011 C   0  0  0  0  0  0  0  0  0  0  0  0
   26.4005  -19.8519   -8.4118 C   0  0  0  0  0  0  0  0  0  0  0  0
   25.9845  -20.6920   -9.5578 C   0  0  2  0  0  0  0  0  0  0  0  0
   26.6647  -20.1304  -10.7765 N   0  0  0  0  0  0  0  0  0  0  0  0
   24.5851  -20.8955   -9.8605 C   0  0  0  0  0  0  0  0  0  0  0  0
   23.8671  -21.4952   -8.9722 O   0  0  0  0  0  0  0  0  0  0  0  0
   16.2023  -20.0357  -11.9553 O   0  0  0  0  0  0  0  0  0  0  0  0
   17.5721  -19.8936  -11.9124 C   0  0  0  0  0  0  0  0  0  0  0  0
   18.1918  -19.6005  -10.7199 C   0  0  0  0  0  0  0  0  0  0  0  0
   19.5619  -19.4534  -10.6510 C   0  0  0  0  0  0  0  0  0  0  0  0
   20.3576  -19.5973  -11.7870 C   0  0  0  0  0  0  0  0  0  0  0  0
   21.8125  -19.4315  -11.6608 C   0  0  0  0  0  0  0  0  0  0  0  0
   22.4493  -20.7221  -11.0969 C   0  0  2  0  0  0  0  0  0  0  0  0
   23.8589  -20.5158  -11.0114 N   0  0  0  0  0  0  0  0  0  0  0  0
   22.1149  -21.8346  -11.9896 C   0  0  0  0  0  0  0  0  0  0  0  0
   21.0066  -22.6397  -11.9494 O   0  0  0  0  0  0  0  0  0  0  0  0
   19.7056  -19.8902  -12.9621 C   0  0  0  0  0  0  0  0  0  0  0  0
   18.3334  -20.0414  -13.0510 C   0  0  0  0  0  0  0  0  0  0  0  0
   22.9511  -22.1046  -12.9325 O   0  0  0  0  0  0  0  0  0  0  0  0
  2  1  1  6
  3  2  1  0
  4  5  2  0
  4  3  1  0
  6  5  1  0
  7 12  2  0
  7  6  1  0
  8  7  1  0
  9 10  1  0
  9  8  2  0
 10 11  2  0
 11 12  1  0
 12  4  1  0
 13  2  1  0
 14 13  2  0
 16 15  1  1
 16 18  1  0
 17 16  1  0
 19 18  1  1
 19 21  1  0
 19 20  1  0
 20 13  1  0
 21 30  1  0
 22 21  2  0
 23 24  1  0
 24 25  2  0
 24 34  1  0
 25 26  1  0
 26 27  2  0
 27 28  1  0
 29 28  1  6
 29 31  1  0
 30 29  1  0
 31 35  2  0
 31 32  1  0
 33 27  1  0
 34 33  2  0
M  END
$$$$
