WLY.pdb
     RDKit          3D

 35 37  0  0  1  0  0  0  0  0999 V2000
   32.4708  -27.9867  -21.3488 N   0  0  0  0  0  0  0  0  0  0  0  0
   33.8141  -28.5419  -21.1460 C   0  0  1  0  0  0  0  0  0  0  0  0
   34.4529  -27.6399  -20.0981 C   0  0  0  0  0  0  0  0  0  0  0  0
   34.7880  -26.3147  -20.6418 C   0  0  0  0  0  0  0  0  0  0  0  0
   34.1552  -25.1028  -20.4540 C   0  0  0  0  0  0  0  0  0  0  0  0
   34.7944  -24.1374  -21.1403 N   0  0  0  0  0  0  0  0  0  0  0  0
   35.8526  -24.6762  -21.7918 C   0  0  0  0  0  0  0  0  0  0  0  0
   36.8158  -24.1170  -22.6221 C   0  0  0  0  0  0  0  0  0  0  0  0
   37.8063  -24.9136  -23.1647 C   0  0  0  0  0  0  0  0  0  0  0  0
   37.8181  -26.2679  -22.8661 C   0  0  0  0  0  0  0  0  0  0  0  0
   36.8482  -26.8031  -22.0364 C   0  0  0  0  0  0  0  0  0  0  0  0
   35.8610  -26.0246  -21.4921 C   0  0  0  0  0  0  0  0  0  0  0  0
   33.7225  -29.9066  -20.5878 C   0  0  0  0  0  0  0  0  0  0  0  0
   32.6828  -30.2436  -19.9719 O   0  0  0  0  0  0  0  0  0  0  0  0
   33.6150  -34.9617  -21.5108 C   0  0  0  0  0  0  0  0  0  0  0  0
   35.1187  -34.5689  -21.2892 C   0  0  1  0  0  0  0  0  0  0  0  0
   35.8043  -35.3000  -22.4396 C   0  0  0  0  0  0  0  0  0  0  0  0
   35.1308  -33.1043  -21.3819 C   0  0  0  0  0  0  0  0  0  0  0  0
   34.5678  -32.2511  -20.3109 C   0  0  2  0  0  0  0  0  0  0  0  0
   34.7789  -30.8239  -20.7378 N   0  0  0  0  0  0  0  0  0  0  0  0
   35.0050  -32.3942  -18.9399 C   0  0  0  0  0  0  0  0  0  0  0  0
   35.7259  -31.4457  -18.4450 O   0  0  0  0  0  0  0  0  0  0  0  0
   36.9910  -32.6067  -10.6596 O   0  0  0  0  0  0  0  0  0  0  0  0
   36.4642  -32.5656  -11.9320 C   0  0  0  0  0  0  0  0  0  0  0  0
   36.7659  -31.5118  -12.7629 C   0  0  0  0  0  0  0  0  0  0  0  0
   36.2510  -31.4477  -14.0413 C   0  0  0  0  0  0  0  0  0  0  0  0
   35.4104  -32.4482  -14.5278 C   0  0  0  0  0  0  0  0  0  0  0  0
   34.8886  -32.3339  -15.8971 C   0  0  0  0  0  0  0  0  0  0  0  0
   35.4084  -33.5024  -16.7651 C   0  0  2  0  0  0  0  0  0  0  0  0
   34.7453  -33.4412  -18.0275 N   0  0  0  0  0  0  0  0  0  0  0  0
   35.1331  -34.7600  -16.0657 C   0  0  0  0  0  0  0  0  0  0  0  0
   35.8059  -35.2909  -14.9964 O   0  0  0  0  0  0  0  0  0  0  0  0
   35.1295  -33.4867  -13.6710 C   0  0  0  0  0  0  0  0  0  0  0  0
   35.6361  -33.5685  -12.3863 C   0  0  0  0  0  0  0  0  0  0  0  0
   34.1433  -35.4665  -16.4927 O   0  0  0  0  0  0  0  0  0  0  0  0
  2  1  1  1
  3  2  1  0
  4  5  2  0
  4  3  1  0
  6  5  1  0
  7 12  2  0
  7  6  1  0
  8  7  1  0
  9 10  1  0
  9  8  2  0
 10 11  2  0
 11 12  1  0
 12  4  1  0
 13  2  1  0
 14 13  2  0
 16 15  1  6
 16 18  1  0
 17 16  1  0
 19 18  1  6
 19 21  1  0
 19 20  1  0
 20 13  1  0
 21 30  1  0
 22 21  2  0
 23 24  1  0
 24 25  2  0
 24 34  1  0
 25 26  1  0
 26 27  2  0
 27 28  1  0
 29 28  1  1
 29 31  1  0
 30 29  1  0
 31 35  2  0
 31 32  1  0
 33 27  1  0
 34 33  2  0
M  END
$$$$
