GCP.pdb
     RDKit          3D

 18 18  0  0  1  0  0  0  0  0999 V2000
    4.7883  -20.2472   22.7438 N   0  0  0  0  0  0  0  0  0  0  0  0
    5.6344  -19.5805   23.7136 C   0  0  0  0  0  0  0  0  0  0  0  0
    5.7886  -18.1322   23.3966 C   0  0  0  0  0  0  0  0  0  0  0  0
    5.0721  -17.5975   22.5123 O   0  0  0  0  0  0  0  0  0  0  0  0
    6.7282  -17.2970   24.0576 N   0  0  0  0  0  0  0  0  0  0  0  0
    7.0107  -15.9278   23.5841 C   0  0  1  0  0  0  0  0  0  0  0  0
    7.4563  -15.0799   24.7780 C   0  0  0  0  0  0  0  0  0  0  0  0
    9.1316  -15.5890   25.2949 S   0  0  0  0  0  0  0  0  0  0  0  0
    7.9848  -15.9283   22.4993 C   0  0  0  0  0  0  0  0  0  0  0  0
    8.5641  -17.0148   22.2158 O   0  0  0  0  0  0  0  0  0  0  0  0
    8.3147  -14.7857   21.7481 N   0  0  0  0  0  0  0  0  0  0  0  0
    8.0877  -13.3759   22.0403 C   0  0  0  0  0  0  0  0  0  0  0  0
    7.9361  -12.6905   20.7181 C   0  0  0  0  0  0  0  0  0  0  0  0
    8.0870  -13.7998   19.7100 C   0  0  0  0  0  0  0  0  0  0  0  0
    8.9798  -14.7783   20.4358 C   0  0  1  0  0  0  0  0  0  0  0  0
   10.3332  -14.1943   20.5034 C   0  0  0  0  0  0  0  0  0  0  0  0
   10.9591  -14.0685   19.4215 O   0  0  0  0  0  0  0  0  0  0  0  0
   10.9642  -13.7762   21.6629 O   0  0  0  0  0  0  0  0  0  0  0  0
  1  2  1  0
  3  4  2  0
  3  2  1  0
  5  3  1  0
  6  5  1  0
  6  7  1  1
  8  7  1  0
  9 11  1  0
  9  6  1  0
 10  9  2  0
 11 12  1  0
 13 12  1  0
 14 15  1  0
 14 13  1  0
 15 11  1  0
 15 16  1  1
 16 18  1  0
 17 16  2  0
M  END
$$$$
