GCP.pdb
     RDKit          3D

 18 18  0  0  1  0  0  0  0  0999 V2000
    9.1884  -15.5399   20.5092 N   0  0  0  0  0  0  0  0  0  0  0  0
    8.2463  -15.7799   21.5843 C   0  0  0  0  0  0  0  0  0  0  0  0
    8.4971  -14.8727   22.7401 C   0  0  0  0  0  0  0  0  0  0  0  0
    9.6597  -14.4570   22.9784 O   0  0  0  0  0  0  0  0  0  0  0  0
    7.4650  -14.4383   23.6138 N   0  0  0  0  0  0  0  0  0  0  0  0
    7.7581  -13.9744   24.9841 C   0  0  1  0  0  0  0  0  0  0  0  0
    6.4700  -13.4222   25.5992 C   0  0  0  0  0  0  0  0  0  0  0  0
    6.7463  -13.0590   27.3669 S   0  0  0  0  0  0  0  0  0  0  0  0
    8.3581  -15.0317   25.7889 C   0  0  0  0  0  0  0  0  0  0  0  0
    8.2280  -16.2268   25.3998 O   0  0  0  0  0  0  0  0  0  0  0  0
    9.0764  -14.7953   26.9749 N   0  0  0  0  0  0  0  0  0  0  0  0
    8.9296  -13.7331   27.9622 C   0  0  0  0  0  0  0  0  0  0  0  0
   10.2885  -13.5143   28.5510 C   0  0  0  0  0  0  0  0  0  0  0  0
   11.1654  -14.5038   27.8289 C   0  0  0  0  0  0  0  0  0  0  0  0
   10.1933  -15.6069   27.4836 C   0  0  1  0  0  0  0  0  0  0  0  0
    9.8433  -16.3112   28.7321 C   0  0  0  0  0  0  0  0  0  0  0  0
    8.6571  -16.2129   29.1337 O   0  0  0  0  0  0  0  0  0  0  0  0
   10.7182  -17.0689   29.4923 O   0  0  0  0  0  0  0  0  0  0  0  0
  1  2  1  0
  3  4  2  0
  3  2  1  0
  5  3  1  0
  6  5  1  0
  6  7  1  1
  8  7  1  0
  9 11  1  0
  9  6  1  0
 10  9  2  0
 11 12  1  0
 13 12  1  0
 14 15  1  0
 14 13  1  0
 15 11  1  0
 15 16  1  1
 16 18  1  0
 17 16  2  0
M  END
$$$$
