GCP.pdb
     RDKit          3D

 18 18  0  0  1  0  0  0  0  0999 V2000
    4.5102  -20.0183   23.2994 N   0  0  0  0  0  0  0  0  0  0  0  0
    5.8564  -19.4810   23.2956 C   0  0  0  0  0  0  0  0  0  0  0  0
    5.8503  -17.9991   23.1340 C   0  0  0  0  0  0  0  0  0  0  0  0
    5.1176  -17.4597   22.2661 O   0  0  0  0  0  0  0  0  0  0  0  0
    6.6501  -17.1363   23.9298 N   0  0  0  0  0  0  0  0  0  0  0  0
    6.9901  -15.7706   23.4848 C   0  0  1  0  0  0  0  0  0  0  0  0
    7.5153  -14.9815   24.6866 C   0  0  0  0  0  0  0  0  0  0  0  0
    8.9537  -15.8483   25.4025 S   0  0  0  0  0  0  0  0  0  0  0  0
    7.9298  -15.7906   22.3702 C   0  0  0  0  0  0  0  0  0  0  0  0
    8.4622  -16.8926   22.0562 O   0  0  0  0  0  0  0  0  0  0  0  0
    8.2757  -14.6505   21.6226 N   0  0  0  0  0  0  0  0  0  0  0  0
    8.0711  -13.2384   21.9204 C   0  0  0  0  0  0  0  0  0  0  0  0
    7.9274  -12.5460   20.6010 C   0  0  0  0  0  0  0  0  0  0  0  0
    8.0592  -13.6537   19.5885 C   0  0  0  0  0  0  0  0  0  0  0  0
    8.9382  -14.6484   20.3089 C   0  0  1  0  0  0  0  0  0  0  0  0
   10.3006  -14.0857   20.3759 C   0  0  0  0  0  0  0  0  0  0  0  0
   10.6759  -13.6199   21.4805 O   0  0  0  0  0  0  0  0  0  0  0  0
   11.1937  -14.0314   19.3191 O   0  0  0  0  0  0  0  0  0  0  0  0
  1  2  1  0
  3  4  2  0
  3  2  1  0
  5  3  1  0
  6  5  1  0
  6  7  1  1
  8  7  1  0
  9 11  1  0
  9  6  1  0
 10  9  2  0
 11 12  1  0
 13 12  1  0
 14 15  1  0
 14 13  1  0
 15 11  1  0
 15 16  1  1
 16 18  1  0
 17 16  2  0
M  END
$$$$
