GCP.pdb
     RDKit          3D

 18 18  0  0  1  0  0  0  0  0999 V2000
    5.4182  -19.7031   23.3649 N   0  0  0  0  0  0  0  0  0  0  0  0
    6.3025  -18.8407   24.1234 C   0  0  0  0  0  0  0  0  0  0  0  0
    6.1565  -17.4153   23.7127 C   0  0  0  0  0  0  0  0  0  0  0  0
    5.5274  -17.1192   22.6650 O   0  0  0  0  0  0  0  0  0  0  0  0
    6.7049  -16.3401   24.4614 N   0  0  0  0  0  0  0  0  0  0  0  0
    7.0860  -15.0673   23.8186 C   0  0  1  0  0  0  0  0  0  0  0  0
    7.4657  -14.0631   24.9095 C   0  0  0  0  0  0  0  0  0  0  0  0
    6.0403  -13.8022   26.0199 S   0  0  0  0  0  0  0  0  0  0  0  0
    8.1473  -15.2612   22.8378 C   0  0  0  0  0  0  0  0  0  0  0  0
    8.7986  -16.3435   22.8672 O   0  0  0  0  0  0  0  0  0  0  0  0
    8.4857  -14.3103   21.8581 N   0  0  0  0  0  0  0  0  0  0  0  0
    8.2205  -12.8778   21.8131 C   0  0  0  0  0  0  0  0  0  0  0  0
    8.1097  -12.5150   20.3649 C   0  0  0  0  0  0  0  0  0  0  0  0
    8.3223  -13.8196   19.6422 C   0  0  0  0  0  0  0  0  0  0  0  0
    9.2032  -14.5827   20.6029 C   0  0  1  0  0  0  0  0  0  0  0  0
   10.5415  -13.9615   20.5832 C   0  0  0  0  0  0  0  0  0  0  0  0
   10.8464  -13.2235   21.5529 O   0  0  0  0  0  0  0  0  0  0  0  0
   11.4834  -14.1284   19.5820 O   0  0  0  0  0  0  0  0  0  0  0  0
  1  2  1  0
  3  4  2  0
  3  2  1  0
  5  3  1  0
  6  5  1  0
  6  7  1  1
  8  7  1  0
  9 11  1  0
  9  6  1  0
 10  9  2  0
 11 12  1  0
 13 12  1  0
 14 15  1  0
 14 13  1  0
 15 11  1  0
 15 16  1  1
 16 18  1  0
 17 16  2  0
M  END
$$$$
