GCP.pdb
     RDKit          3D

 18 18  0  0  1  0  0  0  0  0999 V2000
    6.4662  -19.9184   27.2655 N   0  0  0  0  0  0  0  0  0  0  0  0
    7.4089  -18.8180   27.3031 C   0  0  0  0  0  0  0  0  0  0  0  0
    6.8918  -17.6330   26.5612 C   0  0  0  0  0  0  0  0  0  0  0  0
    5.9480  -17.7619   25.7405 O   0  0  0  0  0  0  0  0  0  0  0  0
    7.4218  -16.3267   26.7349 N   0  0  0  0  0  0  0  0  0  0  0  0
    7.4040  -15.3350   25.6417 C   0  0  1  0  0  0  0  0  0  0  0  0
    7.7938  -13.9699   26.2138 C   0  0  0  0  0  0  0  0  0  0  0  0
    8.9982  -14.1980   27.5666 S   0  0  0  0  0  0  0  0  0  0  0  0
    8.2583  -15.7460   24.5340 C   0  0  0  0  0  0  0  0  0  0  0  0
    8.9901  -16.7644   24.6887 O   0  0  0  0  0  0  0  0  0  0  0  0
    8.3120  -15.0724   23.3004 N   0  0  0  0  0  0  0  0  0  0  0  0
    8.0416  -13.6754   22.9842 C   0  0  0  0  0  0  0  0  0  0  0  0
    7.5357  -13.6526   21.5754 C   0  0  0  0  0  0  0  0  0  0  0  0
    7.5441  -15.1002   21.1585 C   0  0  0  0  0  0  0  0  0  0  0  0
    8.6570  -15.6743   22.0029 C   0  0  1  0  0  0  0  0  0  0  0  0
    9.9368  -15.1620   21.4768 C   0  0  0  0  0  0  0  0  0  0  0  0
   10.5237  -14.2803   22.1522 O   0  0  0  0  0  0  0  0  0  0  0  0
   10.5384  -15.5764   20.3004 O   0  0  0  0  0  0  0  0  0  0  0  0
  1  2  1  0
  3  4  2  0
  3  2  1  0
  5  3  1  0
  6  5  1  0
  6  7  1  1
  8  7  1  0
  9 11  1  0
  9  6  1  0
 10  9  2  0
 11 12  1  0
 13 12  1  0
 14 15  1  0
 14 13  1  0
 15 11  1  0
 15 16  1  6
 16 18  1  0
 17 16  2  0
M  END
$$$$
