GCP.pdb
     RDKit          3D

 18 18  0  0  1  0  0  0  0  0999 V2000
    4.5314  -20.0821   22.0504 N   0  0  0  0  0  0  0  0  0  0  0  0
    5.5993  -19.6675   22.9384 C   0  0  0  0  0  0  0  0  0  0  0  0
    5.8096  -18.1927   22.8851 C   0  0  0  0  0  0  0  0  0  0  0  0
    5.2798  -17.5100   21.9716 O   0  0  0  0  0  0  0  0  0  0  0  0
    6.5988  -17.4944   23.8373 N   0  0  0  0  0  0  0  0  0  0  0  0
    7.0800  -16.1223   23.5833 C   0  0  1  0  0  0  0  0  0  0  0  0
    7.5538  -15.5176   24.9072 C   0  0  0  0  0  0  0  0  0  0  0  0
    8.1597  -13.8198   24.6188 S   0  0  0  0  0  0  0  0  0  0  0  0
    8.1117  -16.1004   22.5533 C   0  0  0  0  0  0  0  0  0  0  0  0
    8.7664  -17.1598   22.3396 O   0  0  0  0  0  0  0  0  0  0  0  0
    8.4180  -14.9649   21.7817 N   0  0  0  0  0  0  0  0  0  0  0  0
    7.9625  -13.5875   21.9217 C   0  0  0  0  0  0  0  0  0  0  0  0
    7.9587  -13.0027   20.5437 C   0  0  0  0  0  0  0  0  0  0  0  0
    8.4273  -14.1323   19.6640 C   0  0  0  0  0  0  0  0  0  0  0  0
    9.2973  -14.9346   20.6025 C   0  0  1  0  0  0  0  0  0  0  0  0
   10.5304  -14.1630   20.8500 C   0  0  0  0  0  0  0  0  0  0  0  0
   10.6452  -13.6080   21.9711 O   0  0  0  0  0  0  0  0  0  0  0  0
   11.5665  -14.0038   19.9453 O   0  0  0  0  0  0  0  0  0  0  0  0
  1  2  1  0
  3  4  2  0
  3  2  1  0
  5  3  1  0
  6  5  1  0
  6  7  1  1
  8  7  1  0
  9 11  1  0
  9  6  1  0
 10  9  2  0
 11 12  1  0
 13 12  1  0
 14 15  1  0
 14 13  1  0
 15 11  1  0
 15 16  1  1
 16 18  1  0
 17 16  2  0
M  END
$$$$
