GCP.pdb
     RDKit          3D

 18 18  0  0  1  0  0  0  0  0999 V2000
    5.3492  -20.2816   23.6040 N   0  0  0  0  0  0  0  0  0  0  0  0
    6.4312  -19.5290   23.0007 C   0  0  0  0  0  0  0  0  0  0  0  0
    6.1893  -18.0609   23.0910 C   0  0  0  0  0  0  0  0  0  0  0  0
    5.2646  -17.5292   22.4252 O   0  0  0  0  0  0  0  0  0  0  0  0
    6.9685  -17.2030   23.9121 N   0  0  0  0  0  0  0  0  0  0  0  0
    7.2442  -15.8055   23.5254 C   0  0  1  0  0  0  0  0  0  0  0  0
    7.7442  -15.0469   24.7572 C   0  0  0  0  0  0  0  0  0  0  0  0
    6.4090  -13.9801   25.3988 S   0  0  0  0  0  0  0  0  0  0  0  0
    8.1744  -15.7351   22.4049 C   0  0  0  0  0  0  0  0  0  0  0  0
    8.7567  -16.7965   22.0431 O   0  0  0  0  0  0  0  0  0  0  0  0
    8.4588  -14.5505   21.7019 N   0  0  0  0  0  0  0  0  0  0  0  0
    8.1478  -13.1662   22.0360 C   0  0  0  0  0  0  0  0  0  0  0  0
    7.9903  -12.4437   20.7344 C   0  0  0  0  0  0  0  0  0  0  0  0
    8.2261  -13.5067   19.6933 C   0  0  0  0  0  0  0  0  0  0  0  0
    9.1537  -14.4605   20.4082 C   0  0  1  0  0  0  0  0  0  0  0  0
   10.4709  -13.8070   20.5305 C   0  0  0  0  0  0  0  0  0  0  0  0
   10.7667  -13.3158   21.6482 O   0  0  0  0  0  0  0  0  0  0  0  0
   11.4025  -13.6935   19.5123 O   0  0  0  0  0  0  0  0  0  0  0  0
  1  2  1  0
  3  4  2  0
  3  2  1  0
  5  3  1  0
  6  5  1  0
  6  7  1  1
  8  7  1  0
  9 11  1  0
  9  6  1  0
 10  9  2  0
 11 12  1  0
 13 12  1  0
 14 15  1  0
 14 13  1  0
 15 11  1  0
 15 16  1  1
 16 18  1  0
 17 16  2  0
M  END
$$$$
