SYH.pdb
     RDKit          3D

 29 30  0  0  1  0  0  0  0  0999 V2000
    8.9834  -19.0116   19.9330 O   0  0  0  0  0  0  0  0  0  0  0  0
    8.2016  -18.1582   19.1287 C   0  0  0  0  0  0  0  0  0  0  0  0
    8.9062  -16.8259   19.1093 C   0  0  2  0  0  0  0  0  0  0  0  0
   10.2150  -17.0366   18.5270 N   0  0  0  0  0  0  0  0  0  0  0  0
    9.0579  -16.2181   20.4251 C   0  0  0  0  0  0  0  0  0  0  0  0
   10.1789  -16.2414   20.9862 O   0  0  0  0  0  0  0  0  0  0  0  0
    7.2650  -12.1478   28.1378 O   0  0  0  0  0  0  0  0  0  0  0  0
    7.1809  -12.6761   26.8570 C   0  0  0  0  0  0  0  0  0  0  0  0
    7.8634  -12.0441   25.8382 C   0  0  0  0  0  0  0  0  0  0  0  0
    7.8074  -12.5400   24.5352 C   0  0  0  0  0  0  0  0  0  0  0  0
    7.0787  -13.6640   24.2201 C   0  0  0  0  0  0  0  0  0  0  0  0
    7.0105  -14.1916   22.8677 C   0  0  0  0  0  0  0  0  0  0  0  0
    8.1989  -15.0160   22.4724 C   0  0  2  0  0  0  0  0  0  0  0  0
    8.0011  -15.5817   21.1426 N   0  0  0  0  0  0  0  0  0  0  0  0
    8.5340  -16.0527   23.4603 C   0  0  0  0  0  0  0  0  0  0  0  0
    7.9106  -17.1486   23.4287 O   0  0  0  0  0  0  0  0  0  0  0  0
    6.4005  -14.2801   25.2696 C   0  0  0  0  0  0  0  0  0  0  0  0
    6.4541  -13.7949   26.5496 C   0  0  0  0  0  0  0  0  0  0  0  0
    9.5281  -15.8814   24.4519 N   0  0  0  0  0  0  0  0  0  0  0  0
    9.8913  -16.9985   25.3048 C   0  0  1  0  0  0  0  0  0  0  0  0
   11.1605  -17.6127   24.7721 C   0  0  0  0  0  0  0  0  0  0  0  0
   11.6901  -18.7054   25.5876 C   0  0  0  0  0  0  0  0  0  0  0  0
   11.0608  -19.1692   26.7310 C   0  0  0  0  0  0  0  0  0  0  0  0
   11.7768  -20.1733   27.2660 N   0  0  0  0  0  0  0  0  0  0  0  0
   12.8426  -20.3456   26.4774 C   0  0  0  0  0  0  0  0  0  0  0  0
   12.7938  -19.4666   25.4695 N   0  0  0  0  0  0  0  0  0  0  0  0
   10.0871  -16.4397   26.6654 C   0  0  0  0  0  0  0  0  0  0  0  0
   10.3551  -15.2126   26.7745 O   0  0  0  0  0  0  0  0  0  0  0  0
    9.9961  -17.1710   27.8346 O   0  0  0  0  0  0  0  0  0  0  0  0
  1  2  1  0
  2  3  1  0
  3  4  1  1
  5  3  1  0
  5  6  2  0
  7  8  1  0
  8  9  2  0
  9 10  1  0
 11 10  2  0
 11 12  1  0
 13 12  1  1
 13 14  1  0
 14  5  1  0
 15 13  1  0
 16 15  2  0
 17 11  1  0
 18  8  1  0
 18 17  2  0
 19 15  1  0
 20 21  1  6
 20 19  1  0
 21 22  1  0
 22 26  1  0
 23 22  2  0
 23 24  1  0
 24 25  1  0
 26 25  2  0
 27 29  1  0
 27 20  1  0
 28 27  2  0
M  END
$$$$
