SYH.pdb
     RDKit          3D

 29 30  0  0  1  0  0  0  0  0999 V2000
    8.9673  -18.8242   21.2005 O   0  0  0  0  0  0  0  0  0  0  0  0
    9.6577  -18.0974   20.2099 C   0  0  0  0  0  0  0  0  0  0  0  0
    9.5463  -16.6435   20.5916 C   0  0  2  0  0  0  0  0  0  0  0  0
   10.2562  -15.8769   19.5892 N   0  0  0  0  0  0  0  0  0  0  0  0
   10.0907  -16.3343   21.9075 C   0  0  0  0  0  0  0  0  0  0  0  0
   11.3335  -16.2598   22.0555 O   0  0  0  0  0  0  0  0  0  0  0  0
   10.6963  -14.5302   30.6064 O   0  0  0  0  0  0  0  0  0  0  0  0
   10.2477  -14.7115   29.3054 C   0  0  0  0  0  0  0  0  0  0  0  0
   10.5183  -13.7311   28.3733 C   0  0  0  0  0  0  0  0  0  0  0  0
   10.0867  -13.8713   27.0538 C   0  0  0  0  0  0  0  0  0  0  0  0
    9.3836  -14.9783   26.6368 C   0  0  0  0  0  0  0  0  0  0  0  0
    8.9270  -15.1375   25.2663 C   0  0  0  0  0  0  0  0  0  0  0  0
    9.8940  -15.8644   24.3804 C   0  0  2  0  0  0  0  0  0  0  0  0
    9.2973  -16.1039   23.0712 N   0  0  0  0  0  0  0  0  0  0  0  0
   10.4031  -17.1063   24.9815 C   0  0  0  0  0  0  0  0  0  0  0  0
    9.6269  -18.0948   25.0874 O   0  0  0  0  0  0  0  0  0  0  0  0
    9.1257  -15.9508   27.6005 C   0  0  0  0  0  0  0  0  0  0  0  0
    9.5485  -15.8153   28.8964 C   0  0  0  0  0  0  0  0  0  0  0  0
   11.7299  -17.2493   25.4507 N   0  0  0  0  0  0  0  0  0  0  0  0
   12.1654  -18.5225   25.9954 C   0  0  1  0  0  0  0  0  0  0  0  0
   13.6311  -18.6959   25.6897 C   0  0  0  0  0  0  0  0  0  0  0  0
   13.9246  -18.9821   24.2856 C   0  0  0  0  0  0  0  0  0  0  0  0
   12.9559  -19.3691   23.3744 C   0  0  0  0  0  0  0  0  0  0  0  0
   13.5192  -19.5606   22.1690 N   0  0  0  0  0  0  0  0  0  0  0  0
   14.8230  -19.3002   22.3103 C   0  0  0  0  0  0  0  0  0  0  0  0
   15.0696  -18.9528   23.5789 N   0  0  0  0  0  0  0  0  0  0  0  0
   11.9186  -18.4586   27.4572 C   0  0  0  0  0  0  0  0  0  0  0  0
   12.2546  -19.4474   28.1636 O   0  0  0  0  0  0  0  0  0  0  0  0
   11.3425  -17.3851   28.1095 O   0  0  0  0  0  0  0  0  0  0  0  0
  1  2  1  0
  2  3  1  0
  3  4  1  6
  5  3  1  0
  5  6  2  0
  7  8  1  0
  8  9  2  0
  9 10  1  0
 11 10  2  0
 11 12  1  0
 13 12  1  1
 13 14  1  0
 14  5  1  0
 15 13  1  0
 16 15  2  0
 17 11  1  0
 18  8  1  0
 18 17  2  0
 19 15  1  0
 20 21  1  1
 20 19  1  0
 21 22  1  0
 22 26  1  0
 23 22  2  0
 23 24  1  0
 24 25  1  0
 26 25  2  0
 27 29  1  0
 27 20  1  0
 28 27  2  0
M  END
$$$$
