SYH.pdb
     RDKit          3D

 29 30  0  0  1  0  0  0  0  0999 V2000
    8.7288  -19.0711   19.8589 O   0  0  0  0  0  0  0  0  0  0  0  0
    7.8323  -18.1335   19.3079 C   0  0  0  0  0  0  0  0  0  0  0  0
    8.5832  -16.8300   19.2123 C   0  0  2  0  0  0  0  0  0  0  0  0
    9.8285  -17.0971   18.5238 N   0  0  0  0  0  0  0  0  0  0  0  0
    8.8696  -16.2168   20.5028 C   0  0  0  0  0  0  0  0  0  0  0  0
   10.0269  -16.2993   20.9781 O   0  0  0  0  0  0  0  0  0  0  0  0
    7.8135  -12.3536   28.4486 O   0  0  0  0  0  0  0  0  0  0  0  0
    7.6783  -12.7631   27.1292 C   0  0  0  0  0  0  0  0  0  0  0  0
    6.6360  -13.6068   26.8055 C   0  0  0  0  0  0  0  0  0  0  0  0
    6.4616  -14.0437   25.4918 C   0  0  0  0  0  0  0  0  0  0  0  0
    7.3115  -13.6550   24.4817 C   0  0  0  0  0  0  0  0  0  0  0  0
    7.1428  -14.1026   23.1094 C   0  0  0  0  0  0  0  0  0  0  0  0
    8.1980  -15.0611   22.6448 C   0  0  2  0  0  0  0  0  0  0  0  0
    7.9091  -15.5110   21.2877 N   0  0  0  0  0  0  0  0  0  0  0  0
    8.3916  -16.1930   23.5635 C   0  0  0  0  0  0  0  0  0  0  0  0
    7.4989  -17.0812   23.6327 O   0  0  0  0  0  0  0  0  0  0  0  0
    8.3542  -12.8031   24.8394 C   0  0  0  0  0  0  0  0  0  0  0  0
    8.5272  -12.3729   26.1284 C   0  0  0  0  0  0  0  0  0  0  0  0
    9.5377  -16.3369   24.3801 N   0  0  0  0  0  0  0  0  0  0  0  0
    9.6461  -17.4784   25.2704 C   0  0  1  0  0  0  0  0  0  0  0  0
   10.9274  -18.2077   24.9575 C   0  0  0  0  0  0  0  0  0  0  0  0
   10.8800  -19.0142   23.7382 C   0  0  0  0  0  0  0  0  0  0  0  0
    9.7647  -19.7409   23.3552 C   0  0  0  0  0  0  0  0  0  0  0  0
   10.0153  -20.3785   22.1987 N   0  0  0  0  0  0  0  0  0  0  0  0
   11.2675  -20.0636   21.8517 C   0  0  0  0  0  0  0  0  0  0  0  0
   11.7892  -19.2452   22.7730 N   0  0  0  0  0  0  0  0  0  0  0  0
    9.6537  -16.9333   26.6505 C   0  0  0  0  0  0  0  0  0  0  0  0
    9.7655  -15.6863   26.7998 O   0  0  0  0  0  0  0  0  0  0  0  0
    9.5458  -17.6978   27.7967 O   0  0  0  0  0  0  0  0  0  0  0  0
  1  2  1  0
  2  3  1  0
  3  4  1  1
  5  3  1  0
  5  6  2  0
  7  8  1  0
  8  9  2  0
  9 10  1  0
 11 10  2  0
 11 12  1  0
 13 12  1  1
 13 14  1  0
 14  5  1  0
 15 13  1  0
 16 15  2  0
 17 11  1  0
 18  8  1  0
 18 17  2  0
 19 15  1  0
 20 21  1  6
 20 19  1  0
 21 22  1  0
 22 26  1  0
 23 22  2  0
 23 24  1  0
 24 25  1  0
 26 25  2  0
 27 29  1  0
 27 20  1  0
 28 27  2  0
M  END
$$$$
