SYH.pdb
     RDKit          3D

 29 30  0  0  1  0  0  0  0  0999 V2000
    9.0398  -18.0967   19.2057 O   0  0  0  0  0  0  0  0  0  0  0  0
   10.1438  -17.3657   19.6885 C   0  0  0  0  0  0  0  0  0  0  0  0
    9.6242  -15.9987   20.0533 C   0  0  2  0  0  0  0  0  0  0  0  0
   10.4798  -15.0241   19.4095 N   0  0  0  0  0  0  0  0  0  0  0  0
    9.5956  -15.7402   21.4871 C   0  0  0  0  0  0  0  0  0  0  0  0
   10.6421  -15.3593   22.0630 O   0  0  0  0  0  0  0  0  0  0  0  0
    6.1764  -10.6385   26.9107 O   0  0  0  0  0  0  0  0  0  0  0  0
    6.3898  -11.8675   26.3018 C   0  0  0  0  0  0  0  0  0  0  0  0
    6.9675  -11.8900   25.0493 C   0  0  0  0  0  0  0  0  0  0  0  0
    7.2006  -13.1026   24.3995 C   0  0  0  0  0  0  0  0  0  0  0  0
    6.8677  -14.3072   24.9756 C   0  0  0  0  0  0  0  0  0  0  0  0
    7.1038  -15.5777   24.3106 C   0  0  0  0  0  0  0  0  0  0  0  0
    8.4888  -15.7295   23.7564 C   0  0  2  0  0  0  0  0  0  0  0  0
    8.4378  -15.8913   22.3077 N   0  0  0  0  0  0  0  0  0  0  0  0
    9.2497  -16.8120   24.3982 C   0  0  0  0  0  0  0  0  0  0  0  0
    9.6338  -17.7864   23.6955 O   0  0  0  0  0  0  0  0  0  0  0  0
    6.2861  -14.2523   26.2404 C   0  0  0  0  0  0  0  0  0  0  0  0
    6.0564  -13.0629   26.8801 C   0  0  0  0  0  0  0  0  0  0  0  0
    9.5752  -16.8156   25.7748 N   0  0  0  0  0  0  0  0  0  0  0  0
   10.5116  -17.7987   26.2885 C   0  0  1  0  0  0  0  0  0  0  0  0
   11.8255  -17.6274   25.5701 C   0  0  0  0  0  0  0  0  0  0  0  0
   11.9561  -18.4278   24.3528 C   0  0  0  0  0  0  0  0  0  0  0  0
   10.9383  -19.2286   23.8617 C   0  0  0  0  0  0  0  0  0  0  0  0
   11.3466  -19.8401   22.7364 N   0  0  0  0  0  0  0  0  0  0  0  0
   12.6017  -19.4359   22.5151 C   0  0  0  0  0  0  0  0  0  0  0  0
   12.9705  -18.5885   23.4830 N   0  0  0  0  0  0  0  0  0  0  0  0
   10.6469  -17.5285   27.7413 C   0  0  0  0  0  0  0  0  0  0  0  0
   11.4171  -18.2637   28.4166 O   0  0  0  0  0  0  0  0  0  0  0  0
    9.9855  -16.5205   28.4168 O   0  0  0  0  0  0  0  0  0  0  0  0
  1  2  1  0
  2  3  1  0
  3  4  1  6
  5  3  1  0
  5  6  2  0
  7  8  1  0
  8  9  2  0
  9 10  1  0
 11 10  2  0
 11 12  1  0
 13 12  1  1
 13 14  1  0
 14  5  1  0
 15 13  1  0
 16 15  2  0
 17 11  1  0
 18  8  1  0
 18 17  2  0
 19 15  1  0
 20 21  1  6
 20 19  1  0
 21 22  1  0
 22 26  1  0
 23 22  2  0
 23 24  1  0
 24 25  1  0
 26 25  2  0
 27 29  1  0
 27 20  1  0
 28 27  2  0
M  END
$$$$
