SYH.pdb
     RDKit          3D

 29 30  0  0  1  0  0  0  0  0999 V2000
    9.6361  -18.5865   20.0517 O   0  0  0  0  0  0  0  0  0  0  0  0
    8.7829  -17.7572   19.2962 C   0  0  0  0  0  0  0  0  0  0  0  0
    9.3808  -16.3743   19.3426 C   0  0  2  0  0  0  0  0  0  0  0  0
   10.7331  -16.4698   18.8343 N   0  0  0  0  0  0  0  0  0  0  0  0
    9.4090  -15.7868   20.6759 C   0  0  0  0  0  0  0  0  0  0  0  0
   10.5009  -15.7023   21.2862 O   0  0  0  0  0  0  0  0  0  0  0  0
    6.9678  -12.1719   28.4222 O   0  0  0  0  0  0  0  0  0  0  0  0
    7.0068  -12.6264   27.1112 C   0  0  0  0  0  0  0  0  0  0  0  0
    6.3433  -13.7951   26.7999 C   0  0  0  0  0  0  0  0  0  0  0  0
    6.3556  -14.2893   25.4950 C   0  0  0  0  0  0  0  0  0  0  0  0
    7.0213  -13.6385   24.4816 C   0  0  0  0  0  0  0  0  0  0  0  0
    7.0434  -14.1416   23.1183 C   0  0  0  0  0  0  0  0  0  0  0  0
    8.3139  -14.8461   22.7472 C   0  0  2  0  0  0  0  0  0  0  0  0
    8.2593  -15.2872   21.3580 N   0  0  0  0  0  0  0  0  0  0  0  0
    8.6445  -15.9533   23.6569 C   0  0  0  0  0  0  0  0  0  0  0  0
    8.2703  -17.1200   23.3578 O   0  0  0  0  0  0  0  0  0  0  0  0
    7.6817  -12.4613   24.8268 C   0  0  0  0  0  0  0  0  0  0  0  0
    7.6709  -11.9743   26.1071 C   0  0  0  0  0  0  0  0  0  0  0  0
    9.3667  -15.7744   24.8600 N   0  0  0  0  0  0  0  0  0  0  0  0
    9.8046  -16.9351   25.6138 C   0  0  1  0  0  0  0  0  0  0  0  0
   11.0289  -17.5049   24.9444 C   0  0  0  0  0  0  0  0  0  0  0  0
   10.7555  -18.6129   24.0296 C   0  0  0  0  0  0  0  0  0  0  0  0
    9.4791  -19.0886   23.7783 C   0  0  0  0  0  0  0  0  0  0  0  0
    9.5396  -20.1051   22.9009 N   0  0  0  0  0  0  0  0  0  0  0  0
   10.8311  -20.2737   22.5991 C   0  0  0  0  0  0  0  0  0  0  0  0
   11.5634  -19.3801   23.2744 N   0  0  0  0  0  0  0  0  0  0  0  0
   10.1084  -16.4538   26.9842 C   0  0  0  0  0  0  0  0  0  0  0  0
   10.2783  -15.2167   27.1590 O   0  0  0  0  0  0  0  0  0  0  0  0
   10.2197  -17.2681   28.0952 O   0  0  0  0  0  0  0  0  0  0  0  0
  1  2  1  0
  2  3  1  0
  3  4  1  1
  5  3  1  0
  5  6  2  0
  7  8  1  0
  8  9  2  0
  9 10  1  0
 11 10  2  0
 11 12  1  0
 13 12  1  1
 13 14  1  0
 14  5  1  0
 15 13  1  0
 16 15  2  0
 17 11  1  0
 18  8  1  0
 18 17  2  0
 19 15  1  0
 20 21  1  6
 20 19  1  0
 21 22  1  0
 22 26  1  0
 23 22  2  0
 23 24  1  0
 24 25  1  0
 26 25  2  0
 27 29  1  0
 27 20  1  0
 28 27  2  0
M  END
$$$$
