ICG.pdb
     RDKit          3D

 19 18  0  0  1  0  0  0  0  0999 V2000
   28.8718  -12.2843  -16.5383 C   0  0  0  0  0  0  0  0  0  0  0  0
   27.4593  -12.6870  -16.2070 C   0  0  0  0  0  0  0  0  0  0  0  0
   26.5029  -11.5389  -16.3967 C   0  0  2  0  0  0  0  0  0  0  0  0
   26.8221  -10.4586  -15.3935 C   0  0  0  0  0  0  0  0  0  0  0  0
   25.0878  -12.0507  -16.2327 C   0  0  2  0  0  0  0  0  0  0  0  0
   24.8964  -13.1588  -17.1374 N   0  0  0  0  0  0  0  0  0  0  0  0
   24.0979  -10.9749  -16.4908 C   0  0  0  0  0  0  0  0  0  0  0  0
   24.0462  -10.4586  -17.6352 O   0  0  0  0  0  0  0  0  0  0  0  0
   23.1992  -10.4943  -15.5057 N   0  0  0  0  0  0  0  0  0  0  0  0
   22.3103   -9.4131  -15.8110 C   0  0  1  0  0  0  0  0  0  0  0  0
   20.8778   -9.8468  -15.5174 C   0  0  0  0  0  0  0  0  0  0  0  0
   19.7675   -8.4871  -15.9742 S   0  0  0  0  0  0  0  0  0  0  0  0
   22.6331   -8.1826  -15.0540 C   0  0  0  0  0  0  0  0  0  0  0  0
   22.8585   -8.2521  -13.8393 O   0  0  0  0  0  0  0  0  0  0  0  0
   22.6793   -6.9525  -15.7231 N   0  0  0  0  0  0  0  0  0  0  0  0
   22.9888   -5.6997  -15.0857 C   0  0  0  0  0  0  0  0  0  0  0  0
   21.8111   -5.2136  -14.3494 C   0  0  0  0  0  0  0  0  0  0  0  0
   20.6360   -5.9171  -14.4144 O   0  0  0  0  0  0  0  0  0  0  0  0
   21.8129   -4.1681  -13.6464 O   0  0  0  0  0  0  0  0  0  0  0  0
  1  2  1  0
  2  3  1  0
  3  4  1  1
  3  5  1  0
  5  6  1  6
  7  5  1  0
  8  7  2  0
  9  7  1  0
 10  9  1  0
 10 13  1  0
 10 11  1  1
 12 11  1  0
 13 14  2  0
 13 15  1  0
 15 16  1  0
 16 17  1  0
 17 18  1  0
 19 17  2  0
M  END
$$$$
