ICG.pdb
     RDKit          3D

 19 18  0  0  1  0  0  0  0  0999 V2000
   23.0569  -12.0135  -21.7965 C   0  0  0  0  0  0  0  0  0  0  0  0
   23.8992  -11.3796  -20.7214 C   0  0  0  0  0  0  0  0  0  0  0  0
   23.1773  -11.3594  -19.3996 C   0  0  2  0  0  0  0  0  0  0  0  0
   22.4760  -12.6797  -19.1991 C   0  0  0  0  0  0  0  0  0  0  0  0
   22.2002  -10.2032  -19.3949 C   0  0  2  0  0  0  0  0  0  0  0  0
   22.8949   -9.0179  -19.8371 N   0  0  0  0  0  0  0  0  0  0  0  0
   21.6140  -10.0053  -18.0455 C   0  0  0  0  0  0  0  0  0  0  0  0
   20.9471  -10.9372  -17.5301 O   0  0  0  0  0  0  0  0  0  0  0  0
   21.7679   -8.8096  -17.3000 N   0  0  0  0  0  0  0  0  0  0  0  0
   21.1695   -8.6896  -16.0039 C   0  0  1  0  0  0  0  0  0  0  0  0
   22.1891   -8.0970  -15.0366 C   0  0  0  0  0  0  0  0  0  0  0  0
   21.4085   -7.9540  -13.4056 S   0  0  0  0  0  0  0  0  0  0  0  0
   19.9437   -7.8599  -16.0200 C   0  0  0  0  0  0  0  0  0  0  0  0
   19.9008   -6.8438  -16.7249 O   0  0  0  0  0  0  0  0  0  0  0  0
   18.8452   -8.2358  -15.2356 N   0  0  0  0  0  0  0  0  0  0  0  0
   17.6348   -7.4654  -15.1221 C   0  0  0  0  0  0  0  0  0  0  0  0
   16.6956   -8.1476  -14.2176 C   0  0  0  0  0  0  0  0  0  0  0  0
   15.5160   -7.5351  -13.8815 O   0  0  0  0  0  0  0  0  0  0  0  0
   16.9108   -9.2850  -13.7204 O   0  0  0  0  0  0  0  0  0  0  0  0
  1  2  1  0
  2  3  1  0
  3  4  1  6
  3  5  1  0
  5  6  1  1
  7  5  1  0
  8  7  2  0
  9  7  1  0
 10  9  1  0
 10 13  1  0
 10 11  1  1
 12 11  1  0
 13 14  2  0
 13 15  1  0
 15 16  1  0
 16 17  1  0
 17 18  1  0
 19 17  2  0
M  END
$$$$
