ICG.pdb
     RDKit          3D

 19 18  0  0  1  0  0  0  0  0999 V2000
   18.7031  -12.6999  -19.3596 C   0  0  0  0  0  0  0  0  0  0  0  0
   19.7642  -12.3485  -18.3509 C   0  0  0  0  0  0  0  0  0  0  0  0
   19.4402  -11.0607  -17.6400 C   0  0  2  0  0  0  0  0  0  0  0  0
   19.1756   -9.9843  -18.6631 C   0  0  0  0  0  0  0  0  0  0  0  0
   20.5988  -10.6975  -16.7361 C   0  0  2  0  0  0  0  0  0  0  0  0
   20.9430  -11.8569  -15.9485 N   0  0  0  0  0  0  0  0  0  0  0  0
   20.2558   -9.5446  -15.8659 C   0  0  0  0  0  0  0  0  0  0  0  0
   19.9821   -8.4406  -16.3998 O   0  0  0  0  0  0  0  0  0  0  0  0
   20.2202   -9.6235  -14.4511 N   0  0  0  0  0  0  0  0  0  0  0  0
   19.8463   -8.4773  -13.6774 C   0  0  1  0  0  0  0  0  0  0  0  0
   19.2292   -8.9428  -12.3624 C   0  0  0  0  0  0  0  0  0  0  0  0
   17.7210   -9.8765  -12.7417 S   0  0  0  0  0  0  0  0  0  0  0  0
   20.9897   -7.5759  -13.4101 C   0  0  0  0  0  0  0  0  0  0  0  0
   22.1134   -8.0543  -13.2116 O   0  0  0  0  0  0  0  0  0  0  0  0
   20.7851   -6.1900  -13.3852 N   0  0  0  0  0  0  0  0  0  0  0  0
   21.8397   -5.2225  -13.2323 C   0  0  0  0  0  0  0  0  0  0  0  0
   21.8694   -4.3321  -14.4035 C   0  0  0  0  0  0  0  0  0  0  0  0
   22.7001   -3.2413  -14.4019 O   0  0  0  0  0  0  0  0  0  0  0  0
   21.1642   -4.5117  -15.4319 O   0  0  0  0  0  0  0  0  0  0  0  0
  1  2  1  0
  2  3  1  0
  3  4  1  6
  3  5  1  0
  5  6  1  1
  7  5  1  0
  8  7  2  0
  9  7  1  0
 10  9  1  0
 10 13  1  0
 10 11  1  1
 12 11  1  0
 13 14  2  0
 13 15  1  0
 15 16  1  0
 16 17  1  0
 17 18  1  0
 19 17  2  0
M  END
$$$$
