ICG.pdb
     RDKit          3D

 19 18  0  0  1  0  0  0  0  0999 V2000
   21.6387  -20.6264  -10.2430 C   0  0  0  0  0  0  0  0  0  0  0  0
   22.9548  -21.1370   -9.7194 C   0  0  0  0  0  0  0  0  0  0  0  0
   24.1085  -20.6210  -10.5389 C   0  0  2  0  0  0  0  0  0  0  0  0
   23.9649  -21.1110  -11.9582 C   0  0  0  0  0  0  0  0  0  0  0  0
   25.4024  -21.0965   -9.9136 C   0  0  2  0  0  0  0  0  0  0  0  0
   25.4387  -20.6456   -8.5430 N   0  0  0  0  0  0  0  0  0  0  0  0
   26.5769  -20.5956  -10.6709 C   0  0  0  0  0  0  0  0  0  0  0  0
   26.8937  -19.3840  -10.5692 O   0  0  0  0  0  0  0  0  0  0  0  0
   27.3678  -21.4191  -11.5107 N   0  0  0  0  0  0  0  0  0  0  0  0
   28.4192  -20.8444  -12.2958 C   0  0  1  0  0  0  0  0  0  0  0  0
   29.7394  -21.5141  -11.9284 C   0  0  0  0  0  0  0  0  0  0  0  0
   30.0116  -21.2950  -10.1484 S   0  0  0  0  0  0  0  0  0  0  0  0
   28.1743  -20.9699  -13.7503 C   0  0  0  0  0  0  0  0  0  0  0  0
   28.2213  -22.0845  -14.2855 O   0  0  0  0  0  0  0  0  0  0  0  0
   27.8918  -19.8232  -14.5043 N   0  0  0  0  0  0  0  0  0  0  0  0
   27.6912  -19.8253  -15.9296 C   0  0  0  0  0  0  0  0  0  0  0  0
   26.2873  -19.5057  -16.2333 C   0  0  0  0  0  0  0  0  0  0  0  0
   25.8693  -18.2003  -16.2010 O   0  0  0  0  0  0  0  0  0  0  0  0
   25.4241  -20.3749  -16.5280 O   0  0  0  0  0  0  0  0  0  0  0  0
  1  2  1  0
  2  3  1  0
  3  4  1  6
  3  5  1  0
  5  6  1  1
  7  5  1  0
  8  7  2  0
  9  7  1  0
 10  9  1  0
 10 13  1  0
 10 11  1  6
 12 11  1  0
 13 14  2  0
 13 15  1  0
 15 16  1  0
 16 17  1  0
 17 18  1  0
 19 17  2  0
M  END
$$$$
