ICG.pdb
     RDKit          3D

 19 18  0  0  1  0  0  0  0  0999 V2000
   21.7430  -13.7972  -19.5542 C   0  0  0  0  0  0  0  0  0  0  0  0
   20.6986  -13.5216  -18.5054 C   0  0  0  0  0  0  0  0  0  0  0  0
   20.2145  -12.0970  -18.5743 C   0  0  2  0  0  0  0  0  0  0  0  0
   20.2148  -11.6439  -20.0131 C   0  0  0  0  0  0  0  0  0  0  0  0
   21.1159  -11.2334  -17.7182 C   0  0  2  0  0  0  0  0  0  0  0  0
   21.1152  -11.7645  -16.3763 N   0  0  0  0  0  0  0  0  0  0  0  0
   20.6687   -9.8179  -17.7315 C   0  0  0  0  0  0  0  0  0  0  0  0
   20.6809   -9.1870  -18.8180 O   0  0  0  0  0  0  0  0  0  0  0  0
   20.2243   -9.1333  -16.5727 N   0  0  0  0  0  0  0  0  0  0  0  0
   19.7661   -7.7794  -16.6700 C   0  0  1  0  0  0  0  0  0  0  0  0
   18.3831   -7.6740  -16.0354 C   0  0  0  0  0  0  0  0  0  0  0  0
   17.5610   -9.2831  -16.1942 S   0  0  0  0  0  0  0  0  0  0  0  0
   20.6929   -6.8197  -16.0288 C   0  0  0  0  0  0  0  0  0  0  0  0
   20.4939   -5.6041  -16.1463 O   0  0  0  0  0  0  0  0  0  0  0  0
   21.7859   -7.3003  -15.2954 N   0  0  0  0  0  0  0  0  0  0  0  0
   22.7677   -6.4565  -14.6663 C   0  0  0  0  0  0  0  0  0  0  0  0
   22.1388   -5.6892  -13.5795 C   0  0  0  0  0  0  0  0  0  0  0  0
   20.7921   -5.8153  -13.3550 O   0  0  0  0  0  0  0  0  0  0  0  0
   22.7730   -4.9053  -12.8242 O   0  0  0  0  0  0  0  0  0  0  0  0
  1  2  1  0
  2  3  1  0
  3  4  1  6
  3  5  1  0
  5  6  1  1
  7  5  1  0
  8  7  2  0
  9  7  1  0
 10  9  1  0
 10 13  1  0
 10 11  1  1
 12 11  1  0
 13 14  2  0
 13 15  1  0
 15 16  1  0
 16 17  1  0
 17 18  1  0
 19 17  2  0
M  END
$$$$
