ICG.pdb
     RDKit          3D

 19 18  0  0  1  0  0  0  0  0999 V2000
   17.1714  -11.7932  -16.7999 C   0  0  0  0  0  0  0  0  0  0  0  0
   16.9614  -11.6497  -15.3159 C   0  0  0  0  0  0  0  0  0  0  0  0
   17.2620  -10.2484  -14.8524 C   0  0  2  0  0  0  0  0  0  0  0  0
   18.6880   -9.9061  -15.2057 C   0  0  0  0  0  0  0  0  0  0  0  0
   17.0228  -10.1662  -13.3600 C   0  0  2  0  0  0  0  0  0  0  0  0
   15.6469  -10.5153  -13.0993 N   0  0  0  0  0  0  0  0  0  0  0  0
   17.3359   -8.8103  -12.8431 C   0  0  0  0  0  0  0  0  0  0  0  0
   16.6424   -7.8370  -13.2311 O   0  0  0  0  0  0  0  0  0  0  0  0
   18.3856   -8.5523  -11.9262 N   0  0  0  0  0  0  0  0  0  0  0  0
   18.6837   -7.2064  -11.5362 C   0  0  1  0  0  0  0  0  0  0  0  0
   18.5562   -7.0862  -10.0210 C   0  0  0  0  0  0  0  0  0  0  0  0
   16.9158   -7.6921   -9.5391 S   0  0  0  0  0  0  0  0  0  0  0  0
   20.0330   -6.7767  -11.9675 C   0  0  0  0  0  0  0  0  0  0  0  0
   21.0081   -7.5054  -11.7454 O   0  0  0  0  0  0  0  0  0  0  0  0
   20.1897   -5.5483  -12.6229 N   0  0  0  0  0  0  0  0  0  0  0  0
   21.4597   -5.0121  -13.0366 C   0  0  0  0  0  0  0  0  0  0  0  0
   21.2528   -3.7429  -13.7522 C   0  0  0  0  0  0  0  0  0  0  0  0
   22.3353   -2.9681  -14.0802 O   0  0  0  0  0  0  0  0  0  0  0  0
   20.1183   -3.3123  -14.0908 O   0  0  0  0  0  0  0  0  0  0  0  0
  1  2  1  0
  2  3  1  0
  3  4  1  1
  3  5  1  0
  5  6  1  6
  7  5  1  0
  8  7  2  0
  9  7  1  0
 10  9  1  0
 10 13  1  0
 10 11  1  1
 12 11  1  0
 13 14  2  0
 13 15  1  0
 15 16  1  0
 16 17  1  0
 17 18  1  0
 19 17  2  0
M  END
$$$$
