ICG.pdb
     RDKit          3D

 19 18  0  0  1  0  0  0  0  0999 V2000
   17.6751  -12.9590  -19.3993 C   0  0  0  0  0  0  0  0  0  0  0  0
   18.9356  -12.1861  -19.1152 C   0  0  0  0  0  0  0  0  0  0  0  0
   18.6715  -11.0266  -18.1908 C   0  0  2  0  0  0  0  0  0  0  0  0
   17.5641  -10.1787  -18.7653 C   0  0  0  0  0  0  0  0  0  0  0  0
   19.9505  -10.2344  -18.0241 C   0  0  2  0  0  0  0  0  0  0  0  0
   21.0320  -11.1600  -17.7865 N   0  0  0  0  0  0  0  0  0  0  0  0
   19.8318   -9.2567  -16.9132 C   0  0  0  0  0  0  0  0  0  0  0  0
   18.9149   -8.3986  -16.9544 O   0  0  0  0  0  0  0  0  0  0  0  0
   20.7059   -9.2395  -15.7976 N   0  0  0  0  0  0  0  0  0  0  0  0
   20.4599   -8.3444  -14.7064 C   0  0  1  0  0  0  0  0  0  0  0  0
   21.1604   -8.8739  -13.4592 C   0  0  0  0  0  0  0  0  0  0  0  0
   20.7327   -7.7941  -12.0658 S   0  0  0  0  0  0  0  0  0  0  0  0
   20.9096   -6.9636  -14.9932 C   0  0  0  0  0  0  0  0  0  0  0  0
   21.9941   -6.7776  -15.5590 O   0  0  0  0  0  0  0  0  0  0  0  0
   20.1003   -5.8824  -14.6198 N   0  0  0  0  0  0  0  0  0  0  0  0
   20.4343   -4.5039  -14.8642 C   0  0  0  0  0  0  0  0  0  0  0  0
   21.4803   -4.0727  -13.9233 C   0  0  0  0  0  0  0  0  0  0  0  0
   21.9617   -2.7907  -13.9895 O   0  0  0  0  0  0  0  0  0  0  0  0
   21.9736   -4.8233  -13.0399 O   0  0  0  0  0  0  0  0  0  0  0  0
  1  2  1  0
  2  3  1  0
  3  4  1  6
  3  5  1  0
  5  6  1  1
  7  5  1  0
  8  7  2  0
  9  7  1  0
 10  9  1  0
 10 13  1  0
 10 11  1  1
 12 11  1  0
 13 14  2  0
 13 15  1  0
 15 16  1  0
 16 17  1  0
 17 18  1  0
 19 17  2  0
M  END
$$$$
