KIR.pdb
     RDKit          3D

 29 28  0  0  1  0  0  0  0  0999 V2000
    9.6933  -16.9080   15.8287 N   0  0  0  0  0  0  0  0  0  0  0  0
    9.1019  -17.4098   17.0658 C   0  0  1  0  0  0  0  0  0  0  0  0
    9.5847  -18.7867   17.2716 C   0  0  0  0  0  0  0  0  0  0  0  0
    8.6500  -19.9110   17.1311 C   0  0  0  0  0  0  0  0  0  0  0  0
    9.1308  -21.2658   17.4107 C   0  0  0  0  0  0  0  0  0  0  0  0
    8.1665  -22.3755   17.3885 C   0  0  0  0  0  0  0  0  0  0  0  0
    8.9410  -23.6066   17.7694 N   0  0  0  0  0  0  0  0  0  0  0  0
    9.6872  -16.6048   18.2269 C   0  0  0  0  0  0  0  0  0  0  0  0
   10.8662  -16.1922   18.1668 O   0  0  0  0  0  0  0  0  0  0  0  0
    6.8125  -12.5914   19.5777 C   0  0  0  0  0  0  0  0  0  0  0  0
    8.0443  -13.4770   19.3512 C   0  0  0  0  0  0  0  0  0  0  0  0
    8.1920  -14.4176   20.4927 C   0  0  2  0  0  0  0  0  0  0  0  0
    8.1860  -13.6891   21.8375 C   0  0  0  0  0  0  0  0  0  0  0  0
    9.3038  -15.4047   20.4177 C   0  0  2  0  0  0  0  0  0  0  0  0
    8.8938  -16.3424   19.3400 N   0  0  0  0  0  0  0  0  0  0  0  0
    9.5379  -16.2327   21.5954 C   0  0  0  0  0  0  0  0  0  0  0  0
    8.6050  -16.9485   22.1155 O   0  0  0  0  0  0  0  0  0  0  0  0
   13.6726  -18.6186   19.1907 N   0  0  0  0  0  0  0  0  0  0  0  0
   14.5011  -19.0295   20.2691 C   0  0  0  0  0  0  0  0  0  0  0  0
   15.7246  -18.6155   20.3434 N   0  0  0  0  0  0  0  0  0  0  0  0
   14.0347  -19.8905   21.2830 N   0  0  0  0  0  0  0  0  0  0  0  0
   13.1179  -19.4508   22.3115 C   0  0  0  0  0  0  0  0  0  0  0  0
   13.2259  -17.9670   22.4557 C   0  0  0  0  0  0  0  0  0  0  0  0
   12.4421  -17.4031   23.5879 C   0  0  0  0  0  0  0  0  0  0  0  0
   10.9671  -17.3248   23.3912 C   0  0  2  0  0  0  0  0  0  0  0  0
   10.7687  -16.3600   22.2950 N   0  0  0  0  0  0  0  0  0  0  0  0
   10.2723  -16.8459   24.6178 C   0  0  0  0  0  0  0  0  0  0  0  0
    9.9254  -17.7505   25.5966 O   0  0  0  0  0  0  0  0  0  0  0  0
   10.0379  -15.6155   24.6898 O   0  0  0  0  0  0  0  0  0  0  0  0
  2  1  1  6
  2  3  1  0
  3  4  1  0
  4  5  1  0
  6  5  1  0
  7  6  1  0
  8  2  1  0
  9  8  2  0
 11 12  1  0
 11 10  1  0
 12 14  1  0
 12 13  1  1
 14 15  1  6
 15  8  1  0
 16 14  1  0
 16 26  1  0
 17 16  2  0
 18 19  1  0
 19 20  2  0
 21 19  1  0
 21 22  1  0
 23 22  1  0
 24 23  1  0
 25 26  1  0
 25 24  1  1
 27 25  1  0
 28 27  1  0
 29 27  2  0
M  END
$$$$
