KIR.pdb
     RDKit          3D

 29 28  0  0  1  0  0  0  0  0999 V2000
    5.8354  -15.5047   20.5731 N   0  0  0  0  0  0  0  0  0  0  0  0
    5.9183  -16.0456   21.9269 C   0  0  1  0  0  0  0  0  0  0  0  0
    6.3847  -17.4400   21.8287 C   0  0  0  0  0  0  0  0  0  0  0  0
    5.6475  -18.3933   20.9889 C   0  0  0  0  0  0  0  0  0  0  0  0
    6.0911  -19.7885   20.9516 C   0  0  0  0  0  0  0  0  0  0  0  0
    5.3379  -20.7467   20.1293 C   0  0  0  0  0  0  0  0  0  0  0  0
    5.9617  -22.0912   20.3818 N   0  0  0  0  0  0  0  0  0  0  0  0
    7.0348  -15.3029   22.6622 C   0  0  0  0  0  0  0  0  0  0  0  0
    8.0720  -14.9710   22.0474 O   0  0  0  0  0  0  0  0  0  0  0  0
    5.4644  -11.8878   26.5213 C   0  0  0  0  0  0  0  0  0  0  0  0
    6.2890  -12.4383   25.3507 C   0  0  0  0  0  0  0  0  0  0  0  0
    7.1536  -13.5463   25.8348 C   0  0  2  0  0  0  0  0  0  0  0  0
    8.0562  -13.1046   26.9878 C   0  0  0  0  0  0  0  0  0  0  0  0
    7.9200  -14.3055   24.8089 C   0  0  2  0  0  0  0  0  0  0  0  0
    6.8787  -15.0065   24.0131 N   0  0  0  0  0  0  0  0  0  0  0  0
    8.8205  -15.3477   25.2885 C   0  0  0  0  0  0  0  0  0  0  0  0
    8.3782  -16.4438   25.7947 O   0  0  0  0  0  0  0  0  0  0  0  0
   14.9399  -19.3995   22.5094 N   0  0  0  0  0  0  0  0  0  0  0  0
   15.9590  -18.6228   23.1230 C   0  0  0  0  0  0  0  0  0  0  0  0
   17.1733  -18.6767   22.6798 N   0  0  0  0  0  0  0  0  0  0  0  0
   15.6957  -17.7786   24.2205 N   0  0  0  0  0  0  0  0  0  0  0  0
   14.7418  -16.6937   24.1518 C   0  0  0  0  0  0  0  0  0  0  0  0
   13.4090  -17.1896   24.6118 C   0  0  0  0  0  0  0  0  0  0  0  0
   12.3351  -16.1596   24.6004 C   0  0  0  0  0  0  0  0  0  0  0  0
   11.0802  -16.5107   25.3232 C   0  0  2  0  0  0  0  0  0  0  0  0
   10.2409  -15.3009   25.2615 N   0  0  0  0  0  0  0  0  0  0  0  0
   11.3447  -16.8705   26.7436 C   0  0  0  0  0  0  0  0  0  0  0  0
   11.7789  -18.1407   27.0509 O   0  0  0  0  0  0  0  0  0  0  0  0
   11.1518  -15.9728   27.5985 O   0  0  0  0  0  0  0  0  0  0  0  0
  2  1  1  6
  2  3  1  0
  3  4  1  0
  4  5  1  0
  6  5  1  0
  7  6  1  0
  8  2  1  0
  9  8  2  0
 11 12  1  0
 11 10  1  0
 12 14  1  0
 12 13  1  1
 14 15  1  6
 15  8  1  0
 16 14  1  0
 16 26  1  0
 17 16  2  0
 18 19  1  0
 19 20  2  0
 21 19  1  0
 21 22  1  0
 23 22  1  0
 24 23  1  0
 25 26  1  0
 25 24  1  6
 27 25  1  0
 28 27  1  0
 29 27  2  0
M  END
$$$$
