KIR.pdb
     RDKit          3D

 29 28  0  0  1  0  0  0  0  0999 V2000
    7.0580  -13.4888   19.7418 N   0  0  0  0  0  0  0  0  0  0  0  0
    6.6739  -14.3712   20.8399 C   0  0  1  0  0  0  0  0  0  0  0  0
    6.9871  -15.7542   20.4392 C   0  0  0  0  0  0  0  0  0  0  0  0
    6.1925  -16.4015   19.3871 C   0  0  0  0  0  0  0  0  0  0  0  0
    6.3290  -17.8462   19.1896 C   0  0  0  0  0  0  0  0  0  0  0  0
    5.5583  -18.4874   18.1141 C   0  0  0  0  0  0  0  0  0  0  0  0
    5.8671  -19.9563   18.2007 N   0  0  0  0  0  0  0  0  0  0  0  0
    7.5988  -14.0799   22.0225 C   0  0  0  0  0  0  0  0  0  0  0  0
    8.8041  -13.8149   21.8200 O   0  0  0  0  0  0  0  0  0  0  0  0
    5.4858  -11.3092   26.0720 C   0  0  0  0  0  0  0  0  0  0  0  0
    6.4666  -11.8392   25.0183 C   0  0  0  0  0  0  0  0  0  0  0  0
    6.9996  -13.1553   25.4586 C   0  0  2  0  0  0  0  0  0  0  0  0
    7.5920  -13.0892   26.8671 C   0  0  0  0  0  0  0  0  0  0  0  0
    7.9126  -13.8645   24.5209 C   0  0  2  0  0  0  0  0  0  0  0  0
    7.0818  -14.1151   23.3143 N   0  0  0  0  0  0  0  0  0  0  0  0
    8.4096  -15.1708   24.9379 C   0  0  0  0  0  0  0  0  0  0  0  0
    7.6123  -16.1286   25.2542 O   0  0  0  0  0  0  0  0  0  0  0  0
   15.2459  -19.3189   25.1786 N   0  0  0  0  0  0  0  0  0  0  0  0
   14.7425  -20.2104   24.1938 C   0  0  0  0  0  0  0  0  0  0  0  0
   15.2042  -21.4162   24.1115 N   0  0  0  0  0  0  0  0  0  0  0  0
   13.7396  -19.8259   23.2811 N   0  0  0  0  0  0  0  0  0  0  0  0
   13.1957  -18.4862   23.2472 C   0  0  0  0  0  0  0  0  0  0  0  0
   12.0216  -18.4158   24.1694 C   0  0  0  0  0  0  0  0  0  0  0  0
   11.3324  -17.0971   24.1838 C   0  0  0  0  0  0  0  0  0  0  0  0
   10.2084  -16.9538   25.1516 C   0  0  2  0  0  0  0  0  0  0  0  0
    9.7757  -15.5491   25.0441 N   0  0  0  0  0  0  0  0  0  0  0  0
   10.6417  -17.2438   26.5462 C   0  0  0  0  0  0  0  0  0  0  0  0
   10.7690  -16.2082   27.4450 O   0  0  0  0  0  0  0  0  0  0  0  0
   10.8710  -18.4447   26.8278 O   0  0  0  0  0  0  0  0  0  0  0  0
  2  1  1  6
  2  3  1  0
  3  4  1  0
  4  5  1  0
  6  5  1  0
  7  6  1  0
  8  2  1  0
  9  8  2  0
 11 12  1  0
 11 10  1  0
 12 14  1  0
 12 13  1  1
 14 15  1  6
 15  8  1  0
 16 14  1  0
 16 26  1  0
 17 16  2  0
 18 19  1  0
 19 20  2  0
 21 19  1  0
 21 22  1  0
 23 22  1  0
 24 23  1  0
 25 26  1  0
 25 24  1  6
 27 25  1  0
 28 27  1  0
 29 27  2  0
M  END
$$$$
