KIR.pdb
     RDKit          3D

 29 28  0  0  1  0  0  0  0  0999 V2000
    7.6289  -13.9503   20.5480 N   0  0  0  0  0  0  0  0  0  0  0  0
    7.4257  -15.0512   21.4854 C   0  0  1  0  0  0  0  0  0  0  0  0
    8.0073  -16.2664   20.8885 C   0  0  0  0  0  0  0  0  0  0  0  0
    7.4367  -16.8093   19.6487 C   0  0  0  0  0  0  0  0  0  0  0  0
    7.9382  -18.0894   19.1440 C   0  0  0  0  0  0  0  0  0  0  0  0
    7.3083  -18.6731   17.9506 C   0  0  0  0  0  0  0  0  0  0  0  0
    7.9477  -20.0204   17.7602 N   0  0  0  0  0  0  0  0  0  0  0  0
    8.2728  -14.7730   22.7279 C   0  0  0  0  0  0  0  0  0  0  0  0
    9.5072  -14.6069   22.6157 O   0  0  0  0  0  0  0  0  0  0  0  0
    6.0464  -11.5199   26.1956 C   0  0  0  0  0  0  0  0  0  0  0  0
    7.1468  -12.2028   25.3735 C   0  0  0  0  0  0  0  0  0  0  0  0
    7.4807  -13.5139   25.9894 C   0  0  2  0  0  0  0  0  0  0  0  0
    7.9375  -13.3631   27.4412 C   0  0  0  0  0  0  0  0  0  0  0  0
    8.3933  -14.4084   25.2257 C   0  0  2  0  0  0  0  0  0  0  0  0
    7.6531  -14.7092   23.9725 N   0  0  0  0  0  0  0  0  0  0  0  0
    8.7068  -15.7025   25.8209 C   0  0  0  0  0  0  0  0  0  0  0  0
    7.7943  -16.5762   26.0598 O   0  0  0  0  0  0  0  0  0  0  0  0
   12.7540  -18.2939   21.8925 N   0  0  0  0  0  0  0  0  0  0  0  0
   12.7748  -19.6771   22.2160 C   0  0  0  0  0  0  0  0  0  0  0  0
   12.6350  -20.5647   21.2852 N   0  0  0  0  0  0  0  0  0  0  0  0
   12.9435  -20.1319   23.5394 N   0  0  0  0  0  0  0  0  0  0  0  0
   13.0372  -19.2266   24.6635 C   0  0  0  0  0  0  0  0  0  0  0  0
   11.6594  -18.9171   25.1532 C   0  0  0  0  0  0  0  0  0  0  0  0
   11.6071  -17.8818   26.2208 C   0  0  0  0  0  0  0  0  0  0  0  0
   10.2498  -17.5142   26.7137 C   0  0  2  0  0  0  0  0  0  0  0  0
   10.0000  -16.1566   26.1977 N   0  0  0  0  0  0  0  0  0  0  0  0
   10.1864  -17.5091   28.2012 C   0  0  0  0  0  0  0  0  0  0  0  0
   10.1396  -18.7059   28.8811 O   0  0  0  0  0  0  0  0  0  0  0  0
   10.1794  -16.3869   28.7621 O   0  0  0  0  0  0  0  0  0  0  0  0
  2  1  1  6
  2  3  1  0
  3  4  1  0
  4  5  1  0
  6  5  1  0
  7  6  1  0
  8  2  1  0
  9  8  2  0
 11 12  1  0
 11 10  1  0
 12 14  1  0
 12 13  1  1
 14 15  1  6
 15  8  1  0
 16 14  1  0
 16 26  1  0
 17 16  2  0
 18 19  1  0
 19 20  2  0
 21 19  1  0
 21 22  1  0
 23 22  1  0
 24 23  1  0
 25 26  1  0
 25 24  1  1
 27 25  1  0
 28 27  1  0
 29 27  2  0
M  END
$$$$
