KIR.pdb
     RDKit          3D

 29 28  0  0  1  0  0  0  0  0999 V2000
    7.1839  -15.8342   19.3918 N   0  0  0  0  0  0  0  0  0  0  0  0
    6.8908  -16.3219   20.7365 C   0  0  1  0  0  0  0  0  0  0  0  0
    7.1860  -17.7652   20.7683 C   0  0  0  0  0  0  0  0  0  0  0  0
    6.5808  -18.6510   19.7651 C   0  0  0  0  0  0  0  0  0  0  0  0
    6.7337  -20.0992   19.9205 C   0  0  0  0  0  0  0  0  0  0  0  0
    6.0876  -20.9861   18.9418 C   0  0  0  0  0  0  0  0  0  0  0  0
    6.4553  -22.3871   19.3447 N   0  0  0  0  0  0  0  0  0  0  0  0
    7.8986  -15.6879   21.6964 C   0  0  0  0  0  0  0  0  0  0  0  0
    8.9760  -15.2309   21.2557 O   0  0  0  0  0  0  0  0  0  0  0  0
    5.5809  -12.8668   25.6256 C   0  0  0  0  0  0  0  0  0  0  0  0
    6.5602  -13.2586   24.5118 C   0  0  0  0  0  0  0  0  0  0  0  0
    7.4683  -14.3264   25.0067 C   0  0  2  0  0  0  0  0  0  0  0  0
    8.1570  -13.9301   26.3135 C   0  0  0  0  0  0  0  0  0  0  0  0
    8.4415  -14.8932   24.0331 C   0  0  2  0  0  0  0  0  0  0  0  0
    7.5995  -15.6294   23.0545 N   0  0  0  0  0  0  0  0  0  0  0  0
    9.4003  -15.8671   24.5425 C   0  0  0  0  0  0  0  0  0  0  0  0
    9.0212  -16.9641   25.0959 O   0  0  0  0  0  0  0  0  0  0  0  0
   17.9014  -16.2861   22.1436 N   0  0  0  0  0  0  0  0  0  0  0  0
   17.6394  -16.5438   23.5159 C   0  0  0  0  0  0  0  0  0  0  0  0
   18.5943  -16.4677   24.3856 N   0  0  0  0  0  0  0  0  0  0  0  0
   16.3535  -16.8885   23.9787 N   0  0  0  0  0  0  0  0  0  0  0  0
   15.2475  -17.1360   23.0802 C   0  0  0  0  0  0  0  0  0  0  0  0
   14.0508  -17.5345   23.8820 C   0  0  0  0  0  0  0  0  0  0  0  0
   12.9682  -16.5142   23.9149 C   0  0  0  0  0  0  0  0  0  0  0  0
   11.7192  -16.9042   24.6279 C   0  0  2  0  0  0  0  0  0  0  0  0
   10.8160  -15.7471   24.4973 N   0  0  0  0  0  0  0  0  0  0  0  0
   11.9723  -17.1879   26.0674 C   0  0  0  0  0  0  0  0  0  0  0  0
   11.6440  -16.2411   27.0121 O   0  0  0  0  0  0  0  0  0  0  0  0
   12.4823  -18.3007   26.3423 O   0  0  0  0  0  0  0  0  0  0  0  0
  2  1  1  6
  2  3  1  0
  3  4  1  0
  4  5  1  0
  6  5  1  0
  7  6  1  0
  8  2  1  0
  9  8  2  0
 11 12  1  0
 11 10  1  0
 12 14  1  0
 12 13  1  1
 14 15  1  6
 15  8  1  0
 16 14  1  0
 16 26  1  0
 17 16  2  0
 18 19  1  0
 19 20  2  0
 21 19  1  0
 21 22  1  0
 23 22  1  0
 24 23  1  0
 25 26  1  0
 25 24  1  6
 27 25  1  0
 28 27  1  0
 29 27  2  0
M  END
$$$$
