KIR.pdb
     RDKit          3D

 29 28  0  0  1  0  0  0  0  0999 V2000
    4.4549  -18.8376   24.2558 N   0  0  0  0  0  0  0  0  0  0  0  0
    5.8535  -18.6978   24.6515 C   0  0  1  0  0  0  0  0  0  0  0  0
    6.6454  -19.6547   23.8587 C   0  0  0  0  0  0  0  0  0  0  0  0
    6.6310  -21.0791   24.2167 C   0  0  0  0  0  0  0  0  0  0  0  0
    7.9039  -21.7994   24.2915 C   0  0  0  0  0  0  0  0  0  0  0  0
    7.8822  -23.2450   24.5589 C   0  0  0  0  0  0  0  0  0  0  0  0
    7.5894  -23.3917   26.0263 N   0  0  0  0  0  0  0  0  0  0  0  0
    6.3328  -17.3164   24.2033 C   0  0  0  0  0  0  0  0  0  0  0  0
    6.1226  -16.9341   23.0313 O   0  0  0  0  0  0  0  0  0  0  0  0
    6.6536  -13.2257   27.8438 C   0  0  0  0  0  0  0  0  0  0  0  0
    6.4189  -13.9154   26.4939 C   0  0  0  0  0  0  0  0  0  0  0  0
    7.7116  -14.4319   25.9726 C   0  0  2  0  0  0  0  0  0  0  0  0
    8.7746  -13.3350   25.8932 C   0  0  0  0  0  0  0  0  0  0  0  0
    7.6653  -15.2315   24.7178 C   0  0  2  0  0  0  0  0  0  0  0  0
    7.0004  -16.5008   25.1125 N   0  0  0  0  0  0  0  0  0  0  0  0
    8.9423  -15.6195   24.1296 C   0  0  0  0  0  0  0  0  0  0  0  0
    9.6945  -16.5100   24.6721 O   0  0  0  0  0  0  0  0  0  0  0  0
    9.4406  -15.1787   17.3409 N   0  0  0  0  0  0  0  0  0  0  0  0
    8.2807  -14.4592   17.7349 C   0  0  0  0  0  0  0  0  0  0  0  0
    7.1610  -14.6397   17.1125 N   0  0  0  0  0  0  0  0  0  0  0  0
    8.3010  -13.5348   18.7987 N   0  0  0  0  0  0  0  0  0  0  0  0
    9.4206  -13.4242   19.7075 C   0  0  0  0  0  0  0  0  0  0  0  0
    9.8065  -14.7918   20.1707 C   0  0  0  0  0  0  0  0  0  0  0  0
   10.9653  -14.8181   21.1039 C   0  0  0  0  0  0  0  0  0  0  0  0
   10.7739  -15.5841   22.3677 C   0  0  2  0  0  0  0  0  0  0  0  0
    9.5034  -15.0961   22.9329 N   0  0  0  0  0  0  0  0  0  0  0  0
   11.8821  -15.3420   23.3320 C   0  0  0  0  0  0  0  0  0  0  0  0
   13.0976  -15.9590   23.1356 O   0  0  0  0  0  0  0  0  0  0  0  0
   11.6377  -14.5706   24.2908 O   0  0  0  0  0  0  0  0  0  0  0  0
  2  1  1  6
  2  3  1  0
  3  4  1  0
  4  5  1  0
  6  5  1  0
  7  6  1  0
  8  2  1  0
  9  8  2  0
 11 12  1  0
 11 10  1  0
 12 14  1  0
 12 13  1  6
 14 15  1  1
 15  8  1  0
 16 14  1  0
 16 26  1  0
 17 16  2  0
 18 19  1  0
 19 20  2  0
 21 19  1  0
 21 22  1  0
 23 22  1  0
 24 23  1  0
 25 26  1  0
 25 24  1  6
 27 25  1  0
 28 27  1  0
 29 27  2  0
M  END
$$$$
