KIR.pdb
     RDKit          3D

 29 28  0  0  1  0  0  0  0  0999 V2000
    7.0769  -13.3154   19.7692 N   0  0  0  0  0  0  0  0  0  0  0  0
    6.8065  -14.2789   20.8325 C   0  0  1  0  0  0  0  0  0  0  0  0
    7.2473  -15.6046   20.3640 C   0  0  0  0  0  0  0  0  0  0  0  0
    6.6654  -16.1711   19.1401 C   0  0  0  0  0  0  0  0  0  0  0  0
    7.0568  -17.5228   18.7343 C   0  0  0  0  0  0  0  0  0  0  0  0
    6.5543  -18.0495   17.4569 C   0  0  0  0  0  0  0  0  0  0  0  0
    7.1420  -19.4261   17.3153 N   0  0  0  0  0  0  0  0  0  0  0  0
    7.7232  -13.9479   22.0110 C   0  0  0  0  0  0  0  0  0  0  0  0
    8.8929  -13.5591   21.8002 O   0  0  0  0  0  0  0  0  0  0  0  0
    5.6823  -11.3442   26.1582 C   0  0  0  0  0  0  0  0  0  0  0  0
    6.6737  -11.8352   25.0956 C   0  0  0  0  0  0  0  0  0  0  0  0
    7.1793  -13.1801   25.4770 C   0  0  2  0  0  0  0  0  0  0  0  0
    7.7664  -13.1902   26.8892 C   0  0  0  0  0  0  0  0  0  0  0  0
    8.0829  -13.8631   24.5111 C   0  0  2  0  0  0  0  0  0  0  0  0
    7.2385  -14.0858   23.3085 N   0  0  0  0  0  0  0  0  0  0  0  0
    8.5881  -15.1780   24.8894 C   0  0  0  0  0  0  0  0  0  0  0  0
    7.7971  -16.1590   25.1446 O   0  0  0  0  0  0  0  0  0  0  0  0
   16.3498  -18.4824   22.4371 N   0  0  0  0  0  0  0  0  0  0  0  0
   16.0858  -18.3298   23.8247 C   0  0  0  0  0  0  0  0  0  0  0  0
   17.0629  -18.2899   24.6718 N   0  0  0  0  0  0  0  0  0  0  0  0
   14.7737  -18.2196   24.3274 N   0  0  0  0  0  0  0  0  0  0  0  0
   13.6071  -18.3488   23.4824 C   0  0  0  0  0  0  0  0  0  0  0  0
   12.3819  -18.3104   24.3376 C   0  0  0  0  0  0  0  0  0  0  0  0
   11.6439  -17.0190   24.2926 C   0  0  0  0  0  0  0  0  0  0  0  0
   10.4043  -16.9416   25.1159 C   0  0  2  0  0  0  0  0  0  0  0  0
    9.9564  -15.5409   25.0187 N   0  0  0  0  0  0  0  0  0  0  0  0
   10.6657  -17.2910   26.5394 C   0  0  0  0  0  0  0  0  0  0  0  0
   10.8111  -18.6131   26.8965 O   0  0  0  0  0  0  0  0  0  0  0  0
   10.7402  -16.3366   27.3504 O   0  0  0  0  0  0  0  0  0  0  0  0
  2  1  1  6
  2  3  1  0
  3  4  1  0
  4  5  1  0
  6  5  1  0
  7  6  1  0
  8  2  1  0
  9  8  2  0
 11 12  1  0
 11 10  1  0
 12 14  1  0
 12 13  1  1
 14 15  1  6
 15  8  1  0
 16 14  1  0
 16 26  1  0
 17 16  2  0
 18 19  1  0
 19 20  2  0
 21 19  1  0
 21 22  1  0
 23 22  1  0
 24 23  1  0
 25 26  1  0
 25 24  1  6
 27 25  1  0
 28 27  1  0
 29 27  2  0
M  END
$$$$
