KIR.pdb
     RDKit          3D

 29 28  0  0  1  0  0  0  0  0999 V2000
    9.3383  -17.8413   16.2412 N   0  0  0  0  0  0  0  0  0  0  0  0
    8.3314  -17.5471   17.2569 C   0  0  1  0  0  0  0  0  0  0  0  0
    7.9194  -18.8230   17.8681 C   0  0  0  0  0  0  0  0  0  0  0  0
    8.9284  -19.8549   18.1412 C   0  0  0  0  0  0  0  0  0  0  0  0
    8.4793  -21.1953   18.5237 C   0  0  0  0  0  0  0  0  0  0  0  0
    9.4881  -22.2434   18.7372 C   0  0  0  0  0  0  0  0  0  0  0  0
    8.7241  -23.4905   19.0856 N   0  0  0  0  0  0  0  0  0  0  0  0
    9.0129  -16.7678   18.3825 C   0  0  0  0  0  0  0  0  0  0  0  0
   10.2521  -16.8447   18.5316 O   0  0  0  0  0  0  0  0  0  0  0  0
    6.6488  -12.0699   19.6641 C   0  0  0  0  0  0  0  0  0  0  0  0
    7.7715  -13.0741   19.3740 C   0  0  0  0  0  0  0  0  0  0  0  0
    7.8751  -14.0372   20.5016 C   0  0  2  0  0  0  0  0  0  0  0  0
    8.0892  -13.3286   21.8400 C   0  0  0  0  0  0  0  0  0  0  0  0
    8.8197  -15.1757   20.3356 C   0  0  2  0  0  0  0  0  0  0  0  0
    8.2384  -15.9804   19.2295 N   0  0  0  0  0  0  0  0  0  0  0  0
    8.9596  -16.0926   21.4613 C   0  0  0  0  0  0  0  0  0  0  0  0
    8.2604  -17.1680   21.5489 O   0  0  0  0  0  0  0  0  0  0  0  0
   15.8624  -19.7716   21.5992 N   0  0  0  0  0  0  0  0  0  0  0  0
   15.0848  -20.7822   22.2255 C   0  0  0  0  0  0  0  0  0  0  0  0
   15.6510  -21.8588   22.6663 N   0  0  0  0  0  0  0  0  0  0  0  0
   13.6902  -20.6580   22.3883 N   0  0  0  0  0  0  0  0  0  0  0  0
   12.9282  -19.6014   21.7601 C   0  0  0  0  0  0  0  0  0  0  0  0
   12.1106  -18.9079   22.8015 C   0  0  0  0  0  0  0  0  0  0  0  0
   11.3023  -17.7691   22.2874 C   0  0  0  0  0  0  0  0  0  0  0  0
   10.4343  -17.0777   23.2820 C   0  0  2  0  0  0  0  0  0  0  0  0
    9.8463  -15.9348   22.5611 N   0  0  0  0  0  0  0  0  0  0  0  0
   11.2167  -16.5895   24.4509 C   0  0  0  0  0  0  0  0  0  0  0  0
   11.3464  -17.3927   25.5621 O   0  0  0  0  0  0  0  0  0  0  0  0
   11.7248  -15.4466   24.3525 O   0  0  0  0  0  0  0  0  0  0  0  0
  2  1  1  6
  2  3  1  0
  3  4  1  0
  4  5  1  0
  6  5  1  0
  7  6  1  0
  8  2  1  0
  9  8  2  0
 11 12  1  0
 11 10  1  0
 12 14  1  0
 12 13  1  1
 14 15  1  6
 15  8  1  0
 16 14  1  0
 16 26  1  0
 17 16  2  0
 18 19  1  0
 19 20  2  0
 21 19  1  0
 21 22  1  0
 23 22  1  0
 24 23  1  0
 25 26  1  0
 25 24  1  6
 27 25  1  0
 28 27  1  0
 29 27  2  0
M  END
$$$$
