TQF.pdb
     RDKit          3D

 28 28  0  0  1  0  0  0  0  0999 V2000
    9.2987  -12.7374   20.2507 C   0  0  0  0  0  0  0  0  0  0  0  0
    8.1494  -13.3422   19.4814 C   0  0  1  0  0  0  0  0  0  0  0  0
    7.9380  -12.7864   18.2454 O   0  0  0  0  0  0  0  0  0  0  0  0
    8.3503  -14.8459   19.4272 C   0  0  2  0  0  0  0  0  0  0  0  0
    7.2537  -15.4026   18.6266 N   0  0  0  0  0  0  0  0  0  0  0  0
    8.3487  -15.4361   20.7906 C   0  0  0  0  0  0  0  0  0  0  0  0
    7.2748  -15.5779   21.4196 O   0  0  0  0  0  0  0  0  0  0  0  0
   11.1588  -20.5593   22.1058 N   0  0  0  0  0  0  0  0  0  0  0  0
   10.7672  -20.1263   23.3932 C   0  0  0  0  0  0  0  0  0  0  0  0
   10.8444  -20.9637   24.3268 O   0  0  0  0  0  0  0  0  0  0  0  0
   10.2795  -18.7642   23.7118 C   0  0  0  0  0  0  0  0  0  0  0  0
   10.1466  -17.9285   22.4627 C   0  0  0  0  0  0  0  0  0  0  0  0
    9.5480  -16.5647   22.7034 C   0  0  2  0  0  0  0  0  0  0  0  0
    9.5681  -15.8654   21.4322 N   0  0  0  0  0  0  0  0  0  0  0  0
   10.2190  -15.7890   23.7403 C   0  0  0  0  0  0  0  0  0  0  0  0
   11.3629  -15.2616   23.6052 O   0  0  0  0  0  0  0  0  0  0  0  0
    9.6105  -15.5702   25.0021 N   0  0  0  0  0  0  0  0  0  0  0  0
   10.3998  -15.1788   26.1965 C   0  0  1  0  0  0  0  0  0  0  0  0
   10.1950  -13.6794   26.4146 C   0  0  0  0  0  0  0  0  0  0  0  0
    8.7428  -13.3913   26.3925 C   0  0  0  0  0  0  0  0  0  0  0  0
    8.0187  -12.9729   27.4828 C   0  0  0  0  0  0  0  0  0  0  0  0
    6.6784  -12.7191   27.3707 C   0  0  0  0  0  0  0  0  0  0  0  0
    5.9546  -12.8572   26.1870 C   0  0  0  0  0  0  0  0  0  0  0  0
    6.7099  -13.2828   25.0973 C   0  0  0  0  0  0  0  0  0  0  0  0
    8.0499  -13.5426   25.1822 C   0  0  0  0  0  0  0  0  0  0  0  0
    9.8299  -15.9022   27.3349 C   0  0  0  0  0  0  0  0  0  0  0  0
    8.8735  -16.6885   27.1691 O   0  0  0  0  0  0  0  0  0  0  0  0
   10.3402  -15.7261   28.6021 O   0  0  0  0  0  0  0  0  0  0  0  0
  2  1  1  6
  3  2  1  0
  4  2  1  0
  4  5  1  6
  6  4  1  0
  6 14  1  0
  7  6  2  0
  9 10  2  0
  9  8  1  0
 11  9  1  0
 13 12  1  6
 12 11  1  0
 14 13  1  0
 15 16  2  0
 15 13  1  0
 17 15  1  0
 18 17  1  0
 18 26  1  0
 18 19  1  1
 20 25  2  0
 20 19  1  0
 21 20  1  0
 22 23  1  0
 22 21  2  0
 23 24  2  0
 24 25  1  0
 26 28  1  0
 27 26  2  0
M  END
$$$$
