TQF.pdb
     RDKit          3D

 28 28  0  0  1  0  0  0  0  0999 V2000
    3.8300  -19.4993   23.3019 C   0  0  0  0  0  0  0  0  0  0  0  0
    5.2050  -18.8835   23.2077 C   0  0  1  0  0  0  0  0  0  0  0  0
    6.1930  -19.6017   23.8316 O   0  0  0  0  0  0  0  0  0  0  0  0
    5.5062  -18.6100   21.7453 C   0  0  2  0  0  0  0  0  0  0  0  0
    5.5204  -19.9048   21.0548 N   0  0  0  0  0  0  0  0  0  0  0  0
    6.8140  -17.9233   21.5869 C   0  0  0  0  0  0  0  0  0  0  0  0
    7.8464  -18.5789   21.3155 O   0  0  0  0  0  0  0  0  0  0  0  0
    7.5822  -12.1890   19.2883 N   0  0  0  0  0  0  0  0  0  0  0  0
    8.8875  -12.5965   19.6467 C   0  0  0  0  0  0  0  0  0  0  0  0
    9.8440  -11.9288   19.1799 O   0  0  0  0  0  0  0  0  0  0  0  0
    9.1991  -13.7449   20.5292 C   0  0  0  0  0  0  0  0  0  0  0  0
    7.9517  -14.5218   20.8710 C   0  0  0  0  0  0  0  0  0  0  0  0
    8.2221  -15.8285   21.5749 C   0  0  2  0  0  0  0  0  0  0  0  0
    6.9424  -16.4935   21.7349 N   0  0  0  0  0  0  0  0  0  0  0  0
    8.9058  -15.6901   22.8557 C   0  0  0  0  0  0  0  0  0  0  0  0
   10.0909  -15.2619   22.9861 O   0  0  0  0  0  0  0  0  0  0  0  0
    8.2633  -16.0363   24.0713 N   0  0  0  0  0  0  0  0  0  0  0  0
    8.9322  -15.8739   25.3862 C   0  0  1  0  0  0  0  0  0  0  0  0
    7.8582  -15.4992   26.4078 C   0  0  0  0  0  0  0  0  0  0  0  0
    7.4944  -14.0771   26.2131 C   0  0  0  0  0  0  0  0  0  0  0  0
    6.2044  -13.6110   26.1314 C   0  0  0  0  0  0  0  0  0  0  0  0
    5.9578  -12.2756   25.9603 C   0  0  0  0  0  0  0  0  0  0  0  0
    6.9538  -11.3055   25.8568 C   0  0  0  0  0  0  0  0  0  0  0  0
    8.2519  -11.8024   25.9417 C   0  0  0  0  0  0  0  0  0  0  0  0
    8.5255  -13.1313   26.1131 C   0  0  0  0  0  0  0  0  0  0  0  0
    9.4853  -17.1819   25.7430 C   0  0  0  0  0  0  0  0  0  0  0  0
    9.3327  -18.1611   24.9826 O   0  0  0  0  0  0  0  0  0  0  0  0
   10.1808  -17.3499   26.9200 O   0  0  0  0  0  0  0  0  0  0  0  0
  2  1  1  6
  3  2  1  0
  4  2  1  0
  4  5  1  6
  6  4  1  0
  6 14  1  0
  7  6  2  0
  9 10  2  0
  9  8  1  0
 11  9  1  0
 13 12  1  1
 12 11  1  0
 14 13  1  0
 15 16  2  0
 15 13  1  0
 17 15  1  0
 18 17  1  0
 18 26  1  0
 18 19  1  1
 20 25  2  0
 20 19  1  0
 21 20  1  0
 22 23  1  0
 22 21  2  0
 23 24  2  0
 24 25  1  0
 26 28  1  0
 27 26  2  0
M  END
$$$$
