TQF.pdb
     RDKit          3D

 28 28  0  0  1  0  0  0  0  0999 V2000
    8.1187  -12.3419   19.0929 C   0  0  0  0  0  0  0  0  0  0  0  0
    8.3655  -13.2908   20.2407 C   0  0  1  0  0  0  0  0  0  0  0  0
    8.0711  -12.7755   21.4772 O   0  0  0  0  0  0  0  0  0  0  0  0
    7.6344  -14.5894   19.9517 C   0  0  2  0  0  0  0  0  0  0  0  0
    6.2144  -14.2603   19.7818 N   0  0  0  0  0  0  0  0  0  0  0  0
    7.8123  -15.5625   21.0601 C   0  0  0  0  0  0  0  0  0  0  0  0
    6.8951  -15.7517   21.8919 O   0  0  0  0  0  0  0  0  0  0  0  0
   12.7986  -20.5946   23.1259 N   0  0  0  0  0  0  0  0  0  0  0  0
   11.6304  -20.2211   22.4230 C   0  0  0  0  0  0  0  0  0  0  0  0
   11.4495  -20.7437   21.2948 O   0  0  0  0  0  0  0  0  0  0  0  0
   10.6146  -19.2663   22.9243 C   0  0  0  0  0  0  0  0  0  0  0  0
   10.2788  -18.2314   21.8791 C   0  0  0  0  0  0  0  0  0  0  0  0
    9.1998  -17.2659   22.3029 C   0  0  2  0  0  0  0  0  0  0  0  0
    9.0314  -16.3189   21.2164 N   0  0  0  0  0  0  0  0  0  0  0  0
    9.4690  -16.5793   23.5611 C   0  0  0  0  0  0  0  0  0  0  0  0
   10.3126  -15.6437   23.6940 O   0  0  0  0  0  0  0  0  0  0  0  0
    8.7786  -16.9282   24.7494 N   0  0  0  0  0  0  0  0  0  0  0  0
    9.0139  -16.2176   26.0310 C   0  0  1  0  0  0  0  0  0  0  0  0
    7.6481  -15.8763   26.6275 C   0  0  0  0  0  0  0  0  0  0  0  0
    7.3556  -14.4503   26.3566 C   0  0  0  0  0  0  0  0  0  0  0  0
    8.2312  -13.4195   26.5994 C   0  0  0  0  0  0  0  0  0  0  0  0
    7.8819  -12.1283   26.3090 C   0  0  0  0  0  0  0  0  0  0  0  0
    6.6543  -11.7565   25.7624 C   0  0  0  0  0  0  0  0  0  0  0  0
    5.7846  -12.8180   25.5263 C   0  0  0  0  0  0  0  0  0  0  0  0
    6.1090  -14.1166   25.8068 C   0  0  0  0  0  0  0  0  0  0  0  0
    9.6926  -17.1630   26.9196 C   0  0  0  0  0  0  0  0  0  0  0  0
    9.8314  -18.3580   26.5833 O   0  0  0  0  0  0  0  0  0  0  0  0
   10.1872  -16.7478   28.1362 O   0  0  0  0  0  0  0  0  0  0  0  0
  2  1  1  6
  3  2  1  0
  4  2  1  0
  4  5  1  1
  6  4  1  0
  6 14  1  0
  7  6  2  0
  9 10  2  0
  9  8  1  0
 11  9  1  0
 13 12  1  6
 12 11  1  0
 14 13  1  0
 15 16  2  0
 15 13  1  0
 17 15  1  0
 18 17  1  0
 18 26  1  0
 18 19  1  1
 20 25  2  0
 20 19  1  0
 21 20  1  0
 22 23  1  0
 22 21  2  0
 23 24  2  0
 24 25  1  0
 26 28  1  0
 27 26  2  0
M  END
$$$$
