RTI.pdb
     RDKit          3D

 27 26  0  0  1  0  0  0  0  0999 V2000
   28.9420  -18.3924  -18.6919 N   0  0  0  0  0  0  0  0  0  0  0  0
   27.5604  -18.0862  -18.5304 C   0  0  0  0  0  0  0  0  0  0  0  0
   26.7762  -18.4148  -19.4955 N   0  0  0  0  0  0  0  0  0  0  0  0
   27.0582  -17.4479  -17.3603 N   0  0  0  0  0  0  0  0  0  0  0  0
   27.8642  -17.2689  -16.1970 C   0  0  0  0  0  0  0  0  0  0  0  0
   28.4134  -18.5634  -15.6206 C   0  0  0  0  0  0  0  0  0  0  0  0
   27.2956  -19.3405  -14.9703 C   0  0  0  0  0  0  0  0  0  0  0  0
   27.7509  -20.5793  -14.2729 C   0  0  2  0  0  0  0  0  0  0  0  0
   28.3227  -21.5432  -15.1627 N   0  0  0  0  0  0  0  0  0  0  0  0
   26.6146  -21.1471  -13.4869 C   0  0  0  0  0  0  0  0  0  0  0  0
   25.9063  -22.0863  -13.9689 O   0  0  0  0  0  0  0  0  0  0  0  0
   25.7677  -18.1660  -19.4357 C   0  0  0  0  0  0  0  0  0  0  0  0
   26.1588  -21.4122   -9.3024 C   0  0  2  0  0  0  0  0  0  0  0  0
   25.0438  -20.7006  -10.0473 O   0  0  0  0  0  0  0  0  0  0  0  0
   25.0976  -19.3419   -9.8410 C   0  0  2  0  0  0  0  0  0  0  0  0
   25.0774  -21.0829  -11.5115 N   0  0  0  0  0  0  0  0  0  0  0  0
   26.2681  -20.6836  -12.1895 C   0  0  0  0  0  0  0  0  0  0  0  0
   23.8393  -20.5444  -12.1318 O   0  0  0  0  0  0  0  0  0  0  0  0
   23.9053  -19.4475  -12.7377 C   0  0  0  0  0  0  0  0  0  0  0  0
   21.8107  -22.0455  -16.3310 C   0  0  0  0  0  0  0  0  0  0  0  0
   22.0471  -21.2579  -15.0868 C   0  0  2  0  0  0  0  0  0  0  0  0
   21.1152  -21.4044  -13.9573 C   0  0  0  0  0  0  0  0  0  0  0  0
   19.7147  -21.0669  -14.5550 C   0  0  2  0  0  0  0  0  0  0  0  0
   21.3643  -20.6111  -12.7447 N   0  0  0  0  0  0  0  0  0  0  0  0
   22.5954  -21.1924  -12.0811 C   0  0  0  0  0  0  0  0  0  0  0  0
   20.3737  -20.6500  -11.6917 O   0  0  0  0  0  0  0  0  0  0  0  0
   20.3916  -21.6147  -10.8473 O   0  0  0  0  0  0  0  0  0  0  0  0
  2  1  1  0
  2  3  2  0
  4  2  1  0
  5  4  1  0
  5  6  1  0
  7  6  1  0
  7  8  1  0
  8  9  1  6
 10  8  1  0
 10 11  2  0
 13 12  1  1
 13 14  1  0
 13 15  1  0
 15 16  1  6
 16 10  1  0
 17 15  1  0
 18 17  2  0
 19 20  1  0
 20 21  1  0
 21 23  1  0
 21 22  1  1
 23 24  1  6
 23 25  1  0
 24 17  1  0
 25 27  1  0
 26 25  2  0
M  END
$$$$
