RTI.pdb
     RDKit          3D

 27 26  0  0  1  0  0  0  0  0999 V2000
   28.8042  -24.8922  -23.0789 N   0  0  0  0  0  0  0  0  0  0  0  0
   27.4932  -24.8634  -23.6348 C   0  0  0  0  0  0  0  0  0  0  0  0
   27.1160  -23.7591  -24.1757 N   0  0  0  0  0  0  0  0  0  0  0  0
   26.6316  -25.9972  -23.6012 N   0  0  0  0  0  0  0  0  0  0  0  0
   26.9950  -27.1976  -22.9215 C   0  0  0  0  0  0  0  0  0  0  0  0
   27.0657  -27.0547  -21.4103 C   0  0  0  0  0  0  0  0  0  0  0  0
   27.4401  -28.3804  -20.7950 C   0  0  0  0  0  0  0  0  0  0  0  0
   28.4230  -28.2683  -19.6771 C   0  0  2  0  0  0  0  0  0  0  0  0
   29.5834  -27.5078  -20.0276 N   0  0  0  0  0  0  0  0  0  0  0  0
   28.7752  -29.6368  -19.1928 C   0  0  0  0  0  0  0  0  0  0  0  0
   29.9529  -30.0898  -19.3485 O   0  0  0  0  0  0  0  0  0  0  0  0
   26.1653  -23.6990  -24.5943 C   0  0  0  0  0  0  0  0  0  0  0  0
   29.3417  -32.9662  -16.1270 C   0  0  2  0  0  0  0  0  0  0  0  0
   29.1665  -31.6154  -16.7972 O   0  0  0  0  0  0  0  0  0  0  0  0
   30.3807  -31.0786  -17.1567 C   0  0  1  0  0  0  0  0  0  0  0  0
   28.2021  -31.7379  -17.9574 N   0  0  0  0  0  0  0  0  0  0  0  0
   27.8404  -30.4896  -18.5471 C   0  0  0  0  0  0  0  0  0  0  0  0
   27.0347  -32.5196  -17.4740 O   0  0  0  0  0  0  0  0  0  0  0  0
   25.9865  -31.8993  -17.1717 C   0  0  0  0  0  0  0  0  0  0  0  0
   22.5625  -35.0056  -19.1151 C   0  0  0  0  0  0  0  0  0  0  0  0
   23.6031  -35.2810  -18.0829 C   0  0  2  0  0  0  0  0  0  0  0  0
   24.7792  -34.4006  -17.9973 C   0  0  0  0  0  0  0  0  0  0  0  0
   25.4253  -34.4665  -19.4153 C   0  0  2  0  0  0  0  0  0  0  0  0
   25.7818  -34.6808  -16.9590 N   0  0  0  0  0  0  0  0  0  0  0  0
   27.0339  -33.9162  -17.3354 C   0  0  0  0  0  0  0  0  0  0  0  0
   26.2557  -36.0402  -16.8212 O   0  0  0  0  0  0  0  0  0  0  0  0
   25.4696  -36.9347  -16.3459 O   0  0  0  0  0  0  0  0  0  0  0  0
  2  1  1  0
  2  3  2  0
  4  2  1  0
  5  4  1  0
  5  6  1  0
  7  6  1  0
  7  8  1  0
  8  9  1  6
 10  8  1  0
 10 11  2  0
 13 12  1  1
 13 14  1  0
 13 15  1  0
 15 16  1  1
 16 10  1  0
 17 15  1  0
 18 17  2  0
 19 20  1  0
 20 21  1  0
 21 23  1  0
 21 22  1  1
 23 24  1  6
 23 25  1  0
 24 17  1  0
 25 27  1  0
 26 25  2  0
M  END
$$$$
