RTI.pdb
     RDKit          3D

 27 26  0  0  1  0  0  0  0  0999 V2000
   32.8854  -26.0276  -16.5962 N   0  0  0  0  0  0  0  0  0  0  0  0
   31.9621  -25.6604  -17.6166 C   0  0  0  0  0  0  0  0  0  0  0  0
   31.7075  -26.5449  -18.5150 N   0  0  0  0  0  0  0  0  0  0  0  0
   31.3423  -24.3783  -17.6512 N   0  0  0  0  0  0  0  0  0  0  0  0
   31.5123  -23.4327  -16.5967 C   0  0  0  0  0  0  0  0  0  0  0  0
   30.5893  -23.6572  -15.4106 C   0  0  0  0  0  0  0  0  0  0  0  0
   29.8427  -22.3826  -15.1036 C   0  0  0  0  0  0  0  0  0  0  0  0
   28.4388  -22.3709  -15.6108 C   0  0  2  0  0  0  0  0  0  0  0  0
   28.3570  -22.1609  -17.0239 N   0  0  0  0  0  0  0  0  0  0  0  0
   27.6485  -21.3591  -14.8473 C   0  0  0  0  0  0  0  0  0  0  0  0
   27.3926  -20.2241  -15.3599 O   0  0  0  0  0  0  0  0  0  0  0  0
   31.0474  -26.3101  -19.2842 C   0  0  0  0  0  0  0  0  0  0  0  0
   23.9669  -19.6649  -12.9021 C   0  0  1  0  0  0  0  0  0  0  0  0
   24.9142  -20.5634  -13.6765 O   0  0  0  0  0  0  0  0  0  0  0  0
   25.1160  -20.0898  -14.9519 C   0  0  1  0  0  0  0  0  0  0  0  0
   26.1998  -20.7476  -12.8988 N   0  0  0  0  0  0  0  0  0  0  0  0
   27.1496  -21.5989  -13.5390 C   0  0  0  0  0  0  0  0  0  0  0  0
   25.8239  -21.2063  -11.5366 O   0  0  0  0  0  0  0  0  0  0  0  0
   25.3532  -22.3623  -11.4061 C   0  0  0  0  0  0  0  0  0  0  0  0
   28.1928  -18.7351   -7.2910 C   0  0  0  0  0  0  0  0  0  0  0  0
   27.5644  -19.9375   -7.9102 C   0  0  2  0  0  0  0  0  0  0  0  0
   26.0986  -20.0029   -8.0232 C   0  0  0  0  0  0  0  0  0  0  0  0
   25.6088  -20.3760   -6.5903 C   0  0  2  0  0  0  0  0  0  0  0  0
   25.5195  -20.9143   -9.0210 N   0  0  0  0  0  0  0  0  0  0  0  0
   25.9650  -20.4210  -10.3820 C   0  0  0  0  0  0  0  0  0  0  0  0
   24.0793  -20.9613   -9.1436 O   0  0  0  0  0  0  0  0  0  0  0  0
   23.4239  -21.8649   -8.5128 O   0  0  0  0  0  0  0  0  0  0  0  0
  2  1  1  0
  2  3  2  0
  4  2  1  0
  5  4  1  0
  5  6  1  0
  7  6  1  0
  7  8  1  0
  8  9  1  6
 10  8  1  0
 10 11  2  0
 13 12  1  6
 13 14  1  0
 13 15  1  0
 15 16  1  6
 16 10  1  0
 17 15  1  0
 18 17  2  0
 19 20  1  0
 20 21  1  0
 21 23  1  0
 21 22  1  6
 23 24  1  1
 23 25  1  0
 24 17  1  0
 25 27  1  0
 26 25  2  0
M  END
$$$$
