RTI.pdb
     RDKit          3D

 27 26  0  0  1  0  0  0  0  0999 V2000
   28.3200  -28.7627  -17.3923 N   0  0  0  0  0  0  0  0  0  0  0  0
   27.2556  -28.1229  -16.6948 C   0  0  0  0  0  0  0  0  0  0  0  0
   26.5494  -28.8590  -15.9116 N   0  0  0  0  0  0  0  0  0  0  0  0
   26.9771  -26.7343  -16.8476 N   0  0  0  0  0  0  0  0  0  0  0  0
   27.7360  -25.9080  -17.7286 C   0  0  0  0  0  0  0  0  0  0  0  0
   28.9669  -25.2886  -17.0879 C   0  0  0  0  0  0  0  0  0  0  0  0
   28.5775  -24.0211  -16.3681 C   0  0  0  0  0  0  0  0  0  0  0  0
   28.2151  -22.8977  -17.2820 C   0  0  2  0  0  0  0  0  0  0  0  0
   29.2702  -22.5483  -18.1833 N   0  0  0  0  0  0  0  0  0  0  0  0
   27.7625  -21.7290  -16.4692 C   0  0  0  0  0  0  0  0  0  0  0  0
   28.2771  -20.5811  -16.6529 O   0  0  0  0  0  0  0  0  0  0  0  0
   26.7838  -29.8684  -15.8172 C   0  0  0  0  0  0  0  0  0  0  0  0
   24.6500  -18.6975  -15.3068 C   0  0  2  0  0  0  0  0  0  0  0  0
   25.4002  -19.8322  -15.9806 O   0  0  0  0  0  0  0  0  0  0  0  0
   26.2704  -19.3553  -16.9329 C   0  0  1  0  0  0  0  0  0  0  0  0
   26.0748  -20.6950  -14.9356 N   0  0  0  0  0  0  0  0  0  0  0  0
   26.7574  -21.8286  -15.4701 C   0  0  0  0  0  0  0  0  0  0  0  0
   25.0405  -21.0521  -13.9305 O   0  0  0  0  0  0  0  0  0  0  0  0
   24.0987  -21.8015  -14.2854 C   0  0  0  0  0  0  0  0  0  0  0  0
   26.7145  -21.2873   -8.6968 C   0  0  0  0  0  0  0  0  0  0  0  0
   25.9663  -21.6358   -9.9390 C   0  0  2  0  0  0  0  0  0  0  0  0
   24.7174  -20.9215  -10.2483 C   0  0  0  0  0  0  0  0  0  0  0  0
   23.7380  -21.3257   -9.1040 C   0  0  2  0  0  0  0  0  0  0  0  0
   24.0972  -21.1452  -11.5625 N   0  0  0  0  0  0  0  0  0  0  0  0
   25.0545  -20.5999  -12.6019 C   0  0  0  0  0  0  0  0  0  0  0  0
   22.8621  -20.4532  -11.8577 O   0  0  0  0  0  0  0  0  0  0  0  0
   22.8890  -19.1940  -12.0975 O   0  0  0  0  0  0  0  0  0  0  0  0
  2  1  1  0
  2  3  2  0
  4  2  1  0
  5  4  1  0
  5  6  1  0
  7  6  1  0
  7  8  1  0
  8  9  1  1
 10  8  1  0
 10 11  2  0
 13 12  1  6
 13 14  1  0
 13 15  1  0
 15 16  1  6
 16 10  1  0
 17 15  1  0
 18 17  2  0
 19 20  1  0
 20 21  1  0
 21 23  1  0
 21 22  1  6
 23 24  1  6
 23 25  1  0
 24 17  1  0
 25 27  1  0
 26 25  2  0
M  END
$$$$
