RTI.pdb
     RDKit          3D

 27 26  0  0  1  0  0  0  0  0999 V2000
   13.0612  -13.8358  -15.4471 N   0  0  0  0  0  0  0  0  0  0  0  0
   13.0541  -15.2570  -15.5406 C   0  0  0  0  0  0  0  0  0  0  0  0
   11.9055  -15.8350  -15.5129 N   0  0  0  0  0  0  0  0  0  0  0  0
   14.2549  -16.0138  -15.6607 N   0  0  0  0  0  0  0  0  0  0  0  0
   15.5394  -15.3936  -15.6406 C   0  0  0  0  0  0  0  0  0  0  0  0
   15.8237  -14.5218  -16.8524 C   0  0  0  0  0  0  0  0  0  0  0  0
   17.2018  -13.9202  -16.7292 C   0  0  0  0  0  0  0  0  0  0  0  0
   18.0167  -14.0238  -17.9756 C   0  0  2  0  0  0  0  0  0  0  0  0
   18.4702  -15.3555  -18.2375 N   0  0  0  0  0  0  0  0  0  0  0  0
   19.1476  -13.0503  -17.9061 C   0  0  0  0  0  0  0  0  0  0  0  0
   20.3402  -13.4616  -17.7486 O   0  0  0  0  0  0  0  0  0  0  0  0
   11.8601  -16.8738  -15.5521 C   0  0  0  0  0  0  0  0  0  0  0  0
   20.2716  -10.2983  -20.3085 C   0  0  2  0  0  0  0  0  0  0  0  0
   20.0587   -9.6473  -18.9537 O   0  0  0  0  0  0  0  0  0  0  0  0
   18.9408   -8.8461  -18.9584 C   0  0  2  0  0  0  0  0  0  0  0  0
   20.0282  -10.7066  -17.8729 N   0  0  0  0  0  0  0  0  0  0  0  0
   18.9621  -11.6456  -18.0092 C   0  0  0  0  0  0  0  0  0  0  0  0
   20.0236   -9.9980  -16.5671 O   0  0  0  0  0  0  0  0  0  0  0  0
   18.9535   -9.9623  -15.9125 C   0  0  0  0  0  0  0  0  0  0  0  0
   23.0441  -10.3776  -11.5622 C   0  0  0  0  0  0  0  0  0  0  0  0
   22.2439   -9.4346  -12.3955 C   0  0  2  0  0  0  0  0  0  0  0  0
   22.0136   -9.7496  -13.8145 C   0  0  0  0  0  0  0  0  0  0  0  0
   23.4413   -9.8318  -14.4370 C   0  0  2  0  0  0  0  0  0  0  0  0
   21.1600   -8.8436  -14.5969 N   0  0  0  0  0  0  0  0  0  0  0  0
   21.1495   -9.3640  -16.0192 C   0  0  0  0  0  0  0  0  0  0  0  0
   21.5886   -7.4711  -14.7521 O   0  0  0  0  0  0  0  0  0  0  0  0
   22.3554   -7.1589  -15.7311 O   0  0  0  0  0  0  0  0  0  0  0  0
  2  1  1  0
  2  3  2  0
  4  2  1  0
  5  4  1  0
  5  6  1  0
  7  6  1  0
  7  8  1  0
  8  9  1  1
 10  8  1  0
 10 11  2  0
 13 12  1  6
 13 14  1  0
 13 15  1  0
 15 16  1  1
 16 10  1  0
 17 15  1  0
 18 17  2  0
 19 20  1  0
 20 21  1  0
 21 23  1  0
 21 22  1  6
 23 24  1  6
 23 25  1  0
 24 17  1  0
 25 27  1  0
 26 25  2  0
M  END
$$$$
