RTI.pdb
     RDKit          3D

 27 26  0  0  1  0  0  0  0  0999 V2000
   25.3794  -33.5840   -9.8686 N   0  0  0  0  0  0  0  0  0  0  0  0
   25.5608  -32.3234   -9.2311 C   0  0  0  0  0  0  0  0  0  0  0  0
   26.7077  -31.7594   -9.3754 N   0  0  0  0  0  0  0  0  0  0  0  0
   24.5287  -31.7053   -8.4683 N   0  0  0  0  0  0  0  0  0  0  0  0
   23.2784  -32.3507   -8.2334 C   0  0  0  0  0  0  0  0  0  0  0  0
   23.3634  -33.8675   -8.1966 C   0  0  0  0  0  0  0  0  0  0  0  0
   22.0230  -34.4386   -7.8048 C   0  0  0  0  0  0  0  0  0  0  0  0
   21.9876  -35.9309   -7.7856 C   0  0  2  0  0  0  0  0  0  0  0  0
   21.1635  -36.4834   -8.8167 N   0  0  0  0  0  0  0  0  0  0  0  0
   21.5733  -36.3956   -6.4278 C   0  0  0  0  0  0  0  0  0  0  0  0
   20.3410  -36.4893   -6.1294 O   0  0  0  0  0  0  0  0  0  0  0  0
   26.8843  -30.8448   -8.9118 C   0  0  0  0  0  0  0  0  0  0  0  0
   22.5644  -38.4247   -2.0304 C   0  0  1  0  0  0  0  0  0  0  0  0
   23.0736  -38.0824   -3.4190 O   0  0  0  0  0  0  0  0  0  0  0  0
   23.3078  -39.2197   -4.1560 C   0  0  1  0  0  0  0  0  0  0  0  0
   22.1196  -37.1205   -4.0943 N   0  0  0  0  0  0  0  0  0  0  0  0
   22.5065  -36.7507   -5.4173 C   0  0  0  0  0  0  0  0  0  0  0  0
   21.9545  -35.9582   -3.1838 O   0  0  0  0  0  0  0  0  0  0  0  0
   22.8480  -35.0770   -3.1748 C   0  0  0  0  0  0  0  0  0  0  0  0
   16.9718  -33.9680   -1.7730 C   0  0  0  0  0  0  0  0  0  0  0  0
   18.4337  -34.0241   -2.0625 C   0  0  2  0  0  0  0  0  0  0  0  0
   19.3585  -34.4590   -1.0035 C   0  0  0  0  0  0  0  0  0  0  0  0
   19.1965  -33.3933    0.1237 C   0  0  2  0  0  0  0  0  0  0  0  0
   20.7767  -34.6339   -1.3494 N   0  0  0  0  0  0  0  0  0  0  0  0
   20.8540  -35.7855   -2.3301 C   0  0  0  0  0  0  0  0  0  0  0  0
   21.6878  -35.0340   -0.2999 O   0  0  0  0  0  0  0  0  0  0  0  0
   22.4246  -34.1491    0.2640 O   0  0  0  0  0  0  0  0  0  0  0  0
  2  1  1  0
  2  3  2  0
  4  2  1  0
  5  4  1  0
  5  6  1  0
  7  6  1  0
  7  8  1  0
  8  9  1  6
 10  8  1  0
 10 11  2  0
 13 12  1  1
 13 14  1  0
 13 15  1  0
 15 16  1  1
 16 10  1  0
 17 15  1  0
 18 17  2  0
 19 20  1  0
 20 21  1  0
 21 23  1  0
 21 22  1  1
 23 24  1  6
 23 25  1  0
 24 17  1  0
 25 27  1  0
 26 25  2  0
M  END
$$$$
