RTI.pdb
     RDKit          3D

 27 26  0  0  1  0  0  0  0  0999 V2000
   14.8249  -15.8342  -20.8451 N   0  0  0  0  0  0  0  0  0  0  0  0
   14.5034  -15.0375  -19.7091 C   0  0  0  0  0  0  0  0  0  0  0  0
   13.6465  -15.5240  -18.8825 N   0  0  0  0  0  0  0  0  0  0  0  0
   15.0968  -13.7618  -19.4866 N   0  0  0  0  0  0  0  0  0  0  0  0
   16.2277  -13.3182  -20.2344 C   0  0  0  0  0  0  0  0  0  0  0  0
   17.5463  -13.9174  -19.7743 C   0  0  0  0  0  0  0  0  0  0  0  0
   18.0221  -13.1991  -18.5357 C   0  0  0  0  0  0  0  0  0  0  0  0
   19.3122  -13.7213  -17.9960 C   0  0  2  0  0  0  0  0  0  0  0  0
   19.2287  -15.0850  -17.5705 N   0  0  0  0  0  0  0  0  0  0  0  0
   19.7881  -12.8214  -16.9028 C   0  0  0  0  0  0  0  0  0  0  0  0
   19.2302  -12.8478  -15.7607 O   0  0  0  0  0  0  0  0  0  0  0  0
   13.4309  -15.0002  -18.0097 C   0  0  0  0  0  0  0  0  0  0  0  0
   23.1611  -10.2461  -14.5738 C   0  0  2  0  0  0  0  0  0  0  0  0
   22.7898  -11.1799  -15.7117 O   0  0  0  0  0  0  0  0  0  0  0  0
   23.1627  -12.4740  -15.4334 C   0  0  1  0  0  0  0  0  0  0  0  0
   21.3171  -11.0398  -16.0325 N   0  0  0  0  0  0  0  0  0  0  0  0
   20.8631  -11.9079  -17.0703 C   0  0  0  0  0  0  0  0  0  0  0  0
   21.0669   -9.6032  -16.3167 O   0  0  0  0  0  0  0  0  0  0  0  0
   21.3838   -9.1554  -17.4454 C   0  0  0  0  0  0  0  0  0  0  0  0
   16.4868   -7.4344  -16.5247 C   0  0  0  0  0  0  0  0  0  0  0  0
   17.9666   -7.4918  -16.7006 C   0  0  2  0  0  0  0  0  0  0  0  0
   18.8368   -6.9938  -15.6233 C   0  0  0  0  0  0  0  0  0  0  0  0
   18.5549   -5.4610  -15.5653 C   0  0  2  0  0  0  0  0  0  0  0  0
   20.2811   -7.2502  -15.7234 N   0  0  0  0  0  0  0  0  0  0  0  0
   20.4944   -8.7133  -15.3948 C   0  0  0  0  0  0  0  0  0  0  0  0
   21.1575   -6.5732  -14.7933 O   0  0  0  0  0  0  0  0  0  0  0  0
   21.6988   -5.4622  -15.1348 O   0  0  0  0  0  0  0  0  0  0  0  0
  2  1  1  0
  2  3  2  0
  4  2  1  0
  5  4  1  0
  5  6  1  0
  7  6  1  0
  7  8  1  0
  8  9  1  1
 10  8  1  0
 10 11  2  0
 13 12  1  6
 13 14  1  0
 13 15  1  0
 15 16  1  6
 16 10  1  0
 17 15  1  0
 18 17  2  0
 19 20  1  0
 20 21  1  0
 21 23  1  0
 21 22  1  1
 23 24  1  6
 23 25  1  0
 24 17  1  0
 25 27  1  0
 26 25  2  0
M  END
$$$$
