QLQ.pdb
     RDKit          3D

 27 26  0  0  1  0  0  0  0  0999 V2000
    7.5819  -23.4211   16.9667 N   0  0  0  0  0  0  0  0  0  0  0  0
    7.7278  -22.1696   17.6606 C   0  0  0  0  0  0  0  0  0  0  0  0
    7.0166  -21.9545   18.6738 O   0  0  0  0  0  0  0  0  0  0  0  0
    8.7055  -21.2250   17.1220 C   0  0  0  0  0  0  0  0  0  0  0  0
    9.0157  -20.0783   18.0191 C   0  0  0  0  0  0  0  0  0  0  0  0
    8.8202  -18.7735   17.3467 C   0  0  2  0  0  0  0  0  0  0  0  0
    9.4951  -18.6976   16.0828 N   0  0  0  0  0  0  0  0  0  0  0  0
    9.3333  -17.6284   18.1821 C   0  0  0  0  0  0  0  0  0  0  0  0
   10.4855  -17.1987   17.9935 O   0  0  0  0  0  0  0  0  0  0  0  0
    6.9590  -13.1867   21.8918 C   0  0  0  0  0  0  0  0  0  0  0  0
    8.1275  -13.8313   21.1915 C   0  0  2  0  0  0  0  0  0  0  0  0
    8.6901  -12.7582   20.2388 C   0  0  0  0  0  0  0  0  0  0  0  0
    7.7753  -14.9849   20.3401 C   0  0  0  0  0  0  0  0  0  0  0  0
    8.8345  -15.9253   19.9201 C   0  0  2  0  0  0  0  0  0  0  0  0
    8.4538  -17.0750   19.1755 N   0  0  0  0  0  0  0  0  0  0  0  0
    9.6793  -16.4022   21.0611 C   0  0  0  0  0  0  0  0  0  0  0  0
    9.3093  -17.3458   21.8299 O   0  0  0  0  0  0  0  0  0  0  0  0
   15.5973  -14.4004   21.8133 N   0  0  0  0  0  0  0  0  0  0  0  0
   15.5336  -15.8065   21.7626 C   0  0  0  0  0  0  0  0  0  0  0  0
   16.5648  -16.4311   21.3339 O   0  0  0  0  0  0  0  0  0  0  0  0
   14.3120  -16.5075   22.2003 C   0  0  0  0  0  0  0  0  0  0  0  0
   13.1256  -15.6367   22.1350 C   0  0  0  0  0  0  0  0  0  0  0  0
   11.7879  -16.2245   22.4717 C   0  0  2  0  0  0  0  0  0  0  0  0
   10.9267  -15.8178   21.3273 N   0  0  0  0  0  0  0  0  0  0  0  0
   11.1961  -15.9346   23.7470 C   0  0  0  0  0  0  0  0  0  0  0  0
   10.3229  -16.8040   24.3690 O   0  0  0  0  0  0  0  0  0  0  0  0
   11.4638  -14.8406   24.3434 O   0  0  0  0  0  0  0  0  0  0  0  0
  2  1  1  0
  3  2  2  0
  4  2  1  0
  5  4  1  0
  6  7  1  6
  6  5  1  0
  8  6  1  0
  9  8  2  0
 11 10  1  6
 12 11  1  0
 13 11  1  0
 14 13  1  1
 14 15  1  0
 15  8  1  0
 16 24  1  0
 16 14  1  0
 17 16  2  0
 18 19  1  0
 19 21  1  0
 20 19  2  0
 21 22  1  0
 23 22  1  6
 23 24  1  0
 23 25  1  0
 25 26  1  0
 27 25  2  0
M  END
$$$$
