QLQ.pdb
     RDKit          3D

 27 26  0  0  1  0  0  0  0  0999 V2000
    9.6867  -19.5190   20.2391 N   0  0  0  0  0  0  0  0  0  0  0  0
    8.7886  -19.1389   19.1817 C   0  0  0  0  0  0  0  0  0  0  0  0
    8.8069  -19.7938   18.1096 O   0  0  0  0  0  0  0  0  0  0  0  0
    7.9117  -17.9971   19.4374 C   0  0  0  0  0  0  0  0  0  0  0  0
    8.0946  -17.3644   20.7724 C   0  0  0  0  0  0  0  0  0  0  0  0
    7.9926  -15.8884   20.7103 C   0  0  2  0  0  0  0  0  0  0  0  0
    8.7976  -15.3231   19.6658 N   0  0  0  0  0  0  0  0  0  0  0  0
    8.4341  -15.2400   21.9976 C   0  0  0  0  0  0  0  0  0  0  0  0
    9.6485  -15.1173   22.2384 O   0  0  0  0  0  0  0  0  0  0  0  0
    5.9097  -12.3590   26.9753 C   0  0  0  0  0  0  0  0  0  0  0  0
    7.0993  -12.9126   26.2340 C   0  0  2  0  0  0  0  0  0  0  0  0
    8.0836  -11.7363   26.0814 C   0  0  0  0  0  0  0  0  0  0  0  0
    6.8086  -13.3784   24.8634 C   0  0  0  0  0  0  0  0  0  0  0  0
    7.7604  -14.2856   24.1898 C   0  0  2  0  0  0  0  0  0  0  0  0
    7.4154  -14.7850   22.9041 N   0  0  0  0  0  0  0  0  0  0  0  0
    8.1391  -15.4655   25.0309 C   0  0  0  0  0  0  0  0  0  0  0  0
    7.2927  -16.3493   25.3785 O   0  0  0  0  0  0  0  0  0  0  0  0
   12.0218  -18.8301   23.1547 N   0  0  0  0  0  0  0  0  0  0  0  0
   12.3806  -19.2188   24.4600 C   0  0  0  0  0  0  0  0  0  0  0  0
   13.0276  -20.3145   24.5950 O   0  0  0  0  0  0  0  0  0  0  0  0
   12.0164  -18.3709   25.6104 C   0  0  0  0  0  0  0  0  0  0  0  0
   11.1617  -17.2396   25.2103 C   0  0  0  0  0  0  0  0  0  0  0  0
    9.9605  -16.9195   26.0486 C   0  0  2  0  0  0  0  0  0  0  0  0
    9.4592  -15.6417   25.4720 N   0  0  0  0  0  0  0  0  0  0  0  0
   10.0952  -16.8731   27.4771 C   0  0  0  0  0  0  0  0  0  0  0  0
   10.2256  -18.0143   28.2425 O   0  0  0  0  0  0  0  0  0  0  0  0
   10.0898  -15.7529   28.0847 O   0  0  0  0  0  0  0  0  0  0  0  0
  2  1  1  0
  3  2  2  0
  4  2  1  0
  5  4  1  0
  6  7  1  6
  6  5  1  0
  8  6  1  0
  9  8  2  0
 11 10  1  6
 12 11  1  0
 13 11  1  0
 14 13  1  1
 14 15  1  0
 15  8  1  0
 16 24  1  0
 16 14  1  0
 17 16  2  0
 18 19  1  0
 19 21  1  0
 20 19  2  0
 21 22  1  0
 23 22  1  6
 23 24  1  0
 23 25  1  0
 25 26  1  0
 27 25  2  0
M  END
$$$$
