QLQ.pdb
     RDKit          3D

 27 26  0  0  1  0  0  0  0  0999 V2000
    7.7334  -16.7300   16.7415 N   0  0  0  0  0  0  0  0  0  0  0  0
    7.5107  -17.2015   18.0821 C   0  0  0  0  0  0  0  0  0  0  0  0
    6.3516  -17.5560   18.4127 O   0  0  0  0  0  0  0  0  0  0  0  0
    8.6687  -17.2281   18.9746 C   0  0  0  0  0  0  0  0  0  0  0  0
    8.7316  -16.0958   19.9390 C   0  0  0  0  0  0  0  0  0  0  0  0
    9.0086  -16.5524   21.3201 C   0  0  2  0  0  0  0  0  0  0  0  0
    7.9852  -17.4189   21.8305 N   0  0  0  0  0  0  0  0  0  0  0  0
    9.1188  -15.3973   22.2823 C   0  0  0  0  0  0  0  0  0  0  0  0
    9.9765  -14.5170   22.0893 O   0  0  0  0  0  0  0  0  0  0  0  0
    5.9687  -12.7393   26.9887 C   0  0  0  0  0  0  0  0  0  0  0  0
    7.2612  -13.0026   26.2598 C   0  0  2  0  0  0  0  0  0  0  0  0
    7.7227  -11.6362   25.7161 C   0  0  0  0  0  0  0  0  0  0  0  0
    7.1358  -13.8858   25.0832 C   0  0  0  0  0  0  0  0  0  0  0  0
    8.3574  -14.3854   24.4192 C   0  0  2  0  0  0  0  0  0  0  0  0
    8.2130  -15.3640   23.3981 N   0  0  0  0  0  0  0  0  0  0  0  0
    9.3765  -14.9067   25.3849 C   0  0  0  0  0  0  0  0  0  0  0  0
    9.6710  -14.2898   26.4578 O   0  0  0  0  0  0  0  0  0  0  0  0
   11.0687  -18.3380   29.5111 N   0  0  0  0  0  0  0  0  0  0  0  0
   10.0298  -18.8846   28.7328 C   0  0  0  0  0  0  0  0  0  0  0  0
    9.5521  -20.0158   29.0929 O   0  0  0  0  0  0  0  0  0  0  0  0
    9.5261  -18.1546   27.5545 C   0  0  0  0  0  0  0  0  0  0  0  0
   10.2405  -16.8826   27.3495 C   0  0  0  0  0  0  0  0  0  0  0  0
   11.0332  -16.7028   26.0895 C   0  0  2  0  0  0  0  0  0  0  0  0
   10.0527  -16.1109   25.1382 N   0  0  0  0  0  0  0  0  0  0  0  0
   11.7381  -17.8257   25.5389 C   0  0  0  0  0  0  0  0  0  0  0  0
   11.2942  -18.4964   24.4172 O   0  0  0  0  0  0  0  0  0  0  0  0
   12.8091  -18.2421   26.0898 O   0  0  0  0  0  0  0  0  0  0  0  0
  2  1  1  0
  3  2  2  0
  4  2  1  0
  5  4  1  0
  6  7  1  1
  6  5  1  0
  8  6  1  0
  9  8  2  0
 11 10  1  6
 12 11  1  0
 13 11  1  0
 14 13  1  1
 14 15  1  0
 15  8  1  0
 16 24  1  0
 16 14  1  0
 17 16  2  0
 18 19  1  0
 19 21  1  0
 20 19  2  0
 21 22  1  0
 23 22  1  1
 23 24  1  0
 23 25  1  0
 25 26  1  0
 27 25  2  0
M  END
$$$$
