QLQ.pdb
     RDKit          3D

 27 26  0  0  1  0  0  0  0  0999 V2000
   14.0202  -19.5510   17.5990 N   0  0  0  0  0  0  0  0  0  0  0  0
   14.3792  -18.7091   16.4894 C   0  0  0  0  0  0  0  0  0  0  0  0
   14.9667  -19.2247   15.5056 O   0  0  0  0  0  0  0  0  0  0  0  0
   14.0320  -17.2926   16.5946 C   0  0  0  0  0  0  0  0  0  0  0  0
   13.3128  -16.9240   17.8448 C   0  0  0  0  0  0  0  0  0  0  0  0
   12.8468  -15.5186   17.8281 C   0  0  2  0  0  0  0  0  0  0  0  0
   13.9178  -14.5844   17.6307 N   0  0  0  0  0  0  0  0  0  0  0  0
   12.1696  -15.1358   19.1193 C   0  0  0  0  0  0  0  0  0  0  0  0
   12.8574  -14.9239   20.1342 O   0  0  0  0  0  0  0  0  0  0  0  0
    9.0153  -11.7673   19.6612 C   0  0  0  0  0  0  0  0  0  0  0  0
    8.3909  -13.0820   19.2700 C   0  0  2  0  0  0  0  0  0  0  0  0
    6.8673  -12.8524   19.3127 C   0  0  0  0  0  0  0  0  0  0  0  0
    8.6598  -14.1936   20.2038 C   0  0  0  0  0  0  0  0  0  0  0  0
   10.0326  -14.7274   20.3180 C   0  0  2  0  0  0  0  0  0  0  0  0
   10.7359  -15.0309   19.1202 N   0  0  0  0  0  0  0  0  0  0  0  0
   10.1182  -15.9383   21.1951 C   0  0  0  0  0  0  0  0  0  0  0  0
    9.8805  -17.1094   20.7585 O   0  0  0  0  0  0  0  0  0  0  0  0
   13.8188  -18.8169   20.9575 N   0  0  0  0  0  0  0  0  0  0  0  0
   13.6599  -19.3578   22.2482 C   0  0  0  0  0  0  0  0  0  0  0  0
   14.4650  -20.2863   22.6046 O   0  0  0  0  0  0  0  0  0  0  0  0
   12.5994  -18.8487   23.1378 C   0  0  0  0  0  0  0  0  0  0  0  0
   11.9407  -17.6549   22.5800 C   0  0  0  0  0  0  0  0  0  0  0  0
   10.8672  -16.9880   23.3870 C   0  0  2  0  0  0  0  0  0  0  0  0
   10.4685  -15.8239   22.5488 N   0  0  0  0  0  0  0  0  0  0  0  0
   11.1367  -16.6286   24.7505 C   0  0  0  0  0  0  0  0  0  0  0  0
   11.1388  -15.3169   25.1802 O   0  0  0  0  0  0  0  0  0  0  0  0
   11.3930  -17.5319   25.6121 O   0  0  0  0  0  0  0  0  0  0  0  0
  2  1  1  0
  3  2  2  0
  4  2  1  0
  5  4  1  0
  6  7  1  1
  6  5  1  0
  8  6  1  0
  9  8  2  0
 11 10  1  1
 12 11  1  0
 13 11  1  0
 14 13  1  6
 14 15  1  0
 15  8  1  0
 16 24  1  0
 16 14  1  0
 17 16  2  0
 18 19  1  0
 19 21  1  0
 20 19  2  0
 21 22  1  0
 23 22  1  6
 23 24  1  0
 23 25  1  0
 25 26  1  0
 27 25  2  0
M  END
$$$$
