QLQ.pdb
     RDKit          3D

 27 26  0  0  1  0  0  0  0  0999 V2000
   11.4245  -17.1310   14.0448 N   0  0  0  0  0  0  0  0  0  0  0  0
   10.3226  -18.0457   14.1799 C   0  0  0  0  0  0  0  0  0  0  0  0
    9.8558  -18.5855   13.1458 O   0  0  0  0  0  0  0  0  0  0  0  0
    9.8179  -18.2778   15.5326 C   0  0  0  0  0  0  0  0  0  0  0  0
   10.5635  -17.5590   16.6019 C   0  0  0  0  0  0  0  0  0  0  0  0
   10.1867  -18.0249   17.9560 C   0  0  2  0  0  0  0  0  0  0  0  0
    8.8104  -18.4216   18.0400 N   0  0  0  0  0  0  0  0  0  0  0  0
   10.3939  -16.9539   18.9965 C   0  0  0  0  0  0  0  0  0  0  0  0
   11.5463  -16.5616   19.2531 O   0  0  0  0  0  0  0  0  0  0  0  0
    8.6541  -12.6109   19.1989 C   0  0  0  0  0  0  0  0  0  0  0  0
    7.7049  -13.6789   19.6781 C   0  0  2  0  0  0  0  0  0  0  0  0
    6.4608  -12.9324   20.1983 C   0  0  0  0  0  0  0  0  0  0  0  0
    8.2020  -14.4797   20.8146 C   0  0  0  0  0  0  0  0  0  0  0  0
    9.3543  -15.3825   20.6153 C   0  0  2  0  0  0  0  0  0  0  0  0
    9.2314  -16.4251   19.6565 N   0  0  0  0  0  0  0  0  0  0  0  0
    9.8315  -16.0116   21.8879 C   0  0  0  0  0  0  0  0  0  0  0  0
    9.0342  -16.5640   22.7111 O   0  0  0  0  0  0  0  0  0  0  0  0
   13.1970  -20.5602   22.8283 N   0  0  0  0  0  0  0  0  0  0  0  0
   11.7966  -20.4637   22.9436 C   0  0  0  0  0  0  0  0  0  0  0  0
   11.1283  -21.5545   22.9748 O   0  0  0  0  0  0  0  0  0  0  0  0
   11.1512  -19.1404   23.0297 C   0  0  0  0  0  0  0  0  0  0  0  0
   12.1319  -18.0443   22.9452 C   0  0  0  0  0  0  0  0  0  0  0  0
   11.7307  -16.6864   23.4386 C   0  0  2  0  0  0  0  0  0  0  0  0
   11.1938  -16.0148   22.2232 N   0  0  0  0  0  0  0  0  0  0  0  0
   12.6914  -15.8843   24.1419 C   0  0  0  0  0  0  0  0  0  0  0  0
   13.2881  -14.7787   23.5703 O   0  0  0  0  0  0  0  0  0  0  0  0
   13.0278  -16.1861   25.3335 O   0  0  0  0  0  0  0  0  0  0  0  0
  2  1  1  0
  3  2  2  0
  4  2  1  0
  5  4  1  0
  6  7  1  6
  6  5  1  0
  8  6  1  0
  9  8  2  0
 11 10  1  1
 12 11  1  0
 13 11  1  0
 14 13  1  1
 14 15  1  0
 15  8  1  0
 16 24  1  0
 16 14  1  0
 17 16  2  0
 18 19  1  0
 19 21  1  0
 20 19  2  0
 21 22  1  0
 23 22  1  6
 23 24  1  0
 23 25  1  0
 25 26  1  0
 27 25  2  0
M  END
$$$$
