QLQ.pdb
     RDKit          3D

 27 26  0  0  1  0  0  0  0  0999 V2000
    8.2584  -14.4779   14.8080 N   0  0  0  0  0  0  0  0  0  0  0  0
    8.2902  -15.9080   14.9593 C   0  0  0  0  0  0  0  0  0  0  0  0
    7.9933  -16.6263   13.9721 O   0  0  0  0  0  0  0  0  0  0  0  0
    8.6670  -16.4257   16.2739 C   0  0  0  0  0  0  0  0  0  0  0  0
   10.0429  -16.9896   16.3445 C   0  0  0  0  0  0  0  0  0  0  0  0
   10.3327  -17.5931   17.6653 C   0  0  2  0  0  0  0  0  0  0  0  0
    9.3463  -18.5575   18.0597 N   0  0  0  0  0  0  0  0  0  0  0  0
   10.3861  -16.5555   18.7576 C   0  0  0  0  0  0  0  0  0  0  0  0
   11.4582  -15.9720   18.9984 O   0  0  0  0  0  0  0  0  0  0  0  0
    8.6445  -12.4072   19.4252 C   0  0  0  0  0  0  0  0  0  0  0  0
    7.6579  -13.5293   19.6221 C   0  0  2  0  0  0  0  0  0  0  0  0
    6.3358  -12.8573   20.0420 C   0  0  0  0  0  0  0  0  0  0  0  0
    8.0000  -14.4663   20.7106 C   0  0  0  0  0  0  0  0  0  0  0  0
    9.1716  -15.3539   20.5607 C   0  0  2  0  0  0  0  0  0  0  0  0
    9.1760  -16.2823   19.4839 N   0  0  0  0  0  0  0  0  0  0  0  0
    9.4840  -16.1253   21.8057 C   0  0  0  0  0  0  0  0  0  0  0  0
    8.6744  -16.9743   22.2978 O   0  0  0  0  0  0  0  0  0  0  0  0
    9.8355  -20.4648   22.4227 N   0  0  0  0  0  0  0  0  0  0  0  0
   11.1187  -20.5735   22.9931 C   0  0  0  0  0  0  0  0  0  0  0  0
   11.4647  -21.7136   23.4599 O   0  0  0  0  0  0  0  0  0  0  0  0
   12.0125  -19.4010   23.0315 C   0  0  0  0  0  0  0  0  0  0  0  0
   11.3566  -18.1927   22.5022 C   0  0  0  0  0  0  0  0  0  0  0  0
   11.3033  -16.9703   23.3689 C   0  0  2  0  0  0  0  0  0  0  0  0
   10.6977  -15.9375   22.4840 N   0  0  0  0  0  0  0  0  0  0  0  0
   12.5018  -16.5179   24.0168 C   0  0  0  0  0  0  0  0  0  0  0  0
   13.3873  -15.6521   23.4073 O   0  0  0  0  0  0  0  0  0  0  0  0
   12.7850  -16.9202   25.1925 O   0  0  0  0  0  0  0  0  0  0  0  0
  2  1  1  0
  3  2  2  0
  4  2  1  0
  5  4  1  0
  6  7  1  1
  6  5  1  0
  8  6  1  0
  9  8  2  0
 11 10  1  1
 12 11  1  0
 13 11  1  0
 14 13  1  1
 14 15  1  0
 15  8  1  0
 16 24  1  0
 16 14  1  0
 17 16  2  0
 18 19  1  0
 19 21  1  0
 20 19  2  0
 21 22  1  0
 23 22  1  6
 23 24  1  0
 23 25  1  0
 25 26  1  0
 27 25  2  0
M  END
$$$$
