QLQ.pdb
     RDKit          3D

 27 26  0  0  1  0  0  0  0  0999 V2000
    8.9889  -20.3635   22.8019 N   0  0  0  0  0  0  0  0  0  0  0  0
    9.8880  -19.4439   22.1576 C   0  0  0  0  0  0  0  0  0  0  0  0
   11.0713  -19.8073   21.9422 O   0  0  0  0  0  0  0  0  0  0  0  0
    9.3488  -18.1323   21.8009 C   0  0  0  0  0  0  0  0  0  0  0  0
    7.9039  -17.9532   22.1109 C   0  0  0  0  0  0  0  0  0  0  0  0
    7.3893  -16.6463   21.6421 C   0  0  2  0  0  0  0  0  0  0  0  0
    7.7383  -16.3732   20.2774 N   0  0  0  0  0  0  0  0  0  0  0  0
    7.9267  -15.5030   22.4645 C   0  0  0  0  0  0  0  0  0  0  0  0
    8.8740  -14.8247   22.0281 O   0  0  0  0  0  0  0  0  0  0  0  0
    6.3064  -12.0357   27.4297 C   0  0  0  0  0  0  0  0  0  0  0  0
    7.3338  -12.5282   26.4433 C   0  0  2  0  0  0  0  0  0  0  0  0
    7.6993  -11.3091   25.5737 C   0  0  0  0  0  0  0  0  0  0  0  0
    6.8445  -13.5609   25.5084 C   0  0  0  0  0  0  0  0  0  0  0  0
    7.7947  -14.2040   24.5776 C   0  0  2  0  0  0  0  0  0  0  0  0
    7.3105  -15.2433   23.7370 N   0  0  0  0  0  0  0  0  0  0  0  0
    9.0194  -14.7284   25.2617 C   0  0  0  0  0  0  0  0  0  0  0  0
    9.7228  -14.0072   26.0385 O   0  0  0  0  0  0  0  0  0  0  0  0
   11.2595  -20.1825   27.2871 N   0  0  0  0  0  0  0  0  0  0  0  0
   10.9511  -19.2200   28.2680 C   0  0  0  0  0  0  0  0  0  0  0  0
   11.2286  -19.5040   29.4845 O   0  0  0  0  0  0  0  0  0  0  0  0
   10.3369  -17.9371   27.8778 C   0  0  0  0  0  0  0  0  0  0  0  0
   10.1467  -17.8400   26.4202 C   0  0  0  0  0  0  0  0  0  0  0  0
   10.6574  -16.6208   25.7122 C   0  0  2  0  0  0  0  0  0  0  0  0
    9.4413  -16.0524   25.0684 N   0  0  0  0  0  0  0  0  0  0  0  0
   11.7622  -16.7489   24.8045 C   0  0  0  0  0  0  0  0  0  0  0  0
   13.0666  -16.8591   25.2421 O   0  0  0  0  0  0  0  0  0  0  0  0
   11.5596  -16.7566   23.5463 O   0  0  0  0  0  0  0  0  0  0  0  0
  2  1  1  0
  3  2  2  0
  4  2  1  0
  5  4  1  0
  6  7  1  6
  6  5  1  0
  8  6  1  0
  9  8  2  0
 11 10  1  1
 12 11  1  0
 13 11  1  0
 14 13  1  1
 14 15  1  0
 15  8  1  0
 16 24  1  0
 16 14  1  0
 17 16  2  0
 18 19  1  0
 19 21  1  0
 20 19  2  0
 21 22  1  0
 23 22  1  6
 23 24  1  0
 23 25  1  0
 25 26  1  0
 27 25  2  0
M  END
$$$$
