QLQ.pdb
     RDKit          3D

 27 26  0  0  1  0  0  0  0  0999 V2000
    9.6095  -13.5891   16.8229 N   0  0  0  0  0  0  0  0  0  0  0  0
    8.1891  -13.4793   17.0219 C   0  0  0  0  0  0  0  0  0  0  0  0
    7.4465  -13.3529   16.0164 O   0  0  0  0  0  0  0  0  0  0  0  0
    7.7099  -13.5188   18.4029 C   0  0  0  0  0  0  0  0  0  0  0  0
    8.7700  -13.7685   19.4178 C   0  0  0  0  0  0  0  0  0  0  0  0
    8.3882  -14.8318   20.3750 C   0  0  2  0  0  0  0  0  0  0  0  0
    6.9881  -15.1416   20.3260 N   0  0  0  0  0  0  0  0  0  0  0  0
    8.6973  -14.4439   21.7985 C   0  0  0  0  0  0  0  0  0  0  0  0
    9.8669  -14.1664   22.1192 O   0  0  0  0  0  0  0  0  0  0  0  0
    5.9066  -12.2001   26.8798 C   0  0  0  0  0  0  0  0  0  0  0  0
    7.0631  -12.9075   26.2215 C   0  0  2  0  0  0  0  0  0  0  0  0
    8.2300  -11.9005   26.2281 C   0  0  0  0  0  0  0  0  0  0  0  0
    6.8423  -13.2630   24.8056 C   0  0  0  0  0  0  0  0  0  0  0  0
    7.8404  -14.0961   24.1039 C   0  0  2  0  0  0  0  0  0  0  0  0
    7.6089  -14.4113   22.7370 N   0  0  0  0  0  0  0  0  0  0  0  0
    8.1250  -15.3864   24.8090 C   0  0  0  0  0  0  0  0  0  0  0  0
    7.1965  -16.1540   25.2180 O   0  0  0  0  0  0  0  0  0  0  0  0
   11.5754  -18.8025   22.0266 N   0  0  0  0  0  0  0  0  0  0  0  0
   11.6959  -19.5795   23.1952 C   0  0  0  0  0  0  0  0  0  0  0  0
   12.3247  -20.6903   23.1058 O   0  0  0  0  0  0  0  0  0  0  0  0
   11.1139  -19.1023   24.4636 C   0  0  0  0  0  0  0  0  0  0  0  0
   10.5227  -17.7600   24.3261 C   0  0  0  0  0  0  0  0  0  0  0  0
    9.7948  -17.1757   25.4997 C   0  0  2  0  0  0  0  0  0  0  0  0
    9.4437  -15.8014   25.0474 N   0  0  0  0  0  0  0  0  0  0  0  0
   10.4189  -17.1963   26.7923 C   0  0  0  0  0  0  0  0  0  0  0  0
   10.9820  -16.0696   27.3568 O   0  0  0  0  0  0  0  0  0  0  0  0
   10.4748  -18.2809   27.4592 O   0  0  0  0  0  0  0  0  0  0  0  0
  2  1  1  0
  3  2  2  0
  4  2  1  0
  5  4  1  0
  6  7  1  1
  6  5  1  0
  8  6  1  0
  9  8  2  0
 11 10  1  6
 12 11  1  0
 13 11  1  0
 14 13  1  1
 14 15  1  0
 15  8  1  0
 16 24  1  0
 16 14  1  0
 17 16  2  0
 18 19  1  0
 19 21  1  0
 20 19  2  0
 21 22  1  0
 23 22  1  6
 23 24  1  0
 23 25  1  0
 25 26  1  0
 27 25  2  0
M  END
$$$$
