QLQ.pdb
     RDKit          3D

 27 26  0  0  1  0  0  0  0  0999 V2000
   10.2757  -15.0270   17.4531 N   0  0  0  0  0  0  0  0  0  0  0  0
    9.1167  -15.8761   17.5220 C   0  0  0  0  0  0  0  0  0  0  0  0
    8.4956  -16.1372   16.4616 O   0  0  0  0  0  0  0  0  0  0  0  0
    8.7404  -16.3752   18.8440 C   0  0  0  0  0  0  0  0  0  0  0  0
    9.6706  -15.9860   19.9391 C   0  0  0  0  0  0  0  0  0  0  0  0
    9.2794  -16.5744   21.2404 C   0  0  2  0  0  0  0  0  0  0  0  0
    7.9047  -16.9842   21.2698 N   0  0  0  0  0  0  0  0  0  0  0  0
    9.4664  -15.6009   22.3762 C   0  0  0  0  0  0  0  0  0  0  0  0
   10.4574  -14.8488   22.3835 O   0  0  0  0  0  0  0  0  0  0  0  0
    6.1109  -12.8599   26.8494 C   0  0  0  0  0  0  0  0  0  0  0  0
    7.4481  -13.2381   26.2663 C   0  0  2  0  0  0  0  0  0  0  0  0
    8.1207  -11.9113   25.8626 C   0  0  0  0  0  0  0  0  0  0  0  0
    7.3756  -14.0475   25.0336 C   0  0  0  0  0  0  0  0  0  0  0  0
    8.5990  -14.6989   24.5219 C   0  0  2  0  0  0  0  0  0  0  0  0
    8.4749  -15.5849   23.4169 N   0  0  0  0  0  0  0  0  0  0  0  0
    9.3617  -15.4281   25.5847 C   0  0  0  0  0  0  0  0  0  0  0  0
    9.4680  -14.9799   26.7706 O   0  0  0  0  0  0  0  0  0  0  0  0
   10.1547  -17.0616   29.6273 N   0  0  0  0  0  0  0  0  0  0  0  0
    9.9731  -18.4428   29.4204 C   0  0  0  0  0  0  0  0  0  0  0  0
   10.3982  -19.2387   30.3277 O   0  0  0  0  0  0  0  0  0  0  0  0
    9.3079  -18.9258   28.1959 C   0  0  0  0  0  0  0  0  0  0  0  0
    9.2389  -17.8810   27.1595 C   0  0  0  0  0  0  0  0  0  0  0  0
   10.4760  -17.5752   26.3693 C   0  0  2  0  0  0  0  0  0  0  0  0
    9.9953  -16.6487   25.3076 N   0  0  0  0  0  0  0  0  0  0  0  0
   11.2623  -18.6587   25.8513 C   0  0  0  0  0  0  0  0  0  0  0  0
   11.3659  -18.9134   24.4987 O   0  0  0  0  0  0  0  0  0  0  0  0
   11.8904  -19.4314   26.6467 O   0  0  0  0  0  0  0  0  0  0  0  0
  2  1  1  0
  3  2  2  0
  4  2  1  0
  5  4  1  0
  6  7  1  6
  6  5  1  0
  8  6  1  0
  9  8  2  0
 11 10  1  6
 12 11  1  0
 13 11  1  0
 14 13  1  1
 14 15  1  0
 15  8  1  0
 16 24  1  0
 16 14  1  0
 17 16  2  0
 18 19  1  0
 19 21  1  0
 20 19  2  0
 21 22  1  0
 23 22  1  6
 23 24  1  0
 23 25  1  0
 25 26  1  0
 27 25  2  0
M  END
$$$$
