QLQ.pdb
     RDKit          3D

 27 26  0  0  1  0  0  0  0  0999 V2000
   10.6852  -18.8800   19.9023 N   0  0  0  0  0  0  0  0  0  0  0  0
    9.6754  -18.3904   19.0025 C   0  0  0  0  0  0  0  0  0  0  0  0
    9.3851  -19.0757   17.9903 O   0  0  0  0  0  0  0  0  0  0  0  0
    9.0567  -17.1084   19.3373 C   0  0  0  0  0  0  0  0  0  0  0  0
    9.5469  -16.4978   20.6034 C   0  0  0  0  0  0  0  0  0  0  0  0
    8.4624  -15.8296   21.3583 C   0  0  2  0  0  0  0  0  0  0  0  0
    7.8963  -14.7204   20.6457 N   0  0  0  0  0  0  0  0  0  0  0  0
    8.9464  -15.2938   22.6816 C   0  0  0  0  0  0  0  0  0  0  0  0
   10.1452  -14.9913   22.8202 O   0  0  0  0  0  0  0  0  0  0  0  0
    8.1931  -11.6379   25.6996 C   0  0  0  0  0  0  0  0  0  0  0  0
    7.1339  -12.6870   25.4792 C   0  0  2  0  0  0  0  0  0  0  0  0
    5.9422  -12.2733   26.3649 C   0  0  0  0  0  0  0  0  0  0  0  0
    7.5120  -14.0454   25.9169 C   0  0  0  0  0  0  0  0  0  0  0  0
    8.4066  -14.8575   25.0667 C   0  0  2  0  0  0  0  0  0  0  0  0
    7.9854  -15.1540   23.7415 N   0  0  0  0  0  0  0  0  0  0  0  0
    8.7987  -16.1555   25.7026 C   0  0  0  0  0  0  0  0  0  0  0  0
    7.9658  -17.0999   25.8839 O   0  0  0  0  0  0  0  0  0  0  0  0
   14.1863  -18.6749   24.9177 N   0  0  0  0  0  0  0  0  0  0  0  0
   13.0734  -18.5231   24.0678 C   0  0  0  0  0  0  0  0  0  0  0  0
   13.2631  -18.6721   22.8111 O   0  0  0  0  0  0  0  0  0  0  0  0
   11.7480  -18.2103   24.6339 C   0  0  0  0  0  0  0  0  0  0  0  0
   11.8063  -18.0129   26.0927 C   0  0  0  0  0  0  0  0  0  0  0  0
   10.5485  -17.6294   26.8131 C   0  0  2  0  0  0  0  0  0  0  0  0
   10.1168  -16.3805   26.1272 N   0  0  0  0  0  0  0  0  0  0  0  0
   10.5708  -17.5026   28.2429 C   0  0  0  0  0  0  0  0  0  0  0  0
   10.2725  -16.3163   28.8823 O   0  0  0  0  0  0  0  0  0  0  0  0
   10.8804  -18.5026   28.9696 O   0  0  0  0  0  0  0  0  0  0  0  0
  2  1  1  0
  3  2  2  0
  4  2  1  0
  5  4  1  0
  6  7  1  6
  6  5  1  0
  8  6  1  0
  9  8  2  0
 11 10  1  1
 12 11  1  0
 13 11  1  0
 14 13  1  1
 14 15  1  0
 15  8  1  0
 16 24  1  0
 16 14  1  0
 17 16  2  0
 18 19  1  0
 19 21  1  0
 20 19  2  0
 21 22  1  0
 23 22  1  6
 23 24  1  0
 23 25  1  0
 25 26  1  0
 27 25  2  0
M  END
$$$$
