DKT.pdb
     RDKit          3D

 25 24  0  0  1  0  0  0  0  0999 V2000
   25.4537  -17.8307  -19.5959 N   0  0  0  0  0  0  0  0  0  0  0  0
   25.1730  -17.4833  -18.2304 C   0  0  1  0  0  0  0  0  0  0  0  0
   23.9078  -16.6739  -18.0874 C   0  0  0  0  0  0  0  0  0  0  0  0
   24.0823  -15.3703  -18.7807 C   0  0  0  0  0  0  0  0  0  0  0  0
   23.1342  -14.9858  -19.5187 O   0  0  0  0  0  0  0  0  0  0  0  0
   25.0170  -18.7135  -17.4265 C   0  0  0  0  0  0  0  0  0  0  0  0
   24.3621  -19.6908  -17.9180 O   0  0  0  0  0  0  0  0  0  0  0  0
   25.2048  -14.5788  -18.6589 O   0  0  0  0  0  0  0  0  0  0  0  0
   25.5397  -18.8922  -16.1488 N   0  0  0  0  0  0  0  0  0  0  0  0
   25.4457  -20.2559  -15.4466 C   0  0  1  0  0  0  0  0  0  0  0  0
   26.7729  -20.2865  -14.7680 C   0  0  0  0  0  0  0  0  0  0  0  0
   27.9731  -20.8704  -15.3552 C   0  0  0  0  0  0  0  0  0  0  0  0
   27.9000  -22.3007  -15.6919 C   0  0  0  0  0  0  0  0  0  0  0  0
   29.1945  -22.8180  -16.3309 C   0  0  0  0  0  0  0  0  0  0  0  0
   29.2102  -24.2370  -16.4703 N   0  0  0  0  0  0  0  0  0  0  0  0
   24.2855  -20.0875  -14.5587 C   0  0  0  0  0  0  0  0  0  0  0  0
   24.3578  -19.2024  -13.6269 O   0  0  0  0  0  0  0  0  0  0  0  0
   20.2956  -21.2717  -15.3950 C   0  0  0  0  0  0  0  0  0  0  0  0
   20.7157  -20.1453  -14.4802 C   0  0  1  0  0  0  0  0  0  0  0  0
   19.6599  -19.8645  -13.5873 O   0  0  0  0  0  0  0  0  0  0  0  0
   21.9700  -20.5119  -13.6992 C   0  0  2  0  0  0  0  0  0  0  0  0
   23.0682  -20.7828  -14.6101 N   0  0  0  0  0  0  0  0  0  0  0  0
   21.6437  -21.6357  -12.8127 C   0  0  0  0  0  0  0  0  0  0  0  0
   22.2020  -22.7382  -13.0176 O   0  0  0  0  0  0  0  0  0  0  0  0
   20.7598  -21.5597  -11.7638 O   0  0  0  0  0  0  0  0  0  0  0  0
  2  1  1  6
  3  2  1  0
  3  4  1  0
  4  5  2  0
  6  2  1  0
  7  6  2  0
  8  4  1  0
  9  6  1  0
 10  9  1  0
 10 11  1  1
 11 12  1  0
 12 13  1  0
 13 14  1  0
 14 15  1  0
 16 10  1  0
 17 16  2  0
 19 21  1  0
 19 18  1  6
 20 19  1  0
 21 23  1  0
 21 22  1  6
 22 16  1  0
 23 25  1  0
 24 23  2  0
M  END
$$$$
