DKT.pdb
     RDKit          3D

 25 24  0  0  1  0  0  0  0  0999 V2000
   16.4266   -8.7793  -19.4775 N   0  0  0  0  0  0  0  0  0  0  0  0
   17.8012   -8.3622  -19.4925 C   0  0  1  0  0  0  0  0  0  0  0  0
   17.9695   -6.9404  -19.9686 C   0  0  0  0  0  0  0  0  0  0  0  0
   17.4359   -6.8231  -21.3513 C   0  0  0  0  0  0  0  0  0  0  0  0
   17.5667   -7.8299  -22.1001 O   0  0  0  0  0  0  0  0  0  0  0  0
   18.3632   -8.4527  -18.1288 C   0  0  0  0  0  0  0  0  0  0  0  0
   17.6041   -8.2117  -17.1332 O   0  0  0  0  0  0  0  0  0  0  0  0
   16.8189   -5.6927  -21.8441 O   0  0  0  0  0  0  0  0  0  0  0  0
   19.6833   -8.7872  -17.8404 N   0  0  0  0  0  0  0  0  0  0  0  0
   20.1437   -8.9811  -16.3871 C   0  0  1  0  0  0  0  0  0  0  0  0
   20.8813  -10.2697  -16.5219 C   0  0  0  0  0  0  0  0  0  0  0  0
   20.2489  -11.5811  -16.4394 C   0  0  0  0  0  0  0  0  0  0  0  0
   21.1503  -12.7414  -16.5170 C   0  0  0  0  0  0  0  0  0  0  0  0
   20.3887  -14.0652  -16.6553 C   0  0  0  0  0  0  0  0  0  0  0  0
   21.2575  -15.1888  -16.7817 N   0  0  0  0  0  0  0  0  0  0  0  0
   20.9807   -7.7957  -16.1481 C   0  0  0  0  0  0  0  0  0  0  0  0
   21.9492   -7.5622  -16.9632 O   0  0  0  0  0  0  0  0  0  0  0  0
   20.5752   -4.4374  -16.8360 C   0  0  0  0  0  0  0  0  0  0  0  0
   20.9560   -4.4271  -15.3741 C   0  0  1  0  0  0  0  0  0  0  0  0
   19.7830   -4.3175  -14.5977 O   0  0  0  0  0  0  0  0  0  0  0  0
   21.7107   -5.6938  -14.9951 C   0  0  2  0  0  0  0  0  0  0  0  0
   20.8434   -6.8520  -15.1193 N   0  0  0  0  0  0  0  0  0  0  0  0
   22.2649   -5.5094  -13.6482 C   0  0  0  0  0  0  0  0  0  0  0  0
   21.7897   -6.1898  -12.7098 O   0  0  0  0  0  0  0  0  0  0  0  0
   23.2786   -4.6335  -13.3440 O   0  0  0  0  0  0  0  0  0  0  0  0
  2  1  1  1
  3  2  1  0
  3  4  1  0
  4  5  2  0
  6  2  1  0
  7  6  2  0
  8  4  1  0
  9  6  1  0
 10  9  1  0
 10 11  1  6
 11 12  1  0
 12 13  1  0
 13 14  1  0
 14 15  1  0
 16 10  1  0
 17 16  2  0
 19 21  1  0
 19 18  1  6
 20 19  1  0
 21 23  1  0
 21 22  1  1
 22 16  1  0
 23 25  1  0
 24 23  2  0
M  END
$$$$
