DKT.pdb
     RDKit          3D

 25 24  0  0  1  0  0  0  0  0999 V2000
   23.3765  -12.4512  -18.8071 N   0  0  0  0  0  0  0  0  0  0  0  0
   23.2918  -11.8489  -17.5056 C   0  0  1  0  0  0  0  0  0  0  0  0
   24.6472  -11.5155  -16.9328 C   0  0  0  0  0  0  0  0  0  0  0  0
   25.3965  -12.7762  -16.6883 C   0  0  0  0  0  0  0  0  0  0  0  0
   24.7992  -13.8550  -16.9545 O   0  0  0  0  0  0  0  0  0  0  0  0
   22.5139  -10.5951  -17.5877 C   0  0  0  0  0  0  0  0  0  0  0  0
   22.6572   -9.8479  -18.6108 O   0  0  0  0  0  0  0  0  0  0  0  0
   26.6836  -12.8226  -16.1959 O   0  0  0  0  0  0  0  0  0  0  0  0
   21.6190  -10.1572  -16.6156 N   0  0  0  0  0  0  0  0  0  0  0  0
   20.8246   -8.8561  -16.8099 C   0  0  1  0  0  0  0  0  0  0  0  0
   19.4699   -9.3184  -16.3929 C   0  0  0  0  0  0  0  0  0  0  0  0
   18.3064   -8.4447  -16.2967 C   0  0  0  0  0  0  0  0  0  0  0  0
   17.0255   -9.1021  -15.9936 C   0  0  0  0  0  0  0  0  0  0  0  0
   15.8692   -8.1020  -15.8728 C   0  0  0  0  0  0  0  0  0  0  0  0
   14.5950   -8.7393  -15.8131 N   0  0  0  0  0  0  0  0  0  0  0  0
   21.4880   -7.9262  -15.8837 C   0  0  0  0  0  0  0  0  0  0  0  0
   22.0733   -8.4163  -14.8472 O   0  0  0  0  0  0  0  0  0  0  0  0
   23.1007   -3.3969  -14.5362 C   0  0  0  0  0  0  0  0  0  0  0  0
   22.3600   -4.2687  -15.5230 C   0  0  1  0  0  0  0  0  0  0  0  0
   23.0340   -4.2300  -16.7619 O   0  0  0  0  0  0  0  0  0  0  0  0
   22.2714   -5.7052  -15.0269 C   0  0  2  0  0  0  0  0  0  0  0  0
   21.5766   -6.5309  -15.9988 N   0  0  0  0  0  0  0  0  0  0  0  0
   21.6413   -5.6924  -13.7010 C   0  0  0  0  0  0  0  0  0  0  0  0
   20.3902   -5.6895  -13.6356 O   0  0  0  0  0  0  0  0  0  0  0  0
   22.3365   -5.6834  -12.5162 O   0  0  0  0  0  0  0  0  0  0  0  0
  2  1  1  6
  3  2  1  0
  3  4  1  0
  4  5  2  0
  6  2  1  0
  7  6  2  0
  8  4  1  0
  9  6  1  0
 10  9  1  0
 10 11  1  1
 11 12  1  0
 12 13  1  0
 13 14  1  0
 14 15  1  0
 16 10  1  0
 17 16  2  0
 19 21  1  0
 19 18  1  1
 20 19  1  0
 21 23  1  0
 21 22  1  6
 22 16  1  0
 23 25  1  0
 24 23  2  0
M  END
$$$$
