DKT.pdb
     RDKit          3D

 25 24  0  0  1  0  0  0  0  0999 V2000
   23.4686  -10.6371  -20.8139 N   0  0  0  0  0  0  0  0  0  0  0  0
   24.0297   -9.9348  -19.6932 C   0  0  1  0  0  0  0  0  0  0  0  0
   24.8890   -8.7678  -20.1128 C   0  0  0  0  0  0  0  0  0  0  0  0
   26.1743   -9.2798  -20.6570 C   0  0  0  0  0  0  0  0  0  0  0  0
   26.2637   -9.3769  -21.9116 O   0  0  0  0  0  0  0  0  0  0  0  0
   22.9427   -9.4128  -18.8388 C   0  0  0  0  0  0  0  0  0  0  0  0
   22.0087   -8.7330  -19.3782 O   0  0  0  0  0  0  0  0  0  0  0  0
   27.2493   -9.6456  -19.8748 O   0  0  0  0  0  0  0  0  0  0  0  0
   22.8572   -9.6094  -17.4635 N   0  0  0  0  0  0  0  0  0  0  0  0
   21.6355   -9.1126  -16.6746 C   0  0  1  0  0  0  0  0  0  0  0  0
   21.4456  -10.2631  -15.7454 C   0  0  0  0  0  0  0  0  0  0  0  0
   20.3204  -10.3889  -14.8265 C   0  0  0  0  0  0  0  0  0  0  0  0
   18.9806  -10.3467  -15.4328 C   0  0  0  0  0  0  0  0  0  0  0  0
   17.8624  -10.4397  -14.3874 C   0  0  0  0  0  0  0  0  0  0  0  0
   16.5715  -10.1906  -14.9393 N   0  0  0  0  0  0  0  0  0  0  0  0
   22.1283   -7.8737  -16.0542 C   0  0  0  0  0  0  0  0  0  0  0  0
   23.3526   -7.8384  -15.6583 O   0  0  0  0  0  0  0  0  0  0  0  0
   19.8332   -4.2820  -15.4184 C   0  0  0  0  0  0  0  0  0  0  0  0
   21.3159   -4.2503  -15.7065 C   0  0  1  0  0  0  0  0  0  0  0  0
   21.8799   -3.1227  -15.0732 O   0  0  0  0  0  0  0  0  0  0  0  0
   21.9982   -5.5175  -15.2104 C   0  0  2  0  0  0  0  0  0  0  0  0
   21.4128   -6.6852  -15.8453 N   0  0  0  0  0  0  0  0  0  0  0  0
   21.9168   -5.5359  -13.7447 C   0  0  0  0  0  0  0  0  0  0  0  0
   21.1115   -6.3276  -13.2022 O   0  0  0  0  0  0  0  0  0  0  0  0
   22.6708   -4.7369  -12.9198 O   0  0  0  0  0  0  0  0  0  0  0  0
  2  1  1  6
  3  2  1  0
  3  4  1  0
  4  5  2  0
  6  2  1  0
  7  6  2  0
  8  4  1  0
  9  6  1  0
 10  9  1  0
 10 11  1  1
 11 12  1  0
 12 13  1  0
 13 14  1  0
 14 15  1  0
 16 10  1  0
 17 16  2  0
 19 21  1  0
 19 18  1  1
 20 19  1  0
 21 23  1  0
 21 22  1  6
 22 16  1  0
 23 25  1  0
 24 23  2  0
M  END
$$$$
