DKT.pdb
     RDKit          3D

 25 24  0  0  1  0  0  0  0  0999 V2000
   16.3701   -8.8408  -14.7454 N   0  0  0  0  0  0  0  0  0  0  0  0
   16.7262   -8.1403  -13.5427 C   0  0  1  0  0  0  0  0  0  0  0  0
   17.6456   -6.9728  -13.8036 C   0  0  0  0  0  0  0  0  0  0  0  0
   18.9373   -7.4796  -14.3377 C   0  0  0  0  0  0  0  0  0  0  0  0
   19.3716   -6.9358  -15.3899 O   0  0  0  0  0  0  0  0  0  0  0  0
   15.5064   -7.6194  -12.8911 C   0  0  0  0  0  0  0  0  0  0  0  0
   14.5771   -7.1384  -13.6196 O   0  0  0  0  0  0  0  0  0  0  0  0
   19.6673   -8.4923  -13.7521 O   0  0  0  0  0  0  0  0  0  0  0  0
   15.2882   -7.6127  -11.5163 N   0  0  0  0  0  0  0  0  0  0  0  0
   13.9873   -7.0408  -10.9313 C   0  0  1  0  0  0  0  0  0  0  0  0
   13.4328   -8.2682  -10.2919 C   0  0  0  0  0  0  0  0  0  0  0  0
   12.1888   -8.2979   -9.5317 C   0  0  0  0  0  0  0  0  0  0  0  0
   11.7447   -9.6213   -9.0669 C   0  0  0  0  0  0  0  0  0  0  0  0
   10.4424   -9.5510   -8.2600 C   0  0  0  0  0  0  0  0  0  0  0  0
    9.8941  -10.8389   -7.9877 N   0  0  0  0  0  0  0  0  0  0  0  0
   14.4719   -6.0083  -10.0031 C   0  0  0  0  0  0  0  0  0  0  0  0
   15.4524   -6.3049   -9.2235 O   0  0  0  0  0  0  0  0  0  0  0  0
   15.9431   -2.5550  -10.7708 C   0  0  0  0  0  0  0  0  0  0  0  0
   14.8444   -2.4124   -9.7436 C   0  0  1  0  0  0  0  0  0  0  0  0
   13.6557   -2.0253  -10.3976 O   0  0  0  0  0  0  0  0  0  0  0  0
   14.6210   -3.7189   -8.9947 C   0  0  2  0  0  0  0  0  0  0  0  0
   13.9934   -4.6968   -9.8659 N   0  0  0  0  0  0  0  0  0  0  0  0
   13.8491   -3.4234   -7.7814 C   0  0  0  0  0  0  0  0  0  0  0  0
   14.3764   -2.7073   -6.8991 O   0  0  0  0  0  0  0  0  0  0  0  0
   12.5760   -3.8828   -7.5458 O   0  0  0  0  0  0  0  0  0  0  0  0
  2  1  1  6
  3  2  1  0
  3  4  1  0
  4  5  2  0
  6  2  1  0
  7  6  2  0
  8  4  1  0
  9  6  1  0
 10  9  1  0
 10 11  1  1
 11 12  1  0
 12 13  1  0
 13 14  1  0
 14 15  1  0
 16 10  1  0
 17 16  2  0
 19 21  1  0
 19 18  1  6
 20 19  1  0
 21 23  1  0
 21 22  1  6
 22 16  1  0
 23 25  1  0
 24 23  2  0
M  END
$$$$
