APD.pdb
     RDKit          3D

 21 21  0  0  1  0  0  0  0  0999 V2000
    6.4625  -15.4199   22.3488 C   0  0  0  0  0  0  0  0  0  0  0  0
    7.2991  -14.1406   22.4025 C   0  0  2  0  0  0  0  0  0  0  0  0
    8.0164  -14.0540   21.1801 N   0  0  0  0  0  0  0  0  0  0  0  0
    8.0880  -14.0553   23.6360 C   0  0  0  0  0  0  0  0  0  0  0  0
    9.1865  -14.6216   23.6912 O   0  0  0  0  0  0  0  0  0  0  0  0
    7.6339  -13.3366   24.7941 N   0  0  0  0  0  0  0  0  0  0  0  0
    6.5416  -12.4097   24.7275 C   0  0  0  0  0  0  0  0  0  0  0  0
    6.3086  -11.9314   26.1682 C   0  0  0  0  0  0  0  0  0  0  0  0
    6.9243  -13.0386   26.9879 C   0  0  0  0  0  0  0  0  0  0  0  0
    8.1401  -13.3799   26.1211 C   0  0  1  0  0  0  0  0  0  0  0  0
    8.6450  -14.7237   26.5393 C   0  0  0  0  0  0  0  0  0  0  0  0
    7.8484  -15.6883   26.4713 O   0  0  0  0  0  0  0  0  0  0  0  0
    9.9601  -14.9743   27.0020 N   0  0  0  0  0  0  0  0  0  0  0  0
   10.3579  -16.2593   27.5614 C   0  0  1  0  0  0  0  0  0  0  0  0
   11.7539  -16.5430   26.9796 C   0  0  0  0  0  0  0  0  0  0  0  0
   11.6810  -17.5487   25.9024 C   0  0  0  0  0  0  0  0  0  0  0  0
   10.5737  -18.0444   25.5823 O   0  0  0  0  0  0  0  0  0  0  0  0
   10.4495  -16.2202   29.0235 C   0  0  0  0  0  0  0  0  0  0  0  0
   10.4269  -17.4664   29.6810 O   0  0  0  0  0  0  0  0  0  0  0  0
   12.8223  -17.9638   25.2281 O   0  0  0  0  0  0  0  0  0  0  0  0
   10.5482  -15.2134   29.7543 O   0  0  0  0  0  0  0  0  0  0  0  0
  2  1  1  6
  3  2  1  0
  4  5  2  0
  4  2  1  0
  6  4  1  0
  7  6  1  0
  8  7  1  0
  9  8  1  0
  9 10  1  0
 10 11  1  1
 10  6  1  0
 11 13  1  0
 12 11  2  0
 13 14  1  0
 14 15  1  6
 14 18  1  0
 16 20  1  0
 16 15  1  0
 17 16  2  0
 18 21  2  0
 18 19  1  0
M  END
$$$$
