APD.pdb
     RDKit          3D

 21 21  0  0  1  0  0  0  0  0999 V2000
    7.9103  -16.7515   16.3192 C   0  0  0  0  0  0  0  0  0  0  0  0
    8.6150  -15.4413   15.9641 C   0  0  2  0  0  0  0  0  0  0  0  0
    9.2883  -15.6453   14.7306 N   0  0  0  0  0  0  0  0  0  0  0  0
    9.4227  -14.9359   17.0791 C   0  0  0  0  0  0  0  0  0  0  0  0
   10.5645  -15.3807   17.2486 O   0  0  0  0  0  0  0  0  0  0  0  0
    8.9385  -13.9381   17.9923 N   0  0  0  0  0  0  0  0  0  0  0  0
    7.7599  -13.1693   17.7156 C   0  0  0  0  0  0  0  0  0  0  0  0
    7.5282  -12.2949   18.9567 C   0  0  0  0  0  0  0  0  0  0  0  0
    8.2745  -13.0442   20.0332 C   0  0  0  0  0  0  0  0  0  0  0  0
    9.4891  -13.5322   19.2377 C   0  0  1  0  0  0  0  0  0  0  0  0
   10.1352  -14.6376   20.0099 C   0  0  0  0  0  0  0  0  0  0  0  0
    9.5010  -15.7121   20.1232 O   0  0  0  0  0  0  0  0  0  0  0  0
   11.4126  -14.5484   20.6154 N   0  0  0  0  0  0  0  0  0  0  0  0
   12.0070  -15.6583   21.3483 C   0  0  1  0  0  0  0  0  0  0  0  0
   13.4837  -15.2733   21.5449 C   0  0  0  0  0  0  0  0  0  0  0  0
   14.1201  -14.9500   20.2535 C   0  0  0  0  0  0  0  0  0  0  0  0
   14.0900  -15.7820   19.3148 O   0  0  0  0  0  0  0  0  0  0  0  0
   11.3848  -15.8490   22.6614 C   0  0  0  0  0  0  0  0  0  0  0  0
   11.7847  -16.9946   23.3780 O   0  0  0  0  0  0  0  0  0  0  0  0
   14.7588  -13.7331   20.0516 O   0  0  0  0  0  0  0  0  0  0  0  0
   10.5450  -15.1146   23.2207 O   0  0  0  0  0  0  0  0  0  0  0  0
  2  1  1  1
  3  2  1  0
  4  5  2  0
  4  2  1  0
  6  4  1  0
  7  6  1  0
  8  7  1  0
  9  8  1  0
  9 10  1  0
 10 11  1  1
 10  6  1  0
 11 13  1  0
 12 11  2  0
 13 14  1  0
 14 15  1  1
 14 18  1  0
 16 20  1  0
 16 15  1  0
 17 16  2  0
 18 21  2  0
 18 19  1  0
M  END
$$$$
