APD.pdb
     RDKit          3D

 21 21  0  0  1  0  0  0  0  0999 V2000
    6.7891  -17.5053   17.8134 C   0  0  0  0  0  0  0  0  0  0  0  0
    7.8467  -16.5139   17.3258 C   0  0  2  0  0  0  0  0  0  0  0  0
    8.5535  -17.1392   16.2647 N   0  0  0  0  0  0  0  0  0  0  0  0
    8.6520  -15.9862   18.4321 C   0  0  0  0  0  0  0  0  0  0  0  0
    9.6139  -16.6443   18.8471 O   0  0  0  0  0  0  0  0  0  0  0  0
    8.3673  -14.7264   19.0612 N   0  0  0  0  0  0  0  0  0  0  0  0
    7.5114  -13.7525   18.4483 C   0  0  0  0  0  0  0  0  0  0  0  0
    7.3872  -12.6055   19.4620 C   0  0  0  0  0  0  0  0  0  0  0  0
    7.7359  -13.2783   20.7670 C   0  0  0  0  0  0  0  0  0  0  0  0
    8.8467  -14.2245   20.3011 C   0  0  1  0  0  0  0  0  0  0  0  0
    9.0355  -15.2708   21.3523 C   0  0  0  0  0  0  0  0  0  0  0  0
    8.0693  -16.0315   21.5920 O   0  0  0  0  0  0  0  0  0  0  0  0
   10.2315  -15.4574   22.0879 N   0  0  0  0  0  0  0  0  0  0  0  0
   10.3359  -16.4223   23.1743 C   0  0  1  0  0  0  0  0  0  0  0  0
   11.8378  -16.7307   23.3033 C   0  0  0  0  0  0  0  0  0  0  0  0
   12.3981  -17.1701   22.0109 C   0  0  0  0  0  0  0  0  0  0  0  0
   11.8681  -18.1229   21.3901 O   0  0  0  0  0  0  0  0  0  0  0  0
    9.8500  -15.8776   24.4451 C   0  0  0  0  0  0  0  0  0  0  0  0
    9.6519  -16.8081   25.4848 O   0  0  0  0  0  0  0  0  0  0  0  0
   13.5107  -16.5466   21.4606 O   0  0  0  0  0  0  0  0  0  0  0  0
    9.5939  -14.6865   24.7156 O   0  0  0  0  0  0  0  0  0  0  0  0
  2  1  1  1
  3  2  1  0
  4  5  2  0
  4  2  1  0
  6  4  1  0
  7  6  1  0
  8  7  1  0
  9  8  1  0
  9 10  1  0
 10 11  1  1
 10  6  1  0
 11 13  1  0
 12 11  2  0
 13 14  1  0
 14 15  1  1
 14 18  1  0
 16 20  1  0
 16 15  1  0
 17 16  2  0
 18 21  2  0
 18 19  1  0
M  END
$$$$
