GDR.pdb
     RDKit          3D

 24 23  0  0  1  0  0  0  0  0999 V2000
   20.4387  -22.0992  -10.2437 N   0  0  0  0  0  0  0  0  0  0  0  0
   19.8300  -21.2712  -11.2551 C   0  0  0  0  0  0  0  0  0  0  0  0
   20.5805  -21.3807  -12.5562 C   0  0  0  0  0  0  0  0  0  0  0  0
   20.5109  -22.4253  -13.2533 O   0  0  0  0  0  0  0  0  0  0  0  0
   21.3844  -20.3263  -13.0401 N   0  0  0  0  0  0  0  0  0  0  0  0
   21.6148  -20.1926  -14.4830 C   0  0  1  0  0  0  0  0  0  0  0  0
   20.3365  -20.0060  -15.2132 C   0  0  0  0  0  0  0  0  0  0  0  0
   20.5240  -19.9932  -16.6580 C   0  0  0  0  0  0  0  0  0  0  0  0
   20.7992  -21.0000  -17.3246 O   0  0  0  0  0  0  0  0  0  0  0  0
   22.5745  -19.0499  -14.6904 C   0  0  0  0  0  0  0  0  0  0  0  0
   22.3429  -17.8595  -14.4526 O   0  0  0  0  0  0  0  0  0  0  0  0
   20.3877  -18.7797  -17.3436 O   0  0  0  0  0  0  0  0  0  0  0  0
   24.6943  -20.3743  -10.7434 N   0  0  0  0  0  0  0  0  0  0  0  0
   25.6509  -21.0817  -11.5457 C   0  0  0  0  0  0  0  0  0  0  0  0
   25.4786  -22.3386  -11.6759 N   0  0  0  0  0  0  0  0  0  0  0  0
   26.7388  -20.4270  -12.1682 N   0  0  0  0  0  0  0  0  0  0  0  0
   26.5175  -19.4323  -13.1920 C   0  0  0  0  0  0  0  0  0  0  0  0
   26.3835  -20.0860  -14.5756 C   0  0  0  0  0  0  0  0  0  0  0  0
   26.2047  -18.9809  -15.5702 C   0  0  0  0  0  0  0  0  0  0  0  0
   24.8648  -18.2973  -15.4845 C   0  0  2  0  0  0  0  0  0  0  0  0
   23.8750  -19.3459  -15.2072 N   0  0  0  0  0  0  0  0  0  0  0  0
   24.5001  -17.5104  -16.6624 C   0  0  0  0  0  0  0  0  0  0  0  0
   25.0516  -16.4169  -16.9100 O   0  0  0  0  0  0  0  0  0  0  0  0
   23.5275  -17.9600  -17.5391 O   0  0  0  0  0  0  0  0  0  0  0  0
  2  1  1  0
  3  2  1  0
  4  3  2  0
  5  3  1  0
  6  7  1  6
  6  5  1  0
  8 12  1  0
  8  7  1  0
  9  8  2  0
 10 11  2  0
 10  6  1  0
 14 13  1  0
 14 16  1  0
 15 14  2  0
 17 16  1  0
 18 17  1  0
 19 18  1  0
 20 21  1  0
 20 19  1  6
 21 10  1  0
 22 20  1  0
 23 22  2  0
 24 22  1  0
M  END
$$$$
