GDR.pdb
     RDKit          3D

 24 23  0  0  1  0  0  0  0  0999 V2000
   14.1717   -8.5961   -7.7973 N   0  0  0  0  0  0  0  0  0  0  0  0
   15.3577   -7.7851   -7.9196 C   0  0  0  0  0  0  0  0  0  0  0  0
   15.7570   -7.6393   -9.3644 C   0  0  0  0  0  0  0  0  0  0  0  0
   15.0126   -8.0661  -10.2840 O   0  0  0  0  0  0  0  0  0  0  0  0
   16.9706   -7.0245   -9.7403 N   0  0  0  0  0  0  0  0  0  0  0  0
   17.1999   -6.6702  -11.1456 C   0  0  1  0  0  0  0  0  0  0  0  0
   16.4711   -5.4299  -11.5097 C   0  0  0  0  0  0  0  0  0  0  0  0
   16.6305   -5.0904  -12.9175 C   0  0  0  0  0  0  0  0  0  0  0  0
   16.3947   -5.8760  -13.8454 O   0  0  0  0  0  0  0  0  0  0  0  0
   18.6876   -6.5519  -11.3520 C   0  0  0  0  0  0  0  0  0  0  0  0
   19.4746   -5.9530  -10.6109 O   0  0  0  0  0  0  0  0  0  0  0  0
   17.0746   -3.8055  -13.2539 O   0  0  0  0  0  0  0  0  0  0  0  0
   23.4651  -12.1973  -16.1781 N   0  0  0  0  0  0  0  0  0  0  0  0
   24.4104  -11.2017  -15.7606 C   0  0  0  0  0  0  0  0  0  0  0  0
   25.6231  -11.3713  -16.1169 N   0  0  0  0  0  0  0  0  0  0  0  0
   24.0276  -10.0800  -14.9893 N   0  0  0  0  0  0  0  0  0  0  0  0
   22.6339   -9.7896  -14.7446 C   0  0  0  0  0  0  0  0  0  0  0  0
   22.4742   -8.4852  -13.9491 C   0  0  0  0  0  0  0  0  0  0  0  0
   21.0241   -8.3575  -13.5978 C   0  0  0  0  0  0  0  0  0  0  0  0
   20.7021   -7.1317  -12.7832 C   0  0  2  0  0  0  0  0  0  0  0  0
   19.2619   -7.1809  -12.5012 N   0  0  0  0  0  0  0  0  0  0  0  0
   21.0864   -5.8637  -13.4031 C   0  0  0  0  0  0  0  0  0  0  0  0
   20.3298   -5.2768  -14.2057 O   0  0  0  0  0  0  0  0  0  0  0  0
   22.3071   -5.2775  -13.1147 O   0  0  0  0  0  0  0  0  0  0  0  0
  2  1  1  0
  3  2  1  0
  4  3  2  0
  5  3  1  0
  6  7  1  1
  6  5  1  0
  8 12  1  0
  8  7  1  0
  9  8  2  0
 10 11  2  0
 10  6  1  0
 14 13  1  0
 14 16  1  0
 15 14  2  0
 17 16  1  0
 18 17  1  0
 19 18  1  0
 20 21  1  0
 20 19  1  6
 21 10  1  0
 22 20  1  0
 23 22  2  0
 24 22  1  0
M  END
$$$$
