GDR.pdb
     RDKit          3D

 24 23  0  0  1  0  0  0  0  0999 V2000
   23.2906  -10.6612  -17.8301 N   0  0  0  0  0  0  0  0  0  0  0  0
   23.3882   -9.2261  -17.7295 C   0  0  0  0  0  0  0  0  0  0  0  0
   22.1107   -8.6418  -17.1866 C   0  0  0  0  0  0  0  0  0  0  0  0
   20.9964   -8.9728  -17.6671 O   0  0  0  0  0  0  0  0  0  0  0  0
   22.1128   -7.7084  -16.1279 N   0  0  0  0  0  0  0  0  0  0  0  0
   20.8585   -7.0589  -15.7305 C   0  0  1  0  0  0  0  0  0  0  0  0
   20.7253   -7.0129  -14.2532 C   0  0  0  0  0  0  0  0  0  0  0  0
   20.4565   -8.3264  -13.6831 C   0  0  0  0  0  0  0  0  0  0  0  0
   21.2445   -8.9285  -12.9413 O   0  0  0  0  0  0  0  0  0  0  0  0
   20.8314   -5.6901  -16.3592 C   0  0  0  0  0  0  0  0  0  0  0  0
   21.7857   -4.9078  -16.4289 O   0  0  0  0  0  0  0  0  0  0  0  0
   19.2412   -8.9544  -13.9831 O   0  0  0  0  0  0  0  0  0  0  0  0
   15.6028   -3.6312  -22.5650 N   0  0  0  0  0  0  0  0  0  0  0  0
   15.2481   -4.0664  -21.2445 C   0  0  0  0  0  0  0  0  0  0  0  0
   14.2278   -4.8244  -21.1407 N   0  0  0  0  0  0  0  0  0  0  0  0
   15.9874   -3.6795  -20.1027 N   0  0  0  0  0  0  0  0  0  0  0  0
   17.1939   -2.8957  -20.2319 C   0  0  0  0  0  0  0  0  0  0  0  0
   17.7863   -2.5651  -18.8536 C   0  0  0  0  0  0  0  0  0  0  0  0
   18.1009   -3.8675  -18.1849 C   0  0  0  0  0  0  0  0  0  0  0  0
   19.4788   -3.9214  -17.5777 C   0  0  2  0  0  0  0  0  0  0  0  0
   19.6027   -5.2347  -16.9329 N   0  0  0  0  0  0  0  0  0  0  0  0
   19.7833   -2.8340  -16.6479 C   0  0  0  0  0  0  0  0  0  0  0  0
   20.3342   -1.7819  -17.0360 O   0  0  0  0  0  0  0  0  0  0  0  0
   19.4668   -2.9436  -15.3045 O   0  0  0  0  0  0  0  0  0  0  0  0
  2  1  1  0
  3  2  1  0
  4  3  2  0
  5  3  1  0
  6  7  1  1
  6  5  1  0
  8 12  1  0
  8  7  1  0
  9  8  2  0
 10 11  2  0
 10  6  1  0
 14 13  1  0
 14 16  1  0
 15 14  2  0
 17 16  1  0
 18 17  1  0
 19 18  1  0
 20 21  1  0
 20 19  1  1
 21 10  1  0
 22 20  1  0
 23 22  2  0
 24 22  1  0
M  END
$$$$
