GDR.pdb
     RDKit          3D

 24 23  0  0  1  0  0  0  0  0999 V2000
   16.1038  -14.7806  -15.4424 N   0  0  0  0  0  0  0  0  0  0  0  0
   15.6764  -13.4053  -15.3706 C   0  0  0  0  0  0  0  0  0  0  0  0
   16.7761  -12.5333  -14.8243 C   0  0  0  0  0  0  0  0  0  0  0  0
   17.2150  -12.7058  -13.6582 O   0  0  0  0  0  0  0  0  0  0  0  0
   17.3520  -11.4977  -15.5911 N   0  0  0  0  0  0  0  0  0  0  0  0
   18.3002  -10.5707  -14.9630 C   0  0  1  0  0  0  0  0  0  0  0  0
   19.3316  -10.1235  -15.9317 C   0  0  0  0  0  0  0  0  0  0  0  0
   20.2142  -11.2094  -16.3373 C   0  0  0  0  0  0  0  0  0  0  0  0
   20.7638  -11.9827  -15.5413 O   0  0  0  0  0  0  0  0  0  0  0  0
   17.5088   -9.4255  -14.3869 C   0  0  0  0  0  0  0  0  0  0  0  0
   16.7606   -8.6731  -15.0205 O   0  0  0  0  0  0  0  0  0  0  0  0
   20.4631  -11.4002  -17.7021 O   0  0  0  0  0  0  0  0  0  0  0  0
   13.2255   -8.9133   -6.9366 N   0  0  0  0  0  0  0  0  0  0  0  0
   13.2579   -7.5810   -7.4687 C   0  0  0  0  0  0  0  0  0  0  0  0
   12.3312   -6.7878   -7.0967 N   0  0  0  0  0  0  0  0  0  0  0  0
   14.2653   -7.1551   -8.3651 N   0  0  0  0  0  0  0  0  0  0  0  0
   14.8964   -8.0890   -9.2686 C   0  0  0  0  0  0  0  0  0  0  0  0
   15.9972   -7.4020  -10.0907 C   0  0  0  0  0  0  0  0  0  0  0  0
   16.6572   -8.4621  -10.9172 C   0  0  0  0  0  0  0  0  0  0  0  0
   16.9288   -8.0431  -12.3387 C   0  0  2  0  0  0  0  0  0  0  0  0
   17.6176   -9.1678  -12.9840 N   0  0  0  0  0  0  0  0  0  0  0  0
   17.6834   -6.7977  -12.4785 C   0  0  0  0  0  0  0  0  0  0  0  0
   18.9170   -6.8039  -12.6766 O   0  0  0  0  0  0  0  0  0  0  0  0
   17.0455   -5.5719  -12.3939 O   0  0  0  0  0  0  0  0  0  0  0  0
  2  1  1  0
  3  2  1  0
  4  3  2  0
  5  3  1  0
  6  7  1  6
  6  5  1  0
  8 12  1  0
  8  7  1  0
  9  8  2  0
 10 11  2  0
 10  6  1  0
 14 13  1  0
 14 16  1  0
 15 14  2  0
 17 16  1  0
 18 17  1  0
 19 18  1  0
 20 21  1  0
 20 19  1  1
 21 10  1  0
 22 20  1  0
 23 22  2  0
 24 22  1  0
M  END
$$$$
