GDR.pdb
     RDKit          3D

 24 23  0  0  1  0  0  0  0  0999 V2000
   23.3564  -28.0266  -16.1025 N   0  0  0  0  0  0  0  0  0  0  0  0
   22.1949  -27.2898  -16.5354 C   0  0  0  0  0  0  0  0  0  0  0  0
   22.0064  -26.0522  -15.6982 C   0  0  0  0  0  0  0  0  0  0  0  0
   22.5204  -25.9650  -14.5535 O   0  0  0  0  0  0  0  0  0  0  0  0
   21.2524  -24.9519  -16.1598 N   0  0  0  0  0  0  0  0  0  0  0  0
   21.0931  -23.7709  -15.3038 C   0  0  1  0  0  0  0  0  0  0  0  0
   21.2018  -22.5195  -16.0940 C   0  0  0  0  0  0  0  0  0  0  0  0
   22.4993  -22.3890  -16.7436 C   0  0  0  0  0  0  0  0  0  0  0  0
   23.5802  -22.4990  -16.1491 O   0  0  0  0  0  0  0  0  0  0  0  0
   19.7712  -23.8954  -14.5917 C   0  0  0  0  0  0  0  0  0  0  0  0
   18.6900  -24.1779  -15.1194 O   0  0  0  0  0  0  0  0  0  0  0  0
   22.5402  -22.1244  -18.1182 O   0  0  0  0  0  0  0  0  0  0  0  0
   18.7867  -25.0652   -5.8674 N   0  0  0  0  0  0  0  0  0  0  0  0
   17.4460  -24.9454   -6.3646 C   0  0  0  0  0  0  0  0  0  0  0  0
   16.5011  -25.1530   -5.5335 N   0  0  0  0  0  0  0  0  0  0  0  0
   17.1718  -24.6135   -7.7115 N   0  0  0  0  0  0  0  0  0  0  0  0
   18.2428  -24.4476   -8.6666 C   0  0  0  0  0  0  0  0  0  0  0  0
   17.6897  -24.1495  -10.0684 C   0  0  0  0  0  0  0  0  0  0  0  0
   18.8634  -24.0443  -10.9925 C   0  0  0  0  0  0  0  0  0  0  0  0
   18.4914  -23.6918  -12.4093 C   0  0  2  0  0  0  0  0  0  0  0  0
   19.7415  -23.6714  -13.1793 N   0  0  0  0  0  0  0  0  0  0  0  0
   17.7480  -22.4405  -12.5560 C   0  0  0  0  0  0  0  0  0  0  0  0
   18.3258  -21.3712  -12.8456 O   0  0  0  0  0  0  0  0  0  0  0  0
   16.3756  -22.4088  -12.3762 O   0  0  0  0  0  0  0  0  0  0  0  0
  2  1  1  0
  3  2  1  0
  4  3  2  0
  5  3  1  0
  6  7  1  6
  6  5  1  0
  8 12  1  0
  8  7  1  0
  9  8  2  0
 10 11  2  0
 10  6  1  0
 14 13  1  0
 14 16  1  0
 15 14  2  0
 17 16  1  0
 18 17  1  0
 19 18  1  0
 20 21  1  0
 20 19  1  1
 21 10  1  0
 22 20  1  0
 23 22  2  0
 24 22  1  0
M  END
$$$$
