GDR.pdb
     RDKit          3D

 24 23  0  0  1  0  0  0  0  0999 V2000
   20.6629   -5.6555   11.4934 N   0  0  0  0  0  0  0  0  0  0  0  0
   20.4681   -7.0803   11.5987 C   0  0  0  0  0  0  0  0  0  0  0  0
   20.3769   -7.7080   10.2327 C   0  0  0  0  0  0  0  0  0  0  0  0
   20.5967   -7.0296    9.1967 O   0  0  0  0  0  0  0  0  0  0  0  0
   20.0436   -9.0690   10.0623 N   0  0  0  0  0  0  0  0  0  0  0  0
   20.1584   -9.6836    8.7350 C   0  0  1  0  0  0  0  0  0  0  0  0
   21.5628   -9.6626    8.2559 C   0  0  0  0  0  0  0  0  0  0  0  0
   21.6979  -10.2282    6.9202 C   0  0  0  0  0  0  0  0  0  0  0  0
   20.7451  -10.6571    6.2554 O   0  0  0  0  0  0  0  0  0  0  0  0
   19.5961  -11.0784    8.8250 C   0  0  0  0  0  0  0  0  0  0  0  0
   20.0096  -11.9779    9.5649 O   0  0  0  0  0  0  0  0  0  0  0  0
   22.9724  -10.2962    6.3438 O   0  0  0  0  0  0  0  0  0  0  0  0
   12.1945  -13.7934    4.5102 N   0  0  0  0  0  0  0  0  0  0  0  0
   12.3529  -14.6262    5.6680 C   0  0  0  0  0  0  0  0  0  0  0  0
   11.3501  -15.3358    6.0106 N   0  0  0  0  0  0  0  0  0  0  0  0
   13.5597  -14.6670    6.4039 N   0  0  0  0  0  0  0  0  0  0  0  0
   14.4421  -13.5239    6.4440 C   0  0  0  0  0  0  0  0  0  0  0  0
   15.6687  -13.8054    7.3249 C   0  0  0  0  0  0  0  0  0  0  0  0
   16.5616  -12.6067    7.2338 C   0  0  0  0  0  0  0  0  0  0  0  0
   17.8143  -12.7178    8.0635 C   0  0  2  0  0  0  0  0  0  0  0  0
   18.4845  -11.4135    7.9894 N   0  0  0  0  0  0  0  0  0  0  0  0
   18.7116  -13.8071    7.6783 C   0  0  0  0  0  0  0  0  0  0  0  0
   19.5677  -13.6574    6.7807 O   0  0  0  0  0  0  0  0  0  0  0  0
   18.6344  -15.0403    8.3027 O   0  0  0  0  0  0  0  0  0  0  0  0
  2  1  1  0
  3  2  1  0
  4  3  2  0
  5  3  1  0
  6  7  1  1
  6  5  1  0
  8 12  1  0
  8  7  1  0
  9  8  2  0
 10 11  2  0
 10  6  1  0
 14 13  1  0
 14 16  1  0
 15 14  2  0
 17 16  1  0
 18 17  1  0
 19 18  1  0
 20 21  1  0
 20 19  1  6
 21 10  1  0
 22 20  1  0
 23 22  2  0
 24 22  1  0
M  END
$$$$
