GDR.pdb
     RDKit          3D

 24 23  0  0  1  0  0  0  0  0999 V2000
   19.7553  -17.6710  -15.1013 N   0  0  0  0  0  0  0  0  0  0  0  0
   19.7264  -18.6153  -16.1907 C   0  0  0  0  0  0  0  0  0  0  0  0
   20.8198  -19.6395  -16.0372 C   0  0  0  0  0  0  0  0  0  0  0  0
   20.9691  -20.2644  -14.9559 O   0  0  0  0  0  0  0  0  0  0  0  0
   21.7121  -19.9357  -17.0899 N   0  0  0  0  0  0  0  0  0  0  0  0
   22.6538  -21.0522  -16.9507 C   0  0  1  0  0  0  0  0  0  0  0  0
   22.7569  -21.8250  -18.2133 C   0  0  0  0  0  0  0  0  0  0  0  0
   23.5673  -23.0259  -18.0597 C   0  0  0  0  0  0  0  0  0  0  0  0
   24.1044  -23.3617  -16.9956 O   0  0  0  0  0  0  0  0  0  0  0  0
   23.9769  -20.4839  -16.5076 C   0  0  0  0  0  0  0  0  0  0  0  0
   24.5061  -19.4574  -16.9474 O   0  0  0  0  0  0  0  0  0  0  0  0
   23.7570  -23.8565  -19.1712 O   0  0  0  0  0  0  0  0  0  0  0  0
   25.6592  -21.2670   -9.2518 N   0  0  0  0  0  0  0  0  0  0  0  0
   24.3246  -20.9052   -9.6350 C   0  0  0  0  0  0  0  0  0  0  0  0
   23.4306  -20.9497   -8.7266 N   0  0  0  0  0  0  0  0  0  0  0  0
   24.0025  -20.5157  -10.9558 N   0  0  0  0  0  0  0  0  0  0  0  0
   24.5079  -21.2538  -12.0900 C   0  0  0  0  0  0  0  0  0  0  0  0
   25.9153  -20.7746  -12.4764 C   0  0  0  0  0  0  0  0  0  0  0  0
   26.2933  -21.4879  -13.7377 C   0  0  0  0  0  0  0  0  0  0  0  0
   25.9998  -20.7038  -14.9904 C   0  0  2  0  0  0  0  0  0  0  0  0
   24.7023  -21.1775  -15.4883 N   0  0  0  0  0  0  0  0  0  0  0  0
   27.0342  -20.7836  -16.0216 C   0  0  0  0  0  0  0  0  0  0  0  0
   26.9993  -21.6606  -16.9108 O   0  0  0  0  0  0  0  0  0  0  0  0
   28.0860  -19.8834  -16.0386 O   0  0  0  0  0  0  0  0  0  0  0  0
  2  1  1  0
  3  2  1  0
  4  3  2  0
  5  3  1  0
  6  7  1  6
  6  5  1  0
  8 12  1  0
  8  7  1  0
  9  8  2  0
 10 11  2  0
 10  6  1  0
 14 13  1  0
 14 16  1  0
 15 14  2  0
 17 16  1  0
 18 17  1  0
 19 18  1  0
 20 21  1  0
 20 19  1  1
 21 10  1  0
 22 20  1  0
 23 22  2  0
 24 22  1  0
M  END
$$$$
