GDR.pdb
     RDKit          3D

 24 23  0  0  1  0  0  0  0  0999 V2000
   23.2739   -8.1819  -20.3433 N   0  0  0  0  0  0  0  0  0  0  0  0
   24.2870   -7.7865  -19.3965 C   0  0  0  0  0  0  0  0  0  0  0  0
   23.7582   -7.8604  -17.9883 C   0  0  0  0  0  0  0  0  0  0  0  0
   23.7280   -8.9546  -17.3687 O   0  0  0  0  0  0  0  0  0  0  0  0
   23.2796   -6.7162  -17.3145 N   0  0  0  0  0  0  0  0  0  0  0  0
   22.6259   -6.8630  -16.0092 C   0  0  1  0  0  0  0  0  0  0  0  0
   22.8264   -5.6542  -15.1721 C   0  0  0  0  0  0  0  0  0  0  0  0
   22.2059   -5.7833  -13.8603 C   0  0  0  0  0  0  0  0  0  0  0  0
   21.8619   -6.8653  -13.3657 O   0  0  0  0  0  0  0  0  0  0  0  0
   21.1704   -7.1638  -16.2562 C   0  0  0  0  0  0  0  0  0  0  0  0
   20.3835   -6.4537  -16.8918 O   0  0  0  0  0  0  0  0  0  0  0  0
   21.9805   -4.6253  -13.1056 O   0  0  0  0  0  0  0  0  0  0  0  0
   17.3375  -15.1193  -14.7719 N   0  0  0  0  0  0  0  0  0  0  0  0
   16.4148  -14.3345  -15.5411 C   0  0  0  0  0  0  0  0  0  0  0  0
   15.4458  -14.9559  -16.0902 N   0  0  0  0  0  0  0  0  0  0  0  0
   16.5621  -12.9361  -15.6914 N   0  0  0  0  0  0  0  0  0  0  0  0
   17.8622  -12.3136  -15.5966 C   0  0  0  0  0  0  0  0  0  0  0  0
   17.7734  -10.8066  -15.8808 C   0  0  0  0  0  0  0  0  0  0  0  0
   19.1359  -10.2321  -15.6441 C   0  0  0  0  0  0  0  0  0  0  0  0
   19.2213   -8.7485  -15.8928 C   0  0  2  0  0  0  0  0  0  0  0  0
   20.6299   -8.3733  -15.7167 N   0  0  0  0  0  0  0  0  0  0  0  0
   18.3386   -7.9339  -15.0579 C   0  0  0  0  0  0  0  0  0  0  0  0
   18.6490   -7.6311  -13.8861 O   0  0  0  0  0  0  0  0  0  0  0  0
   17.1279   -7.4748  -15.5480 O   0  0  0  0  0  0  0  0  0  0  0  0
  2  1  1  0
  3  2  1  0
  4  3  2  0
  5  3  1  0
  6  7  1  1
  6  5  1  0
  8 12  1  0
  8  7  1  0
  9  8  2  0
 10 11  2  0
 10  6  1  0
 14 13  1  0
 14 16  1  0
 15 14  2  0
 17 16  1  0
 18 17  1  0
 19 18  1  0
 20 21  1  0
 20 19  1  1
 21 10  1  0
 22 20  1  0
 23 22  2  0
 24 22  1  0
M  END
$$$$
