ICF.pdb
     RDKit          3D

 26 26  0  0  1  0  0  0  0  0999 V2000
   21.9280  -18.1155  -17.5036 C   0  0  0  0  0  0  0  0  0  0  0  0
   22.9411  -17.8532  -16.4413 C   0  0  0  0  0  0  0  0  0  0  0  0
   22.8979  -18.7914  -15.2809 C   0  0  2  0  0  0  0  0  0  0  0  0
   21.5504  -18.9526  -14.6601 C   0  0  0  0  0  0  0  0  0  0  0  0
   23.9246  -18.4339  -14.2145 C   0  0  2  0  0  0  0  0  0  0  0  0
   25.2224  -18.4047  -14.8640 N   0  0  0  0  0  0  0  0  0  0  0  0
   23.9751  -19.5177  -13.1705 C   0  0  0  0  0  0  0  0  0  0  0  0
   22.9278  -19.9663  -12.6335 O   0  0  0  0  0  0  0  0  0  0  0  0
   25.2098  -20.0795  -12.7480 N   0  0  0  0  0  0  0  0  0  0  0  0
   25.3353  -21.0833  -11.7330 C   0  0  1  0  0  0  0  0  0  0  0  0
   25.9851  -22.3512  -12.2515 C   0  0  0  0  0  0  0  0  0  0  0  0
   27.5843  -21.9722  -13.0070 S   0  0  0  0  0  0  0  0  0  0  0  0
   26.0317  -20.6139  -10.5245 C   0  0  0  0  0  0  0  0  0  0  0  0
   26.7115  -19.5649  -10.5827 O   0  0  0  0  0  0  0  0  0  0  0  0
   25.9706  -21.2961   -9.2872 N   0  0  0  0  0  0  0  0  0  0  0  0
   26.8143  -20.9356   -8.1924 C   0  0  1  0  0  0  0  0  0  0  0  0
   26.4981  -19.5188   -7.7346 C   0  0  0  0  0  0  0  0  0  0  0  0
   27.2859  -19.1387   -6.5459 C   0  0  0  0  0  0  0  0  0  0  0  0
   28.3199  -18.2315   -6.6688 C   0  0  0  0  0  0  0  0  0  0  0  0
   29.0889  -17.8410   -5.5881 C   0  0  0  0  0  0  0  0  0  0  0  0
   28.7873  -18.3936   -4.3651 C   0  0  0  0  0  0  0  0  0  0  0  0
   27.7502  -19.3042   -4.2391 C   0  0  0  0  0  0  0  0  0  0  0  0
   26.9844  -19.6922   -5.3187 C   0  0  0  0  0  0  0  0  0  0  0  0
   26.8098  -21.8920   -7.0873 C   0  0  0  0  0  0  0  0  0  0  0  0
   27.9684  -22.3382   -6.4779 O   0  0  0  0  0  0  0  0  0  0  0  0
   25.7188  -22.3367   -6.6615 O   0  0  0  0  0  0  0  0  0  0  0  0
  2  1  1  0
  3  2  1  0
  3  4  1  1
  5  6  1  6
  5  3  1  0
  7  5  1  0
  8  7  2  0
  9  7  1  0
 10 11  1  6
 10  9  1  0
 11 12  1  0
 13 14  2  0
 13 10  1  0
 15 13  1  0
 16 15  1  0
 17 18  1  0
 16 17  1  1
 18 19  2  0
 19 20  1  0
 21 20  2  0
 22 21  1  0
 23 18  1  0
 23 22  2  0
 24 16  1  0
 24 25  1  0
 26 24  2  0
M  END
$$$$
