ICF.pdb
     RDKit          3D

 26 26  0  0  1  0  0  0  0  0999 V2000
   24.6014  -26.9638  -16.0638 C   0  0  0  0  0  0  0  0  0  0  0  0
   24.3266  -25.5088  -16.2403 C   0  0  0  0  0  0  0  0  0  0  0  0
   25.0916  -24.6060  -15.3302 C   0  0  2  0  0  0  0  0  0  0  0  0
   24.4808  -24.4178  -13.9816 C   0  0  0  0  0  0  0  0  0  0  0  0
   25.3747  -23.2525  -15.9685 C   0  0  2  0  0  0  0  0  0  0  0  0
   26.4902  -23.4349  -16.8791 N   0  0  0  0  0  0  0  0  0  0  0  0
   25.8181  -22.2734  -14.9140 C   0  0  0  0  0  0  0  0  0  0  0  0
   27.0275  -22.1670  -14.5787 O   0  0  0  0  0  0  0  0  0  0  0  0
   24.8872  -21.4277  -14.2530 N   0  0  0  0  0  0  0  0  0  0  0  0
   25.2457  -20.4272  -13.2916 C   0  0  1  0  0  0  0  0  0  0  0  0
   24.3200  -19.2274  -13.3338 C   0  0  0  0  0  0  0  0  0  0  0  0
   24.6983  -18.0956  -11.9744 S   0  0  0  0  0  0  0  0  0  0  0  0
   25.3467  -20.9422  -11.9167 C   0  0  0  0  0  0  0  0  0  0  0  0
   24.4615  -21.7174  -11.4907 O   0  0  0  0  0  0  0  0  0  0  0  0
   26.4053  -20.6013  -11.0431 N   0  0  0  0  0  0  0  0  0  0  0  0
   26.4538  -21.0892   -9.7015 C   0  0  1  0  0  0  0  0  0  0  0  0
   27.8634  -20.9465   -9.1451 C   0  0  0  0  0  0  0  0  0  0  0  0
   27.8549  -20.4805   -7.7448 C   0  0  0  0  0  0  0  0  0  0  0  0
   27.5420  -19.1657   -7.4606 C   0  0  0  0  0  0  0  0  0  0  0  0
   27.5193  -18.6774   -6.1672 C   0  0  0  0  0  0  0  0  0  0  0  0
   27.8233  -19.5569   -5.1541 C   0  0  0  0  0  0  0  0  0  0  0  0
   28.1376  -20.8768   -5.4366 C   0  0  0  0  0  0  0  0  0  0  0  0
   28.1596  -21.3615   -6.7278 C   0  0  0  0  0  0  0  0  0  0  0  0
   25.4442  -20.5153   -8.8143 C   0  0  0  0  0  0  0  0  0  0  0  0
   24.8758  -21.2217   -7.7700 O   0  0  0  0  0  0  0  0  0  0  0  0
   25.0660  -19.3344   -8.9933 O   0  0  0  0  0  0  0  0  0  0  0  0
  2  1  1  0
  3  2  1  0
  3  4  1  1
  5  6  1  6
  5  3  1  0
  7  5  1  0
  8  7  2  0
  9  7  1  0
 10 11  1  1
 10  9  1  0
 11 12  1  0
 13 14  2  0
 13 10  1  0
 15 13  1  0
 16 15  1  0
 17 18  1  0
 16 17  1  1
 18 19  2  0
 19 20  1  0
 21 20  2  0
 22 21  1  0
 23 18  1  0
 23 22  2  0
 24 16  1  0
 24 25  1  0
 26 24  2  0
M  END
$$$$
