ICF.pdb
     RDKit          3D

 26 26  0  0  1  0  0  0  0  0999 V2000
   20.3737  -17.5029  -14.0486 C   0  0  0  0  0  0  0  0  0  0  0  0
   19.6221  -16.7759  -15.1118 C   0  0  0  0  0  0  0  0  0  0  0  0
   20.2929  -15.5487  -15.6336 C   0  0  2  0  0  0  0  0  0  0  0  0
   20.6086  -14.5227  -14.5969 C   0  0  0  0  0  0  0  0  0  0  0  0
   19.5162  -14.9120  -16.7785 C   0  0  2  0  0  0  0  0  0  0  0  0
   19.5013  -15.8699  -17.8690 N   0  0  0  0  0  0  0  0  0  0  0  0
   20.2438  -13.6894  -17.2716 C   0  0  0  0  0  0  0  0  0  0  0  0
   21.3163  -13.7787  -17.9260 O   0  0  0  0  0  0  0  0  0  0  0  0
   19.7482  -12.3823  -17.0178 N   0  0  0  0  0  0  0  0  0  0  0  0
   20.3927  -11.1765  -17.4471 C   0  0  1  0  0  0  0  0  0  0  0  0
   19.6977  -10.5417  -18.6356 C   0  0  0  0  0  0  0  0  0  0  0  0
   20.4817   -8.9655  -19.0517 S   0  0  0  0  0  0  0  0  0  0  0  0
   20.5649  -10.1867  -16.3718 C   0  0  0  0  0  0  0  0  0  0  0  0
   19.5899   -9.9094  -15.6381 O   0  0  0  0  0  0  0  0  0  0  0  0
   21.7903   -9.5260  -16.1231 N   0  0  0  0  0  0  0  0  0  0  0  0
   21.9238   -8.5698  -15.0704 C   0  0  1  0  0  0  0  0  0  0  0  0
   22.9653   -9.0420  -14.0657 C   0  0  0  0  0  0  0  0  0  0  0  0
   24.2280   -9.4267  -14.7258 C   0  0  0  0  0  0  0  0  0  0  0  0
   24.7396  -10.6962  -14.5422 C   0  0  0  0  0  0  0  0  0  0  0  0
   25.9180  -11.1081  -15.1368 C   0  0  0  0  0  0  0  0  0  0  0  0
   26.5769  -10.1985  -15.9310 C   0  0  0  0  0  0  0  0  0  0  0  0
   26.0656   -8.9238  -16.1168 C   0  0  0  0  0  0  0  0  0  0  0  0
   24.8898   -8.5153  -15.5225 C   0  0  0  0  0  0  0  0  0  0  0  0
   22.1682   -7.2026  -15.5250 C   0  0  0  0  0  0  0  0  0  0  0  0
   22.1387   -6.1133  -14.6735 O   0  0  0  0  0  0  0  0  0  0  0  0
   22.4166   -6.9904  -16.7345 O   0  0  0  0  0  0  0  0  0  0  0  0
  2  1  1  0
  3  2  1  0
  3  4  1  1
  5  6  1  6
  5  3  1  0
  7  5  1  0
  8  7  2  0
  9  7  1  0
 10 11  1  6
 10  9  1  0
 11 12  1  0
 13 14  2  0
 13 10  1  0
 15 13  1  0
 16 15  1  0
 17 18  1  0
 16 17  1  1
 18 19  2  0
 19 20  1  0
 21 20  2  0
 22 21  1  0
 23 18  1  0
 23 22  2  0
 24 16  1  0
 24 25  1  0
 26 24  2  0
M  END
$$$$
