ICF.pdb
     RDKit          3D

 26 26  0  0  1  0  0  0  0  0999 V2000
   28.2864  -18.3821  -17.1188 C   0  0  0  0  0  0  0  0  0  0  0  0
   27.8720  -19.5223  -16.2517 C   0  0  0  0  0  0  0  0  0  0  0  0
   27.5351  -19.1562  -14.8442 C   0  0  2  0  0  0  0  0  0  0  0  0
   28.6372  -19.3765  -13.8623 C   0  0  0  0  0  0  0  0  0  0  0  0
   26.2621  -19.8392  -14.3619 C   0  0  2  0  0  0  0  0  0  0  0  0
   25.1863  -19.4005  -15.2320 N   0  0  0  0  0  0  0  0  0  0  0  0
   25.9268  -19.3706  -12.9707 C   0  0  0  0  0  0  0  0  0  0  0  0
   25.9675  -18.1514  -12.6571 O   0  0  0  0  0  0  0  0  0  0  0  0
   25.5499  -20.2878  -11.9531 N   0  0  0  0  0  0  0  0  0  0  0  0
   25.3121  -19.9258  -10.5871 C   0  0  1  0  0  0  0  0  0  0  0  0
   23.8369  -19.7508  -10.2843 C   0  0  0  0  0  0  0  0  0  0  0  0
   22.8738  -21.0576  -11.0824 S   0  0  0  0  0  0  0  0  0  0  0  0
   25.9227  -20.8505   -9.6187 C   0  0  0  0  0  0  0  0  0  0  0  0
   25.9331  -22.0761   -9.8709 O   0  0  0  0  0  0  0  0  0  0  0  0
   26.5046  -20.4189   -8.4041 N   0  0  0  0  0  0  0  0  0  0  0  0
   26.9417  -21.3495   -7.4126 C   0  0  1  0  0  0  0  0  0  0  0  0
   28.3985  -21.0876   -7.0574 C   0  0  0  0  0  0  0  0  0  0  0  0
   28.5259  -20.1535   -5.9219 C   0  0  0  0  0  0  0  0  0  0  0  0
   28.3589  -18.7979   -6.1260 C   0  0  0  0  0  0  0  0  0  0  0  0
   28.4674  -17.8798   -5.0978 C   0  0  0  0  0  0  0  0  0  0  0  0
   28.7518  -18.3667   -3.8431 C   0  0  0  0  0  0  0  0  0  0  0  0
   28.9199  -19.7266   -3.6356 C   0  0  0  0  0  0  0  0  0  0  0  0
   28.8112  -20.6406   -4.6630 C   0  0  0  0  0  0  0  0  0  0  0  0
   26.0843  -21.4191   -6.2311 C   0  0  0  0  0  0  0  0  0  0  0  0
   25.0264  -20.5533   -6.0211 O   0  0  0  0  0  0  0  0  0  0  0  0
   26.3029  -22.2941   -5.3616 O   0  0  0  0  0  0  0  0  0  0  0  0
  2  1  1  0
  3  2  1  0
  3  4  1  1
  5  6  1  6
  5  3  1  0
  7  5  1  0
  8  7  2  0
  9  7  1  0
 10 11  1  1
 10  9  1  0
 11 12  1  0
 13 14  2  0
 13 10  1  0
 15 13  1  0
 16 15  1  0
 17 18  1  0
 16 17  1  1
 18 19  2  0
 19 20  1  0
 21 20  2  0
 22 21  1  0
 23 18  1  0
 23 22  2  0
 24 16  1  0
 24 25  1  0
 26 24  2  0
M  END
$$$$
