ICF.pdb
     RDKit          3D

 26 26  0  0  1  0  0  0  0  0999 V2000
   25.3773  -21.4068  -16.4911 C   0  0  0  0  0  0  0  0  0  0  0  0
   26.6181  -22.2285  -16.3962 C   0  0  0  0  0  0  0  0  0  0  0  0
   26.5079  -23.6072  -16.9579 C   0  0  2  0  0  0  0  0  0  0  0  0
   25.3677  -24.4082  -16.4237 C   0  0  0  0  0  0  0  0  0  0  0  0
   27.8067  -24.3901  -16.8179 C   0  0  2  0  0  0  0  0  0  0  0  0
   28.8634  -23.5679  -17.3784 N   0  0  0  0  0  0  0  0  0  0  0  0
   27.7368  -25.6471  -17.6440 C   0  0  0  0  0  0  0  0  0  0  0  0
   27.2014  -25.6588  -18.7840 O   0  0  0  0  0  0  0  0  0  0  0  0
   28.2738  -26.8738  -17.1693 N   0  0  0  0  0  0  0  0  0  0  0  0
   28.2439  -28.1056  -17.9010 C   0  0  1  0  0  0  0  0  0  0  0  0
   29.6291  -28.5713  -18.3049 C   0  0  0  0  0  0  0  0  0  0  0  0
   29.5491  -30.2318  -19.0179 S   0  0  0  0  0  0  0  0  0  0  0  0
   27.5283  -29.1865  -17.2043 C   0  0  0  0  0  0  0  0  0  0  0  0
   28.0298  -29.6800  -16.1695 O   0  0  0  0  0  0  0  0  0  0  0  0
   26.2888  -29.7010  -17.6504 N   0  0  0  0  0  0  0  0  0  0  0  0
   25.6226  -30.7548  -16.9532 C   0  0  1  0  0  0  0  0  0  0  0  0
   24.9094  -30.2005  -15.7280 C   0  0  0  0  0  0  0  0  0  0  0  0
   24.1123  -31.2365  -15.0430 C   0  0  0  0  0  0  0  0  0  0  0  0
   22.7511  -31.3130  -15.2635 C   0  0  0  0  0  0  0  0  0  0  0  0
   21.9579  -32.2637  -14.6478 C   0  0  0  0  0  0  0  0  0  0  0  0
   22.5771  -33.1466  -13.7938 C   0  0  0  0  0  0  0  0  0  0  0  0
   23.9429  -33.0719  -13.5708 C   0  0  0  0  0  0  0  0  0  0  0  0
   24.7321  -32.1226  -14.1862 C   0  0  0  0  0  0  0  0  0  0  0  0
   24.7425  -31.5688  -17.7892 C   0  0  0  0  0  0  0  0  0  0  0  0
   24.7078  -32.9495  -17.7180 O   0  0  0  0  0  0  0  0  0  0  0  0
   23.9807  -31.0081  -18.6106 O   0  0  0  0  0  0  0  0  0  0  0  0
  2  1  1  0
  3  2  1  0
  3  4  1  1
  5  6  1  6
  5  3  1  0
  7  5  1  0
  8  7  2  0
  9  7  1  0
 10 11  1  1
 10  9  1  0
 11 12  1  0
 13 14  2  0
 13 10  1  0
 15 13  1  0
 16 15  1  0
 17 18  1  0
 16 17  1  1
 18 19  2  0
 19 20  1  0
 21 20  2  0
 22 21  1  0
 23 18  1  0
 23 22  2  0
 24 16  1  0
 24 25  1  0
 26 24  2  0
M  END
$$$$
