ICF.pdb
     RDKit          3D

 26 26  0  0  1  0  0  0  0  0999 V2000
   27.1472  -15.0814  -17.4999 C   0  0  0  0  0  0  0  0  0  0  0  0
   27.7825  -16.3981  -17.2066 C   0  0  0  0  0  0  0  0  0  0  0  0
   26.9090  -17.3769  -16.4943 C   0  0  2  0  0  0  0  0  0  0  0  0
   26.4103  -16.9152  -15.1657 C   0  0  0  0  0  0  0  0  0  0  0  0
   27.5685  -18.7429  -16.3584 C   0  0  2  0  0  0  0  0  0  0  0  0
   27.9001  -19.1921  -17.6982 N   0  0  0  0  0  0  0  0  0  0  0  0
   26.5846  -19.7308  -15.7899 C   0  0  0  0  0  0  0  0  0  0  0  0
   25.6058  -20.1494  -16.4631 O   0  0  0  0  0  0  0  0  0  0  0  0
   26.7212  -20.2318  -14.4674 N   0  0  0  0  0  0  0  0  0  0  0  0
   25.7884  -21.1204  -13.8398 C   0  0  1  0  0  0  0  0  0  0  0  0
   26.4117  -21.9005  -12.6990 C   0  0  0  0  0  0  0  0  0  0  0  0
   26.9125  -20.7780  -11.3720 S   0  0  0  0  0  0  0  0  0  0  0  0
   24.5563  -20.4555  -13.3864 C   0  0  0  0  0  0  0  0  0  0  0  0
   24.6435  -19.3835  -12.7468 O   0  0  0  0  0  0  0  0  0  0  0  0
   23.2648  -20.9727  -13.6401 N   0  0  0  0  0  0  0  0  0  0  0  0
   22.0891  -20.3095  -13.1728 C   0  0  1  0  0  0  0  0  0  0  0  0
   22.0932  -18.8573  -13.6289 C   0  0  0  0  0  0  0  0  0  0  0  0
   21.9327  -18.7421  -15.0914 C   0  0  0  0  0  0  0  0  0  0  0  0
   20.6740  -18.8291  -15.6530 C   0  0  0  0  0  0  0  0  0  0  0  0
   20.4676  -18.7278  -17.0164 C   0  0  0  0  0  0  0  0  0  0  0  0
   21.5741  -18.5343  -17.8105 C   0  0  0  0  0  0  0  0  0  0  0  0
   22.8382  -18.4466  -17.2495 C   0  0  0  0  0  0  0  0  0  0  0  0
   23.0416  -18.5479  -15.8889 C   0  0  0  0  0  0  0  0  0  0  0  0
   20.8400  -20.9931  -13.5021 C   0  0  0  0  0  0  0  0  0  0  0  0
   20.7952  -22.1452  -14.2659 O   0  0  0  0  0  0  0  0  0  0  0  0
   19.7545  -20.5292  -13.0827 O   0  0  0  0  0  0  0  0  0  0  0  0
  2  1  1  0
  3  2  1  0
  3  4  1  1
  5  6  1  6
  5  3  1  0
  7  5  1  0
  8  7  2  0
  9  7  1  0
 10 11  1  1
 10  9  1  0
 11 12  1  0
 13 14  2  0
 13 10  1  0
 15 13  1  0
 16 15  1  0
 17 18  1  0
 16 17  1  6
 18 19  2  0
 19 20  1  0
 21 20  2  0
 22 21  1  0
 23 18  1  0
 23 22  2  0
 24 16  1  0
 24 25  1  0
 26 24  2  0
M  END
$$$$
