FYS.pdb
     RDKit          3D

 30 31  0  0  1  0  0  0  0  0999 V2000
    7.6905  -17.9335   21.3523 N   0  0  0  0  0  0  0  0  0  0  0  0
    8.1011  -16.5739   21.5162 C   0  0  1  0  0  0  0  0  0  0  0  0
    6.9368  -15.6161   21.3044 C   0  0  0  0  0  0  0  0  0  0  0  0
    7.4869  -14.4434   20.5787 C   0  0  0  0  0  0  0  0  0  0  0  0
    8.8416  -14.3168   20.3691 C   0  0  0  0  0  0  0  0  0  0  0  0
    9.3661  -13.2251   19.6928 C   0  0  0  0  0  0  0  0  0  0  0  0
    8.5196  -12.2456   19.2196 C   0  0  0  0  0  0  0  0  0  0  0  0
    7.1690  -12.3872   19.4374 C   0  0  0  0  0  0  0  0  0  0  0  0
    6.6257  -13.4743   20.1129 C   0  0  0  0  0  0  0  0  0  0  0  0
    8.6701  -16.3031   22.8578 C   0  0  0  0  0  0  0  0  0  0  0  0
    9.7277  -15.6778   23.0513 O   0  0  0  0  0  0  0  0  0  0  0  0
    6.7946  -10.5074   26.3009 O   0  0  0  0  0  0  0  0  0  0  0  0
    6.9409  -11.8744   26.2807 C   0  0  0  0  0  0  0  0  0  0  0  0
    8.1638  -12.4388   26.5771 C   0  0  0  0  0  0  0  0  0  0  0  0
    8.3415  -13.8141   26.5648 C   0  0  0  0  0  0  0  0  0  0  0  0
    7.2653  -14.6217   26.2481 C   0  0  0  0  0  0  0  0  0  0  0  0
    7.3578  -16.1034   26.2089 C   0  0  0  0  0  0  0  0  0  0  0  0
    8.5126  -16.5578   25.3176 C   0  0  2  0  0  0  0  0  0  0  0  0
    7.9664  -16.7864   24.0016 N   0  0  0  0  0  0  0  0  0  0  0  0
    9.0287  -17.8351   25.8501 C   0  0  0  0  0  0  0  0  0  0  0  0
    8.3024  -18.8882   25.8461 O   0  0  0  0  0  0  0  0  0  0  0  0
    6.0570  -14.0438   25.9561 C   0  0  0  0  0  0  0  0  0  0  0  0
    5.8699  -12.6845   25.9653 C   0  0  0  0  0  0  0  0  0  0  0  0
   13.0069  -18.3915   26.0347 O   0  0  0  0  0  0  0  0  0  0  0  0
   12.1629  -19.4882   26.0989 C   0  0  0  0  0  0  0  0  0  0  0  0
   10.9039  -19.1268   26.8808 C   0  0  2  0  0  0  0  0  0  0  0  0
   10.3436  -17.8894   26.3703 N   0  0  0  0  0  0  0  0  0  0  0  0
   11.1422  -19.0758   28.3323 C   0  0  0  0  0  0  0  0  0  0  0  0
   11.6265  -20.0145   28.9975 O   0  0  0  0  0  0  0  0  0  0  0  0
   10.8050  -17.9062   28.9993 O   0  0  0  0  0  0  0  0  0  0  0  0
  2  1  1  1
  3  4  1  0
  3  2  1  0
  4  5  2  0
  5  6  1  0
  7  6  2  0
  8  7  1  0
  9  4  1  0
  9  8  2  0
 10 19  1  0
 10  2  1  0
 11 10  2  0
 13 12  1  0
 14 13  2  0
 15 14  1  0
 16 15  2  0
 16 22  1  0
 18 17  1  1
 17 16  1  0
 18 19  1  0
 20 18  1  0
 21 20  2  0
 22 23  2  0
 23 13  1  0
 24 25  1  0
 26 25  1  6
 26 28  1  0
 26 27  1  0
 27 20  1  0
 28 30  1  0
 29 28  2  0
M  END
$$$$
