FYS.pdb
     RDKit          3D

 30 31  0  0  1  0  0  0  0  0999 V2000
    8.1660  -17.9751   18.7895 N   0  0  0  0  0  0  0  0  0  0  0  0
    8.8514  -16.7483   19.0526 C   0  0  1  0  0  0  0  0  0  0  0  0
    8.4964  -16.2017   20.4286 C   0  0  0  0  0  0  0  0  0  0  0  0
    8.0884  -14.7887   20.2245 C   0  0  0  0  0  0  0  0  0  0  0  0
    8.7819  -13.9733   19.3590 C   0  0  0  0  0  0  0  0  0  0  0  0
    8.4096  -12.6517   19.1613 C   0  0  0  0  0  0  0  0  0  0  0  0
    7.3255  -12.1401   19.8418 C   0  0  0  0  0  0  0  0  0  0  0  0
    6.6436  -12.9679   20.7027 C   0  0  0  0  0  0  0  0  0  0  0  0
    7.0024  -14.2947   20.9132 C   0  0  0  0  0  0  0  0  0  0  0  0
   10.3256  -16.8884   18.9891 C   0  0  0  0  0  0  0  0  0  0  0  0
   10.9124  -17.7809   18.3519 O   0  0  0  0  0  0  0  0  0  0  0  0
   18.4808  -13.9765   18.3285 O   0  0  0  0  0  0  0  0  0  0  0  0
   17.1385  -14.1003   18.5993 C   0  0  0  0  0  0  0  0  0  0  0  0
   16.2625  -14.4397   17.5896 C   0  0  0  0  0  0  0  0  0  0  0  0
   14.9036  -14.5718   17.8327 C   0  0  0  0  0  0  0  0  0  0  0  0
   14.4323  -14.3566   19.1141 C   0  0  0  0  0  0  0  0  0  0  0  0
   12.9957  -14.4743   19.4714 C   0  0  0  0  0  0  0  0  0  0  0  0
   12.5557  -15.9372   19.5011 C   0  0  2  0  0  0  0  0  0  0  0  0
   11.1264  -15.9449   19.7001 N   0  0  0  0  0  0  0  0  0  0  0  0
   13.2034  -16.5883   20.6578 C   0  0  0  0  0  0  0  0  0  0  0  0
   12.8144  -16.3421   21.8513 O   0  0  0  0  0  0  0  0  0  0  0  0
   15.3172  -14.0199   20.1056 C   0  0  0  0  0  0  0  0  0  0  0  0
   16.6634  -13.8865   19.8765 C   0  0  0  0  0  0  0  0  0  0  0  0
   16.1342  -19.5359   19.9989 O   0  0  0  0  0  0  0  0  0  0  0  0
   15.2943  -19.6041   21.0985 C   0  0  0  0  0  0  0  0  0  0  0  0
   14.9021  -18.1969   21.5378 C   0  0  2  0  0  0  0  0  0  0  0  0
   14.2675  -17.4949   20.4377 N   0  0  0  0  0  0  0  0  0  0  0  0
   16.0392  -17.4483   22.0972 C   0  0  0  0  0  0  0  0  0  0  0  0
   16.5098  -16.4072   21.5943 O   0  0  0  0  0  0  0  0  0  0  0  0
   16.6219  -17.9358   23.2588 O   0  0  0  0  0  0  0  0  0  0  0  0
  2  1  1  1
  3  4  1  0
  3  2  1  0
  4  5  2  0
  5  6  1  0
  7  6  2  0
  8  7  1  0
  9  4  1  0
  9  8  2  0
 10 19  1  0
 10  2  1  0
 11 10  2  0
 13 12  1  0
 14 13  2  0
 15 14  1  0
 16 15  2  0
 16 22  1  0
 18 17  1  1
 17 16  1  0
 18 19  1  0
 20 18  1  0
 21 20  2  0
 22 23  2  0
 23 13  1  0
 24 25  1  0
 26 25  1  6
 26 28  1  0
 26 27  1  0
 27 20  1  0
 28 30  1  0
 29 28  2  0
M  END
$$$$
