FYS.pdb
     RDKit          3D

 30 31  0  0  1  0  0  0  0  0999 V2000
    5.2968  -17.4862   24.5054 N   0  0  0  0  0  0  0  0  0  0  0  0
    6.1206  -16.3458   24.7597 C   0  0  1  0  0  0  0  0  0  0  0  0
    6.3857  -16.1774   26.2495 C   0  0  0  0  0  0  0  0  0  0  0  0
    6.7696  -14.7569   26.4478 C   0  0  0  0  0  0  0  0  0  0  0  0
    8.0776  -14.4093   26.6998 C   0  0  0  0  0  0  0  0  0  0  0  0
    8.4470  -13.0854   26.8870 C   0  0  0  0  0  0  0  0  0  0  0  0
    7.4905  -12.0950   26.8205 C   0  0  0  0  0  0  0  0  0  0  0  0
    6.1885  -12.4592   26.5680 C   0  0  0  0  0  0  0  0  0  0  0  0
    5.8001  -13.7806   26.3778 C   0  0  0  0  0  0  0  0  0  0  0  0
    7.4323  -16.4197   24.0734 C   0  0  0  0  0  0  0  0  0  0  0  0
    8.0823  -17.4700   23.9271 O   0  0  0  0  0  0  0  0  0  0  0  0
    7.0838  -13.8342   16.9105 O   0  0  0  0  0  0  0  0  0  0  0  0
    7.6404  -13.8642   18.1674 C   0  0  0  0  0  0  0  0  0  0  0  0
    8.4703  -14.9054   18.5265 C   0  0  0  0  0  0  0  0  0  0  0  0
    9.0461  -14.9625   19.7868 C   0  0  0  0  0  0  0  0  0  0  0  0
    8.7749  -13.9512   20.6892 C   0  0  0  0  0  0  0  0  0  0  0  0
    9.3441  -13.9251   22.0606 C   0  0  0  0  0  0  0  0  0  0  0  0
    9.1880  -15.2819   22.7455 C   0  0  2  0  0  0  0  0  0  0  0  0
    7.9891  -15.2160   23.5460 N   0  0  0  0  0  0  0  0  0  0  0  0
   10.3483  -15.4827   23.6370 C   0  0  0  0  0  0  0  0  0  0  0  0
   10.5900  -14.6667   24.5921 O   0  0  0  0  0  0  0  0  0  0  0  0
    7.9477  -12.9239   20.3155 C   0  0  0  0  0  0  0  0  0  0  0  0
    7.3727  -12.8573   19.0714 C   0  0  0  0  0  0  0  0  0  0  0  0
   12.2995  -19.0735   23.6059 O   0  0  0  0  0  0  0  0  0  0  0  0
   12.5288  -18.2157   24.6692 C   0  0  0  0  0  0  0  0  0  0  0  0
   12.4164  -16.7686   24.1999 C   0  0  2  0  0  0  0  0  0  0  0  0
   11.2004  -16.5929   23.4276 N   0  0  0  0  0  0  0  0  0  0  0  0
   13.6130  -16.3235   23.4677 C   0  0  0  0  0  0  0  0  0  0  0  0
   13.5994  -15.8924   22.2964 O   0  0  0  0  0  0  0  0  0  0  0  0
   14.8327  -16.3895   24.1270 O   0  0  0  0  0  0  0  0  0  0  0  0
  2  1  1  1
  3  4  1  0
  3  2  1  0
  4  5  2  0
  5  6  1  0
  7  6  2  0
  8  7  1  0
  9  4  1  0
  9  8  2  0
 10 19  1  0
 10  2  1  0
 11 10  2  0
 13 12  1  0
 14 13  2  0
 15 14  1  0
 16 15  2  0
 16 22  1  0
 18 17  1  1
 17 16  1  0
 18 19  1  0
 20 18  1  0
 21 20  2  0
 22 23  2  0
 23 13  1  0
 24 25  1  0
 26 25  1  6
 26 28  1  0
 26 27  1  0
 27 20  1  0
 28 30  1  0
 29 28  2  0
M  END
$$$$
