FYS.pdb
     RDKit          3D

 30 31  0  0  1  0  0  0  0  0999 V2000
    6.0572  -18.3521   26.3090 N   0  0  0  0  0  0  0  0  0  0  0  0
    6.4152  -16.9872   26.0791 C   0  0  1  0  0  0  0  0  0  0  0  0
    7.3268  -16.4626   27.1800 C   0  0  0  0  0  0  0  0  0  0  0  0
    7.2796  -14.9813   27.0913 C   0  0  0  0  0  0  0  0  0  0  0  0
    6.0858  -14.3252   26.8928 C   0  0  0  0  0  0  0  0  0  0  0  0
    6.0305  -12.9417   26.8080 C   0  0  0  0  0  0  0  0  0  0  0  0
    7.1898  -12.2050   26.9239 C   0  0  0  0  0  0  0  0  0  0  0  0
    8.3740  -12.8758   27.1219 C   0  0  0  0  0  0  0  0  0  0  0  0
    8.4483  -14.2615   27.2094 C   0  0  0  0  0  0  0  0  0  0  0  0
    7.1083  -16.7849   24.7846 C   0  0  0  0  0  0  0  0  0  0  0  0
    7.9275  -17.5867   24.3018 O   0  0  0  0  0  0  0  0  0  0  0  0
    8.4983  -13.4865   16.8371 O   0  0  0  0  0  0  0  0  0  0  0  0
    8.1193  -13.6212   18.1520 C   0  0  0  0  0  0  0  0  0  0  0  0
    8.3255  -12.5831   19.0360 C   0  0  0  0  0  0  0  0  0  0  0  0
    7.9538  -12.6899   20.3678 C   0  0  0  0  0  0  0  0  0  0  0  0
    7.3671  -13.8633   20.8033 C   0  0  0  0  0  0  0  0  0  0  0  0
    6.9357  -14.0715   22.2090 C   0  0  0  0  0  0  0  0  0  0  0  0
    7.3981  -15.4316   22.7292 C   0  0  2  0  0  0  0  0  0  0  0  0
    6.8227  -15.6001   24.0419 N   0  0  0  0  0  0  0  0  0  0  0  0
    8.8696  -15.4003   22.8521 C   0  0  0  0  0  0  0  0  0  0  0  0
    9.4443  -14.5703   23.6378 O   0  0  0  0  0  0  0  0  0  0  0  0
    7.1696  -14.8849   19.9109 C   0  0  0  0  0  0  0  0  0  0  0  0
    7.5335  -14.7902   18.5912 C   0  0  0  0  0  0  0  0  0  0  0  0
   10.7978  -18.4115   21.0957 O   0  0  0  0  0  0  0  0  0  0  0  0
   11.6240  -17.7248   21.9702 C   0  0  0  0  0  0  0  0  0  0  0  0
   11.0977  -16.3075   22.1738 C   0  0  2  0  0  0  0  0  0  0  0  0
    9.6490  -16.3017   22.0888 N   0  0  0  0  0  0  0  0  0  0  0  0
   11.7159  -15.3431   21.2497 C   0  0  0  0  0  0  0  0  0  0  0  0
   11.0833  -14.6729   20.4079 O   0  0  0  0  0  0  0  0  0  0  0  0
   13.0913  -15.1719   21.3234 O   0  0  0  0  0  0  0  0  0  0  0  0
  2  1  1  1
  3  4  1  0
  3  2  1  0
  4  5  2  0
  5  6  1  0
  7  6  2  0
  8  7  1  0
  9  4  1  0
  9  8  2  0
 10 19  1  0
 10  2  1  0
 11 10  2  0
 13 12  1  0
 14 13  2  0
 15 14  1  0
 16 15  2  0
 16 22  1  0
 18 17  1  1
 17 16  1  0
 18 19  1  0
 20 18  1  0
 21 20  2  0
 22 23  2  0
 23 13  1  0
 24 25  1  0
 26 25  1  6
 26 28  1  0
 26 27  1  0
 27 20  1  0
 28 30  1  0
 29 28  2  0
M  END
$$$$
