LID.pdb
     RDKit          3D

 25 24  0  0  1  0  0  0  0  0999 V2000
   24.7549  -21.0374   -8.8974 C   0  0  0  0  0  0  0  0  0  0  0  0
   26.2627  -20.9887   -9.1732 C   0  0  2  0  0  0  0  0  0  0  0  0
   26.9095  -20.1949   -8.0653 C   0  0  0  0  0  0  0  0  0  0  0  0
   26.4208  -20.2561  -10.4671 C   0  0  0  0  0  0  0  0  0  0  0  0
   25.7261  -20.9472  -11.5858 C   0  0  2  0  0  0  0  0  0  0  0  0
   26.5708  -21.8078  -12.3813 N   0  0  0  0  0  0  0  0  0  0  0  0
   25.1665  -19.9175  -12.5032 C   0  0  0  0  0  0  0  0  0  0  0  0
   24.4849  -18.9703  -11.9986 O   0  0  0  0  0  0  0  0  0  0  0  0
   28.3163  -17.5324  -15.8294 C   0  0  0  0  0  0  0  0  0  0  0  0
   27.1716  -17.8635  -14.9382 C   0  0  0  0  0  0  0  0  0  0  0  0
   25.9075  -18.2749  -15.5714 C   0  0  2  0  0  0  0  0  0  0  0  0
   25.4909  -17.4005  -16.7405 C   0  0  0  0  0  0  0  0  0  0  0  0
   24.8266  -18.7912  -14.7222 C   0  0  2  0  0  0  0  0  0  0  0  0
   25.3427  -19.9229  -13.9000 N   0  0  0  0  0  0  0  0  0  0  0  0
   23.5467  -19.1962  -15.3129 C   0  0  0  0  0  0  0  0  0  0  0  0
   23.4852  -20.2704  -16.0381 O   0  0  0  0  0  0  0  0  0  0  0  0
   22.2865  -18.5586  -15.1969 N   0  0  0  0  0  0  0  0  0  0  0  0
   21.0871  -19.0837  -15.8098 C   0  0  1  0  0  0  0  0  0  0  0  0
   19.8879  -18.9693  -14.8866 C   0  0  0  0  0  0  0  0  0  0  0  0
   18.6478  -19.4830  -15.4790 C   0  0  0  0  0  0  0  0  0  0  0  0
   17.5227  -19.3718  -14.9383 O   0  0  0  0  0  0  0  0  0  0  0  0
   20.7444  -18.3234  -17.0245 C   0  0  0  0  0  0  0  0  0  0  0  0
   20.1061  -18.9316  -18.1134 O   0  0  0  0  0  0  0  0  0  0  0  0
   18.7233  -20.1260  -16.7023 O   0  0  0  0  0  0  0  0  0  0  0  0
   20.9876  -17.1020  -17.1832 O   0  0  0  0  0  0  0  0  0  0  0  0
  2  1  1  1
  2  3  1  0
  4  2  1  0
  4  5  1  0
  5  7  1  0
  5  6  1  6
  7  8  2  0
  9 10  1  0
 10 11  1  0
 11 12  1  1
 13 11  1  0
 14  7  1  0
 13 14  1  6
 15 13  1  0
 15 16  2  0
 17 15  1  0
 18 17  1  0
 18 19  1  1
 20 19  1  0
 20 24  1  0
 21 20  2  0
 22 18  1  0
 22 23  1  0
 25 22  2  0
M  END
$$$$
