LID.pdb
     RDKit          3D

 25 24  0  0  1  0  0  0  0  0999 V2000
   28.5756  -18.6923  -16.5201 C   0  0  0  0  0  0  0  0  0  0  0  0
   27.7358  -19.6865  -17.3314 C   0  0  2  0  0  0  0  0  0  0  0  0
   27.1002  -18.9311  -18.4722 C   0  0  0  0  0  0  0  0  0  0  0  0
   26.6696  -20.1766  -16.4047 C   0  0  0  0  0  0  0  0  0  0  0  0
   27.2397  -20.8565  -15.2112 C   0  0  2  0  0  0  0  0  0  0  0  0
   28.0167  -22.0387  -15.5036 N   0  0  0  0  0  0  0  0  0  0  0  0
   26.1192  -21.2793  -14.3276 C   0  0  0  0  0  0  0  0  0  0  0  0
   25.5727  -22.4058  -14.5480 O   0  0  0  0  0  0  0  0  0  0  0  0
   26.6029  -20.7981   -9.1014 C   0  0  0  0  0  0  0  0  0  0  0  0
   26.2042  -21.2381  -10.4658 C   0  0  0  0  0  0  0  0  0  0  0  0
   24.8953  -20.7937  -10.9735 C   0  0  2  0  0  0  0  0  0  0  0  0
   23.7675  -20.9219   -9.9653 C   0  0  0  0  0  0  0  0  0  0  0  0
   24.5532  -21.0610  -12.3761 C   0  0  2  0  0  0  0  0  0  0  0  0
   25.6216  -20.5103  -13.2584 N   0  0  0  0  0  0  0  0  0  0  0  0
   23.2526  -20.6499  -12.9150 C   0  0  0  0  0  0  0  0  0  0  0  0
   23.0646  -19.4156  -13.2681 O   0  0  0  0  0  0  0  0  0  0  0  0
   22.1013  -21.4474  -13.1313 N   0  0  0  0  0  0  0  0  0  0  0  0
   20.8907  -20.9251  -13.7242 C   0  0  1  0  0  0  0  0  0  0  0  0
   20.4151  -21.7851  -14.8808 C   0  0  0  0  0  0  0  0  0  0  0  0
   21.2510  -21.6595  -16.0801 C   0  0  0  0  0  0  0  0  0  0  0  0
   21.6399  -20.5617  -16.5427 O   0  0  0  0  0  0  0  0  0  0  0  0
   19.7913  -20.9115  -12.7433 C   0  0  0  0  0  0  0  0  0  0  0  0
   18.5856  -20.2472  -13.0037 O   0  0  0  0  0  0  0  0  0  0  0  0
   21.6315  -22.8164  -16.7376 O   0  0  0  0  0  0  0  0  0  0  0  0
   19.8393  -21.4771  -11.6234 O   0  0  0  0  0  0  0  0  0  0  0  0
  2  1  1  1
  2  3  1  0
  4  2  1  0
  4  5  1  0
  5  7  1  0
  5  6  1  6
  7  8  2  0
  9 10  1  0
 10 11  1  0
 11 12  1  1
 13 11  1  0
 14  7  1  0
 13 14  1  6
 15 13  1  0
 15 16  2  0
 17 15  1  0
 18 17  1  0
 18 19  1  6
 20 19  1  0
 20 24  1  0
 21 20  2  0
 22 18  1  0
 22 23  1  0
 25 22  2  0
M  END
$$$$
