LID.pdb
     RDKit          3D

 25 24  0  0  1  0  0  0  0  0999 V2000
   25.1456  -10.6134  -21.2452 C   0  0  0  0  0  0  0  0  0  0  0  0
   23.6869  -10.6814  -21.7138 C   0  0  2  0  0  0  0  0  0  0  0  0
   23.5364   -9.7512  -22.8921 C   0  0  0  0  0  0  0  0  0  0  0  0
   22.8643  -10.1746  -20.5726 C   0  0  0  0  0  0  0  0  0  0  0  0
   22.9998  -11.0328  -19.3654 C   0  0  2  0  0  0  0  0  0  0  0  0
   22.4874  -12.3748  -19.5182 N   0  0  0  0  0  0  0  0  0  0  0  0
   22.2432  -10.4022  -18.2497 C   0  0  0  0  0  0  0  0  0  0  0  0
   20.9809  -10.5508  -18.2203 O   0  0  0  0  0  0  0  0  0  0  0  0
   23.4858  -10.7823  -12.9264 C   0  0  0  0  0  0  0  0  0  0  0  0
   23.4461  -10.1473  -14.2715 C   0  0  0  0  0  0  0  0  0  0  0  0
   22.1392  -10.0448  -14.9420 C   0  0  2  0  0  0  0  0  0  0  0  0
   21.3825  -11.3586  -15.0210 C   0  0  0  0  0  0  0  0  0  0  0  0
   22.0031   -9.1408  -16.0911 C   0  0  2  0  0  0  0  0  0  0  0  0
   22.8358   -9.6477  -17.2192 N   0  0  0  0  0  0  0  0  0  0  0  0
   22.2561   -7.7041  -15.9401 C   0  0  0  0  0  0  0  0  0  0  0  0
   23.4423   -7.2327  -16.1731 O   0  0  0  0  0  0  0  0  0  0  0  0
   21.3429   -6.6875  -15.5647 N   0  0  0  0  0  0  0  0  0  0  0  0
   21.7430   -5.3118  -15.3719 C   0  0  1  0  0  0  0  0  0  0  0  0
   20.7519   -4.3458  -15.9947 C   0  0  0  0  0  0  0  0  0  0  0  0
   21.1209   -2.9374  -15.8128 C   0  0  0  0  0  0  0  0  0  0  0  0
   22.2814   -2.4965  -15.9845 O   0  0  0  0  0  0  0  0  0  0  0  0
   21.7959   -4.9783  -13.9377 C   0  0  0  0  0  0  0  0  0  0  0  0
   22.5236   -3.8770  -13.4682 O   0  0  0  0  0  0  0  0  0  0  0  0
   20.1339   -2.0456  -15.4306 O   0  0  0  0  0  0  0  0  0  0  0  0
   21.2108   -5.6328  -13.0402 O   0  0  0  0  0  0  0  0  0  0  0  0
  2  1  1  1
  2  3  1  0
  4  2  1  0
  4  5  1  0
  5  7  1  0
  5  6  1  6
  7  8  2  0
  9 10  1  0
 10 11  1  0
 11 12  1  6
 13 11  1  0
 14  7  1  0
 13 14  1  6
 15 13  1  0
 15 16  2  0
 17 15  1  0
 18 17  1  0
 18 19  1  6
 20 19  1  0
 20 24  1  0
 21 20  2  0
 22 18  1  0
 22 23  1  0
 25 22  2  0
M  END
$$$$
