LID.pdb
     RDKit          3D

 25 24  0  0  1  0  0  0  0  0999 V2000
   20.6803  -16.2926  -14.1482 C   0  0  0  0  0  0  0  0  0  0  0  0
   21.3366  -16.0492  -15.5127 C   0  0  2  0  0  0  0  0  0  0  0  0
   22.7788  -15.6777  -15.2719 C   0  0  0  0  0  0  0  0  0  0  0  0
   20.6170  -14.8842  -16.1132 C   0  0  0  0  0  0  0  0  0  0  0  0
   19.2036  -15.2121  -16.4400 C   0  0  2  0  0  0  0  0  0  0  0  0
   19.0383  -16.2205  -17.4610 N   0  0  0  0  0  0  0  0  0  0  0  0
   18.5340  -13.9782  -16.9341 C   0  0  0  0  0  0  0  0  0  0  0  0
   18.7393  -13.6244  -18.1379 O   0  0  0  0  0  0  0  0  0  0  0  0
   13.8734  -13.7491  -17.6630 C   0  0  0  0  0  0  0  0  0  0  0  0
   15.0327  -12.8576  -17.9372 C   0  0  0  0  0  0  0  0  0  0  0  0
   15.6115  -12.1185  -16.8027 C   0  0  2  0  0  0  0  0  0  0  0  0
   14.7713  -10.9412  -16.3412 C   0  0  0  0  0  0  0  0  0  0  0  0
   17.0685  -11.9477  -16.7397 C   0  0  2  0  0  0  0  0  0  0  0  0
   17.6841  -13.1723  -16.1527 N   0  0  0  0  0  0  0  0  0  0  0  0
   17.6512  -10.7759  -16.0776 C   0  0  0  0  0  0  0  0  0  0  0  0
   17.7824  -10.7663  -14.7868 O   0  0  0  0  0  0  0  0  0  0  0  0
   18.1318   -9.5821  -16.6710 N   0  0  0  0  0  0  0  0  0  0  0  0
   18.6287   -8.4694  -15.8932 C   0  0  1  0  0  0  0  0  0  0  0  0
   19.5576   -7.5861  -16.7057 C   0  0  0  0  0  0  0  0  0  0  0  0
   20.0384   -6.4135  -15.9662 C   0  0  0  0  0  0  0  0  0  0  0  0
   20.8644   -6.4771  -15.0260 O   0  0  0  0  0  0  0  0  0  0  0  0
   17.5211   -7.6039  -15.4512 C   0  0  0  0  0  0  0  0  0  0  0  0
   17.5508   -6.9524  -14.2113 O   0  0  0  0  0  0  0  0  0  0  0  0
   19.5537   -5.1681  -16.3260 O   0  0  0  0  0  0  0  0  0  0  0  0
   16.4869   -7.3827  -16.1277 O   0  0  0  0  0  0  0  0  0  0  0  0
  2  1  1  1
  2  3  1  0
  4  2  1  0
  4  5  1  0
  5  7  1  0
  5  6  1  6
  7  8  2  0
  9 10  1  0
 10 11  1  0
 11 12  1  6
 13 11  1  0
 14  7  1  0
 13 14  1  1
 15 13  1  0
 15 16  2  0
 17 15  1  0
 18 17  1  0
 18 19  1  6
 20 19  1  0
 20 24  1  0
 21 20  2  0
 22 18  1  0
 22 23  1  0
 25 22  2  0
M  END
$$$$
