LID.pdb
     RDKit          3D

 25 24  0  0  1  0  0  0  0  0999 V2000
   28.6935  -17.5911  -15.4565 C   0  0  0  0  0  0  0  0  0  0  0  0
   27.7466  -18.3002  -16.4326 C   0  0  2  0  0  0  0  0  0  0  0  0
   26.9899  -17.2403  -17.1942 C   0  0  0  0  0  0  0  0  0  0  0  0
   26.7924  -19.0806  -15.5863 C   0  0  0  0  0  0  0  0  0  0  0  0
   27.4943  -20.0669  -14.7222 C   0  0  2  0  0  0  0  0  0  0  0  0
   28.1237  -21.1541  -15.4353 N   0  0  0  0  0  0  0  0  0  0  0  0
   26.5017  -20.6722  -13.7931 C   0  0  0  0  0  0  0  0  0  0  0  0
   25.9457  -21.7631  -14.1356 O   0  0  0  0  0  0  0  0  0  0  0  0
   27.0001  -20.3806   -8.3947 C   0  0  0  0  0  0  0  0  0  0  0  0
   26.6757  -20.8391   -9.7726 C   0  0  0  0  0  0  0  0  0  0  0  0
   25.3436  -20.5109  -10.3077 C   0  0  2  0  0  0  0  0  0  0  0  0
   24.2057  -20.7920   -9.3427 C   0  0  0  0  0  0  0  0  0  0  0  0
   25.0724  -20.7576  -11.7295 C   0  0  2  0  0  0  0  0  0  0  0  0
   26.1353  -20.1139  -12.5536 N   0  0  0  0  0  0  0  0  0  0  0  0
   23.7691  -20.4143  -12.3077 C   0  0  0  0  0  0  0  0  0  0  0  0
   23.4419  -19.1679  -12.4596 O   0  0  0  0  0  0  0  0  0  0  0  0
   22.7534  -21.2912  -12.7631 N   0  0  0  0  0  0  0  0  0  0  0  0
   21.5337  -20.8192  -13.3792 C   0  0  1  0  0  0  0  0  0  0  0  0
   21.2411  -21.5488  -14.6775 C   0  0  0  0  0  0  0  0  0  0  0  0
   21.0674  -20.6487  -15.8232 C   0  0  0  0  0  0  0  0  0  0  0  0
   21.1600  -19.4013  -15.7456 O   0  0  0  0  0  0  0  0  0  0  0  0
   20.3758  -21.0628  -12.5012 C   0  0  0  0  0  0  0  0  0  0  0  0
   19.1601  -20.3923  -12.6893 O   0  0  0  0  0  0  0  0  0  0  0  0
   20.7858  -21.2067  -17.0580 O   0  0  0  0  0  0  0  0  0  0  0  0
   20.3791  -21.8681  -11.5380 O   0  0  0  0  0  0  0  0  0  0  0  0
  2  1  1  1
  2  3  1  0
  4  2  1  0
  4  5  1  0
  5  7  1  0
  5  6  1  6
  7  8  2  0
  9 10  1  0
 10 11  1  0
 11 12  1  1
 13 11  1  0
 14  7  1  0
 13 14  1  6
 15 13  1  0
 15 16  2  0
 17 15  1  0
 18 17  1  0
 18 19  1  6
 20 19  1  0
 20 24  1  0
 21 20  2  0
 22 18  1  0
 22 23  1  0
 25 22  2  0
M  END
$$$$
