LID.pdb
     RDKit          3D

 25 24  0  0  1  0  0  0  0  0999 V2000
   21.4229   -9.3937  -11.3918 C   0  0  0  0  0  0  0  0  0  0  0  0
   20.8292   -9.0764  -12.7697 C   0  0  2  0  0  0  0  0  0  0  0  0
   21.6591   -7.9789  -13.3885 C   0  0  0  0  0  0  0  0  0  0  0  0
   19.4458   -8.5697  -12.5148 C   0  0  0  0  0  0  0  0  0  0  0  0
   18.5579   -9.6292  -11.9663 C   0  0  2  0  0  0  0  0  0  0  0  0
   18.2984  -10.7266  -12.8692 N   0  0  0  0  0  0  0  0  0  0  0  0
   17.2421   -9.0183  -11.6340 C   0  0  0  0  0  0  0  0  0  0  0  0
   16.4336   -8.7787  -12.5855 O   0  0  0  0  0  0  0  0  0  0  0  0
   13.3063  -11.0566   -9.2543 C   0  0  0  0  0  0  0  0  0  0  0  0
   14.1719  -10.1336  -10.0373 C   0  0  0  0  0  0  0  0  0  0  0  0
   14.6205   -8.8939   -9.3814 C   0  0  2  0  0  0  0  0  0  0  0  0
   13.5575   -8.2313   -8.5236 C   0  0  0  0  0  0  0  0  0  0  0  0
   15.5272   -7.9972  -10.1092 C   0  0  2  0  0  0  0  0  0  0  0  0
   16.8312   -8.6860  -10.3290 N   0  0  0  0  0  0  0  0  0  0  0  0
   15.7980   -6.6464   -9.6063 C   0  0  0  0  0  0  0  0  0  0  0  0
   16.6025   -6.4843   -8.6013 O   0  0  0  0  0  0  0  0  0  0  0  0
   15.2908   -5.4136  -10.0872 N   0  0  0  0  0  0  0  0  0  0  0  0
   15.6390   -4.1421   -9.4939 C   0  0  1  0  0  0  0  0  0  0  0  0
   15.8592   -3.0719  -10.5472 C   0  0  0  0  0  0  0  0  0  0  0  0
   16.0458   -1.7307   -9.9823 C   0  0  0  0  0  0  0  0  0  0  0  0
   16.0994   -1.4973   -8.7522 O   0  0  0  0  0  0  0  0  0  0  0  0
   14.5497   -3.6516   -8.6313 C   0  0  0  0  0  0  0  0  0  0  0  0
   14.8118   -2.9221   -7.4643 O   0  0  0  0  0  0  0  0  0  0  0  0
   16.1695   -0.6636  -10.8550 O   0  0  0  0  0  0  0  0  0  0  0  0
   13.3299   -3.8396   -8.8614 O   0  0  0  0  0  0  0  0  0  0  0  0
  2  1  1  1
  2  3  1  0
  4  2  1  0
  4  5  1  0
  5  7  1  0
  5  6  1  6
  7  8  2  0
  9 10  1  0
 10 11  1  0
 11 12  1  6
 13 11  1  0
 14  7  1  0
 13 14  1  1
 15 13  1  0
 15 16  2  0
 17 15  1  0
 18 17  1  0
 18 19  1  6
 20 19  1  0
 20 24  1  0
 21 20  2  0
 22 18  1  0
 22 23  1  0
 25 22  2  0
M  END
$$$$
