LID.pdb
     RDKit          3D

 25 24  0  0  1  0  0  0  0  0999 V2000
   21.8085  -22.3112  -11.7695 C   0  0  0  0  0  0  0  0  0  0  0  0
   21.6839  -21.3074  -10.6167 C   0  0  2  0  0  0  0  0  0  0  0  0
   20.3602  -20.5985  -10.7625 C   0  0  0  0  0  0  0  0  0  0  0  0
   22.7964  -20.3260  -10.8039 C   0  0  0  0  0  0  0  0  0  0  0  0
   24.1297  -20.9843  -10.7724 C   0  0  2  0  0  0  0  0  0  0  0  0
   24.7414  -21.0467   -9.4652 N   0  0  0  0  0  0  0  0  0  0  0  0
   25.0559  -20.2188  -11.6505 C   0  0  0  0  0  0  0  0  0  0  0  0
   25.3485  -19.0264  -11.3204 O   0  0  0  0  0  0  0  0  0  0  0  0
   29.8600  -20.7329  -12.0775 C   0  0  0  0  0  0  0  0  0  0  0  0
   28.4435  -20.2943  -12.2021 C   0  0  0  0  0  0  0  0  0  0  0  0
   27.8725  -20.2001  -13.5561 C   0  0  2  0  0  0  0  0  0  0  0  0
   28.8249  -19.6226  -14.5878 C   0  0  0  0  0  0  0  0  0  0  0  0
   26.4552  -19.8454  -13.7026 C   0  0  2  0  0  0  0  0  0  0  0  0
   25.6322  -20.7301  -12.8290 N   0  0  0  0  0  0  0  0  0  0  0  0
   25.8338  -19.8009  -15.0303 C   0  0  0  0  0  0  0  0  0  0  0  0
   25.6028  -20.9066  -15.6689 O   0  0  0  0  0  0  0  0  0  0  0  0
   25.4120  -18.6639  -15.7634 N   0  0  0  0  0  0  0  0  0  0  0  0
   24.8248  -18.7590  -17.0811 C   0  0  1  0  0  0  0  0  0  0  0  0
   23.5214  -17.9868  -17.1726 C   0  0  0  0  0  0  0  0  0  0  0  0
   22.4460  -18.5640  -16.3583 C   0  0  0  0  0  0  0  0  0  0  0  0
   22.2596  -19.7964  -16.2279 O   0  0  0  0  0  0  0  0  0  0  0  0
   25.7198  -18.1760  -18.0960 C   0  0  0  0  0  0  0  0  0  0  0  0
   25.5767  -18.4752  -19.4572 O   0  0  0  0  0  0  0  0  0  0  0  0
   21.5895  -17.7010  -15.6971 O   0  0  0  0  0  0  0  0  0  0  0  0
   26.6592  -17.3847  -17.8359 O   0  0  0  0  0  0  0  0  0  0  0  0
  2  1  1  6
  2  3  1  0
  4  2  1  0
  4  5  1  0
  5  7  1  0
  5  6  1  1
  7  8  2  0
  9 10  1  0
 10 11  1  0
 11 12  1  6
 13 11  1  0
 14  7  1  0
 13 14  1  1
 15 13  1  0
 15 16  2  0
 17 15  1  0
 18 17  1  0
 18 19  1  1
 20 19  1  0
 20 24  1  0
 21 20  2  0
 22 18  1  0
 22 23  1  0
 25 22  2  0
M  END
$$$$
