LID.pdb
     RDKit          3D

 25 24  0  0  1  0  0  0  0  0999 V2000
   16.3110  -10.5892  -19.8237 C   0  0  0  0  0  0  0  0  0  0  0  0
   17.0979  -11.6929  -19.1065 C   0  0  2  0  0  0  0  0  0  0  0  0
   16.1440  -12.8244  -18.8135 C   0  0  0  0  0  0  0  0  0  0  0  0
   17.5678  -11.0934  -17.8198 C   0  0  0  0  0  0  0  0  0  0  0  0
   18.8039  -11.7513  -17.3186 C   0  0  2  0  0  0  0  0  0  0  0  0
   18.5927  -13.0360  -16.6927 N   0  0  0  0  0  0  0  0  0  0  0  0
   19.4296  -10.8671  -16.2979 C   0  0  0  0  0  0  0  0  0  0  0  0
   18.9091  -10.8261  -15.1387 O   0  0  0  0  0  0  0  0  0  0  0  0
   24.0159  -11.5966  -14.4352 C   0  0  0  0  0  0  0  0  0  0  0  0
   22.6325  -11.1084  -14.6841 C   0  0  0  0  0  0  0  0  0  0  0  0
   22.4649   -9.7023  -15.0880 C   0  0  2  0  0  0  0  0  0  0  0  0
   23.3535   -8.7331  -14.3291 C   0  0  0  0  0  0  0  0  0  0  0  0
   21.1220   -9.2226  -15.4381 C   0  0  2  0  0  0  0  0  0  0  0  0
   20.5653  -10.0688  -16.5323 N   0  0  0  0  0  0  0  0  0  0  0  0
   20.9035   -7.8149  -15.7870 C   0  0  0  0  0  0  0  0  0  0  0  0
   21.3466   -7.3569  -16.9173 O   0  0  0  0  0  0  0  0  0  0  0  0
   20.2316   -6.8192  -15.0351 N   0  0  0  0  0  0  0  0  0  0  0  0
   20.1286   -5.4460  -15.4752 C   0  0  1  0  0  0  0  0  0  0  0  0
   18.7734   -4.8494  -15.1423 C   0  0  0  0  0  0  0  0  0  0  0  0
   18.6799   -3.4164  -15.4432 C   0  0  0  0  0  0  0  0  0  0  0  0
   18.9448   -2.9243  -16.5649 O   0  0  0  0  0  0  0  0  0  0  0  0
   21.1270   -4.6024  -14.7952 C   0  0  0  0  0  0  0  0  0  0  0  0
   21.8708   -5.0798  -13.7081 O   0  0  0  0  0  0  0  0  0  0  0  0
   18.2771   -2.5598  -14.4335 O   0  0  0  0  0  0  0  0  0  0  0  0
   21.3891   -3.4188  -15.1219 O   0  0  0  0  0  0  0  0  0  0  0  0
  2  1  1  6
  2  3  1  0
  4  2  1  0
  4  5  1  0
  5  7  1  0
  5  6  1  1
  7  8  2  0
  9 10  1  0
 10 11  1  0
 11 12  1  1
 13 11  1  0
 14  7  1  0
 13 14  1  6
 15 13  1  0
 15 16  2  0
 17 15  1  0
 18 17  1  0
 18 19  1  1
 20 19  1  0
 20 24  1  0
 21 20  2  0
 22 18  1  0
 22 23  1  0
 25 22  2  0
M  END
$$$$
