FGV.pdb
     RDKit          3D

 23 23  0  0  1  0  0  0  0  0999 V2000
   25.8489  -20.6824   -7.3419 N   0  0  0  0  0  0  0  0  0  0  0  0
   26.8299  -20.0629   -8.2092 C   0  0  1  0  0  0  0  0  0  0  0  0
   28.1972  -20.5260   -7.7948 C   0  0  0  0  0  0  0  0  0  0  0  0
   28.6140  -20.0367   -6.4719 C   0  0  0  0  0  0  0  0  0  0  0  0
   29.3079  -20.8456   -5.6087 C   0  0  0  0  0  0  0  0  0  0  0  0
   29.7050  -20.3960   -4.3596 C   0  0  0  0  0  0  0  0  0  0  0  0
   29.3903  -19.1081   -3.9892 C   0  0  0  0  0  0  0  0  0  0  0  0
   28.6965  -18.2753   -4.8325 C   0  0  0  0  0  0  0  0  0  0  0  0
   28.3123  -18.7570   -6.0796 C   0  0  0  0  0  0  0  0  0  0  0  0
   26.5510  -20.4431   -9.5975 C   0  0  0  0  0  0  0  0  0  0  0  0
   27.2233  -20.0277  -10.5955 O   0  0  0  0  0  0  0  0  0  0  0  0
   25.4749  -21.3318   -9.9382 N   0  0  0  0  0  0  0  0  0  0  0  0
   25.1151  -21.6126  -11.2888 C   0  0  0  0  0  0  0  0  0  0  0  0
   24.0267  -20.7963  -11.8139 C   0  0  0  0  0  0  0  0  0  0  0  0
   23.6326  -19.7921  -11.1873 O   0  0  0  0  0  0  0  0  0  0  0  0
   23.8920  -19.3965  -15.3420 C   0  0  0  0  0  0  0  0  0  0  0  0
   22.6053  -20.1557  -15.0978 C   0  0  1  0  0  0  0  0  0  0  0  0
   22.7119  -21.4766  -15.7978 C   0  0  0  0  0  0  0  0  0  0  0  0
   22.3360  -20.3283  -13.6202 C   0  0  2  0  0  0  0  0  0  0  0  0
   23.3993  -21.1228  -13.0355 N   0  0  0  0  0  0  0  0  0  0  0  0
   21.0583  -21.0280  -13.3549 C   0  0  0  0  0  0  0  0  0  0  0  0
   19.8699  -20.3279  -13.3859 O   0  0  0  0  0  0  0  0  0  0  0  0
   20.9992  -22.2600  -13.0959 O   0  0  0  0  0  0  0  0  0  0  0  0
  2  1  1  1
  3  2  1  0
  4  3  1  0
  5  4  2  0
  6  5  1  0
  7  8  1  0
  7  6  2  0
  8  9  2  0
  9  4  1  0
 10  2  1  0
 10 12  1  0
 11 10  2  0
 13 12  1  0
 13 14  1  0
 14 15  2  0
 14 20  1  0
 17 18  1  6
 17 16  1  0
 19 17  1  0
 19 20  1  6
 21 19  1  0
 21 22  1  0
 23 21  2  0
M  END
$$$$
