FGV.pdb
     RDKit          3D

 23 23  0  0  1  0  0  0  0  0999 V2000
   16.0951  -19.4333    2.7188 N   0  0  0  0  0  0  0  0  0  0  0  0
   17.3661  -18.7431    2.8007 C   0  0  1  0  0  0  0  0  0  0  0  0
   17.4548  -17.7646    1.6648 C   0  0  0  0  0  0  0  0  0  0  0  0
   18.7578  -17.0899    1.5628 C   0  0  0  0  0  0  0  0  0  0  0  0
   18.9065  -15.7835    1.9527 C   0  0  0  0  0  0  0  0  0  0  0  0
   20.1287  -15.1373    1.8605 C   0  0  0  0  0  0  0  0  0  0  0  0
   21.2090  -15.8323    1.3655 C   0  0  0  0  0  0  0  0  0  0  0  0
   21.0901  -17.1413    0.9675 C   0  0  0  0  0  0  0  0  0  0  0  0
   19.8493  -17.7614    1.0728 C   0  0  0  0  0  0  0  0  0  0  0  0
   17.4541  -18.0514    4.0905 C   0  0  0  0  0  0  0  0  0  0  0  0
   16.5193  -17.3380    4.5781 O   0  0  0  0  0  0  0  0  0  0  0  0
   18.6280  -18.1314    4.9148 N   0  0  0  0  0  0  0  0  0  0  0  0
   18.7518  -17.4117    6.1392 C   0  0  0  0  0  0  0  0  0  0  0  0
   19.9868  -17.6620    6.8732 C   0  0  0  0  0  0  0  0  0  0  0  0
   20.7448  -18.5926    6.5334 O   0  0  0  0  0  0  0  0  0  0  0  0
   21.1338  -15.1651   10.3114 C   0  0  0  0  0  0  0  0  0  0  0  0
   22.0464  -15.6777    9.2178 C   0  0  1  0  0  0  0  0  0  0  0  0
   23.4378  -15.7367    9.7713 C   0  0  0  0  0  0  0  0  0  0  0  0
   21.5932  -17.0258    8.7049 C   0  0  2  0  0  0  0  0  0  0  0  0
   20.3490  -16.8611    7.9778 N   0  0  0  0  0  0  0  0  0  0  0  0
   21.3469  -17.9943    9.7976 C   0  0  0  0  0  0  0  0  0  0  0  0
   22.3307  -18.8922   10.1572 O   0  0  0  0  0  0  0  0  0  0  0  0
   20.2585  -18.0416   10.4311 O   0  0  0  0  0  0  0  0  0  0  0  0
  2  1  1  1
  3  2  1  0
  4  3  1  0
  5  4  2  0
  6  5  1  0
  7  8  1  0
  7  6  2  0
  8  9  2  0
  9  4  1  0
 10  2  1  0
 10 12  1  0
 11 10  2  0
 13 12  1  0
 13 14  1  0
 14 15  2  0
 14 20  1  0
 17 18  1  1
 17 16  1  0
 19 17  1  0
 19 20  1  1
 21 19  1  0
 21 22  1  0
 23 21  2  0
M  END
$$$$
