FGV.pdb
     RDKit          3D

 23 23  0  0  1  0  0  0  0  0999 V2000
   27.5993  -21.5772  -12.9061 N   0  0  0  0  0  0  0  0  0  0  0  0
   27.4624  -21.5794  -11.4640 C   0  0  1  0  0  0  0  0  0  0  0  0
   28.0649  -20.3145  -10.9230 C   0  0  0  0  0  0  0  0  0  0  0  0
   28.0403  -20.2259   -9.4550 C   0  0  0  0  0  0  0  0  0  0  0  0
   29.0324  -20.7955   -8.6986 C   0  0  0  0  0  0  0  0  0  0  0  0
   29.0194  -20.7192   -7.3152 C   0  0  0  0  0  0  0  0  0  0  0  0
   27.9832  -20.0548   -6.6989 C   0  0  0  0  0  0  0  0  0  0  0  0
   26.9760  -19.4747   -7.4302 C   0  0  0  0  0  0  0  0  0  0  0  0
   27.0182  -19.5691   -8.8175 C   0  0  0  0  0  0  0  0  0  0  0  0
   26.0406  -21.6674  -11.1172 C   0  0  0  0  0  0  0  0  0  0  0  0
   25.5920  -22.3251  -10.1239 O   0  0  0  0  0  0  0  0  0  0  0  0
   25.0292  -21.0025  -11.8912 N   0  0  0  0  0  0  0  0  0  0  0  0
   23.6552  -21.0000  -11.5109 C   0  0  0  0  0  0  0  0  0  0  0  0
   22.7346  -20.5499  -12.5485 C   0  0  0  0  0  0  0  0  0  0  0  0
   22.8498  -19.4103  -13.0428 O   0  0  0  0  0  0  0  0  0  0  0  0
   22.1505  -22.2055  -15.7873 C   0  0  0  0  0  0  0  0  0  0  0  0
   20.7888  -22.0792  -15.1380 C   0  0  1  0  0  0  0  0  0  0  0  0
   20.4210  -23.4200  -14.5785 C   0  0  0  0  0  0  0  0  0  0  0  0
   20.7817  -21.0089  -14.0702 C   0  0  2  0  0  0  0  0  0  0  0  0
   21.6992  -21.3893  -13.0133 N   0  0  0  0  0  0  0  0  0  0  0  0
   19.4456  -20.8281  -13.4579 C   0  0  0  0  0  0  0  0  0  0  0  0
   18.4473  -20.1847  -14.1600 O   0  0  0  0  0  0  0  0  0  0  0  0
   19.1669  -21.2417  -12.3006 O   0  0  0  0  0  0  0  0  0  0  0  0
  2  1  1  6
  3  2  1  0
  4  3  1  0
  5  4  2  0
  6  5  1  0
  7  8  1  0
  7  6  2  0
  8  9  2  0
  9  4  1  0
 10  2  1  0
 10 12  1  0
 11 10  2  0
 13 12  1  0
 13 14  1  0
 14 15  2  0
 14 20  1  0
 17 18  1  1
 17 16  1  0
 19 17  1  0
 19 20  1  1
 21 19  1  0
 21 22  1  0
 23 21  2  0
M  END
$$$$
