FGV.pdb
     RDKit          3D

 23 23  0  0  1  0  0  0  0  0999 V2000
   28.2486  -21.0241   -9.0400 N   0  0  0  0  0  0  0  0  0  0  0  0
   26.9650  -20.5852   -8.5320 C   0  0  1  0  0  0  0  0  0  0  0  0
   27.1765  -19.3626   -7.6857 C   0  0  0  0  0  0  0  0  0  0  0  0
   27.8618  -19.6331   -6.4127 C   0  0  0  0  0  0  0  0  0  0  0  0
   27.1489  -19.8431   -5.2602 C   0  0  0  0  0  0  0  0  0  0  0  0
   27.7835  -20.0980   -4.0551 C   0  0  0  0  0  0  0  0  0  0  0  0
   29.1592  -20.1387   -4.0274 C   0  0  0  0  0  0  0  0  0  0  0  0
   29.8995  -19.9323   -5.1655 C   0  0  0  0  0  0  0  0  0  0  0  0
   29.2321  -19.6788   -6.3595 C   0  0  0  0  0  0  0  0  0  0  0  0
   26.0782  -20.2885   -9.6612 C   0  0  0  0  0  0  0  0  0  0  0  0
   26.3644  -19.4680  -10.5915 O   0  0  0  0  0  0  0  0  0  0  0  0
   24.7940  -20.9169   -9.8017 N   0  0  0  0  0  0  0  0  0  0  0  0
   23.6143  -20.1812  -10.1172 C   0  0  0  0  0  0  0  0  0  0  0  0
   23.2958  -20.1170  -11.5389 C   0  0  0  0  0  0  0  0  0  0  0  0
   22.2638  -19.5343  -11.9284 O   0  0  0  0  0  0  0  0  0  0  0  0
   25.7983  -22.2368  -14.2945 C   0  0  0  0  0  0  0  0  0  0  0  0
   25.1521  -20.9234  -14.6804 C   0  0  1  0  0  0  0  0  0  0  0  0
   24.9258  -20.9409  -16.1618 C   0  0  0  0  0  0  0  0  0  0  0  0
   23.8637  -20.6964  -13.9226 C   0  0  2  0  0  0  0  0  0  0  0  0
   24.1435  -20.7097  -12.4996 N   0  0  0  0  0  0  0  0  0  0  0  0
   22.8564  -21.7485  -14.1894 C   0  0  0  0  0  0  0  0  0  0  0  0
   21.7831  -21.4816  -15.0142 O   0  0  0  0  0  0  0  0  0  0  0  0
   22.9310  -22.9030  -13.6896 O   0  0  0  0  0  0  0  0  0  0  0  0
  2  1  1  6
  3  2  1  0
  4  3  1  0
  5  4  2  0
  6  5  1  0
  7  8  1  0
  7  6  2  0
  8  9  2  0
  9  4  1  0
 10  2  1  0
 10 12  1  0
 11 10  2  0
 13 12  1  0
 13 14  1  0
 14 15  2  0
 14 20  1  0
 17 18  1  6
 17 16  1  0
 19 17  1  0
 19 20  1  1
 21 19  1  0
 21 22  1  0
 23 21  2  0
M  END
$$$$
