FGV.pdb
     RDKit          3D

 23 23  0  0  1  0  0  0  0  0999 V2000
   25.1056  -20.6695   -7.6566 N   0  0  0  0  0  0  0  0  0  0  0  0
   26.2202  -20.2349   -8.4733 C   0  0  1  0  0  0  0  0  0  0  0  0
   27.4908  -20.7626   -7.8710 C   0  0  0  0  0  0  0  0  0  0  0  0
   27.8863  -20.0817   -6.6287 C   0  0  0  0  0  0  0  0  0  0  0  0
   28.0324  -20.7813   -5.4582 C   0  0  0  0  0  0  0  0  0  0  0  0
   28.4037  -20.1505   -4.2817 C   0  0  0  0  0  0  0  0  0  0  0  0
   28.6279  -18.7924   -4.3013 C   0  0  0  0  0  0  0  0  0  0  0  0
   28.4895  -18.0658   -5.4584 C   0  0  0  0  0  0  0  0  0  0  0  0
   28.1154  -18.7289   -6.6227 C   0  0  0  0  0  0  0  0  0  0  0  0
   26.0419  -20.7421   -9.8373 C   0  0  0  0  0  0  0  0  0  0  0  0
   25.5196  -21.8700  -10.1122 O   0  0  0  0  0  0  0  0  0  0  0  0
   26.4532  -19.9852  -10.9871 N   0  0  0  0  0  0  0  0  0  0  0  0
   26.3816  -20.5085  -12.3113 C   0  0  0  0  0  0  0  0  0  0  0  0
   25.1608  -20.1741  -13.0356 C   0  0  0  0  0  0  0  0  0  0  0  0
   25.2051  -19.4318  -14.0372 O   0  0  0  0  0  0  0  0  0  0  0  0
   23.1642  -22.3940  -14.8080 C   0  0  0  0  0  0  0  0  0  0  0  0
   22.1533  -21.7373  -13.8924 C   0  0  1  0  0  0  0  0  0  0  0  0
   21.8252  -22.7087  -12.7993 C   0  0  0  0  0  0  0  0  0  0  0  0
   22.6744  -20.4306  -13.3386 C   0  0  2  0  0  0  0  0  0  0  0  0
   23.9099  -20.6803  -12.6213 N   0  0  0  0  0  0  0  0  0  0  0  0
   21.7278  -19.7989  -12.3912 C   0  0  0  0  0  0  0  0  0  0  0  0
   20.6357  -19.1042  -12.8686 O   0  0  0  0  0  0  0  0  0  0  0  0
   21.8722  -19.8649  -11.1410 O   0  0  0  0  0  0  0  0  0  0  0  0
  2  1  1  1
  3  2  1  0
  4  3  1  0
  5  4  2  0
  6  5  1  0
  7  8  1  0
  7  6  2  0
  8  9  2  0
  9  4  1  0
 10  2  1  0
 10 12  1  0
 11 10  2  0
 13 12  1  0
 13 14  1  0
 14 15  2  0
 14 20  1  0
 17 18  1  1
 17 16  1  0
 19 17  1  0
 19 20  1  1
 21 19  1  0
 21 22  1  0
 23 21  2  0
M  END
$$$$
