FGV.pdb
     RDKit          3D

 23 23  0  0  1  0  0  0  0  0999 V2000
   21.6828  -18.7332  -18.6640 N   0  0  0  0  0  0  0  0  0  0  0  0
   21.9043  -17.3503  -18.2939 C   0  0  1  0  0  0  0  0  0  0  0  0
   20.5805  -16.6412  -18.2735 C   0  0  0  0  0  0  0  0  0  0  0  0
   19.9096  -16.5990  -19.5818 C   0  0  0  0  0  0  0  0  0  0  0  0
   20.1462  -15.5739  -20.4615 C   0  0  0  0  0  0  0  0  0  0  0  0
   19.5194  -15.5231  -21.6962 C   0  0  0  0  0  0  0  0  0  0  0  0
   18.6428  -16.5289  -22.0352 C   0  0  0  0  0  0  0  0  0  0  0  0
   18.3863  -17.5680  -21.1747 C   0  0  0  0  0  0  0  0  0  0  0  0
   19.0317  -17.5898  -19.9426 C   0  0  0  0  0  0  0  0  0  0  0  0
   22.5395  -17.3031  -16.9733 C   0  0  0  0  0  0  0  0  0  0  0  0
   22.8122  -16.2240  -16.3555 O   0  0  0  0  0  0  0  0  0  0  0  0
   22.9076  -18.4983  -16.2663 N   0  0  0  0  0  0  0  0  0  0  0  0
   23.5402  -18.4657  -14.9890 C   0  0  0  0  0  0  0  0  0  0  0  0
   23.7509  -19.7728  -14.3777 C   0  0  0  0  0  0  0  0  0  0  0  0
   23.3735  -20.8095  -14.9599 O   0  0  0  0  0  0  0  0  0  0  0  0
   25.3767  -19.9926  -10.4074 C   0  0  0  0  0  0  0  0  0  0  0  0
   25.7920  -20.9698  -11.4863 C   0  0  1  0  0  0  0  0  0  0  0  0
   26.1660  -22.2586  -10.8191 C   0  0  0  0  0  0  0  0  0  0  0  0
   24.6936  -21.1686  -12.5060 C   0  0  2  0  0  0  0  0  0  0  0  0
   24.3828  -19.8924  -13.1211 N   0  0  0  0  0  0  0  0  0  0  0  0
   23.4459  -21.6883  -11.9011 C   0  0  0  0  0  0  0  0  0  0  0  0
   23.2197  -23.0482  -11.8492 O   0  0  0  0  0  0  0  0  0  0  0  0
   22.5587  -20.9338  -11.4195 O   0  0  0  0  0  0  0  0  0  0  0  0
  2  1  1  1
  3  2  1  0
  4  3  1  0
  5  4  2  0
  6  5  1  0
  7  8  1  0
  7  6  2  0
  8  9  2  0
  9  4  1  0
 10  2  1  0
 10 12  1  0
 11 10  2  0
 13 12  1  0
 13 14  1  0
 14 15  2  0
 14 20  1  0
 17 18  1  1
 17 16  1  0
 19 17  1  0
 19 20  1  1
 21 19  1  0
 21 22  1  0
 23 21  2  0
M  END
$$$$
