DSC.pdb
     RDKit          3D

 21 20  0  0  1  0  0  0  0  0999 V2000
   11.9531  -18.8425   21.7883 N   0  0  0  0  0  0  0  0  0  0  0  0
   12.5454  -17.5316   21.9284 C   0  0  1  0  0  0  0  0  0  0  0  0
   12.5951  -16.8493   20.6006 C   0  0  0  0  0  0  0  0  0  0  0  0
   13.8169  -17.2003   19.8593 C   0  0  0  0  0  0  0  0  0  0  0  0
   13.9525  -16.8064   18.6830 O   0  0  0  0  0  0  0  0  0  0  0  0
   11.7415  -16.7516   22.9127 C   0  0  0  0  0  0  0  0  0  0  0  0
   12.1407  -15.5738   23.1960 O   0  0  0  0  0  0  0  0  0  0  0  0
   14.8125  -17.9583   20.4470 O   0  0  0  0  0  0  0  0  0  0  0  0
    8.5247  -18.4546   25.0800 O   0  0  0  0  0  0  0  0  0  0  0  0
    8.4149  -17.1588   24.5798 C   0  0  0  0  0  0  0  0  0  0  0  0
    9.7943  -16.5592   24.4535 C   0  0  2  0  0  0  0  0  0  0  0  0
   10.5801  -17.3080   23.5053 N   0  0  0  0  0  0  0  0  0  0  0  0
   10.5084  -16.4824   25.7261 C   0  0  0  0  0  0  0  0  0  0  0  0
   11.5038  -17.1910   26.0314 O   0  0  0  0  0  0  0  0  0  0  0  0
   10.0809  -15.5575   26.7127 N   0  0  0  0  0  0  0  0  0  0  0  0
   10.7509  -15.4786   27.9936 C   0  0  1  0  0  0  0  0  0  0  0  0
   10.2105  -14.2557   28.7034 C   0  0  0  0  0  0  0  0  0  0  0  0
   10.0526  -12.8614   27.5518 S   0  0  0  0  0  0  0  0  0  0  0  0
   10.4695  -16.6471   28.8462 C   0  0  0  0  0  0  0  0  0  0  0  0
   11.0121  -16.8575   29.9598 O   0  0  0  0  0  0  0  0  0  0  0  0
    9.5457  -17.5755   28.3908 O   0  0  0  0  0  0  0  0  0  0  0  0
  2  1  1  6
  2  3  1  0
  3  4  1  0
  4  8  1  0
  4  5  2  0
  6  2  1  0
  7  6  2  0
 10  9  1  0
 11 10  1  1
 11 12  1  0
 12  6  1  0
 13 11  1  0
 13 15  1  0
 14 13  2  0
 16 15  1  0
 16 19  1  0
 16 17  1  1
 18 17  1  0
 19 21  1  0
 20 19  2  0
M  END
$$$$
