DSC.pdb
     RDKit          3D

 21 20  0  0  1  0  0  0  0  0999 V2000
   12.0394  -16.0422   18.3120 N   0  0  0  0  0  0  0  0  0  0  0  0
   12.3447  -15.6614   19.6725 C   0  0  1  0  0  0  0  0  0  0  0  0
   13.1725  -14.4182   19.6811 C   0  0  0  0  0  0  0  0  0  0  0  0
   14.5384  -14.6764   19.1980 C   0  0  0  0  0  0  0  0  0  0  0  0
   15.1694  -15.6561   19.6440 O   0  0  0  0  0  0  0  0  0  0  0  0
   11.0627  -15.4682   20.4090 C   0  0  0  0  0  0  0  0  0  0  0  0
   10.1987  -14.6862   19.8904 O   0  0  0  0  0  0  0  0  0  0  0  0
   15.1292  -13.8501   18.2602 O   0  0  0  0  0  0  0  0  0  0  0  0
    9.6360  -18.1941   23.1468 O   0  0  0  0  0  0  0  0  0  0  0  0
    8.8511  -17.2876   22.4371 C   0  0  0  0  0  0  0  0  0  0  0  0
    9.5793  -15.9687   22.3460 C   0  0  2  0  0  0  0  0  0  0  0  0
   10.8241  -16.1327   21.6383 N   0  0  0  0  0  0  0  0  0  0  0  0
    9.8358  -15.3603   23.6496 C   0  0  0  0  0  0  0  0  0  0  0  0
   10.9306  -15.4295   24.2681 O   0  0  0  0  0  0  0  0  0  0  0  0
    8.8043  -14.6326   24.2962 N   0  0  0  0  0  0  0  0  0  0  0  0
    8.9774  -14.1458   25.6486 C   0  0  1  0  0  0  0  0  0  0  0  0
    7.8475  -13.1757   25.9200 C   0  0  0  0  0  0  0  0  0  0  0  0
    7.9607  -12.5125   27.6060 S   0  0  0  0  0  0  0  0  0  0  0  0
    8.8859  -15.2244   26.6486 C   0  0  0  0  0  0  0  0  0  0  0  0
    8.1102  -16.2087   26.5586 O   0  0  0  0  0  0  0  0  0  0  0  0
    9.7094  -15.1491   27.7617 O   0  0  0  0  0  0  0  0  0  0  0  0
  2  1  1  6
  2  3  1  0
  3  4  1  0
  4  8  1  0
  4  5  2  0
  6  2  1  0
  7  6  2  0
 10  9  1  0
 11 10  1  1
 11 12  1  0
 12  6  1  0
 13 11  1  0
 13 15  1  0
 14 13  2  0
 16 15  1  0
 16 19  1  0
 16 17  1  1
 18 17  1  0
 19 21  1  0
 20 19  2  0
M  END
$$$$
