DSC.pdb
     RDKit          3D

 21 20  0  0  1  0  0  0  0  0999 V2000
   10.2813  -18.4701   20.2065 N   0  0  0  0  0  0  0  0  0  0  0  0
   10.6919  -17.6948   21.3551 C   0  0  1  0  0  0  0  0  0  0  0  0
   11.6508  -16.6292   20.9355 C   0  0  0  0  0  0  0  0  0  0  0  0
   13.0072  -17.1680   20.7472 C   0  0  0  0  0  0  0  0  0  0  0  0
   13.2104  -18.3868   20.9215 O   0  0  0  0  0  0  0  0  0  0  0  0
    9.4760  -17.1138   21.9934 C   0  0  0  0  0  0  0  0  0  0  0  0
    8.5931  -16.6079   21.2243 O   0  0  0  0  0  0  0  0  0  0  0  0
   14.0554  -16.3442   20.3814 O   0  0  0  0  0  0  0  0  0  0  0  0
    8.5118  -17.9435   25.9749 O   0  0  0  0  0  0  0  0  0  0  0  0
    7.5716  -17.7252   24.9700 C   0  0  0  0  0  0  0  0  0  0  0  0
    8.0973  -16.6761   24.0207 C   0  0  2  0  0  0  0  0  0  0  0  0
    9.3180  -17.1281   23.4020 N   0  0  0  0  0  0  0  0  0  0  0  0
    8.3247  -15.3819   24.6601 C   0  0  0  0  0  0  0  0  0  0  0  0
    9.4357  -14.9891   25.1043 O   0  0  0  0  0  0  0  0  0  0  0  0
    7.2431  -14.4767   24.8097 N   0  0  0  0  0  0  0  0  0  0  0  0
    7.3515  -13.3323   25.6897 C   0  0  1  0  0  0  0  0  0  0  0  0
    6.0072  -12.6365   25.6820 C   0  0  0  0  0  0  0  0  0  0  0  0
    6.0069  -11.2261   26.8249 S   0  0  0  0  0  0  0  0  0  0  0  0
    7.6420  -13.7209   27.0813 C   0  0  0  0  0  0  0  0  0  0  0  0
    7.3199  -14.8238   27.5897 O   0  0  0  0  0  0  0  0  0  0  0  0
    8.3146  -12.8108   27.8825 O   0  0  0  0  0  0  0  0  0  0  0  0
  2  1  1  6
  2  3  1  0
  3  4  1  0
  4  8  1  0
  4  5  2  0
  6  2  1  0
  7  6  2  0
 10  9  1  0
 11 10  1  1
 11 12  1  0
 12  6  1  0
 13 11  1  0
 13 15  1  0
 14 13  2  0
 16 15  1  0
 16 19  1  0
 16 17  1  1
 18 17  1  0
 19 21  1  0
 20 19  2  0
M  END
$$$$
