DSC.pdb
     RDKit          3D

 21 20  0  0  1  0  0  0  0  0999 V2000
   10.5239  -18.6016   21.4396 N   0  0  0  0  0  0  0  0  0  0  0  0
   10.9992  -17.2401   21.3422 C   0  0  1  0  0  0  0  0  0  0  0  0
   11.0961  -16.8345   19.9080 C   0  0  0  0  0  0  0  0  0  0  0  0
   12.2480  -17.4666   19.2454 C   0  0  0  0  0  0  0  0  0  0  0  0
   13.0623  -16.7539   18.6240 O   0  0  0  0  0  0  0  0  0  0  0  0
   10.0641  -16.3572   22.0969 C   0  0  0  0  0  0  0  0  0  0  0  0
   10.2422  -15.0975   22.0052 O   0  0  0  0  0  0  0  0  0  0  0  0
   12.4386  -18.8346   19.3018 O   0  0  0  0  0  0  0  0  0  0  0  0
    7.1155  -17.7893   24.8293 O   0  0  0  0  0  0  0  0  0  0  0  0
    6.7884  -16.8846   23.8213 C   0  0  0  0  0  0  0  0  0  0  0  0
    8.0097  -16.0681   23.4747 C   0  0  2  0  0  0  0  0  0  0  0  0
    9.0212  -16.9076   22.8836 N   0  0  0  0  0  0  0  0  0  0  0  0
    8.5734  -15.3586   24.6210 C   0  0  0  0  0  0  0  0  0  0  0  0
    9.6308  -15.6915   25.2187 O   0  0  0  0  0  0  0  0  0  0  0  0
    7.9125  -14.2097   25.1258 N   0  0  0  0  0  0  0  0  0  0  0  0
    8.4336  -13.5008   26.2755 C   0  0  1  0  0  0  0  0  0  0  0  0
    7.6393  -12.2188   26.4050 C   0  0  0  0  0  0  0  0  0  0  0  0
    5.8580  -12.5668   26.4371 S   0  0  0  0  0  0  0  0  0  0  0  0
    8.2600  -14.2588   27.5273 C   0  0  0  0  0  0  0  0  0  0  0  0
    7.5234  -15.2698   27.6458 O   0  0  0  0  0  0  0  0  0  0  0  0
    8.9543  -13.8291   28.6480 O   0  0  0  0  0  0  0  0  0  0  0  0
  2  1  1  6
  2  3  1  0
  3  4  1  0
  4  8  1  0
  4  5  2  0
  6  2  1  0
  7  6  2  0
 10  9  1  0
 11 10  1  1
 11 12  1  0
 12  6  1  0
 13 11  1  0
 13 15  1  0
 14 13  2  0
 16 15  1  0
 16 19  1  0
 16 17  1  1
 18 17  1  0
 19 21  1  0
 20 19  2  0
M  END
$$$$
