DSC.pdb
     RDKit          3D

 21 20  0  0  1  0  0  0  0  0999 V2000
    8.2430  -19.0403   20.9759 N   0  0  0  0  0  0  0  0  0  0  0  0
    8.9560  -19.7744   21.9966 C   0  0  1  0  0  0  0  0  0  0  0  0
   10.2849  -20.2138   21.4752 C   0  0  0  0  0  0  0  0  0  0  0  0
   10.1442  -21.0258   20.2560 C   0  0  0  0  0  0  0  0  0  0  0  0
    9.0479  -21.0493   19.6604 O   0  0  0  0  0  0  0  0  0  0  0  0
    9.1024  -18.8987   23.1945 C   0  0  0  0  0  0  0  0  0  0  0  0
   10.2460  -18.8600   23.7582 O   0  0  0  0  0  0  0  0  0  0  0  0
   11.2070  -21.7606   19.7643 O   0  0  0  0  0  0  0  0  0  0  0  0
    5.8183  -16.8212   24.7857 O   0  0  0  0  0  0  0  0  0  0  0  0
    7.0799  -16.2328   24.8460 C   0  0  0  0  0  0  0  0  0  0  0  0
    8.1306  -17.3164   24.8543 C   0  0  2  0  0  0  0  0  0  0  0  0
    8.0058  -18.1430   23.6802 N   0  0  0  0  0  0  0  0  0  0  0  0
    8.0835  -18.1562   26.0492 C   0  0  0  0  0  0  0  0  0  0  0  0
    7.0848  -18.8344   26.4078 O   0  0  0  0  0  0  0  0  0  0  0  0
    9.2227  -18.2395   26.8901 N   0  0  0  0  0  0  0  0  0  0  0  0
    9.2081  -19.0687   28.0767 C   0  0  1  0  0  0  0  0  0  0  0  0
    9.1475  -20.5082   27.6124 C   0  0  0  0  0  0  0  0  0  0  0  0
   10.6072  -20.9245   26.6168 S   0  0  0  0  0  0  0  0  0  0  0  0
   10.4314  -18.9140   28.8837 C   0  0  0  0  0  0  0  0  0  0  0  0
   11.4132  -18.2039   28.5512 O   0  0  0  0  0  0  0  0  0  0  0  0
   10.5046  -19.5959   30.0888 O   0  0  0  0  0  0  0  0  0  0  0  0
  2  1  1  6
  2  3  1  0
  3  4  1  0
  4  8  1  0
  4  5  2  0
  6  2  1  0
  7  6  2  0
 10  9  1  0
 11 10  1  1
 11 12  1  0
 12  6  1  0
 13 11  1  0
 13 15  1  0
 14 13  2  0
 16 15  1  0
 16 19  1  0
 16 17  1  6
 18 17  1  0
 19 21  1  0
 20 19  2  0
M  END
$$$$
