DSC.pdb
     RDKit          3D

 21 20  0  0  1  0  0  0  0  0999 V2000
   10.4015  -17.5767   20.1060 N   0  0  0  0  0  0  0  0  0  0  0  0
   11.2032  -17.3590   21.2887 C   0  0  1  0  0  0  0  0  0  0  0  0
   12.3620  -16.4743   20.9642 C   0  0  0  0  0  0  0  0  0  0  0  0
   13.5086  -17.2491   20.4637 C   0  0  0  0  0  0  0  0  0  0  0  0
   13.3753  -18.4721   20.2547 O   0  0  0  0  0  0  0  0  0  0  0  0
   10.3372  -16.7587   22.3438 C   0  0  0  0  0  0  0  0  0  0  0  0
    9.6255  -15.7517   22.0175 O   0  0  0  0  0  0  0  0  0  0  0  0
   14.7270  -16.6418   20.2234 O   0  0  0  0  0  0  0  0  0  0  0  0
    9.1938  -18.8886   25.7208 O   0  0  0  0  0  0  0  0  0  0  0  0
    8.4613  -17.8773   25.1025 C   0  0  0  0  0  0  0  0  0  0  0  0
    9.4046  -16.7881   24.6529 C   0  0  2  0  0  0  0  0  0  0  0  0
   10.3141  -17.2944   23.6560 N   0  0  0  0  0  0  0  0  0  0  0  0
   10.1649  -16.1943   25.7504 C   0  0  0  0  0  0  0  0  0  0  0  0
   11.3724  -16.4476   26.0030 O   0  0  0  0  0  0  0  0  0  0  0  0
    9.5339  -15.2630   26.6142 N   0  0  0  0  0  0  0  0  0  0  0  0
   10.2147  -14.7654   27.7909 C   0  0  1  0  0  0  0  0  0  0  0  0
    9.4086  -13.5935   28.3087 C   0  0  0  0  0  0  0  0  0  0  0  0
    9.0838  -12.3997   26.9803 S   0  0  0  0  0  0  0  0  0  0  0  0
   10.2796  -15.7696   28.8676 C   0  0  0  0  0  0  0  0  0  0  0  0
    9.7288  -16.8977   28.8169 O   0  0  0  0  0  0  0  0  0  0  0  0
   10.9951  -15.4495   30.0114 O   0  0  0  0  0  0  0  0  0  0  0  0
  2  1  1  6
  2  3  1  0
  3  4  1  0
  4  8  1  0
  4  5  2  0
  6  2  1  0
  7  6  2  0
 10  9  1  0
 11 10  1  1
 11 12  1  0
 12  6  1  0
 13 11  1  0
 13 15  1  0
 14 13  2  0
 16 15  1  0
 16 19  1  0
 16 17  1  1
 18 17  1  0
 19 21  1  0
 20 19  2  0
M  END
$$$$
