DSC.pdb
     RDKit          3D

 21 20  0  0  1  0  0  0  0  0999 V2000
   10.8788  -15.1217   15.2419 N   0  0  0  0  0  0  0  0  0  0  0  0
   10.4563  -15.9136   16.3748 C   0  0  1  0  0  0  0  0  0  0  0  0
   11.4467  -17.0008   16.6356 C   0  0  0  0  0  0  0  0  0  0  0  0
   11.2674  -18.1279   15.7066 C   0  0  0  0  0  0  0  0  0  0  0  0
   10.5457  -17.9809   14.6993 O   0  0  0  0  0  0  0  0  0  0  0  0
   10.3116  -15.0129   17.5543 C   0  0  0  0  0  0  0  0  0  0  0  0
   11.3807  -14.5653   18.0869 O   0  0  0  0  0  0  0  0  0  0  0  0
   11.8856  -19.3432   15.9351 O   0  0  0  0  0  0  0  0  0  0  0  0
    6.5229  -13.9977   19.1275 O   0  0  0  0  0  0  0  0  0  0  0  0
    7.5834  -13.0959   19.1884 C   0  0  0  0  0  0  0  0  0  0  0  0
    8.8822  -13.8632   19.2388 C   0  0  2  0  0  0  0  0  0  0  0  0
    9.0300  -14.6744   18.0567 N   0  0  0  0  0  0  0  0  0  0  0  0
    9.0093  -14.7046   20.4268 C   0  0  0  0  0  0  0  0  0  0  0  0
    8.0509  -15.2975   20.9890 O   0  0  0  0  0  0  0  0  0  0  0  0
   10.2850  -14.8910   21.0180 N   0  0  0  0  0  0  0  0  0  0  0  0
   10.4444  -15.7327   22.1850 C   0  0  1  0  0  0  0  0  0  0  0  0
   10.0029  -17.1262   21.7919 C   0  0  0  0  0  0  0  0  0  0  0  0
   10.2882  -18.2977   23.1490 S   0  0  0  0  0  0  0  0  0  0  0  0
   11.8479  -15.8197   22.6258 C   0  0  0  0  0  0  0  0  0  0  0  0
   12.8251  -15.3875   21.9648 O   0  0  0  0  0  0  0  0  0  0  0  0
   12.1081  -16.4173   23.8497 O   0  0  0  0  0  0  0  0  0  0  0  0
  2  1  1  6
  2  3  1  0
  3  4  1  0
  4  8  1  0
  4  5  2  0
  6  2  1  0
  7  6  2  0
 10  9  1  0
 11 10  1  6
 11 12  1  0
 12  6  1  0
 13 11  1  0
 13 15  1  0
 14 13  2  0
 16 15  1  0
 16 19  1  0
 16 17  1  6
 18 17  1  0
 19 21  1  0
 20 19  2  0
M  END
$$$$
