DSC.pdb
     RDKit          3D

 21 20  0  0  1  0  0  0  0  0999 V2000
   10.3432  -17.7407   19.9203 N   0  0  0  0  0  0  0  0  0  0  0  0
   10.7197  -17.4447   21.2840 C   0  0  1  0  0  0  0  0  0  0  0  0
   12.0278  -16.7241   21.3076 C   0  0  0  0  0  0  0  0  0  0  0  0
   13.1521  -17.6386   21.0524 C   0  0  0  0  0  0  0  0  0  0  0  0
   14.3084  -17.1772   20.9686 O   0  0  0  0  0  0  0  0  0  0  0  0
    9.6372  -16.6308   21.9079 C   0  0  0  0  0  0  0  0  0  0  0  0
    9.2228  -15.6109   21.2636 O   0  0  0  0  0  0  0  0  0  0  0  0
   12.9442  -18.9973   20.9045 O   0  0  0  0  0  0  0  0  0  0  0  0
    7.5249  -17.9117   25.3347 O   0  0  0  0  0  0  0  0  0  0  0  0
    6.9750  -17.1196   24.3288 C   0  0  0  0  0  0  0  0  0  0  0  0
    8.0449  -16.2096   23.7760 C   0  0  2  0  0  0  0  0  0  0  0  0
    9.0972  -16.9857   23.1696 N   0  0  0  0  0  0  0  0  0  0  0  0
    8.6157  -15.3143   24.7800 C   0  0  0  0  0  0  0  0  0  0  0  0
    9.7419  -15.4721   25.3212 O   0  0  0  0  0  0  0  0  0  0  0  0
    7.8804  -14.1768   25.2008 N   0  0  0  0  0  0  0  0  0  0  0  0
    8.3749  -13.3271   26.2635 C   0  0  1  0  0  0  0  0  0  0  0  0
    7.4419  -12.1384   26.3528 C   0  0  0  0  0  0  0  0  0  0  0  0
    5.7191  -12.6848   26.5220 S   0  0  0  0  0  0  0  0  0  0  0  0
    8.3603  -14.0020   27.5735 C   0  0  0  0  0  0  0  0  0  0  0  0
    7.7615  -15.0817   27.8064 O   0  0  0  0  0  0  0  0  0  0  0  0
    9.0523  -13.4075   28.6177 O   0  0  0  0  0  0  0  0  0  0  0  0
  2  1  1  6
  2  3  1  0
  3  4  1  0
  4  8  1  0
  4  5  2  0
  6  2  1  0
  7  6  2  0
 10  9  1  0
 11 10  1  1
 11 12  1  0
 12  6  1  0
 13 11  1  0
 13 15  1  0
 14 13  2  0
 16 15  1  0
 16 19  1  0
 16 17  1  1
 18 17  1  0
 19 21  1  0
 20 19  2  0
M  END
$$$$
