DSC.pdb
     RDKit          3D

 21 20  0  0  1  0  0  0  0  0999 V2000
   11.7020  -17.9162   20.3611 N   0  0  0  0  0  0  0  0  0  0  0  0
   12.7099  -17.6757   21.3687 C   0  0  1  0  0  0  0  0  0  0  0  0
   13.9337  -17.0960   20.7386 C   0  0  0  0  0  0  0  0  0  0  0  0
   14.5074  -18.0074   19.7358 C   0  0  0  0  0  0  0  0  0  0  0  0
   14.5913  -19.2254   19.9939 O   0  0  0  0  0  0  0  0  0  0  0  0
   12.1406  -16.7600   22.3987 C   0  0  0  0  0  0  0  0  0  0  0  0
   12.8841  -15.8123   22.8182 O   0  0  0  0  0  0  0  0  0  0  0  0
   14.9534  -17.5333   18.5162 O   0  0  0  0  0  0  0  0  0  0  0  0
    8.2646  -17.3147   24.0557 O   0  0  0  0  0  0  0  0  0  0  0  0
    8.7528  -16.0430   23.7622 C   0  0  0  0  0  0  0  0  0  0  0  0
   10.2583  -16.0548   23.8692 C   0  0  2  0  0  0  0  0  0  0  0  0
   10.8225  -16.9454   22.8864 N   0  0  0  0  0  0  0  0  0  0  0  0
   10.7391  -16.4270   25.1979 C   0  0  0  0  0  0  0  0  0  0  0  0
   11.4283  -17.4510   25.4481 O   0  0  0  0  0  0  0  0  0  0  0  0
   10.4285  -15.6030   26.3097 N   0  0  0  0  0  0  0  0  0  0  0  0
   10.8001  -15.9990   27.6517 C   0  0  1  0  0  0  0  0  0  0  0  0
   10.6008  -14.7917   28.5428 C   0  0  0  0  0  0  0  0  0  0  0  0
   11.4611  -13.3438   27.8655 S   0  0  0  0  0  0  0  0  0  0  0  0
    9.9467  -17.0812   28.1733 C   0  0  0  0  0  0  0  0  0  0  0  0
    8.9227  -17.5179   27.5907 O   0  0  0  0  0  0  0  0  0  0  0  0
   10.2957  -17.6558   29.3861 O   0  0  0  0  0  0  0  0  0  0  0  0
  2  1  1  6
  2  3  1  0
  3  4  1  0
  4  8  1  0
  4  5  2  0
  6  2  1  0
  7  6  2  0
 10  9  1  0
 11 10  1  1
 11 12  1  0
 12  6  1  0
 13 11  1  0
 13 15  1  0
 14 13  2  0
 16 15  1  0
 16 19  1  0
 16 17  1  1
 18 17  1  0
 19 21  1  0
 20 19  2  0
M  END
$$$$
