DSC.pdb
     RDKit          3D

 21 20  0  0  1  0  0  0  0  0999 V2000
   13.3227  -16.9608   20.1468 N   0  0  0  0  0  0  0  0  0  0  0  0
   13.2139  -17.6450   21.4153 C   0  0  1  0  0  0  0  0  0  0  0  0
   14.5647  -17.7857   22.0370 C   0  0  0  0  0  0  0  0  0  0  0  0
   15.5884  -18.1176   21.0334 C   0  0  0  0  0  0  0  0  0  0  0  0
   15.3636  -19.0265   20.2085 O   0  0  0  0  0  0  0  0  0  0  0  0
   12.2876  -16.8724   22.2920 C   0  0  0  0  0  0  0  0  0  0  0  0
   12.4515  -15.6089   22.3516 O   0  0  0  0  0  0  0  0  0  0  0  0
   16.7917  -17.4381   20.9931 O   0  0  0  0  0  0  0  0  0  0  0  0
    9.1457  -18.7400   24.4417 O   0  0  0  0  0  0  0  0  0  0  0  0
    8.9741  -17.5132   23.8038 C   0  0  0  0  0  0  0  0  0  0  0  0
   10.2930  -16.7796   23.7804 C   0  0  2  0  0  0  0  0  0  0  0  0
   11.2679  -17.5276   23.0272 N   0  0  0  0  0  0  0  0  0  0  0  0
   10.8193  -16.4968   25.1140 C   0  0  0  0  0  0  0  0  0  0  0  0
   11.7582  -17.1326   25.6619 O   0  0  0  0  0  0  0  0  0  0  0  0
   10.2597  -15.4399   25.8765 N   0  0  0  0  0  0  0  0  0  0  0  0
   10.6793  -15.2097   27.2428 C   0  0  1  0  0  0  0  0  0  0  0  0
    9.9254  -13.9953   27.7409 C   0  0  0  0  0  0  0  0  0  0  0  0
   10.4160  -13.5864   29.4401 S   0  0  0  0  0  0  0  0  0  0  0  0
   10.3413  -16.3366   28.1303 C   0  0  0  0  0  0  0  0  0  0  0  0
    9.2829  -17.0087   28.0485 O   0  0  0  0  0  0  0  0  0  0  0  0
   11.2499  -16.6782   29.1205 O   0  0  0  0  0  0  0  0  0  0  0  0
  2  1  1  6
  2  3  1  0
  3  4  1  0
  4  8  1  0
  4  5  2  0
  6  2  1  0
  7  6  2  0
 10  9  1  0
 11 10  1  1
 11 12  1  0
 12  6  1  0
 13 11  1  0
 13 15  1  0
 14 13  2  0
 16 15  1  0
 16 19  1  0
 16 17  1  1
 18 17  1  0
 19 21  1  0
 20 19  2  0
M  END
$$$$
