MNY.pdb
     RDKit          3D

 29 29  0  0  1  0  0  0  0  0999 V2000
    8.0602  -11.7980   19.1836 C   0  0  0  0  0  0  0  0  0  0  0  0
    7.7970  -13.5652   18.8947 S   0  0  0  0  0  0  0  0  0  0  0  0
    6.5714  -14.2575   20.0153 C   0  0  0  0  0  0  0  0  0  0  0  0
    7.0890  -15.4269   20.8162 C   0  0  0  0  0  0  0  0  0  0  0  0
    8.1311  -14.9763   21.7866 C   0  0  2  0  0  0  0  0  0  0  0  0
    9.1494  -14.2095   21.1090 N   0  0  0  0  0  0  0  0  0  0  0  0
    8.7416  -16.1018   22.5389 C   0  0  0  0  0  0  0  0  0  0  0  0
    8.0304  -16.8064   23.2984 O   0  0  0  0  0  0  0  0  0  0  0  0
   10.1292  -18.6449   20.8004 N   0  0  0  0  0  0  0  0  0  0  0  0
   11.5031  -18.5724   21.1301 C   0  0  0  0  0  0  0  0  0  0  0  0
   12.3507  -19.0160   20.3268 O   0  0  0  0  0  0  0  0  0  0  0  0
   11.9427  -17.9804   22.4084 C   0  0  0  0  0  0  0  0  0  0  0  0
   10.7884  -17.4420   23.2188 C   0  0  2  0  0  0  0  0  0  0  0  0
   10.1192  -16.4295   22.4412 N   0  0  0  0  0  0  0  0  0  0  0  0
   11.2810  -16.8748   24.5205 C   0  0  0  0  0  0  0  0  0  0  0  0
   12.3855  -16.2888   24.5459 O   0  0  0  0  0  0  0  0  0  0  0  0
    5.7591  -12.7076   27.0353 O   0  0  0  0  0  0  0  0  0  0  0  0
    7.0434  -13.2631   26.9516 C   0  0  0  0  0  0  0  0  0  0  0  0
    7.9704  -12.9842   27.9268 C   0  0  0  0  0  0  0  0  0  0  0  0
    9.2331  -13.5273   27.8492 C   0  0  0  0  0  0  0  0  0  0  0  0
    9.6078  -14.3623   26.7995 C   0  0  0  0  0  0  0  0  0  0  0  0
   10.9820  -14.9091   26.7658 C   0  0  0  0  0  0  0  0  0  0  0  0
   10.9889  -16.4020   26.9772 C   0  0  2  0  0  0  0  0  0  0  0  0
   10.5316  -16.9854   25.7153 N   0  0  0  0  0  0  0  0  0  0  0  0
   10.1327  -16.8311   28.1004 C   0  0  0  0  0  0  0  0  0  0  0  0
    9.0491  -17.6667   27.8948 O   0  0  0  0  0  0  0  0  0  0  0  0
    8.6696  -14.6336   25.8288 C   0  0  0  0  0  0  0  0  0  0  0  0
    7.4017  -14.0798   25.9198 C   0  0  0  0  0  0  0  0  0  0  0  0
   10.3692  -16.4466   29.2684 O   0  0  0  0  0  0  0  0  0  0  0  0
  2  1  1  0
  3  2  1  0
  4  5  1  0
  4  3  1  0
  5  6  1  6
  7  8  2  0
  7  5  1  0
  9 10  1  0
 10 12  1  0
 11 10  2  0
 13 12  1  6
 13 14  1  0
 14  7  1  0
 15 24  1  0
 15 13  1  0
 16 15  2  0
 18 17  1  0
 19 18  2  0
 20 19  1  0
 21 27  1  0
 21 20  2  0
 22 21  1  0
 23 22  1  6
 23 24  1  0
 25 23  1  0
 26 25  1  0
 27 28  2  0
 28 18  1  0
 29 25  2  0
M  END
$$$$
