MNY.pdb
     RDKit          3D

 29 29  0  0  1  0  0  0  0  0999 V2000
    6.2347  -12.3291   27.0642 C   0  0  0  0  0  0  0  0  0  0  0  0
    6.6064  -11.7742   25.3821 S   0  0  0  0  0  0  0  0  0  0  0  0
    6.2562  -13.0459   24.1585 C   0  0  0  0  0  0  0  0  0  0  0  0
    7.3428  -14.0875   24.0533 C   0  0  0  0  0  0  0  0  0  0  0  0
    6.9985  -15.0995   23.0103 C   0  0  2  0  0  0  0  0  0  0  0  0
    5.7693  -15.7746   23.3529 N   0  0  0  0  0  0  0  0  0  0  0  0
    8.0867  -16.0839   22.7825 C   0  0  0  0  0  0  0  0  0  0  0  0
    8.1494  -17.1226   23.4871 O   0  0  0  0  0  0  0  0  0  0  0  0
    9.6223  -16.2536   18.1968 N   0  0  0  0  0  0  0  0  0  0  0  0
   10.0942  -17.0355   19.2772 C   0  0  0  0  0  0  0  0  0  0  0  0
    9.8072  -18.2503   19.3262 O   0  0  0  0  0  0  0  0  0  0  0  0
   10.9184  -16.4325   20.3425 C   0  0  0  0  0  0  0  0  0  0  0  0
   10.3230  -16.6376   21.7146 C   0  0  2  0  0  0  0  0  0  0  0  0
    9.0825  -15.9071   21.7865 N   0  0  0  0  0  0  0  0  0  0  0  0
   11.2787  -16.1700   22.7761 C   0  0  0  0  0  0  0  0  0  0  0  0
   11.5102  -14.9459   22.8855 O   0  0  0  0  0  0  0  0  0  0  0  0
   11.1260  -15.1779   31.1658 O   0  0  0  0  0  0  0  0  0  0  0  0
   11.0500  -15.4807   29.7992 C   0  0  0  0  0  0  0  0  0  0  0  0
   11.2748  -14.4937   28.8699 C   0  0  0  0  0  0  0  0  0  0  0  0
   11.2013  -14.7859   27.5266 C   0  0  0  0  0  0  0  0  0  0  0  0
   10.9022  -16.0676   27.0713 C   0  0  0  0  0  0  0  0  0  0  0  0
   10.8287  -16.3188   25.6153 C   0  0  0  0  0  0  0  0  0  0  0  0
   12.1613  -16.7557   25.0613 C   0  0  2  0  0  0  0  0  0  0  0  0
   11.9225  -17.0744   23.6531 N   0  0  0  0  0  0  0  0  0  0  0  0
   12.7339  -17.9128   25.7768 C   0  0  0  0  0  0  0  0  0  0  0  0
   13.8318  -17.7685   26.6066 O   0  0  0  0  0  0  0  0  0  0  0  0
   10.6789  -17.0473   28.0129 C   0  0  0  0  0  0  0  0  0  0  0  0
   10.7563  -16.7388   29.3624 C   0  0  0  0  0  0  0  0  0  0  0  0
   12.2367  -19.0548   25.6477 O   0  0  0  0  0  0  0  0  0  0  0  0
  2  1  1  0
  3  2  1  0
  4  5  1  0
  4  3  1  0
  5  6  1  1
  7  8  2  0
  7  5  1  0
  9 10  1  0
 10 12  1  0
 11 10  2  0
 13 12  1  6
 13 14  1  0
 14  7  1  0
 15 24  1  0
 15 13  1  0
 16 15  2  0
 18 17  1  0
 19 18  2  0
 20 19  1  0
 21 27  1  0
 21 20  2  0
 22 21  1  0
 23 22  1  1
 23 24  1  0
 25 23  1  0
 26 25  1  0
 27 28  2  0
 28 18  1  0
 29 25  2  0
M  END
$$$$
