MNY.pdb
     RDKit          3D

 29 29  0  0  1  0  0  0  0  0999 V2000
    7.6897  -12.3852   19.2843 C   0  0  0  0  0  0  0  0  0  0  0  0
    7.7396  -12.4467   21.0925 S   0  0  0  0  0  0  0  0  0  0  0  0
    7.7875  -14.1360   21.7098 C   0  0  0  0  0  0  0  0  0  0  0  0
    6.5664  -14.9411   21.3390 C   0  0  0  0  0  0  0  0  0  0  0  0
    6.6606  -16.3225   21.8988 C   0  0  2  0  0  0  0  0  0  0  0  0
    6.5924  -16.2852   23.3403 N   0  0  0  0  0  0  0  0  0  0  0  0
    7.8817  -17.0413   21.4542 C   0  0  0  0  0  0  0  0  0  0  0  0
    7.8059  -17.8963   20.5363 O   0  0  0  0  0  0  0  0  0  0  0  0
   12.5970  -18.5630   20.3465 N   0  0  0  0  0  0  0  0  0  0  0  0
   11.8773  -17.5924   19.6107 C   0  0  0  0  0  0  0  0  0  0  0  0
   12.2700  -17.2731   18.4687 O   0  0  0  0  0  0  0  0  0  0  0  0
   10.6722  -16.9560   20.1771 C   0  0  0  0  0  0  0  0  0  0  0  0
   10.3898  -17.4148   21.5873 C   0  0  2  0  0  0  0  0  0  0  0  0
    9.1591  -16.8061   22.0264 N   0  0  0  0  0  0  0  0  0  0  0  0
   11.5245  -17.0386   22.4982 C   0  0  0  0  0  0  0  0  0  0  0  0
   12.2485  -16.0656   22.1931 O   0  0  0  0  0  0  0  0  0  0  0  0
    9.4880  -12.7518   29.0742 O   0  0  0  0  0  0  0  0  0  0  0  0
    9.6459  -13.7091   28.0625 C   0  0  0  0  0  0  0  0  0  0  0  0
   10.1738  -14.9406   28.3674 C   0  0  0  0  0  0  0  0  0  0  0  0
   10.3310  -15.8844   27.3775 C   0  0  0  0  0  0  0  0  0  0  0  0
    9.9675  -15.6287   26.0577 C   0  0  0  0  0  0  0  0  0  0  0  0
   10.1682  -16.6795   25.0359 C   0  0  0  0  0  0  0  0  0  0  0  0
   11.5962  -17.1632   25.0128 C   0  0  2  0  0  0  0  0  0  0  0  0
   11.7959  -17.7533   23.6886 N   0  0  0  0  0  0  0  0  0  0  0  0
   11.8932  -18.1404   26.0786 C   0  0  0  0  0  0  0  0  0  0  0  0
   11.4489  -19.4481   25.9937 O   0  0  0  0  0  0  0  0  0  0  0  0
    9.4399  -14.3907   25.7655 C   0  0  0  0  0  0  0  0  0  0  0  0
    9.2872  -13.4499   26.7726 C   0  0  0  0  0  0  0  0  0  0  0  0
   12.5560  -17.8057   27.0869 O   0  0  0  0  0  0  0  0  0  0  0  0
  2  1  1  0
  3  2  1  0
  4  5  1  0
  4  3  1  0
  5  6  1  1
  7  8  2  0
  7  5  1  0
  9 10  1  0
 10 12  1  0
 11 10  2  0
 13 12  1  6
 13 14  1  0
 14  7  1  0
 15 24  1  0
 15 13  1  0
 16 15  2  0
 18 17  1  0
 19 18  2  0
 20 19  1  0
 21 27  1  0
 21 20  2  0
 22 21  1  0
 23 22  1  6
 23 24  1  0
 25 23  1  0
 26 25  1  0
 27 28  2  0
 28 18  1  0
 29 25  2  0
M  END
$$$$
