MNY.pdb
     RDKit          3D

 29 29  0  0  1  0  0  0  0  0999 V2000
    8.2511  -11.5186   20.3783 C   0  0  0  0  0  0  0  0  0  0  0  0
    8.2479  -12.7261   19.0300 S   0  0  0  0  0  0  0  0  0  0  0  0
    8.9261  -14.3119   19.5421 C   0  0  0  0  0  0  0  0  0  0  0  0
    8.1126  -14.9892   20.6175 C   0  0  0  0  0  0  0  0  0  0  0  0
    8.6914  -16.3257   20.9479 C   0  0  2  0  0  0  0  0  0  0  0  0
    8.7373  -17.1577   19.7691 N   0  0  0  0  0  0  0  0  0  0  0  0
    7.9611  -17.0141   22.0424 C   0  0  0  0  0  0  0  0  0  0  0  0
    7.5066  -18.1716   21.8610 O   0  0  0  0  0  0  0  0  0  0  0  0
    6.5591  -19.9280   26.0727 N   0  0  0  0  0  0  0  0  0  0  0  0
    7.4275  -18.8132   26.1382 C   0  0  0  0  0  0  0  0  0  0  0  0
    7.7516  -18.3531   27.2534 O   0  0  0  0  0  0  0  0  0  0  0  0
    7.9519  -18.1910   24.9070 C   0  0  0  0  0  0  0  0  0  0  0  0
    7.0861  -17.0517   24.4259 C   0  0  2  0  0  0  0  0  0  0  0  0
    7.7455  -16.4174   23.3121 N   0  0  0  0  0  0  0  0  0  0  0  0
    6.8507  -16.0669   25.5366 C   0  0  0  0  0  0  0  0  0  0  0  0
    6.1211  -16.3999   26.4962 O   0  0  0  0  0  0  0  0  0  0  0  0
   11.8485  -16.5965   29.3880 O   0  0  0  0  0  0  0  0  0  0  0  0
   10.9460  -15.7063   28.7898 C   0  0  0  0  0  0  0  0  0  0  0  0
   10.9154  -15.5854   27.4212 C   0  0  0  0  0  0  0  0  0  0  0  0
   10.0309  -14.7125   26.8288 C   0  0  0  0  0  0  0  0  0  0  0  0
    9.1530  -13.9363   27.5814 C   0  0  0  0  0  0  0  0  0  0  0  0
    8.2313  -13.0097   26.8884 C   0  0  0  0  0  0  0  0  0  0  0  0
    6.9805  -13.7148   26.4279 C   0  0  2  0  0  0  0  0  0  0  0  0
    7.4302  -14.7764   25.5266 N   0  0  0  0  0  0  0  0  0  0  0  0
    6.0250  -12.8153   25.7521 C   0  0  0  0  0  0  0  0  0  0  0  0
    5.3448  -11.8365   26.4550 O   0  0  0  0  0  0  0  0  0  0  0  0
    9.1940  -14.0669   28.9516 C   0  0  0  0  0  0  0  0  0  0  0  0
   10.0899  -14.9500   29.5347 C   0  0  0  0  0  0  0  0  0  0  0  0
    5.8083  -12.9189   24.5232 O   0  0  0  0  0  0  0  0  0  0  0  0
  2  1  1  0
  3  2  1  0
  4  5  1  0
  4  3  1  0
  5  6  1  6
  7  8  2  0
  7  5  1  0
  9 10  1  0
 10 12  1  0
 11 10  2  0
 13 12  1  1
 13 14  1  0
 14  7  1  0
 15 24  1  0
 15 13  1  0
 16 15  2  0
 18 17  1  0
 19 18  2  0
 20 19  1  0
 21 27  1  0
 21 20  2  0
 22 21  1  0
 23 22  1  6
 23 24  1  0
 25 23  1  0
 26 25  1  0
 27 28  2  0
 28 18  1  0
 29 25  2  0
M  END
$$$$
