MNY.pdb
     RDKit          3D

 29 29  0  0  1  0  0  0  0  0999 V2000
    7.6034  -11.6043   20.3942 C   0  0  0  0  0  0  0  0  0  0  0  0
    7.1257  -12.5737   18.9424 S   0  0  0  0  0  0  0  0  0  0  0  0
    7.2800  -14.3429   19.2310 C   0  0  0  0  0  0  0  0  0  0  0  0
    6.9019  -14.7536   20.6329 C   0  0  0  0  0  0  0  0  0  0  0  0
    7.9816  -15.5854   21.2436 C   0  0  2  0  0  0  0  0  0  0  0  0
    8.3146  -16.6904   20.3764 N   0  0  0  0  0  0  0  0  0  0  0  0
    7.6315  -16.0762   22.6007 C   0  0  0  0  0  0  0  0  0  0  0  0
    6.8739  -15.3955   23.3369 O   0  0  0  0  0  0  0  0  0  0  0  0
    8.4776  -21.0003   26.1831 N   0  0  0  0  0  0  0  0  0  0  0  0
    7.6856  -19.9184   25.7320 C   0  0  0  0  0  0  0  0  0  0  0  0
    6.7787  -19.4738   26.4672 O   0  0  0  0  0  0  0  0  0  0  0  0
    7.9193  -19.3125   24.4068 C   0  0  0  0  0  0  0  0  0  0  0  0
    7.8615  -17.8044   24.4469 C   0  0  2  0  0  0  0  0  0  0  0  0
    8.1202  -17.3033   23.1204 N   0  0  0  0  0  0  0  0  0  0  0  0
    8.8682  -17.2670   25.4249 C   0  0  0  0  0  0  0  0  0  0  0  0
   10.0862  -17.4032   25.1761 O   0  0  0  0  0  0  0  0  0  0  0  0
    7.2692  -11.0829   24.4965 O   0  0  0  0  0  0  0  0  0  0  0  0
    7.6370  -12.0385   25.4538 C   0  0  0  0  0  0  0  0  0  0  0  0
    8.6020  -12.9688   25.1510 C   0  0  0  0  0  0  0  0  0  0  0  0
    8.9667  -13.9095   26.0877 C   0  0  0  0  0  0  0  0  0  0  0  0
    8.3815  -13.9503   27.3507 C   0  0  0  0  0  0  0  0  0  0  0  0
    8.8088  -14.9903   28.3122 C   0  0  0  0  0  0  0  0  0  0  0  0
    9.4504  -16.1614   27.6119 C   0  0  2  0  0  0  0  0  0  0  0  0
    8.4770  -16.6128   26.6167 N   0  0  0  0  0  0  0  0  0  0  0  0
    9.8145  -17.2567   28.5318 C   0  0  0  0  0  0  0  0  0  0  0  0
   10.7956  -17.0871   29.4927 O   0  0  0  0  0  0  0  0  0  0  0  0
    7.4158  -13.0127   27.6413 C   0  0  0  0  0  0  0  0  0  0  0  0
    7.0584  -12.0711   26.6884 C   0  0  0  0  0  0  0  0  0  0  0  0
    9.2413  -18.3679   28.4623 O   0  0  0  0  0  0  0  0  0  0  0  0
  2  1  1  0
  3  2  1  0
  4  5  1  0
  4  3  1  0
  5  6  1  6
  7  8  2  0
  7  5  1  0
  9 10  1  0
 10 12  1  0
 11 10  2  0
 13 12  1  6
 13 14  1  0
 14  7  1  0
 15 24  1  0
 15 13  1  0
 16 15  2  0
 18 17  1  0
 19 18  2  0
 20 19  1  0
 21 27  1  0
 21 20  2  0
 22 21  1  0
 23 22  1  1
 23 24  1  0
 25 23  1  0
 26 25  1  0
 27 28  2  0
 28 18  1  0
 29 25  2  0
M  END
$$$$
