MNY.pdb
     RDKit          3D

 29 29  0  0  1  0  0  0  0  0999 V2000
    8.9958  -11.8318   20.4667 C   0  0  0  0  0  0  0  0  0  0  0  0
    8.2193  -12.5715   19.0088 S   0  0  0  0  0  0  0  0  0  0  0  0
    8.4263  -14.3583   18.9667 C   0  0  0  0  0  0  0  0  0  0  0  0
    8.2752  -15.0081   20.3201 C   0  0  0  0  0  0  0  0  0  0  0  0
    8.3559  -16.4945   20.1988 C   0  0  2  0  0  0  0  0  0  0  0  0
    7.3198  -16.9830   19.3202 N   0  0  0  0  0  0  0  0  0  0  0  0
    8.2911  -17.1832   21.5129 C   0  0  0  0  0  0  0  0  0  0  0  0
    7.3381  -17.9624   21.7654 O   0  0  0  0  0  0  0  0  0  0  0  0
    9.2017  -21.4933   23.9515 N   0  0  0  0  0  0  0  0  0  0  0  0
    9.8477  -20.2591   24.1984 C   0  0  0  0  0  0  0  0  0  0  0  0
   10.3650  -20.0506   25.3162 O   0  0  0  0  0  0  0  0  0  0  0  0
    9.9159  -19.2200   23.1527 C   0  0  0  0  0  0  0  0  0  0  0  0
    9.4679  -17.8690   23.6560 C   0  0  2  0  0  0  0  0  0  0  0  0
    9.2736  -17.0018   22.5211 N   0  0  0  0  0  0  0  0  0  0  0  0
   10.4899  -17.2945   24.5964 C   0  0  0  0  0  0  0  0  0  0  0  0
   11.6547  -17.1057   24.1824 O   0  0  0  0  0  0  0  0  0  0  0  0
    5.4579  -13.0934   27.6371 O   0  0  0  0  0  0  0  0  0  0  0  0
    6.7674  -13.4736   27.3123 C   0  0  0  0  0  0  0  0  0  0  0  0
    6.9988  -14.2198   26.1818 C   0  0  0  0  0  0  0  0  0  0  0  0
    8.2831  -14.5959   25.8584 C   0  0  0  0  0  0  0  0  0  0  0  0
    9.3718  -14.2401   26.6506 C   0  0  0  0  0  0  0  0  0  0  0  0
   10.7277  -14.6809   26.2561 C   0  0  0  0  0  0  0  0  0  0  0  0
   11.0170  -16.0798   26.7390 C   0  0  2  0  0  0  0  0  0  0  0  0
   10.1713  -16.9622   25.9342 N   0  0  0  0  0  0  0  0  0  0  0  0
   10.7518  -16.2608   28.1797 C   0  0  0  0  0  0  0  0  0  0  0  0
    9.8455  -17.2061   28.6266 O   0  0  0  0  0  0  0  0  0  0  0  0
    9.1262  -13.4925   27.7806 C   0  0  0  0  0  0  0  0  0  0  0  0
    7.8277  -13.1207   28.0941 C   0  0  0  0  0  0  0  0  0  0  0  0
   11.3434  -15.5598   29.0322 O   0  0  0  0  0  0  0  0  0  0  0  0
  2  1  1  0
  3  2  1  0
  4  5  1  0
  4  3  1  0
  5  6  1  6
  7  8  2  0
  7  5  1  0
  9 10  1  0
 10 12  1  0
 11 10  2  0
 13 12  1  6
 13 14  1  0
 14  7  1  0
 15 24  1  0
 15 13  1  0
 16 15  2  0
 18 17  1  0
 19 18  2  0
 20 19  1  0
 21 27  1  0
 21 20  2  0
 22 21  1  0
 23 22  1  6
 23 24  1  0
 25 23  1  0
 26 25  1  0
 27 28  2  0
 28 18  1  0
 29 25  2  0
M  END
$$$$
