MNY.pdb
     RDKit          3D

 29 29  0  0  1  0  0  0  0  0999 V2000
    7.8811  -11.7890   20.4719 C   0  0  0  0  0  0  0  0  0  0  0  0
    6.4951  -12.9067   20.1470 S   0  0  0  0  0  0  0  0  0  0  0  0
    7.0316  -14.4417   19.3770 C   0  0  0  0  0  0  0  0  0  0  0  0
    8.0376  -15.2039   20.2040 C   0  0  0  0  0  0  0  0  0  0  0  0
    8.3623  -16.5112   19.5591 C   0  0  2  0  0  0  0  0  0  0  0  0
    7.1639  -17.2980   19.3892 N   0  0  0  0  0  0  0  0  0  0  0  0
    9.3890  -17.2817   20.3058 C   0  0  0  0  0  0  0  0  0  0  0  0
    9.1050  -18.4121   20.7756 O   0  0  0  0  0  0  0  0  0  0  0  0
   15.3400  -16.9644   21.9165 N   0  0  0  0  0  0  0  0  0  0  0  0
   14.2047  -17.6590   21.4368 C   0  0  0  0  0  0  0  0  0  0  0  0
   14.1619  -18.9039   21.5322 O   0  0  0  0  0  0  0  0  0  0  0  0
   13.0755  -16.9304   20.8271 C   0  0  0  0  0  0  0  0  0  0  0  0
   11.7376  -17.4885   21.2487 C   0  0  2  0  0  0  0  0  0  0  0  0
   10.7049  -16.7949   20.5206 N   0  0  0  0  0  0  0  0  0  0  0  0
   11.5452  -17.3261   22.7304 C   0  0  0  0  0  0  0  0  0  0  0  0
   10.4591  -17.6768   23.2418 O   0  0  0  0  0  0  0  0  0  0  0  0
    9.6610  -14.4004   30.3741 O   0  0  0  0  0  0  0  0  0  0  0  0
   10.0238  -14.6848   29.0504 C   0  0  0  0  0  0  0  0  0  0  0  0
    9.6101  -15.8591   28.4687 C   0  0  0  0  0  0  0  0  0  0  0  0
    9.9638  -16.1432   27.1688 C   0  0  0  0  0  0  0  0  0  0  0  0
   10.7384  -15.2672   26.4125 C   0  0  0  0  0  0  0  0  0  0  0  0
   11.0937  -15.6313   25.0234 C   0  0  0  0  0  0  0  0  0  0  0  0
   12.3272  -16.4973   24.9767 C   0  0  2  0  0  0  0  0  0  0  0  0
   12.5564  -16.7885   23.5610 N   0  0  0  0  0  0  0  0  0  0  0  0
   12.1899  -17.7420   25.7582 C   0  0  0  0  0  0  0  0  0  0  0  0
   12.7168  -17.8474   27.0333 O   0  0  0  0  0  0  0  0  0  0  0  0
   11.1465  -14.0942   27.0073 C   0  0  0  0  0  0  0  0  0  0  0  0
   10.7828  -13.8210   28.3172 C   0  0  0  0  0  0  0  0  0  0  0  0
   11.5914  -18.7336   25.2822 O   0  0  0  0  0  0  0  0  0  0  0  0
  2  1  1  0
  3  2  1  0
  4  5  1  0
  4  3  1  0
  5  6  1  1
  7  8  2  0
  7  5  1  0
  9 10  1  0
 10 12  1  0
 11 10  2  0
 13 12  1  6
 13 14  1  0
 14  7  1  0
 15 24  1  0
 15 13  1  0
 16 15  2  0
 18 17  1  0
 19 18  2  0
 20 19  1  0
 21 27  1  0
 21 20  2  0
 22 21  1  0
 23 22  1  6
 23 24  1  0
 25 23  1  0
 26 25  1  0
 27 28  2  0
 28 18  1  0
 29 25  2  0
M  END
$$$$
