MNY.pdb
     RDKit          3D

 29 29  0  0  1  0  0  0  0  0999 V2000
    7.6727  -11.5499   20.3605 C   0  0  0  0  0  0  0  0  0  0  0  0
    7.7840  -12.2722   18.7047 S   0  0  0  0  0  0  0  0  0  0  0  0
    8.0195  -14.0550   18.7600 C   0  0  0  0  0  0  0  0  0  0  0  0
    7.5127  -14.6842   20.0345 C   0  0  0  0  0  0  0  0  0  0  0  0
    8.6292  -15.3509   20.7689 C   0  0  2  0  0  0  0  0  0  0  0  0
    9.3556  -16.2314   19.8852 N   0  0  0  0  0  0  0  0  0  0  0  0
    8.1669  -16.0875   21.9727 C   0  0  0  0  0  0  0  0  0  0  0  0
    7.2621  -15.6004   22.6960 O   0  0  0  0  0  0  0  0  0  0  0  0
    7.7561  -19.7476   21.4089 N   0  0  0  0  0  0  0  0  0  0  0  0
    8.7329  -20.1963   22.3287 C   0  0  0  0  0  0  0  0  0  0  0  0
    9.3192  -21.2796   22.1206 O   0  0  0  0  0  0  0  0  0  0  0  0
    9.0642  -19.4006   23.5265 C   0  0  0  0  0  0  0  0  0  0  0  0
    8.3500  -18.0707   23.5478 C   0  0  2  0  0  0  0  0  0  0  0  0
    8.7074  -17.3426   22.3563 N   0  0  0  0  0  0  0  0  0  0  0  0
    8.7246  -17.2941   24.7789 C   0  0  0  0  0  0  0  0  0  0  0  0
    8.4614  -16.0725   24.8272 O   0  0  0  0  0  0  0  0  0  0  0  0
    7.0354  -11.4194   26.4004 O   0  0  0  0  0  0  0  0  0  0  0  0
    7.3314  -12.7546   26.7080 C   0  0  0  0  0  0  0  0  0  0  0  0
    8.3774  -13.0429   27.5513 C   0  0  0  0  0  0  0  0  0  0  0  0
    8.6722  -14.3526   27.8565 C   0  0  0  0  0  0  0  0  0  0  0  0
    7.9348  -15.4107   27.3313 C   0  0  0  0  0  0  0  0  0  0  0  0
    8.3048  -16.7977   27.6892 C   0  0  0  0  0  0  0  0  0  0  0  0
    9.6483  -17.1766   27.1192 C   0  0  2  0  0  0  0  0  0  0  0  0
    9.3653  -17.9055   25.8822 N   0  0  0  0  0  0  0  0  0  0  0  0
   10.4585  -17.9947   28.0428 C   0  0  0  0  0  0  0  0  0  0  0  0
   10.8263  -19.2883   27.7170 O   0  0  0  0  0  0  0  0  0  0  0  0
    6.8895  -15.1082   26.4875 C   0  0  0  0  0  0  0  0  0  0  0  0
    6.6038  -13.7847   26.1889 C   0  0  0  0  0  0  0  0  0  0  0  0
   10.8319  -17.5341   29.1457 O   0  0  0  0  0  0  0  0  0  0  0  0
  2  1  1  0
  3  2  1  0
  4  5  1  0
  4  3  1  0
  5  6  1  6
  7  8  2  0
  7  5  1  0
  9 10  1  0
 10 12  1  0
 11 10  2  0
 13 12  1  1
 13 14  1  0
 14  7  1  0
 15 24  1  0
 15 13  1  0
 16 15  2  0
 18 17  1  0
 19 18  2  0
 20 19  1  0
 21 27  1  0
 21 20  2  0
 22 21  1  0
 23 22  1  1
 23 24  1  0
 25 23  1  0
 26 25  1  0
 27 28  2  0
 28 18  1  0
 29 25  2  0
M  END
$$$$
