MNY.pdb
     RDKit          3D

 29 29  0  0  1  0  0  0  0  0999 V2000
    6.7164  -13.0020   25.9926 C   0  0  0  0  0  0  0  0  0  0  0  0
    5.5999  -12.7397   24.5925 S   0  0  0  0  0  0  0  0  0  0  0  0
    6.2495  -13.4436   23.0695 C   0  0  0  0  0  0  0  0  0  0  0  0
    7.3405  -14.4602   23.3004 C   0  0  0  0  0  0  0  0  0  0  0  0
    7.9454  -14.8826   22.0018 C   0  0  2  0  0  0  0  0  0  0  0  0
    6.9610  -15.5497   21.1834 N   0  0  0  0  0  0  0  0  0  0  0  0
    9.1440  -15.7415   22.1780 C   0  0  0  0  0  0  0  0  0  0  0  0
    9.1111  -16.9446   21.8164 O   0  0  0  0  0  0  0  0  0  0  0  0
   14.4831  -16.5837   22.1407 N   0  0  0  0  0  0  0  0  0  0  0  0
   14.0118  -15.7661   23.1947 C   0  0  0  0  0  0  0  0  0  0  0  0
   14.7052  -15.6342   24.2254 O   0  0  0  0  0  0  0  0  0  0  0  0
   12.7144  -15.0708   23.0889 C   0  0  0  0  0  0  0  0  0  0  0  0
   11.5644  -16.0285   22.8899 C   0  0  2  0  0  0  0  0  0  0  0  0
   10.3524  -15.2615   22.7471 N   0  0  0  0  0  0  0  0  0  0  0  0
   11.4623  -16.9740   24.0537 C   0  0  0  0  0  0  0  0  0  0  0  0
   12.3313  -17.8631   24.1893 O   0  0  0  0  0  0  0  0  0  0  0  0
   12.5283  -13.8233   30.3381 O   0  0  0  0  0  0  0  0  0  0  0  0
   11.7630  -14.6890   29.5446 C   0  0  0  0  0  0  0  0  0  0  0  0
   10.8059  -14.1740   28.7036 C   0  0  0  0  0  0  0  0  0  0  0  0
   10.0516  -15.0200   27.9222 C   0  0  0  0  0  0  0  0  0  0  0  0
   10.2287  -16.4009   27.9561 C   0  0  0  0  0  0  0  0  0  0  0  0
    9.3819  -17.2597   27.0994 C   0  0  0  0  0  0  0  0  0  0  0  0
   10.1877  -17.9200   26.0093 C   0  0  2  0  0  0  0  0  0  0  0  0
   10.4124  -16.8865   24.9980 N   0  0  0  0  0  0  0  0  0  0  0  0
    9.5147  -19.0964   25.4245 C   0  0  0  0  0  0  0  0  0  0  0  0
    9.0534  -19.0810   24.1200 O   0  0  0  0  0  0  0  0  0  0  0  0
   11.1907  -16.9040   28.8032 C   0  0  0  0  0  0  0  0  0  0  0  0
   11.9432  -16.0403   29.5844 C   0  0  0  0  0  0  0  0  0  0  0  0
    9.3458  -20.1379   26.0988 O   0  0  0  0  0  0  0  0  0  0  0  0
  2  1  1  0
  3  2  1  0
  4  5  1  0
  4  3  1  0
  5  6  1  6
  7  8  2  0
  7  5  1  0
  9 10  1  0
 10 12  1  0
 11 10  2  0
 13 12  1  1
 13 14  1  0
 14  7  1  0
 15 24  1  0
 15 13  1  0
 16 15  2  0
 18 17  1  0
 19 18  2  0
 20 19  1  0
 21 27  1  0
 21 20  2  0
 22 21  1  0
 23 22  1  1
 23 24  1  0
 25 23  1  0
 26 25  1  0
 27 28  2  0
 28 18  1  0
 29 25  2  0
M  END
$$$$
