VGA.pdb
     RDKit          3D

 17 16  0  0  1  0  0  0  0  0999 V2000
   23.8144  -22.7664  -12.4625 C   0  0  0  0  0  0  0  0  0  0  0  0
   24.5578  -21.4539  -12.6558 C   0  0  1  0  0  0  0  0  0  0  0  0
   25.5817  -21.2370  -11.5604 C   0  0  0  0  0  0  0  0  0  0  0  0
   25.3229  -21.5385  -13.9650 C   0  0  2  0  0  0  0  0  0  0  0  0
   26.2155  -22.6544  -14.0066 N   0  0  0  0  0  0  0  0  0  0  0  0
   26.0806  -20.2922  -14.1772 C   0  0  0  0  0  0  0  0  0  0  0  0
   27.3456  -20.2279  -14.0819 O   0  0  0  0  0  0  0  0  0  0  0  0
   25.4119  -19.0805  -14.5053 N   0  0  0  0  0  0  0  0  0  0  0  0
   26.1665  -17.8748  -14.7724 C   0  0  0  0  0  0  0  0  0  0  0  0
   25.2446  -16.7895  -15.1139 C   0  0  0  0  0  0  0  0  0  0  0  0
   24.0341  -17.0177  -15.2788 O   0  0  0  0  0  0  0  0  0  0  0  0
   25.5702  -13.0609  -15.5174 C   0  0  0  0  0  0  0  0  0  0  0  0
   24.8843  -14.4119  -15.6446 C   0  0  2  0  0  0  0  0  0  0  0  0
   25.7672  -15.4790  -15.2505 N   0  0  0  0  0  0  0  0  0  0  0  0
   24.4246  -14.6351  -17.0335 C   0  0  0  0  0  0  0  0  0  0  0  0
   23.1968  -14.1548  -17.4247 O   0  0  0  0  0  0  0  0  0  0  0  0
   25.1236  -15.2550  -17.8786 O   0  0  0  0  0  0  0  0  0  0  0  0
  2  1  1  1
  2  3  1  0
  4  2  1  0
  4  5  1  1
  6  8  1  0
  6  4  1  0
  7  6  2  0
  9 10  1  0
  9  8  1  0
 10 11  2  0
 13 12  1  6
 13 15  1  0
 14 13  1  0
 14 10  1  0
 15 17  2  0
 15 16  1  0
M  END
$$$$
