VGA.pdb
     RDKit          3D

 17 16  0  0  1  0  0  0  0  0999 V2000
   25.1876  -23.3353  -17.7193 C   0  0  0  0  0  0  0  0  0  0  0  0
   26.3443  -23.7687  -16.8321 C   0  0  1  0  0  0  0  0  0  0  0  0
   27.1907  -22.5831  -16.4163 C   0  0  0  0  0  0  0  0  0  0  0  0
   25.7617  -24.3627  -15.5615 C   0  0  2  0  0  0  0  0  0  0  0  0
   25.0059  -25.5507  -15.8087 N   0  0  0  0  0  0  0  0  0  0  0  0
   24.9073  -23.3639  -14.8945 C   0  0  0  0  0  0  0  0  0  0  0  0
   25.3616  -22.2848  -14.4018 O   0  0  0  0  0  0  0  0  0  0  0  0
   23.5055  -23.5708  -14.7714 N   0  0  0  0  0  0  0  0  0  0  0  0
   22.6544  -22.5307  -14.2342 C   0  0  0  0  0  0  0  0  0  0  0  0
   21.2638  -22.9893  -14.2391 C   0  0  0  0  0  0  0  0  0  0  0  0
   20.7688  -23.4939  -15.2614 O   0  0  0  0  0  0  0  0  0  0  0  0
   18.6655  -23.4838  -11.5780 C   0  0  0  0  0  0  0  0  0  0  0  0
   19.1655  -23.3784  -13.0101 C   0  0  2  0  0  0  0  0  0  0  0  0
   20.5015  -22.8429  -13.0530 N   0  0  0  0  0  0  0  0  0  0  0  0
   18.2630  -22.5270  -13.8168 C   0  0  0  0  0  0  0  0  0  0  0  0
   18.6590  -21.2549  -14.1576 O   0  0  0  0  0  0  0  0  0  0  0  0
   17.1343  -22.9289  -14.2064 O   0  0  0  0  0  0  0  0  0  0  0  0
  2  1  1  6
  2  3  1  0
  4  2  1  0
  4  5  1  6
  6  8  1  0
  6  4  1  0
  7  6  2  0
  9 10  1  0
  9  8  1  0
 10 11  2  0
 13 12  1  1
 13 15  1  0
 14 13  1  0
 14 10  1  0
 15 17  2  0
 15 16  1  0
M  END
$$$$
