VGA.pdb
     RDKit          3D

 17 16  0  0  1  0  0  0  0  0999 V2000
   14.4611  -16.7072  -14.6980 C   0  0  0  0  0  0  0  0  0  0  0  0
   15.1159  -15.6095  -15.5221 C   0  0  1  0  0  0  0  0  0  0  0  0
   14.0781  -14.7515  -16.2162 C   0  0  0  0  0  0  0  0  0  0  0  0
   15.8755  -14.7011  -14.5709 C   0  0  2  0  0  0  0  0  0  0  0  0
   15.0325  -14.1329  -13.5659 N   0  0  0  0  0  0  0  0  0  0  0  0
   16.5306  -13.6230  -15.3332 C   0  0  0  0  0  0  0  0  0  0  0  0
   17.4745  -13.8342  -16.1565 O   0  0  0  0  0  0  0  0  0  0  0  0
   16.1241  -12.2691  -15.1755 N   0  0  0  0  0  0  0  0  0  0  0  0
   16.7136  -11.2264  -15.9878 C   0  0  0  0  0  0  0  0  0  0  0  0
   17.0880  -10.0975  -15.1337 C   0  0  0  0  0  0  0  0  0  0  0  0
   16.6051   -9.9802  -13.9945 O   0  0  0  0  0  0  0  0  0  0  0  0
   19.5799   -7.2971  -15.3693 C   0  0  0  0  0  0  0  0  0  0  0  0
   18.3411   -7.9986  -14.8352 C   0  0  2  0  0  0  0  0  0  0  0  0
   18.0108   -9.1472  -15.6384 N   0  0  0  0  0  0  0  0  0  0  0  0
   17.1896   -7.0697  -14.7997 C   0  0  0  0  0  0  0  0  0  0  0  0
   17.1341   -6.0986  -13.8276 O   0  0  0  0  0  0  0  0  0  0  0  0
   16.2495   -7.1366  -15.6356 O   0  0  0  0  0  0  0  0  0  0  0  0
  2  1  1  1
  2  3  1  0
  4  2  1  0
  4  5  1  1
  6  8  1  0
  6  4  1  0
  7  6  2  0
  9 10  1  0
  9  8  1  0
 10 11  2  0
 13 12  1  6
 13 15  1  0
 14 13  1  0
 14 10  1  0
 15 17  2  0
 15 16  1  0
M  END
$$$$
