VGA.pdb
     RDKit          3D

 17 16  0  0  1  0  0  0  0  0999 V2000
   17.6159  -13.3143  -16.3631 C   0  0  0  0  0  0  0  0  0  0  0  0
   18.7930  -12.4106  -16.0304 C   0  0  1  0  0  0  0  0  0  0  0  0
   19.8985  -12.5498  -17.0569 C   0  0  0  0  0  0  0  0  0  0  0  0
   18.3102  -10.9720  -16.0935 C   0  0  2  0  0  0  0  0  0  0  0  0
   17.8698  -10.5990  -17.4014 N   0  0  0  0  0  0  0  0  0  0  0  0
   19.3904  -10.0678  -15.6598 C   0  0  0  0  0  0  0  0  0  0  0  0
   19.8759  -10.0846  -14.4861 O   0  0  0  0  0  0  0  0  0  0  0  0
   19.9478   -9.1160  -16.5578 N   0  0  0  0  0  0  0  0  0  0  0  0
   21.1318   -8.3681  -16.1927 C   0  0  0  0  0  0  0  0  0  0  0  0
   20.7448   -7.2062  -15.3899 C   0  0  0  0  0  0  0  0  0  0  0  0
   19.5484   -6.8915  -15.2703 O   0  0  0  0  0  0  0  0  0  0  0  0
   22.5146   -4.9318  -13.0017 C   0  0  0  0  0  0  0  0  0  0  0  0
   21.4011   -5.3064  -13.9670 C   0  0  2  0  0  0  0  0  0  0  0  0
   21.7658   -6.4542  -14.7563 N   0  0  0  0  0  0  0  0  0  0  0  0
   21.0807   -4.1708  -14.8603 C   0  0  0  0  0  0  0  0  0  0  0  0
   21.3890   -4.2549  -16.1978 O   0  0  0  0  0  0  0  0  0  0  0  0
   20.5305   -3.1199  -14.4361 O   0  0  0  0  0  0  0  0  0  0  0  0
  2  1  1  6
  2  3  1  0
  4  2  1  0
  4  5  1  6
  6  8  1  0
  6  4  1  0
  7  6  2  0
  9 10  1  0
  9  8  1  0
 10 11  2  0
 13 12  1  1
 13 15  1  0
 14 13  1  0
 14 10  1  0
 15 17  2  0
 15 16  1  0
M  END
$$$$
