VGA.pdb
     RDKit          3D

 17 16  0  0  1  0  0  0  0  0999 V2000
   26.1659  -21.0386   -9.5954 C   0  0  0  0  0  0  0  0  0  0  0  0
   25.9049  -20.8434  -11.0809 C   0  0  1  0  0  0  0  0  0  0  0  0
   26.0829  -22.1400  -11.8439 C   0  0  0  0  0  0  0  0  0  0  0  0
   24.4541  -20.4271  -11.2498 C   0  0  2  0  0  0  0  0  0  0  0  0
   23.5412  -21.4115  -10.7588 N   0  0  0  0  0  0  0  0  0  0  0  0
   24.1772  -20.1634  -12.6733 C   0  0  0  0  0  0  0  0  0  0  0  0
   24.7218  -19.2146  -13.3187 O   0  0  0  0  0  0  0  0  0  0  0  0
   23.2675  -20.9791  -13.4013 N   0  0  0  0  0  0  0  0  0  0  0  0
   23.0210  -20.7306  -14.8057 C   0  0  0  0  0  0  0  0  0  0  0  0
   21.6960  -20.1288  -14.9679 C   0  0  0  0  0  0  0  0  0  0  0  0
   20.8802  -20.1356  -14.0303 O   0  0  0  0  0  0  0  0  0  0  0  0
   20.0443  -18.0813  -17.6537 C   0  0  0  0  0  0  0  0  0  0  0  0
   20.0887  -18.9055  -16.3767 C   0  0  2  0  0  0  0  0  0  0  0  0
   21.3705  -19.5415  -16.2163 N   0  0  0  0  0  0  0  0  0  0  0  0
   19.0221  -19.9314  -16.3803 C   0  0  0  0  0  0  0  0  0  0  0  0
   17.7389  -19.5738  -16.0388 O   0  0  0  0  0  0  0  0  0  0  0  0
   19.2490  -21.1319  -16.6878 O   0  0  0  0  0  0  0  0  0  0  0  0
  2  1  1  1
  2  3  1  0
  4  2  1  0
  4  5  1  6
  6  8  1  0
  6  4  1  0
  7  6  2  0
  9 10  1  0
  9  8  1  0
 10 11  2  0
 13 12  1  6
 13 15  1  0
 14 13  1  0
 14 10  1  0
 15 17  2  0
 15 16  1  0
M  END
$$$$
