SST.pdb
     RDKit          3D

 20 19  0  0  1  0  0  0  0  0999 V2000
    7.1830  -17.3249   14.4656 O   0  0  0  0  0  0  0  0  0  0  0  0
    6.5114  -16.1642   14.1631 C   0  0  0  0  0  0  0  0  0  0  0  0
    7.4998  -15.0103   14.0328 C   0  0  2  0  0  0  0  0  0  0  0  0
    8.2424  -15.2015   12.8039 N   0  0  0  0  0  0  0  0  0  0  0  0
    8.3965  -14.9711   15.2150 C   0  0  0  0  0  0  0  0  0  0  0  0
    9.5755  -15.3840   15.0435 O   0  0  0  0  0  0  0  0  0  0  0  0
    7.0108  -13.7162   18.9515 O   0  0  0  0  0  0  0  0  0  0  0  0
    8.2720  -13.3336   18.5361 C   0  0  0  0  0  0  0  0  0  0  0  0
    8.8285  -14.3683   17.5656 C   0  0  2  0  0  0  0  0  0  0  0  0
    7.9095  -14.4894   16.4416 N   0  0  0  0  0  0  0  0  0  0  0  0
    8.9869  -15.6700   18.2520 C   0  0  0  0  0  0  0  0  0  0  0  0
    7.9692  -16.4495   18.2966 O   0  0  0  0  0  0  0  0  0  0  0  0
   11.2594  -18.7502   17.6695 C   0  0  0  0  0  0  0  0  0  0  0  0
   11.4928  -18.1556   19.0293 C   0  0  1  0  0  0  0  0  0  0  0  0
   12.6448  -17.3666   19.0636 O   0  0  0  0  0  0  0  0  0  0  0  0
   10.2820  -17.3724   19.5188 C   0  0  2  0  0  0  0  0  0  0  0  0
   10.2049  -16.0772   18.8500 N   0  0  0  0  0  0  0  0  0  0  0  0
   10.4871  -17.1328   20.9638 C   0  0  0  0  0  0  0  0  0  0  0  0
   10.3690  -18.1956   21.8361 O   0  0  0  0  0  0  0  0  0  0  0  0
   10.7658  -15.9970   21.4345 O   0  0  0  0  0  0  0  0  0  0  0  0
  2  1  1  0
  2  3  1  0
  3  5  1  0
  3  4  1  6
  5  6  2  0
  7  8  1  0
  9  8  1  1
 10  9  1  0
 10  5  1  0
 11 17  1  0
 11  9  1  0
 12 11  2  0
 14 13  1  6
 14 15  1  0
 14 16  1  0
 16 17  1  6
 18 16  1  0
 18 19  1  0
 20 18  2  0
M  END
$$$$
