SST.pdb
     RDKit          3D

 20 19  0  0  1  0  0  0  0  0999 V2000
    7.8676  -19.1715   13.5465 O   0  0  0  0  0  0  0  0  0  0  0  0
    6.7356  -18.3934   13.6021 C   0  0  0  0  0  0  0  0  0  0  0  0
    7.1098  -16.9547   13.9416 C   0  0  2  0  0  0  0  0  0  0  0  0
    7.6834  -16.3555   12.7541 N   0  0  0  0  0  0  0  0  0  0  0  0
    8.0600  -16.9303   15.0817 C   0  0  0  0  0  0  0  0  0  0  0  0
    9.2567  -16.6372   14.8134 O   0  0  0  0  0  0  0  0  0  0  0  0
    6.8292  -17.9211   18.9579 O   0  0  0  0  0  0  0  0  0  0  0  0
    7.7851  -16.9408   18.7716 C   0  0  0  0  0  0  0  0  0  0  0  0
    8.5500  -17.2087   17.4812 C   0  0  2  0  0  0  0  0  0  0  0  0
    7.6009  -17.2263   16.3761 N   0  0  0  0  0  0  0  0  0  0  0  0
    9.2631  -18.5022   17.5765 C   0  0  0  0  0  0  0  0  0  0  0  0
    8.6359  -19.5585   17.2080 O   0  0  0  0  0  0  0  0  0  0  0  0
   13.2081  -19.3576   16.6791 C   0  0  0  0  0  0  0  0  0  0  0  0
   12.7478  -19.7800   18.0454 C   0  0  1  0  0  0  0  0  0  0  0  0
   13.2139  -18.9203   19.0425 O   0  0  0  0  0  0  0  0  0  0  0  0
   11.2329  -19.9208   18.1127 C   0  0  2  0  0  0  0  0  0  0  0  0
   10.5932  -18.6101   18.0520 N   0  0  0  0  0  0  0  0  0  0  0  0
   10.9206  -20.5251   19.4260 C   0  0  0  0  0  0  0  0  0  0  0  0
   11.2680  -21.8417   19.6502 O   0  0  0  0  0  0  0  0  0  0  0  0
   10.3493  -19.8881   20.3518 O   0  0  0  0  0  0  0  0  0  0  0  0
  2  1  1  0
  2  3  1  0
  3  5  1  0
  3  4  1  6
  5  6  2  0
  7  8  1  0
  9  8  1  1
 10  9  1  0
 10  5  1  0
 11 17  1  0
 11  9  1  0
 12 11  2  0
 14 13  1  6
 14 15  1  0
 14 16  1  0
 16 17  1  1
 18 16  1  0
 18 19  1  0
 20 18  2  0
M  END
$$$$
