SST.pdb
     RDKit          3D

 20 19  0  0  1  0  0  0  0  0999 V2000
    6.9555  -18.8601   19.1909 O   0  0  0  0  0  0  0  0  0  0  0  0
    7.8135  -18.8866   18.1171 C   0  0  0  0  0  0  0  0  0  0  0  0
    8.2211  -17.4658   17.7421 C   0  0  2  0  0  0  0  0  0  0  0  0
    9.0985  -17.5470   16.5924 N   0  0  0  0  0  0  0  0  0  0  0  0
    8.8853  -16.8051   18.8934 C   0  0  0  0  0  0  0  0  0  0  0  0
   10.1271  -16.9899   19.0111 O   0  0  0  0  0  0  0  0  0  0  0  0
    6.7004  -14.8607   21.8887 O   0  0  0  0  0  0  0  0  0  0  0  0
    7.8753  -14.2850   21.4439 C   0  0  0  0  0  0  0  0  0  0  0  0
    8.7983  -15.3641   20.8912 C   0  0  2  0  0  0  0  0  0  0  0  0
    8.1256  -16.0234   19.7797 N   0  0  0  0  0  0  0  0  0  0  0  0
    9.1269  -16.3401   21.9543 C   0  0  0  0  0  0  0  0  0  0  0  0
    8.3413  -17.3420   22.1089 O   0  0  0  0  0  0  0  0  0  0  0  0
   11.5346  -18.9510   22.3047 C   0  0  0  0  0  0  0  0  0  0  0  0
   11.7780  -18.0160   23.4550 C   0  0  1  0  0  0  0  0  0  0  0  0
   12.8614  -17.1672   23.2178 O   0  0  0  0  0  0  0  0  0  0  0  0
   10.5296  -17.2189   23.8091 C   0  0  2  0  0  0  0  0  0  0  0  0
   10.2619  -16.2071   22.7917 N   0  0  0  0  0  0  0  0  0  0  0  0
   10.8158  -16.5256   25.0838 C   0  0  0  0  0  0  0  0  0  0  0  0
   10.9147  -17.2743   26.2389 O   0  0  0  0  0  0  0  0  0  0  0  0
   10.9739  -15.2773   25.1612 O   0  0  0  0  0  0  0  0  0  0  0  0
  2  1  1  0
  2  3  1  0
  3  5  1  0
  3  4  1  6
  5  6  2  0
  7  8  1  0
  9  8  1  1
 10  9  1  0
 10  5  1  0
 11 17  1  0
 11  9  1  0
 12 11  2  0
 14 13  1  6
 14 15  1  0
 14 16  1  0
 16 17  1  6
 18 16  1  0
 18 19  1  0
 20 18  2  0
M  END
$$$$
