SST.pdb
     RDKit          3D

 20 19  0  0  1  0  0  0  0  0999 V2000
   12.9528  -20.8704   18.7770 O   0  0  0  0  0  0  0  0  0  0  0  0
   11.5941  -20.8466   18.5692 C   0  0  0  0  0  0  0  0  0  0  0  0
   11.1727  -19.4795   18.0413 C   0  0  2  0  0  0  0  0  0  0  0  0
   11.7478  -19.3192   16.7215 N   0  0  0  0  0  0  0  0  0  0  0  0
   11.6245  -18.4130   18.9696 C   0  0  0  0  0  0  0  0  0  0  0  0
   12.7152  -17.8455   18.6897 O   0  0  0  0  0  0  0  0  0  0  0  0
    9.4208  -17.5063   22.3702 O   0  0  0  0  0  0  0  0  0  0  0  0
   10.1138  -16.4848   21.7491 C   0  0  0  0  0  0  0  0  0  0  0  0
   11.3137  -17.0575   21.0045 C   0  0  2  0  0  0  0  0  0  0  0  0
   10.8414  -18.0885   20.0899 N   0  0  0  0  0  0  0  0  0  0  0  0
   12.2841  -17.6215   21.9694 C   0  0  0  0  0  0  0  0  0  0  0  0
   12.1992  -18.8724   22.2398 O   0  0  0  0  0  0  0  0  0  0  0  0
   16.2209  -16.7538   22.0387 C   0  0  0  0  0  0  0  0  0  0  0  0
   15.5974  -16.7211   23.4051 C   0  0  1  0  0  0  0  0  0  0  0  0
   15.4299  -15.4154   23.8716 O   0  0  0  0  0  0  0  0  0  0  0  0
   14.2810  -17.4859   23.4438 C   0  0  2  0  0  0  0  0  0  0  0  0
   13.2873  -16.8390   22.5924 N   0  0  0  0  0  0  0  0  0  0  0  0
   13.7978  -17.4289   24.8404 C   0  0  0  0  0  0  0  0  0  0  0  0
   14.4868  -18.1284   25.8102 O   0  0  0  0  0  0  0  0  0  0  0  0
   12.7813  -16.7674   25.1845 O   0  0  0  0  0  0  0  0  0  0  0  0
  2  1  1  0
  2  3  1  0
  3  5  1  0
  3  4  1  6
  5  6  2  0
  7  8  1  0
  9  8  1  1
 10  9  1  0
 10  5  1  0
 11 17  1  0
 11  9  1  0
 12 11  2  0
 14 13  1  6
 14 15  1  0
 14 16  1  0
 16 17  1  6
 18 16  1  0
 18 19  1  0
 20 18  2  0
M  END
$$$$
