SST.pdb
     RDKit          3D

 20 19  0  0  1  0  0  0  0  0999 V2000
    7.2790  -13.5885   17.9367 O   0  0  0  0  0  0  0  0  0  0  0  0
    8.2271  -12.7070   18.3992 C   0  0  0  0  0  0  0  0  0  0  0  0
    9.3335  -13.4661   19.1237 C   0  0  2  0  0  0  0  0  0  0  0  0
    9.8159  -14.5009   18.2323 N   0  0  0  0  0  0  0  0  0  0  0  0
    8.8152  -14.0338   20.3935 C   0  0  0  0  0  0  0  0  0  0  0  0
    7.5849  -14.3078   20.4290 O   0  0  0  0  0  0  0  0  0  0  0  0
    7.8258  -16.8370   22.2143 O   0  0  0  0  0  0  0  0  0  0  0  0
    8.8300  -16.4936   21.3293 C   0  0  0  0  0  0  0  0  0  0  0  0
    9.8334  -15.5792   22.0215 C   0  0  2  0  0  0  0  0  0  0  0  0
    9.6910  -14.2370   21.4731 N   0  0  0  0  0  0  0  0  0  0  0  0
   11.2078  -16.0858   21.8093 C   0  0  0  0  0  0  0  0  0  0  0  0
   11.4305  -17.3263   22.0474 O   0  0  0  0  0  0  0  0  0  0  0  0
   13.0155  -15.9927   18.5405 C   0  0  0  0  0  0  0  0  0  0  0  0
   13.9462  -15.4369   19.5806 C   0  0  1  0  0  0  0  0  0  0  0  0
   14.0565  -14.0474   19.4937 O   0  0  0  0  0  0  0  0  0  0  0  0
   13.5428  -15.8640   20.9856 C   0  0  2  0  0  0  0  0  0  0  0  0
   12.2671  -15.2603   21.3584 N   0  0  0  0  0  0  0  0  0  0  0  0
   14.5822  -15.3462   21.9016 C   0  0  0  0  0  0  0  0  0  0  0  0
   15.8504  -15.8869   21.8399 O   0  0  0  0  0  0  0  0  0  0  0  0
   14.3595  -14.4301   22.7384 O   0  0  0  0  0  0  0  0  0  0  0  0
  2  1  1  0
  2  3  1  0
  3  5  1  0
  3  4  1  6
  5  6  2  0
  7  8  1  0
  9  8  1  6
 10  9  1  0
 10  5  1  0
 11 17  1  0
 11  9  1  0
 12 11  2  0
 14 13  1  6
 14 15  1  0
 14 16  1  0
 16 17  1  1
 18 16  1  0
 18 19  1  0
 20 18  2  0
M  END
$$$$
