SST.pdb
     RDKit          3D

 20 19  0  0  1  0  0  0  0  0999 V2000
    8.8328  -20.4888   16.2132 O   0  0  0  0  0  0  0  0  0  0  0  0
    9.4621  -19.6114   17.0642 C   0  0  0  0  0  0  0  0  0  0  0  0
    8.9609  -18.1934   16.8128 C   0  0  2  0  0  0  0  0  0  0  0  0
    9.6994  -17.6567   15.6882 N   0  0  0  0  0  0  0  0  0  0  0  0
    9.1400  -17.3656   18.0318 C   0  0  0  0  0  0  0  0  0  0  0  0
   10.2064  -16.6971   18.1087 O   0  0  0  0  0  0  0  0  0  0  0  0
    6.4452  -17.5639   21.2175 O   0  0  0  0  0  0  0  0  0  0  0  0
    6.9720  -16.3336   20.8732 C   0  0  0  0  0  0  0  0  0  0  0  0
    8.3262  -16.5252   20.2013 C   0  0  2  0  0  0  0  0  0  0  0  0
    8.1433  -17.3606   19.0218 N   0  0  0  0  0  0  0  0  0  0  0  0
    9.2734  -17.1579   21.1463 C   0  0  0  0  0  0  0  0  0  0  0  0
    9.5913  -18.3836   20.9426 O   0  0  0  0  0  0  0  0  0  0  0  0
   13.1053  -17.0883   24.0407 C   0  0  0  0  0  0  0  0  0  0  0  0
   12.1616  -16.5371   23.0099 C   0  0  1  0  0  0  0  0  0  0  0  0
   12.6618  -16.6810   21.7139 O   0  0  0  0  0  0  0  0  0  0  0  0
   10.7734  -17.1518   23.1288 C   0  0  2  0  0  0  0  0  0  0  0  0
    9.8321  -16.4658   22.2491 N   0  0  0  0  0  0  0  0  0  0  0  0
   10.3345  -16.9423   24.5255 C   0  0  0  0  0  0  0  0  0  0  0  0
   10.8113  -17.7894   25.5052 O   0  0  0  0  0  0  0  0  0  0  0  0
    9.5417  -16.0214   24.8610 O   0  0  0  0  0  0  0  0  0  0  0  0
  2  1  1  0
  2  3  1  0
  3  5  1  0
  3  4  1  6
  5  6  2  0
  7  8  1  0
  9  8  1  1
 10  9  1  0
 10  5  1  0
 11 17  1  0
 11  9  1  0
 12 11  2  0
 14 13  1  1
 14 15  1  0
 14 16  1  0
 16 17  1  6
 18 16  1  0
 18 19  1  0
 20 18  2  0
M  END
$$$$
