IQV.pdb
     RDKit          3D

 25 24  0  0  1  0  0  0  0  0999 V2000
   28.7243  -17.3962  -17.3443 C   0  0  0  0  0  0  0  0  0  0  0  0
   28.9602  -18.5181  -16.3736 C   0  0  0  0  0  0  0  0  0  0  0  0
   27.6503  -18.9840  -15.8117 C   0  0  2  0  0  0  0  0  0  0  0  0
   27.0106  -17.8072  -15.1192 C   0  0  0  0  0  0  0  0  0  0  0  0
   27.8273  -20.1737  -14.9537 C   0  0  2  0  0  0  0  0  0  0  0  0
   28.5393  -21.2479  -15.6053 N   0  0  0  0  0  0  0  0  0  0  0  0
   26.6011  -20.6936  -14.3485 C   0  0  0  0  0  0  0  0  0  0  0  0
   25.8318  -21.5226  -14.9123 O   0  0  0  0  0  0  0  0  0  0  0  0
   25.3178  -20.3424   -8.1943 N   0  0  0  0  0  0  0  0  0  0  0  0
   26.5193  -20.7032   -8.8648 C   0  0  0  0  0  0  0  0  0  0  0  0
   27.5694  -20.7628   -8.1659 O   0  0  0  0  0  0  0  0  0  0  0  0
   26.5035  -20.9890  -10.3166 C   0  0  0  0  0  0  0  0  0  0  0  0
   25.1647  -20.5493  -10.8685 C   0  0  0  0  0  0  0  0  0  0  0  0
   25.0775  -20.8200  -12.3559 C   0  0  2  0  0  0  0  0  0  0  0  0
   26.2271  -20.2601  -13.0544 N   0  0  0  0  0  0  0  0  0  0  0  0
   23.8325  -20.3047  -12.9376 C   0  0  0  0  0  0  0  0  0  0  0  0
   23.6990  -19.0578  -13.1277 O   0  0  0  0  0  0  0  0  0  0  0  0
   21.4009  -22.7363  -15.1125 C   0  0  0  0  0  0  0  0  0  0  0  0
   21.3385  -21.2502  -15.2441 C   0  0  1  0  0  0  0  0  0  0  0  0
   20.0992  -20.7391  -15.9073 C   0  0  0  0  0  0  0  0  0  0  0  0
   21.5058  -20.5577  -13.8843 C   0  0  2  0  0  0  0  0  0  0  0  0
   22.7298  -21.1107  -13.3174 N   0  0  0  0  0  0  0  0  0  0  0  0
   20.3315  -20.8587  -13.0448 C   0  0  0  0  0  0  0  0  0  0  0  0
   20.4140  -21.7916  -12.2241 O   0  0  0  0  0  0  0  0  0  0  0  0
   19.1374  -20.1567  -13.1204 O   0  0  0  0  0  0  0  0  0  0  0  0
  2  1  1  0
  3  2  1  0
  3  5  1  0
  3  4  1  1
  5  6  1  6
  7  5  1  0
  7  8  2  0
 10  9  1  0
 10 12  1  0
 11 10  2  0
 13 12  1  0
 14 13  1  1
 15 14  1  0
 15  7  1  0
 16 14  1  0
 17 16  2  0
 19 18  1  1
 19 21  1  0
 20 19  1  0
 21 22  1  1
 21 23  1  0
 22 16  1  0
 23 25  1  0
 24 23  2  0
M  END
$$$$
