IQV.pdb
     RDKit          3D

 25 24  0  0  1  0  0  0  0  0999 V2000
   29.6221  -22.3647  -17.0160 C   0  0  0  0  0  0  0  0  0  0  0  0
   28.4014  -21.6506  -17.5225 C   0  0  0  0  0  0  0  0  0  0  0  0
   27.5646  -21.1964  -16.3640 C   0  0  2  0  0  0  0  0  0  0  0  0
   27.1910  -22.4212  -15.5677 C   0  0  0  0  0  0  0  0  0  0  0  0
   26.4129  -20.3896  -16.8177 C   0  0  2  0  0  0  0  0  0  0  0  0
   26.7909  -19.2680  -17.6451 N   0  0  0  0  0  0  0  0  0  0  0  0
   25.5132  -19.9361  -15.7570 C   0  0  0  0  0  0  0  0  0  0  0  0
   25.6762  -18.8681  -15.1016 O   0  0  0  0  0  0  0  0  0  0  0  0
   19.4680  -20.7329  -15.6768 N   0  0  0  0  0  0  0  0  0  0  0  0
   19.6572  -20.1377  -14.3988 C   0  0  0  0  0  0  0  0  0  0  0  0
   18.6185  -19.8003  -13.7648 O   0  0  0  0  0  0  0  0  0  0  0  0
   21.0234  -19.9376  -13.8667 C   0  0  0  0  0  0  0  0  0  0  0  0
   22.0091  -20.4391  -14.8996 C   0  0  0  0  0  0  0  0  0  0  0  0
   23.4322  -20.3036  -14.3999 C   0  0  2  0  0  0  0  0  0  0  0  0
   24.3838  -20.7199  -15.4216 N   0  0  0  0  0  0  0  0  0  0  0  0
   23.6559  -21.0602  -13.1623 C   0  0  0  0  0  0  0  0  0  0  0  0
   23.5892  -22.3267  -13.1818 O   0  0  0  0  0  0  0  0  0  0  0  0
   26.4577  -20.8633  -10.5828 C   0  0  0  0  0  0  0  0  0  0  0  0
   25.1626  -20.6680   -9.8657 C   0  0  1  0  0  0  0  0  0  0  0  0
   24.8649  -19.2482   -9.5014 C   0  0  0  0  0  0  0  0  0  0  0  0
   23.9847  -21.2415  -10.6657 C   0  0  2  0  0  0  0  0  0  0  0  0
   23.9501  -20.4746  -11.9052 N   0  0  0  0  0  0  0  0  0  0  0  0
   22.7458  -21.0714   -9.8845 C   0  0  0  0  0  0  0  0  0  0  0  0
   21.9622  -20.1594  -10.2084 O   0  0  0  0  0  0  0  0  0  0  0  0
   22.4057  -21.8746   -8.8058 O   0  0  0  0  0  0  0  0  0  0  0  0
  2  1  1  0
  3  2  1  0
  3  5  1  0
  3  4  1  6
  5  6  1  1
  7  5  1  0
  7  8  2  0
 10  9  1  0
 10 12  1  0
 11 10  2  0
 13 12  1  0
 14 13  1  6
 15 14  1  0
 15  7  1  0
 16 14  1  0
 17 16  2  0
 19 18  1  6
 19 21  1  0
 20 19  1  0
 21 22  1  6
 21 23  1  0
 22 16  1  0
 23 25  1  0
 24 23  2  0
M  END
$$$$
