IQV.pdb
     RDKit          3D

 25 24  0  0  1  0  0  0  0  0999 V2000
   25.2165  -33.4542  -13.5631 C   0  0  0  0  0  0  0  0  0  0  0  0
   25.2441  -34.5309  -12.5159 C   0  0  0  0  0  0  0  0  0  0  0  0
   25.2817  -33.9084  -11.1521 C   0  0  2  0  0  0  0  0  0  0  0  0
   26.4786  -32.9926  -11.1053 C   0  0  0  0  0  0  0  0  0  0  0  0
   25.2596  -34.9373  -10.0919 C   0  0  2  0  0  0  0  0  0  0  0  0
   24.1256  -35.8269  -10.1818 N   0  0  0  0  0  0  0  0  0  0  0  0
   25.3764  -34.4272   -8.7258 C   0  0  0  0  0  0  0  0  0  0  0  0
   26.3797  -33.7932   -8.2922 O   0  0  0  0  0  0  0  0  0  0  0  0
   20.7839  -34.8194   -4.3920 N   0  0  0  0  0  0  0  0  0  0  0  0
   21.8293  -34.2057   -3.6477 C   0  0  0  0  0  0  0  0  0  0  0  0
   21.5893  -33.9376   -2.4373 O   0  0  0  0  0  0  0  0  0  0  0  0
   23.1269  -33.9088   -4.2940 C   0  0  0  0  0  0  0  0  0  0  0  0
   23.0568  -34.3816   -5.7299 C   0  0  0  0  0  0  0  0  0  0  0  0
   24.3788  -34.1645   -6.4360 C   0  0  2  0  0  0  0  0  0  0  0  0
   24.3180  -34.6416   -7.8113 N   0  0  0  0  0  0  0  0  0  0  0  0
   25.4934  -34.8048   -5.7276 C   0  0  0  0  0  0  0  0  0  0  0  0
   25.6452  -36.0617   -5.8048 O   0  0  0  0  0  0  0  0  0  0  0  0
   29.2050  -33.8383   -5.8894 C   0  0  0  0  0  0  0  0  0  0  0  0
   28.7658  -33.8666   -4.4625 C   0  0  1  0  0  0  0  0  0  0  0  0
   28.4645  -32.5219   -3.8810 C   0  0  0  0  0  0  0  0  0  0  0  0
   27.5517  -34.7851   -4.2658 C   0  0  2  0  0  0  0  0  0  0  0  0
   26.4463  -34.1131   -4.9381 N   0  0  0  0  0  0  0  0  0  0  0  0
   27.2974  -34.9419   -2.8219 C   0  0  0  0  0  0  0  0  0  0  0  0
   26.3291  -34.3389   -2.3224 O   0  0  0  0  0  0  0  0  0  0  0  0
   28.0806  -35.7270   -1.9884 O   0  0  0  0  0  0  0  0  0  0  0  0
  2  1  1  0
  3  2  1  0
  3  5  1  0
  3  4  1  6
  5  6  1  1
  7  5  1  0
  7  8  2  0
 10  9  1  0
 10 12  1  0
 11 10  2  0
 13 12  1  0
 14 13  1  1
 15 14  1  0
 15  7  1  0
 16 14  1  0
 17 16  2  0
 19 18  1  6
 19 21  1  0
 20 19  1  0
 21 22  1  6
 21 23  1  0
 22 16  1  0
 23 25  1  0
 24 23  2  0
M  END
$$$$
