IQV.pdb
     RDKit          3D

 25 24  0  0  1  0  0  0  0  0999 V2000
   19.9854  -13.4954  -20.6959 C   0  0  0  0  0  0  0  0  0  0  0  0
   20.8159  -13.0518  -19.5254 C   0  0  0  0  0  0  0  0  0  0  0  0
   20.3635  -11.6968  -19.0694 C   0  0  2  0  0  0  0  0  0  0  0  0
   20.3945  -10.7822  -20.2678 C   0  0  0  0  0  0  0  0  0  0  0  0
   21.1623  -11.2230  -17.9203 C   0  0  2  0  0  0  0  0  0  0  0  0
   21.3074  -12.2120  -16.8781 N   0  0  0  0  0  0  0  0  0  0  0  0
   20.7235   -9.9554  -17.3366 C   0  0  0  0  0  0  0  0  0  0  0  0
   20.6265   -8.8753  -17.9853 O   0  0  0  0  0  0  0  0  0  0  0  0
   16.2388   -9.0200  -12.8560 N   0  0  0  0  0  0  0  0  0  0  0  0
   16.5450   -9.9187  -13.9152 C   0  0  0  0  0  0  0  0  0  0  0  0
   15.9745  -11.0451  -13.8934 O   0  0  0  0  0  0  0  0  0  0  0  0
   17.4937   -9.5193  -14.9783 C   0  0  0  0  0  0  0  0  0  0  0  0
   18.7768   -9.0641  -14.3177 C   0  0  0  0  0  0  0  0  0  0  0  0
   19.8210   -8.7053  -15.3541 C   0  0  2  0  0  0  0  0  0  0  0  0
   20.3808   -9.9039  -15.9647 N   0  0  0  0  0  0  0  0  0  0  0  0
   20.8937   -7.8765  -14.7914 C   0  0  0  0  0  0  0  0  0  0  0  0
   21.8547   -8.4294  -14.1755 O   0  0  0  0  0  0  0  0  0  0  0  0
   23.4146   -6.2028  -16.3753 C   0  0  0  0  0  0  0  0  0  0  0  0
   22.7868   -5.1157  -15.5667 C   0  0  1  0  0  0  0  0  0  0  0  0
   21.8570   -4.2312  -16.3349 C   0  0  0  0  0  0  0  0  0  0  0  0
   22.0517   -5.6785  -14.3422 C   0  0  2  0  0  0  0  0  0  0  0  0
   20.9473   -6.4627  -14.8817 N   0  0  0  0  0  0  0  0  0  0  0  0
   21.5708   -4.5574  -13.5139 C   0  0  0  0  0  0  0  0  0  0  0  0
   20.3685   -4.2411  -13.5862 O   0  0  0  0  0  0  0  0  0  0  0  0
   22.3877   -3.8347  -12.6567 O   0  0  0  0  0  0  0  0  0  0  0  0
  2  1  1  0
  3  2  1  0
  3  5  1  0
  3  4  1  6
  5  6  1  1
  7  5  1  0
  7  8  2  0
 10  9  1  0
 10 12  1  0
 11 10  2  0
 13 12  1  0
 14 13  1  1
 15 14  1  0
 15  7  1  0
 16 14  1  0
 17 16  2  0
 19 18  1  6
 19 21  1  0
 20 19  1  0
 21 22  1  6
 21 23  1  0
 22 16  1  0
 23 25  1  0
 24 23  2  0
M  END
$$$$
