IQV.pdb
     RDKit          3D

 25 24  0  0  1  0  0  0  0  0999 V2000
   17.2209  -16.4637  -17.2734 C   0  0  0  0  0  0  0  0  0  0  0  0
   18.1591  -16.0039  -18.3528 C   0  0  0  0  0  0  0  0  0  0  0  0
   18.9991  -14.8709  -17.8433 C   0  0  2  0  0  0  0  0  0  0  0  0
   18.0617  -13.7768  -17.3986 C   0  0  0  0  0  0  0  0  0  0  0  0
   19.9963  -14.4481  -18.8482 C   0  0  2  0  0  0  0  0  0  0  0  0
   20.8289  -15.5305  -19.3182 N   0  0  0  0  0  0  0  0  0  0  0  0
   20.8369  -13.3174  -18.4546 C   0  0  0  0  0  0  0  0  0  0  0  0
   21.9288  -13.4333  -17.8292 O   0  0  0  0  0  0  0  0  0  0  0  0
   20.9566   -7.8882  -21.4302 N   0  0  0  0  0  0  0  0  0  0  0  0
   21.9206   -7.6630  -20.4088 C   0  0  0  0  0  0  0  0  0  0  0  0
   22.6104   -6.6087  -20.4948 O   0  0  0  0  0  0  0  0  0  0  0  0
   22.0815   -8.6406  -19.3096 C   0  0  0  0  0  0  0  0  0  0  0  0
   21.1299   -9.7904  -19.5592 C   0  0  0  0  0  0  0  0  0  0  0  0
   21.2551  -10.8410  -18.4757 C   0  0  2  0  0  0  0  0  0  0  0  0
   20.4287  -12.0020  -18.7793 N   0  0  0  0  0  0  0  0  0  0  0  0
   20.9131  -10.3097  -17.1510 C   0  0  0  0  0  0  0  0  0  0  0  0
   19.6956  -10.2229  -16.8061 O   0  0  0  0  0  0  0  0  0  0  0  0
   22.0497  -11.4798  -13.7742 C   0  0  0  0  0  0  0  0  0  0  0  0
   22.3744  -10.0256  -13.8733 C   0  0  1  0  0  0  0  0  0  0  0  0
   23.8072   -9.7314  -14.1858 C   0  0  0  0  0  0  0  0  0  0  0  0
   21.4783   -9.3179  -14.8991 C   0  0  2  0  0  0  0  0  0  0  0  0
   21.8612   -9.8708  -16.1927 N   0  0  0  0  0  0  0  0  0  0  0  0
   21.7260   -7.8658  -14.8320 C   0  0  0  0  0  0  0  0  0  0  0  0
   21.2879   -7.2353  -13.8516 O   0  0  0  0  0  0  0  0  0  0  0  0
   22.4224   -7.1632  -15.8045 O   0  0  0  0  0  0  0  0  0  0  0  0
  2  1  1  0
  3  2  1  0
  3  5  1  0
  3  4  1  6
  5  6  1  1
  7  5  1  0
  7  8  2  0
 10  9  1  0
 10 12  1  0
 11 10  2  0
 13 12  1  0
 14 13  1  6
 15 14  1  0
 15  7  1  0
 16 14  1  0
 17 16  2  0
 19 18  1  6
 19 21  1  0
 20 19  1  0
 21 22  1  6
 21 23  1  0
 22 16  1  0
 23 25  1  0
 24 23  2  0
M  END
$$$$
