IQV.pdb
     RDKit          3D

 25 24  0  0  1  0  0  0  0  0999 V2000
   18.6563  -15.1162  -17.1594 C   0  0  0  0  0  0  0  0  0  0  0  0
   18.7352  -13.7843  -17.8496 C   0  0  0  0  0  0  0  0  0  0  0  0
   19.5518  -12.8352  -17.0243 C   0  0  2  0  0  0  0  0  0  0  0  0
   18.9062  -12.7468  -15.6645 C   0  0  0  0  0  0  0  0  0  0  0  0
   19.7158  -11.5350  -17.7068 C   0  0  2  0  0  0  0  0  0  0  0  0
   20.0952  -11.6615  -19.0945 N   0  0  0  0  0  0  0  0  0  0  0  0
   20.6084  -10.5883  -17.0381 C   0  0  0  0  0  0  0  0  0  0  0  0
   20.5389  -10.2993  -15.8100 O   0  0  0  0  0  0  0  0  0  0  0  0
   25.2167   -7.3868  -19.9704 N   0  0  0  0  0  0  0  0  0  0  0  0
   25.3419   -6.9147  -18.6345 C   0  0  0  0  0  0  0  0  0  0  0  0
   26.2361   -6.0508  -18.4138 O   0  0  0  0  0  0  0  0  0  0  0  0
   24.4480   -7.4339  -17.5756 C   0  0  0  0  0  0  0  0  0  0  0  0
   23.4916   -8.4209  -18.2090 C   0  0  0  0  0  0  0  0  0  0  0  0
   22.5042   -8.9480  -17.1890 C   0  0  2  0  0  0  0  0  0  0  0  0
   21.6203   -9.9406  -17.7857 N   0  0  0  0  0  0  0  0  0  0  0  0
   21.7157   -7.8713  -16.5780 C   0  0  0  0  0  0  0  0  0  0  0  0
   20.7518   -7.3575  -17.2227 O   0  0  0  0  0  0  0  0  0  0  0  0
   21.3778   -7.4847  -12.5720 C   0  0  0  0  0  0  0  0  0  0  0  0
   20.4330   -6.8262  -13.5226 C   0  0  1  0  0  0  0  0  0  0  0  0
   19.5738   -5.7677  -12.9075 C   0  0  0  0  0  0  0  0  0  0  0  0
   21.1718   -6.2369  -14.7322 C   0  0  2  0  0  0  0  0  0  0  0  0
   21.9491   -7.3398  -15.2846 N   0  0  0  0  0  0  0  0  0  0  0  0
   22.0380   -5.1346  -14.2753 C   0  0  0  0  0  0  0  0  0  0  0  0
   23.2308   -5.3856  -14.0203 O   0  0  0  0  0  0  0  0  0  0  0  0
   21.5943   -3.8302  -14.1139 O   0  0  0  0  0  0  0  0  0  0  0  0
  2  1  1  0
  3  2  1  0
  3  5  1  0
  3  4  1  1
  5  6  1  6
  7  5  1  0
  7  8  2  0
 10  9  1  0
 10 12  1  0
 11 10  2  0
 13 12  1  0
 14 13  1  6
 15 14  1  0
 15  7  1  0
 16 14  1  0
 17 16  2  0
 19 18  1  1
 19 21  1  0
 20 19  1  0
 21 22  1  1
 21 23  1  0
 22 16  1  0
 23 25  1  0
 24 23  2  0
M  END
$$$$
