EYH.pdb
     RDKit          3D

 32 33  0  0  1  0  0  0  0  0999 V2000
   27.6181  -22.0002  -18.9475 N   0  0  0  0  0  0  0  0  0  0  0  0
   28.0492  -21.0814  -17.9123 C   0  0  1  0  0  0  0  0  0  0  0  0
   27.9302  -19.6803  -18.4626 C   0  0  0  0  0  0  0  0  0  0  0  0
   26.9195  -19.7200  -19.5935 C   0  0  0  0  0  0  0  0  0  0  0  0
   27.1340  -18.6567  -20.5906 C   0  0  0  0  0  0  0  0  0  0  0  0
   27.0488  -17.4534  -20.1858 O   0  0  0  0  0  0  0  0  0  0  0  0
   27.2029  -21.2913  -16.7137 C   0  0  0  0  0  0  0  0  0  0  0  0
   26.1291  -21.9033  -16.7926 O   0  0  0  0  0  0  0  0  0  0  0  0
   27.4200  -18.8674  -21.9274 O   0  0  0  0  0  0  0  0  0  0  0  0
   24.1650  -20.5883   -8.3536 O   0  0  0  0  0  0  0  0  0  0  0  0
   24.9605  -20.5781   -9.5014 C   0  0  0  0  0  0  0  0  0  0  0  0
   25.1074  -21.6837  -10.3195 C   0  0  0  0  0  0  0  0  0  0  0  0
   25.8945  -21.6498  -11.4420 C   0  0  0  0  0  0  0  0  0  0  0  0
   26.5614  -20.5218  -11.7921 C   0  0  0  0  0  0  0  0  0  0  0  0
   27.4351  -20.4141  -13.0032 C   0  0  0  0  0  0  0  0  0  0  0  0
   26.8055  -20.9363  -14.2518 C   0  0  2  0  0  0  0  0  0  0  0  0
   27.5746  -20.8103  -15.4402 N   0  0  0  0  0  0  0  0  0  0  0  0
   25.5372  -20.1892  -14.4277 C   0  0  0  0  0  0  0  0  0  0  0  0
   25.5729  -19.0398  -14.9251 O   0  0  0  0  0  0  0  0  0  0  0  0
   26.4279  -19.4060  -10.9879 C   0  0  0  0  0  0  0  0  0  0  0  0
   25.6286  -19.4230   -9.8383 C   0  0  0  0  0  0  0  0  0  0  0  0
   24.2722  -20.7017  -14.0629 N   0  0  0  0  0  0  0  0  0  0  0  0
   23.0167  -19.9636  -14.2816 C   0  0  1  0  0  0  0  0  0  0  0  0
   22.8071  -19.7030  -15.7477 C   0  0  0  0  0  0  0  0  0  0  0  0
   21.5589  -18.9724  -15.9478 C   0  0  0  0  0  0  0  0  0  0  0  0
   21.1481  -17.8165  -15.3007 C   0  0  0  0  0  0  0  0  0  0  0  0
   19.9387  -17.4572  -15.7609 N   0  0  0  0  0  0  0  0  0  0  0  0
   19.5889  -18.3638  -16.6794 C   0  0  0  0  0  0  0  0  0  0  0  0
   20.5727  -19.2821  -16.7916 N   0  0  0  0  0  0  0  0  0  0  0  0
   21.9422  -20.7426  -13.6441 C   0  0  0  0  0  0  0  0  0  0  0  0
   21.8355  -22.1084  -13.8357 O   0  0  0  0  0  0  0  0  0  0  0  0
   21.0992  -20.1764  -12.9122 O   0  0  0  0  0  0  0  0  0  0  0  0
  2  1  1  6
  2  3  1  0
  4  3  1  0
  5  6  2  0
  5  4  1  0
  7  2  1  0
  8  7  2  0
  9  5  1  0
 10 11  1  0
 11 12  2  0
 12 13  1  0
 14 15  1  0
 14 13  2  0
 16 15  1  1
 16 17  1  0
 17  7  1  0
 18 16  1  0
 19 18  2  0
 20 14  1  0
 21 20  2  0
 21 11  1  0
 22 18  1  0
 23 22  1  0
 23 24  1  6
 24 25  1  0
 25 29  1  0
 26 25  2  0
 26 27  1  0
 27 28  1  0
 29 28  2  0
 30 31  1  0
 30 23  1  0
 32 30  2  0
M  END
$$$$
