EYH.pdb
     RDKit          3D

 32 33  0  0  1  0  0  0  0  0999 V2000
   26.9389  -11.0248  -18.6283 N   0  0  0  0  0  0  0  0  0  0  0  0
   26.8724  -10.0821  -17.5289 C   0  0  1  0  0  0  0  0  0  0  0  0
   27.5448   -8.8062  -17.9761 C   0  0  0  0  0  0  0  0  0  0  0  0
   29.0158   -9.1154  -18.1826 C   0  0  0  0  0  0  0  0  0  0  0  0
   29.8037   -7.9276  -18.5557 C   0  0  0  0  0  0  0  0  0  0  0  0
   29.1678   -6.8402  -18.7353 O   0  0  0  0  0  0  0  0  0  0  0  0
   25.4490   -9.8751  -17.1711 C   0  0  0  0  0  0  0  0  0  0  0  0
   24.5745   -9.8214  -18.0464 O   0  0  0  0  0  0  0  0  0  0  0  0
   31.1764   -7.9058  -18.7241 O   0  0  0  0  0  0  0  0  0  0  0  0
   17.8310   -9.9094  -12.6742 O   0  0  0  0  0  0  0  0  0  0  0  0
   19.1754   -9.9831  -13.0448 C   0  0  0  0  0  0  0  0  0  0  0  0
   19.5995  -10.6168  -14.1989 C   0  0  0  0  0  0  0  0  0  0  0  0
   20.9259  -10.6763  -14.5422 C   0  0  0  0  0  0  0  0  0  0  0  0
   21.8757  -10.1114  -13.7559 C   0  0  0  0  0  0  0  0  0  0  0  0
   23.3393  -10.1373  -14.0704 C   0  0  0  0  0  0  0  0  0  0  0  0
   23.6818   -9.5606  -15.4039 C   0  0  2  0  0  0  0  0  0  0  0  0
   25.0260   -9.7309  -15.8326 N   0  0  0  0  0  0  0  0  0  0  0  0
   23.3919   -8.1091  -15.3216 C   0  0  0  0  0  0  0  0  0  0  0  0
   24.1466   -7.3763  -14.6410 O   0  0  0  0  0  0  0  0  0  0  0  0
   21.4728   -9.4734  -12.5982 C   0  0  0  0  0  0  0  0  0  0  0  0
   20.1229   -9.4032  -12.2323 C   0  0  0  0  0  0  0  0  0  0  0  0
   22.3003   -7.4928  -15.9731 N   0  0  0  0  0  0  0  0  0  0  0  0
   21.9795   -6.0638  -15.8187 C   0  0  1  0  0  0  0  0  0  0  0  0
   22.1540   -5.3404  -17.1255 C   0  0  0  0  0  0  0  0  0  0  0  0
   21.8547   -3.9221  -16.9506 C   0  0  0  0  0  0  0  0  0  0  0  0
   22.6691   -2.9547  -16.3806 C   0  0  0  0  0  0  0  0  0  0  0  0
   22.0334   -1.7720  -16.4017 N   0  0  0  0  0  0  0  0  0  0  0  0
   20.8424   -1.9826  -16.9718 C   0  0  0  0  0  0  0  0  0  0  0  0
   20.7356   -3.2872  -17.3042 N   0  0  0  0  0  0  0  0  0  0  0  0
   20.6202   -5.9854  -15.2586 C   0  0  0  0  0  0  0  0  0  0  0  0
   20.2036   -4.8803  -14.5383 O   0  0  0  0  0  0  0  0  0  0  0  0
   19.8118   -6.9264  -15.4256 O   0  0  0  0  0  0  0  0  0  0  0  0
  2  1  1  6
  2  3  1  0
  4  3  1  0
  5  6  2  0
  5  4  1  0
  7  2  1  0
  8  7  2  0
  9  5  1  0
 10 11  1  0
 11 12  2  0
 12 13  1  0
 14 15  1  0
 14 13  2  0
 16 15  1  1
 16 17  1  0
 17  7  1  0
 18 16  1  0
 19 18  2  0
 20 14  1  0
 21 20  2  0
 21 11  1  0
 22 18  1  0
 23 22  1  0
 23 24  1  6
 24 25  1  0
 25 29  1  0
 26 25  2  0
 26 27  1  0
 27 28  1  0
 29 28  2  0
 30 31  1  0
 30 23  1  0
 32 30  2  0
M  END
$$$$
