EYH.pdb
     RDKit          3D

 32 33  0  0  1  0  0  0  0  0999 V2000
   24.2028  -12.9956  -19.6569 N   0  0  0  0  0  0  0  0  0  0  0  0
   23.7127  -11.6323  -19.7094 C   0  0  1  0  0  0  0  0  0  0  0  0
   22.3965  -11.6451  -20.4495 C   0  0  0  0  0  0  0  0  0  0  0  0
   22.7007  -11.8985  -21.9142 C   0  0  0  0  0  0  0  0  0  0  0  0
   23.1699  -10.6924  -22.6185 C   0  0  0  0  0  0  0  0  0  0  0  0
   22.4489   -9.6479  -22.5278 O   0  0  0  0  0  0  0  0  0  0  0  0
   23.5762  -11.1268  -18.3227 C   0  0  0  0  0  0  0  0  0  0  0  0
   23.2934  -11.8929  -17.3915 O   0  0  0  0  0  0  0  0  0  0  0  0
   24.3302  -10.6106  -23.3669 O   0  0  0  0  0  0  0  0  0  0  0  0
   29.5928  -11.6264  -16.2066 O   0  0  0  0  0  0  0  0  0  0  0  0
   28.4450  -10.8313  -16.2343 C   0  0  0  0  0  0  0  0  0  0  0  0
   28.2668   -9.8067  -17.1463 C   0  0  0  0  0  0  0  0  0  0  0  0
   27.1305   -9.0389  -17.1543 C   0  0  0  0  0  0  0  0  0  0  0  0
   26.1338   -9.2594  -16.2611 C   0  0  0  0  0  0  0  0  0  0  0  0
   24.8675   -8.4618  -16.2142 C   0  0  0  0  0  0  0  0  0  0  0  0
   23.6663   -9.2047  -16.6973 C   0  0  2  0  0  0  0  0  0  0  0  0
   23.7595   -9.7654  -17.9997 N   0  0  0  0  0  0  0  0  0  0  0  0
   22.5394   -8.2418  -16.6762 C   0  0  0  0  0  0  0  0  0  0  0  0
   22.4163   -7.4297  -17.6223 O   0  0  0  0  0  0  0  0  0  0  0  0
   26.2924  -10.2784  -15.3414 C   0  0  0  0  0  0  0  0  0  0  0  0
   27.4459  -11.0720  -15.3190 C   0  0  0  0  0  0  0  0  0  0  0  0
   21.5820   -8.1830  -15.6390 N   0  0  0  0  0  0  0  0  0  0  0  0
   20.4091   -7.2935  -15.6825 C   0  0  1  0  0  0  0  0  0  0  0  0
   19.2357   -7.9347  -14.9943 C   0  0  0  0  0  0  0  0  0  0  0  0
   18.7331   -9.0431  -15.8008 C   0  0  0  0  0  0  0  0  0  0  0  0
   18.7181   -9.1372  -17.1845 C   0  0  0  0  0  0  0  0  0  0  0  0
   18.1717  -10.3105  -17.5428 N   0  0  0  0  0  0  0  0  0  0  0  0
   17.8469  -10.9475  -16.4129 C   0  0  0  0  0  0  0  0  0  0  0  0
   18.1881  -10.1775  -15.3572 N   0  0  0  0  0  0  0  0  0  0  0  0
   20.8232   -6.0054  -15.1021 C   0  0  0  0  0  0  0  0  0  0  0  0
   20.0296   -4.8783  -15.2170 O   0  0  0  0  0  0  0  0  0  0  0  0
   21.9109   -5.9077  -14.4902 O   0  0  0  0  0  0  0  0  0  0  0  0
  2  1  1  1
  2  3  1  0
  4  3  1  0
  5  6  2  0
  5  4  1  0
  7  2  1  0
  8  7  2  0
  9  5  1  0
 10 11  1  0
 11 12  2  0
 12 13  1  0
 14 15  1  0
 14 13  2  0
 16 15  1  6
 16 17  1  0
 17  7  1  0
 18 16  1  0
 19 18  2  0
 20 14  1  0
 21 20  2  0
 21 11  1  0
 22 18  1  0
 23 22  1  0
 23 24  1  1
 24 25  1  0
 25 29  1  0
 26 25  2  0
 26 27  1  0
 27 28  1  0
 29 28  2  0
 30 31  1  0
 30 23  1  0
 32 30  2  0
M  END
$$$$
