EYH.pdb
     RDKit          3D

 32 33  0  0  1  0  0  0  0  0999 V2000
   27.5358  -22.9133  -17.8007 N   0  0  0  0  0  0  0  0  0  0  0  0
   27.8947  -21.7476  -17.0170 C   0  0  1  0  0  0  0  0  0  0  0  0
   27.6838  -20.5288  -17.8832 C   0  0  0  0  0  0  0  0  0  0  0  0
   26.3912  -20.7341  -18.6507 C   0  0  0  0  0  0  0  0  0  0  0  0
   26.1219  -19.6554  -19.6175 C   0  0  0  0  0  0  0  0  0  0  0  0
   24.9464  -19.5860  -20.0996 O   0  0  0  0  0  0  0  0  0  0  0  0
   27.0556  -21.7245  -15.7954 C   0  0  0  0  0  0  0  0  0  0  0  0
   25.9714  -22.3220  -15.7571 O   0  0  0  0  0  0  0  0  0  0  0  0
   27.0465  -18.7166  -20.0380 O   0  0  0  0  0  0  0  0  0  0  0  0
   24.2804  -20.3046   -7.5138 O   0  0  0  0  0  0  0  0  0  0  0  0
   25.0516  -20.2844   -8.6780 C   0  0  0  0  0  0  0  0  0  0  0  0
   25.4122  -19.1113   -9.3161 C   0  0  0  0  0  0  0  0  0  0  0  0
   26.1705  -19.1165  -10.4587 C   0  0  0  0  0  0  0  0  0  0  0  0
   26.5968  -20.2814  -11.0073 C   0  0  0  0  0  0  0  0  0  0  0  0
   27.4276  -20.3604  -12.2504 C   0  0  0  0  0  0  0  0  0  0  0  0
   26.7345  -21.0115  -13.4010 C   0  0  2  0  0  0  0  0  0  0  0  0
   27.4460  -21.0295  -14.6310 N   0  0  0  0  0  0  0  0  0  0  0  0
   25.4646  -20.2730  -13.5998 C   0  0  0  0  0  0  0  0  0  0  0  0
   25.4686  -19.2354  -14.3020 O   0  0  0  0  0  0  0  0  0  0  0  0
   26.2472  -21.4647  -10.3851 C   0  0  0  0  0  0  0  0  0  0  0  0
   25.4737  -21.4779   -9.2179 C   0  0  0  0  0  0  0  0  0  0  0  0
   24.2322  -20.6736  -13.0372 N   0  0  0  0  0  0  0  0  0  0  0  0
   22.9653  -19.9714  -13.3035 C   0  0  1  0  0  0  0  0  0  0  0  0
   22.6038  -20.0708  -14.7598 C   0  0  0  0  0  0  0  0  0  0  0  0
   21.3548  -19.3574  -15.0103 C   0  0  0  0  0  0  0  0  0  0  0  0
   20.4825  -18.8327  -14.0681 C   0  0  0  0  0  0  0  0  0  0  0  0
   19.4463  -18.2550  -14.6972 N   0  0  0  0  0  0  0  0  0  0  0  0
   19.6550  -18.4087  -16.0090 C   0  0  0  0  0  0  0  0  0  0  0  0
   20.8131  -19.0776  -16.1972 N   0  0  0  0  0  0  0  0  0  0  0  0
   21.9592  -20.5359  -12.3887 C   0  0  0  0  0  0  0  0  0  0  0  0
   21.9118  -21.8926  -12.1231 O   0  0  0  0  0  0  0  0  0  0  0  0
   21.1217  -19.7907  -11.8319 O   0  0  0  0  0  0  0  0  0  0  0  0
  2  1  1  6
  2  3  1  0
  4  3  1  0
  5  6  2  0
  5  4  1  0
  7  2  1  0
  8  7  2  0
  9  5  1  0
 10 11  1  0
 11 12  2  0
 12 13  1  0
 14 15  1  0
 14 13  2  0
 16 15  1  1
 16 17  1  0
 17  7  1  0
 18 16  1  0
 19 18  2  0
 20 14  1  0
 21 20  2  0
 21 11  1  0
 22 18  1  0
 23 22  1  0
 23 24  1  6
 24 25  1  0
 25 29  1  0
 26 25  2  0
 26 27  1  0
 27 28  1  0
 29 28  2  0
 30 31  1  0
 30 23  1  0
 32 30  2  0
M  END
$$$$
