EYH.pdb
     RDKit          3D

 32 33  0  0  1  0  0  0  0  0999 V2000
   25.4957  -12.7973  -19.6770 N   0  0  0  0  0  0  0  0  0  0  0  0
   24.2371  -12.1052  -19.4804 C   0  0  1  0  0  0  0  0  0  0  0  0
   23.1243  -13.0814  -19.7784 C   0  0  0  0  0  0  0  0  0  0  0  0
   22.7346  -12.8966  -21.2331 C   0  0  0  0  0  0  0  0  0  0  0  0
   21.4736  -13.5760  -21.5787 C   0  0  0  0  0  0  0  0  0  0  0  0
   21.5607  -14.7185  -22.1319 O   0  0  0  0  0  0  0  0  0  0  0  0
   24.1889  -11.6017  -18.0871 C   0  0  0  0  0  0  0  0  0  0  0  0
   24.4009  -12.3583  -17.1297 O   0  0  0  0  0  0  0  0  0  0  0  0
   20.2083  -13.0676  -21.3475 O   0  0  0  0  0  0  0  0  0  0  0  0
   30.0244  -11.4174  -16.4456 O   0  0  0  0  0  0  0  0  0  0  0  0
   28.7939  -10.7596  -16.3851 C   0  0  0  0  0  0  0  0  0  0  0  0
   28.4219   -9.7840  -17.2924 C   0  0  0  0  0  0  0  0  0  0  0  0
   27.2077   -9.1515  -17.2127 C   0  0  0  0  0  0  0  0  0  0  0  0
   26.3221   -9.4631  -16.2337 C   0  0  0  0  0  0  0  0  0  0  0  0
   24.9805   -8.8145  -16.0886 C   0  0  0  0  0  0  0  0  0  0  0  0
   23.8388   -9.6913  -16.4832 C   0  0  2  0  0  0  0  0  0  0  0  0
   23.9028  -10.2529  -17.7871 N   0  0  0  0  0  0  0  0  0  0  0  0
   22.6159   -8.8590  -16.3861 C   0  0  0  0  0  0  0  0  0  0  0  0
   22.3321   -8.0836  -17.3284 O   0  0  0  0  0  0  0  0  0  0  0  0
   26.6747  -10.4352  -15.3171 C   0  0  0  0  0  0  0  0  0  0  0  0
   27.9102  -11.0910  -15.3835 C   0  0  0  0  0  0  0  0  0  0  0  0
   21.7383   -8.8871  -15.2793 N   0  0  0  0  0  0  0  0  0  0  0  0
   20.5172   -8.0671  -15.2056 C   0  0  1  0  0  0  0  0  0  0  0  0
   19.4971   -8.7199  -14.3141 C   0  0  0  0  0  0  0  0  0  0  0  0
   18.8744   -9.8412  -15.0117 C   0  0  0  0  0  0  0  0  0  0  0  0
   19.0112  -10.1798  -16.3498 C   0  0  0  0  0  0  0  0  0  0  0  0
   18.2767  -11.2742  -16.6070 N   0  0  0  0  0  0  0  0  0  0  0  0
   17.6866  -11.6233  -15.4590 C   0  0  0  0  0  0  0  0  0  0  0  0
   18.0502  -10.7531  -14.4924 N   0  0  0  0  0  0  0  0  0  0  0  0
   20.9276   -6.7207  -14.7736 C   0  0  0  0  0  0  0  0  0  0  0  0
   20.2750   -5.5902  -15.2316 O   0  0  0  0  0  0  0  0  0  0  0  0
   21.8831   -6.5754  -13.9782 O   0  0  0  0  0  0  0  0  0  0  0  0
  2  1  1  1
  2  3  1  0
  4  3  1  0
  5  6  2  0
  5  4  1  0
  7  2  1  0
  8  7  2  0
  9  5  1  0
 10 11  1  0
 11 12  2  0
 12 13  1  0
 14 15  1  0
 14 13  2  0
 16 15  1  6
 16 17  1  0
 17  7  1  0
 18 16  1  0
 19 18  2  0
 20 14  1  0
 21 20  2  0
 21 11  1  0
 22 18  1  0
 23 22  1  0
 23 24  1  1
 24 25  1  0
 25 29  1  0
 26 25  2  0
 26 27  1  0
 27 28  1  0
 29 28  2  0
 30 31  1  0
 30 23  1  0
 32 30  2  0
M  END
$$$$
