EYH.pdb
     RDKit          3D

 32 33  0  0  1  0  0  0  0  0999 V2000
   24.1089  -10.8139  -18.4538 N   0  0  0  0  0  0  0  0  0  0  0  0
   23.9692   -9.3861  -18.2452 C   0  0  1  0  0  0  0  0  0  0  0  0
   23.7620   -8.7424  -19.5954 C   0  0  0  0  0  0  0  0  0  0  0  0
   25.0491   -8.9095  -20.3813 C   0  0  0  0  0  0  0  0  0  0  0  0
   25.0059  -10.0483  -21.3153 C   0  0  0  0  0  0  0  0  0  0  0  0
   24.7814   -9.7881  -22.5403 O   0  0  0  0  0  0  0  0  0  0  0  0
   22.8288   -9.1533  -17.3274 C   0  0  0  0  0  0  0  0  0  0  0  0
   21.6873   -9.5324  -17.6226 O   0  0  0  0  0  0  0  0  0  0  0  0
   25.1906  -11.3727  -20.9619 O   0  0  0  0  0  0  0  0  0  0  0  0
   21.3250  -14.6365  -14.5470 O   0  0  0  0  0  0  0  0  0  0  0  0
   21.5405  -13.2680  -14.3700 C   0  0  0  0  0  0  0  0  0  0  0  0
   22.7752  -12.7425  -14.0345 C   0  0  0  0  0  0  0  0  0  0  0  0
   22.9627  -11.3945  -13.8658 C   0  0  0  0  0  0  0  0  0  0  0  0
   21.9358  -10.5226  -14.0236 C   0  0  0  0  0  0  0  0  0  0  0  0
   22.0698   -9.0408  -13.8566 C   0  0  0  0  0  0  0  0  0  0  0  0
   21.9571   -8.2755  -15.1333 C   0  0  2  0  0  0  0  0  0  0  0  0
   22.9860   -8.4968  -16.0882 N   0  0  0  0  0  0  0  0  0  0  0  0
   21.9548   -6.8397  -14.7644 C   0  0  0  0  0  0  0  0  0  0  0  0
   23.0487   -6.2603  -14.5709 O   0  0  0  0  0  0  0  0  0  0  0  0
   20.6939  -11.0275  -14.3587 C   0  0  0  0  0  0  0  0  0  0  0  0
   20.4846  -12.4008  -14.5347 C   0  0  0  0  0  0  0  0  0  0  0  0
   20.7771   -6.0738  -14.6154 N   0  0  0  0  0  0  0  0  0  0  0  0
   20.7897   -4.6096  -14.4578 C   0  0  1  0  0  0  0  0  0  0  0  0
   21.6145   -3.9701  -15.5405 C   0  0  0  0  0  0  0  0  0  0  0  0
   21.5888   -2.5180  -15.3908 C   0  0  0  0  0  0  0  0  0  0  0  0
   22.0869   -1.7727  -14.3324 C   0  0  0  0  0  0  0  0  0  0  0  0
   21.8676   -0.4687  -14.5669 N   0  0  0  0  0  0  0  0  0  0  0  0
   21.2445   -0.3869  -15.7472 C   0  0  0  0  0  0  0  0  0  0  0  0
   21.0761   -1.6308  -16.2456 N   0  0  0  0  0  0  0  0  0  0  0  0
   19.3856   -4.1677  -14.4237 C   0  0  0  0  0  0  0  0  0  0  0  0
   19.0072   -3.0326  -13.7296 O   0  0  0  0  0  0  0  0  0  0  0  0
   18.5028   -4.8185  -15.0270 O   0  0  0  0  0  0  0  0  0  0  0  0
  2  1  1  6
  2  3  1  0
  4  3  1  0
  5  6  2  0
  5  4  1  0
  7  2  1  0
  8  7  2  0
  9  5  1  0
 10 11  1  0
 11 12  2  0
 12 13  1  0
 14 15  1  0
 14 13  2  0
 16 15  1  1
 16 17  1  0
 17  7  1  0
 18 16  1  0
 19 18  2  0
 20 14  1  0
 21 20  2  0
 21 11  1  0
 22 18  1  0
 23 22  1  0
 23 24  1  6
 24 25  1  0
 25 29  1  0
 26 25  2  0
 26 27  1  0
 27 28  1  0
 29 28  2  0
 30 31  1  0
 30 23  1  0
 32 30  2  0
M  END
$$$$
