EYH.pdb
     RDKit          3D

 32 33  0  0  1  0  0  0  0  0999 V2000
   23.5968  -13.4270  -23.4375 N   0  0  0  0  0  0  0  0  0  0  0  0
   22.4311  -14.2832  -23.5361 C   0  0  1  0  0  0  0  0  0  0  0  0
   22.8991  -15.7132  -23.4091 C   0  0  0  0  0  0  0  0  0  0  0  0
   23.5700  -15.8539  -22.0555 C   0  0  0  0  0  0  0  0  0  0  0  0
   24.0738  -17.2156  -21.8050 C   0  0  0  0  0  0  0  0  0  0  0  0
   24.2740  -17.9578  -22.8189 O   0  0  0  0  0  0  0  0  0  0  0  0
   21.4764  -13.9042  -22.4675 C   0  0  0  0  0  0  0  0  0  0  0  0
   21.8384  -13.2093  -21.5083 O   0  0  0  0  0  0  0  0  0  0  0  0
   24.3445  -17.7451  -20.5562 O   0  0  0  0  0  0  0  0  0  0  0  0
   20.6432   -7.7495  -22.3583 O   0  0  0  0  0  0  0  0  0  0  0  0
   20.0482   -9.0110  -22.2881 C   0  0  0  0  0  0  0  0  0  0  0  0
   19.9474   -9.8522  -23.3815 C   0  0  0  0  0  0  0  0  0  0  0  0
   19.3585  -11.0872  -23.2883 C   0  0  0  0  0  0  0  0  0  0  0  0
   18.8504  -11.5304  -22.1114 C   0  0  0  0  0  0  0  0  0  0  0  0
   18.1965  -12.8661  -21.9382 C   0  0  0  0  0  0  0  0  0  0  0  0
   19.1372  -13.9524  -21.5344 C   0  0  2  0  0  0  0  0  0  0  0  0
   20.1255  -14.3115  -22.4904 N   0  0  0  0  0  0  0  0  0  0  0  0
   18.3044  -15.1441  -21.2446 C   0  0  0  0  0  0  0  0  0  0  0  0
   18.0344  -15.9378  -22.1756 O   0  0  0  0  0  0  0  0  0  0  0  0
   18.9410  -10.7049  -21.0069 C   0  0  0  0  0  0  0  0  0  0  0  0
   19.5389   -9.4410  -21.0841 C   0  0  0  0  0  0  0  0  0  0  0  0
   17.7888  -15.4433  -19.9638 N   0  0  0  0  0  0  0  0  0  0  0  0
   16.8986  -16.5882  -19.7072 C   0  0  1  0  0  0  0  0  0  0  0  0
   17.4527  -17.4503  -18.6066 C   0  0  0  0  0  0  0  0  0  0  0  0
   18.6262  -18.1739  -19.0871 C   0  0  0  0  0  0  0  0  0  0  0  0
   18.7215  -18.9602  -20.2258 C   0  0  0  0  0  0  0  0  0  0  0  0
   19.9659  -19.4564  -20.3185 N   0  0  0  0  0  0  0  0  0  0  0  0
   20.6461  -18.9962  -19.2633 C   0  0  0  0  0  0  0  0  0  0  0  0
   19.8321  -18.2184  -18.5174 N   0  0  0  0  0  0  0  0  0  0  0  0
   15.5599  -16.0402  -19.4330 C   0  0  0  0  0  0  0  0  0  0  0  0
   15.3950  -14.7479  -18.9680 O   0  0  0  0  0  0  0  0  0  0  0  0
   14.5394  -16.7415  -19.6169 O   0  0  0  0  0  0  0  0  0  0  0  0
  2  1  1  1
  2  3  1  0
  4  3  1  0
  5  6  2  0
  5  4  1  0
  7  2  1  0
  8  7  2  0
  9  5  1  0
 10 11  1  0
 11 12  2  0
 12 13  1  0
 14 15  1  0
 14 13  2  0
 16 15  1  6
 16 17  1  0
 17  7  1  0
 18 16  1  0
 19 18  2  0
 20 14  1  0
 21 20  2  0
 21 11  1  0
 22 18  1  0
 23 22  1  0
 23 24  1  1
 24 25  1  0
 25 29  1  0
 26 25  2  0
 26 27  1  0
 27 28  1  0
 29 28  2  0
 30 31  1  0
 30 23  1  0
 32 30  2  0
M  END
$$$$
