EYH.pdb
     RDKit          3D

 32 33  0  0  1  0  0  0  0  0999 V2000
   20.7580  -13.6126  -16.8832 N   0  0  0  0  0  0  0  0  0  0  0  0
   19.7634  -13.3203  -17.8966 C   0  0  1  0  0  0  0  0  0  0  0  0
   18.7795  -14.4656  -17.9188 C   0  0  0  0  0  0  0  0  0  0  0  0
   19.5596  -15.7407  -17.6585 C   0  0  0  0  0  0  0  0  0  0  0  0
   20.1323  -16.3221  -18.8853 C   0  0  0  0  0  0  0  0  0  0  0  0
   19.9103  -15.7096  -19.9782 O   0  0  0  0  0  0  0  0  0  0  0  0
   19.1183  -12.0277  -17.5648 C   0  0  0  0  0  0  0  0  0  0  0  0
   18.2033  -11.5751  -18.2660 O   0  0  0  0  0  0  0  0  0  0  0  0
   20.8899  -17.4781  -18.9376 O   0  0  0  0  0  0  0  0  0  0  0  0
   13.2743  -13.0183  -14.8777 O   0  0  0  0  0  0  0  0  0  0  0  0
   14.4944  -12.3412  -14.8205 C   0  0  0  0  0  0  0  0  0  0  0  0
   15.6762  -12.9592  -14.4534 C   0  0  0  0  0  0  0  0  0  0  0  0
   16.8628  -12.2734  -14.4044 C   0  0  0  0  0  0  0  0  0  0  0  0
   16.9193  -10.9547  -14.7168 C   0  0  0  0  0  0  0  0  0  0  0  0
   18.1790  -10.1460  -14.6862 C   0  0  0  0  0  0  0  0  0  0  0  0
   18.8791  -10.0667  -16.0022 C   0  0  2  0  0  0  0  0  0  0  0  0
   19.5102  -11.2594  -16.4479 N   0  0  0  0  0  0  0  0  0  0  0  0
   19.9086   -9.0085  -15.8680 C   0  0  0  0  0  0  0  0  0  0  0  0
   21.0680   -9.3295  -15.5179 O   0  0  0  0  0  0  0  0  0  0  0  0
   15.7495  -10.3185  -15.0860 C   0  0  0  0  0  0  0  0  0  0  0  0
   14.5292  -11.0033  -15.1413 C   0  0  0  0  0  0  0  0  0  0  0  0
   19.6583   -7.6401  -16.1141 N   0  0  0  0  0  0  0  0  0  0  0  0
   20.6894   -6.5990  -15.9665 C   0  0  1  0  0  0  0  0  0  0  0  0
   20.4017   -5.4392  -16.8795 C   0  0  0  0  0  0  0  0  0  0  0  0
   21.3990   -4.3917  -16.6794 C   0  0  0  0  0  0  0  0  0  0  0  0
   22.7646   -4.5540  -16.4993 C   0  0  0  0  0  0  0  0  0  0  0  0
   23.3374   -3.3492  -16.3453 N   0  0  0  0  0  0  0  0  0  0  0  0
   22.3585   -2.4418  -16.4257 C   0  0  0  0  0  0  0  0  0  0  0  0
   21.1834   -3.0758  -16.6285 N   0  0  0  0  0  0  0  0  0  0  0  0
   20.7453   -6.2472  -14.5379 C   0  0  0  0  0  0  0  0  0  0  0  0
   21.9519   -6.0128  -13.9033 O   0  0  0  0  0  0  0  0  0  0  0  0
   19.6922   -6.1546  -13.8676 O   0  0  0  0  0  0  0  0  0  0  0  0
  2  1  1  1
  2  3  1  0
  4  3  1  0
  5  6  2  0
  5  4  1  0
  7  2  1  0
  8  7  2  0
  9  5  1  0
 10 11  1  0
 11 12  2  0
 12 13  1  0
 14 15  1  0
 14 13  2  0
 16 15  1  1
 16 17  1  0
 17  7  1  0
 18 16  1  0
 19 18  2  0
 20 14  1  0
 21 20  2  0
 21 11  1  0
 22 18  1  0
 23 22  1  0
 23 24  1  6
 24 25  1  0
 25 29  1  0
 26 25  2  0
 26 27  1  0
 27 28  1  0
 29 28  2  0
 30 31  1  0
 30 23  1  0
 32 30  2  0
M  END
$$$$
