EYH.pdb
     RDKit          3D

 32 33  0  0  1  0  0  0  0  0999 V2000
   22.9978  -13.2860  -17.9831 N   0  0  0  0  0  0  0  0  0  0  0  0
   22.6757  -11.9283  -18.3761 C   0  0  1  0  0  0  0  0  0  0  0  0
   21.2370  -11.9114  -18.8344 C   0  0  0  0  0  0  0  0  0  0  0  0
   20.5097  -13.0160  -18.0908 C   0  0  0  0  0  0  0  0  0  0  0  0
   19.1810  -12.6019  -17.6071 C   0  0  0  0  0  0  0  0  0  0  0  0
   18.3796  -12.1049  -18.4612 O   0  0  0  0  0  0  0  0  0  0  0  0
   22.9100  -11.0342  -17.2173 C   0  0  0  0  0  0  0  0  0  0  0  0
   22.8050  -11.4557  -16.0574 O   0  0  0  0  0  0  0  0  0  0  0  0
   18.7415  -12.7129  -16.3003 O   0  0  0  0  0  0  0  0  0  0  0  0
   29.1074  -11.9194  -16.2156 O   0  0  0  0  0  0  0  0  0  0  0  0
   28.0594  -10.9966  -16.1960 C   0  0  0  0  0  0  0  0  0  0  0  0
   27.3896  -10.6499  -15.0365 C   0  0  0  0  0  0  0  0  0  0  0  0
   26.3630   -9.7407  -15.0420 C   0  0  0  0  0  0  0  0  0  0  0  0
   25.9655   -9.1448  -16.1937 C   0  0  0  0  0  0  0  0  0  0  0  0
   24.8550   -8.1436  -16.2720 C   0  0  0  0  0  0  0  0  0  0  0  0
   23.4933   -8.7532  -16.3221 C   0  0  2  0  0  0  0  0  0  0  0  0
   23.2596   -9.6764  -17.3768 N   0  0  0  0  0  0  0  0  0  0  0  0
   22.5343   -7.6305  -16.4549 C   0  0  0  0  0  0  0  0  0  0  0  0
   22.5713   -6.9185  -17.4851 O   0  0  0  0  0  0  0  0  0  0  0  0
   26.6218   -9.4775  -17.3634 C   0  0  0  0  0  0  0  0  0  0  0  0
   27.6720  -10.4037  -17.3761 C   0  0  0  0  0  0  0  0  0  0  0  0
   21.5674   -7.3098  -15.4761 N   0  0  0  0  0  0  0  0  0  0  0  0
   20.3935   -6.4662  -15.7576 C   0  0  1  0  0  0  0  0  0  0  0  0
   19.6184   -7.0141  -16.9240 C   0  0  0  0  0  0  0  0  0  0  0  0
   18.4794   -6.1475  -17.2131 C   0  0  0  0  0  0  0  0  0  0  0  0
   17.1385   -6.4158  -16.9815 C   0  0  0  0  0  0  0  0  0  0  0  0
   16.4009   -5.3697  -17.3880 N   0  0  0  0  0  0  0  0  0  0  0  0
   17.2533   -4.4575  -17.8669 C   0  0  0  0  0  0  0  0  0  0  0  0
   18.5136   -4.9308  -17.7600 N   0  0  0  0  0  0  0  0  0  0  0  0
   19.6217   -6.3707  -14.5074 C   0  0  0  0  0  0  0  0  0  0  0  0
   19.8992   -7.1906  -13.4284 O   0  0  0  0  0  0  0  0  0  0  0  0
   18.6926   -5.5388  -14.3996 O   0  0  0  0  0  0  0  0  0  0  0  0
  2  1  1  1
  2  3  1  0
  4  3  1  0
  5  6  2  0
  5  4  1  0
  7  2  1  0
  8  7  2  0
  9  5  1  0
 10 11  1  0
 11 12  2  0
 12 13  1  0
 14 15  1  0
 14 13  2  0
 16 15  1  6
 16 17  1  0
 17  7  1  0
 18 16  1  0
 19 18  2  0
 20 14  1  0
 21 20  2  0
 21 11  1  0
 22 18  1  0
 23 22  1  0
 23 24  1  6
 24 25  1  0
 25 29  1  0
 26 25  2  0
 26 27  1  0
 27 28  1  0
 29 28  2  0
 30 31  1  0
 30 23  1  0
 32 30  2  0
M  END
$$$$
