EYH.pdb
     RDKit          3D

 32 33  0  0  1  0  0  0  0  0999 V2000
   25.9498  -22.2927  -19.2831 N   0  0  0  0  0  0  0  0  0  0  0  0
   25.4550  -22.2793  -17.9205 C   0  0  1  0  0  0  0  0  0  0  0  0
   24.4322  -21.1737  -17.8138 C   0  0  0  0  0  0  0  0  0  0  0  0
   24.8388  -20.0823  -18.7863 C   0  0  0  0  0  0  0  0  0  0  0  0
   23.7649  -19.1034  -19.0299 C   0  0  0  0  0  0  0  0  0  0  0  0
   23.9780  -18.2137  -19.9142 O   0  0  0  0  0  0  0  0  0  0  0  0
   24.8812  -23.6113  -17.6145 C   0  0  0  0  0  0  0  0  0  0  0  0
   24.7419  -24.4631  -18.5028 O   0  0  0  0  0  0  0  0  0  0  0  0
   22.5479  -19.0794  -18.3730 O   0  0  0  0  0  0  0  0  0  0  0  0
   29.1947  -28.7194  -17.4653 O   0  0  0  0  0  0  0  0  0  0  0  0
   28.1470  -28.0268  -16.8545 C   0  0  0  0  0  0  0  0  0  0  0  0
   28.2164  -26.6782  -16.5545 C   0  0  0  0  0  0  0  0  0  0  0  0
   27.1741  -26.0192  -15.9543 C   0  0  0  0  0  0  0  0  0  0  0  0
   26.0298  -26.6720  -15.6315 C   0  0  0  0  0  0  0  0  0  0  0  0
   24.8540  -26.0154  -14.9774 C   0  0  0  0  0  0  0  0  0  0  0  0
   23.9882  -25.2471  -15.9201 C   0  0  2  0  0  0  0  0  0  0  0  0
   24.4709  -23.9695  -16.3127 N   0  0  0  0  0  0  0  0  0  0  0  0
   22.6813  -25.0715  -15.2428 C   0  0  0  0  0  0  0  0  0  0  0  0
   22.6113  -24.3203  -14.2425 O   0  0  0  0  0  0  0  0  0  0  0  0
   25.9405  -28.0198  -15.9228 C   0  0  0  0  0  0  0  0  0  0  0  0
   26.9948  -28.7084  -16.5353 C   0  0  0  0  0  0  0  0  0  0  0  0
   21.4925  -25.7090  -15.6626 N   0  0  0  0  0  0  0  0  0  0  0  0
   20.2183  -25.5852  -14.9346 C   0  0  1  0  0  0  0  0  0  0  0  0
   19.0981  -26.2042  -15.7242 C   0  0  0  0  0  0  0  0  0  0  0  0
   17.8408  -26.0624  -14.9955 C   0  0  0  0  0  0  0  0  0  0  0  0
   17.6559  -26.1035  -13.6215 C   0  0  0  0  0  0  0  0  0  0  0  0
   16.3525  -25.9366  -13.3448 N   0  0  0  0  0  0  0  0  0  0  0  0
   15.7233  -25.7927  -14.5159 C   0  0  0  0  0  0  0  0  0  0  0  0
   16.6275  -25.8692  -15.5161 N   0  0  0  0  0  0  0  0  0  0  0  0
   20.4231  -26.1798  -13.6034 C   0  0  0  0  0  0  0  0  0  0  0  0
   19.9024  -25.5893  -12.4660 O   0  0  0  0  0  0  0  0  0  0  0  0
   21.0786  -27.2388  -13.4775 O   0  0  0  0  0  0  0  0  0  0  0  0
  2  1  1  6
  2  3  1  0
  4  3  1  0
  5  6  2  0
  5  4  1  0
  7  2  1  0
  8  7  2  0
  9  5  1  0
 10 11  1  0
 11 12  2  0
 12 13  1  0
 14 15  1  0
 14 13  2  0
 16 15  1  1
 16 17  1  0
 17  7  1  0
 18 16  1  0
 19 18  2  0
 20 14  1  0
 21 20  2  0
 21 11  1  0
 22 18  1  0
 23 22  1  0
 23 24  1  6
 24 25  1  0
 25 29  1  0
 26 25  2  0
 26 27  1  0
 27 28  1  0
 29 28  2  0
 30 31  1  0
 30 23  1  0
 32 30  2  0
M  END
$$$$
