EYH.pdb
     RDKit          3D

 32 33  0  0  1  0  0  0  0  0999 V2000
   46.8873  -13.1916   -7.4700 N   0  0  0  0  0  0  0  0  0  0  0  0
   46.4727  -11.9216   -8.0330 C   0  0  1  0  0  0  0  0  0  0  0  0
   46.8571  -11.9188   -9.4933 C   0  0  0  0  0  0  0  0  0  0  0  0
   47.2896  -13.3281   -9.8526 C   0  0  0  0  0  0  0  0  0  0  0  0
   47.6815  -13.4638  -11.2664 C   0  0  0  0  0  0  0  0  0  0  0  0
   48.0315  -14.6203  -11.6649 O   0  0  0  0  0  0  0  0  0  0  0  0
   45.0116  -11.7721   -7.8331 C   0  0  0  0  0  0  0  0  0  0  0  0
   44.2735  -12.7646   -7.7697 O   0  0  0  0  0  0  0  0  0  0  0  0
   47.6970  -12.4332  -12.1887 O   0  0  0  0  0  0  0  0  0  0  0  0
   44.3272   -9.3139   -1.3470 O   0  0  0  0  0  0  0  0  0  0  0  0
   43.9335   -9.2379   -2.6848 C   0  0  0  0  0  0  0  0  0  0  0  0
   44.6737   -8.5729   -3.6457 C   0  0  0  0  0  0  0  0  0  0  0  0
   44.2666   -8.5117   -4.9538 C   0  0  0  0  0  0  0  0  0  0  0  0
   43.1150   -9.1058   -5.3543 C   0  0  0  0  0  0  0  0  0  0  0  0
   42.6123   -9.0799   -6.7644 C   0  0  0  0  0  0  0  0  0  0  0  0
   43.0028  -10.2757   -7.5680 C   0  0  2  0  0  0  0  0  0  0  0  0
   44.3980  -10.5076   -7.7069 N   0  0  0  0  0  0  0  0  0  0  0  0
   42.4183  -10.0854   -8.9169 C   0  0  0  0  0  0  0  0  0  0  0  0
   43.0644   -9.4384   -9.7734 O   0  0  0  0  0  0  0  0  0  0  0  0
   42.3608   -9.7753   -4.4095 C   0  0  0  0  0  0  0  0  0  0  0  0
   42.7613   -9.8478   -3.0696 C   0  0  0  0  0  0  0  0  0  0  0  0
   41.1584  -10.5963   -9.3009 N   0  0  0  0  0  0  0  0  0  0  0  0
   40.6008  -10.4176  -10.6523 C   0  0  1  0  0  0  0  0  0  0  0  0
   39.5042  -11.4150  -10.9060 C   0  0  0  0  0  0  0  0  0  0  0  0
   38.9283  -11.1925  -12.2290 C   0  0  0  0  0  0  0  0  0  0  0  0
   39.2692  -10.2029  -13.1391 C   0  0  0  0  0  0  0  0  0  0  0  0
   38.5091  -10.3315  -14.2387 N   0  0  0  0  0  0  0  0  0  0  0  0
   37.7036  -11.3787  -14.0325 C   0  0  0  0  0  0  0  0  0  0  0  0
   37.9592  -11.8999  -12.8131 N   0  0  0  0  0  0  0  0  0  0  0  0
   40.1791   -9.0113  -10.7620 C   0  0  0  0  0  0  0  0  0  0  0  0
   39.7132   -8.3139   -9.6619 O   0  0  0  0  0  0  0  0  0  0  0  0
   40.2347   -8.4182  -11.8630 O   0  0  0  0  0  0  0  0  0  0  0  0
  2  1  1  6
  2  3  1  0
  4  3  1  0
  5  6  2  0
  5  4  1  0
  7  2  1  0
  8  7  2  0
  9  5  1  0
 10 11  1  0
 11 12  2  0
 12 13  1  0
 14 15  1  0
 14 13  2  0
 16 15  1  1
 16 17  1  0
 17  7  1  0
 18 16  1  0
 19 18  2  0
 20 14  1  0
 21 20  2  0
 21 11  1  0
 22 18  1  0
 23 22  1  0
 23 24  1  1
 24 25  1  0
 25 29  1  0
 26 25  2  0
 26 27  1  0
 27 28  1  0
 29 28  2  0
 30 31  1  0
 30 23  1  0
 32 30  2  0
M  END
$$$$
