EYH.pdb
     RDKit          3D

 32 33  0  0  1  0  0  0  0  0999 V2000
   16.5267  -19.6388    2.6252 N   0  0  0  0  0  0  0  0  0  0  0  0
   16.0013  -18.7834    3.6712 C   0  0  1  0  0  0  0  0  0  0  0  0
   15.5087  -19.6725    4.7879 C   0  0  0  0  0  0  0  0  0  0  0  0
   14.2531  -20.3677    4.2957 C   0  0  0  0  0  0  0  0  0  0  0  0
   13.7054  -21.3219    5.2757 C   0  0  0  0  0  0  0  0  0  0  0  0
   14.1536  -21.2566    6.4648 O   0  0  0  0  0  0  0  0  0  0  0  0
   17.0771  -17.8646    4.1133 C   0  0  0  0  0  0  0  0  0  0  0  0
   18.2687  -18.1403    3.9189 O   0  0  0  0  0  0  0  0  0  0  0  0
   12.7447  -22.2785    5.0016 O   0  0  0  0  0  0  0  0  0  0  0  0
   21.2802  -10.6466    7.1222 O   0  0  0  0  0  0  0  0  0  0  0  0
   20.3159  -11.5392    6.6491 C   0  0  0  0  0  0  0  0  0  0  0  0
   20.2682  -11.9599    5.3323 C   0  0  0  0  0  0  0  0  0  0  0  0
   19.3115  -12.8375    4.8906 C   0  0  0  0  0  0  0  0  0  0  0  0
   18.3712  -13.3276    5.7364 C   0  0  0  0  0  0  0  0  0  0  0  0
   17.3002  -14.2887    5.3227 C   0  0  0  0  0  0  0  0  0  0  0  0
   17.7684  -15.7010    5.2020 C   0  0  2  0  0  0  0  0  0  0  0  0
   16.7996  -16.6462    4.7690 N   0  0  0  0  0  0  0  0  0  0  0  0
   18.2516  -16.1003    6.5454 C   0  0  0  0  0  0  0  0  0  0  0  0
   17.4155  -16.4237    7.4206 O   0  0  0  0  0  0  0  0  0  0  0  0
   18.4014  -12.9197    7.0563 C   0  0  0  0  0  0  0  0  0  0  0  0
   19.3710  -12.0242    7.5243 C   0  0  0  0  0  0  0  0  0  0  0  0
   19.6175  -16.1387    6.9042 N   0  0  0  0  0  0  0  0  0  0  0  0
   20.0828  -16.5542    8.2382 C   0  0  1  0  0  0  0  0  0  0  0  0
   21.3880  -17.2940    8.1342 C   0  0  0  0  0  0  0  0  0  0  0  0
   21.1556  -18.6384    7.6144 C   0  0  0  0  0  0  0  0  0  0  0  0
   19.9402  -19.2042    7.2589 C   0  0  0  0  0  0  0  0  0  0  0  0
   20.1450  -20.4598    6.8289 N   0  0  0  0  0  0  0  0  0  0  0  0
   21.4603  -20.6870    6.9092 C   0  0  0  0  0  0  0  0  0  0  0  0
   22.0718  -19.5813    7.3858 N   0  0  0  0  0  0  0  0  0  0  0  0
   20.1371  -15.3423    9.0725 C   0  0  0  0  0  0  0  0  0  0  0  0
   20.1966  -14.0824    8.5047 O   0  0  0  0  0  0  0  0  0  0  0  0
   20.1312  -15.4331   10.3210 O   0  0  0  0  0  0  0  0  0  0  0  0
  2  1  1  6
  2  3  1  0
  4  3  1  0
  5  6  2  0
  5  4  1  0
  7  2  1  0
  8  7  2  0
  9  5  1  0
 10 11  1  0
 11 12  2  0
 12 13  1  0
 14 15  1  0
 14 13  2  0
 16 15  1  1
 16 17  1  0
 17  7  1  0
 18 16  1  0
 19 18  2  0
 20 14  1  0
 21 20  2  0
 21 11  1  0
 22 18  1  0
 23 22  1  0
 23 24  1  6
 24 25  1  0
 25 29  1  0
 26 25  2  0
 26 27  1  0
 27 28  1  0
 29 28  2  0
 30 31  1  0
 30 23  1  0
 32 30  2  0
M  END
$$$$
