GTM.pdb
     RDKit          3D

 20 19  0  0  1  0  0  0  0  0999 V2000
   28.0851  -22.4561  -15.9904 N   0  0  0  0  0  0  0  0  0  0  0  0
   26.7284  -22.3721  -15.5086 C   0  0  0  0  0  0  0  0  0  0  0  0
   26.6069  -21.2129  -14.5896 C   0  0  0  0  0  0  0  0  0  0  0  0
   26.6554  -20.0305  -15.0387 O   0  0  0  0  0  0  0  0  0  0  0  0
   24.6770  -19.6882  -14.2627 C   0  0  0  0  0  0  0  0  0  0  0  0
   24.5634  -20.0108  -12.7706 C   0  0  1  0  0  0  0  0  0  0  0  0
   23.6767  -21.0996  -12.6934 O   0  0  0  0  0  0  0  0  0  0  0  0
   25.9418  -20.4001  -12.3136 C   0  0  2  0  0  0  0  0  0  0  0  0
   26.4369  -21.4232  -13.2131 N   0  0  0  0  0  0  0  0  0  0  0  0
   25.9574  -20.9092  -10.9157 C   0  0  0  0  0  0  0  0  0  0  0  0
   25.8513  -22.1422  -10.7117 O   0  0  0  0  0  0  0  0  0  0  0  0
   29.5404  -19.0891   -5.8272 C   0  0  0  0  0  0  0  0  0  0  0  0
   27.9552  -19.4110   -5.0183 S   0  0  0  0  0  0  0  0  0  0  0  0
   26.8240  -20.3127   -6.1316 C   0  0  0  0  0  0  0  0  0  0  0  0
   26.9104  -19.8019   -7.5293 C   0  0  0  0  0  0  0  0  0  0  0  0
   26.1055  -20.6388   -8.4630 C   0  0  2  0  0  0  0  0  0  0  0  0
   26.0877  -20.0488   -9.8094 N   0  0  0  0  0  0  0  0  0  0  0  0
   24.7084  -20.8098   -8.0721 C   0  0  0  0  0  0  0  0  0  0  0  0
   23.7935  -20.2194   -8.6806 O   0  0  0  0  0  0  0  0  0  0  0  0
   24.3182  -21.6263   -7.0170 O   0  0  0  0  0  0  0  0  0  0  0  0
  2  1  1  0
  3  2  1  0
  4  3  2  0
  6  5  1  6
  6  7  1  0
  6  8  1  0
  8  9  1  6
  9  3  1  0
 10  8  1  0
 10 17  1  0
 11 10  2  0
 13 12  1  0
 14 15  1  0
 14 13  1  0
 16 18  1  0
 16 17  1  0
 16 15  1  1
 18 20  1  0
 19 18  2  0
M  END
$$$$
