GTM.pdb
     RDKit          3D

 20 19  0  0  1  0  0  0  0  0999 V2000
   26.8742  -18.8425  -19.7418 N   0  0  0  0  0  0  0  0  0  0  0  0
   27.0981  -18.0384  -18.5658 C   0  0  0  0  0  0  0  0  0  0  0  0
   26.9869  -18.8954  -17.3591 C   0  0  0  0  0  0  0  0  0  0  0  0
   28.0261  -19.3498  -16.7972 O   0  0  0  0  0  0  0  0  0  0  0  0
   27.4857  -18.2836  -15.0542 C   0  0  0  0  0  0  0  0  0  0  0  0
   26.0769  -18.6062  -14.5498 C   0  0  1  0  0  0  0  0  0  0  0  0
   25.3572  -17.4035  -14.6665 O   0  0  0  0  0  0  0  0  0  0  0  0
   25.5264  -19.6595  -15.4707 C   0  0  2  0  0  0  0  0  0  0  0  0
   25.7242  -19.2073  -16.8335 N   0  0  0  0  0  0  0  0  0  0  0  0
   24.0819  -19.9264  -15.2341 C   0  0  0  0  0  0  0  0  0  0  0  0
   23.2271  -19.3413  -15.9413 O   0  0  0  0  0  0  0  0  0  0  0  0
   20.7695  -25.2232  -15.2441 C   0  0  0  0  0  0  0  0  0  0  0  0
   19.8949  -24.3802  -13.9043 S   0  0  0  0  0  0  0  0  0  0  0  0
   20.3625  -22.6175  -13.8252 C   0  0  0  0  0  0  0  0  0  0  0  0
   21.8289  -22.4318  -14.0182 C   0  0  0  0  0  0  0  0  0  0  0  0
   22.1939  -20.9875  -14.0424 C   0  0  2  0  0  0  0  0  0  0  0  0
   23.6410  -20.8179  -14.2382 N   0  0  0  0  0  0  0  0  0  0  0  0
   21.8570  -20.2570  -12.8231 C   0  0  0  0  0  0  0  0  0  0  0  0
   22.7365  -19.9502  -11.9935 O   0  0  0  0  0  0  0  0  0  0  0  0
   20.5590  -19.8651  -12.5165 O   0  0  0  0  0  0  0  0  0  0  0  0
  2  1  1  0
  3  2  1  0
  4  3  2  0
  6  5  1  6
  6  7  1  0
  6  8  1  0
  8  9  1  6
  9  3  1  0
 10  8  1  0
 10 17  1  0
 11 10  2  0
 13 12  1  0
 14 15  1  0
 14 13  1  0
 16 18  1  0
 16 17  1  0
 16 15  1  1
 18 20  1  0
 19 18  2  0
M  END
$$$$
