GTM.pdb
     RDKit          3D

 20 19  0  0  1  0  0  0  0  0999 V2000
   29.2309  -22.4094  -17.3708 N   0  0  0  0  0  0  0  0  0  0  0  0
   28.4314  -22.9692  -16.3092 C   0  0  0  0  0  0  0  0  0  0  0  0
   27.1836  -23.5330  -16.8821 C   0  0  0  0  0  0  0  0  0  0  0  0
   27.0589  -23.6735  -18.1338 O   0  0  0  0  0  0  0  0  0  0  0  0
   26.6779  -25.9239  -17.8813 C   0  0  0  0  0  0  0  0  0  0  0  0
   25.6689  -26.1445  -16.7516 C   0  0  1  0  0  0  0  0  0  0  0  0
   26.4273  -26.6125  -15.6636 O   0  0  0  0  0  0  0  0  0  0  0  0
   25.0642  -24.8006  -16.4533 C   0  0  2  0  0  0  0  0  0  0  0  0
   26.1322  -23.9144  -16.0354 N   0  0  0  0  0  0  0  0  0  0  0  0
   24.0215  -24.8662  -15.3940 C   0  0  0  0  0  0  0  0  0  0  0  0
   24.3730  -24.9587  -14.1935 O   0  0  0  0  0  0  0  0  0  0  0  0
   17.4174  -24.8329  -16.2488 C   0  0  0  0  0  0  0  0  0  0  0  0
   17.6310  -24.3461  -14.5202 S   0  0  0  0  0  0  0  0  0  0  0  0
   19.3222  -24.7150  -13.9410 C   0  0  0  0  0  0  0  0  0  0  0  0
   20.3274  -24.5091  -15.0223 C   0  0  0  0  0  0  0  0  0  0  0  0
   21.6850  -24.9460  -14.5908 C   0  0  2  0  0  0  0  0  0  0  0  0
   22.6473  -24.8276  -15.6959 N   0  0  0  0  0  0  0  0  0  0  0  0
   21.7581  -26.3304  -14.1303 C   0  0  0  0  0  0  0  0  0  0  0  0
   21.9844  -27.2622  -14.9280 O   0  0  0  0  0  0  0  0  0  0  0  0
   21.5832  -26.6894  -12.7989 O   0  0  0  0  0  0  0  0  0  0  0  0
  2  1  1  0
  3  2  1  0
  4  3  2  0
  6  5  1  6
  6  7  1  0
  6  8  1  0
  8  9  1  1
  9  3  1  0
 10  8  1  0
 10 17  1  0
 11 10  2  0
 13 12  1  0
 14 15  1  0
 14 13  1  0
 16 18  1  0
 16 17  1  0
 16 15  1  6
 18 20  1  0
 19 18  2  0
M  END
$$$$
