GTM.pdb
     RDKit          3D

 20 19  0  0  1  0  0  0  0  0999 V2000
   16.7300  -12.6244  -14.5736 N   0  0  0  0  0  0  0  0  0  0  0  0
   16.4416  -11.2308  -14.8072 C   0  0  0  0  0  0  0  0  0  0  0  0
   17.5008  -10.6503  -15.6698 C   0  0  0  0  0  0  0  0  0  0  0  0
   17.9434  -11.2960  -16.6644 O   0  0  0  0  0  0  0  0  0  0  0  0
   16.9569   -7.5150  -17.1424 C   0  0  0  0  0  0  0  0  0  0  0  0
   18.3399   -7.3026  -16.5216 C   0  0  1  0  0  0  0  0  0  0  0  0
   18.1023   -6.6317  -15.3085 O   0  0  0  0  0  0  0  0  0  0  0  0
   18.9129   -8.6717  -16.2813 C   0  0  2  0  0  0  0  0  0  0  0  0
   18.0186   -9.3779  -15.3856 N   0  0  0  0  0  0  0  0  0  0  0  0
   20.2789   -8.6238  -15.6935 C   0  0  0  0  0  0  0  0  0  0  0  0
   20.4106   -8.6583  -14.4466 O   0  0  0  0  0  0  0  0  0  0  0  0
   27.5148  -11.0048  -15.0745 C   0  0  0  0  0  0  0  0  0  0  0  0
   25.9626  -11.0046  -16.0025 S   0  0  0  0  0  0  0  0  0  0  0  0
   24.9120   -9.5922  -15.5196 C   0  0  0  0  0  0  0  0  0  0  0  0
   23.5662   -9.6692  -16.1560 C   0  0  0  0  0  0  0  0  0  0  0  0
   22.7424   -8.4716  -15.8286 C   0  0  2  0  0  0  0  0  0  0  0  0
   21.4334   -8.5406  -16.4942 N   0  0  0  0  0  0  0  0  0  0  0  0
   23.3383   -7.1989  -16.2276 C   0  0  0  0  0  0  0  0  0  0  0  0
   24.2877   -6.7046  -15.5870 O   0  0  0  0  0  0  0  0  0  0  0  0
   22.8931   -6.4724  -17.3258 O   0  0  0  0  0  0  0  0  0  0  0  0
  2  1  1  0
  3  2  1  0
  4  3  2  0
  6  5  1  1
  6  7  1  0
  6  8  1  0
  8  9  1  1
  9  3  1  0
 10  8  1  0
 10 17  1  0
 11 10  2  0
 13 12  1  0
 14 15  1  0
 14 13  1  0
 16 18  1  0
 16 17  1  0
 16 15  1  6
 18 20  1  0
 19 18  2  0
M  END
$$$$
