GTM.pdb
     RDKit          3D

 20 19  0  0  1  0  0  0  0  0999 V2000
   19.1647  -14.0584  -17.8401 N   0  0  0  0  0  0  0  0  0  0  0  0
   18.4305  -13.0037  -18.4946 C   0  0  0  0  0  0  0  0  0  0  0  0
   19.3513  -11.8776  -18.7899 C   0  0  0  0  0  0  0  0  0  0  0  0
   20.3680  -12.0557  -19.5224 O   0  0  0  0  0  0  0  0  0  0  0  0
   19.9806   -7.0757  -18.9936 C   0  0  0  0  0  0  0  0  0  0  0  0
   19.0541   -8.2699  -18.7510 C   0  0  1  0  0  0  0  0  0  0  0  0
   18.3181   -8.4155  -19.9406 O   0  0  0  0  0  0  0  0  0  0  0  0
   19.9449   -9.4579  -18.5152 C   0  0  2  0  0  0  0  0  0  0  0  0
   19.0979  -10.6053  -18.2562 N   0  0  0  0  0  0  0  0  0  0  0  0
   20.8783   -9.2542  -17.3746 C   0  0  0  0  0  0  0  0  0  0  0  0
   20.4135   -9.1459  -16.2147 O   0  0  0  0  0  0  0  0  0  0  0  0
   26.7648  -12.0195  -15.5631 C   0  0  0  0  0  0  0  0  0  0  0  0
   26.9669  -10.2237  -15.6317 S   0  0  0  0  0  0  0  0  0  0  0  0
   25.3639   -9.3765  -15.4203 C   0  0  0  0  0  0  0  0  0  0  0  0
   24.4791   -9.5778  -16.6029 C   0  0  0  0  0  0  0  0  0  0  0  0
   23.1227   -9.0075  -16.3684 C   0  0  2  0  0  0  0  0  0  0  0  0
   22.2721   -9.1787  -17.5552 N   0  0  0  0  0  0  0  0  0  0  0  0
   23.1110   -7.5801  -16.0582 C   0  0  0  0  0  0  0  0  0  0  0  0
   23.1903   -6.7249  -16.9628 O   0  0  0  0  0  0  0  0  0  0  0  0
   23.0126   -7.0943  -14.7596 O   0  0  0  0  0  0  0  0  0  0  0  0
  2  1  1  0
  3  2  1  0
  4  3  2  0
  6  5  1  6
  6  7  1  0
  6  8  1  0
  8  9  1  1
  9  3  1  0
 10  8  1  0
 10 17  1  0
 11 10  2  0
 13 12  1  0
 14 15  1  0
 14 13  1  0
 16 18  1  0
 16 17  1  0
 16 15  1  6
 18 20  1  0
 19 18  2  0
M  END
$$$$
