GTM.pdb
     RDKit          3D

 20 19  0  0  1  0  0  0  0  0999 V2000
   26.9948  -21.2838  -13.2228 N   0  0  0  0  0  0  0  0  0  0  0  0
   26.9697  -20.7009  -14.5416 C   0  0  0  0  0  0  0  0  0  0  0  0
   26.0879  -19.5071  -14.5317 C   0  0  0  0  0  0  0  0  0  0  0  0
   25.3664  -19.2510  -13.5238 O   0  0  0  0  0  0  0  0  0  0  0  0
   25.3718  -15.0189  -15.8929 C   0  0  0  0  0  0  0  0  0  0  0  0
   26.1689  -16.3107  -16.0904 C   0  0  1  0  0  0  0  0  0  0  0  0
   27.2703  -16.2028  -15.2224 O   0  0  0  0  0  0  0  0  0  0  0  0
   25.2620  -17.4371  -15.6788 C   0  0  2  0  0  0  0  0  0  0  0  0
   26.0497  -18.6533  -15.6441 N   0  0  0  0  0  0  0  0  0  0  0  0
   24.1103  -17.6101  -16.6047 C   0  0  0  0  0  0  0  0  0  0  0  0
   24.2895  -18.1869  -17.7040 O   0  0  0  0  0  0  0  0  0  0  0  0
   19.2404  -20.2137  -14.5832 C   0  0  0  0  0  0  0  0  0  0  0  0
   19.5762  -20.7438  -16.2794 S   0  0  0  0  0  0  0  0  0  0  0  0
   20.8305  -19.6738  -17.0629 C   0  0  0  0  0  0  0  0  0  0  0  0
   20.6786  -18.2528  -16.6391 C   0  0  0  0  0  0  0  0  0  0  0  0
   21.7326  -17.3909  -17.2443 C   0  0  2  0  0  0  0  0  0  0  0  0
   22.8203  -17.1458  -16.2862 N   0  0  0  0  0  0  0  0  0  0  0  0
   21.2651  -16.0768  -17.6785 C   0  0  0  0  0  0  0  0  0  0  0  0
   21.4120  -15.0709  -16.9556 O   0  0  0  0  0  0  0  0  0  0  0  0
   20.6389  -15.8687  -18.9019 O   0  0  0  0  0  0  0  0  0  0  0  0
  2  1  1  0
  3  2  1  0
  4  3  2  0
  6  5  1  1
  6  7  1  0
  6  8  1  0
  8  9  1  6
  9  3  1  0
 10  8  1  0
 10 17  1  0
 11 10  2  0
 13 12  1  0
 14 15  1  0
 14 13  1  0
 16 18  1  0
 16 17  1  0
 16 15  1  1
 18 20  1  0
 19 18  2  0
M  END
$$$$
