GTM.pdb
     RDKit          3D

 20 19  0  0  1  0  0  0  0  0999 V2000
   28.4015  -22.4728  -17.2349 N   0  0  0  0  0  0  0  0  0  0  0  0
   27.5790  -22.7888  -16.0932 C   0  0  0  0  0  0  0  0  0  0  0  0
   27.5150  -21.6088  -15.1952 C   0  0  0  0  0  0  0  0  0  0  0  0
   27.9477  -20.4841  -15.5822 O   0  0  0  0  0  0  0  0  0  0  0  0
   24.2790  -20.8779  -13.8747 C   0  0  0  0  0  0  0  0  0  0  0  0
   25.4521  -19.8954  -13.8312 C   0  0  1  0  0  0  0  0  0  0  0  0
   24.9841  -18.7919  -13.0956 O   0  0  0  0  0  0  0  0  0  0  0  0
   26.5674  -20.5968  -13.1069 C   0  0  2  0  0  0  0  0  0  0  0  0
   26.9723  -21.7350  -13.9078 N   0  0  0  0  0  0  0  0  0  0  0  0
   26.1674  -21.0542  -11.7488 C   0  0  0  0  0  0  0  0  0  0  0  0
   25.5416  -22.1343  -11.6260 O   0  0  0  0  0  0  0  0  0  0  0  0
   28.4104  -18.6389   -6.1270 C   0  0  0  0  0  0  0  0  0  0  0  0
   27.2413  -19.8621   -5.4885 S   0  0  0  0  0  0  0  0  0  0  0  0
   26.3254  -20.6638   -6.8487 C   0  0  0  0  0  0  0  0  0  0  0  0
   26.7565  -20.1453   -8.1781 C   0  0  0  0  0  0  0  0  0  0  0  0
   26.0537  -20.8483   -9.2881 C   0  0  2  0  0  0  0  0  0  0  0  0
   26.4694  -20.3115  -10.5920 N   0  0  0  0  0  0  0  0  0  0  0  0
   24.5974  -20.7420   -9.2466 C   0  0  0  0  0  0  0  0  0  0  0  0
   23.9894  -19.9451   -9.9891 O   0  0  0  0  0  0  0  0  0  0  0  0
   23.8123  -21.5080   -8.3928 O   0  0  0  0  0  0  0  0  0  0  0  0
  2  1  1  0
  3  2  1  0
  4  3  2  0
  6  5  1  1
  6  7  1  0
  6  8  1  0
  8  9  1  6
  9  3  1  0
 10  8  1  0
 10 17  1  0
 11 10  2  0
 13 12  1  0
 14 15  1  0
 14 13  1  0
 16 18  1  0
 16 17  1  0
 16 15  1  1
 18 20  1  0
 19 18  2  0
M  END
$$$$
