GTM.pdb
     RDKit          3D

 20 19  0  0  1  0  0  0  0  0999 V2000
   28.8745  -21.4509  -16.5914 N   0  0  0  0  0  0  0  0  0  0  0  0
   28.0016  -22.1623  -15.6904 C   0  0  0  0  0  0  0  0  0  0  0  0
   27.3567  -21.1944  -14.7685 C   0  0  0  0  0  0  0  0  0  0  0  0
   27.6609  -19.9665  -14.8123 O   0  0  0  0  0  0  0  0  0  0  0  0
   23.5130  -19.6962  -12.5518 C   0  0  0  0  0  0  0  0  0  0  0  0
   24.2481  -20.6794  -13.4662 C   0  0  1  0  0  0  0  0  0  0  0  0
   24.1799  -20.1120  -14.7513 O   0  0  0  0  0  0  0  0  0  0  0  0
   25.6674  -20.7381  -12.9737 C   0  0  2  0  0  0  0  0  0  0  0  0
   26.4028  -21.6376  -13.8402 N   0  0  0  0  0  0  0  0  0  0  0  0
   25.7639  -21.2063  -11.5647 C   0  0  0  0  0  0  0  0  0  0  0  0
   25.5852  -22.4212  -11.3094 O   0  0  0  0  0  0  0  0  0  0  0  0
   27.7843  -17.7107   -6.2626 C   0  0  0  0  0  0  0  0  0  0  0  0
   27.9250  -19.4418   -5.7582 S   0  0  0  0  0  0  0  0  0  0  0  0
   26.9476  -20.5243   -6.8559 C   0  0  0  0  0  0  0  0  0  0  0  0
   26.9549  -20.0276   -8.2613 C   0  0  0  0  0  0  0  0  0  0  0  0
   26.0924  -20.8687   -9.1380 C   0  0  2  0  0  0  0  0  0  0  0  0
   26.0504  -20.3267  -10.5039 N   0  0  0  0  0  0  0  0  0  0  0  0
   24.7039  -20.9773   -8.6974 C   0  0  0  0  0  0  0  0  0  0  0  0
   24.3511  -21.8660   -7.8963 O   0  0  0  0  0  0  0  0  0  0  0  0
   23.7071  -20.1130   -9.1351 O   0  0  0  0  0  0  0  0  0  0  0  0
  2  1  1  0
  3  2  1  0
  4  3  2  0
  6  5  1  1
  6  7  1  0
  6  8  1  0
  8  9  1  6
  9  3  1  0
 10  8  1  0
 10 17  1  0
 11 10  2  0
 13 12  1  0
 14 15  1  0
 14 13  1  0
 16 18  1  0
 16 17  1  0
 16 15  1  1
 18 20  1  0
 19 18  2  0
M  END
$$$$
