RMC.pdb
     RDKit          3D

 26 25  0  0  1  0  0  0  0  0999 V2000
    9.8203  -14.6703   16.5267 N   0  0  0  0  0  0  0  0  0  0  0  0
    8.4910  -14.4163   16.0681 C   0  0  0  0  0  0  0  0  0  0  0  0
    8.2978  -14.0125   14.8506 N   0  0  0  0  0  0  0  0  0  0  0  0
    7.3591  -14.5905   16.9052 N   0  0  0  0  0  0  0  0  0  0  0  0
    7.1846  -13.8255   18.1070 C   0  0  0  0  0  0  0  0  0  0  0  0
    8.3722  -13.7324   18.9966 C   0  0  0  0  0  0  0  0  0  0  0  0
    7.9888  -13.7543   20.4390 C   0  0  0  0  0  0  0  0  0  0  0  0
    8.7057  -14.9768   21.0426 C   0  0  2  0  0  0  0  0  0  0  0  0
    7.7859  -16.0859   20.9404 N   0  0  0  0  0  0  0  0  0  0  0  0
    9.0479  -14.6480   22.4316 C   0  0  0  0  0  0  0  0  0  0  0  0
    9.8729  -13.6886   22.6161 O   0  0  0  0  0  0  0  0  0  0  0  0
    7.3740  -13.8207   14.4567 C   0  0  0  0  0  0  0  0  0  0  0  0
    7.0894  -11.4013   26.6869 S   0  0  0  0  0  0  0  0  0  0  0  0
    5.8636  -12.6949   26.3962 C   0  0  0  0  0  0  0  0  0  0  0  0
    6.5002  -13.7172   24.9963 C   0  0  0  0  0  0  0  0  0  0  0  0
    7.4361  -14.6944   25.5904 C   0  0  2  0  0  0  0  0  0  0  0  0
    8.7813  -14.7467   24.9296 N   0  0  0  0  0  0  0  0  0  0  0  0
    8.5421  -15.3020   23.5721 C   0  0  0  0  0  0  0  0  0  0  0  0
    9.7040  -15.6225   25.6471 O   0  0  0  0  0  0  0  0  0  0  0  0
   10.0347  -16.7805   25.1906 N   0  0  0  0  0  0  0  0  0  0  0  0
   10.3132  -15.2833   26.8845 C   0  0  1  0  0  0  0  0  0  0  0  0
   11.2139  -16.2350   27.5632 C   0  0  0  0  0  0  0  0  0  0  0  0
   11.7382  -15.4984   28.8044 S   0  0  0  0  0  0  0  0  0  0  0  0
   11.4874  -13.7130   28.6251 C   0  0  0  0  0  0  0  0  0  0  0  0
   10.4859  -17.4141   28.0815 O   0  0  0  0  0  0  0  0  0  0  0  0
   11.1489  -18.4366   28.7156 O   0  0  0  0  0  0  0  0  0  0  0  0
  2  1  1  0
  3  2  2  0
  4  2  1  0
  5  4  1  0
  6  5  1  0
  6  7  1  0
  7  8  1  0
  8  9  1  1
 10 17  1  0
 10  8  1  0
 11 10  2  0
 12 13  1  0
 13 14  1  0
 16 15  1  6
 15 14  1  0
 16 17  1  0
 18 20  1  0
 18 16  1  0
 19 18  2  0
 21 20  1  0
 21 22  1  1
 22 23  1  0
 24 21  1  0
 25 24  1  0
 26 24  2  0
M  END
$$$$
