RMC.pdb
     RDKit          3D

 26 25  0  0  1  0  0  0  0  0999 V2000
    6.8460  -13.0506   16.4202 N   0  0  0  0  0  0  0  0  0  0  0  0
    7.8802  -13.9166   15.9488 C   0  0  0  0  0  0  0  0  0  0  0  0
    8.1226  -13.9945   14.6768 N   0  0  0  0  0  0  0  0  0  0  0  0
    8.6621  -14.7060   16.8307 N   0  0  0  0  0  0  0  0  0  0  0  0
    8.2385  -14.9803   18.1743 C   0  0  0  0  0  0  0  0  0  0  0  0
    9.1815  -15.7763   19.0036 C   0  0  0  0  0  0  0  0  0  0  0  0
    9.4092  -15.1518   20.3400 C   0  0  0  0  0  0  0  0  0  0  0  0
    9.1023  -16.2529   21.3726 C   0  0  2  0  0  0  0  0  0  0  0  0
    7.7161  -16.6151   21.1890 N   0  0  0  0  0  0  0  0  0  0  0  0
    9.3736  -15.6987   22.7044 C   0  0  0  0  0  0  0  0  0  0  0  0
   10.4099  -14.9599   22.8272 O   0  0  0  0  0  0  0  0  0  0  0  0
    7.6650  -13.4081   13.9754 C   0  0  0  0  0  0  0  0  0  0  0  0
    7.8947  -11.2685   26.7898 S   0  0  0  0  0  0  0  0  0  0  0  0
    6.5882  -12.4670   26.4475 C   0  0  0  0  0  0  0  0  0  0  0  0
    7.2179  -13.5604   25.0992 C   0  0  0  0  0  0  0  0  0  0  0  0
    7.7254  -14.7808   25.7602 C   0  0  2  0  0  0  0  0  0  0  0  0
    8.9843  -15.3335   25.1613 N   0  0  0  0  0  0  0  0  0  0  0  0
    8.5867  -15.9148   23.8527 C   0  0  0  0  0  0  0  0  0  0  0  0
    9.5644  -16.3845   25.9932 O   0  0  0  0  0  0  0  0  0  0  0  0
    8.9697  -17.5122   26.1754 N   0  0  0  0  0  0  0  0  0  0  0  0
   10.8134  -16.2651   26.6589 C   0  0  1  0  0  0  0  0  0  0  0  0
   11.3686  -17.3998   27.4217 C   0  0  0  0  0  0  0  0  0  0  0  0
   12.8776  -17.1338   27.5234 S   0  0  0  0  0  0  0  0  0  0  0  0
   13.5567  -16.7483   25.8885 C   0  0  0  0  0  0  0  0  0  0  0  0
   10.8766  -17.4235   28.8168 O   0  0  0  0  0  0  0  0  0  0  0  0
   11.2235  -18.4383   29.6755 O   0  0  0  0  0  0  0  0  0  0  0  0
  2  1  1  0
  3  2  2  0
  4  2  1  0
  5  4  1  0
  6  5  1  0
  6  7  1  0
  7  8  1  0
  8  9  1  1
 10 17  1  0
 10  8  1  0
 11 10  2  0
 12 13  1  0
 13 14  1  0
 16 15  1  6
 15 14  1  0
 16 17  1  0
 18 20  1  0
 18 16  1  0
 19 18  2  0
 21 20  1  0
 21 22  1  1
 22 23  1  0
 24 21  1  0
 25 24  1  0
 26 24  2  0
M  END
$$$$
