RMC.pdb
     RDKit          3D

 26 25  0  0  1  0  0  0  0  0999 V2000
    9.3358  -15.4149   15.6479 N   0  0  0  0  0  0  0  0  0  0  0  0
    8.2404  -14.7217   16.2490 C   0  0  0  0  0  0  0  0  0  0  0  0
    7.9241  -13.5350   15.8313 N   0  0  0  0  0  0  0  0  0  0  0  0
    7.4755  -15.2892   17.3003 N   0  0  0  0  0  0  0  0  0  0  0  0
    7.9787  -15.3678   18.6422 C   0  0  0  0  0  0  0  0  0  0  0  0
    9.1124  -14.4620   18.9654 C   0  0  0  0  0  0  0  0  0  0  0  0
    9.0767  -14.0133   20.3886 C   0  0  0  0  0  0  0  0  0  0  0  0
    9.2193  -15.2935   21.2332 C   0  0  2  0  0  0  0  0  0  0  0  0
    8.0067  -16.0536   21.0375 N   0  0  0  0  0  0  0  0  0  0  0  0
    9.4143  -14.8833   22.6290 C   0  0  0  0  0  0  0  0  0  0  0  0
   10.4449  -14.1723   22.8880 O   0  0  0  0  0  0  0  0  0  0  0  0
    7.1508  -12.9866   16.2139 C   0  0  0  0  0  0  0  0  0  0  0  0
    6.7919  -11.7878   27.3859 S   0  0  0  0  0  0  0  0  0  0  0  0
    5.6341  -12.5970   26.2612 C   0  0  0  0  0  0  0  0  0  0  0  0
    6.6541  -13.4314   24.9676 C   0  0  0  0  0  0  0  0  0  0  0  0
    7.4739  -14.4381   25.6736 C   0  0  2  0  0  0  0  0  0  0  0  0
    8.8227  -14.6786   25.0640 N   0  0  0  0  0  0  0  0  0  0  0  0
    8.5603  -15.2092   23.7009 C   0  0  0  0  0  0  0  0  0  0  0  0
    9.5910  -15.6648   25.8194 O   0  0  0  0  0  0  0  0  0  0  0  0
    9.7413  -16.8736   25.4015 N   0  0  0  0  0  0  0  0  0  0  0  0
   10.2340  -15.3865   27.0549 C   0  0  1  0  0  0  0  0  0  0  0  0
   10.9784  -16.4425   27.7680 C   0  0  0  0  0  0  0  0  0  0  0  0
   11.4638  -15.7988   29.0750 S   0  0  0  0  0  0  0  0  0  0  0  0
   11.0249  -14.0412   29.1078 C   0  0  0  0  0  0  0  0  0  0  0  0
   10.0991  -17.5587   28.1800 O   0  0  0  0  0  0  0  0  0  0  0  0
    8.7383  -17.4944   28.0025 O   0  0  0  0  0  0  0  0  0  0  0  0
  2  1  1  0
  3  2  2  0
  4  2  1  0
  5  4  1  0
  6  5  1  0
  6  7  1  0
  7  8  1  0
  8  9  1  1
 10 17  1  0
 10  8  1  0
 11 10  2  0
 12 13  1  0
 13 14  1  0
 16 15  1  6
 15 14  1  0
 16 17  1  0
 18 20  1  0
 18 16  1  0
 19 18  2  0
 21 20  1  0
 21 22  1  1
 22 23  1  0
 24 21  1  0
 25 24  1  0
 26 24  2  0
M  END
$$$$
