RMC.pdb
     RDKit          3D

 26 25  0  0  1  0  0  0  0  0999 V2000
    8.2401  -13.7535   17.5443 N   0  0  0  0  0  0  0  0  0  0  0  0
    8.2638  -13.5387   18.9567 C   0  0  0  0  0  0  0  0  0  0  0  0
    8.2856  -12.3280   19.4220 N   0  0  0  0  0  0  0  0  0  0  0  0
    8.2653  -14.6137   19.8823 N   0  0  0  0  0  0  0  0  0  0  0  0
    8.1012  -15.9750   19.4580 C   0  0  0  0  0  0  0  0  0  0  0  0
    6.7982  -16.6078   19.7928 C   0  0  0  0  0  0  0  0  0  0  0  0
    6.3861  -16.3207   21.1983 C   0  0  0  0  0  0  0  0  0  0  0  0
    6.2057  -17.6956   21.8692 C   0  0  2  0  0  0  0  0  0  0  0  0
    4.8833  -18.1564   21.5152 N   0  0  0  0  0  0  0  0  0  0  0  0
    6.3744  -17.5080   23.3151 C   0  0  0  0  0  0  0  0  0  0  0  0
    5.3416  -17.1534   23.9803 O   0  0  0  0  0  0  0  0  0  0  0  0
    8.3593  -12.1042   20.4168 C   0  0  0  0  0  0  0  0  0  0  0  0
    6.9848  -20.5136   28.1375 S   0  0  0  0  0  0  0  0  0  0  0  0
    7.2144  -18.7412   28.3956 C   0  0  0  0  0  0  0  0  0  0  0  0
    8.7753  -18.2808   27.5227 C   0  0  0  0  0  0  0  0  0  0  0  0
    8.5069  -18.4504   26.0794 C   0  0  1  0  0  0  0  0  0  0  0  0
    7.6522  -17.3758   25.4763 N   0  0  0  0  0  0  0  0  0  0  0  0
    7.5779  -17.6868   24.0251 C   0  0  0  0  0  0  0  0  0  0  0  0
    8.2433  -16.0515   25.6502 O   0  0  0  0  0  0  0  0  0  0  0  0
    9.3896  -15.7482   25.1476 N   0  0  0  0  0  0  0  0  0  0  0  0
    7.6198  -14.9971   26.3691 C   0  0  1  0  0  0  0  0  0  0  0  0
    8.3453  -13.7404   26.6375 C   0  0  0  0  0  0  0  0  0  0  0  0
    7.3252  -12.8054   27.3033 S   0  0  0  0  0  0  0  0  0  0  0  0
    5.8162  -12.7128   26.3048 C   0  0  0  0  0  0  0  0  0  0  0  0
    9.4225  -13.9243   27.6348 O   0  0  0  0  0  0  0  0  0  0  0  0
   10.2712  -12.8948   27.9624 O   0  0  0  0  0  0  0  0  0  0  0  0
  2  1  1  0
  3  2  2  0
  4  2  1  0
  5  4  1  0
  6  5  1  0
  6  7  1  0
  7  8  1  0
  8  9  1  1
 10 17  1  0
 10  8  1  0
 11 10  2  0
 12 13  1  0
 13 14  1  0
 16 15  1  1
 15 14  1  0
 16 17  1  0
 18 20  1  0
 18 16  1  0
 19 18  2  0
 21 20  1  0
 21 22  1  1
 22 23  1  0
 24 21  1  0
 25 24  1  0
 26 24  2  0
M  END
$$$$
