RMC.pdb
     RDKit          3D

 26 25  0  0  1  0  0  0  0  0999 V2000
    7.5535  -12.9338   16.4177 N   0  0  0  0  0  0  0  0  0  0  0  0
    8.3064  -14.1477   16.4521 C   0  0  0  0  0  0  0  0  0  0  0  0
    8.1636  -15.0193   15.5019 N   0  0  0  0  0  0  0  0  0  0  0  0
    9.2160  -14.4407   17.5005 N   0  0  0  0  0  0  0  0  0  0  0  0
    8.8248  -14.3728   18.8797 C   0  0  0  0  0  0  0  0  0  0  0  0
    7.5838  -15.1078   19.2405 C   0  0  0  0  0  0  0  0  0  0  0  0
    7.2785  -15.0008   20.6976 C   0  0  0  0  0  0  0  0  0  0  0  0
    8.3832  -15.7995   21.4150 C   0  0  2  0  0  0  0  0  0  0  0  0
    7.8494  -17.1209   21.6505 N   0  0  0  0  0  0  0  0  0  0  0  0
    8.7082  -15.0878   22.6569 C   0  0  0  0  0  0  0  0  0  0  0  0
    8.6288  -13.8119   22.6343 O   0  0  0  0  0  0  0  0  0  0  0  0
    8.6885  -15.8952   15.4524 C   0  0  0  0  0  0  0  0  0  0  0  0
    6.4650  -11.2415   25.0703 S   0  0  0  0  0  0  0  0  0  0  0  0
    6.2221  -12.4507   26.3891 C   0  0  0  0  0  0  0  0  0  0  0  0
    7.7976  -13.4044   26.5247 C   0  0  0  0  0  0  0  0  0  0  0  0
    7.9199  -14.1801   25.2728 C   0  0  1  0  0  0  0  0  0  0  0  0
    9.2301  -14.8910   25.1085 N   0  0  0  0  0  0  0  0  0  0  0  0
    9.0989  -15.6958   23.8661 C   0  0  0  0  0  0  0  0  0  0  0  0
    9.5056  -15.7861   26.2293 O   0  0  0  0  0  0  0  0  0  0  0  0
    8.6978  -16.7347   26.5552 N   0  0  0  0  0  0  0  0  0  0  0  0
   10.6670  -15.6987   27.0421 C   0  0  2  0  0  0  0  0  0  0  0  0
   10.7461  -16.4339   28.3192 C   0  0  0  0  0  0  0  0  0  0  0  0
    9.8079  -15.6940   29.2838 S   0  0  0  0  0  0  0  0  0  0  0  0
   10.3194  -13.9639   29.4507 C   0  0  0  0  0  0  0  0  0  0  0  0
   10.1967  -17.8029   28.2057 O   0  0  0  0  0  0  0  0  0  0  0  0
   10.7343  -18.8460   28.9201 O   0  0  0  0  0  0  0  0  0  0  0  0
  2  1  1  0
  3  2  2  0
  4  2  1  0
  5  4  1  0
  6  5  1  0
  6  7  1  0
  7  8  1  0
  8  9  1  1
 10 17  1  0
 10  8  1  0
 11 10  2  0
 12 13  1  0
 13 14  1  0
 16 15  1  6
 15 14  1  0
 16 17  1  0
 18 20  1  0
 18 16  1  0
 19 18  2  0
 21 20  1  0
 21 22  1  6
 22 23  1  0
 24 21  1  0
 25 24  1  0
 26 24  2  0
M  END
$$$$
