RMC.pdb
     RDKit          3D

 26 25  0  0  1  0  0  0  0  0999 V2000
   10.0399  -19.4030   20.3791 N   0  0  0  0  0  0  0  0  0  0  0  0
    8.9306  -20.3030   20.4135 C   0  0  0  0  0  0  0  0  0  0  0  0
    9.0785  -21.4856   20.9258 N   0  0  0  0  0  0  0  0  0  0  0  0
    7.6563  -19.9481   19.9008 N   0  0  0  0  0  0  0  0  0  0  0  0
    7.3722  -18.6192   19.4391 C   0  0  0  0  0  0  0  0  0  0  0  0
    6.9611  -17.6426   20.4820 C   0  0  0  0  0  0  0  0  0  0  0  0
    8.1261  -16.8795   21.0186 C   0  0  0  0  0  0  0  0  0  0  0  0
    7.6571  -15.4154   21.1151 C   0  0  2  0  0  0  0  0  0  0  0  0
    8.2252  -14.7251   19.9805 N   0  0  0  0  0  0  0  0  0  0  0  0
    8.1289  -14.8833   22.3991 C   0  0  0  0  0  0  0  0  0  0  0  0
    9.3488  -14.5052   22.4593 O   0  0  0  0  0  0  0  0  0  0  0  0
    8.3271  -22.1765   20.9837 C   0  0  0  0  0  0  0  0  0  0  0  0
    4.8445  -11.1518   26.6163 S   0  0  0  0  0  0  0  0  0  0  0  0
    6.6387  -11.2036   26.8127 C   0  0  0  0  0  0  0  0  0  0  0  0
    7.1116  -12.9882   26.8554 C   0  0  0  0  0  0  0  0  0  0  0  0
    6.7713  -13.5376   25.5264 C   0  0  1  0  0  0  0  0  0  0  0  0
    7.9245  -14.1618   24.7989 N   0  0  0  0  0  0  0  0  0  0  0  0
    7.3482  -14.7565   23.5649 C   0  0  0  0  0  0  0  0  0  0  0  0
    8.5552  -15.2175   25.5869 O   0  0  0  0  0  0  0  0  0  0  0  0
    9.0816  -14.9828   26.7386 N   0  0  0  0  0  0  0  0  0  0  0  0
    8.6396  -16.5720   25.1678 C   0  0  1  0  0  0  0  0  0  0  0  0
    9.3501  -17.5693   25.9914 C   0  0  0  0  0  0  0  0  0  0  0  0
    8.6008  -18.8930   25.7798 S   0  0  0  0  0  0  0  0  0  0  0  0
    6.9197  -18.7739   26.4448 C   0  0  0  0  0  0  0  0  0  0  0  0
   10.7259  -17.8117   25.5043 O   0  0  0  0  0  0  0  0  0  0  0  0
   11.5683  -18.6789   26.1566 O   0  0  0  0  0  0  0  0  0  0  0  0
  2  1  1  0
  3  2  2  0
  4  2  1  0
  5  4  1  0
  6  5  1  0
  6  7  1  0
  7  8  1  0
  8  9  1  6
 10 17  1  0
 10  8  1  0
 11 10  2  0
 12 13  1  0
 13 14  1  0
 16 15  1  6
 15 14  1  0
 16 17  1  0
 18 20  1  0
 18 16  1  0
 19 18  2  0
 21 20  1  0
 21 22  1  1
 22 23  1  0
 24 21  1  0
 25 24  1  0
 26 24  2  0
M  END
$$$$
