RMC.pdb
     RDKit          3D

 26 25  0  0  1  0  0  0  0  0999 V2000
    7.1596  -19.6533   16.9914 N   0  0  0  0  0  0  0  0  0  0  0  0
    8.5719  -19.5941   17.2000 C   0  0  0  0  0  0  0  0  0  0  0  0
    9.3664  -19.4623   16.1830 N   0  0  0  0  0  0  0  0  0  0  0  0
    9.1464  -19.6761   18.4944 N   0  0  0  0  0  0  0  0  0  0  0  0
    8.4130  -19.3031   19.6704 C   0  0  0  0  0  0  0  0  0  0  0  0
    8.2458  -17.8432   19.8966 C   0  0  0  0  0  0  0  0  0  0  0  0
    7.4818  -17.5587   21.1468 C   0  0  0  0  0  0  0  0  0  0  0  0
    7.3468  -16.0257   21.2134 C   0  0  2  0  0  0  0  0  0  0  0  0
    7.8597  -15.5123   19.9645 N   0  0  0  0  0  0  0  0  0  0  0  0
    8.1144  -15.5639   22.3761 C   0  0  0  0  0  0  0  0  0  0  0  0
    9.3880  -15.5496   22.2642 O   0  0  0  0  0  0  0  0  0  0  0  0
   10.3861  -19.4860   16.2533 C   0  0  0  0  0  0  0  0  0  0  0  0
    7.2425  -12.0057   27.9672 S   0  0  0  0  0  0  0  0  0  0  0  0
    6.0986  -12.0032   26.5701 C   0  0  0  0  0  0  0  0  0  0  0  0
    6.9798  -12.8196   25.1676 C   0  0  0  0  0  0  0  0  0  0  0  0
    7.5803  -14.0523   25.7185 C   0  0  2  0  0  0  0  0  0  0  0  0
    8.4416  -14.8091   24.7519 N   0  0  0  0  0  0  0  0  0  0  0  0
    7.5621  -15.1372   23.5998 C   0  0  0  0  0  0  0  0  0  0  0  0
    8.9480  -16.0496   25.3333 O   0  0  0  0  0  0  0  0  0  0  0  0
    8.4697  -17.1990   25.0036 N   0  0  0  0  0  0  0  0  0  0  0  0
    9.9958  -16.1024   26.2907 C   0  0  1  0  0  0  0  0  0  0  0  0
   10.5811  -17.3963   26.6919 C   0  0  0  0  0  0  0  0  0  0  0  0
   11.5659  -17.7713   25.5749 S   0  0  0  0  0  0  0  0  0  0  0  0
   12.7398  -16.4197   25.2955 C   0  0  0  0  0  0  0  0  0  0  0  0
   11.4007  -17.2777   27.9179 O   0  0  0  0  0  0  0  0  0  0  0  0
   12.0770  -18.3592   28.4281 O   0  0  0  0  0  0  0  0  0  0  0  0
  2  1  1  0
  3  2  2  0
  4  2  1  0
  5  4  1  0
  6  5  1  0
  6  7  1  0
  7  8  1  0
  8  9  1  6
 10 17  1  0
 10  8  1  0
 11 10  2  0
 12 13  1  0
 13 14  1  0
 16 15  1  6
 15 14  1  0
 16 17  1  0
 18 20  1  0
 18 16  1  0
 19 18  2  0
 21 20  1  0
 21 22  1  1
 22 23  1  0
 24 21  1  0
 25 24  1  0
 26 24  2  0
M  END
$$$$
