TWT.pdb
     RDKit          3D

 29 30  0  0  1  0  0  0  0  0999 V2000
   28.4776  -17.3111  -14.7976 C   0  0  0  0  0  0  0  0  0  0  0  0
   27.4542  -18.3854  -14.4786 C   0  0  1  0  0  0  0  0  0  0  0  0
   26.8993  -18.8790  -15.6577 O   0  0  0  0  0  0  0  0  0  0  0  0
   28.0628  -19.5357  -13.7023 C   0  0  2  0  0  0  0  0  0  0  0  0
   28.9545  -20.2260  -14.6232 N   0  0  0  0  0  0  0  0  0  0  0  0
   27.0041  -20.4982  -13.2627 C   0  0  0  0  0  0  0  0  0  0  0  0
   26.8145  -21.5545  -13.9321 O   0  0  0  0  0  0  0  0  0  0  0  0
   26.2022  -20.2849  -12.1316 N   0  0  0  0  0  0  0  0  0  0  0  0
   25.0940  -21.2209  -11.8345 C   0  0  1  0  0  0  0  0  0  0  0  0
   24.9942  -21.3382  -10.3503 C   0  0  0  0  0  0  0  0  0  0  0  0
   26.1592  -20.8738   -9.6089 C   0  0  0  0  0  0  0  0  0  0  0  0
   26.1139  -19.8902   -8.6216 C   0  0  0  0  0  0  0  0  0  0  0  0
   27.3572  -19.6697   -8.1749 N   0  0  0  0  0  0  0  0  0  0  0  0
   28.2095  -20.4709   -8.8318 C   0  0  0  0  0  0  0  0  0  0  0  0
   29.5798  -20.5899   -8.6792 C   0  0  0  0  0  0  0  0  0  0  0  0
   30.2266  -21.5165   -9.4682 C   0  0  0  0  0  0  0  0  0  0  0  0
   29.5200  -22.3003  -10.3836 C   0  0  0  0  0  0  0  0  0  0  0  0
   28.1621  -22.1600  -10.5143 C   0  0  0  0  0  0  0  0  0  0  0  0
   27.4756  -21.2344   -9.7350 C   0  0  0  0  0  0  0  0  0  0  0  0
   23.8687  -20.7371  -12.4606 C   0  0  0  0  0  0  0  0  0  0  0  0
   23.4845  -19.5453  -12.3706 O   0  0  0  0  0  0  0  0  0  0  0  0
   23.0393  -21.0592  -16.1975 C   0  0  0  0  0  0  0  0  0  0  0  0
   21.8648  -21.5769  -15.4097 C   0  0  1  0  0  0  0  0  0  0  0  0
   21.8569  -22.9781  -15.3792 O   0  0  0  0  0  0  0  0  0  0  0  0
   21.9174  -21.0364  -13.9938 C   0  0  2  0  0  0  0  0  0  0  0  0
   23.0060  -21.6000  -13.2312 N   0  0  0  0  0  0  0  0  0  0  0  0
   20.6324  -21.3616  -13.2882 C   0  0  0  0  0  0  0  0  0  0  0  0
   19.5783  -20.8194  -13.6574 O   0  0  0  0  0  0  0  0  0  0  0  0
   20.6385  -22.2658  -12.2309 O   0  0  0  0  0  0  0  0  0  0  0  0
  2  1  1  6
  2  4  1  0
  3  2  1  0
  4  5  1  6
  6  4  1  0
  6  7  2  0
  8  9  1  0
  8  6  1  0
 10 11  1  0
  9 10  1  1
 11 19  1  0
 12 13  1  0
 12 11  2  0
 13 14  1  0
 14 19  2  0
 14 15  1  0
 15 16  2  0
 16 17  1  0
 18 17  2  0
 19 18  1  0
 20  9  1  0
 21 20  2  0
 23 22  1  6
 23 25  1  0
 24 23  1  0
 25 27  1  0
 25 26  1  1
 26 20  1  0
 27 29  1  0
 28 27  2  0
M  END
$$$$
