TWT.pdb
     RDKit          3D

 29 30  0  0  1  0  0  0  0  0999 V2000
   22.0588  -10.2253  -21.3505 C   0  0  0  0  0  0  0  0  0  0  0  0
   21.5263   -9.8454  -19.9811 C   0  0  1  0  0  0  0  0  0  0  0  0
   21.2532  -10.9943  -19.2413 O   0  0  0  0  0  0  0  0  0  0  0  0
   22.5071   -8.9855  -19.2099 C   0  0  2  0  0  0  0  0  0  0  0  0
   23.7251   -9.7717  -19.0758 N   0  0  0  0  0  0  0  0  0  0  0  0
   21.9869   -8.6869  -17.8385 C   0  0  0  0  0  0  0  0  0  0  0  0
   20.8919   -8.0659  -17.7159 O   0  0  0  0  0  0  0  0  0  0  0  0
   22.6613   -9.0661  -16.6683 N   0  0  0  0  0  0  0  0  0  0  0  0
   22.0150   -8.8581  -15.3524 C   0  0  1  0  0  0  0  0  0  0  0  0
   22.4673   -9.9600  -14.4536 C   0  0  0  0  0  0  0  0  0  0  0  0
   22.1198  -11.3049  -14.8929 C   0  0  0  0  0  0  0  0  0  0  0  0
   20.8553  -11.6733  -15.3506 C   0  0  0  0  0  0  0  0  0  0  0  0
   20.8624  -12.9832  -15.6302 N   0  0  0  0  0  0  0  0  0  0  0  0
   22.0811  -13.4815  -15.3731 C   0  0  0  0  0  0  0  0  0  0  0  0
   22.5395  -14.7773  -15.5344 C   0  0  0  0  0  0  0  0  0  0  0  0
   23.8575  -15.0267  -15.2176 C   0  0  0  0  0  0  0  0  0  0  0  0
   24.6910  -14.0067  -14.7524 C   0  0  0  0  0  0  0  0  0  0  0  0
   24.2091  -12.7316  -14.6013 C   0  0  0  0  0  0  0  0  0  0  0  0
   22.8838  -12.4428  -14.9105 C   0  0  0  0  0  0  0  0  0  0  0  0
   22.3484   -7.5292  -14.8522 C   0  0  0  0  0  0  0  0  0  0  0  0
   23.4150   -7.2825  -14.2377 O   0  0  0  0  0  0  0  0  0  0  0  0
   23.3836   -4.5583  -16.4586 C   0  0  0  0  0  0  0  0  0  0  0  0
   22.1420   -4.1353  -15.7188 C   0  0  1  0  0  0  0  0  0  0  0  0
   21.0316   -4.1059  -16.5733 O   0  0  0  0  0  0  0  0  0  0  0  0
   21.8771   -5.0906  -14.5712 C   0  0  2  0  0  0  0  0  0  0  0  0
   21.4697   -6.3981  -15.0284 N   0  0  0  0  0  0  0  0  0  0  0  0
   20.7848   -4.5359  -13.7029 C   0  0  0  0  0  0  0  0  0  0  0  0
   20.9840   -3.4905  -13.0633 O   0  0  0  0  0  0  0  0  0  0  0  0
   19.5640   -5.1988  -13.6260 O   0  0  0  0  0  0  0  0  0  0  0  0
  2  1  1  6
  2  4  1  0
  3  2  1  0
  4  5  1  1
  6  4  1  0
  6  7  2  0
  8  9  1  0
  8  6  1  0
 10 11  1  0
  9 10  1  1
 11 19  1  0
 12 13  1  0
 12 11  2  0
 13 14  1  0
 14 19  2  0
 14 15  1  0
 15 16  2  0
 16 17  1  0
 18 17  2  0
 19 18  1  0
 20  9  1  0
 21 20  2  0
 23 22  1  6
 23 25  1  0
 24 23  1  0
 25 27  1  0
 25 26  1  6
 26 20  1  0
 27 29  1  0
 28 27  2  0
M  END
$$$$
