TWT.pdb
     RDKit          3D

 29 30  0  0  1  0  0  0  0  0999 V2000
   28.5518  -19.1601  -16.3658 C   0  0  0  0  0  0  0  0  0  0  0  0
   27.6325  -19.5792  -15.2334 C   0  0  1  0  0  0  0  0  0  0  0  0
   26.3826  -19.9294  -15.7401 O   0  0  0  0  0  0  0  0  0  0  0  0
   28.1925  -20.7509  -14.4525 C   0  0  2  0  0  0  0  0  0  0  0  0
   28.0883  -21.9124  -15.3241 N   0  0  0  0  0  0  0  0  0  0  0  0
   27.3760  -21.0094  -13.2250 C   0  0  0  0  0  0  0  0  0  0  0  0
   26.5078  -21.9290  -13.2442 O   0  0  0  0  0  0  0  0  0  0  0  0
   27.5274  -20.2741  -12.0399 N   0  0  0  0  0  0  0  0  0  0  0  0
   26.6403  -20.5538  -10.8879 C   0  0  1  0  0  0  0  0  0  0  0  0
   27.1604  -19.7772   -9.7248 C   0  0  0  0  0  0  0  0  0  0  0  0
   26.6456  -20.1835   -8.4239 C   0  0  0  0  0  0  0  0  0  0  0  0
   25.4223  -20.8255   -8.2353 C   0  0  0  0  0  0  0  0  0  0  0  0
   25.2330  -21.0166   -6.9232 N   0  0  0  0  0  0  0  0  0  0  0  0
   26.2845  -20.5249   -6.2507 C   0  0  0  0  0  0  0  0  0  0  0  0
   26.5175  -20.5238   -4.8865 C   0  0  0  0  0  0  0  0  0  0  0  0
   27.7016  -19.9723   -4.4468 C   0  0  0  0  0  0  0  0  0  0  0  0
   28.6246  -19.4374   -5.3487 C   0  0  0  0  0  0  0  0  0  0  0  0
   28.3667  -19.4512   -6.6955 C   0  0  0  0  0  0  0  0  0  0  0  0
   27.1815  -19.9990   -7.1759 C   0  0  0  0  0  0  0  0  0  0  0  0
   25.2656  -20.2172  -11.2406 C   0  0  0  0  0  0  0  0  0  0  0  0
   24.9312  -19.0841  -11.6654 O   0  0  0  0  0  0  0  0  0  0  0  0
   20.9791  -21.7027  -13.0075 C   0  0  0  0  0  0  0  0  0  0  0  0
   22.4376  -21.9026  -12.6896 C   0  0  1  0  0  0  0  0  0  0  0  0
   23.2224  -21.8135  -13.8473 O   0  0  0  0  0  0  0  0  0  0  0  0
   22.8917  -20.8619  -11.6845 C   0  0  2  0  0  0  0  0  0  0  0  0
   24.1866  -21.1683  -11.1242 N   0  0  0  0  0  0  0  0  0  0  0  0
   21.8993  -20.7887  -10.5599 C   0  0  0  0  0  0  0  0  0  0  0  0
   20.9403  -20.0043  -10.6413 O   0  0  0  0  0  0  0  0  0  0  0  0
   22.0659  -21.6000   -9.4421 O   0  0  0  0  0  0  0  0  0  0  0  0
  2  1  1  6
  2  4  1  0
  3  2  1  0
  4  5  1  6
  6  4  1  0
  6  7  2  0
  8  9  1  0
  8  6  1  0
 10 11  1  0
  9 10  1  1
 11 19  1  0
 12 13  1  0
 12 11  2  0
 13 14  1  0
 14 19  2  0
 14 15  1  0
 15 16  2  0
 16 17  1  0
 18 17  2  0
 19 18  1  0
 20  9  1  0
 21 20  2  0
 23 22  1  6
 23 25  1  0
 24 23  1  0
 25 27  1  0
 25 26  1  1
 26 20  1  0
 27 29  1  0
 28 27  2  0
M  END
$$$$
