TWT.pdb
     RDKit          3D

 29 30  0  0  1  0  0  0  0  0999 V2000
   28.7897  -19.9127  -16.7937 C   0  0  0  0  0  0  0  0  0  0  0  0
   27.8918  -20.0801  -15.5817 C   0  0  1  0  0  0  0  0  0  0  0  0
   26.5544  -20.0226  -15.9688 O   0  0  0  0  0  0  0  0  0  0  0  0
   28.1413  -21.3937  -14.8685 C   0  0  2  0  0  0  0  0  0  0  0  0
   27.6664  -22.4417  -15.7605 N   0  0  0  0  0  0  0  0  0  0  0  0
   27.3536  -21.4654  -13.5977 C   0  0  0  0  0  0  0  0  0  0  0  0
   26.2548  -22.0917  -13.5876 O   0  0  0  0  0  0  0  0  0  0  0  0
   27.7785  -20.8657  -12.4027 N   0  0  0  0  0  0  0  0  0  0  0  0
   26.9827  -21.0527  -11.1681 C   0  0  1  0  0  0  0  0  0  0  0  0
   27.8411  -20.6451  -10.0176 C   0  0  0  0  0  0  0  0  0  0  0  0
   27.1739  -20.6133   -8.7229 C   0  0  0  0  0  0  0  0  0  0  0  0
   25.8241  -20.9075   -8.5339 C   0  0  0  0  0  0  0  0  0  0  0  0
   25.5234  -20.7412   -7.2394 N   0  0  0  0  0  0  0  0  0  0  0  0
   26.6237  -20.3508   -6.5786 C   0  0  0  0  0  0  0  0  0  0  0  0
   26.7754  -20.0833   -5.2292 C   0  0  0  0  0  0  0  0  0  0  0  0
   28.0313  -19.7198   -4.7931 C   0  0  0  0  0  0  0  0  0  0  0  0
   29.1032  -19.6269   -5.6840 C   0  0  0  0  0  0  0  0  0  0  0  0
   28.9233  -19.8968   -7.0165 C   0  0  0  0  0  0  0  0  0  0  0  0
   27.6695  -20.2661   -7.4930 C   0  0  0  0  0  0  0  0  0  0  0  0
   25.7454  -20.2868  -11.2671 C   0  0  0  0  0  0  0  0  0  0  0  0
   25.7163  -19.0329  -11.2122 O   0  0  0  0  0  0  0  0  0  0  0  0
   23.7013  -19.7966  -14.1478 C   0  0  0  0  0  0  0  0  0  0  0  0
   22.7588  -20.3754  -13.1257 C   0  0  1  0  0  0  0  0  0  0  0  0
   22.5879  -21.7526  -13.3206 O   0  0  0  0  0  0  0  0  0  0  0  0
   23.2947  -20.1205  -11.7301 C   0  0  2  0  0  0  0  0  0  0  0  0
   24.4598  -20.9205  -11.4350 N   0  0  0  0  0  0  0  0  0  0  0  0
   22.2325  -20.4486  -10.7207 C   0  0  0  0  0  0  0  0  0  0  0  0
   21.1792  -19.7914  -10.7065 O   0  0  0  0  0  0  0  0  0  0  0  0
   22.4409  -21.4839   -9.8151 O   0  0  0  0  0  0  0  0  0  0  0  0
  2  1  1  6
  2  4  1  0
  3  2  1  0
  4  5  1  6
  6  4  1  0
  6  7  2  0
  8  9  1  0
  8  6  1  0
 10 11  1  0
  9 10  1  1
 11 19  1  0
 12 13  1  0
 12 11  2  0
 13 14  1  0
 14 19  2  0
 14 15  1  0
 15 16  2  0
 16 17  1  0
 18 17  2  0
 19 18  1  0
 20  9  1  0
 21 20  2  0
 23 22  1  6
 23 25  1  0
 24 23  1  0
 25 27  1  0
 25 26  1  1
 26 20  1  0
 27 29  1  0
 28 27  2  0
M  END
$$$$
