TWT.pdb
     RDKit          3D

 29 30  0  0  1  0  0  0  0  0999 V2000
   28.0526  -17.2154  -15.5462 C   0  0  0  0  0  0  0  0  0  0  0  0
   27.3043  -18.4508  -15.0803 C   0  0  1  0  0  0  0  0  0  0  0  0
   26.9675  -19.2442  -16.1752 O   0  0  0  0  0  0  0  0  0  0  0  0
   28.1226  -19.2762  -14.1080 C   0  0  2  0  0  0  0  0  0  0  0  0
   29.2031  -19.8703  -14.8821 N   0  0  0  0  0  0  0  0  0  0  0  0
   27.2984  -20.3818  -13.5258 C   0  0  0  0  0  0  0  0  0  0  0  0
   27.4651  -21.5628  -13.9468 O   0  0  0  0  0  0  0  0  0  0  0  0
   26.3388  -20.1710  -12.5244 N   0  0  0  0  0  0  0  0  0  0  0  0
   25.6104  -21.3277  -11.9553 C   0  0  1  0  0  0  0  0  0  0  0  0
   25.1688  -20.9456  -10.5821 C   0  0  0  0  0  0  0  0  0  0  0  0
   26.2369  -20.5653   -9.6674 C   0  0  0  0  0  0  0  0  0  0  0  0
   26.0424  -19.8057   -8.5143 C   0  0  0  0  0  0  0  0  0  0  0  0
   27.2290  -19.5992   -7.9284 N   0  0  0  0  0  0  0  0  0  0  0  0
   28.1876  -20.1944   -8.6540 C   0  0  0  0  0  0  0  0  0  0  0  0
   29.5488  -20.2522   -8.4110 C   0  0  0  0  0  0  0  0  0  0  0  0
   30.3228  -20.9568   -9.3078 C   0  0  0  0  0  0  0  0  0  0  0  0
   29.7485  -21.5844  -10.4158 C   0  0  0  0  0  0  0  0  0  0  0  0
   28.3963  -21.5095  -10.6322 C   0  0  0  0  0  0  0  0  0  0  0  0
   27.5837  -20.8065   -9.7485 C   0  0  0  0  0  0  0  0  0  0  0  0
   24.5074  -21.6893  -12.8385 C   0  0  0  0  0  0  0  0  0  0  0  0
   23.8634  -20.8412  -13.5035 O   0  0  0  0  0  0  0  0  0  0  0  0
   21.9151  -25.1588  -15.2677 C   0  0  0  0  0  0  0  0  0  0  0  0
   23.0527  -24.8643  -14.3258 C   0  0  1  0  0  0  0  0  0  0  0  0
   24.2781  -25.2655  -14.8748 O   0  0  0  0  0  0  0  0  0  0  0  0
   23.0935  -23.3800  -14.0176 C   0  0  2  0  0  0  0  0  0  0  0  0
   24.0754  -23.0555  -13.0101 N   0  0  0  0  0  0  0  0  0  0  0  0
   21.7475  -22.9370  -13.5208 C   0  0  0  0  0  0  0  0  0  0  0  0
   21.6016  -22.6547  -12.3206 O   0  0  0  0  0  0  0  0  0  0  0  0
   20.6814  -22.8480  -14.4103 O   0  0  0  0  0  0  0  0  0  0  0  0
  2  1  1  6
  2  4  1  0
  3  2  1  0
  4  5  1  6
  6  4  1  0
  6  7  2  0
  8  9  1  0
  8  6  1  0
 10 11  1  0
  9 10  1  1
 11 19  1  0
 12 13  1  0
 12 11  2  0
 13 14  1  0
 14 19  2  0
 14 15  1  0
 15 16  2  0
 16 17  1  0
 18 17  2  0
 19 18  1  0
 20  9  1  0
 21 20  2  0
 23 22  1  6
 23 25  1  0
 24 23  1  0
 25 27  1  0
 25 26  1  1
 26 20  1  0
 27 29  1  0
 28 27  2  0
M  END
$$$$
