TWT.pdb
     RDKit          3D

 29 30  0  0  1  0  0  0  0  0999 V2000
   46.0994  -12.4886   -4.9085 C   0  0  0  0  0  0  0  0  0  0  0  0
   45.0895  -11.5607   -5.5582 C   0  0  1  0  0  0  0  0  0  0  0  0
   45.7017  -10.3573   -5.9026 O   0  0  0  0  0  0  0  0  0  0  0  0
   44.4744  -12.1728   -6.8005 C   0  0  2  0  0  0  0  0  0  0  0  0
   45.5765  -12.4484   -7.7111 N   0  0  0  0  0  0  0  0  0  0  0  0
   43.5463  -11.2047   -7.4653 C   0  0  0  0  0  0  0  0  0  0  0  0
   43.9750  -10.4970   -8.4219 O   0  0  0  0  0  0  0  0  0  0  0  0
   42.2086  -11.0412   -7.0757 N   0  0  0  0  0  0  0  0  0  0  0  0
   41.4182   -9.9183   -7.6298 C   0  0  1  0  0  0  0  0  0  0  0  0
   40.0249  -10.4115   -7.8351 C   0  0  0  0  0  0  0  0  0  0  0  0
   39.0463   -9.3887   -8.1795 C   0  0  0  0  0  0  0  0  0  0  0  0
   39.0039   -8.7328   -9.4092 C   0  0  0  0  0  0  0  0  0  0  0  0
   38.0178   -7.8268   -9.3812 N   0  0  0  0  0  0  0  0  0  0  0  0
   37.4168   -7.8673   -8.1825 C   0  0  0  0  0  0  0  0  0  0  0  0
   36.3439   -7.1224   -7.7251 C   0  0  0  0  0  0  0  0  0  0  0  0
   35.8952   -7.3772   -6.4470 C   0  0  0  0  0  0  0  0  0  0  0  0
   36.5049   -8.3499   -5.6512 C   0  0  0  0  0  0  0  0  0  0  0  0
   37.5675   -9.0724   -6.1304 C   0  0  0  0  0  0  0  0  0  0  0  0
   38.0481   -8.8422   -7.4155 C   0  0  0  0  0  0  0  0  0  0  0  0
   41.5006   -8.7749   -6.7280 C   0  0  0  0  0  0  0  0  0  0  0  0
   41.2158   -8.8502   -5.5076 O   0  0  0  0  0  0  0  0  0  0  0  0
   43.9430   -6.8760   -4.9740 C   0  0  0  0  0  0  0  0  0  0  0  0
   43.2948   -5.8817   -5.9010 C   0  0  1  0  0  0  0  0  0  0  0  0
   44.0530   -5.7116   -7.0673 O   0  0  0  0  0  0  0  0  0  0  0  0
   41.8993   -6.3514   -6.2638 C   0  0  2  0  0  0  0  0  0  0  0  0
   41.9167   -7.4685   -7.1783 N   0  0  0  0  0  0  0  0  0  0  0  0
   41.1476   -5.2253   -6.9131 C   0  0  0  0  0  0  0  0  0  0  0  0
   40.7725   -5.3400   -8.0911 O   0  0  0  0  0  0  0  0  0  0  0  0
   40.8804   -4.0687   -6.1876 O   0  0  0  0  0  0  0  0  0  0  0  0
  2  1  1  6
  2  4  1  0
  3  2  1  0
  4  5  1  6
  6  4  1  0
  6  7  2  0
  8  9  1  0
  8  6  1  0
 10 11  1  0
  9 10  1  1
 11 19  1  0
 12 13  1  0
 12 11  2  0
 13 14  1  0
 14 19  2  0
 14 15  1  0
 15 16  2  0
 16 17  1  0
 18 17  2  0
 19 18  1  0
 20  9  1  0
 21 20  2  0
 23 22  1  1
 23 25  1  0
 24 23  1  0
 25 27  1  0
 25 26  1  6
 26 20  1  0
 27 29  1  0
 28 27  2  0
M  END
$$$$
