TWT.pdb
     RDKit          3D

 29 30  0  0  1  0  0  0  0  0999 V2000
   27.1359  -24.7824  -16.1089 C   0  0  0  0  0  0  0  0  0  0  0  0
   28.5014  -24.4409  -16.6762 C   0  0  1  0  0  0  0  0  0  0  0  0
   28.8869  -25.4074  -17.6030 O   0  0  0  0  0  0  0  0  0  0  0  0
   28.5126  -23.0828  -17.3484 C   0  0  2  0  0  0  0  0  0  0  0  0
   29.8895  -22.8359  -17.7520 N   0  0  0  0  0  0  0  0  0  0  0  0
   28.1055  -22.0110  -16.3861 C   0  0  0  0  0  0  0  0  0  0  0  0
   28.9980  -21.3953  -15.7348 O   0  0  0  0  0  0  0  0  0  0  0  0
   26.7673  -21.6508  -16.1678 N   0  0  0  0  0  0  0  0  0  0  0  0
   26.4516  -20.5377  -15.2438 C   0  0  1  0  0  0  0  0  0  0  0  0
   25.6200  -19.5541  -15.9972 C   0  0  0  0  0  0  0  0  0  0  0  0
   26.3623  -18.4956  -16.6686 C   0  0  0  0  0  0  0  0  0  0  0  0
   26.8927  -18.6091  -17.9532 C   0  0  0  0  0  0  0  0  0  0  0  0
   27.5492  -17.4801  -18.2502 N   0  0  0  0  0  0  0  0  0  0  0  0
   27.4669  -16.6365  -17.2104 C   0  0  0  0  0  0  0  0  0  0  0  0
   27.9810  -15.3573  -17.0891 C   0  0  0  0  0  0  0  0  0  0  0  0
   27.7318  -14.6836  -15.9128 C   0  0  0  0  0  0  0  0  0  0  0  0
   26.9893  -15.2756  -14.8883 C   0  0  0  0  0  0  0  0  0  0  0  0
   26.4929  -16.5456  -15.0358 C   0  0  0  0  0  0  0  0  0  0  0  0
   26.7250  -17.2561  -16.2091 C   0  0  0  0  0  0  0  0  0  0  0  0
   25.7899  -21.0655  -14.0559 C   0  0  0  0  0  0  0  0  0  0  0  0
   24.9746  -22.0193  -14.0996 O   0  0  0  0  0  0  0  0  0  0  0  0
   25.2133  -21.2572   -9.1351 C   0  0  0  0  0  0  0  0  0  0  0  0
   26.0548  -20.7929  -10.2946 C   0  0  1  0  0  0  0  0  0  0  0  0
   27.3026  -21.4308  -10.2990 O   0  0  0  0  0  0  0  0  0  0  0  0
   25.3334  -21.0747  -11.5984 C   0  0  2  0  0  0  0  0  0  0  0  0
   26.0263  -20.5244  -12.7392 N   0  0  0  0  0  0  0  0  0  0  0  0
   23.9593  -20.4713  -11.5482 C   0  0  0  0  0  0  0  0  0  0  0  0
   23.7013  -19.4797  -12.2494 O   0  0  0  0  0  0  0  0  0  0  0  0
   22.9929  -21.0302  -10.7179 O   0  0  0  0  0  0  0  0  0  0  0  0
  2  1  1  6
  2  4  1  0
  3  2  1  0
  4  5  1  1
  6  4  1  0
  6  7  2  0
  8  9  1  0
  8  6  1  0
 10 11  1  0
  9 10  1  6
 11 19  1  0
 12 13  1  0
 12 11  2  0
 13 14  1  0
 14 19  2  0
 14 15  1  0
 15 16  2  0
 16 17  1  0
 18 17  2  0
 19 18  1  0
 20  9  1  0
 21 20  2  0
 23 22  1  1
 23 25  1  0
 24 23  1  0
 25 27  1  0
 25 26  1  6
 26 20  1  0
 27 29  1  0
 28 27  2  0
M  END
$$$$
