TWT.pdb
     RDKit          3D

 29 30  0  0  1  0  0  0  0  0999 V2000
   29.6549  -18.5856  -13.7438 C   0  0  0  0  0  0  0  0  0  0  0  0
   28.4807  -19.2933  -13.0929 C   0  0  1  0  0  0  0  0  0  0  0  0
   27.8021  -20.0583  -14.0395 O   0  0  0  0  0  0  0  0  0  0  0  0
   28.9208  -20.1940  -11.9565 C   0  0  2  0  0  0  0  0  0  0  0  0
   29.7496  -21.2319  -12.5527 N   0  0  0  0  0  0  0  0  0  0  0  0
   27.7399  -20.8487  -11.3104 C   0  0  0  0  0  0  0  0  0  0  0  0
   27.5198  -22.0753  -11.5267 O   0  0  0  0  0  0  0  0  0  0  0  0
   26.8544  -20.1616  -10.4667 N   0  0  0  0  0  0  0  0  0  0  0  0
   25.5806  -20.8020  -10.0671 C   0  0  1  0  0  0  0  0  0  0  0  0
   25.1885  -20.2302   -8.7457 C   0  0  0  0  0  0  0  0  0  0  0  0
   26.2928  -19.7770   -7.9106 C   0  0  0  0  0  0  0  0  0  0  0  0
   26.8917  -18.5228   -8.0230 C   0  0  0  0  0  0  0  0  0  0  0  0
   27.8981  -18.4448   -7.1426 N   0  0  0  0  0  0  0  0  0  0  0  0
   27.9775  -19.5980   -6.4616 C   0  0  0  0  0  0  0  0  0  0  0  0
   28.8531  -19.9479   -5.4486 C   0  0  0  0  0  0  0  0  0  0  0  0
   28.7072  -21.1994   -4.8899 C   0  0  0  0  0  0  0  0  0  0  0  0
   27.7129  -22.0742   -5.3344 C   0  0  0  0  0  0  0  0  0  0  0  0
   26.8597  -21.7008   -6.3412 C   0  0  0  0  0  0  0  0  0  0  0  0
   26.9775  -20.4455   -6.9292 C   0  0  0  0  0  0  0  0  0  0  0  0
   24.5823  -20.5894  -11.1091 C   0  0  0  0  0  0  0  0  0  0  0  0
   24.5065  -19.5248  -11.7702 O   0  0  0  0  0  0  0  0  0  0  0  0
   23.9959  -22.6274  -14.2674 C   0  0  0  0  0  0  0  0  0  0  0  0
   22.6872  -22.5493  -13.5263 C   0  0  1  0  0  0  0  0  0  0  0  0
   22.4374  -23.7327  -12.8185 O   0  0  0  0  0  0  0  0  0  0  0  0
   22.7097  -21.3758  -12.5660 C   0  0  2  0  0  0  0  0  0  0  0  0
   23.6050  -21.5934  -11.4544 N   0  0  0  0  0  0  0  0  0  0  0  0
   21.3290  -21.1524  -12.0196 C   0  0  0  0  0  0  0  0  0  0  0  0
   21.1373  -21.2250  -10.7951 O   0  0  0  0  0  0  0  0  0  0  0  0
   20.2827  -20.8667  -12.8909 O   0  0  0  0  0  0  0  0  0  0  0  0
  2  1  1  6
  2  4  1  0
  3  2  1  0
  4  5  1  6
  6  4  1  0
  6  7  2  0
  8  9  1  0
  8  6  1  0
 10 11  1  0
  9 10  1  1
 11 19  1  0
 12 13  1  0
 12 11  2  0
 13 14  1  0
 14 19  2  0
 14 15  1  0
 15 16  2  0
 16 17  1  0
 18 17  2  0
 19 18  1  0
 20  9  1  0
 21 20  2  0
 23 22  1  1
 23 25  1  0
 24 23  1  0
 25 27  1  0
 25 26  1  1
 26 20  1  0
 27 29  1  0
 28 27  2  0
M  END
$$$$
