TWT.pdb
     RDKit          3D

 29 30  0  0  1  0  0  0  0  0999 V2000
   28.6171  -18.7479  -16.3013 C   0  0  0  0  0  0  0  0  0  0  0  0
   27.7221  -19.2624  -15.1889 C   0  0  1  0  0  0  0  0  0  0  0  0
   26.5217  -19.7287  -15.7213 O   0  0  0  0  0  0  0  0  0  0  0  0
   28.3788  -20.3798  -14.4038 C   0  0  2  0  0  0  0  0  0  0  0  0
   28.4479  -21.5253  -15.2998 N   0  0  0  0  0  0  0  0  0  0  0  0
   27.5443  -20.7584  -13.2203 C   0  0  0  0  0  0  0  0  0  0  0  0
   26.7836  -21.7658  -13.2989 O   0  0  0  0  0  0  0  0  0  0  0  0
   27.5641  -20.0433  -12.0136 N   0  0  0  0  0  0  0  0  0  0  0  0
   26.7320  -20.5026  -10.8782 C   0  0  1  0  0  0  0  0  0  0  0  0
   27.2396  -19.8247   -9.6496 C   0  0  0  0  0  0  0  0  0  0  0  0
   26.6483  -20.2789   -8.3980 C   0  0  0  0  0  0  0  0  0  0  0  0
   25.4548  -20.9949   -8.3140 C   0  0  0  0  0  0  0  0  0  0  0  0
   25.1736  -21.2151   -7.0231 N   0  0  0  0  0  0  0  0  0  0  0  0
   26.1367  -20.6712   -6.2639 C   0  0  0  0  0  0  0  0  0  0  0  0
   26.2598  -20.6752   -4.8855 C   0  0  0  0  0  0  0  0  0  0  0  0
   27.3698  -20.0605   -4.3472 C   0  0  0  0  0  0  0  0  0  0  0  0
   28.3277  -19.4593   -5.1671 C   0  0  0  0  0  0  0  0  0  0  0  0
   28.1791  -19.4697   -6.5304 C   0  0  0  0  0  0  0  0  0  0  0  0
   27.0711  -20.0803   -7.1093 C   0  0  0  0  0  0  0  0  0  0  0  0
   25.3290  -20.2187  -11.1583 C   0  0  0  0  0  0  0  0  0  0  0  0
   24.9131  -19.0704  -11.4490 O   0  0  0  0  0  0  0  0  0  0  0  0
   21.1574  -21.9134  -13.0586 C   0  0  0  0  0  0  0  0  0  0  0  0
   22.5825  -22.1315  -12.6235 C   0  0  1  0  0  0  0  0  0  0  0  0
   23.4410  -22.2061  -13.7288 O   0  0  0  0  0  0  0  0  0  0  0  0
   23.0206  -21.0008  -11.7129 C   0  0  2  0  0  0  0  0  0  0  0  0
   24.3141  -21.2438  -11.1193 N   0  0  0  0  0  0  0  0  0  0  0  0
   22.0197  -20.8362  -10.6057 C   0  0  0  0  0  0  0  0  0  0  0  0
   20.8597  -20.4868  -10.8775 O   0  0  0  0  0  0  0  0  0  0  0  0
   22.4036  -21.0774   -9.2904 O   0  0  0  0  0  0  0  0  0  0  0  0
  2  1  1  6
  2  4  1  0
  3  2  1  0
  4  5  1  6
  6  4  1  0
  6  7  2  0
  8  9  1  0
  8  6  1  0
 10 11  1  0
  9 10  1  1
 11 19  1  0
 12 13  1  0
 12 11  2  0
 13 14  1  0
 14 19  2  0
 14 15  1  0
 15 16  2  0
 16 17  1  0
 18 17  2  0
 19 18  1  0
 20  9  1  0
 21 20  2  0
 23 22  1  6
 23 25  1  0
 24 23  1  0
 25 27  1  0
 25 26  1  1
 26 20  1  0
 27 29  1  0
 28 27  2  0
M  END
$$$$
