TWT.pdb
     RDKit          3D

 29 30  0  0  1  0  0  0  0  0999 V2000
   28.8678  -20.2288  -17.0001 C   0  0  0  0  0  0  0  0  0  0  0  0
   28.0151  -20.4383  -15.7623 C   0  0  1  0  0  0  0  0  0  0  0  0
   26.7013  -20.7201  -16.1317 O   0  0  0  0  0  0  0  0  0  0  0  0
   28.5367  -21.5694  -14.8993 C   0  0  2  0  0  0  0  0  0  0  0  0
   28.3620  -22.7902  -15.6731 N   0  0  0  0  0  0  0  0  0  0  0  0
   27.7341  -21.6911  -13.6418 C   0  0  0  0  0  0  0  0  0  0  0  0
   26.7215  -22.4488  -13.6272 O   0  0  0  0  0  0  0  0  0  0  0  0
   28.0527  -20.9984  -12.4642 N   0  0  0  0  0  0  0  0  0  0  0  0
   27.1623  -21.1111  -11.2865 C   0  0  1  0  0  0  0  0  0  0  0  0
   27.9213  -20.6107  -10.1032 C   0  0  0  0  0  0  0  0  0  0  0  0
   27.1701  -20.5624   -8.8559 C   0  0  0  0  0  0  0  0  0  0  0  0
   25.7941  -20.7689   -8.7660 C   0  0  0  0  0  0  0  0  0  0  0  0
   25.4166  -20.6111   -7.4906 N   0  0  0  0  0  0  0  0  0  0  0  0
   26.4921  -20.3106   -6.7472 C   0  0  0  0  0  0  0  0  0  0  0  0
   26.5678  -20.0837   -5.3841 C   0  0  0  0  0  0  0  0  0  0  0  0
   27.8119  -19.8156   -4.8550 C   0  0  0  0  0  0  0  0  0  0  0  0
   28.9464  -19.7757   -5.6691 C   0  0  0  0  0  0  0  0  0  0  0  0
   28.8413  -20.0034   -7.0174 C   0  0  0  0  0  0  0  0  0  0  0  0
   27.6017  -20.2766   -7.5867 C   0  0  0  0  0  0  0  0  0  0  0  0
   25.9293  -20.3735  -11.5375 C   0  0  0  0  0  0  0  0  0  0  0  0
   25.9005  -19.1263  -11.6787 O   0  0  0  0  0  0  0  0  0  0  0  0
   24.0036  -20.1571  -14.4482 C   0  0  0  0  0  0  0  0  0  0  0  0
   23.0046  -20.6350  -13.4275 C   0  0  1  0  0  0  0  0  0  0  0  0
   22.8161  -22.0209  -13.5175 O   0  0  0  0  0  0  0  0  0  0  0  0
   23.4815  -20.2747  -12.0338 C   0  0  2  0  0  0  0  0  0  0  0  0
   24.6480  -21.0292  -11.6407 N   0  0  0  0  0  0  0  0  0  0  0  0
   22.3867  -20.5542  -11.0448 C   0  0  0  0  0  0  0  0  0  0  0  0
   22.5551  -21.4260  -10.1769 O   0  0  0  0  0  0  0  0  0  0  0  0
   21.1987  -19.8335  -11.1123 O   0  0  0  0  0  0  0  0  0  0  0  0
  2  1  1  6
  2  4  1  0
  3  2  1  0
  4  5  1  6
  6  4  1  0
  6  7  2  0
  8  9  1  0
  8  6  1  0
 10 11  1  0
  9 10  1  1
 11 19  1  0
 12 13  1  0
 12 11  2  0
 13 14  1  0
 14 19  2  0
 14 15  1  0
 15 16  2  0
 16 17  1  0
 18 17  2  0
 19 18  1  0
 20  9  1  0
 21 20  2  0
 23 22  1  6
 23 25  1  0
 24 23  1  0
 25 27  1  0
 25 26  1  1
 26 20  1  0
 27 29  1  0
 28 27  2  0
M  END
$$$$
