TWT.pdb
     RDKit          3D

 29 30  0  0  1  0  0  0  0  0999 V2000
   26.9435  -18.9965  -15.2702 C   0  0  0  0  0  0  0  0  0  0  0  0
   27.4360  -20.3424  -15.7694 C   0  0  1  0  0  0  0  0  0  0  0  0
   28.2084  -20.1709  -16.9165 O   0  0  0  0  0  0  0  0  0  0  0  0
   28.2607  -21.0673  -14.7250 C   0  0  2  0  0  0  0  0  0  0  0  0
   28.5813  -22.3713  -15.2877 N   0  0  0  0  0  0  0  0  0  0  0  0
   27.4666  -21.2775  -13.4738 C   0  0  0  0  0  0  0  0  0  0  0  0
   26.5109  -22.1059  -13.4817 O   0  0  0  0  0  0  0  0  0  0  0  0
   27.7327  -20.5936  -12.2782 N   0  0  0  0  0  0  0  0  0  0  0  0
   26.8701  -20.8240  -11.0970 C   0  0  1  0  0  0  0  0  0  0  0  0
   27.5587  -20.2237   -9.9171 C   0  0  0  0  0  0  0  0  0  0  0  0
   26.8950  -20.4300   -8.6367 C   0  0  0  0  0  0  0  0  0  0  0  0
   25.6005  -20.9300   -8.5011 C   0  0  0  0  0  0  0  0  0  0  0  0
   25.2806  -20.9523   -7.2007 N   0  0  0  0  0  0  0  0  0  0  0  0
   26.3155  -20.4872   -6.4848 C   0  0  0  0  0  0  0  0  0  0  0  0
   26.4293  -20.3527   -5.1122 C   0  0  0  0  0  0  0  0  0  0  0  0
   27.6217  -19.8672   -4.6202 C   0  0  0  0  0  0  0  0  0  0  0  0
   28.6689  -19.5263   -5.4797 C   0  0  0  0  0  0  0  0  0  0  0  0
   28.5276  -19.6691   -6.8363 C   0  0  0  0  0  0  0  0  0  0  0  0
   27.3379  -20.1555   -7.3689 C   0  0  0  0  0  0  0  0  0  0  0  0
   25.5477  -20.2605  -11.3440 C   0  0  0  0  0  0  0  0  0  0  0  0
   25.3497  -19.0289  -11.4859 O   0  0  0  0  0  0  0  0  0  0  0  0
   23.4248  -20.5880  -14.2479 C   0  0  0  0  0  0  0  0  0  0  0  0
   22.5537  -21.0345  -13.1033 C   0  0  1  0  0  0  0  0  0  0  0  0
   22.4855  -22.4327  -13.0376 O   0  0  0  0  0  0  0  0  0  0  0  0
   23.1003  -20.4887  -11.7983 C   0  0  2  0  0  0  0  0  0  0  0  0
   24.3666  -21.0838  -11.4420 N   0  0  0  0  0  0  0  0  0  0  0  0
   22.1231  -20.7681  -10.6930 C   0  0  0  0  0  0  0  0  0  0  0  0
   22.4793  -21.4538   -9.7212 O   0  0  0  0  0  0  0  0  0  0  0  0
   20.8320  -20.2557  -10.7710 O   0  0  0  0  0  0  0  0  0  0  0  0
  2  1  1  1
  2  4  1  0
  3  2  1  0
  4  5  1  6
  6  4  1  0
  6  7  2  0
  8  9  1  0
  8  6  1  0
 10 11  1  0
  9 10  1  1
 11 19  1  0
 12 13  1  0
 12 11  2  0
 13 14  1  0
 14 19  2  0
 14 15  1  0
 15 16  2  0
 16 17  1  0
 18 17  2  0
 19 18  1  0
 20  9  1  0
 21 20  2  0
 23 22  1  6
 23 25  1  0
 24 23  1  0
 25 27  1  0
 25 26  1  1
 26 20  1  0
 27 29  1  0
 28 27  2  0
M  END
$$$$
