ISI.pdb
     RDKit          3D

 23 22  0  0  1  0  0  0  0  0999 V2000
    8.0548  -11.9404   21.5396 C   0  0  0  0  0  0  0  0  0  0  0  0
    7.6421  -13.3968   21.5441 C   0  0  0  0  0  0  0  0  0  0  0  0
    8.4613  -14.2094   20.5674 C   0  0  2  0  0  0  0  0  0  0  0  0
    8.4032  -13.6636   19.1770 C   0  0  0  0  0  0  0  0  0  0  0  0
    8.0851  -15.6728   20.5819 C   0  0  2  0  0  0  0  0  0  0  0  0
    6.7003  -15.7207   20.0866 N   0  0  0  0  0  0  0  0  0  0  0  0
    8.0958  -16.2285   21.9824 C   0  0  0  0  0  0  0  0  0  0  0  0
    7.0784  -16.1852   22.7134 O   0  0  0  0  0  0  0  0  0  0  0  0
   11.0784  -18.6269   23.2854 O   0  0  0  0  0  0  0  0  0  0  0  0
    9.7951  -18.7579   23.8065 C   0  0  0  0  0  0  0  0  0  0  0  0
    9.2052  -17.3446   23.8771 C   0  0  2  0  0  0  0  0  0  0  0  0
    9.2587  -16.8235   22.5307 N   0  0  0  0  0  0  0  0  0  0  0  0
    9.9719  -16.4837   24.7784 C   0  0  0  0  0  0  0  0  0  0  0  0
   10.9524  -15.8489   24.3694 O   0  0  0  0  0  0  0  0  0  0  0  0
    7.8301  -12.7165   27.3124 C   0  0  0  0  0  0  0  0  0  0  0  0
    8.8596  -13.5972   26.5915 C   0  0  0  0  0  0  0  0  0  0  0  0
    9.4256  -14.5154   27.6240 C   0  0  2  0  0  0  0  0  0  0  0  0
   10.1303  -13.6711   28.6648 C   0  0  0  0  0  0  0  0  0  0  0  0
   10.3675  -15.5572   27.0763 C   0  0  2  0  0  0  0  0  0  0  0  0
    9.6020  -16.3612   26.1454 N   0  0  0  0  0  0  0  0  0  0  0  0
   10.9430  -16.4231   28.1100 C   0  0  0  0  0  0  0  0  0  0  0  0
   10.2243  -17.5169   28.5612 O   0  0  0  0  0  0  0  0  0  0  0  0
   12.0723  -16.2390   28.6299 O   0  0  0  0  0  0  0  0  0  0  0  0
  1  2  1  0
  3  2  1  0
  3  4  1  6
  5  6  1  1
  5  3  1  0
  7  8  2  0
  7  5  1  0
  9 10  1  0
 11 10  1  6
 11 13  1  0
 11 12  1  0
 12  7  1  0
 13 20  1  0
 14 13  2  0
 16 15  1  0
 17 19  1  0
 17 18  1  1
 17 16  1  0
 19 20  1  6
 21 19  1  0
 21 22  1  0
 23 21  2  0
M  END
$$$$
