ISI.pdb
     RDKit          3D

 23 22  0  0  1  0  0  0  0  0999 V2000
    7.8805  -11.9890   19.6533 C   0  0  0  0  0  0  0  0  0  0  0  0
    7.5966  -13.4757   19.6739 C   0  0  0  0  0  0  0  0  0  0  0  0
    8.8128  -14.2792   19.2737 C   0  0  2  0  0  0  0  0  0  0  0  0
    9.3177  -13.9166   17.9141 C   0  0  0  0  0  0  0  0  0  0  0  0
    8.5752  -15.7680   19.3745 C   0  0  2  0  0  0  0  0  0  0  0  0
    7.4810  -16.0495   18.4318 N   0  0  0  0  0  0  0  0  0  0  0  0
    8.1100  -16.1574   20.7538 C   0  0  0  0  0  0  0  0  0  0  0  0
    6.8924  -16.1982   21.0486 O   0  0  0  0  0  0  0  0  0  0  0  0
   10.3197  -18.2544   23.3475 O   0  0  0  0  0  0  0  0  0  0  0  0
    8.9322  -18.1975   23.4321 C   0  0  0  0  0  0  0  0  0  0  0  0
    8.5329  -16.7538   23.1058 C   0  0  2  0  0  0  0  0  0  0  0  0
    9.0322  -16.4940   21.7753 N   0  0  0  0  0  0  0  0  0  0  0  0
    9.1164  -15.8045   24.0543 C   0  0  0  0  0  0  0  0  0  0  0  0
   10.2169  -15.2826   23.8350 O   0  0  0  0  0  0  0  0  0  0  0  0
    5.8317  -12.3062   26.1516 C   0  0  0  0  0  0  0  0  0  0  0  0
    7.0662  -12.9671   25.5236 C   0  0  0  0  0  0  0  0  0  0  0  0
    7.7921  -13.6480   26.6367 C   0  0  2  0  0  0  0  0  0  0  0  0
    8.2649  -12.5851   27.6059 C   0  0  0  0  0  0  0  0  0  0  0  0
    8.9549  -14.4967   26.1894 C   0  0  2  0  0  0  0  0  0  0  0  0
    8.4261  -15.4640   25.2494 N   0  0  0  0  0  0  0  0  0  0  0  0
    9.6201  -15.2001   27.2905 C   0  0  0  0  0  0  0  0  0  0  0  0
    9.0998  -16.3989   27.7472 O   0  0  0  0  0  0  0  0  0  0  0  0
   10.6567  -14.7818   27.8651 O   0  0  0  0  0  0  0  0  0  0  0  0
  1  2  1  0
  3  2  1  0
  3  4  1  6
  5  6  1  6
  5  3  1  0
  7  8  2  0
  7  5  1  0
  9 10  1  0
 11 10  1  1
 11 13  1  0
 11 12  1  0
 12  7  1  0
 13 20  1  0
 14 13  2  0
 16 15  1  0
 17 19  1  0
 17 18  1  1
 17 16  1  0
 19 20  1  6
 21 19  1  0
 21 22  1  0
 23 21  2  0
M  END
$$$$
