ISI.pdb
     RDKit          3D

 23 22  0  0  1  0  0  0  0  0999 V2000
    7.5860  -11.9814   18.6369 C   0  0  0  0  0  0  0  0  0  0  0  0
    7.9298  -13.4544   18.6961 C   0  0  0  0  0  0  0  0  0  0  0  0
    7.6818  -14.0279   20.0726 C   0  0  2  0  0  0  0  0  0  0  0  0
    8.4210  -13.2909   21.1426 C   0  0  0  0  0  0  0  0  0  0  0  0
    7.9814  -15.5074   20.1399 C   0  0  2  0  0  0  0  0  0  0  0  0
    6.9914  -16.1428   19.2557 N   0  0  0  0  0  0  0  0  0  0  0  0
    7.7734  -16.0468   21.5313 C   0  0  0  0  0  0  0  0  0  0  0  0
    6.6373  -16.0786   22.0599 O   0  0  0  0  0  0  0  0  0  0  0  0
    9.0098  -18.7601   25.1070 O   0  0  0  0  0  0  0  0  0  0  0  0
    9.2070  -18.3626   23.7884 C   0  0  0  0  0  0  0  0  0  0  0  0
    8.6107  -16.9559   23.6618 C   0  0  2  0  0  0  0  0  0  0  0  0
    8.8562  -16.5409   22.3000 N   0  0  0  0  0  0  0  0  0  0  0  0
    9.2384  -16.0174   24.5927 C   0  0  0  0  0  0  0  0  0  0  0  0
   10.3826  -15.5915   24.3902 O   0  0  0  0  0  0  0  0  0  0  0  0
    6.5372  -11.9456   26.4929 C   0  0  0  0  0  0  0  0  0  0  0  0
    7.6287  -12.8716   25.9395 C   0  0  0  0  0  0  0  0  0  0  0  0
    8.1330  -13.6680   27.0975 C   0  0  2  0  0  0  0  0  0  0  0  0
    8.7070  -12.7035   28.1137 C   0  0  0  0  0  0  0  0  0  0  0  0
    9.1603  -14.7091   26.7321 C   0  0  2  0  0  0  0  0  0  0  0  0
    8.5417  -15.5769   25.7507 N   0  0  0  0  0  0  0  0  0  0  0  0
    9.6108  -15.5090   27.8752 C   0  0  0  0  0  0  0  0  0  0  0  0
   10.7153  -15.0986   28.6019 O   0  0  0  0  0  0  0  0  0  0  0  0
    9.0514  -16.5692   28.2531 O   0  0  0  0  0  0  0  0  0  0  0  0
  1  2  1  0
  3  2  1  0
  3  4  1  1
  5  6  1  6
  5  3  1  0
  7  8  2  0
  7  5  1  0
  9 10  1  0
 11 10  1  6
 11 13  1  0
 11 12  1  0
 12  7  1  0
 13 20  1  0
 14 13  2  0
 16 15  1  0
 17 19  1  0
 17 18  1  1
 17 16  1  0
 19 20  1  6
 21 19  1  0
 21 22  1  0
 23 21  2  0
M  END
$$$$
