ISI.pdb
     RDKit          3D

 23 22  0  0  1  0  0  0  0  0999 V2000
    7.8686  -11.9361   19.7958 C   0  0  0  0  0  0  0  0  0  0  0  0
    7.5761  -13.4151   19.9321 C   0  0  0  0  0  0  0  0  0  0  0  0
    8.7391  -14.2573   19.4596 C   0  0  2  0  0  0  0  0  0  0  0  0
    9.1521  -13.9311   18.0604 C   0  0  0  0  0  0  0  0  0  0  0  0
    8.4717  -15.7373   19.6053 C   0  0  2  0  0  0  0  0  0  0  0  0
    7.3144  -16.0083   18.7378 N   0  0  0  0  0  0  0  0  0  0  0  0
    8.0839  -16.0886   21.0182 C   0  0  0  0  0  0  0  0  0  0  0  0
    6.9065  -15.9572   21.4276 O   0  0  0  0  0  0  0  0  0  0  0  0
   10.5188  -18.2234   23.4509 O   0  0  0  0  0  0  0  0  0  0  0  0
    9.1383  -18.2680   23.6184 C   0  0  0  0  0  0  0  0  0  0  0  0
    8.6129  -16.8644   23.2952 C   0  0  2  0  0  0  0  0  0  0  0  0
    9.0367  -16.5826   21.9431 N   0  0  0  0  0  0  0  0  0  0  0  0
    9.1565  -15.8603   24.2104 C   0  0  0  0  0  0  0  0  0  0  0  0
   10.2037  -15.2575   23.9426 O   0  0  0  0  0  0  0  0  0  0  0  0
    5.9389  -12.2944   26.1949 C   0  0  0  0  0  0  0  0  0  0  0  0
    7.1715  -13.0009   25.6147 C   0  0  0  0  0  0  0  0  0  0  0  0
    7.8285  -13.7068   26.7547 C   0  0  2  0  0  0  0  0  0  0  0  0
    8.2691  -12.6632   27.7594 C   0  0  0  0  0  0  0  0  0  0  0  0
    8.9982  -14.5703   26.3565 C   0  0  2  0  0  0  0  0  0  0  0  0
    8.4882  -15.5586   25.4281 N   0  0  0  0  0  0  0  0  0  0  0  0
    9.6339  -15.2486   27.4902 C   0  0  0  0  0  0  0  0  0  0  0  0
    9.2367  -16.5310   27.8277 O   0  0  0  0  0  0  0  0  0  0  0  0
   10.5381  -14.7358   28.1967 O   0  0  0  0  0  0  0  0  0  0  0  0
  1  2  1  0
  3  2  1  0
  3  4  1  6
  5  6  1  6
  5  3  1  0
  7  8  2  0
  7  5  1  0
  9 10  1  0
 11 10  1  1
 11 13  1  0
 11 12  1  0
 12  7  1  0
 13 20  1  0
 14 13  2  0
 16 15  1  0
 17 19  1  0
 17 18  1  1
 17 16  1  0
 19 20  1  6
 21 19  1  0
 21 22  1  0
 23 21  2  0
M  END
$$$$
