ISI.pdb
     RDKit          3D

 23 22  0  0  1  0  0  0  0  0999 V2000
    8.8235  -11.6044   19.4108 C   0  0  0  0  0  0  0  0  0  0  0  0
    9.2966  -13.0330   19.5744 C   0  0  0  0  0  0  0  0  0  0  0  0
    8.3374  -14.0124   18.9374 C   0  0  2  0  0  0  0  0  0  0  0  0
    6.9149  -13.7494   19.3143 C   0  0  0  0  0  0  0  0  0  0  0  0
    8.7085  -15.4485   19.2257 C   0  0  2  0  0  0  0  0  0  0  0  0
    7.8917  -16.2516   18.3020 N   0  0  0  0  0  0  0  0  0  0  0  0
    8.3368  -15.8396   20.6325 C   0  0  0  0  0  0  0  0  0  0  0  0
    7.1410  -15.8952   21.0040 O   0  0  0  0  0  0  0  0  0  0  0  0
   11.0700  -17.4325   23.2557 O   0  0  0  0  0  0  0  0  0  0  0  0
    9.7407  -17.8422   23.2249 C   0  0  0  0  0  0  0  0  0  0  0  0
    8.9063  -16.5962   22.9062 C   0  0  2  0  0  0  0  0  0  0  0  0
    9.3263  -16.1611   21.5942 N   0  0  0  0  0  0  0  0  0  0  0  0
    9.1317  -15.5307   23.8836 C   0  0  0  0  0  0  0  0  0  0  0  0
    9.9152  -14.6035   23.6430 O   0  0  0  0  0  0  0  0  0  0  0  0
    6.1785  -11.7252   26.8988 C   0  0  0  0  0  0  0  0  0  0  0  0
    7.4589  -12.5395   27.1282 C   0  0  0  0  0  0  0  0  0  0  0  0
    7.4051  -13.6872   26.1745 C   0  0  2  0  0  0  0  0  0  0  0  0
    6.2249  -14.5562   26.5547 C   0  0  0  0  0  0  0  0  0  0  0  0
    8.6649  -14.5139   26.1293 C   0  0  2  0  0  0  0  0  0  0  0  0
    8.4515  -15.5425   25.1317 N   0  0  0  0  0  0  0  0  0  0  0  0
    8.9967  -15.1405   27.4125 C   0  0  0  0  0  0  0  0  0  0  0  0
    8.8566  -16.5099   27.5593 O   0  0  0  0  0  0  0  0  0  0  0  0
    9.4104  -14.5068   28.4160 O   0  0  0  0  0  0  0  0  0  0  0  0
  1  2  1  0
  3  2  1  0
  3  4  1  1
  5  6  1  6
  5  3  1  0
  7  8  2  0
  7  5  1  0
  9 10  1  0
 11 10  1  1
 11 13  1  0
 11 12  1  0
 12  7  1  0
 13 20  1  0
 14 13  2  0
 16 15  1  0
 17 19  1  0
 17 18  1  1
 17 16  1  0
 19 20  1  6
 21 19  1  0
 21 22  1  0
 23 21  2  0
M  END
$$$$
