ISI.pdb
     RDKit          3D

 23 22  0  0  1  0  0  0  0  0999 V2000
    7.5166  -12.0464   19.0114 C   0  0  0  0  0  0  0  0  0  0  0  0
    7.5843  -13.5538   19.1323 C   0  0  0  0  0  0  0  0  0  0  0  0
    7.7807  -13.9879   20.5669 C   0  0  2  0  0  0  0  0  0  0  0  0
    8.9673  -13.3398   21.2048 C   0  0  0  0  0  0  0  0  0  0  0  0
    7.8548  -15.4906   20.7063 C   0  0  2  0  0  0  0  0  0  0  0  0
    6.5901  -15.9935   20.1468 N   0  0  0  0  0  0  0  0  0  0  0  0
    7.9184  -15.9052   22.1535 C   0  0  0  0  0  0  0  0  0  0  0  0
    7.0073  -15.6087   22.9618 O   0  0  0  0  0  0  0  0  0  0  0  0
   11.1127  -17.9799   23.6480 O   0  0  0  0  0  0  0  0  0  0  0  0
    9.8480  -18.3578   24.0878 C   0  0  0  0  0  0  0  0  0  0  0  0
    8.9718  -17.1010   24.0315 C   0  0  2  0  0  0  0  0  0  0  0  0
    9.0130  -16.6485   22.6601 N   0  0  0  0  0  0  0  0  0  0  0  0
    9.4735  -16.0526   24.9206 C   0  0  0  0  0  0  0  0  0  0  0  0
   10.3441  -15.2597   24.5398 O   0  0  0  0  0  0  0  0  0  0  0  0
    6.5551  -12.5479   27.0126 C   0  0  0  0  0  0  0  0  0  0  0  0
    7.7658  -13.2970   26.4397 C   0  0  0  0  0  0  0  0  0  0  0  0
    8.3664  -14.0584   27.5751 C   0  0  2  0  0  0  0  0  0  0  0  0
    8.8290  -13.0599   28.6150 C   0  0  0  0  0  0  0  0  0  0  0  0
    9.5065  -14.9620   27.1799 C   0  0  2  0  0  0  0  0  0  0  0  0
    8.9671  -15.9262   26.2428 N   0  0  0  0  0  0  0  0  0  0  0  0
   10.1095  -15.6689   28.3140 C   0  0  0  0  0  0  0  0  0  0  0  0
   11.1406  -15.0725   29.0193 O   0  0  0  0  0  0  0  0  0  0  0  0
    9.7478  -16.8081   28.7026 O   0  0  0  0  0  0  0  0  0  0  0  0
  1  2  1  0
  3  2  1  0
  3  4  1  6
  5  6  1  1
  5  3  1  0
  7  8  2  0
  7  5  1  0
  9 10  1  0
 11 10  1  6
 11 13  1  0
 11 12  1  0
 12  7  1  0
 13 20  1  0
 14 13  2  0
 16 15  1  0
 17 19  1  0
 17 18  1  1
 17 16  1  0
 19 20  1  6
 21 19  1  0
 21 22  1  0
 23 21  2  0
M  END
$$$$
