ISI.pdb
     RDKit          3D

 23 22  0  0  1  0  0  0  0  0999 V2000
    7.6026  -11.9906   18.9910 C   0  0  0  0  0  0  0  0  0  0  0  0
    7.8823  -13.4779   19.0244 C   0  0  0  0  0  0  0  0  0  0  0  0
    7.8817  -14.0117   20.4387 C   0  0  2  0  0  0  0  0  0  0  0  0
    8.8178  -13.2652   21.3337 C   0  0  0  0  0  0  0  0  0  0  0  0
    8.1630  -15.4954   20.4916 C   0  0  2  0  0  0  0  0  0  0  0  0
    7.0780  -16.1222   19.7200 N   0  0  0  0  0  0  0  0  0  0  0  0
    8.0894  -16.0180   21.9029 C   0  0  0  0  0  0  0  0  0  0  0  0
    7.0308  -15.9563   22.5713 O   0  0  0  0  0  0  0  0  0  0  0  0
   11.2298  -17.9684   23.6043 O   0  0  0  0  0  0  0  0  0  0  0  0
    9.9465  -18.3042   24.0243 C   0  0  0  0  0  0  0  0  0  0  0  0
    9.1009  -17.0308   23.9074 C   0  0  2  0  0  0  0  0  0  0  0  0
    9.2164  -16.6014   22.5328 N   0  0  0  0  0  0  0  0  0  0  0  0
    9.5821  -15.9787   24.8033 C   0  0  0  0  0  0  0  0  0  0  0  0
   10.5391  -15.2616   24.4845 O   0  0  0  0  0  0  0  0  0  0  0  0
    6.4292  -12.4463   26.5800 C   0  0  0  0  0  0  0  0  0  0  0  0
    7.7051  -13.1546   26.1051 C   0  0  0  0  0  0  0  0  0  0  0  0
    8.2647  -13.8590   27.2968 C   0  0  2  0  0  0  0  0  0  0  0  0
    8.6651  -12.8112   28.3139 C   0  0  0  0  0  0  0  0  0  0  0  0
    9.4347  -14.7590   26.9909 C   0  0  2  0  0  0  0  0  0  0  0  0
    8.9560  -15.7613   26.0607 N   0  0  0  0  0  0  0  0  0  0  0  0
    9.9874  -15.4194   28.1775 C   0  0  0  0  0  0  0  0  0  0  0  0
    9.5926  -16.7100   28.4858 O   0  0  0  0  0  0  0  0  0  0  0  0
   10.8161  -14.8838   28.9559 O   0  0  0  0  0  0  0  0  0  0  0  0
  1  2  1  0
  3  2  1  0
  3  4  1  1
  5  6  1  6
  5  3  1  0
  7  8  2  0
  7  5  1  0
  9 10  1  0
 11 10  1  6
 11 13  1  0
 11 12  1  0
 12  7  1  0
 13 20  1  0
 14 13  2  0
 16 15  1  0
 17 19  1  0
 17 18  1  1
 17 16  1  0
 19 20  1  6
 21 19  1  0
 21 22  1  0
 23 21  2  0
M  END
$$$$
