ISI.pdb
     RDKit          3D

 23 22  0  0  1  0  0  0  0  0999 V2000
    7.5430  -11.9630   19.1024 C   0  0  0  0  0  0  0  0  0  0  0  0
    7.7924  -13.4561   19.1111 C   0  0  0  0  0  0  0  0  0  0  0  0
    7.8409  -14.0030   20.5196 C   0  0  2  0  0  0  0  0  0  0  0  0
    8.7819  -13.2428   21.3978 C   0  0  0  0  0  0  0  0  0  0  0  0
    8.1582  -15.4800   20.5506 C   0  0  2  0  0  0  0  0  0  0  0  0
    7.0768  -16.1237   19.7879 N   0  0  0  0  0  0  0  0  0  0  0  0
    8.1188  -16.0205   21.9565 C   0  0  0  0  0  0  0  0  0  0  0  0
    7.0684  -15.9955   22.6401 O   0  0  0  0  0  0  0  0  0  0  0  0
   11.2181  -18.1403   23.5171 O   0  0  0  0  0  0  0  0  0  0  0  0
    9.9219  -18.3980   23.9520 C   0  0  0  0  0  0  0  0  0  0  0  0
    9.1766  -17.0586   23.9237 C   0  0  2  0  0  0  0  0  0  0  0  0
    9.2701  -16.5800   22.5638 N   0  0  0  0  0  0  0  0  0  0  0  0
    9.7765  -16.0873   24.8391 C   0  0  0  0  0  0  0  0  0  0  0  0
   10.7254  -15.3785   24.4806 O   0  0  0  0  0  0  0  0  0  0  0  0
    6.7665  -12.7583   27.1800 C   0  0  0  0  0  0  0  0  0  0  0  0
    7.9647  -13.4388   26.5045 C   0  0  0  0  0  0  0  0  0  0  0  0
    8.7240  -14.1291   27.5892 C   0  0  2  0  0  0  0  0  0  0  0  0
    9.2522  -13.0721   28.5359 C   0  0  0  0  0  0  0  0  0  0  0  0
    9.8544  -14.9969   27.0975 C   0  0  2  0  0  0  0  0  0  0  0  0
    9.2772  -15.9406   26.1619 N   0  0  0  0  0  0  0  0  0  0  0  0
   10.5361  -15.7283   28.1698 C   0  0  0  0  0  0  0  0  0  0  0  0
   11.6382  -15.1624   28.7876 O   0  0  0  0  0  0  0  0  0  0  0  0
   10.1824  -16.8625   28.5796 O   0  0  0  0  0  0  0  0  0  0  0  0
  1  2  1  0
  3  2  1  0
  3  4  1  1
  5  6  1  6
  5  3  1  0
  7  8  2  0
  7  5  1  0
  9 10  1  0
 11 10  1  6
 11 13  1  0
 11 12  1  0
 12  7  1  0
 13 20  1  0
 14 13  2  0
 16 15  1  0
 17 19  1  0
 17 18  1  1
 17 16  1  0
 19 20  1  6
 21 19  1  0
 21 22  1  0
 23 21  2  0
M  END
$$$$
