ENK.pdb
     RDKit          3D

 27 26  0  0  1  0  0  0  0  0999 V2000
   15.9283  -19.7435   21.4902 N   0  0  0  0  0  0  0  0  0  0  0  0
   16.4459  -19.8585   22.8488 C   0  0  1  0  0  0  0  0  0  0  0  0
   16.8502  -18.4593   23.3402 C   0  0  0  0  0  0  0  0  0  0  0  0
   17.7777  -17.7663   22.3913 C   0  0  0  0  0  0  0  0  0  0  0  0
   18.1954  -16.4210   22.8289 C   0  0  0  0  0  0  0  0  0  0  0  0
   19.3839  -16.1266   23.1373 O   0  0  0  0  0  0  0  0  0  0  0  0
   15.4149  -20.4260   23.7604 C   0  0  0  0  0  0  0  0  0  0  0  0
   14.3763  -20.8733   23.3037 O   0  0  0  0  0  0  0  0  0  0  0  0
   17.2433  -15.4112   22.9120 O   0  0  0  0  0  0  0  0  0  0  0  0
   14.2775  -22.8015   29.2571 N   0  0  0  0  0  0  0  0  0  0  0  0
   14.3069  -22.7289   27.8533 C   0  0  0  0  0  0  0  0  0  0  0  0
   13.3207  -23.2865   27.2540 O   0  0  0  0  0  0  0  0  0  0  0  0
   15.3658  -22.0734   27.0391 C   0  0  0  0  0  0  0  0  0  0  0  0
   14.7806  -21.0869   26.1159 C   0  0  2  0  0  0  0  0  0  0  0  0
   15.6142  -20.4601   25.1597 N   0  0  0  0  0  0  0  0  0  0  0  0
   14.1787  -19.9946   26.9414 C   0  0  0  0  0  0  0  0  0  0  0  0
   14.4979  -19.8739   28.1601 O   0  0  0  0  0  0  0  0  0  0  0  0
   13.2424  -19.0516   26.4307 N   0  0  0  0  0  0  0  0  0  0  0  0
   11.8384  -19.1309   26.8590 C   0  0  1  0  0  0  0  0  0  0  0  0
   11.1062  -19.9877   25.8432 C   0  0  0  0  0  0  0  0  0  0  0  0
   10.7815  -19.1342   24.6576 C   0  0  0  0  0  0  0  0  0  0  0  0
   10.2363  -19.9627   23.4999 C   0  0  0  0  0  0  0  0  0  0  0  0
   10.0938  -19.0058   22.3225 C   0  0  0  0  0  0  0  0  0  0  0  0
    9.5543  -19.6704   21.1665 N   0  0  0  0  0  0  0  0  0  0  0  0
   11.7902  -19.7237   28.2113 C   0  0  0  0  0  0  0  0  0  0  0  0
   12.1010  -20.9251   28.4084 O   0  0  0  0  0  0  0  0  0  0  0  0
   11.3991  -18.9846   29.3366 O   0  0  0  0  0  0  0  0  0  0  0  0
  2  1  1  6
  3  2  1  0
  4  5  1  0
  4  3  1  0
  5  6  2  0
  7  2  1  0
  7  8  2  0
  9  5  1  0
 10 11  1  0
 11 12  2  0
 11 13  1  0
 14 13  1  1
 14 15  1  0
 15  7  1  0
 16 14  1  0
 17 16  2  0
 18 16  1  0
 19 18  1  0
 19 20  1  6
 20 21  1  0
 21 22  1  0
 22 23  1  0
 23 24  1  0
 25 27  1  0
 25 19  1  0
 26 25  2  0
M  END
$$$$
