ENK.pdb
     RDKit          3D

 27 26  0  0  1  0  0  0  0  0999 V2000
    9.9195  -17.1958   16.1450 N   0  0  0  0  0  0  0  0  0  0  0  0
   10.9509  -17.5441   17.1156 C   0  0  1  0  0  0  0  0  0  0  0  0
   12.3248  -17.4199   16.4376 C   0  0  0  0  0  0  0  0  0  0  0  0
   12.5876  -16.0373   15.9275 C   0  0  0  0  0  0  0  0  0  0  0  0
   13.8422  -15.9034   15.1634 C   0  0  0  0  0  0  0  0  0  0  0  0
   14.8991  -15.4048   15.6417 O   0  0  0  0  0  0  0  0  0  0  0  0
   10.8952  -16.6363   18.2940 C   0  0  0  0  0  0  0  0  0  0  0  0
   11.9235  -16.3126   18.8641 O   0  0  0  0  0  0  0  0  0  0  0  0
   13.8814  -16.3441   13.8454 O   0  0  0  0  0  0  0  0  0  0  0  0
    8.3336  -12.0951   19.0452 N   0  0  0  0  0  0  0  0  0  0  0  0
    8.1597  -13.4819   18.8919 C   0  0  0  0  0  0  0  0  0  0  0  0
    7.9170  -13.8759   17.6967 O   0  0  0  0  0  0  0  0  0  0  0  0
    8.2339  -14.4927   19.9813 C   0  0  0  0  0  0  0  0  0  0  0  0
    9.4761  -15.2771   19.8836 C   0  0  2  0  0  0  0  0  0  0  0  0
    9.6635  -16.1334   18.7728 N   0  0  0  0  0  0  0  0  0  0  0  0
    9.5688  -16.1340   21.1058 C   0  0  0  0  0  0  0  0  0  0  0  0
    8.7827  -17.1151   21.2514 O   0  0  0  0  0  0  0  0  0  0  0  0
   10.5129  -15.9128   22.1482 N   0  0  0  0  0  0  0  0  0  0  0  0
   10.7153  -16.9544   23.1655 C   0  0  1  0  0  0  0  0  0  0  0  0
   11.9776  -17.7088   22.7915 C   0  0  0  0  0  0  0  0  0  0  0  0
   12.1705  -18.8172   23.7781 C   0  0  0  0  0  0  0  0  0  0  0  0
   13.4776  -19.5640   23.5374 C   0  0  0  0  0  0  0  0  0  0  0  0
   13.5196  -20.6892   24.5643 C   0  0  0  0  0  0  0  0  0  0  0  0
   14.6996  -21.4975   24.4113 N   0  0  0  0  0  0  0  0  0  0  0  0
   10.8365  -16.3061   24.4874 C   0  0  0  0  0  0  0  0  0  0  0  0
   11.0708  -15.0760   24.5918 O   0  0  0  0  0  0  0  0  0  0  0  0
   10.6974  -17.0217   25.6850 O   0  0  0  0  0  0  0  0  0  0  0  0
  2  1  1  6
  3  2  1  0
  4  5  1  0
  4  3  1  0
  5  6  2  0
  7  2  1  0
  7  8  2  0
  9  5  1  0
 10 11  1  0
 11 12  2  0
 11 13  1  0
 14 13  1  6
 14 15  1  0
 15  7  1  0
 16 14  1  0
 17 16  2  0
 18 16  1  0
 19 18  1  0
 19 20  1  6
 20 21  1  0
 21 22  1  0
 22 23  1  0
 23 24  1  0
 25 27  1  0
 25 19  1  0
 26 25  2  0
M  END
$$$$
