ENK.pdb
     RDKit          3D

 27 26  0  0  1  0  0  0  0  0999 V2000
    9.5965  -14.9316   19.1014 N   0  0  0  0  0  0  0  0  0  0  0  0
    8.7720  -15.8775   19.8446 C   0  0  1  0  0  0  0  0  0  0  0  0
    9.1274  -17.3019   19.3891 C   0  0  0  0  0  0  0  0  0  0  0  0
   10.5800  -17.6145   19.5715 C   0  0  0  0  0  0  0  0  0  0  0  0
   10.9827  -18.9371   19.0573 C   0  0  0  0  0  0  0  0  0  0  0  0
   10.8112  -20.0137   19.6943 O   0  0  0  0  0  0  0  0  0  0  0  0
    9.0113  -15.7503   21.3083 C   0  0  0  0  0  0  0  0  0  0  0  0
   10.0663  -15.2948   21.7168 O   0  0  0  0  0  0  0  0  0  0  0  0
   11.5844  -19.0217   17.8068 O   0  0  0  0  0  0  0  0  0  0  0  0
    7.5356  -13.7723   26.0704 N   0  0  0  0  0  0  0  0  0  0  0  0
    6.7872  -14.8402   25.5447 C   0  0  0  0  0  0  0  0  0  0  0  0
    6.1596  -15.5485   26.4090 O   0  0  0  0  0  0  0  0  0  0  0  0
    6.6751  -15.1967   24.1045 C   0  0  0  0  0  0  0  0  0  0  0  0
    7.9460  -15.7430   23.6002 C   0  0  2  0  0  0  0  0  0  0  0  0
    8.0321  -16.1484   22.2473 N   0  0  0  0  0  0  0  0  0  0  0  0
    8.2854  -16.9409   24.4289 C   0  0  0  0  0  0  0  0  0  0  0  0
    7.9389  -18.0954   24.0433 O   0  0  0  0  0  0  0  0  0  0  0  0
    8.9955  -16.8659   25.6606 N   0  0  0  0  0  0  0  0  0  0  0  0
    9.3207  -18.1073   26.3776 C   0  0  1  0  0  0  0  0  0  0  0  0
   10.2756  -17.7418   27.4987 C   0  0  0  0  0  0  0  0  0  0  0  0
   10.6539  -18.9973   28.2197 C   0  0  0  0  0  0  0  0  0  0  0  0
   11.7402  -18.7442   29.2590 C   0  0  0  0  0  0  0  0  0  0  0  0
   12.1023  -20.1073   29.8359 C   0  0  0  0  0  0  0  0  0  0  0  0
   13.1205  -19.9975   30.8462 N   0  0  0  0  0  0  0  0  0  0  0  0
    8.0683  -18.6954   26.8953 C   0  0  0  0  0  0  0  0  0  0  0  0
    7.9938  -19.9141   27.1924 O   0  0  0  0  0  0  0  0  0  0  0  0
    6.9068  -17.9326   27.0817 O   0  0  0  0  0  0  0  0  0  0  0  0
  2  1  1  6
  3  2  1  0
  4  5  1  0
  4  3  1  0
  5  6  2  0
  7  2  1  0
  7  8  2  0
  9  5  1  0
 10 11  1  0
 11 12  2  0
 11 13  1  0
 14 13  1  1
 14 15  1  0
 15  7  1  0
 16 14  1  0
 17 16  2  0
 18 16  1  0
 19 18  1  0
 19 20  1  1
 20 21  1  0
 21 22  1  0
 22 23  1  0
 23 24  1  0
 25 27  1  0
 25 19  1  0
 26 25  2  0
M  END
$$$$
