ENK.pdb
     RDKit          3D

 27 26  0  0  1  0  0  0  0  0999 V2000
    7.9403  -15.8112   18.6424 N   0  0  0  0  0  0  0  0  0  0  0  0
    8.3943  -14.5984   19.3134 C   0  0  1  0  0  0  0  0  0  0  0  0
    7.6153  -13.4017   18.7445 C   0  0  0  0  0  0  0  0  0  0  0  0
    8.2352  -12.8581   17.4950 C   0  0  0  0  0  0  0  0  0  0  0  0
    8.1808  -13.7785   16.3436 C   0  0  0  0  0  0  0  0  0  0  0  0
    9.0884  -14.6148   16.0770 O   0  0  0  0  0  0  0  0  0  0  0  0
    8.1628  -14.6888   20.7812 C   0  0  0  0  0  0  0  0  0  0  0  0
    8.6269  -13.8415   21.5254 O   0  0  0  0  0  0  0  0  0  0  0  0
    7.0792  -13.7369   15.4963 O   0  0  0  0  0  0  0  0  0  0  0  0
    4.2878  -17.8850   21.6273 N   0  0  0  0  0  0  0  0  0  0  0  0
    5.4491  -17.6843   22.3940 C   0  0  0  0  0  0  0  0  0  0  0  0
    6.2467  -18.6856   22.4546 O   0  0  0  0  0  0  0  0  0  0  0  0
    5.8075  -16.4344   23.1175 C   0  0  0  0  0  0  0  0  0  0  0  0
    7.1410  -15.9593   22.7123 C   0  0  2  0  0  0  0  0  0  0  0  0
    7.4074  -15.7458   21.3391 N   0  0  0  0  0  0  0  0  0  0  0  0
    8.1440  -16.9591   23.1931 C   0  0  0  0  0  0  0  0  0  0  0  0
    8.6180  -17.8155   22.3907 O   0  0  0  0  0  0  0  0  0  0  0  0
    8.6164  -17.0121   24.5350 N   0  0  0  0  0  0  0  0  0  0  0  0
    9.7556  -17.8823   24.8605 C   0  0  1  0  0  0  0  0  0  0  0  0
   10.9893  -17.2616   24.2321 C   0  0  0  0  0  0  0  0  0  0  0  0
   12.0965  -18.2671   24.2816 C   0  0  0  0  0  0  0  0  0  0  0  0
   13.3990  -17.6980   23.7306 C   0  0  0  0  0  0  0  0  0  0  0  0
   14.4261  -18.8197   23.8238 C   0  0  0  0  0  0  0  0  0  0  0  0
   15.6895  -18.4245   23.2611 N   0  0  0  0  0  0  0  0  0  0  0  0
    9.8762  -17.9722   26.3301 C   0  0  0  0  0  0  0  0  0  0  0  0
    9.2392  -17.1962   27.0858 O   0  0  0  0  0  0  0  0  0  0  0  0
   10.6999  -18.9193   26.9547 O   0  0  0  0  0  0  0  0  0  0  0  0
  2  1  1  6
  3  2  1  0
  4  5  1  0
  4  3  1  0
  5  6  2  0
  7  2  1  0
  7  8  2  0
  9  5  1  0
 10 11  1  0
 11 12  2  0
 11 13  1  0
 14 13  1  6
 14 15  1  0
 15  7  1  0
 16 14  1  0
 17 16  2  0
 18 16  1  0
 19 18  1  0
 19 20  1  6
 20 21  1  0
 21 22  1  0
 22 23  1  0
 23 24  1  0
 25 27  1  0
 25 19  1  0
 26 25  2  0
M  END
$$$$
