ENK.pdb
     RDKit          3D

 27 26  0  0  1  0  0  0  0  0999 V2000
    7.9660  -16.7772   21.5650 N   0  0  0  0  0  0  0  0  0  0  0  0
    8.4628  -15.4378   21.2714 C   0  0  1  0  0  0  0  0  0  0  0  0
    7.6248  -14.8432   20.1282 C   0  0  0  0  0  0  0  0  0  0  0  0
    8.0982  -13.4828   19.7203 C   0  0  0  0  0  0  0  0  0  0  0  0
    8.2424  -13.3050   18.2631 C   0  0  0  0  0  0  0  0  0  0  0  0
    8.4654  -12.1889   17.7164 O   0  0  0  0  0  0  0  0  0  0  0  0
    8.3592  -14.5616   22.4703 C   0  0  0  0  0  0  0  0  0  0  0  0
    8.9082  -13.4727   22.4796 O   0  0  0  0  0  0  0  0  0  0  0  0
    8.1297  -14.4140   17.4323 O   0  0  0  0  0  0  0  0  0  0  0  0
    7.3014  -12.1262   26.8631 N   0  0  0  0  0  0  0  0  0  0  0  0
    6.2576  -12.9974   26.5051 C   0  0  0  0  0  0  0  0  0  0  0  0
    5.3150  -13.1080   27.3665 O   0  0  0  0  0  0  0  0  0  0  0  0
    6.1708  -13.7758   25.2399 C   0  0  0  0  0  0  0  0  0  0  0  0
    7.5009  -14.2540   24.8275 C   0  0  2  0  0  0  0  0  0  0  0  0
    7.6295  -14.9664   23.6117 N   0  0  0  0  0  0  0  0  0  0  0  0
    8.0147  -15.1526   25.9071 C   0  0  0  0  0  0  0  0  0  0  0  0
    7.9786  -14.7750   27.1145 O   0  0  0  0  0  0  0  0  0  0  0  0
    8.5573  -16.4451   25.6587 N   0  0  0  0  0  0  0  0  0  0  0  0
    9.0018  -17.2666   26.7938 C   0  0  1  0  0  0  0  0  0  0  0  0
    8.8771  -18.7192   26.3735 C   0  0  0  0  0  0  0  0  0  0  0  0
    7.7333  -19.3271   27.1228 C   0  0  0  0  0  0  0  0  0  0  0  0
    7.5491  -20.7991   26.7717 C   0  0  0  0  0  0  0  0  0  0  0  0
    6.2599  -21.2407   27.4537 C   0  0  0  0  0  0  0  0  0  0  0  0
    5.9470  -22.6115   27.1505 N   0  0  0  0  0  0  0  0  0  0  0  0
   10.3980  -16.9085   27.1177 C   0  0  0  0  0  0  0  0  0  0  0  0
   11.1275  -16.3105   26.2875 O   0  0  0  0  0  0  0  0  0  0  0  0
   10.9783  -17.2132   28.3570 O   0  0  0  0  0  0  0  0  0  0  0  0
  2  1  1  1
  3  2  1  0
  4  5  1  0
  4  3  1  0
  5  6  2  0
  7  2  1  0
  7  8  2  0
  9  5  1  0
 10 11  1  0
 11 12  2  0
 11 13  1  0
 14 13  1  1
 14 15  1  0
 15  7  1  0
 16 14  1  0
 17 16  2  0
 18 16  1  0
 19 18  1  0
 19 20  1  6
 20 21  1  0
 21 22  1  0
 22 23  1  0
 23 24  1  0
 25 27  1  0
 25 19  1  0
 26 25  2  0
M  END
$$$$
