ENK.pdb
     RDKit          3D

 27 26  0  0  1  0  0  0  0  0999 V2000
   10.5987  -18.9482   17.3553 N   0  0  0  0  0  0  0  0  0  0  0  0
   11.1059  -17.6734   16.8605 C   0  0  1  0  0  0  0  0  0  0  0  0
   10.4201  -17.3588   15.5214 C   0  0  0  0  0  0  0  0  0  0  0  0
   10.9244  -16.0912   14.9049 C   0  0  0  0  0  0  0  0  0  0  0  0
   10.2904  -15.7517   13.6170 C   0  0  0  0  0  0  0  0  0  0  0  0
   10.1442  -16.5780   12.6735 O   0  0  0  0  0  0  0  0  0  0  0  0
   10.8243  -16.5805   17.8312 C   0  0  0  0  0  0  0  0  0  0  0  0
   11.6581  -15.7137   18.0328 O   0  0  0  0  0  0  0  0  0  0  0  0
    9.8233  -14.4582   13.4137 O   0  0  0  0  0  0  0  0  0  0  0  0
    8.4864  -12.5413   18.2915 N   0  0  0  0  0  0  0  0  0  0  0  0
    8.0176  -13.8632   18.1927 C   0  0  0  0  0  0  0  0  0  0  0  0
    7.6356  -14.2242   17.0237 O   0  0  0  0  0  0  0  0  0  0  0  0
    7.9348  -14.8417   19.3106 C   0  0  0  0  0  0  0  0  0  0  0  0
    9.2152  -15.5477   19.4839 C   0  0  2  0  0  0  0  0  0  0  0  0
    9.5979  -16.5224   18.5322 N   0  0  0  0  0  0  0  0  0  0  0  0
    9.1774  -16.2363   20.8110 C   0  0  0  0  0  0  0  0  0  0  0  0
    8.3223  -17.1436   21.0286 O   0  0  0  0  0  0  0  0  0  0  0  0
   10.0682  -15.9298   21.8785 N   0  0  0  0  0  0  0  0  0  0  0  0
    9.9996  -16.7169   23.1181 C   0  0  1  0  0  0  0  0  0  0  0  0
   11.4216  -17.0919   23.4917 C   0  0  0  0  0  0  0  0  0  0  0  0
   11.3739  -17.9434   24.7214 C   0  0  0  0  0  0  0  0  0  0  0  0
   12.7658  -18.3966   25.1468 C   0  0  0  0  0  0  0  0  0  0  0  0
   12.5633  -19.3462   26.3212 C   0  0  0  0  0  0  0  0  0  0  0  0
   13.8192  -19.8264   26.8324 N   0  0  0  0  0  0  0  0  0  0  0  0
    9.3576  -15.8949   24.1643 C   0  0  0  0  0  0  0  0  0  0  0  0
    9.3127  -14.6424   24.0741 O   0  0  0  0  0  0  0  0  0  0  0  0
    8.7689  -16.4628   25.3030 O   0  0  0  0  0  0  0  0  0  0  0  0
  2  1  1  1
  3  2  1  0
  4  5  1  0
  4  3  1  0
  5  6  2  0
  7  2  1  0
  7  8  2  0
  9  5  1  0
 10 11  1  0
 11 12  2  0
 11 13  1  0
 14 13  1  6
 14 15  1  0
 15  7  1  0
 16 14  1  0
 17 16  2  0
 18 16  1  0
 19 18  1  0
 19 20  1  1
 20 21  1  0
 21 22  1  0
 22 23  1  0
 23 24  1  0
 25 27  1  0
 25 19  1  0
 26 25  2  0
M  END
$$$$
