ENK.pdb
     RDKit          3D

 27 26  0  0  1  0  0  0  0  0999 V2000
    7.8214  -18.1287   18.2758 N   0  0  0  0  0  0  0  0  0  0  0  0
    9.2403  -18.0939   18.6116 C   0  0  1  0  0  0  0  0  0  0  0  0
   10.0238  -17.6070   17.3821 C   0  0  0  0  0  0  0  0  0  0  0  0
    9.7722  -18.4524   16.1725 C   0  0  0  0  0  0  0  0  0  0  0  0
    9.5829  -17.6845   14.9274 C   0  0  0  0  0  0  0  0  0  0  0  0
   10.3093  -16.7068   14.5948 O   0  0  0  0  0  0  0  0  0  0  0  0
    9.4899  -17.1744   19.7553 C   0  0  0  0  0  0  0  0  0  0  0  0
   10.6330  -16.8971   20.0770 O   0  0  0  0  0  0  0  0  0  0  0  0
    8.5550  -18.0422   14.0622 O   0  0  0  0  0  0  0  0  0  0  0  0
    8.3325  -12.9816   23.3626 N   0  0  0  0  0  0  0  0  0  0  0  0
    7.6388  -14.2006   23.2644 C   0  0  0  0  0  0  0  0  0  0  0  0
    7.2227  -14.6864   24.3750 O   0  0  0  0  0  0  0  0  0  0  0  0
    7.3622  -14.9440   22.0055 C   0  0  0  0  0  0  0  0  0  0  0  0
    8.5239  -15.7592   21.6132 C   0  0  2  0  0  0  0  0  0  0  0  0
    8.4201  -16.6071   20.4852 N   0  0  0  0  0  0  0  0  0  0  0  0
    8.8783  -16.6323   22.7746 C   0  0  0  0  0  0  0  0  0  0  0  0
    8.1020  -17.5699   23.1209 O   0  0  0  0  0  0  0  0  0  0  0  0
   10.0688  -16.4742   23.5392 N   0  0  0  0  0  0  0  0  0  0  0  0
   10.3741  -17.4452   24.5998 C   0  0  1  0  0  0  0  0  0  0  0  0
   11.7123  -18.0751   24.2608 C   0  0  0  0  0  0  0  0  0  0  0  0
   12.0498  -19.0633   25.3326 C   0  0  0  0  0  0  0  0  0  0  0  0
   13.4197  -19.6929   25.1069 C   0  0  0  0  0  0  0  0  0  0  0  0
   13.6006  -20.7252   26.2131 C   0  0  0  0  0  0  0  0  0  0  0  0
   14.9005  -21.3383   26.1533 N   0  0  0  0  0  0  0  0  0  0  0  0
   10.4163  -16.7335   25.8936 C   0  0  0  0  0  0  0  0  0  0  0  0
   10.5969  -15.4912   25.9494 O   0  0  0  0  0  0  0  0  0  0  0  0
   10.2580  -17.3995   27.1172 O   0  0  0  0  0  0  0  0  0  0  0  0
  2  1  1  6
  3  2  1  0
  4  5  1  0
  4  3  1  0
  5  6  2  0
  7  2  1  0
  7  8  2  0
  9  5  1  0
 10 11  1  0
 11 12  2  0
 11 13  1  0
 14 13  1  1
 14 15  1  0
 15  7  1  0
 16 14  1  0
 17 16  2  0
 18 16  1  0
 19 18  1  0
 19 20  1  6
 20 21  1  0
 21 22  1  0
 22 23  1  0
 23 24  1  0
 25 27  1  0
 25 19  1  0
 26 25  2  0
M  END
$$$$
