ENK.pdb
     RDKit          3D

 27 26  0  0  1  0  0  0  0  0999 V2000
    9.7818  -15.4087   20.2416 N   0  0  0  0  0  0  0  0  0  0  0  0
    8.6582  -15.6329   21.1439 C   0  0  1  0  0  0  0  0  0  0  0  0
    8.4258  -17.1469   21.2718 C   0  0  0  0  0  0  0  0  0  0  0  0
    9.6972  -17.9307   21.1716 C   0  0  0  0  0  0  0  0  0  0  0  0
    9.5080  -19.3935   21.1857 C   0  0  0  0  0  0  0  0  0  0  0  0
   10.0752  -20.1613   22.0122 O   0  0  0  0  0  0  0  0  0  0  0  0
    8.9379  -15.0584   22.4884 C   0  0  0  0  0  0  0  0  0  0  0  0
   10.0877  -14.8425   22.8325 O   0  0  0  0  0  0  0  0  0  0  0  0
    8.6639  -19.9751   20.2464 O   0  0  0  0  0  0  0  0  0  0  0  0
    7.8309  -11.5401   26.7333 N   0  0  0  0  0  0  0  0  0  0  0  0
    7.1602  -12.7502   26.4827 C   0  0  0  0  0  0  0  0  0  0  0  0
    6.7886  -13.3978   27.5244 O   0  0  0  0  0  0  0  0  0  0  0  0
    6.8606  -13.3156   25.1394 C   0  0  0  0  0  0  0  0  0  0  0  0
    8.0087  -14.0815   24.6261 C   0  0  2  0  0  0  0  0  0  0  0  0
    7.8892  -14.7523   23.3860 N   0  0  0  0  0  0  0  0  0  0  0  0
    8.3520  -15.1214   25.6447 C   0  0  0  0  0  0  0  0  0  0  0  0
    7.5746  -16.1020   25.8341 O   0  0  0  0  0  0  0  0  0  0  0  0
    9.5326  -15.0804   26.4392 N   0  0  0  0  0  0  0  0  0  0  0  0
    9.8291  -16.2023   27.3416 C   0  0  1  0  0  0  0  0  0  0  0  0
   10.9780  -16.9810   26.7284 C   0  0  0  0  0  0  0  0  0  0  0  0
   11.3242  -18.1083   27.6495 C   0  0  0  0  0  0  0  0  0  0  0  0
   12.5509  -18.8737   27.1663 C   0  0  0  0  0  0  0  0  0  0  0  0
   12.7799  -19.9912   28.1766 C   0  0  0  0  0  0  0  0  0  0  0  0
   13.7781  -20.9196   27.7173 N   0  0  0  0  0  0  0  0  0  0  0  0
   10.1828  -15.6595   28.6692 C   0  0  0  0  0  0  0  0  0  0  0  0
   10.5111  -14.4555   28.8155 O   0  0  0  0  0  0  0  0  0  0  0  0
   10.1709  -16.4511   29.8264 O   0  0  0  0  0  0  0  0  0  0  0  0
  2  1  1  6
  3  2  1  0
  4  5  1  0
  4  3  1  0
  5  6  2  0
  7  2  1  0
  7  8  2  0
  9  5  1  0
 10 11  1  0
 11 12  2  0
 11 13  1  0
 14 13  1  1
 14 15  1  0
 15  7  1  0
 16 14  1  0
 17 16  2  0
 18 16  1  0
 19 18  1  0
 19 20  1  6
 20 21  1  0
 21 22  1  0
 22 23  1  0
 23 24  1  0
 25 27  1  0
 25 19  1  0
 26 25  2  0
M  END
$$$$
