SKY.pdb
     RDKit          3D

 28 28  0  0  1  0  0  0  0  0999 V2000
   21.9992  -20.6181   -9.2203 O   0  0  0  0  0  0  0  0  0  0  0  0
   22.7161  -21.5255  -10.0267 C   0  0  0  0  0  0  0  0  0  0  0  0
   24.1742  -21.1562   -9.9649 C   0  0  2  0  0  0  0  0  0  0  0  0
   24.4539  -20.2361   -8.8792 N   0  0  0  0  0  0  0  0  0  0  0  0
   24.5838  -20.5162  -11.2322 C   0  0  0  0  0  0  0  0  0  0  0  0
   24.4629  -19.2773  -11.3486 O   0  0  0  0  0  0  0  0  0  0  0  0
   25.1060  -21.2698  -12.3085 N   0  0  0  0  0  0  0  0  0  0  0  0
   25.4630  -20.6883  -13.5638 C   0  0  1  0  0  0  0  0  0  0  0  0
   26.2864  -21.6160  -14.4274 C   0  0  0  0  0  0  0  0  0  0  0  0
   26.7190  -20.8794  -15.6969 C   0  0  0  0  0  0  0  0  0  0  0  0
   27.4433  -21.8088  -16.6365 C   0  0  0  0  0  0  0  0  0  0  0  0
   27.9609  -21.0351  -17.8066 C   0  0  0  0  0  0  0  0  0  0  0  0
   28.6445  -21.9639  -18.6911 N   0  0  0  0  0  0  0  0  0  0  0  0
   24.2737  -20.2940  -14.3601 C   0  0  0  0  0  0  0  0  0  0  0  0
   23.3217  -21.1062  -14.4518 O   0  0  0  0  0  0  0  0  0  0  0  0
   17.9944  -15.0322  -17.7898 O   0  0  0  0  0  0  0  0  0  0  0  0
   19.1190  -15.5746  -17.1622 C   0  0  0  0  0  0  0  0  0  0  0  0
   18.9978  -16.4891  -16.1372 C   0  0  0  0  0  0  0  0  0  0  0  0
   20.1099  -17.0222  -15.5203 C   0  0  0  0  0  0  0  0  0  0  0  0
   21.3960  -16.6702  -15.8945 C   0  0  0  0  0  0  0  0  0  0  0  0
   22.5834  -17.2499  -15.2180 C   0  0  0  0  0  0  0  0  0  0  0  0
   22.9384  -18.6298  -15.7158 C   0  0  2  0  0  0  0  0  0  0  0  0
   24.1560  -19.0493  -15.0222 N   0  0  0  0  0  0  0  0  0  0  0  0
   23.2464  -18.6678  -17.1671 C   0  0  0  0  0  0  0  0  0  0  0  0
   22.2839  -18.9503  -18.1289 O   0  0  0  0  0  0  0  0  0  0  0  0
   21.5103  -15.7544  -16.9209 C   0  0  0  0  0  0  0  0  0  0  0  0
   20.3959  -15.2178  -17.5418 C   0  0  0  0  0  0  0  0  0  0  0  0
   24.4168  -18.4439  -17.6289 O   0  0  0  0  0  0  0  0  0  0  0  0
  1  2  1  0
  2  3  1  0
  3  4  1  1
  5  3  1  0
  5  6  2  0
  7  5  1  0
  8  7  1  0
  8  9  1  6
 10  9  1  0
 11 10  1  0
 12 11  1  0
 12 13  1  0
 14  8  1  0
 15 14  2  0
 16 17  1  0
 17 18  2  0
 17 27  1  0
 18 19  1  0
 19 20  2  0
 20 21  1  0
 22 21  1  1
 22 24  1  0
 22 23  1  0
 23 14  1  0
 24 25  1  0
 26 20  1  0
 27 26  2  0
 28 24  2  0
M  END
$$$$
