SKY.pdb
     RDKit          3D

 28 28  0  0  1  0  0  0  0  0999 V2000
   26.9269  -21.2305  -18.9212 O   0  0  0  0  0  0  0  0  0  0  0  0
   25.9961  -20.3214  -19.4642 C   0  0  0  0  0  0  0  0  0  0  0  0
   26.1314  -20.3520  -20.9632 C   0  0  2  0  0  0  0  0  0  0  0  0
   27.4506  -19.9328  -21.3963 N   0  0  0  0  0  0  0  0  0  0  0  0
   25.1340  -19.4498  -21.5755 C   0  0  0  0  0  0  0  0  0  0  0  0
   25.5158  -18.6190  -22.4283 O   0  0  0  0  0  0  0  0  0  0  0  0
   23.7668  -19.5055  -21.2199 N   0  0  0  0  0  0  0  0  0  0  0  0
   22.7622  -18.7232  -21.8682 C   0  0  1  0  0  0  0  0  0  0  0  0
   22.5881  -19.0824  -23.3259 C   0  0  0  0  0  0  0  0  0  0  0  0
   21.5500  -18.1533  -23.9586 C   0  0  0  0  0  0  0  0  0  0  0  0
   21.3086  -18.5206  -25.4001 C   0  0  0  0  0  0  0  0  0  0  0  0
   20.3223  -17.5708  -26.0009 C   0  0  0  0  0  0  0  0  0  0  0  0
   20.1278  -17.9466  -27.3913 N   0  0  0  0  0  0  0  0  0  0  0  0
   21.4330  -18.8674  -21.2229 C   0  0  0  0  0  0  0  0  0  0  0  0
   20.9814  -20.0237  -21.0399 O   0  0  0  0  0  0  0  0  0  0  0  0
   13.7152  -16.5976  -17.2846 O   0  0  0  0  0  0  0  0  0  0  0  0
   14.9797  -16.5907  -17.8794 C   0  0  0  0  0  0  0  0  0  0  0  0
   16.1221  -16.8122  -17.1397 C   0  0  0  0  0  0  0  0  0  0  0  0
   17.3683  -16.8047  -17.7303 C   0  0  0  0  0  0  0  0  0  0  0  0
   17.5364  -16.5763  -19.0858 C   0  0  0  0  0  0  0  0  0  0  0  0
   18.8849  -16.5673  -19.7064 C   0  0  0  0  0  0  0  0  0  0  0  0
   19.3191  -17.9230  -20.2080 C   0  0  2  0  0  0  0  0  0  0  0  0
   20.6467  -17.7690  -20.8024 N   0  0  0  0  0  0  0  0  0  0  0  0
   18.4399  -18.4620  -21.2753 C   0  0  0  0  0  0  0  0  0  0  0  0
   17.3572  -19.2904  -21.0054 O   0  0  0  0  0  0  0  0  0  0  0  0
   16.3889  -16.3552  -19.8205 C   0  0  0  0  0  0  0  0  0  0  0  0
   15.1371  -16.3622  -19.2304 C   0  0  0  0  0  0  0  0  0  0  0  0
   18.6200  -18.2006  -22.5133 O   0  0  0  0  0  0  0  0  0  0  0  0
  1  2  1  0
  2  3  1  0
  3  4  1  1
  5  3  1  0
  5  6  2  0
  7  5  1  0
  8  7  1  0
  8  9  1  6
 10  9  1  0
 11 10  1  0
 12 11  1  0
 12 13  1  0
 14  8  1  0
 15 14  2  0
 16 17  1  0
 17 18  2  0
 17 27  1  0
 18 19  1  0
 19 20  2  0
 20 21  1  0
 22 21  1  6
 22 24  1  0
 22 23  1  0
 23 14  1  0
 24 25  1  0
 26 20  1  0
 27 26  2  0
 28 24  2  0
M  END
$$$$
