SKY.pdb
     RDKit          3D

 28 28  0  0  1  0  0  0  0  0999 V2000
   24.5987   -3.4991  -23.3815 O   0  0  0  0  0  0  0  0  0  0  0  0
   24.5835   -3.6260  -21.9774 C   0  0  0  0  0  0  0  0  0  0  0  0
   24.4008   -2.2541  -21.3852 C   0  0  2  0  0  0  0  0  0  0  0  0
   25.6492   -1.5176  -21.3302 N   0  0  0  0  0  0  0  0  0  0  0  0
   23.8686   -2.3675  -20.0114 C   0  0  0  0  0  0  0  0  0  0  0  0
   24.6729   -2.4702  -19.0598 O   0  0  0  0  0  0  0  0  0  0  0  0
   22.4788   -2.3624  -19.7519 N   0  0  0  0  0  0  0  0  0  0  0  0
   21.9335   -2.4421  -18.4337 C   0  0  1  0  0  0  0  0  0  0  0  0
   20.4951   -1.9832  -18.3646 C   0  0  0  0  0  0  0  0  0  0  0  0
   20.0392   -1.9557  -16.9042 C   0  0  0  0  0  0  0  0  0  0  0  0
   18.6400   -1.4079  -16.7888 C   0  0  0  0  0  0  0  0  0  0  0  0
   18.2380   -1.3593  -15.3495 C   0  0  0  0  0  0  0  0  0  0  0  0
   16.8336   -0.9903  -15.2886 N   0  0  0  0  0  0  0  0  0  0  0  0
   21.9764   -3.8226  -17.8893 C   0  0  0  0  0  0  0  0  0  0  0  0
   21.4395   -4.7421  -18.5531 O   0  0  0  0  0  0  0  0  0  0  0  0
   24.9059  -11.4493  -14.9325 O   0  0  0  0  0  0  0  0  0  0  0  0
   24.7151  -10.0942  -15.2154 C   0  0  0  0  0  0  0  0  0  0  0  0
   23.9842   -9.2815  -14.3748 C   0  0  0  0  0  0  0  0  0  0  0  0
   23.7982   -7.9445  -14.6573 C   0  0  0  0  0  0  0  0  0  0  0  0
   24.3312   -7.3530  -15.7903 C   0  0  0  0  0  0  0  0  0  0  0  0
   24.1189   -5.9132  -16.0829 C   0  0  0  0  0  0  0  0  0  0  0  0
   22.6613   -5.5281  -16.1536 C   0  0  2  0  0  0  0  0  0  0  0  0
   22.5913   -4.1576  -16.6600 N   0  0  0  0  0  0  0  0  0  0  0  0
   21.9919   -5.5222  -14.8290 C   0  0  0  0  0  0  0  0  0  0  0  0
   21.1189   -6.5262  -14.4277 O   0  0  0  0  0  0  0  0  0  0  0  0
   25.0617   -8.1721  -16.6276 C   0  0  0  0  0  0  0  0  0  0  0  0
   25.2499   -9.5140  -16.3465 C   0  0  0  0  0  0  0  0  0  0  0  0
   22.1733   -4.5937  -13.9698 O   0  0  0  0  0  0  0  0  0  0  0  0
  1  2  1  0
  2  3  1  0
  3  4  1  1
  5  3  1  0
  5  6  2  0
  7  5  1  0
  8  7  1  0
  8  9  1  6
 10  9  1  0
 11 10  1  0
 12 11  1  0
 12 13  1  0
 14  8  1  0
 15 14  2  0
 16 17  1  0
 17 18  2  0
 17 27  1  0
 18 19  1  0
 19 20  2  0
 20 21  1  0
 22 21  1  1
 22 24  1  0
 22 23  1  0
 23 14  1  0
 24 25  1  0
 26 20  1  0
 27 26  2  0
 28 24  2  0
M  END
$$$$
