SKY.pdb
     RDKit          3D

 28 28  0  0  1  0  0  0  0  0999 V2000
   17.9614  -15.5166  -14.2336 O   0  0  0  0  0  0  0  0  0  0  0  0
   18.6117  -14.3533  -14.6936 C   0  0  0  0  0  0  0  0  0  0  0  0
   18.6322  -14.3922  -16.1983 C   0  0  2  0  0  0  0  0  0  0  0  0
   19.6382  -15.3075  -16.7024 N   0  0  0  0  0  0  0  0  0  0  0  0
   18.9225  -13.0449  -16.7311 C   0  0  0  0  0  0  0  0  0  0  0  0
   20.1147  -12.6873  -16.8492 O   0  0  0  0  0  0  0  0  0  0  0  0
   17.8881  -12.1577  -17.1076 N   0  0  0  0  0  0  0  0  0  0  0  0
   18.1348  -10.8923  -17.7235 C   0  0  1  0  0  0  0  0  0  0  0  0
   16.9319  -10.3557  -18.4647 C   0  0  0  0  0  0  0  0  0  0  0  0
   16.5799  -11.3009  -19.6154 C   0  0  0  0  0  0  0  0  0  0  0  0
   15.3787  -10.7986  -20.3744 C   0  0  0  0  0  0  0  0  0  0  0  0
   15.0439  -11.7560  -21.4730 C   0  0  0  0  0  0  0  0  0  0  0  0
   13.7854  -11.3355  -22.0660 N   0  0  0  0  0  0  0  0  0  0  0  0
   18.5371   -9.8561  -16.7393 C   0  0  0  0  0  0  0  0  0  0  0  0
   18.0492   -9.9095  -15.5845 O   0  0  0  0  0  0  0  0  0  0  0  0
   22.6268   -2.4728  -13.6979 O   0  0  0  0  0  0  0  0  0  0  0  0
   22.2688   -3.6402  -14.3773 C   0  0  0  0  0  0  0  0  0  0  0  0
   22.5065   -4.8865  -13.8374 C   0  0  0  0  0  0  0  0  0  0  0  0
   22.1517   -6.0364  -14.5109 C   0  0  0  0  0  0  0  0  0  0  0  0
   21.5432   -6.0001  -15.7544 C   0  0  0  0  0  0  0  0  0  0  0  0
   21.1707   -7.2469  -16.4689 C   0  0  0  0  0  0  0  0  0  0  0  0
   19.8237   -7.7896  -16.0578 C   0  0  2  0  0  0  0  0  0  0  0  0
   19.4426   -8.8099  -17.0342 N   0  0  0  0  0  0  0  0  0  0  0  0
   18.7490   -6.7662  -16.0772 C   0  0  0  0  0  0  0  0  0  0  0  0
   18.3586   -6.0699  -14.9396 O   0  0  0  0  0  0  0  0  0  0  0  0
   21.3082   -4.7495  -16.2893 C   0  0  0  0  0  0  0  0  0  0  0  0
   21.6632   -3.5940  -15.6155 C   0  0  0  0  0  0  0  0  0  0  0  0
   18.1110   -6.4575  -17.1407 O   0  0  0  0  0  0  0  0  0  0  0  0
  1  2  1  0
  2  3  1  0
  3  4  1  1
  5  3  1  0
  5  6  2  0
  7  5  1  0
  8  7  1  0
  8  9  1  1
 10  9  1  0
 11 10  1  0
 12 11  1  0
 12 13  1  0
 14  8  1  0
 15 14  2  0
 16 17  1  0
 17 18  2  0
 17 27  1  0
 18 19  1  0
 19 20  2  0
 20 21  1  0
 22 21  1  6
 22 24  1  0
 22 23  1  0
 23 14  1  0
 24 25  1  0
 26 20  1  0
 27 26  2  0
 28 24  2  0
M  END
$$$$
