SKY.pdb
     RDKit          3D

 28 28  0  0  1  0  0  0  0  0999 V2000
   24.1120  -14.6888  -18.7480 O   0  0  0  0  0  0  0  0  0  0  0  0
   23.5608  -15.9279  -18.3624 C   0  0  0  0  0  0  0  0  0  0  0  0
   24.2154  -17.0072  -19.1826 C   0  0  2  0  0  0  0  0  0  0  0  0
   23.6533  -17.0889  -20.5172 N   0  0  0  0  0  0  0  0  0  0  0  0
   24.0358  -18.3171  -18.5229 C   0  0  0  0  0  0  0  0  0  0  0  0
   22.9150  -18.8689  -18.5732 O   0  0  0  0  0  0  0  0  0  0  0  0
   25.0970  -18.9555  -17.8407 N   0  0  0  0  0  0  0  0  0  0  0  0
   24.9190  -20.1377  -17.0584 C   0  0  1  0  0  0  0  0  0  0  0  0
   26.2273  -20.7872  -16.6701 C   0  0  0  0  0  0  0  0  0  0  0  0
   25.9460  -22.0469  -15.8483 C   0  0  0  0  0  0  0  0  0  0  0  0
   26.1346  -23.2865  -16.6843 C   0  0  0  0  0  0  0  0  0  0  0  0
   25.8905  -24.4993  -15.8445 C   0  0  0  0  0  0  0  0  0  0  0  0
   26.1105  -25.6714  -16.6751 N   0  0  0  0  0  0  0  0  0  0  0  0
   24.1742  -19.8741  -15.8014 C   0  0  0  0  0  0  0  0  0  0  0  0
   24.6363  -19.0249  -15.0016 O   0  0  0  0  0  0  0  0  0  0  0  0
   17.9146  -18.9626   -9.6596 O   0  0  0  0  0  0  0  0  0  0  0  0
   18.7152  -19.0688  -10.8000 C   0  0  0  0  0  0  0  0  0  0  0  0
   18.4652  -20.0201  -11.7665 C   0  0  0  0  0  0  0  0  0  0  0  0
   19.2575  -20.1218  -12.8906 C   0  0  0  0  0  0  0  0  0  0  0  0
   20.3366  -19.2811  -13.1061 C   0  0  0  0  0  0  0  0  0  0  0  0
   21.1828  -19.4056  -14.3195 C   0  0  0  0  0  0  0  0  0  0  0  0
   22.3258  -20.3768  -14.1518 C   0  0  2  0  0  0  0  0  0  0  0  0
   22.9692  -20.5302  -15.4564 N   0  0  0  0  0  0  0  0  0  0  0  0
   21.8867  -21.7324  -13.7370 C   0  0  0  0  0  0  0  0  0  0  0  0
   21.7764  -22.1075  -12.4034 O   0  0  0  0  0  0  0  0  0  0  0  0
   20.5815  -18.3313  -12.1349 C   0  0  0  0  0  0  0  0  0  0  0  0
   19.7880  -18.2270  -11.0059 C   0  0  0  0  0  0  0  0  0  0  0  0
   21.5815  -22.6449  -14.5781 O   0  0  0  0  0  0  0  0  0  0  0  0
  1  2  1  0
  2  3  1  0
  3  4  1  6
  5  3  1  0
  5  6  2  0
  7  5  1  0
  8  7  1  0
  8  9  1  1
 10  9  1  0
 11 10  1  0
 12 11  1  0
 12 13  1  0
 14  8  1  0
 15 14  2  0
 16 17  1  0
 17 18  2  0
 17 27  1  0
 18 19  1  0
 19 20  2  0
 20 21  1  0
 22 21  1  6
 22 24  1  0
 22 23  1  0
 23 14  1  0
 24 25  1  0
 26 20  1  0
 27 26  2  0
 28 24  2  0
M  END
$$$$
