SKY.pdb
     RDKit          3D

 28 28  0  0  1  0  0  0  0  0999 V2000
   17.7982   -8.4365  -23.1559 O   0  0  0  0  0  0  0  0  0  0  0  0
   18.8282   -8.6494  -22.2170 C   0  0  0  0  0  0  0  0  0  0  0  0
   20.0066   -7.8009  -22.6141 C   0  0  2  0  0  0  0  0  0  0  0  0
   20.4389   -8.0760  -23.9710 N   0  0  0  0  0  0  0  0  0  0  0  0
   21.1414   -8.0610  -21.7042 C   0  0  0  0  0  0  0  0  0  0  0  0
   21.0006   -7.8300  -20.4835 O   0  0  0  0  0  0  0  0  0  0  0  0
   22.3745   -8.5621  -22.1811 N   0  0  0  0  0  0  0  0  0  0  0  0
   23.4543   -8.9212  -21.3172 C   0  0  1  0  0  0  0  0  0  0  0  0
   24.6035   -9.5711  -22.0529 C   0  0  0  0  0  0  0  0  0  0  0  0
   25.7006   -9.9456  -21.0542 C   0  0  0  0  0  0  0  0  0  0  0  0
   25.5218  -11.3600  -20.5656 C   0  0  0  0  0  0  0  0  0  0  0  0
   26.6084  -11.6960  -19.5950 C   0  0  0  0  0  0  0  0  0  0  0  0
   26.3905  -13.0561  -19.1314 N   0  0  0  0  0  0  0  0  0  0  0  0
   24.0085   -7.7502  -20.5922 C   0  0  0  0  0  0  0  0  0  0  0  0
   24.5088   -6.8156  -21.2634 O   0  0  0  0  0  0  0  0  0  0  0  0
   19.8133   -7.9579  -14.3586 O   0  0  0  0  0  0  0  0  0  0  0  0
   20.6900   -7.3757  -15.2779 C   0  0  0  0  0  0  0  0  0  0  0  0
   21.9630   -6.9922  -14.9121 C   0  0  0  0  0  0  0  0  0  0  0  0
   22.8254   -6.4180  -15.8222 C   0  0  0  0  0  0  0  0  0  0  0  0
   22.4613   -6.1981  -17.1401 C   0  0  0  0  0  0  0  0  0  0  0  0
   23.3996   -5.5751  -18.1072 C   0  0  0  0  0  0  0  0  0  0  0  0
   24.5541   -6.4728  -18.4801 C   0  0  2  0  0  0  0  0  0  0  0  0
   24.0029   -7.6315  -19.1824 N   0  0  0  0  0  0  0  0  0  0  0  0
   25.2874   -7.0033  -17.3038 C   0  0  0  0  0  0  0  0  0  0  0  0
   26.0503   -6.1940  -16.4707 O   0  0  0  0  0  0  0  0  0  0  0  0
   21.1857   -6.5840  -17.4997 C   0  0  0  0  0  0  0  0  0  0  0  0
   20.3183   -7.1606  -16.5884 C   0  0  0  0  0  0  0  0  0  0  0  0
   25.2666   -8.2392  -16.9792 O   0  0  0  0  0  0  0  0  0  0  0  0
  1  2  1  0
  2  3  1  0
  3  4  1  6
  5  3  1  0
  5  6  2  0
  7  5  1  0
  8  7  1  0
  8  9  1  6
 10  9  1  0
 11 10  1  0
 12 11  1  0
 12 13  1  0
 14  8  1  0
 15 14  2  0
 16 17  1  0
 17 18  2  0
 17 27  1  0
 18 19  1  0
 19 20  2  0
 20 21  1  0
 22 21  1  1
 22 24  1  0
 22 23  1  0
 23 14  1  0
 24 25  1  0
 26 20  1  0
 27 26  2  0
 28 24  2  0
M  END
$$$$
