SKY.pdb
     RDKit          3D

 28 28  0  0  1  0  0  0  0  0999 V2000
   25.9025  -31.2831  -23.4861 O   0  0  0  0  0  0  0  0  0  0  0  0
   26.9665  -30.7928  -22.7018 C   0  0  0  0  0  0  0  0  0  0  0  0
   27.1599  -31.7278  -21.5379 C   0  0  2  0  0  0  0  0  0  0  0  0
   27.0823  -33.1186  -21.9421 N   0  0  0  0  0  0  0  0  0  0  0  0
   26.1184  -31.4824  -20.5189 C   0  0  0  0  0  0  0  0  0  0  0  0
   24.9284  -31.7458  -20.7974 O   0  0  0  0  0  0  0  0  0  0  0  0
   26.4366  -30.9597  -19.2443 N   0  0  0  0  0  0  0  0  0  0  0  0
   25.4605  -30.7581  -18.2206 C   0  0  1  0  0  0  0  0  0  0  0  0
   26.0759  -30.5339  -16.8585 C   0  0  0  0  0  0  0  0  0  0  0  0
   26.9096  -31.7565  -16.4693 C   0  0  0  0  0  0  0  0  0  0  0  0
   28.3829  -31.4512  -16.5552 C   0  0  0  0  0  0  0  0  0  0  0  0
   29.1683  -32.7015  -16.3195 C   0  0  0  0  0  0  0  0  0  0  0  0
   30.5685  -32.4057  -16.5732 N   0  0  0  0  0  0  0  0  0  0  0  0
   24.5849  -29.5921  -18.4996 C   0  0  0  0  0  0  0  0  0  0  0  0
   25.0568  -28.6374  -19.1632 O   0  0  0  0  0  0  0  0  0  0  0  0
   17.6995  -25.2579  -21.6607 O   0  0  0  0  0  0  0  0  0  0  0  0
   18.6501  -26.1628  -21.1808 C   0  0  0  0  0  0  0  0  0  0  0  0
   18.3123  -27.1451  -20.2740 C   0  0  0  0  0  0  0  0  0  0  0  0
   19.2531  -28.0364  -19.8027 C   0  0  0  0  0  0  0  0  0  0  0  0
   20.5754  -27.9921  -20.2119 C   0  0  0  0  0  0  0  0  0  0  0  0
   21.5776  -28.9562  -19.6924 C   0  0  0  0  0  0  0  0  0  0  0  0
   22.3345  -28.4405  -18.4927 C   0  0  2  0  0  0  0  0  0  0  0  0
   23.2445  -29.4995  -18.0567 N   0  0  0  0  0  0  0  0  0  0  0  0
   21.4585  -28.1349  -17.3343 C   0  0  0  0  0  0  0  0  0  0  0  0
   20.8843  -26.8843  -17.1401 O   0  0  0  0  0  0  0  0  0  0  0  0
   20.9070  -27.0065  -21.1196 C   0  0  0  0  0  0  0  0  0  0  0  0
   19.9648  -26.1108  -21.5942 C   0  0  0  0  0  0  0  0  0  0  0  0
   21.1743  -29.0008  -16.4383 O   0  0  0  0  0  0  0  0  0  0  0  0
  1  2  1  0
  2  3  1  0
  3  4  1  6
  5  3  1  0
  5  6  2  0
  7  5  1  0
  8  7  1  0
  8  9  1  1
 10  9  1  0
 11 10  1  0
 12 11  1  0
 12 13  1  0
 14  8  1  0
 15 14  2  0
 16 17  1  0
 17 18  2  0
 17 27  1  0
 18 19  1  0
 19 20  2  0
 20 21  1  0
 22 21  1  6
 22 24  1  0
 22 23  1  0
 23 14  1  0
 24 25  1  0
 26 20  1  0
 27 26  2  0
 28 24  2  0
M  END
$$$$
