CPM.pdb
     RDKit          3D

 22 22  0  0  1  0  0  0  0  0999 V2000
   17.9527  -25.4706   -4.5445 N   0  0  0  0  0  0  0  0  0  0  0  0
   16.6591  -25.7624   -4.0227 C   0  0  1  0  0  0  0  0  0  0  0  0
   16.7428  -26.8600   -2.9650 C   0  0  0  0  0  0  0  0  0  0  0  0
   17.4508  -28.3706   -3.6564 S   0  0  0  0  0  0  0  0  0  0  0  0
   15.9685  -24.6199   -3.4044 C   0  0  0  0  0  0  0  0  0  0  0  0
   16.7068  -23.8643   -2.6807 O   0  0  0  0  0  0  0  0  0  0  0  0
   14.5898  -24.3425   -3.5732 N   0  0  0  0  0  0  0  0  0  0  0  0
   13.6949  -25.1268   -4.3943 C   0  0  0  0  0  0  0  0  0  0  0  0
   12.3062  -24.5736   -4.1468 C   0  0  0  0  0  0  0  0  0  0  0  0
   12.5465  -23.1618   -3.7223 C   0  0  0  0  0  0  0  0  0  0  0  0
   13.8635  -23.2549   -2.9685 C   0  0  1  0  0  0  0  0  0  0  0  0
   13.6405  -23.4895   -1.5066 C   0  0  0  0  0  0  0  0  0  0  0  0
   13.5459  -24.6638   -1.0807 O   0  0  0  0  0  0  0  0  0  0  0  0
   17.5200  -19.2428    2.3155 C   0  0  0  0  0  0  0  0  0  0  0  0
   16.8903  -20.9524    2.3918 S   0  0  0  0  0  0  0  0  0  0  0  0
   15.3316  -21.0409    1.4651 C   0  0  0  0  0  0  0  0  0  0  0  0
   14.8573  -22.4682    1.4763 C   0  0  0  0  0  0  0  0  0  0  0  0
   13.4846  -22.6133    0.8493 C   0  0  2  0  0  0  0  0  0  0  0  0
   13.5327  -22.4198   -0.5855 N   0  0  0  0  0  0  0  0  0  0  0  0
   12.4974  -21.7426    1.5020 C   0  0  0  0  0  0  0  0  0  0  0  0
   11.8823  -20.9107    0.7787 O   0  0  0  0  0  0  0  0  0  0  0  0
   12.2075  -21.7799    2.8380 O   0  0  0  0  0  0  0  0  0  0  0  0
  2  1  1  1
  3  2  1  0
  4  3  1  0
  5  2  1  0
  5  6  2  0
  7  5  1  0
  8  7  1  0
  9 10  1  0
  9  8  1  0
 10 11  1  0
 11  7  1  0
 11 12  1  1
 12 13  2  0
 12 19  1  0
 15 14  1  0
 16 17  1  0
 16 15  1  0
 18 17  1  1
 19 18  1  0
 20 18  1  0
 20 22  1  0
 21 20  2  0
M  END
$$$$
