CPM.pdb
     RDKit          3D

 22 22  0  0  1  0  0  0  0  0999 V2000
   24.6913  -18.1791  -15.6348 N   0  0  0  0  0  0  0  0  0  0  0  0
   25.8875  -18.2357  -14.8624 C   0  0  1  0  0  0  0  0  0  0  0  0
   26.1154  -16.9161  -14.1296 C   0  0  0  0  0  0  0  0  0  0  0  0
   26.9272  -15.7126  -15.2037 S   0  0  0  0  0  0  0  0  0  0  0  0
   25.9209  -19.3023  -13.8497 C   0  0  0  0  0  0  0  0  0  0  0  0
   24.8051  -19.5334  -13.2655 O   0  0  0  0  0  0  0  0  0  0  0  0
   27.0821  -20.0421  -13.5169 N   0  0  0  0  0  0  0  0  0  0  0  0
   28.3634  -19.8846  -14.1678 C   0  0  0  0  0  0  0  0  0  0  0  0
   29.3381  -20.7427  -13.3872 C   0  0  0  0  0  0  0  0  0  0  0  0
   28.4798  -21.7944  -12.7639 C   0  0  0  0  0  0  0  0  0  0  0  0
   27.1790  -21.0544  -12.4963 C   0  0  1  0  0  0  0  0  0  0  0  0
   27.1646  -20.4541  -11.1247 C   0  0  0  0  0  0  0  0  0  0  0  0
   28.2146  -19.9489  -10.6645 O   0  0  0  0  0  0  0  0  0  0  0  0
   29.4868  -20.4120   -5.4264 C   0  0  0  0  0  0  0  0  0  0  0  0
   28.1287  -19.2539   -5.8000 S   0  0  0  0  0  0  0  0  0  0  0  0
   26.8033  -20.1635   -6.6440 C   0  0  0  0  0  0  0  0  0  0  0  0
   26.9396  -19.9296   -8.1235 C   0  0  0  0  0  0  0  0  0  0  0  0
   25.9899  -20.7990   -8.9239 C   0  0  2  0  0  0  0  0  0  0  0  0
   25.9950  -20.4394  -10.3271 N   0  0  0  0  0  0  0  0  0  0  0  0
   24.6387  -20.7965   -8.3470 C   0  0  0  0  0  0  0  0  0  0  0  0
   24.5193  -21.1300   -7.1353 O   0  0  0  0  0  0  0  0  0  0  0  0
   23.5101  -20.4565   -9.0406 O   0  0  0  0  0  0  0  0  0  0  0  0
  2  1  1  1
  3  2  1  0
  4  3  1  0
  5  2  1  0
  5  6  2  0
  7  5  1  0
  8  7  1  0
  9 10  1  0
  9  8  1  0
 10 11  1  0
 11  7  1  0
 11 12  1  1
 12 13  2  0
 12 19  1  0
 15 14  1  0
 16 17  1  0
 16 15  1  0
 18 17  1  1
 19 18  1  0
 20 18  1  0
 20 22  1  0
 21 20  2  0
M  END
$$$$
