CPM.pdb
     RDKit          3D

 22 22  0  0  1  0  0  0  0  0999 V2000
   23.8920  -21.4299  -15.8959 N   0  0  0  0  0  0  0  0  0  0  0  0
   24.5676  -20.5031  -15.0501 C   0  0  1  0  0  0  0  0  0  0  0  0
   23.5640  -19.6208  -14.3121 C   0  0  0  0  0  0  0  0  0  0  0  0
   22.8941  -18.3501  -15.4064 S   0  0  0  0  0  0  0  0  0  0  0  0
   25.4356  -21.1136  -14.0310 C   0  0  0  0  0  0  0  0  0  0  0  0
   24.9530  -22.1504  -13.4551 O   0  0  0  0  0  0  0  0  0  0  0  0
   26.7173  -20.6203  -13.6842 N   0  0  0  0  0  0  0  0  0  0  0  0
   27.3846  -19.5339  -14.3659 C   0  0  0  0  0  0  0  0  0  0  0  0
   28.6354  -19.2406  -13.5626 C   0  0  0  0  0  0  0  0  0  0  0  0
   28.9365  -20.5308  -12.8728 C   0  0  0  0  0  0  0  0  0  0  0  0
   27.5536  -21.1085  -12.6174 C   0  0  1  0  0  0  0  0  0  0  0  0
   27.0290  -20.6969  -11.2767 C   0  0  0  0  0  0  0  0  0  0  0  0
   26.5443  -19.5508  -11.1325 O   0  0  0  0  0  0  0  0  0  0  0  0
   28.5671  -19.2640   -4.6364 C   0  0  0  0  0  0  0  0  0  0  0  0
   27.9384  -18.4675   -6.1515 S   0  0  0  0  0  0  0  0  0  0  0  0
   26.7567  -19.5897   -6.9520 C   0  0  0  0  0  0  0  0  0  0  0  0
   27.3760  -20.0949   -8.2261 C   0  0  0  0  0  0  0  0  0  0  0  0
   26.5525  -21.2012   -8.8558 C   0  0  2  0  0  0  0  0  0  0  0  0
   27.0639  -21.5674  -10.1607 N   0  0  0  0  0  0  0  0  0  0  0  0
   25.1236  -20.8608   -8.8864 C   0  0  0  0  0  0  0  0  0  0  0  0
   24.6199  -20.5505  -10.0015 O   0  0  0  0  0  0  0  0  0  0  0  0
   24.3124  -20.8603   -7.7853 O   0  0  0  0  0  0  0  0  0  0  0  0
  2  1  1  1
  3  2  1  0
  4  3  1  0
  5  2  1  0
  5  6  2  0
  7  5  1  0
  8  7  1  0
  9 10  1  0
  9  8  1  0
 10 11  1  0
 11  7  1  0
 11 12  1  1
 12 13  2  0
 12 19  1  0
 15 14  1  0
 16 17  1  0
 16 15  1  0
 18 17  1  6
 19 18  1  0
 20 18  1  0
 20 22  1  0
 21 20  2  0
M  END
$$$$
