CPM.pdb
     RDKit          3D

 22 22  0  0  1  0  0  0  0  0999 V2000
   16.3394   -8.4837   -8.7626 N   0  0  0  0  0  0  0  0  0  0  0  0
   15.8075   -7.9661   -9.9791 C   0  0  1  0  0  0  0  0  0  0  0  0
   14.4492   -7.3131   -9.7353 C   0  0  0  0  0  0  0  0  0  0  0  0
   13.2030   -8.5514   -9.3175 S   0  0  0  0  0  0  0  0  0  0  0  0
   16.6528   -6.9651  -10.6483 C   0  0  0  0  0  0  0  0  0  0  0  0
   17.3451   -6.2258   -9.8648 O   0  0  0  0  0  0  0  0  0  0  0  0
   16.7232   -6.8003  -12.0534 N   0  0  0  0  0  0  0  0  0  0  0  0
   16.0677   -7.6644  -13.0094 C   0  0  0  0  0  0  0  0  0  0  0  0
   16.2751   -7.0218  -14.3659 C   0  0  0  0  0  0  0  0  0  0  0  0
   17.5223   -6.2166  -14.2010 C   0  0  0  0  0  0  0  0  0  0  0  0
   17.4450   -5.7666  -12.7508 C   0  0  1  0  0  0  0  0  0  0  0  0
   16.7613   -4.4404  -12.6264 C   0  0  0  0  0  0  0  0  0  0  0  0
   15.5542   -4.4006  -12.2937 O   0  0  0  0  0  0  0  0  0  0  0  0
   17.1237    0.6273   -7.4369 C   0  0  0  0  0  0  0  0  0  0  0  0
   16.9540   -0.9867   -8.2684 S   0  0  0  0  0  0  0  0  0  0  0  0
   17.2501   -0.7604  -10.0453 C   0  0  0  0  0  0  0  0  0  0  0  0
   17.1317   -2.1010  -10.7170 C   0  0  0  0  0  0  0  0  0  0  0  0
   17.0889   -1.9755  -12.2273 C   0  0  2  0  0  0  0  0  0  0  0  0
   17.4402   -3.2229  -12.8743 N   0  0  0  0  0  0  0  0  0  0  0  0
   17.9036   -0.8476  -12.6992 C   0  0  0  0  0  0  0  0  0  0  0  0
   17.4305    0.3145  -12.5601 O   0  0  0  0  0  0  0  0  0  0  0  0
   19.1362   -0.9814  -13.2764 O   0  0  0  0  0  0  0  0  0  0  0  0
  2  1  1  1
  3  2  1  0
  4  3  1  0
  5  2  1  0
  5  6  2  0
  7  5  1  0
  8  7  1  0
  9 10  1  0
  9  8  1  0
 10 11  1  0
 11  7  1  0
 11 12  1  6
 12 13  2  0
 12 19  1  0
 15 14  1  0
 16 17  1  0
 16 15  1  0
 18 17  1  1
 19 18  1  0
 20 18  1  0
 20 22  1  0
 21 20  2  0
M  END
$$$$
