CPM.pdb
     RDKit          3D

 22 22  0  0  1  0  0  0  0  0999 V2000
   24.2448  -14.1128  -19.3480 N   0  0  0  0  0  0  0  0  0  0  0  0
   24.9636  -12.9059  -19.1085 C   0  0  1  0  0  0  0  0  0  0  0  0
   24.9137  -11.9996  -20.3360 C   0  0  0  0  0  0  0  0  0  0  0  0
   25.5500  -12.8527  -21.7949 S   0  0  0  0  0  0  0  0  0  0  0  0
   24.4799  -12.1129  -17.9676 C   0  0  0  0  0  0  0  0  0  0  0  0
   23.2086  -12.0983  -17.8147 O   0  0  0  0  0  0  0  0  0  0  0  0
   25.3264  -11.4037  -17.0806 N   0  0  0  0  0  0  0  0  0  0  0  0
   26.7669  -11.3532  -17.1939 C   0  0  0  0  0  0  0  0  0  0  0  0
   27.2346  -10.3587  -16.1508 C   0  0  0  0  0  0  0  0  0  0  0  0
   26.1566  -10.3807  -15.1171 C   0  0  0  0  0  0  0  0  0  0  0  0
   24.9034  -10.6309  -15.9406 C   0  0  1  0  0  0  0  0  0  0  0  0
   24.2585   -9.3456  -16.3577 C   0  0  0  0  0  0  0  0  0  0  0  0
   24.5178   -8.8662  -17.4857 O   0  0  0  0  0  0  0  0  0  0  0  0
   17.9992   -7.4158  -19.3149 C   0  0  0  0  0  0  0  0  0  0  0  0
   19.4073   -8.4506  -18.7938 S   0  0  0  0  0  0  0  0  0  0  0  0
   20.3632   -7.5464  -17.5429 C   0  0  0  0  0  0  0  0  0  0  0  0
   21.4902   -8.4295  -17.0821 C   0  0  0  0  0  0  0  0  0  0  0  0
   22.3313   -7.7617  -16.0120 C   0  0  2  0  0  0  0  0  0  0  0  0
   23.3597   -8.6511  -15.5125 N   0  0  0  0  0  0  0  0  0  0  0  0
   21.4973   -7.2058  -14.9377 C   0  0  0  0  0  0  0  0  0  0  0  0
   20.9147   -6.1078  -15.1580 O   0  0  0  0  0  0  0  0  0  0  0  0
   21.3162   -7.8037  -13.7210 O   0  0  0  0  0  0  0  0  0  0  0  0
  2  1  1  6
  3  2  1  0
  4  3  1  0
  5  2  1  0
  5  6  2  0
  7  5  1  0
  8  7  1  0
  9 10  1  0
  9  8  1  0
 10 11  1  0
 11  7  1  0
 11 12  1  6
 12 13  2  0
 12 19  1  0
 15 14  1  0
 16 17  1  0
 16 15  1  0
 18 17  1  6
 19 18  1  0
 20 18  1  0
 20 22  1  0
 21 20  2  0
M  END
$$$$
