CPM.pdb
     RDKit          3D

 22 22  0  0  1  0  0  0  0  0999 V2000
   23.8661  -22.1393  -14.3397 N   0  0  0  0  0  0  0  0  0  0  0  0
   24.9278  -21.2405  -14.0305 C   0  0  1  0  0  0  0  0  0  0  0  0
   24.4107  -19.8061  -13.9538 C   0  0  0  0  0  0  0  0  0  0  0  0
   22.7771  -19.6672  -14.7108 S   0  0  0  0  0  0  0  0  0  0  0  0
   25.6234  -21.5160  -12.7638 C   0  0  0  0  0  0  0  0  0  0  0  0
   24.8847  -21.9813  -11.8270 O   0  0  0  0  0  0  0  0  0  0  0  0
   27.0073  -21.2961  -12.5563 N   0  0  0  0  0  0  0  0  0  0  0  0
   27.9350  -20.9041  -13.5937 C   0  0  0  0  0  0  0  0  0  0  0  0
   29.2500  -20.6233  -12.8954 C   0  0  0  0  0  0  0  0  0  0  0  0
   29.1872  -21.4506  -11.6533 C   0  0  0  0  0  0  0  0  0  0  0  0
   27.7078  -21.4241  -11.3038 C   0  0  1  0  0  0  0  0  0  0  0  0
   27.3860  -20.2930  -10.3770 C   0  0  0  0  0  0  0  0  0  0  0  0
   26.5916  -19.3995  -10.7512 O   0  0  0  0  0  0  0  0  0  0  0  0
   22.8397  -21.4329   -4.9553 C   0  0  0  0  0  0  0  0  0  0  0  0
   23.8735  -21.8180   -6.4072 S   0  0  0  0  0  0  0  0  0  0  0  0
   25.2576  -20.6443   -6.4644 C   0  0  0  0  0  0  0  0  0  0  0  0
   26.0605  -20.9232   -7.7053 C   0  0  0  0  0  0  0  0  0  0  0  0
   27.1762  -19.9145   -7.8960 C   0  0  2  0  0  0  0  0  0  0  0  0
   27.9545  -20.2012   -9.0836 N   0  0  0  0  0  0  0  0  0  0  0  0
   28.0096  -19.7962   -6.6918 C   0  0  0  0  0  0  0  0  0  0  0  0
   28.0290  -18.6807   -6.1010 O   0  0  0  0  0  0  0  0  0  0  0  0
   28.7605  -20.8165   -6.1764 O   0  0  0  0  0  0  0  0  0  0  0  0
  2  1  1  1
  3  2  1  0
  4  3  1  0
  5  2  1  0
  5  6  2  0
  7  5  1  0
  8  7  1  0
  9 10  1  0
  9  8  1  0
 10 11  1  0
 11  7  1  0
 11 12  1  1
 12 13  2  0
 12 19  1  0
 15 14  1  0
 16 17  1  0
 16 15  1  0
 18 17  1  1
 19 18  1  0
 20 18  1  0
 20 22  1  0
 21 20  2  0
M  END
$$$$
