PRS.pdb
     RDKit          3D

 25 25  0  0  1  0  0  0  0  0999 V2000
   29.9474  -22.5067  -11.0228 N   0  0  0  0  0  0  0  0  0  0  0  0
   30.8061  -21.4971  -11.5915 C   0  0  0  0  0  0  0  0  0  0  0  0
   30.1913  -20.1516  -11.2597 C   0  0  0  0  0  0  0  0  0  0  0  0
   29.5043  -20.5281   -9.9462 C   0  0  0  0  0  0  0  0  0  0  0  0
   28.8410  -21.8151  -10.3907 C   0  0  1  0  0  0  0  0  0  0  0  0
   27.7613  -21.5497  -11.4011 C   0  0  0  0  0  0  0  0  0  0  0  0
   28.0511  -21.6839  -12.6208 O   0  0  0  0  0  0  0  0  0  0  0  0
   19.2224  -20.8719   -9.9935 N   0  0  0  0  0  0  0  0  0  0  0  0
   20.3491  -21.7084   -9.7249 C   0  0  0  0  0  0  0  0  0  0  0  0
   20.3294  -22.5131   -8.7232 N   0  0  0  0  0  0  0  0  0  0  0  0
   21.5146  -21.6826  -10.5408 N   0  0  0  0  0  0  0  0  0  0  0  0
   21.6100  -20.7278  -11.6367 C   0  0  0  0  0  0  0  0  0  0  0  0
   22.9231  -20.8626  -12.3219 C   0  0  0  0  0  0  0  0  0  0  0  0
   24.0648  -20.9425  -11.3548 C   0  0  0  0  0  0  0  0  0  0  0  0
   25.3980  -21.0230  -12.0422 C   0  0  2  0  0  0  0  0  0  0  0  0
   26.4649  -21.1650  -11.0492 N   0  0  0  0  0  0  0  0  0  0  0  0
   25.6283  -19.7712  -12.8278 C   0  0  0  0  0  0  0  0  0  0  0  0
   26.3421  -18.8723  -12.3627 O   0  0  0  0  0  0  0  0  0  0  0  0
   21.1303  -23.1388   -8.5076 O   0  0  0  0  0  0  0  0  0  0  0  0
   27.6240  -19.4850  -16.6124 C   0  0  0  0  0  0  0  0  0  0  0  0
   26.8899  -19.9527  -15.5401 C   0  0  2  0  0  0  0  0  0  0  0  0
   25.6826  -19.0613  -15.2385 N   0  0  0  0  0  0  0  0  0  0  0  0
   25.0187  -19.6418  -14.0981 C   0  0  0  0  0  0  0  0  0  0  0  0
   24.8352  -19.0709  -16.4482 O   0  0  0  0  0  0  0  0  0  0  0  0
   25.2011  -18.4404  -17.4653 O   0  0  0  0  0  0  0  0  0  0  0  0
  1  2  1  0
  3  2  1  0
  4  5  1  0
  4  3  1  0
  5  1  1  0
  5  6  1  6
  7  6  2  0
  9  8  1  0
 10  9  2  0
 11  9  1  0
 12 13  1  0
 12 11  1  0
 13 14  1  0
 15 14  1  1
 15 16  1  0
 16  6  1  0
 17 22  1  0
 17 15  1  0
 18 17  2  0
 19 20  1  0
 21 20  1  1
 21 23  1  0
 21 22  1  0
 23 25  1  0
 24 23  2  0
M  END
$$$$
