PRS.pdb
     RDKit          3D

 25 25  0  0  1  0  0  0  0  0999 V2000
   28.5344  -20.8498  -15.8268 N   0  0  0  0  0  0  0  0  0  0  0  0
   28.0151  -20.0423  -16.9031 C   0  0  0  0  0  0  0  0  0  0  0  0
   27.4111  -18.8009  -16.2767 C   0  0  0  0  0  0  0  0  0  0  0  0
   28.3081  -18.7045  -15.0417 C   0  0  0  0  0  0  0  0  0  0  0  0
   28.2415  -20.1491  -14.5918 C   0  0  1  0  0  0  0  0  0  0  0  0
   26.8620  -20.5076  -14.1168 C   0  0  0  0  0  0  0  0  0  0  0  0
   26.1550  -21.2393  -14.8614 O   0  0  0  0  0  0  0  0  0  0  0  0
   20.8998  -20.7634   -9.6671 N   0  0  0  0  0  0  0  0  0  0  0  0
   21.3874  -21.6568   -8.6644 C   0  0  0  0  0  0  0  0  0  0  0  0
   20.5870  -22.4869   -8.0974 N   0  0  0  0  0  0  0  0  0  0  0  0
   22.7524  -21.6612   -8.2626 N   0  0  0  0  0  0  0  0  0  0  0  0
   23.6904  -20.7304   -8.8754 C   0  0  0  0  0  0  0  0  0  0  0  0
   23.8588  -21.0472  -10.3187 C   0  0  0  0  0  0  0  0  0  0  0  0
   24.8278  -20.1258  -10.9949 C   0  0  0  0  0  0  0  0  0  0  0  0
   24.9875  -20.4295  -12.4573 C   0  0  2  0  0  0  0  0  0  0  0  0
   26.3366  -20.0692  -12.8985 N   0  0  0  0  0  0  0  0  0  0  0  0
   23.9912  -19.6356  -13.2413 C   0  0  0  0  0  0  0  0  0  0  0  0
   24.1805  -18.4276  -13.4374 O   0  0  0  0  0  0  0  0  0  0  0  0
   20.9155  -23.1588   -7.3762 O   0  0  0  0  0  0  0  0  0  0  0  0
   22.3199  -19.4005  -17.2186 C   0  0  0  0  0  0  0  0  0  0  0  0
   22.9278  -19.9378  -16.1010 C   0  0  2  0  0  0  0  0  0  0  0  0
   22.0633  -19.7834  -14.8473 N   0  0  0  0  0  0  0  0  0  0  0  0
   22.8433  -20.2907  -13.7461 C   0  0  0  0  0  0  0  0  0  0  0  0
   20.8360  -20.5721  -15.0781 O   0  0  0  0  0  0  0  0  0  0  0  0
   19.9434  -20.1221  -15.8309 O   0  0  0  0  0  0  0  0  0  0  0  0
  1  2  1  0
  3  2  1  0
  4  5  1  0
  4  3  1  0
  5  1  1  0
  5  6  1  6
  7  6  2  0
  9  8  1  0
 10  9  2  0
 11  9  1  0
 12 13  1  0
 12 11  1  0
 13 14  1  0
 15 14  1  1
 15 16  1  0
 16  6  1  0
 17 22  1  0
 17 15  1  0
 18 17  2  0
 19 20  1  0
 21 20  1  1
 21 23  1  0
 21 22  1  0
 23 25  1  0
 24 23  2  0
M  END
$$$$
