PRS.pdb
     RDKit          3D

 25 25  0  0  1  0  0  0  0  0999 V2000
   26.3630  -19.7863   -9.4505 N   0  0  0  0  0  0  0  0  0  0  0  0
   25.4076  -18.9980   -8.7117 C   0  0  0  0  0  0  0  0  0  0  0  0
   24.0736  -19.7121   -8.8064 C   0  0  0  0  0  0  0  0  0  0  0  0
   24.5872  -21.1468   -8.9356 C   0  0  0  0  0  0  0  0  0  0  0  0
   25.6447  -20.9213   -9.9961 C   0  0  1  0  0  0  0  0  0  0  0  0
   25.0239  -20.5474  -11.3121 C   0  0  0  0  0  0  0  0  0  0  0  0
   24.4348  -19.4353  -11.3900 O   0  0  0  0  0  0  0  0  0  0  0  0
   27.0565  -24.3660  -16.5335 N   0  0  0  0  0  0  0  0  0  0  0  0
   25.6696  -24.6277  -16.7555 C   0  0  0  0  0  0  0  0  0  0  0  0
   25.2038  -25.8139  -16.5909 N   0  0  0  0  0  0  0  0  0  0  0  0
   24.7679  -23.6039  -17.1600 N   0  0  0  0  0  0  0  0  0  0  0  0
   25.2358  -22.2288  -17.2693 C   0  0  0  0  0  0  0  0  0  0  0  0
   24.6398  -21.3966  -16.1905 C   0  0  0  0  0  0  0  0  0  0  0  0
   25.0884  -21.8253  -14.8266 C   0  0  0  0  0  0  0  0  0  0  0  0
   24.5423  -20.9467  -13.7375 C   0  0  2  0  0  0  0  0  0  0  0  0
   25.0718  -21.3711  -12.4398 N   0  0  0  0  0  0  0  0  0  0  0  0
   23.0506  -21.0549  -13.7129 C   0  0  0  0  0  0  0  0  0  0  0  0
   22.5136  -22.1124  -13.3564 O   0  0  0  0  0  0  0  0  0  0  0  0
   24.2057  -26.0401  -16.7699 O   0  0  0  0  0  0  0  0  0  0  0  0
   20.7492  -17.5847  -13.4998 C   0  0  0  0  0  0  0  0  0  0  0  0
   20.4095  -18.5048  -14.4721 C   0  0  2  0  0  0  0  0  0  0  0  0
   20.8379  -19.9247  -14.0934 N   0  0  0  0  0  0  0  0  0  0  0  0
   22.2795  -19.9342  -14.1017 C   0  0  0  0  0  0  0  0  0  0  0  0
   20.2633  -20.8273  -15.1116 O   0  0  0  0  0  0  0  0  0  0  0  0
   19.0261  -21.0113  -15.1482 O   0  0  0  0  0  0  0  0  0  0  0  0
  1  2  1  0
  3  2  1  0
  4  5  1  0
  4  3  1  0
  5  1  1  0
  5  6  1  6
  7  6  2  0
  9  8  1  0
 10  9  2  0
 11  9  1  0
 12 13  1  0
 12 11  1  0
 13 14  1  0
 15 14  1  6
 15 16  1  0
 16  6  1  0
 17 22  1  0
 17 15  1  0
 18 17  2  0
 19 20  1  0
 21 20  1  1
 21 23  1  0
 21 22  1  0
 23 25  1  0
 24 23  2  0
M  END
$$$$
