PRS.pdb
     RDKit          3D

 25 25  0  0  1  0  0  0  0  0999 V2000
   17.1735   -9.7426  -12.8422 N   0  0  0  0  0  0  0  0  0  0  0  0
   17.6399   -8.9229  -13.9334 C   0  0  0  0  0  0  0  0  0  0  0  0
   18.5364   -7.8558  -13.3367 C   0  0  0  0  0  0  0  0  0  0  0  0
   19.0547   -8.6373  -12.1285 C   0  0  0  0  0  0  0  0  0  0  0  0
   17.7373   -9.1905  -11.6261 C   0  0  1  0  0  0  0  0  0  0  0  0
   16.8512   -8.0951  -11.1045 C   0  0  0  0  0  0  0  0  0  0  0  0
   16.3818   -7.2718  -11.9363 O   0  0  0  0  0  0  0  0  0  0  0  0
   10.8604   -7.8118   -8.3684 N   0  0  0  0  0  0  0  0  0  0  0  0
   10.9426   -9.1224   -7.8056 C   0  0  0  0  0  0  0  0  0  0  0  0
    9.9799   -9.9569   -7.9736 N   0  0  0  0  0  0  0  0  0  0  0  0
   12.0724   -9.5459   -7.0513 N   0  0  0  0  0  0  0  0  0  0  0  0
   13.1838   -8.6294   -6.8358 C   0  0  0  0  0  0  0  0  0  0  0  0
   13.8050   -8.2614   -8.1359 C   0  0  0  0  0  0  0  0  0  0  0  0
   14.9917   -7.3624   -7.9661 C   0  0  0  0  0  0  0  0  0  0  0  0
   15.5858   -6.9378   -9.2788 C   0  0  2  0  0  0  0  0  0  0  0  0
   16.5295   -7.9526   -9.7522 N   0  0  0  0  0  0  0  0  0  0  0  0
   16.3133   -5.6432   -9.0993 C   0  0  0  0  0  0  0  0  0  0  0  0
   17.4516   -5.6366   -8.6115 O   0  0  0  0  0  0  0  0  0  0  0  0
   10.0136  -10.9182   -7.5810 O   0  0  0  0  0  0  0  0  0  0  0  0
   17.6772   -1.9500  -11.2006 C   0  0  0  0  0  0  0  0  0  0  0  0
   17.0574   -3.1589  -10.9524 C   0  0  1  0  0  0  0  0  0  0  0  0
   16.3621   -3.1782   -9.5888 N   0  0  0  0  0  0  0  0  0  0  0  0
   15.6770   -4.4433   -9.4956 C   0  0  0  0  0  0  0  0  0  0  0  0
   15.4314   -2.0315   -9.5706 O   0  0  0  0  0  0  0  0  0  0  0  0
   14.2257   -2.2082   -9.8552 O   0  0  0  0  0  0  0  0  0  0  0  0
  1  2  1  0
  3  2  1  0
  4  5  1  0
  4  3  1  0
  5  1  1  0
  5  6  1  6
  7  6  2  0
  9  8  1  0
 10  9  2  0
 11  9  1  0
 12 13  1  0
 12 11  1  0
 13 14  1  0
 15 14  1  1
 15 16  1  0
 16  6  1  0
 17 22  1  0
 17 15  1  0
 18 17  2  0
 19 20  1  0
 21 20  1  1
 21 23  1  0
 21 22  1  0
 23 25  1  0
 24 23  2  0
M  END
$$$$
