PRS.pdb
     RDKit          3D

 25 25  0  0  1  0  0  0  0  0999 V2000
   27.7734  -17.5159  -16.4422 N   0  0  0  0  0  0  0  0  0  0  0  0
   27.1564  -16.5292  -17.2941 C   0  0  0  0  0  0  0  0  0  0  0  0
   26.0181  -15.9107  -16.5066 C   0  0  0  0  0  0  0  0  0  0  0  0
   26.5930  -16.0763  -15.0991 C   0  0  0  0  0  0  0  0  0  0  0  0
   27.0331  -17.5222  -15.1957 C   0  0  1  0  0  0  0  0  0  0  0  0
   25.8520  -18.4437  -15.3085 C   0  0  0  0  0  0  0  0  0  0  0  0
   25.5465  -18.8712  -16.4547 O   0  0  0  0  0  0  0  0  0  0  0  0
   27.6563  -21.3956  -10.0151 N   0  0  0  0  0  0  0  0  0  0  0  0
   26.3106  -21.1107   -9.6288 C   0  0  0  0  0  0  0  0  0  0  0  0
   26.0739  -20.4932   -8.5270 N   0  0  0  0  0  0  0  0  0  0  0  0
   25.2015  -21.4931  -10.4342 N   0  0  0  0  0  0  0  0  0  0  0  0
   25.4247  -22.2291  -11.6712 C   0  0  0  0  0  0  0  0  0  0  0  0
   25.4193  -21.2978  -12.8306 C   0  0  0  0  0  0  0  0  0  0  0  0
   24.0540  -20.7494  -13.1144 C   0  0  0  0  0  0  0  0  0  0  0  0
   24.0322  -19.8518  -14.3186 C   0  0  2  0  0  0  0  0  0  0  0  0
   25.0872  -18.8421  -14.2090 N   0  0  0  0  0  0  0  0  0  0  0  0
   22.7068  -19.1632  -14.4012 C   0  0  0  0  0  0  0  0  0  0  0  0
   22.4465  -18.2296  -13.6301 O   0  0  0  0  0  0  0  0  0  0  0  0
   25.1074  -20.2558   -8.2289 O   0  0  0  0  0  0  0  0  0  0  0  0
   20.0944  -20.8006  -17.0824 C   0  0  0  0  0  0  0  0  0  0  0  0
   20.0261  -19.4249  -16.9816 C   0  0  1  0  0  0  0  0  0  0  0  0
   20.5237  -18.9233  -15.6237 N   0  0  0  0  0  0  0  0  0  0  0  0
   21.7713  -19.5993  -15.3689 C   0  0  0  0  0  0  0  0  0  0  0  0
   19.4829  -19.2714  -14.6352 O   0  0  0  0  0  0  0  0  0  0  0  0
   19.7014  -20.1764  -13.7989 O   0  0  0  0  0  0  0  0  0  0  0  0
  1  2  1  0
  3  2  1  0
  4  5  1  0
  4  3  1  0
  5  1  1  0
  5  6  1  6
  7  6  2  0
  9  8  1  0
 10  9  2  0
 11  9  1  0
 12 13  1  0
 12 11  1  0
 13 14  1  0
 15 14  1  1
 15 16  1  0
 16  6  1  0
 17 22  1  0
 17 15  1  0
 18 17  2  0
 19 20  1  0
 21 20  1  6
 21 23  1  0
 21 22  1  0
 23 25  1  0
 24 23  2  0
M  END
$$$$
