PRS.pdb
     RDKit          3D

 25 25  0  0  1  0  0  0  0  0999 V2000
   27.2471  -12.5837  -16.8531 N   0  0  0  0  0  0  0  0  0  0  0  0
   28.4872  -11.9777  -17.2713 C   0  0  0  0  0  0  0  0  0  0  0  0
   28.5383  -10.5952  -16.6511 C   0  0  0  0  0  0  0  0  0  0  0  0
   27.7144  -10.8748  -15.3933 C   0  0  0  0  0  0  0  0  0  0  0  0
   26.5546  -11.6094  -16.0328 C   0  0  1  0  0  0  0  0  0  0  0  0
   25.7443  -10.6924  -16.9044 C   0  0  0  0  0  0  0  0  0  0  0  0
   26.0284  -10.6442  -18.1319 O   0  0  0  0  0  0  0  0  0  0  0  0
   17.8143  -10.6635  -15.2649 N   0  0  0  0  0  0  0  0  0  0  0  0
   19.0218  -10.3586  -14.5646 C   0  0  0  0  0  0  0  0  0  0  0  0
   18.9982  -10.1648  -13.2945 N   0  0  0  0  0  0  0  0  0  0  0  0
   20.2733  -10.2594  -15.2344 N   0  0  0  0  0  0  0  0  0  0  0  0
   20.3649  -10.5898  -16.6501 C   0  0  0  0  0  0  0  0  0  0  0  0
   21.7811  -10.5305  -17.1003 C   0  0  0  0  0  0  0  0  0  0  0  0
   22.4111   -9.1992  -16.8248 C   0  0  0  0  0  0  0  0  0  0  0  0
   23.8328   -9.1240  -17.3041 C   0  0  2  0  0  0  0  0  0  0  0  0
   24.7014   -9.9004  -16.4170 N   0  0  0  0  0  0  0  0  0  0  0  0
   24.2837   -7.6978  -17.3000 C   0  0  0  0  0  0  0  0  0  0  0  0
   24.6158   -7.1578  -16.2360 O   0  0  0  0  0  0  0  0  0  0  0  0
   19.8636   -9.9686  -12.7543 O   0  0  0  0  0  0  0  0  0  0  0  0
   25.2342   -3.9943  -20.3456 C   0  0  0  0  0  0  0  0  0  0  0  0
   24.8200   -5.2922  -20.1194 C   0  0  2  0  0  0  0  0  0  0  0  0
   24.6911   -5.6015  -18.6258 N   0  0  0  0  0  0  0  0  0  0  0  0
   24.3208   -6.9912  -18.5252 C   0  0  0  0  0  0  0  0  0  0  0  0
   23.6477   -4.7012  -18.0944 O   0  0  0  0  0  0  0  0  0  0  0  0
   23.9711   -3.5852  -17.6298 O   0  0  0  0  0  0  0  0  0  0  0  0
  1  2  1  0
  3  2  1  0
  4  5  1  0
  4  3  1  0
  5  1  1  0
  5  6  1  6
  7  6  2  0
  9  8  1  0
 10  9  2  0
 11  9  1  0
 12 13  1  0
 12 11  1  0
 13 14  1  0
 15 14  1  1
 15 16  1  0
 16  6  1  0
 17 22  1  0
 17 15  1  0
 18 17  2  0
 19 20  1  0
 21 20  1  1
 21 23  1  0
 21 22  1  0
 23 25  1  0
 24 23  2  0
M  END
$$$$
