YHF.pdb
     RDKit          3D

 34 36  0  0  1  0  0  0  0  0999 V2000
   11.8522  -12.3017   18.8754 O   0  0  0  0  0  0  0  0  0  0  0  0
   10.7035  -13.0193   19.1859 C   0  0  0  0  0  0  0  0  0  0  0  0
   10.7291  -14.3799   19.3971 C   0  0  0  0  0  0  0  0  0  0  0  0
    9.6102  -15.1203   19.7061 C   0  0  0  0  0  0  0  0  0  0  0  0
    8.3754  -14.4936   19.8184 C   0  0  0  0  0  0  0  0  0  0  0  0
    7.1396  -15.2114   20.1309 C   0  0  0  0  0  0  0  0  0  0  0  0
    7.2760  -16.6940   20.2495 C   0  0  2  0  0  0  0  0  0  0  0  0
    6.5085  -17.2843   19.1602 N   0  0  0  0  0  0  0  0  0  0  0  0
    6.7880  -17.1371   21.5638 C   0  0  0  0  0  0  0  0  0  0  0  0
    5.5383  -17.1811   21.7578 O   0  0  0  0  0  0  0  0  0  0  0  0
    8.3422  -13.1321   19.6083 C   0  0  0  0  0  0  0  0  0  0  0  0
    9.4725  -12.4078   19.2999 C   0  0  0  0  0  0  0  0  0  0  0  0
    7.6034  -17.5191   22.6317 N   0  0  0  0  0  0  0  0  0  0  0  0
    7.0883  -17.9796   23.9447 C   0  0  1  0  0  0  0  0  0  0  0  0
    7.3562  -19.4346   23.9657 C   0  0  0  0  0  0  0  0  0  0  0  0
    6.4667  -20.3047   23.2031 C   0  0  0  0  0  0  0  0  0  0  0  0
    6.4265  -20.7352   21.9199 C   0  0  0  0  0  0  0  0  0  0  0  0
    5.3694  -21.5831   21.8041 N   0  0  0  0  0  0  0  0  0  0  0  0
    4.7597  -21.6815   22.9955 C   0  0  0  0  0  0  0  0  0  0  0  0
    5.4194  -20.9118   23.8411 N   0  0  0  0  0  0  0  0  0  0  0  0
    7.9921  -17.3166   24.9152 C   0  0  0  0  0  0  0  0  0  0  0  0
    9.1485  -17.0191   24.5902 O   0  0  0  0  0  0  0  0  0  0  0  0
    7.5656  -17.0112   26.2180 N   0  0  0  0  0  0  0  0  0  0  0  0
    8.4428  -16.2413   27.0994 C   0  0  1  0  0  0  0  0  0  0  0  0
    7.6025  -15.2510   27.8813 C   0  0  0  0  0  0  0  0  0  0  0  0
    7.4328  -13.9747   27.1825 C   0  0  0  0  0  0  0  0  0  0  0  0
    6.1637  -13.4093   27.0589 C   0  0  0  0  0  0  0  0  0  0  0  0
    5.9832  -12.2092   26.4189 C   0  0  0  0  0  0  0  0  0  0  0  0
    7.0589  -11.5458   25.8884 C   0  0  0  0  0  0  0  0  0  0  0  0
    8.3118  -12.0790   25.9967 C   0  0  0  0  0  0  0  0  0  0  0  0
    8.4830  -13.2793   26.6382 C   0  0  0  0  0  0  0  0  0  0  0  0
    9.2632  -17.1111   27.9438 C   0  0  0  0  0  0  0  0  0  0  0  0
    8.9676  -18.3257   28.0520 O   0  0  0  0  0  0  0  0  0  0  0  0
   10.3784  -16.6673   28.6528 O   0  0  0  0  0  0  0  0  0  0  0  0
  2  1  1  0
  3  2  2  0
  4  3  1  0
  5 11  1  0
  5  4  2  0
  6  5  1  0
  7  6  1  0
  7  8  1  6
  9  7  1  0
  9 13  1  0
 10  9  2  0
 11 12  2  0
 12  2  1  0
 14 15  1  6
 14 13  1  0
 14 21  1  0
 16 15  1  0
 17 16  2  0
 18 17  1  0
 19 18  1  0
 19 20  2  0
 20 16  1  0
 21 22  2  0
 23 21  1  0
 23 24  1  0
 24 32  1  0
 24 25  1  1
 26 31  1  0
 26 25  1  0
 27 26  2  0
 28 29  2  0
 28 27  1  0
 29 30  1  0
 30 31  2  0
 32 34  1  0
 33 32  2  0
M  END
$$$$
