YHF.pdb
     RDKit          3D

 34 36  0  0  1  0  0  0  0  0999 V2000
    7.8026  -11.4957   17.3809 O   0  0  0  0  0  0  0  0  0  0  0  0
    7.8729  -12.3284   18.4911 C   0  0  0  0  0  0  0  0  0  0  0  0
    9.0734  -12.8017   18.9719 C   0  0  0  0  0  0  0  0  0  0  0  0
    9.1782  -13.6277   20.0686 C   0  0  0  0  0  0  0  0  0  0  0  0
    8.0330  -14.0231   20.7485 C   0  0  0  0  0  0  0  0  0  0  0  0
    8.0597  -14.9079   21.9132 C   0  0  0  0  0  0  0  0  0  0  0  0
    8.6058  -16.2753   21.6627 C   0  0  2  0  0  0  0  0  0  0  0  0
    7.6437  -16.9742   20.8200 N   0  0  0  0  0  0  0  0  0  0  0  0
    8.8182  -16.9704   22.9409 C   0  0  0  0  0  0  0  0  0  0  0  0
    7.8386  -17.5745   23.4669 O   0  0  0  0  0  0  0  0  0  0  0  0
    6.8280  -13.5533   20.2729 C   0  0  0  0  0  0  0  0  0  0  0  0
    6.7429  -12.7274   19.1738 C   0  0  0  0  0  0  0  0  0  0  0  0
   10.0311  -17.0189   23.6321 N   0  0  0  0  0  0  0  0  0  0  0  0
   10.2394  -17.7803   24.8883 C   0  0  1  0  0  0  0  0  0  0  0  0
   11.4699  -18.5675   24.6527 C   0  0  0  0  0  0  0  0  0  0  0  0
   11.3862  -19.7147   23.7546 C   0  0  0  0  0  0  0  0  0  0  0  0
   10.3769  -20.4906   23.2935 C   0  0  0  0  0  0  0  0  0  0  0  0
   10.9147  -21.3942   22.4309 N   0  0  0  0  0  0  0  0  0  0  0  0
   12.2381  -21.1857   22.3535 C   0  0  0  0  0  0  0  0  0  0  0  0
   12.5252  -20.1733   23.1505 N   0  0  0  0  0  0  0  0  0  0  0  0
   10.5368  -16.7207   25.8819 C   0  0  0  0  0  0  0  0  0  0  0  0
   11.3936  -15.8608   25.6413 O   0  0  0  0  0  0  0  0  0  0  0  0
    9.8617  -16.6642   27.1122 N   0  0  0  0  0  0  0  0  0  0  0  0
   10.3367  -15.7512   28.1513 C   0  0  1  0  0  0  0  0  0  0  0  0
    9.1687  -14.9177   28.6404 C   0  0  0  0  0  0  0  0  0  0  0  0
    8.4771  -14.2179   27.5551 C   0  0  0  0  0  0  0  0  0  0  0  0
    8.8869  -12.9400   27.1751 C   0  0  0  0  0  0  0  0  0  0  0  0
    8.2613  -12.2709   26.1536 C   0  0  0  0  0  0  0  0  0  0  0  0
    7.2160  -12.8569   25.4884 C   0  0  0  0  0  0  0  0  0  0  0  0
    6.7962  -14.1077   25.8420 C   0  0  0  0  0  0  0  0  0  0  0  0
    7.4275  -14.7692   26.8644 C   0  0  0  0  0  0  0  0  0  0  0  0
   11.0388  -16.4632   29.2203 C   0  0  0  0  0  0  0  0  0  0  0  0
   11.5645  -15.8123   30.1554 O   0  0  0  0  0  0  0  0  0  0  0  0
   11.1644  -17.8507   29.2685 O   0  0  0  0  0  0  0  0  0  0  0  0
  2  1  1  0
  3  2  2  0
  4  3  1  0
  5 11  1  0
  5  4  2  0
  6  5  1  0
  7  6  1  0
  7  8  1  6
  9  7  1  0
  9 13  1  0
 10  9  2  0
 11 12  2  0
 12  2  1  0
 14 15  1  6
 14 13  1  0
 14 21  1  0
 16 15  1  0
 17 16  2  0
 18 17  1  0
 19 18  1  0
 19 20  2  0
 20 16  1  0
 21 22  2  0
 23 21  1  0
 23 24  1  0
 24 32  1  0
 24 25  1  1
 26 31  1  0
 26 25  1  0
 27 26  2  0
 28 29  2  0
 28 27  1  0
 29 30  1  0
 30 31  2  0
 32 34  1  0
 33 32  2  0
M  END
$$$$
