YHF.pdb
     RDKit          3D

 34 36  0  0  1  0  0  0  0  0999 V2000
    0.6479  -20.0428   19.5697 O   0  0  0  0  0  0  0  0  0  0  0  0
    1.8302  -19.8223   20.2658 C   0  0  0  0  0  0  0  0  0  0  0  0
    2.0584  -18.6571   20.9634 C   0  0  0  0  0  0  0  0  0  0  0  0
    3.2177  -18.4070   21.6629 C   0  0  0  0  0  0  0  0  0  0  0  0
    4.2299  -19.3583   21.6870 C   0  0  0  0  0  0  0  0  0  0  0  0
    5.4945  -19.1628   22.3958 C   0  0  0  0  0  0  0  0  0  0  0  0
    6.6710  -18.8563   21.5282 C   0  0  2  0  0  0  0  0  0  0  0  0
    7.5153  -20.0442   21.5143 N   0  0  0  0  0  0  0  0  0  0  0  0
    7.3867  -17.6839   22.0528 C   0  0  0  0  0  0  0  0  0  0  0  0
    8.3277  -17.8731   22.8774 O   0  0  0  0  0  0  0  0  0  0  0  0
    4.0084  -20.5268   20.9910 C   0  0  0  0  0  0  0  0  0  0  0  0
    2.8417  -20.7594   20.2966 C   0  0  0  0  0  0  0  0  0  0  0  0
    7.1085  -16.3587   21.7100 N   0  0  0  0  0  0  0  0  0  0  0  0
    7.8410  -15.1899   22.2564 C   0  0  1  0  0  0  0  0  0  0  0  0
    7.5820  -14.0979   21.2920 C   0  0  0  0  0  0  0  0  0  0  0  0
    8.3055  -14.1190   20.0248 C   0  0  0  0  0  0  0  0  0  0  0  0
    9.1826  -14.9714   19.4438 C   0  0  0  0  0  0  0  0  0  0  0  0
    9.4854  -14.4743   18.2146 N   0  0  0  0  0  0  0  0  0  0  0  0
    8.8079  -13.3307   18.0301 C   0  0  0  0  0  0  0  0  0  0  0  0
    8.0954  -13.1141   19.1200 N   0  0  0  0  0  0  0  0  0  0  0  0
    7.1159  -14.8932   23.5151 C   0  0  0  0  0  0  0  0  0  0  0  0
    5.8793  -14.8469   23.5283 O   0  0  0  0  0  0  0  0  0  0  0  0
    7.8053  -14.6579   24.7159 N   0  0  0  0  0  0  0  0  0  0  0  0
    7.0505  -14.3375   25.9270 C   0  0  1  0  0  0  0  0  0  0  0  0
    7.5921  -15.1676   27.0741 C   0  0  0  0  0  0  0  0  0  0  0  0
    8.9686  -14.8143   27.4298 C   0  0  0  0  0  0  0  0  0  0  0  0
    9.2188  -13.7027   28.2342 C   0  0  0  0  0  0  0  0  0  0  0  0
   10.4990  -13.3602   28.5895 C   0  0  0  0  0  0  0  0  0  0  0  0
   11.5571  -14.1145   28.1534 C   0  0  0  0  0  0  0  0  0  0  0  0
   11.3378  -15.2078   27.3646 C   0  0  0  0  0  0  0  0  0  0  0  0
   10.0546  -15.5428   27.0144 C   0  0  0  0  0  0  0  0  0  0  0  0
    7.0412  -12.8987   26.1963 C   0  0  0  0  0  0  0  0  0  0  0  0
    6.3084  -12.4449   27.1082 O   0  0  0  0  0  0  0  0  0  0  0  0
    7.8119  -11.9775   25.4887 O   0  0  0  0  0  0  0  0  0  0  0  0
  2  1  1  0
  3  2  2  0
  4  3  1  0
  5 11  1  0
  5  4  2  0
  6  5  1  0
  7  6  1  0
  7  8  1  1
  9  7  1  0
  9 13  1  0
 10  9  2  0
 11 12  2  0
 12  2  1  0
 14 15  1  6
 14 13  1  0
 14 21  1  0
 16 15  1  0
 17 16  2  0
 18 17  1  0
 19 18  1  0
 19 20  2  0
 20 16  1  0
 21 22  2  0
 23 21  1  0
 23 24  1  0
 24 32  1  0
 24 25  1  1
 26 31  1  0
 26 25  1  0
 27 26  2  0
 28 29  2  0
 28 27  1  0
 29 30  1  0
 30 31  2  0
 32 34  1  0
 33 32  2  0
M  END
$$$$
