YHF.pdb
     RDKit          3D

 34 36  0  0  1  0  0  0  0  0999 V2000
    7.8191  -11.7800   16.9253 O   0  0  0  0  0  0  0  0  0  0  0  0
    7.9204  -12.5694   18.0644 C   0  0  0  0  0  0  0  0  0  0  0  0
    9.1292  -12.8116   18.6779 C   0  0  0  0  0  0  0  0  0  0  0  0
    9.2645  -13.5883   19.8067 C   0  0  0  0  0  0  0  0  0  0  0  0
    8.1433  -14.1730   20.3822 C   0  0  0  0  0  0  0  0  0  0  0  0
    8.2055  -15.0207   21.5728 C   0  0  0  0  0  0  0  0  0  0  0  0
    8.8266  -16.3635   21.3678 C   0  0  2  0  0  0  0  0  0  0  0  0
    7.9822  -17.0879   20.4263 N   0  0  0  0  0  0  0  0  0  0  0  0
    8.9356  -17.0654   22.6552 C   0  0  0  0  0  0  0  0  0  0  0  0
    7.8805  -17.5267   23.1798 O   0  0  0  0  0  0  0  0  0  0  0  0
    6.9301  -13.9351   19.7736 C   0  0  0  0  0  0  0  0  0  0  0  0
    6.8144  -13.1549   18.6443 C   0  0  0  0  0  0  0  0  0  0  0  0
   10.1265  -17.2675   23.3568 N   0  0  0  0  0  0  0  0  0  0  0  0
   10.2207  -18.0246   24.6292 C   0  0  1  0  0  0  0  0  0  0  0  0
   11.2080  -19.0934   24.3599 C   0  0  0  0  0  0  0  0  0  0  0  0
   10.7581  -20.2698   23.6228 C   0  0  0  0  0  0  0  0  0  0  0  0
    9.5772  -20.6660   23.0918 C   0  0  0  0  0  0  0  0  0  0  0  0
    9.7856  -21.8580   22.4708 N   0  0  0  0  0  0  0  0  0  0  0  0
   11.0755  -22.2005   22.6106 C   0  0  0  0  0  0  0  0  0  0  0  0
   11.6644  -21.2444   23.3047 N   0  0  0  0  0  0  0  0  0  0  0  0
   10.8252  -17.0446   25.5632 C   0  0  0  0  0  0  0  0  0  0  0  0
   11.7443  -16.3065   25.1864 O   0  0  0  0  0  0  0  0  0  0  0  0
   10.3766  -16.9280   26.8890 N   0  0  0  0  0  0  0  0  0  0  0  0
   11.0273  -15.9739   27.7865 C   0  0  1  0  0  0  0  0  0  0  0  0
   10.9339  -14.5887   27.1777 C   0  0  0  0  0  0  0  0  0  0  0  0
    9.5678  -14.0595   27.1784 C   0  0  0  0  0  0  0  0  0  0  0  0
    8.6787  -14.4198   26.1660 C   0  0  0  0  0  0  0  0  0  0  0  0
    7.3912  -13.9456   26.1533 C   0  0  0  0  0  0  0  0  0  0  0  0
    6.9603  -13.1039   27.1455 C   0  0  0  0  0  0  0  0  0  0  0  0
    7.8123  -12.7365   28.1479 C   0  0  0  0  0  0  0  0  0  0  0  0
    9.0976  -13.2154   28.1526 C   0  0  0  0  0  0  0  0  0  0  0  0
   10.4916  -16.0553   29.1463 C   0  0  0  0  0  0  0  0  0  0  0  0
    9.4778  -16.7597   29.3705 O   0  0  0  0  0  0  0  0  0  0  0  0
   11.0478  -15.3851   30.2347 O   0  0  0  0  0  0  0  0  0  0  0  0
  2  1  1  0
  3  2  2  0
  4  3  1  0
  5 11  1  0
  5  4  2  0
  6  5  1  0
  7  6  1  0
  7  8  1  6
  9  7  1  0
  9 13  1  0
 10  9  2  0
 11 12  2  0
 12  2  1  0
 14 15  1  6
 14 13  1  0
 14 21  1  0
 16 15  1  0
 17 16  2  0
 18 17  1  0
 19 18  1  0
 19 20  2  0
 20 16  1  0
 21 22  2  0
 23 21  1  0
 23 24  1  0
 24 32  1  0
 24 25  1  6
 26 31  1  0
 26 25  1  0
 27 26  2  0
 28 29  2  0
 28 27  1  0
 29 30  1  0
 30 31  2  0
 32 34  1  0
 33 32  2  0
M  END
$$$$
