YHF.pdb
     RDKit          3D

 34 36  0  0  1  0  0  0  0  0999 V2000
    7.4935  -11.5299   17.4730 O   0  0  0  0  0  0  0  0  0  0  0  0
    7.6334  -12.3894   18.5559 C   0  0  0  0  0  0  0  0  0  0  0  0
    6.5703  -13.1049   19.0602 C   0  0  0  0  0  0  0  0  0  0  0  0
    6.6745  -13.9643   20.1309 C   0  0  0  0  0  0  0  0  0  0  0  0
    7.9013  -14.1421   20.7581 C   0  0  0  0  0  0  0  0  0  0  0  0
    8.0910  -15.0265   21.9079 C   0  0  0  0  0  0  0  0  0  0  0  0
    8.9523  -16.2209   21.6584 C   0  0  2  0  0  0  0  0  0  0  0  0
    8.2992  -17.0126   20.6236 N   0  0  0  0  0  0  0  0  0  0  0  0
    9.1218  -16.9836   22.9040 C   0  0  0  0  0  0  0  0  0  0  0  0
    8.2162  -17.8031   23.2352 O   0  0  0  0  0  0  0  0  0  0  0  0
    8.9697  -13.4292   20.2588 C   0  0  0  0  0  0  0  0  0  0  0  0
    8.8462  -12.5738   19.1863 C   0  0  0  0  0  0  0  0  0  0  0  0
   10.2170  -16.8759   23.7642 N   0  0  0  0  0  0  0  0  0  0  0  0
   10.3762  -17.6702   25.0072 C   0  0  1  0  0  0  0  0  0  0  0  0
   11.6356  -18.4228   24.8153 C   0  0  0  0  0  0  0  0  0  0  0  0
   11.6501  -19.4886   23.8185 C   0  0  0  0  0  0  0  0  0  0  0  0
   10.7420  -19.9901   22.9482 C   0  0  0  0  0  0  0  0  0  0  0  0
   11.3580  -20.9665   22.2292 N   0  0  0  0  0  0  0  0  0  0  0  0
   12.6303  -21.0726   22.6426 C   0  0  0  0  0  0  0  0  0  0  0  0
   12.8093  -20.1824   23.6008 N   0  0  0  0  0  0  0  0  0  0  0  0
   10.5955  -16.6349   26.0456 C   0  0  0  0  0  0  0  0  0  0  0  0
   11.3909  -15.7080   25.8462 O   0  0  0  0  0  0  0  0  0  0  0  0
    9.9140  -16.6770   27.2730 N   0  0  0  0  0  0  0  0  0  0  0  0
   10.2989  -15.7545   28.3406 C   0  0  1  0  0  0  0  0  0  0  0  0
    9.1031  -14.8936   28.6970 C   0  0  0  0  0  0  0  0  0  0  0  0
    8.5955  -14.1272   27.5563 C   0  0  0  0  0  0  0  0  0  0  0  0
    9.1810  -12.9072   27.2183 C   0  0  0  0  0  0  0  0  0  0  0  0
    8.7295  -12.1785   26.1470 C   0  0  0  0  0  0  0  0  0  0  0  0
    7.6875  -12.6462   25.3893 C   0  0  0  0  0  0  0  0  0  0  0  0
    7.0977  -13.8383   25.7002 C   0  0  0  0  0  0  0  0  0  0  0  0
    7.5555  -14.5602   26.7729 C   0  0  0  0  0  0  0  0  0  0  0  0
   10.8770  -16.4599   29.4856 C   0  0  0  0  0  0  0  0  0  0  0  0
   11.3064  -15.8026   30.4644 O   0  0  0  0  0  0  0  0  0  0  0  0
   10.9843  -17.8477   29.5612 O   0  0  0  0  0  0  0  0  0  0  0  0
  2  1  1  0
  3  2  2  0
  4  3  1  0
  5 11  1  0
  5  4  2  0
  6  5  1  0
  7  6  1  0
  7  8  1  6
  9  7  1  0
  9 13  1  0
 10  9  2  0
 11 12  2  0
 12  2  1  0
 14 15  1  6
 14 13  1  0
 14 21  1  0
 16 15  1  0
 17 16  2  0
 18 17  1  0
 19 18  1  0
 19 20  2  0
 20 16  1  0
 21 22  2  0
 23 21  1  0
 23 24  1  0
 24 32  1  0
 24 25  1  1
 26 31  1  0
 26 25  1  0
 27 26  2  0
 28 29  2  0
 28 27  1  0
 29 30  1  0
 30 31  2  0
 32 34  1  0
 33 32  2  0
M  END
$$$$
