PLT.pdb
     RDKit          3D

 23 23  0  0  1  0  0  0  0  0999 V2000
    7.2450  -14.8801   20.2762 N   0  0  0  0  0  0  0  0  0  0  0  0
    6.5683  -13.9369   19.4113 C   0  0  0  0  0  0  0  0  0  0  0  0
    7.6781  -13.2023   18.6813 C   0  0  0  0  0  0  0  0  0  0  0  0
    8.7186  -13.0785   19.7921 C   0  0  0  0  0  0  0  0  0  0  0  0
    8.5738  -14.3994   20.4965 C   0  0  1  0  0  0  0  0  0  0  0  0
    8.8235  -14.2934   21.9473 C   0  0  0  0  0  0  0  0  0  0  0  0
    9.9803  -14.0536   22.3765 O   0  0  0  0  0  0  0  0  0  0  0  0
    8.2602  -12.1479   26.7010 C   0  0  0  0  0  0  0  0  0  0  0  0
    7.1431  -13.1091   26.3963 C   0  0  1  0  0  0  0  0  0  0  0  0
    5.8599  -12.4117   26.8761 C   0  0  0  0  0  0  0  0  0  0  0  0
    6.9717  -13.4699   24.9682 C   0  0  0  0  0  0  0  0  0  0  0  0
    8.0198  -14.3396   24.3593 C   0  0  2  0  0  0  0  0  0  0  0  0
    7.8102  -14.4496   22.9215 N   0  0  0  0  0  0  0  0  0  0  0  0
    8.2542  -15.6350   24.9855 C   0  0  0  0  0  0  0  0  0  0  0  0
    7.2755  -16.4435   25.1764 O   0  0  0  0  0  0  0  0  0  0  0  0
    9.8171  -18.5623   23.7383 C   0  0  0  0  0  0  0  0  0  0  0  0
   10.4944  -18.3014   25.0390 C   0  0  1  0  0  0  0  0  0  0  0  0
   11.7423  -17.7042   24.9173 O   0  0  0  0  0  0  0  0  0  0  0  0
    9.6415  -17.4726   25.9958 C   0  0  2  0  0  0  0  0  0  0  0  0
    9.5125  -16.1305   25.4279 N   0  0  0  0  0  0  0  0  0  0  0  0
   10.3469  -17.5000   27.2868 C   0  0  0  0  0  0  0  0  0  0  0  0
   10.4211  -18.6727   28.0171 O   0  0  0  0  0  0  0  0  0  0  0  0
   10.8902  -16.4794   27.7518 O   0  0  0  0  0  0  0  0  0  0  0  0
  2  3  1  0
  2  1  1  0
  3  4  1  0
  4  5  1  0
  5  1  1  0
  5  6  1  1
  6 13  1  0
  6  7  2  0
  9  8  1  6
  9 10  1  0
 12 11  1  1
 11  9  1  0
 12 14  1  0
 13 12  1  0
 14 15  2  0
 17 16  1  6
 17 18  1  0
 17 19  1  0
 19 20  1  6
 20 14  1  0
 21 19  1  0
 21 22  1  0
 23 21  2  0
M  END
$$$$
