PLT.pdb
     RDKit          3D

 23 23  0  0  1  0  0  0  0  0999 V2000
    7.2496  -14.9243   20.3933 N   0  0  0  0  0  0  0  0  0  0  0  0
    6.5947  -13.9721   19.5216 C   0  0  0  0  0  0  0  0  0  0  0  0
    7.7220  -13.2459   18.8103 C   0  0  0  0  0  0  0  0  0  0  0  0
    8.7473  -13.1355   19.9365 C   0  0  0  0  0  0  0  0  0  0  0  0
    8.5796  -14.4570   20.6346 C   0  0  1  0  0  0  0  0  0  0  0  0
    8.8091  -14.3578   22.0892 C   0  0  0  0  0  0  0  0  0  0  0  0
    9.9631  -14.1387   22.5363 O   0  0  0  0  0  0  0  0  0  0  0  0
    8.1495  -12.1262   26.7292 C   0  0  0  0  0  0  0  0  0  0  0  0
    7.0588  -13.1368   26.4969 C   0  0  1  0  0  0  0  0  0  0  0  0
    5.7625  -12.4561   26.9655 C   0  0  0  0  0  0  0  0  0  0  0  0
    6.8731  -13.5769   25.0929 C   0  0  0  0  0  0  0  0  0  0  0  0
    7.9676  -14.3909   24.4885 C   0  0  2  0  0  0  0  0  0  0  0  0
    7.7785  -14.4982   23.0477 N   0  0  0  0  0  0  0  0  0  0  0  0
    8.2563  -15.6792   25.1066 C   0  0  0  0  0  0  0  0  0  0  0  0
    7.3007  -16.4954   25.3684 O   0  0  0  0  0  0  0  0  0  0  0  0
   10.2392  -18.5072   23.7705 C   0  0  0  0  0  0  0  0  0  0  0  0
   10.7484  -18.2276   25.1421 C   0  0  1  0  0  0  0  0  0  0  0  0
   11.9448  -17.5229   25.1687 O   0  0  0  0  0  0  0  0  0  0  0  0
    9.7288  -17.5028   26.0168 C   0  0  2  0  0  0  0  0  0  0  0  0
    9.5463  -16.1593   25.4670 N   0  0  0  0  0  0  0  0  0  0  0  0
   10.2905  -17.5108   27.3766 C   0  0  0  0  0  0  0  0  0  0  0  0
   10.3526  -18.6890   28.0994 O   0  0  0  0  0  0  0  0  0  0  0  0
   10.7203  -16.4688   27.9080 O   0  0  0  0  0  0  0  0  0  0  0  0
  2  3  1  0
  2  1  1  0
  3  4  1  0
  4  5  1  0
  5  1  1  0
  5  6  1  1
  6 13  1  0
  6  7  2  0
  9  8  1  6
  9 10  1  0
 12 11  1  1
 11  9  1  0
 12 14  1  0
 13 12  1  0
 14 15  2  0
 17 16  1  6
 17 18  1  0
 17 19  1  0
 19 20  1  6
 20 14  1  0
 21 19  1  0
 21 22  1  0
 23 21  2  0
M  END
$$$$
