PLT.pdb
     RDKit          3D

 23 23  0  0  1  0  0  0  0  0999 V2000
    7.4814  -15.3769   20.9584 N   0  0  0  0  0  0  0  0  0  0  0  0
    6.5107  -14.6619   20.1571 C   0  0  0  0  0  0  0  0  0  0  0  0
    7.2924  -13.5427   19.4934 C   0  0  0  0  0  0  0  0  0  0  0  0
    8.2451  -13.1510   20.6206 C   0  0  0  0  0  0  0  0  0  0  0  0
    8.5699  -14.4887   21.2264 C   0  0  1  0  0  0  0  0  0  0  0  0
    8.7905  -14.4077   22.6835 C   0  0  0  0  0  0  0  0  0  0  0  0
    9.9020  -14.0360   23.1376 O   0  0  0  0  0  0  0  0  0  0  0  0
    5.6820  -12.0219   26.4120 C   0  0  0  0  0  0  0  0  0  0  0  0
    6.8614  -12.6683   25.7368 C   0  0  1  0  0  0  0  0  0  0  0  0
    8.1018  -12.0981   26.4437 C   0  0  0  0  0  0  0  0  0  0  0  0
    6.9199  -14.1481   25.8139 C   0  0  0  0  0  0  0  0  0  0  0  0
    8.0262  -14.8213   25.0732 C   0  0  2  0  0  0  0  0  0  0  0  0
    7.7975  -14.7327   23.6368 N   0  0  0  0  0  0  0  0  0  0  0  0
    8.3835  -16.1703   25.4948 C   0  0  0  0  0  0  0  0  0  0  0  0
    7.4664  -17.0468   25.6912 O   0  0  0  0  0  0  0  0  0  0  0  0
   10.4114  -18.7438   23.7091 C   0  0  0  0  0  0  0  0  0  0  0  0
   10.9656  -18.6073   25.0849 C   0  0  1  0  0  0  0  0  0  0  0  0
   12.1288  -17.8518   25.1540 O   0  0  0  0  0  0  0  0  0  0  0  0
    9.9525  -18.0462   26.0792 C   0  0  2  0  0  0  0  0  0  0  0  0
    9.7040  -16.6497   25.7207 N   0  0  0  0  0  0  0  0  0  0  0  0
   10.5613  -18.2132   27.4082 C   0  0  0  0  0  0  0  0  0  0  0  0
   10.6210  -19.4639   27.9966 O   0  0  0  0  0  0  0  0  0  0  0  0
   11.0340  -17.2438   28.0325 O   0  0  0  0  0  0  0  0  0  0  0  0
  2  3  1  0
  2  1  1  0
  3  4  1  0
  4  5  1  0
  5  1  1  0
  5  6  1  1
  6 13  1  0
  6  7  2  0
  9  8  1  1
  9 10  1  0
 12 11  1  1
 11  9  1  0
 12 14  1  0
 13 12  1  0
 14 15  2  0
 17 16  1  6
 17 18  1  0
 17 19  1  0
 19 20  1  6
 20 14  1  0
 21 19  1  0
 21 22  1  0
 23 21  2  0
M  END
$$$$
