PLT.pdb
     RDKit          3D

 23 23  0  0  1  0  0  0  0  0999 V2000
    8.7513  -15.2975   19.6082 N   0  0  0  0  0  0  0  0  0  0  0  0
    8.7695  -16.5553   18.8919 C   0  0  0  0  0  0  0  0  0  0  0  0
    7.3508  -17.0865   18.9883 C   0  0  0  0  0  0  0  0  0  0  0  0
    6.9856  -16.6716   20.4117 C   0  0  0  0  0  0  0  0  0  0  0  0
    7.6488  -15.3260   20.5187 C   0  0  1  0  0  0  0  0  0  0  0  0
    8.1322  -15.0443   21.8845 C   0  0  0  0  0  0  0  0  0  0  0  0
    9.3399  -15.2272   22.1808 O   0  0  0  0  0  0  0  0  0  0  0  0
    8.1819  -12.1058   26.6609 C   0  0  0  0  0  0  0  0  0  0  0  0
    7.0430  -13.0485   26.3799 C   0  0  1  0  0  0  0  0  0  0  0  0
    5.7928  -12.3646   26.9565 C   0  0  0  0  0  0  0  0  0  0  0  0
    6.7915  -13.3510   24.9500 C   0  0  0  0  0  0  0  0  0  0  0  0
    7.7364  -14.2919   24.2809 C   0  0  2  0  0  0  0  0  0  0  0  0
    7.2957  -14.5646   22.9191 N   0  0  0  0  0  0  0  0  0  0  0  0
    8.0858  -15.5085   25.0040 C   0  0  0  0  0  0  0  0  0  0  0  0
    7.1674  -16.3331   25.3570 O   0  0  0  0  0  0  0  0  0  0  0  0
    9.9776  -18.4825   23.9410 C   0  0  0  0  0  0  0  0  0  0  0  0
   10.6027  -17.9922   25.2010 C   0  0  1  0  0  0  0  0  0  0  0  0
   11.7650  -17.2574   25.0073 O   0  0  0  0  0  0  0  0  0  0  0  0
    9.6410  -17.1773   26.0618 C   0  0  2  0  0  0  0  0  0  0  0  0
    9.3996  -15.9066   25.3780 N   0  0  0  0  0  0  0  0  0  0  0  0
   10.3022  -17.0265   27.3675 C   0  0  0  0  0  0  0  0  0  0  0  0
   10.4681  -18.1217   28.1966 O   0  0  0  0  0  0  0  0  0  0  0  0
   10.7256  -15.9213   27.7574 O   0  0  0  0  0  0  0  0  0  0  0  0
  2  3  1  0
  2  1  1  0
  3  4  1  0
  4  5  1  0
  5  1  1  0
  5  6  1  1
  6 13  1  0
  6  7  2  0
  9  8  1  6
  9 10  1  0
 12 11  1  1
 11  9  1  0
 12 14  1  0
 13 12  1  0
 14 15  2  0
 17 16  1  6
 17 18  1  0
 17 19  1  0
 19 20  1  6
 20 14  1  0
 21 19  1  0
 21 22  1  0
 23 21  2  0
M  END
$$$$
