IFA.pdb
     RDKit          3D

 25 25  0  0  1  0  0  0  0  0999 V2000
    7.5322  -13.0591   16.8087 C   0  0  0  0  0  0  0  0  0  0  0  0
    7.9407  -14.1324   17.7655 C   0  0  0  0  0  0  0  0  0  0  0  0
    7.7980  -13.7059   19.2360 C   0  0  2  0  0  0  0  0  0  0  0  0
    8.8470  -12.6271   19.4125 C   0  0  0  0  0  0  0  0  0  0  0  0
    7.9882  -14.8313   20.1588 C   0  0  2  0  0  0  0  0  0  0  0  0
    7.1770  -15.9853   19.7394 N   0  0  0  0  0  0  0  0  0  0  0  0
    7.8669  -14.6402   21.5870 C   0  0  0  0  0  0  0  0  0  0  0  0
    7.4291  -13.4932   21.9896 O   0  0  0  0  0  0  0  0  0  0  0  0
    8.1544  -15.5249   22.6279 N   0  0  0  0  0  0  0  0  0  0  0  0
    8.4789  -15.0821   23.9944 C   0  0  1  0  0  0  0  0  0  0  0  0
    7.1722  -14.8200   24.6521 C   0  0  0  0  0  0  0  0  0  0  0  0
    7.1906  -13.9729   25.8324 C   0  0  0  0  0  0  0  0  0  0  0  0
    6.6806  -12.6940   25.9169 C   0  0  0  0  0  0  0  0  0  0  0  0
    6.7425  -11.9604   27.0925 C   0  0  0  0  0  0  0  0  0  0  0  0
    7.3257  -12.4993   28.2280 C   0  0  0  0  0  0  0  0  0  0  0  0
    7.8357  -13.7776   28.1443 C   0  0  0  0  0  0  0  0  0  0  0  0
    7.7664  -14.4865   26.9782 C   0  0  0  0  0  0  0  0  0  0  0  0
    9.2497  -16.1772   24.6271 C   0  0  0  0  0  0  0  0  0  0  0  0
    8.7638  -17.3380   24.7826 O   0  0  0  0  0  0  0  0  0  0  0  0
   12.8294  -16.8545   25.2981 C   0  0  0  0  0  0  0  0  0  0  0  0
   11.3835  -17.0768   25.6145 C   0  0  2  0  0  0  0  0  0  0  0  0
   10.5769  -15.9857   25.0953 N   0  0  0  0  0  0  0  0  0  0  0  0
   11.1609  -17.2401   27.0749 C   0  0  0  0  0  0  0  0  0  0  0  0
   10.3289  -16.3952   27.7784 O   0  0  0  0  0  0  0  0  0  0  0  0
   11.7442  -18.1660   27.6711 O   0  0  0  0  0  0  0  0  0  0  0  0
  2  3  1  0
  2  1  1  0
  3  5  1  0
  3  4  1  1
  5  7  1  0
  5  6  1  6
  7  8  2  0
  9 10  1  0
  9  7  1  0
 10 11  1  1
 11 12  1  0
 12 17  2  0
 13 14  2  0
 13 12  1  0
 14 15  1  0
 15 16  2  0
 17 16  1  0
 18 10  1  0
 19 18  2  0
 21 20  1  1
 21 22  1  0
 22 18  1  0
 23 21  1  0
 23 24  1  0
 25 23  2  0
M  END
$$$$
