IFA.pdb
     RDKit          3D

 25 25  0  0  1  0  0  0  0  0999 V2000
   10.5432  -20.9218   19.8638 C   0  0  0  0  0  0  0  0  0  0  0  0
    9.6701  -19.7111   19.7839 C   0  0  0  0  0  0  0  0  0  0  0  0
    9.9596  -18.6927   20.8990 C   0  0  2  0  0  0  0  0  0  0  0  0
    9.7679  -19.4803   22.1790 C   0  0  0  0  0  0  0  0  0  0  0  0
    9.0771  -17.5225   20.8215 C   0  0  2  0  0  0  0  0  0  0  0  0
    9.1010  -16.9470   19.4674 N   0  0  0  0  0  0  0  0  0  0  0  0
    9.1681  -16.4660   21.8047 C   0  0  0  0  0  0  0  0  0  0  0  0
   10.1175  -15.6031   21.6512 O   0  0  0  0  0  0  0  0  0  0  0  0
    8.3686  -16.2238   22.9231 N   0  0  0  0  0  0  0  0  0  0  0  0
    8.5739  -15.0794   23.8269 C   0  0  1  0  0  0  0  0  0  0  0  0
    7.2197  -14.6993   24.3068 C   0  0  0  0  0  0  0  0  0  0  0  0
    7.1489  -13.6391   25.2978 C   0  0  0  0  0  0  0  0  0  0  0  0
    7.5130  -12.3234   25.1006 C   0  0  0  0  0  0  0  0  0  0  0  0
    7.4074  -11.3782   26.1104 C   0  0  0  0  0  0  0  0  0  0  0  0
    6.9273  -11.7348   27.3602 C   0  0  0  0  0  0  0  0  0  0  0  0
    6.5631  -13.0499   27.5582 C   0  0  0  0  0  0  0  0  0  0  0  0
    6.6735  -13.9683   26.5524 C   0  0  0  0  0  0  0  0  0  0  0  0
    9.4747  -15.5436   24.9070 C   0  0  0  0  0  0  0  0  0  0  0  0
   10.0395  -14.7356   25.7045 O   0  0  0  0  0  0  0  0  0  0  0  0
   11.8850  -16.4339   26.1555 C   0  0  0  0  0  0  0  0  0  0  0  0
   10.7296  -17.3825   26.0822 C   0  0  2  0  0  0  0  0  0  0  0  0
    9.7556  -16.9213   25.1079 N   0  0  0  0  0  0  0  0  0  0  0  0
   10.0895  -17.5702   27.4103 C   0  0  0  0  0  0  0  0  0  0  0  0
    8.7607  -17.2688   27.6216 O   0  0  0  0  0  0  0  0  0  0  0  0
   10.7773  -18.0113   28.3512 O   0  0  0  0  0  0  0  0  0  0  0  0
  2  3  1  0
  2  1  1  0
  3  5  1  0
  3  4  1  1
  5  7  1  0
  5  6  1  6
  7  8  2  0
  9 10  1  0
  9  7  1  0
 10 11  1  1
 11 12  1  0
 12 17  2  0
 13 14  2  0
 13 12  1  0
 14 15  1  0
 15 16  2  0
 17 16  1  0
 18 10  1  0
 19 18  2  0
 21 20  1  1
 21 22  1  0
 22 18  1  0
 23 21  1  0
 23 24  1  0
 25 23  2  0
M  END
$$$$
