IFA.pdb
     RDKit          3D

 25 25  0  0  1  0  0  0  0  0999 V2000
    8.1501  -19.4650   18.0888 C   0  0  0  0  0  0  0  0  0  0  0  0
    7.6487  -18.0955   18.4167 C   0  0  0  0  0  0  0  0  0  0  0  0
    8.3094  -17.5037   19.6728 C   0  0  2  0  0  0  0  0  0  0  0  0
    8.0482  -18.5364   20.7502 C   0  0  0  0  0  0  0  0  0  0  0  0
    7.7643  -16.1846   20.0146 C   0  0  2  0  0  0  0  0  0  0  0  0
    7.8635  -15.2715   18.8648 N   0  0  0  0  0  0  0  0  0  0  0  0
    8.1859  -15.5037   21.2187 C   0  0  0  0  0  0  0  0  0  0  0  0
    9.2369  -14.7572   21.1322 O   0  0  0  0  0  0  0  0  0  0  0  0
    7.6194  -15.5251   22.4944 N   0  0  0  0  0  0  0  0  0  0  0  0
    8.0364  -14.6165   23.5758 C   0  0  1  0  0  0  0  0  0  0  0  0
    6.8104  -14.3533   24.3735 C   0  0  0  0  0  0  0  0  0  0  0  0
    6.9495  -13.4661   25.5158 C   0  0  0  0  0  0  0  0  0  0  0  0
    7.5393  -13.7869   26.7207 C   0  0  0  0  0  0  0  0  0  0  0  0
    7.6280  -12.8688   27.7567 C   0  0  0  0  0  0  0  0  0  0  0  0
    7.1201  -11.5884   27.6072 C   0  0  0  0  0  0  0  0  0  0  0  0
    6.5303  -11.2669   26.4030 C   0  0  0  0  0  0  0  0  0  0  0  0
    6.4514  -12.1835   25.3927 C   0  0  0  0  0  0  0  0  0  0  0  0
    9.0975  -15.3157   24.3366 C   0  0  0  0  0  0  0  0  0  0  0  0
    9.7707  -14.7341   25.2401 O   0  0  0  0  0  0  0  0  0  0  0  0
   11.7914  -16.8013   24.5715 C   0  0  0  0  0  0  0  0  0  0  0  0
   10.4404  -17.3820   24.8506 C   0  0  2  0  0  0  0  0  0  0  0  0
    9.4194  -16.6778   24.0943 N   0  0  0  0  0  0  0  0  0  0  0  0
   10.1229  -17.3583   26.3023 C   0  0  0  0  0  0  0  0  0  0  0  0
    9.0315  -16.6732   26.7926 O   0  0  0  0  0  0  0  0  0  0  0  0
   10.8664  -17.9752   27.0896 O   0  0  0  0  0  0  0  0  0  0  0  0
  2  3  1  0
  2  1  1  0
  3  5  1  0
  3  4  1  1
  5  7  1  0
  5  6  1  6
  7  8  2  0
  9 10  1  0
  9  7  1  0
 10 11  1  1
 11 12  1  0
 12 17  2  0
 13 14  2  0
 13 12  1  0
 14 15  1  0
 15 16  2  0
 17 16  1  0
 18 10  1  0
 19 18  2  0
 21 20  1  1
 21 22  1  0
 22 18  1  0
 23 21  1  0
 23 24  1  0
 25 23  2  0
M  END
$$$$
