IFA.pdb
     RDKit          3D

 25 25  0  0  1  0  0  0  0  0999 V2000
    7.8232  -11.7433   19.9754 C   0  0  0  0  0  0  0  0  0  0  0  0
    7.6295  -12.9598   20.8221 C   0  0  0  0  0  0  0  0  0  0  0  0
    8.4439  -14.1665   20.3270 C   0  0  2  0  0  0  0  0  0  0  0  0
    7.8563  -14.4767   18.9654 C   0  0  0  0  0  0  0  0  0  0  0  0
    8.3595  -15.3057   21.2485 C   0  0  2  0  0  0  0  0  0  0  0  0
    6.9995  -15.8679   21.2508 N   0  0  0  0  0  0  0  0  0  0  0  0
    8.8448  -15.1917   22.6059 C   0  0  0  0  0  0  0  0  0  0  0  0
    9.8775  -14.4391   22.7975 O   0  0  0  0  0  0  0  0  0  0  0  0
    8.3589  -15.7813   23.7742 N   0  0  0  0  0  0  0  0  0  0  0  0
    8.9856  -15.5906   25.0931 C   0  0  1  0  0  0  0  0  0  0  0  0
    7.8628  -15.3838   26.0446 C   0  0  0  0  0  0  0  0  0  0  0  0
    7.3551  -14.0287   26.1750 C   0  0  0  0  0  0  0  0  0  0  0  0
    6.0545  -13.6280   25.9497 C   0  0  0  0  0  0  0  0  0  0  0  0
    5.6615  -12.3066   26.1027 C   0  0  0  0  0  0  0  0  0  0  0  0
    6.5764  -11.3412   26.4910 C   0  0  0  0  0  0  0  0  0  0  0  0
    7.8767  -11.7408   26.7165 C   0  0  0  0  0  0  0  0  0  0  0  0
    8.2469  -13.0469   26.5611 C   0  0  0  0  0  0  0  0  0  0  0  0
    9.7780  -16.8106   25.3706 C   0  0  0  0  0  0  0  0  0  0  0  0
   10.1917  -17.0926   26.5355 O   0  0  0  0  0  0  0  0  0  0  0  0
   10.6823  -19.9273   23.4886 C   0  0  0  0  0  0  0  0  0  0  0  0
   10.8602  -18.9527   24.6105 C   0  0  2  0  0  0  0  0  0  0  0  0
   10.1185  -17.7322   24.3448 N   0  0  0  0  0  0  0  0  0  0  0  0
   12.2951  -18.6488   24.8502 C   0  0  0  0  0  0  0  0  0  0  0  0
   13.1755  -19.6153   25.2884 O   0  0  0  0  0  0  0  0  0  0  0  0
   12.7051  -17.4895   24.6478 O   0  0  0  0  0  0  0  0  0  0  0  0
  2  3  1  0
  2  1  1  0
  3  5  1  0
  3  4  1  6
  5  7  1  0
  5  6  1  1
  7  8  2  0
  9 10  1  0
  9  7  1  0
 10 11  1  1
 11 12  1  0
 12 17  2  0
 13 14  2  0
 13 12  1  0
 14 15  1  0
 15 16  2  0
 17 16  1  0
 18 10  1  0
 19 18  2  0
 21 20  1  6
 21 22  1  0
 22 18  1  0
 23 21  1  0
 23 24  1  0
 25 23  2  0
M  END
$$$$
