PET.pdb
     RDKit          3D

 24 24  0  0  1  0  0  0  0  0999 V2000
   19.8130  -12.5166  -15.8372 N   0  0  0  0  0  0  0  0  0  0  0  0
   19.9782  -13.8802  -16.3879 C   0  0  0  0  0  0  0  0  0  0  0  0
   19.6916  -13.6390  -17.8502 C   0  0  0  0  0  0  0  0  0  0  0  0
   20.3750  -12.3239  -18.1138 C   0  0  0  0  0  0  0  0  0  0  0  0
   20.6482  -11.7491  -16.7367 C   0  0  1  0  0  0  0  0  0  0  0  0
   20.3018  -10.3286  -16.7439 C   0  0  0  0  0  0  0  0  0  0  0  0
   21.0340   -9.5403  -17.4242 O   0  0  0  0  0  0  0  0  0  0  0  0
   19.2082   -9.7704  -16.0456 N   0  0  0  0  0  0  0  0  0  0  0  0
   18.8756   -8.3594  -16.2024 C   0  0  1  0  0  0  0  0  0  0  0  0
   17.3763   -8.1636  -16.2248 C   0  0  0  0  0  0  0  0  0  0  0  0
   16.9928   -6.7305  -16.4984 C   0  0  0  0  0  0  0  0  0  0  0  0
   15.5091   -6.6496  -16.4612 C   0  0  0  0  0  0  0  0  0  0  0  0
   14.8959   -5.5321  -16.5292 O   0  0  0  0  0  0  0  0  0  0  0  0
   19.5337   -7.5315  -15.1728 C   0  0  0  0  0  0  0  0  0  0  0  0
   19.6118   -7.8758  -13.9670 O   0  0  0  0  0  0  0  0  0  0  0  0
   14.6944   -7.7709  -16.3512 O   0  0  0  0  0  0  0  0  0  0  0  0
   22.9692   -4.4010  -14.0305 C   0  0  0  0  0  0  0  0  0  0  0  0
   22.2203   -5.3594  -14.9069 C   0  0  1  0  0  0  0  0  0  0  0  0
   22.7154   -6.6414  -14.7516 O   0  0  0  0  0  0  0  0  0  0  0  0
   20.7389   -5.4023  -14.5875 C   0  0  2  0  0  0  0  0  0  0  0  0
   20.1153   -6.2846  -15.5247 N   0  0  0  0  0  0  0  0  0  0  0  0
   20.1345   -4.0763  -14.5144 C   0  0  0  0  0  0  0  0  0  0  0  0
   19.9576   -3.4496  -13.2961 O   0  0  0  0  0  0  0  0  0  0  0  0
   19.7699   -3.4938  -15.5597 O   0  0  0  0  0  0  0  0  0  0  0  0
  1  2  1  0
  3  2  1  0
  4  3  1  0
  5  4  1  0
  5  1  1  0
  5  6  1  6
  7  6  2  0
  8  6  1  0
  9 14  1  0
  9  8  1  0
  9 10  1  1
 11 10  1  0
 12 11  1  0
 13 12  2  0
 14 15  2  0
 16 12  1  0
 18 17  1  1
 18 19  1  0
 18 20  1  0
 20 21  1  6
 21 14  1  0
 22 20  1  0
 22 23  1  0
 24 22  2  0
M  END
$$$$
