PET.pdb
     RDKit          3D

 24 24  0  0  1  0  0  0  0  0999 V2000
   23.8837    3.1556   -9.6187 N   0  0  0  0  0  0  0  0  0  0  0  0
   23.8188    2.5147  -10.9510 C   0  0  0  0  0  0  0  0  0  0  0  0
   25.1833    1.8739  -11.0313 C   0  0  0  0  0  0  0  0  0  0  0  0
   25.3897    1.3479   -9.6361 C   0  0  0  0  0  0  0  0  0  0  0  0
   24.3377    2.0515   -8.7997 C   0  0  1  0  0  0  0  0  0  0  0  0
   24.9531    2.4995   -7.5513 C   0  0  0  0  0  0  0  0  0  0  0  0
   25.3416    3.7095   -7.4792 O   0  0  0  0  0  0  0  0  0  0  0  0
   25.1468    1.6792   -6.4178 N   0  0  0  0  0  0  0  0  0  0  0  0
   25.7960    2.2104   -5.2251 C   0  0  1  0  0  0  0  0  0  0  0  0
   25.2772    1.5212   -3.9831 C   0  0  0  0  0  0  0  0  0  0  0  0
   25.8925    2.0781   -2.7233 C   0  0  0  0  0  0  0  0  0  0  0  0
   25.4272    1.2376   -1.5890 C   0  0  0  0  0  0  0  0  0  0  0  0
   24.7575    0.1674   -1.7772 O   0  0  0  0  0  0  0  0  0  0  0  0
   27.2663    2.1390   -5.3331 C   0  0  0  0  0  0  0  0  0  0  0  0
   27.8811    1.0740   -5.5910 O   0  0  0  0  0  0  0  0  0  0  0  0
   25.6850    1.5535   -0.2598 O   0  0  0  0  0  0  0  0  0  0  0  0
   29.3839    3.7980   -7.7057 C   0  0  0  0  0  0  0  0  0  0  0  0
   29.8472    4.2835   -6.3651 C   0  0  1  0  0  0  0  0  0  0  0  0
   29.2763    5.5089   -6.0732 O   0  0  0  0  0  0  0  0  0  0  0  0
   29.4794    3.3319   -5.2438 C   0  0  2  0  0  0  0  0  0  0  0  0
   28.0529    3.3060   -5.1431 N   0  0  0  0  0  0  0  0  0  0  0  0
   30.1661    3.6350   -3.9927 C   0  0  0  0  0  0  0  0  0  0  0  0
   31.5343    3.4769   -3.8846 O   0  0  0  0  0  0  0  0  0  0  0  0
   29.5181    4.0424   -3.0032 O   0  0  0  0  0  0  0  0  0  0  0  0
  1  2  1  0
  3  2  1  0
  4  3  1  0
  5  4  1  0
  5  1  1  0
  5  6  1  1
  7  6  2  0
  8  6  1  0
  9 14  1  0
  9  8  1  0
  9 10  1  1
 11 10  1  0
 12 11  1  0
 13 12  2  0
 14 15  2  0
 16 12  1  0
 18 17  1  6
 18 19  1  0
 18 20  1  0
 20 21  1  1
 21 14  1  0
 22 20  1  0
 22 23  1  0
 24 22  2  0
M  END
$$$$
