PET.pdb
     RDKit          3D

 24 24  0  0  1  0  0  0  0  0999 V2000
   28.2343  -20.1656   -8.5553 N   0  0  0  0  0  0  0  0  0  0  0  0
   28.2591  -20.0994   -7.0772 C   0  0  0  0  0  0  0  0  0  0  0  0
   26.9923  -19.3266   -6.8003 C   0  0  0  0  0  0  0  0  0  0  0  0
   26.0226  -19.9035   -7.7967 C   0  0  0  0  0  0  0  0  0  0  0  0
   26.8910  -20.6516   -8.7905 C   0  0  1  0  0  0  0  0  0  0  0  0
   26.4194  -20.3550  -10.1423 C   0  0  0  0  0  0  0  0  0  0  0  0
   26.9202  -19.3493  -10.7408 O   0  0  0  0  0  0  0  0  0  0  0  0
   25.4435  -21.1095  -10.8305 N   0  0  0  0  0  0  0  0  0  0  0  0
   25.0983  -20.7860  -12.2097 C   0  0  1  0  0  0  0  0  0  0  0  0
   25.6997  -21.7956  -13.1615 C   0  0  0  0  0  0  0  0  0  0  0  0
   25.4738  -21.4223  -14.6056 C   0  0  0  0  0  0  0  0  0  0  0  0
   26.0942  -22.4816  -15.4436 C   0  0  0  0  0  0  0  0  0  0  0  0
   27.3025  -22.8541  -15.2686 O   0  0  0  0  0  0  0  0  0  0  0  0
   23.6389  -20.6514  -12.3841 C   0  0  0  0  0  0  0  0  0  0  0  0
   22.8068  -21.1601  -11.5920 O   0  0  0  0  0  0  0  0  0  0  0  0
   25.4114  -23.1334  -16.4644 O   0  0  0  0  0  0  0  0  0  0  0  0
   20.1482  -18.7221  -15.3998 C   0  0  0  0  0  0  0  0  0  0  0  0
   21.5790  -19.0132  -15.0594 C   0  0  1  0  0  0  0  0  0  0  0  0
   22.2852  -17.8348  -14.8997 O   0  0  0  0  0  0  0  0  0  0  0  0
   21.7207  -19.8059  -13.7749 C   0  0  2  0  0  0  0  0  0  0  0  0
   23.1164  -19.9213  -13.4845 N   0  0  0  0  0  0  0  0  0  0  0  0
   21.0055  -21.0771  -13.8096 C   0  0  0  0  0  0  0  0  0  0  0  0
   19.7943  -21.2212  -13.1609 O   0  0  0  0  0  0  0  0  0  0  0  0
   21.4859  -22.0514  -14.4301 O   0  0  0  0  0  0  0  0  0  0  0  0
  1  2  1  0
  3  2  1  0
  4  3  1  0
  5  4  1  0
  5  1  1  0
  5  6  1  6
  7  6  2  0
  8  6  1  0
  9 14  1  0
  9  8  1  0
  9 10  1  6
 11 10  1  0
 12 11  1  0
 13 12  2  0
 14 15  2  0
 16 12  1  0
 18 17  1  1
 18 19  1  0
 18 20  1  0
 20 21  1  6
 21 14  1  0
 22 20  1  0
 22 23  1  0
 24 22  2  0
M  END
$$$$
