KDL.pdb
     RDKit          3D

 26 25  0  0  1  0  0  0  0  0999 V2000
   10.0804  -14.0710   19.0762 N   0  0  0  0  0  0  0  0  0  0  0  0
    9.0135  -13.5009   19.8731 C   0  0  1  0  0  0  0  0  0  0  0  0
    7.7683  -13.2257   19.0625 C   0  0  0  0  0  0  0  0  0  0  0  0
    7.5837  -14.1362   17.8989 C   0  0  0  0  0  0  0  0  0  0  0  0
    8.4224  -13.8524   16.6941 C   0  0  0  0  0  0  0  0  0  0  0  0
    8.0557  -14.8170   15.5724 C   0  0  0  0  0  0  0  0  0  0  0  0
    7.7298  -14.1004   14.3567 N   0  0  0  0  0  0  0  0  0  0  0  0
    8.6258  -14.4741   20.9151 C   0  0  0  0  0  0  0  0  0  0  0  0
    7.4587  -14.4879   21.3337 O   0  0  0  0  0  0  0  0  0  0  0  0
    9.5510  -15.3866   21.4445 N   0  0  0  0  0  0  0  0  0  0  0  0
    9.2954  -16.3385   22.4677 C   0  0  1  0  0  0  0  0  0  0  0  0
   10.1400  -17.5664   22.4360 C   0  0  0  0  0  0  0  0  0  0  0  0
    9.8712  -18.4030   21.2668 C   0  0  0  0  0  0  0  0  0  0  0  0
    8.6804  -18.6816   20.9244 O   0  0  0  0  0  0  0  0  0  0  0  0
    9.4323  -15.6918   23.7817 C   0  0  0  0  0  0  0  0  0  0  0  0
   10.5766  -15.2629   24.1639 O   0  0  0  0  0  0  0  0  0  0  0  0
   10.8740  -18.9351   20.4741 O   0  0  0  0  0  0  0  0  0  0  0  0
    7.8004  -11.9806   25.7786 C   0  0  0  0  0  0  0  0  0  0  0  0
    6.7799  -13.1072   25.7599 C   0  0  2  0  0  0  0  0  0  0  0  0
    5.4099  -12.6692   26.0855 C   0  0  0  0  0  0  0  0  0  0  0  0
    7.2669  -14.3244   26.4366 C   0  0  0  0  0  0  0  0  0  0  0  0
    8.5756  -14.9074   26.0363 C   0  0  2  0  0  0  0  0  0  0  0  0
    8.3681  -15.4985   24.6878 N   0  0  0  0  0  0  0  0  0  0  0  0
    9.0441  -16.0194   26.8770 C   0  0  0  0  0  0  0  0  0  0  0  0
    8.9132  -17.2419   26.6134 O   0  0  0  0  0  0  0  0  0  0  0  0
    9.7080  -15.7741   28.1020 O   0  0  0  0  0  0  0  0  0  0  0  0
  2  1  1  6
  2  3  1  0
  3  4  1  0
  5  4  1  0
  6  7  1  0
  6  5  1  0
  8  2  1  0
  8  9  2  0
 10  8  1  0
 11 10  1  0
 11 12  1  1
 13 12  1  0
 13 17  1  0
 14 13  2  0
 15 11  1  0
 16 15  2  0
 19 18  1  1
 19 21  1  0
 20 19  1  0
 22 21  1  1
 22 23  1  0
 23 15  1  0
 24 22  1  0
 25 24  2  0
 26 24  1  0
M  END
$$$$
