KDL.pdb
     RDKit          3D

 26 25  0  0  1  0  0  0  0  0999 V2000
   10.1876  -13.5743   19.7650 N   0  0  0  0  0  0  0  0  0  0  0  0
    8.8203  -13.4409   20.2244 C   0  0  1  0  0  0  0  0  0  0  0  0
    7.8143  -13.6334   19.1136 C   0  0  0  0  0  0  0  0  0  0  0  0
    8.4167  -13.7397   17.7560 C   0  0  0  0  0  0  0  0  0  0  0  0
    7.4606  -13.7999   16.6081 C   0  0  0  0  0  0  0  0  0  0  0  0
    8.2340  -13.8512   15.2957 C   0  0  0  0  0  0  0  0  0  0  0  0
    7.3339  -13.9560   14.1660 N   0  0  0  0  0  0  0  0  0  0  0  0
    8.5480  -14.4973   21.2210 C   0  0  0  0  0  0  0  0  0  0  0  0
    7.4353  -14.5507   21.7656 O   0  0  0  0  0  0  0  0  0  0  0  0
    9.5229  -15.4453   21.5670 N   0  0  0  0  0  0  0  0  0  0  0  0
    9.4111  -16.4250   22.5899 C   0  0  1  0  0  0  0  0  0  0  0  0
   10.3577  -17.5726   22.4941 C   0  0  0  0  0  0  0  0  0  0  0  0
   10.0261  -18.6532   23.4223 C   0  0  0  0  0  0  0  0  0  0  0  0
    8.9949  -18.5852   24.1604 O   0  0  0  0  0  0  0  0  0  0  0  0
    9.5650  -15.7801   23.9028 C   0  0  0  0  0  0  0  0  0  0  0  0
   10.6565  -15.1758   24.1911 O   0  0  0  0  0  0  0  0  0  0  0  0
   10.7969  -19.7957   23.5552 O   0  0  0  0  0  0  0  0  0  0  0  0
    8.0970  -12.0722   26.2710 C   0  0  0  0  0  0  0  0  0  0  0  0
    7.0689  -13.1494   25.9648 C   0  0  2  0  0  0  0  0  0  0  0  0
    5.6752  -12.7089   26.1602 C   0  0  0  0  0  0  0  0  0  0  0  0
    7.4368  -14.4613   26.5308 C   0  0  0  0  0  0  0  0  0  0  0  0
    8.7589  -15.0553   26.1957 C   0  0  2  0  0  0  0  0  0  0  0  0
    8.5733  -15.7726   24.9065 N   0  0  0  0  0  0  0  0  0  0  0  0
    9.2389  -16.0761   27.1394 C   0  0  0  0  0  0  0  0  0  0  0  0
    9.7894  -15.8481   28.2467 O   0  0  0  0  0  0  0  0  0  0  0  0
    9.1058  -17.4542   26.8483 O   0  0  0  0  0  0  0  0  0  0  0  0
  2  1  1  6
  2  3  1  0
  3  4  1  0
  5  4  1  0
  6  7  1  0
  6  5  1  0
  8  2  1  0
  8  9  2  0
 10  8  1  0
 11 10  1  0
 11 12  1  6
 13 12  1  0
 13 17  1  0
 14 13  2  0
 15 11  1  0
 16 15  2  0
 19 18  1  1
 19 21  1  0
 20 19  1  0
 22 21  1  1
 22 23  1  0
 23 15  1  0
 24 22  1  0
 25 24  2  0
 26 24  1  0
M  END
$$$$
