KDL.pdb
     RDKit          3D

 26 25  0  0  1  0  0  0  0  0999 V2000
    5.8056  -16.8370   21.2037 N   0  0  0  0  0  0  0  0  0  0  0  0
    7.1188  -16.2665   21.4240 C   0  0  1  0  0  0  0  0  0  0  0  0
    7.1007  -14.7556   21.4297 C   0  0  0  0  0  0  0  0  0  0  0  0
    7.3823  -14.1367   20.1050 C   0  0  0  0  0  0  0  0  0  0  0  0
    8.2679  -12.9320   20.1097 C   0  0  0  0  0  0  0  0  0  0  0  0
    8.3241  -12.3286   18.7112 C   0  0  0  0  0  0  0  0  0  0  0  0
    9.0099  -11.0530   18.7229 N   0  0  0  0  0  0  0  0  0  0  0  0
    7.6006  -16.6825   22.7575 C   0  0  0  0  0  0  0  0  0  0  0  0
    6.7903  -16.8077   23.6877 O   0  0  0  0  0  0  0  0  0  0  0  0
    8.9590  -16.9402   22.9969 N   0  0  0  0  0  0  0  0  0  0  0  0
    9.5326  -17.3152   24.2415 C   0  0  1  0  0  0  0  0  0  0  0  0
   10.7661  -18.1482   24.1616 C   0  0  0  0  0  0  0  0  0  0  0  0
   11.1923  -18.6478   25.4685 C   0  0  0  0  0  0  0  0  0  0  0  0
   12.4098  -18.5866   25.8245 O   0  0  0  0  0  0  0  0  0  0  0  0
    9.8153  -16.1079   25.0325 C   0  0  0  0  0  0  0  0  0  0  0  0
   10.7486  -15.3112   24.6665 O   0  0  0  0  0  0  0  0  0  0  0  0
   10.3170  -19.2081   26.3834 O   0  0  0  0  0  0  0  0  0  0  0  0
    8.1676  -12.3609   25.4092 C   0  0  0  0  0  0  0  0  0  0  0  0
    7.4255  -13.3289   26.3165 C   0  0  2  0  0  0  0  0  0  0  0  0
    6.0810  -12.8631   26.7040 C   0  0  0  0  0  0  0  0  0  0  0  0
    8.2796  -13.8639   27.3940 C   0  0  0  0  0  0  0  0  0  0  0  0
    9.5314  -14.5862   27.0416 C   0  0  2  0  0  0  0  0  0  0  0  0
    9.1177  -15.7425   26.2034 N   0  0  0  0  0  0  0  0  0  0  0  0
   10.2517  -15.1740   28.1811 C   0  0  0  0  0  0  0  0  0  0  0  0
   10.3105  -16.3996   28.4566 O   0  0  0  0  0  0  0  0  0  0  0  0
   10.9637  -14.3565   29.0901 O   0  0  0  0  0  0  0  0  0  0  0  0
  2  1  1  1
  2  3  1  0
  3  4  1  0
  5  4  1  0
  6  7  1  0
  6  5  1  0
  8  2  1  0
  8  9  2  0
 10  8  1  0
 11 10  1  0
 11 12  1  6
 13 12  1  0
 13 17  1  0
 14 13  2  0
 15 11  1  0
 16 15  2  0
 19 18  1  1
 19 21  1  0
 20 19  1  0
 22 21  1  1
 22 23  1  0
 23 15  1  0
 24 22  1  0
 25 24  2  0
 26 24  1  0
M  END
$$$$
