KDL.pdb
     RDKit          3D

 26 25  0  0  1  0  0  0  0  0999 V2000
    6.2043  -16.6039   20.2434 N   0  0  0  0  0  0  0  0  0  0  0  0
    7.5191  -16.0165   20.4009 C   0  0  1  0  0  0  0  0  0  0  0  0
    7.4837  -14.5059   20.3926 C   0  0  0  0  0  0  0  0  0  0  0  0
    7.1251  -13.9109   19.0756 C   0  0  0  0  0  0  0  0  0  0  0  0
    8.2572  -13.6511   18.1340 C   0  0  0  0  0  0  0  0  0  0  0  0
    7.7351  -12.9629   16.8783 C   0  0  0  0  0  0  0  0  0  0  0  0
    8.7859  -12.8136   15.8927 N   0  0  0  0  0  0  0  0  0  0  0  0
    8.0630  -16.4134   21.7162 C   0  0  0  0  0  0  0  0  0  0  0  0
    7.2843  -16.6823   22.6429 O   0  0  0  0  0  0  0  0  0  0  0  0
    9.4456  -16.4933   21.9422 N   0  0  0  0  0  0  0  0  0  0  0  0
   10.0738  -16.9665   23.1254 C   0  0  1  0  0  0  0  0  0  0  0  0
   11.4745  -17.4507   22.9660 C   0  0  0  0  0  0  0  0  0  0  0  0
   12.0100  -18.0358   24.1949 C   0  0  0  0  0  0  0  0  0  0  0  0
   11.2407  -18.3572   25.1529 O   0  0  0  0  0  0  0  0  0  0  0  0
   10.0406  -15.9127   24.1510 C   0  0  0  0  0  0  0  0  0  0  0  0
   10.5930  -14.7811   23.9189 O   0  0  0  0  0  0  0  0  0  0  0  0
   13.3600  -18.2724   24.3912 O   0  0  0  0  0  0  0  0  0  0  0  0
    6.1362  -12.9250   27.0213 C   0  0  0  0  0  0  0  0  0  0  0  0
    7.6407  -13.1424   27.0213 C   0  0  2  0  0  0  0  0  0  0  0  0
    8.4184  -11.8939   26.9163 C   0  0  0  0  0  0  0  0  0  0  0  0
    8.0523  -14.2573   26.1469 C   0  0  0  0  0  0  0  0  0  0  0  0
    9.3580  -14.9284   26.3865 C   0  0  2  0  0  0  0  0  0  0  0  0
    9.4284  -16.0515   25.4147 N   0  0  0  0  0  0  0  0  0  0  0  0
    9.5019  -15.5539   27.7098 C   0  0  0  0  0  0  0  0  0  0  0  0
    9.1282  -16.7150   28.0152 O   0  0  0  0  0  0  0  0  0  0  0  0
   10.1021  -14.8536   28.7826 O   0  0  0  0  0  0  0  0  0  0  0  0
  2  1  1  1
  2  3  1  0
  3  4  1  0
  5  4  1  0
  6  7  1  0
  6  5  1  0
  8  2  1  0
  8  9  2  0
 10  8  1  0
 11 10  1  0
 11 12  1  6
 13 12  1  0
 13 17  1  0
 14 13  2  0
 15 11  1  0
 16 15  2  0
 19 18  1  6
 19 21  1  0
 20 19  1  0
 22 21  1  1
 22 23  1  0
 23 15  1  0
 24 22  1  0
 25 24  2  0
 26 24  1  0
M  END
$$$$
