KDL.pdb
     RDKit          3D

 26 25  0  0  1  0  0  0  0  0999 V2000
    9.4116  -15.1506   19.4955 N   0  0  0  0  0  0  0  0  0  0  0  0
    8.8353  -14.2069   20.4314 C   0  0  1  0  0  0  0  0  0  0  0  0
    7.4238  -13.8135   20.0625 C   0  0  0  0  0  0  0  0  0  0  0  0
    7.2783  -13.2913   18.6756 C   0  0  0  0  0  0  0  0  0  0  0  0
    7.9139  -14.1009   17.5911 C   0  0  0  0  0  0  0  0  0  0  0  0
    7.5596  -13.5095   16.2318 C   0  0  0  0  0  0  0  0  0  0  0  0
    7.9297  -14.4111   15.1605 N   0  0  0  0  0  0  0  0  0  0  0  0
    8.7560  -14.8446   21.7619 C   0  0  0  0  0  0  0  0  0  0  0  0
    7.8482  -14.5195   22.5416 O   0  0  0  0  0  0  0  0  0  0  0  0
    9.6875  -15.8131   22.1657 N   0  0  0  0  0  0  0  0  0  0  0  0
    9.6130  -16.6063   23.3422 C   0  0  1  0  0  0  0  0  0  0  0  0
   10.5454  -17.7677   23.4006 C   0  0  0  0  0  0  0  0  0  0  0  0
   10.4696  -18.6096   22.2070 C   0  0  0  0  0  0  0  0  0  0  0  0
   11.4738  -18.7480   21.4420 O   0  0  0  0  0  0  0  0  0  0  0  0
    9.8293  -15.7532   24.5207 C   0  0  0  0  0  0  0  0  0  0  0  0
   10.9337  -15.1190   24.6534 O   0  0  0  0  0  0  0  0  0  0  0  0
    9.3243  -19.2956   21.8399 O   0  0  0  0  0  0  0  0  0  0  0  0
    8.5723  -11.9190   25.8135 C   0  0  0  0  0  0  0  0  0  0  0  0
    7.5179  -12.9760   26.0997 C   0  0  2  0  0  0  0  0  0  0  0  0
    6.1662  -12.4226   26.3032 C   0  0  0  0  0  0  0  0  0  0  0  0
    7.9765  -13.9849   27.0736 C   0  0  0  0  0  0  0  0  0  0  0  0
    9.1961  -14.7833   26.7770 C   0  0  2  0  0  0  0  0  0  0  0  0
    8.8861  -15.5702   25.5541 N   0  0  0  0  0  0  0  0  0  0  0  0
    9.5497  -15.7808   27.7981 C   0  0  0  0  0  0  0  0  0  0  0  0
    9.3254  -17.0159   27.7236 O   0  0  0  0  0  0  0  0  0  0  0  0
   10.2000  -15.3965   28.9944 O   0  0  0  0  0  0  0  0  0  0  0  0
  2  1  1  6
  2  3  1  0
  3  4  1  0
  5  4  1  0
  6  7  1  0
  6  5  1  0
  8  2  1  0
  8  9  2  0
 10  8  1  0
 11 10  1  0
 11 12  1  6
 13 12  1  0
 13 17  1  0
 14 13  2  0
 15 11  1  0
 16 15  2  0
 19 18  1  1
 19 21  1  0
 20 19  1  0
 22 21  1  1
 22 23  1  0
 23 15  1  0
 24 22  1  0
 25 24  2  0
 26 24  1  0
M  END
$$$$
