KDL.pdb
     RDKit          3D

 26 25  0  0  1  0  0  0  0  0999 V2000
    6.1128  -16.4211   21.1348 N   0  0  0  0  0  0  0  0  0  0  0  0
    7.5168  -16.0647   21.1515 C   0  0  1  0  0  0  0  0  0  0  0  0
    7.7373  -14.5732   21.0515 C   0  0  0  0  0  0  0  0  0  0  0  0
    7.7170  -14.0451   19.6594 C   0  0  0  0  0  0  0  0  0  0  0  0
    8.0727  -12.6026   19.4912 C   0  0  0  0  0  0  0  0  0  0  0  0
    7.8292  -12.1770   18.0481 C   0  0  0  0  0  0  0  0  0  0  0  0
    8.2977  -13.1875   17.1223 N   0  0  0  0  0  0  0  0  0  0  0  0
    8.0994  -16.4865   22.4422 C   0  0  0  0  0  0  0  0  0  0  0  0
    7.3493  -16.7470   23.3946 O   0  0  0  0  0  0  0  0  0  0  0  0
    9.4872  -16.5994   22.6164 N   0  0  0  0  0  0  0  0  0  0  0  0
   10.1465  -17.1332   23.7561 C   0  0  1  0  0  0  0  0  0  0  0  0
   11.5193  -17.6643   23.5209 C   0  0  0  0  0  0  0  0  0  0  0  0
   12.0867  -18.3006   24.7093 C   0  0  0  0  0  0  0  0  0  0  0  0
   11.4107  -19.1346   25.3879 O   0  0  0  0  0  0  0  0  0  0  0  0
   10.1981  -16.1120   24.8133 C   0  0  0  0  0  0  0  0  0  0  0  0
   11.0837  -15.1885   24.7635 O   0  0  0  0  0  0  0  0  0  0  0  0
   13.3689  -18.0419   25.1634 O   0  0  0  0  0  0  0  0  0  0  0  0
    8.4493  -12.4174   25.6720 C   0  0  0  0  0  0  0  0  0  0  0  0
    7.5777  -13.6156   26.0120 C   0  0  2  0  0  0  0  0  0  0  0  0
    6.1367  -13.3053   26.0541 C   0  0  0  0  0  0  0  0  0  0  0  0
    8.1191  -14.4113   27.1303 C   0  0  0  0  0  0  0  0  0  0  0  0
    9.4570  -15.0469   26.9925 C   0  0  2  0  0  0  0  0  0  0  0  0
    9.3207  -16.0649   25.9174 N   0  0  0  0  0  0  0  0  0  0  0  0
    9.9155  -15.7928   28.1741 C   0  0  0  0  0  0  0  0  0  0  0  0
   10.3025  -15.2833   29.2567 O   0  0  0  0  0  0  0  0  0  0  0  0
    9.9531  -17.2071   28.1706 O   0  0  0  0  0  0  0  0  0  0  0  0
  2  1  1  1
  2  3  1  0
  3  4  1  0
  5  4  1  0
  6  7  1  0
  6  5  1  0
  8  2  1  0
  8  9  2  0
 10  8  1  0
 11 10  1  0
 11 12  1  6
 13 12  1  0
 13 17  1  0
 14 13  2  0
 15 11  1  0
 16 15  2  0
 19 18  1  1
 19 21  1  0
 20 19  1  0
 22 21  1  1
 22 23  1  0
 23 15  1  0
 24 22  1  0
 25 24  2  0
 26 24  1  0
M  END
$$$$
