KDL.pdb
     RDKit          3D

 26 25  0  0  1  0  0  0  0  0999 V2000
    9.7046  -14.2406   19.2939 N   0  0  0  0  0  0  0  0  0  0  0  0
    8.6694  -13.7245   20.1659 C   0  0  1  0  0  0  0  0  0  0  0  0
    7.3563  -13.5181   19.4474 C   0  0  0  0  0  0  0  0  0  0  0  0
    7.4960  -13.2022   17.9990 C   0  0  0  0  0  0  0  0  0  0  0  0
    7.8464  -14.3451   17.1009 C   0  0  0  0  0  0  0  0  0  0  0  0
    7.8647  -13.8742   15.6514 C   0  0  0  0  0  0  0  0  0  0  0  0
    8.2565  -14.9476   14.7614 N   0  0  0  0  0  0  0  0  0  0  0  0
    8.4097  -14.7131   21.2330 C   0  0  0  0  0  0  0  0  0  0  0  0
    7.3181  -14.7038   21.8213 O   0  0  0  0  0  0  0  0  0  0  0  0
    9.3731  -15.6657   21.5980 N   0  0  0  0  0  0  0  0  0  0  0  0
    9.2583  -16.6093   22.6539 C   0  0  1  0  0  0  0  0  0  0  0  0
   10.1534  -17.7976   22.5610 C   0  0  0  0  0  0  0  0  0  0  0  0
    9.9397  -18.7486   23.6516 C   0  0  0  0  0  0  0  0  0  0  0  0
    8.8188  -19.3260   23.8027 O   0  0  0  0  0  0  0  0  0  0  0  0
    9.4852  -15.9329   23.9402 C   0  0  0  0  0  0  0  0  0  0  0  0
   10.6153  -15.3801   24.1780 O   0  0  0  0  0  0  0  0  0  0  0  0
   10.9225  -19.0746   24.5708 O   0  0  0  0  0  0  0  0  0  0  0  0
    8.4380  -12.0835   25.8797 C   0  0  0  0  0  0  0  0  0  0  0  0
    7.3427  -13.1308   25.7597 C   0  0  2  0  0  0  0  0  0  0  0  0
    5.9800  -12.5729   25.8406 C   0  0  0  0  0  0  0  0  0  0  0  0
    7.6176  -14.3336   26.5688 C   0  0  0  0  0  0  0  0  0  0  0  0
    8.8145  -15.1616   26.2613 C   0  0  2  0  0  0  0  0  0  0  0  0
    8.5254  -15.8402   24.9703 N   0  0  0  0  0  0  0  0  0  0  0  0
    9.0814  -16.2474   27.2166 C   0  0  0  0  0  0  0  0  0  0  0  0
    9.4610  -16.0990   28.4062 O   0  0  0  0  0  0  0  0  0  0  0  0
    8.9198  -17.6017   26.8404 O   0  0  0  0  0  0  0  0  0  0  0  0
  2  1  1  6
  2  3  1  0
  3  4  1  0
  5  4  1  0
  6  7  1  0
  6  5  1  0
  8  2  1  0
  8  9  2  0
 10  8  1  0
 11 10  1  0
 11 12  1  6
 13 12  1  0
 13 17  1  0
 14 13  2  0
 15 11  1  0
 16 15  2  0
 19 18  1  1
 19 21  1  0
 20 19  1  0
 22 21  1  1
 22 23  1  0
 23 15  1  0
 24 22  1  0
 25 24  2  0
 26 24  1  0
M  END
$$$$
