KDL.pdb
     RDKit          3D

 26 25  0  0  1  0  0  0  0  0999 V2000
    7.6543  -16.4545   20.4697 N   0  0  0  0  0  0  0  0  0  0  0  0
    7.5884  -17.6509   21.2839 C   0  0  1  0  0  0  0  0  0  0  0  0
    7.6613  -18.9163   20.4613 C   0  0  0  0  0  0  0  0  0  0  0  0
    6.9857  -18.8236   19.1375 C   0  0  0  0  0  0  0  0  0  0  0  0
    6.9872  -20.0642   18.3030 C   0  0  0  0  0  0  0  0  0  0  0  0
    6.2756  -19.7971   16.9819 C   0  0  0  0  0  0  0  0  0  0  0  0
    6.2280  -20.9931   16.1664 N   0  0  0  0  0  0  0  0  0  0  0  0
    8.7557  -17.6749   22.1896 C   0  0  0  0  0  0  0  0  0  0  0  0
    8.9495  -18.6657   22.9096 O   0  0  0  0  0  0  0  0  0  0  0  0
    9.6535  -16.5985   22.2546 N   0  0  0  0  0  0  0  0  0  0  0  0
   10.8028  -16.5169   23.0858 C   0  0  1  0  0  0  0  0  0  0  0  0
   11.9304  -15.6998   22.5538 C   0  0  0  0  0  0  0  0  0  0  0  0
   12.5832  -16.3247   21.4037 C   0  0  0  0  0  0  0  0  0  0  0  0
   12.6128  -17.5881   21.2779 O   0  0  0  0  0  0  0  0  0  0  0  0
   10.4142  -16.0015   24.4074 C   0  0  0  0  0  0  0  0  0  0  0  0
   11.3092  -15.8021   25.3012 O   0  0  0  0  0  0  0  0  0  0  0  0
   13.1986  -15.5972   20.3991 O   0  0  0  0  0  0  0  0  0  0  0  0
    6.0312  -12.5185   26.4355 C   0  0  0  0  0  0  0  0  0  0  0  0
    7.4009  -13.1539   26.6119 C   0  0  2  0  0  0  0  0  0  0  0  0
    8.5186  -12.2507   26.2807 C   0  0  0  0  0  0  0  0  0  0  0  0
    7.4663  -14.5215   26.0622 C   0  0  0  0  0  0  0  0  0  0  0  0
    8.7348  -15.2910   26.1702 C   0  0  2  0  0  0  0  0  0  0  0  0
    9.0888  -15.6982   24.7846 N   0  0  0  0  0  0  0  0  0  0  0  0
    8.6371  -16.5474   26.9283 C   0  0  0  0  0  0  0  0  0  0  0  0
    8.1805  -17.6337   26.4893 O   0  0  0  0  0  0  0  0  0  0  0  0
    9.0737  -16.6206   28.2720 O   0  0  0  0  0  0  0  0  0  0  0  0
  2  1  1  6
  2  3  1  0
  3  4  1  0
  5  4  1  0
  6  7  1  0
  6  5  1  0
  8  2  1  0
  8  9  2  0
 10  8  1  0
 11 10  1  0
 11 12  1  6
 13 12  1  0
 13 17  1  0
 14 13  2  0
 15 11  1  0
 16 15  2  0
 19 18  1  6
 19 21  1  0
 20 19  1  0
 22 21  1  6
 22 23  1  0
 23 15  1  0
 24 22  1  0
 25 24  2  0
 26 24  1  0
M  END
$$$$
