KDL.pdb
     RDKit          3D

 26 25  0  0  1  0  0  0  0  0999 V2000
    6.2214  -16.3887   20.3936 N   0  0  0  0  0  0  0  0  0  0  0  0
    7.5286  -15.7872   20.5602 C   0  0  1  0  0  0  0  0  0  0  0  0
    7.4575  -14.2899   20.7506 C   0  0  0  0  0  0  0  0  0  0  0  0
    7.2388  -13.5242   19.4924 C   0  0  0  0  0  0  0  0  0  0  0  0
    8.2141  -13.7718   18.3864 C   0  0  0  0  0  0  0  0  0  0  0  0
    7.8901  -12.8685   17.2023 C   0  0  0  0  0  0  0  0  0  0  0  0
    8.7656  -13.1460   16.0824 N   0  0  0  0  0  0  0  0  0  0  0  0
    8.1514  -16.3338   21.7836 C   0  0  0  0  0  0  0  0  0  0  0  0
    7.4371  -16.6256   22.7542 O   0  0  0  0  0  0  0  0  0  0  0  0
    9.5378  -16.5309   21.8734 N   0  0  0  0  0  0  0  0  0  0  0  0
   10.2381  -17.0489   22.9958 C   0  0  1  0  0  0  0  0  0  0  0  0
   11.6283  -17.5177   22.7320 C   0  0  0  0  0  0  0  0  0  0  0  0
   12.2595  -18.0986   23.9167 C   0  0  0  0  0  0  0  0  0  0  0  0
   12.7591  -17.3574   24.8188 O   0  0  0  0  0  0  0  0  0  0  0  0
   10.2636  -16.0385   24.0644 C   0  0  0  0  0  0  0  0  0  0  0  0
   10.5254  -14.8178   23.7800 O   0  0  0  0  0  0  0  0  0  0  0  0
   12.3524  -19.4638   24.1285 O   0  0  0  0  0  0  0  0  0  0  0  0
    6.3742  -13.2713   26.2831 C   0  0  0  0  0  0  0  0  0  0  0  0
    7.7860  -13.5791   26.7554 C   0  0  2  0  0  0  0  0  0  0  0  0
    8.5644  -12.3789   27.1132 C   0  0  0  0  0  0  0  0  0  0  0  0
    8.4611  -14.5810   25.9085 C   0  0  0  0  0  0  0  0  0  0  0  0
    9.6990  -15.2401   26.4045 C   0  0  2  0  0  0  0  0  0  0  0  0
   10.0145  -16.3140   25.4256 N   0  0  0  0  0  0  0  0  0  0  0  0
    9.5625  -15.9257   27.6984 C   0  0  0  0  0  0  0  0  0  0  0  0
    9.8530  -15.4370   28.8200 O   0  0  0  0  0  0  0  0  0  0  0  0
    9.0693  -17.2497   27.7703 O   0  0  0  0  0  0  0  0  0  0  0  0
  2  1  1  1
  2  3  1  0
  3  4  1  0
  5  4  1  0
  6  7  1  0
  6  5  1  0
  8  2  1  0
  8  9  2  0
 10  8  1  0
 11 10  1  0
 11 12  1  6
 13 12  1  0
 13 17  1  0
 14 13  2  0
 15 11  1  0
 16 15  2  0
 19 18  1  6
 19 21  1  0
 20 19  1  0
 22 21  1  6
 22 23  1  0
 23 15  1  0
 24 22  1  0
 25 24  2  0
 26 24  1  0
M  END
$$$$
