KDL.pdb
     RDKit          3D

 26 25  0  0  1  0  0  0  0  0999 V2000
    5.9920  -17.0191   20.8088 N   0  0  0  0  0  0  0  0  0  0  0  0
    7.2637  -16.4519   21.2082 C   0  0  1  0  0  0  0  0  0  0  0  0
    7.2717  -14.9424   21.1408 C   0  0  0  0  0  0  0  0  0  0  0  0
    7.6778  -14.3925   19.8180 C   0  0  0  0  0  0  0  0  0  0  0  0
    7.6754  -12.9029   19.6891 C   0  0  0  0  0  0  0  0  0  0  0  0
    7.9364  -12.5110   18.2395 C   0  0  0  0  0  0  0  0  0  0  0  0
    8.0615  -11.0744   18.1042 N   0  0  0  0  0  0  0  0  0  0  0  0
    7.5211  -16.8075   22.6191 C   0  0  0  0  0  0  0  0  0  0  0  0
    6.5684  -16.9123   23.4059 O   0  0  0  0  0  0  0  0  0  0  0  0
    8.8234  -17.0301   23.0916 N   0  0  0  0  0  0  0  0  0  0  0  0
    9.1824  -17.3832   24.4202 C   0  0  1  0  0  0  0  0  0  0  0  0
   10.2518  -18.4134   24.5502 C   0  0  0  0  0  0  0  0  0  0  0  0
   10.5451  -18.7457   25.9441 C   0  0  0  0  0  0  0  0  0  0  0  0
    9.6105  -19.0157   26.7605 O   0  0  0  0  0  0  0  0  0  0  0  0
    9.5841  -16.1742   25.1552 C   0  0  0  0  0  0  0  0  0  0  0  0
   10.5905  -15.4911   24.7551 O   0  0  0  0  0  0  0  0  0  0  0  0
   11.8315  -18.7867   26.4546 O   0  0  0  0  0  0  0  0  0  0  0  0
    8.4183  -12.3111   25.2825 C   0  0  0  0  0  0  0  0  0  0  0  0
    7.5343  -13.0863   26.2462 C   0  0  2  0  0  0  0  0  0  0  0  0
    6.2738  -12.3962   26.5773 C   0  0  0  0  0  0  0  0  0  0  0  0
    8.2928  -13.6618   27.3732 C   0  0  0  0  0  0  0  0  0  0  0  0
    9.4578  -14.5436   27.0936 C   0  0  2  0  0  0  0  0  0  0  0  0
    8.9283  -15.6883   26.3062 N   0  0  0  0  0  0  0  0  0  0  0  0
   10.0797  -15.1474   28.2816 C   0  0  0  0  0  0  0  0  0  0  0  0
    9.9587  -16.3460   28.6419 O   0  0  0  0  0  0  0  0  0  0  0  0
   10.8984  -14.3791   29.1426 O   0  0  0  0  0  0  0  0  0  0  0  0
  2  1  1  1
  2  3  1  0
  3  4  1  0
  5  4  1  0
  6  7  1  0
  6  5  1  0
  8  2  1  0
  8  9  2  0
 10  8  1  0
 11 10  1  0
 11 12  1  6
 13 12  1  0
 13 17  1  0
 14 13  2  0
 15 11  1  0
 16 15  2  0
 19 18  1  1
 19 21  1  0
 20 19  1  0
 22 21  1  1
 22 23  1  0
 23 15  1  0
 24 22  1  0
 25 24  2  0
 26 24  1  0
M  END
$$$$
