EWD.pdb
     RDKit          3D

 32 33  0  0  1  0  0  0  0  0999 V2000
    7.6134  -15.1722   19.9514 N   0  0  0  0  0  0  0  0  0  0  0  0
    7.9666  -16.3730   20.6178 C   0  0  1  0  0  0  0  0  0  0  0  0
    8.6914  -17.3615   19.7672 C   0  0  0  0  0  0  0  0  0  0  0  0
    9.9588  -16.8358   19.2187 C   0  0  0  0  0  0  0  0  0  0  0  0
   10.6872  -17.7986   18.3919 C   0  0  0  0  0  0  0  0  0  0  0  0
   11.3488  -18.7851   18.7448 O   0  0  0  0  0  0  0  0  0  0  0  0
    8.8506  -16.0662   21.7899 C   0  0  0  0  0  0  0  0  0  0  0  0
    9.8093  -15.2649   21.6374 O   0  0  0  0  0  0  0  0  0  0  0  0
   10.6299  -17.5717   16.9886 O   0  0  0  0  0  0  0  0  0  0  0  0
    8.5476  -16.7070   23.0201 N   0  0  0  0  0  0  0  0  0  0  0  0
    9.2744  -16.3447   24.2054 C   0  0  1  0  0  0  0  0  0  0  0  0
    8.4071  -16.1482   25.4062 C   0  0  0  0  0  0  0  0  0  0  0  0
    7.3436  -15.1517   25.2829 C   0  0  0  0  0  0  0  0  0  0  0  0
    6.1040  -15.2652   24.7340 C   0  0  0  0  0  0  0  0  0  0  0  0
    5.4666  -14.0769   24.8579 N   0  0  0  0  0  0  0  0  0  0  0  0
    6.2708  -13.2068   25.4732 C   0  0  0  0  0  0  0  0  0  0  0  0
    6.0667  -11.8697   25.8231 C   0  0  0  0  0  0  0  0  0  0  0  0
    7.0590  -11.1630   26.4617 C   0  0  0  0  0  0  0  0  0  0  0  0
    8.2408  -11.8137   26.7381 C   0  0  0  0  0  0  0  0  0  0  0  0
    8.4451  -13.1372   26.3922 C   0  0  0  0  0  0  0  0  0  0  0  0
    7.4511  -13.8511   25.7505 C   0  0  0  0  0  0  0  0  0  0  0  0
   10.4615  -17.1873   24.4194 C   0  0  0  0  0  0  0  0  0  0  0  0
   10.3948  -18.4542   24.4438 O   0  0  0  0  0  0  0  0  0  0  0  0
   11.7232  -16.5849   24.6065 N   0  0  0  0  0  0  0  0  0  0  0  0
   12.9182  -17.3553   25.0118 C   0  0  1  0  0  0  0  0  0  0  0  0
   14.0818  -16.3982   24.9754 C   0  0  0  0  0  0  0  0  0  0  0  0
   15.3620  -17.1083   24.9731 C   0  0  0  0  0  0  0  0  0  0  0  0
   15.3898  -18.3540   25.0362 O   0  0  0  0  0  0  0  0  0  0  0  0
   12.6786  -17.9699   26.3267 C   0  0  0  0  0  0  0  0  0  0  0  0
   13.2611  -19.2191   26.6181 O   0  0  0  0  0  0  0  0  0  0  0  0
   16.5500  -16.4119   24.9053 O   0  0  0  0  0  0  0  0  0  0  0  0
   11.9867  -17.4445   27.1996 O   0  0  0  0  0  0  0  0  0  0  0  0
  2  1  1  6
  3  4  1  0
  3  2  1  0
  5  6  2  0
  5  4  1  0
  7  2  1  0
  7  8  2  0
  9  5  1  0
 10  7  1  0
 11 10  1  0
 11 12  1  1
 13 12  1  0
 13 14  2  0
 15 14  1  0
 16 15  1  0
 17 16  2  0
 18 17  1  0
 19 18  2  0
 19 20  1  0
 20 21  2  0
 21 16  1  0
 21 13  1  0
 22 11  1  0
 23 22  2  0
 24 22  1  0
 25 29  1  0
 25 24  1  0
 25 26  1  1
 27 26  1  0
 27 28  2  0
 29 30  1  0
 31 27  1  0
 32 29  2  0
M  END
$$$$
