EWD.pdb
     RDKit          3D

 32 33  0  0  1  0  0  0  0  0999 V2000
    9.3352  -18.9154   21.1689 N   0  0  0  0  0  0  0  0  0  0  0  0
   10.3650  -17.9438   21.2460 C   0  0  1  0  0  0  0  0  0  0  0  0
   10.3424  -16.9312   20.1504 C   0  0  0  0  0  0  0  0  0  0  0  0
    9.9794  -17.5047   18.8379 C   0  0  0  0  0  0  0  0  0  0  0  0
    9.8527  -16.5080   17.7741 C   0  0  0  0  0  0  0  0  0  0  0  0
    8.8646  -16.2314   17.0795 O   0  0  0  0  0  0  0  0  0  0  0  0
   10.2657  -17.1953   22.5418 C   0  0  0  0  0  0  0  0  0  0  0  0
   11.0338  -16.2184   22.7422 O   0  0  0  0  0  0  0  0  0  0  0  0
   11.0253  -15.7517   17.4970 O   0  0  0  0  0  0  0  0  0  0  0  0
    9.2958  -17.6397   23.4786 N   0  0  0  0  0  0  0  0  0  0  0  0
    9.2140  -17.0088   24.7669 C   0  0  1  0  0  0  0  0  0  0  0  0
    7.8641  -16.4482   25.0774 C   0  0  0  0  0  0  0  0  0  0  0  0
    7.5400  -15.1595   24.4663 C   0  0  0  0  0  0  0  0  0  0  0  0
    7.3336  -14.8435   23.1592 C   0  0  0  0  0  0  0  0  0  0  0  0
    7.0516  -13.5217   23.0741 N   0  0  0  0  0  0  0  0  0  0  0  0
    7.0734  -12.9862   24.2968 C   0  0  0  0  0  0  0  0  0  0  0  0
    6.8493  -11.6734   24.7191 C   0  0  0  0  0  0  0  0  0  0  0  0
    6.9289  -11.3537   26.0544 C   0  0  0  0  0  0  0  0  0  0  0  0
    7.2324  -12.3606   26.9435 C   0  0  0  0  0  0  0  0  0  0  0  0
    7.4550  -13.6608   26.5275 C   0  0  0  0  0  0  0  0  0  0  0  0
    7.3762  -13.9867   25.1869 C   0  0  0  0  0  0  0  0  0  0  0  0
    9.8159  -17.8238   25.8339 C   0  0  0  0  0  0  0  0  0  0  0  0
    9.2665  -18.8827   26.2663 O   0  0  0  0  0  0  0  0  0  0  0  0
   11.0430  -17.4302   26.4077 N   0  0  0  0  0  0  0  0  0  0  0  0
   11.6556  -18.1517   27.5435 C   0  0  1  0  0  0  0  0  0  0  0  0
   13.1190  -17.7918   27.5449 C   0  0  0  0  0  0  0  0  0  0  0  0
   13.8105  -18.3482   26.3807 C   0  0  0  0  0  0  0  0  0  0  0  0
   14.8837  -17.8472   25.9884 O   0  0  0  0  0  0  0  0  0  0  0  0
   10.9436  -17.8032   28.7828 C   0  0  0  0  0  0  0  0  0  0  0  0
   10.1657  -16.6292   28.8217 O   0  0  0  0  0  0  0  0  0  0  0  0
   13.2846  -19.4271   25.7022 O   0  0  0  0  0  0  0  0  0  0  0  0
   10.9909  -18.4914   29.8030 O   0  0  0  0  0  0  0  0  0  0  0  0
  2  1  1  6
  3  4  1  0
  3  2  1  0
  5  6  2  0
  5  4  1  0
  7  2  1  0
  7  8  2  0
  9  5  1  0
 10  7  1  0
 11 10  1  0
 11 12  1  1
 13 12  1  0
 13 14  2  0
 15 14  1  0
 16 15  1  0
 17 16  2  0
 18 17  1  0
 19 18  2  0
 19 20  1  0
 20 21  2  0
 21 16  1  0
 21 13  1  0
 22 11  1  0
 23 22  2  0
 24 22  1  0
 25 29  1  0
 25 24  1  0
 25 26  1  1
 27 26  1  0
 27 28  2  0
 29 30  1  0
 31 27  1  0
 32 29  2  0
M  END
$$$$
