EWD.pdb
     RDKit          3D

 32 33  0  0  1  0  0  0  0  0999 V2000
    9.1244  -18.4235   21.5291 N   0  0  0  0  0  0  0  0  0  0  0  0
   10.4450  -17.9681   21.7720 C   0  0  1  0  0  0  0  0  0  0  0  0
   10.9267  -16.9301   20.8147 C   0  0  0  0  0  0  0  0  0  0  0  0
   12.3637  -16.6217   20.9680 C   0  0  0  0  0  0  0  0  0  0  0  0
   13.1088  -16.6446   19.7089 C   0  0  0  0  0  0  0  0  0  0  0  0
   14.0303  -17.3971   19.3626 O   0  0  0  0  0  0  0  0  0  0  0  0
   10.5372  -17.3776   23.1476 C   0  0  0  0  0  0  0  0  0  0  0  0
   11.6383  -16.9083   23.5372 O   0  0  0  0  0  0  0  0  0  0  0  0
   12.7242  -15.6677   18.7488 O   0  0  0  0  0  0  0  0  0  0  0  0
    9.3587  -17.3827   23.9394 N   0  0  0  0  0  0  0  0  0  0  0  0
    9.4221  -16.9462   25.3068 C   0  0  1  0  0  0  0  0  0  0  0  0
    8.1901  -16.2389   25.7702 C   0  0  0  0  0  0  0  0  0  0  0  0
    7.7922  -15.0583   25.0039 C   0  0  0  0  0  0  0  0  0  0  0  0
    7.7382  -14.8724   23.6573 C   0  0  0  0  0  0  0  0  0  0  0  0
    7.3009  -13.6143   23.4125 N   0  0  0  0  0  0  0  0  0  0  0  0
    7.0747  -12.9923   24.5720 C   0  0  0  0  0  0  0  0  0  0  0  0
    6.6218  -11.6974   24.8365 C   0  0  0  0  0  0  0  0  0  0  0  0
    6.4641  -11.2719   26.1348 C   0  0  0  0  0  0  0  0  0  0  0  0
    6.7646  -12.1568   27.1463 C   0  0  0  0  0  0  0  0  0  0  0  0
    7.2135  -13.4391   26.8867 C   0  0  0  0  0  0  0  0  0  0  0  0
    7.3735  -13.8709   25.5838 C   0  0  0  0  0  0  0  0  0  0  0  0
    9.9223  -17.9937   26.2111 C   0  0  0  0  0  0  0  0  0  0  0  0
    9.3681  -19.1318   26.2981 O   0  0  0  0  0  0  0  0  0  0  0  0
   11.0531  -17.7422   27.0160 N   0  0  0  0  0  0  0  0  0  0  0  0
   11.5119  -18.6864   28.0572 C   0  0  1  0  0  0  0  0  0  0  0  0
   13.0179  -18.6919   28.0017 C   0  0  0  0  0  0  0  0  0  0  0  0
   13.5082  -19.3141   26.7707 C   0  0  0  0  0  0  0  0  0  0  0  0
   12.9017  -20.2836   26.2718 O   0  0  0  0  0  0  0  0  0  0  0  0
   10.9538  -18.2857   29.3580 C   0  0  0  0  0  0  0  0  0  0  0  0
   11.1706  -19.1076   30.4815 O   0  0  0  0  0  0  0  0  0  0  0  0
   14.6452  -18.8411   26.1505 O   0  0  0  0  0  0  0  0  0  0  0  0
   10.2980  -17.2561   29.5212 O   0  0  0  0  0  0  0  0  0  0  0  0
  2  1  1  6
  3  4  1  0
  3  2  1  0
  5  6  2  0
  5  4  1  0
  7  2  1  0
  7  8  2  0
  9  5  1  0
 10  7  1  0
 11 10  1  0
 11 12  1  1
 13 12  1  0
 13 14  2  0
 15 14  1  0
 16 15  1  0
 17 16  2  0
 18 17  1  0
 19 18  2  0
 19 20  1  0
 20 21  2  0
 21 16  1  0
 21 13  1  0
 22 11  1  0
 23 22  2  0
 24 22  1  0
 25 29  1  0
 25 24  1  0
 25 26  1  1
 27 26  1  0
 27 28  2  0
 29 30  1  0
 31 27  1  0
 32 29  2  0
M  END
$$$$
