EWD.pdb
     RDKit          3D

 32 33  0  0  1  0  0  0  0  0999 V2000
    9.6362  -19.3234   17.9291 N   0  0  0  0  0  0  0  0  0  0  0  0
   10.7542  -18.4538   17.8630 C   0  0  1  0  0  0  0  0  0  0  0  0
   10.7454  -17.5235   16.6966 C   0  0  0  0  0  0  0  0  0  0  0  0
   10.5091  -18.2095   15.4093 C   0  0  0  0  0  0  0  0  0  0  0  0
   10.5476  -17.3170   14.2503 C   0  0  0  0  0  0  0  0  0  0  0  0
   11.3092  -16.3661   14.0244 O   0  0  0  0  0  0  0  0  0  0  0  0
   10.8194  -17.6098   19.1011 C   0  0  0  0  0  0  0  0  0  0  0  0
   11.6519  -16.6671   19.1533 O   0  0  0  0  0  0  0  0  0  0  0  0
    9.5765  -17.5747   13.2430 O   0  0  0  0  0  0  0  0  0  0  0  0
    9.9238  -17.9291   20.1554 N   0  0  0  0  0  0  0  0  0  0  0  0
   10.0811  -17.2949   21.4350 C   0  0  1  0  0  0  0  0  0  0  0  0
    8.7972  -16.8156   22.0307 C   0  0  0  0  0  0  0  0  0  0  0  0
    7.8910  -16.1015   21.1316 C   0  0  0  0  0  0  0  0  0  0  0  0
    6.8467  -16.5701   20.3964 C   0  0  0  0  0  0  0  0  0  0  0  0
    6.2953  -15.5341   19.7206 N   0  0  0  0  0  0  0  0  0  0  0  0
    6.9638  -14.4146   20.0073 C   0  0  0  0  0  0  0  0  0  0  0  0
    6.7767  -13.1038   19.5613 C   0  0  0  0  0  0  0  0  0  0  0  0
    7.6060  -12.0988   20.0017 C   0  0  0  0  0  0  0  0  0  0  0  0
    8.6103  -12.4292   20.8841 C   0  0  0  0  0  0  0  0  0  0  0  0
    8.7976  -13.7263   21.3265 C   0  0  0  0  0  0  0  0  0  0  0  0
    7.9669  -14.7392   20.8867 C   0  0  0  0  0  0  0  0  0  0  0  0
   10.9463  -18.0637   22.3436 C   0  0  0  0  0  0  0  0  0  0  0  0
   10.9133  -19.3311   22.3961 O   0  0  0  0  0  0  0  0  0  0  0  0
   11.8472  -17.3869   23.1921 N   0  0  0  0  0  0  0  0  0  0  0  0
   12.7188  -18.0971   24.1524 C   0  0  1  0  0  0  0  0  0  0  0  0
   14.0959  -18.1323   23.5412 C   0  0  0  0  0  0  0  0  0  0  0  0
   14.7183  -16.8074   23.5416 C   0  0  0  0  0  0  0  0  0  0  0  0
   14.1310  -15.8373   24.0619 O   0  0  0  0  0  0  0  0  0  0  0  0
   12.6519  -17.4256   25.4595 C   0  0  0  0  0  0  0  0  0  0  0  0
   11.9810  -16.1912   25.5647 O   0  0  0  0  0  0  0  0  0  0  0  0
   15.9559  -16.6137   22.9655 O   0  0  0  0  0  0  0  0  0  0  0  0
   13.1575  -17.8900   26.4820 O   0  0  0  0  0  0  0  0  0  0  0  0
  2  1  1  1
  3  4  1  0
  3  2  1  0
  5  6  2  0
  5  4  1  0
  7  2  1  0
  7  8  2  0
  9  5  1  0
 10  7  1  0
 11 10  1  0
 11 12  1  1
 13 12  1  0
 13 14  2  0
 15 14  1  0
 16 15  1  0
 17 16  2  0
 18 17  1  0
 19 18  2  0
 19 20  1  0
 20 21  2  0
 21 16  1  0
 21 13  1  0
 22 11  1  0
 23 22  2  0
 24 22  1  0
 25 29  1  0
 25 24  1  0
 25 26  1  6
 27 26  1  0
 27 28  2  0
 29 30  1  0
 31 27  1  0
 32 29  2  0
M  END
$$$$
