EWD.pdb
     RDKit          3D

 32 33  0  0  1  0  0  0  0  0999 V2000
    9.9771  -15.7404   18.3537 N   0  0  0  0  0  0  0  0  0  0  0  0
   10.1021  -16.7721   19.3184 C   0  0  1  0  0  0  0  0  0  0  0  0
   11.3865  -17.5284   19.2515 C   0  0  0  0  0  0  0  0  0  0  0  0
   12.0378  -17.4495   17.9275 C   0  0  0  0  0  0  0  0  0  0  0  0
   12.1912  -18.7467   17.2681 C   0  0  0  0  0  0  0  0  0  0  0  0
   11.9038  -19.8749   17.6922 O   0  0  0  0  0  0  0  0  0  0  0  0
    9.9998  -16.1958   20.6993 C   0  0  0  0  0  0  0  0  0  0  0  0
   11.0122  -15.6474   21.2077 O   0  0  0  0  0  0  0  0  0  0  0  0
   12.7481  -18.7095   15.9595 O   0  0  0  0  0  0  0  0  0  0  0  0
    8.7476  -16.3043   21.3597 N   0  0  0  0  0  0  0  0  0  0  0  0
    8.6050  -15.7958   22.6959 C   0  0  1  0  0  0  0  0  0  0  0  0
    7.2203  -15.3379   23.0207 C   0  0  0  0  0  0  0  0  0  0  0  0
    6.9514  -15.0280   24.4246 C   0  0  0  0  0  0  0  0  0  0  0  0
    6.5411  -15.8441   25.4328 C   0  0  0  0  0  0  0  0  0  0  0  0
    6.4346  -15.1102   26.5659 N   0  0  0  0  0  0  0  0  0  0  0  0
    6.7672  -13.8440   26.3045 C   0  0  0  0  0  0  0  0  0  0  0  0
    6.8118  -12.7242   27.1389 C   0  0  0  0  0  0  0  0  0  0  0  0
    7.1904  -11.5016   26.6353 C   0  0  0  0  0  0  0  0  0  0  0  0
    7.5183  -11.4256   25.3000 C   0  0  0  0  0  0  0  0  0  0  0  0
    7.4744  -12.5328   24.4721 C   0  0  0  0  0  0  0  0  0  0  0  0
    7.0946  -13.7632   24.9736 C   0  0  0  0  0  0  0  0  0  0  0  0
    9.2295  -16.6694   23.7019 C   0  0  0  0  0  0  0  0  0  0  0  0
    8.9988  -17.9161   23.7502 O   0  0  0  0  0  0  0  0  0  0  0  0
   10.1155  -16.1204   24.6525 N   0  0  0  0  0  0  0  0  0  0  0  0
   11.0606  -16.9511   25.4289 C   0  0  1  0  0  0  0  0  0  0  0  0
   12.4417  -16.4263   25.1314 C   0  0  0  0  0  0  0  0  0  0  0  0
   13.4729  -17.2095   25.8141 C   0  0  0  0  0  0  0  0  0  0  0  0
   13.1534  -18.1758   26.5358 O   0  0  0  0  0  0  0  0  0  0  0  0
   10.6893  -16.9104   26.8518 C   0  0  0  0  0  0  0  0  0  0  0  0
    9.5322  -16.2070   27.2404 O   0  0  0  0  0  0  0  0  0  0  0  0
   14.8063  -16.8884   25.6722 O   0  0  0  0  0  0  0  0  0  0  0  0
   11.3439  -17.4658   27.7348 O   0  0  0  0  0  0  0  0  0  0  0  0
  2  1  1  6
  3  4  1  0
  3  2  1  0
  5  6  2  0
  5  4  1  0
  7  2  1  0
  7  8  2  0
  9  5  1  0
 10  7  1  0
 11 10  1  0
 11 12  1  1
 13 12  1  0
 13 14  2  0
 15 14  1  0
 16 15  1  0
 17 16  2  0
 18 17  1  0
 19 18  2  0
 19 20  1  0
 20 21  2  0
 21 16  1  0
 21 13  1  0
 22 11  1  0
 23 22  2  0
 24 22  1  0
 25 29  1  0
 25 24  1  0
 25 26  1  1
 27 26  1  0
 27 28  2  0
 29 30  1  0
 31 27  1  0
 32 29  2  0
M  END
$$$$
