EWD.pdb
     RDKit          3D

 32 33  0  0  1  0  0  0  0  0999 V2000
    9.0992  -16.4971   18.6596 N   0  0  0  0  0  0  0  0  0  0  0  0
    8.4602  -17.2667   19.6646 C   0  0  1  0  0  0  0  0  0  0  0  0
    8.6692  -18.7389   19.5419 C   0  0  0  0  0  0  0  0  0  0  0  0
    9.9675  -19.0915   18.9308 C   0  0  0  0  0  0  0  0  0  0  0  0
   10.1344  -20.5248   18.6876 C   0  0  0  0  0  0  0  0  0  0  0  0
    9.5256  -21.2563   17.8941 O   0  0  0  0  0  0  0  0  0  0  0  0
    8.9638  -16.8600   21.0175 C   0  0  0  0  0  0  0  0  0  0  0  0
   10.0935  -17.2667   21.3953 O   0  0  0  0  0  0  0  0  0  0  0  0
   11.1323  -21.1694   19.4703 O   0  0  0  0  0  0  0  0  0  0  0  0
    8.1236  -16.0270   21.8024 N   0  0  0  0  0  0  0  0  0  0  0  0
    8.5786  -15.5705   23.0865 C   0  0  1  0  0  0  0  0  0  0  0  0
    7.7098  -14.5166   23.6927 C   0  0  0  0  0  0  0  0  0  0  0  0
    8.0391  -14.1103   25.0586 C   0  0  0  0  0  0  0  0  0  0  0  0
    9.0118  -14.5684   25.8923 C   0  0  0  0  0  0  0  0  0  0  0  0
    8.9381  -13.8842   27.0585 N   0  0  0  0  0  0  0  0  0  0  0  0
    7.9406  -12.9997   26.9890 C   0  0  0  0  0  0  0  0  0  0  0  0
    7.4765  -12.0761   27.9290 C   0  0  0  0  0  0  0  0  0  0  0  0
    6.4142  -11.2564   27.6266 C   0  0  0  0  0  0  0  0  0  0  0  0
    5.8363  -11.3792   26.3827 C   0  0  0  0  0  0  0  0  0  0  0  0
    6.2939  -12.2932   25.4508 C   0  0  0  0  0  0  0  0  0  0  0  0
    7.3607  -13.1188   25.7502 C   0  0  0  0  0  0  0  0  0  0  0  0
    8.9401  -16.6790   23.9840 C   0  0  0  0  0  0  0  0  0  0  0  0
    8.1479  -17.6413   24.2217 O   0  0  0  0  0  0  0  0  0  0  0  0
   10.2038  -16.6886   24.6107 N   0  0  0  0  0  0  0  0  0  0  0  0
   10.6767  -17.8280   25.4258 C   0  0  1  0  0  0  0  0  0  0  0  0
   12.1206  -18.0526   25.0573 C   0  0  0  0  0  0  0  0  0  0  0  0
   12.7125  -19.1388   25.8401 C   0  0  0  0  0  0  0  0  0  0  0  0
   11.9925  -19.8578   26.5620 O   0  0  0  0  0  0  0  0  0  0  0  0
   10.4522  -17.5345   26.8497 C   0  0  0  0  0  0  0  0  0  0  0  0
   11.1043  -16.4315   27.4354 O   0  0  0  0  0  0  0  0  0  0  0  0
   14.0695  -19.3783   25.7932 O   0  0  0  0  0  0  0  0  0  0  0  0
    9.7147  -18.2099   27.5684 O   0  0  0  0  0  0  0  0  0  0  0  0
  2  1  1  6
  3  4  1  0
  3  2  1  0
  5  6  2  0
  5  4  1  0
  7  2  1  0
  7  8  2  0
  9  5  1  0
 10  7  1  0
 11 10  1  0
 11 12  1  1
 13 12  1  0
 13 14  2  0
 15 14  1  0
 16 15  1  0
 17 16  2  0
 18 17  1  0
 19 18  2  0
 19 20  1  0
 20 21  2  0
 21 16  1  0
 21 13  1  0
 22 11  1  0
 23 22  2  0
 24 22  1  0
 25 29  1  0
 25 24  1  0
 25 26  1  1
 27 26  1  0
 27 28  2  0
 29 30  1  0
 31 27  1  0
 32 29  2  0
M  END
$$$$
