QGG.pdb
     RDKit          3D

 18 17  0  0  1  0  0  0  0  0999 V2000
   11.1458  -15.9524   24.6276 N   0  0  0  0  0  0  0  0  0  0  0  0
    9.9335  -15.8386   25.3381 C   0  0  0  0  0  0  0  0  0  0  0  0
    9.9492  -16.0855   26.5689 O   0  0  0  0  0  0  0  0  0  0  0  0
    8.6978  -15.4462   24.6691 C   0  0  0  0  0  0  0  0  0  0  0  0
    8.8096  -15.0657   23.2390 C   0  0  0  0  0  0  0  0  0  0  0  0
    7.5270  -14.7399   22.5542 C   0  0  2  0  0  0  0  0  0  0  0  0
    6.8678  -15.9679   22.1874 N   0  0  0  0  0  0  0  0  0  0  0  0
    7.7565  -13.8773   21.3378 C   0  0  0  0  0  0  0  0  0  0  0  0
    8.2052  -12.7162   21.4568 O   0  0  0  0  0  0  0  0  0  0  0  0
    7.4695  -14.3625   20.0375 N   0  0  0  0  0  0  0  0  0  0  0  0
    7.6317  -13.5717   18.8738 C   0  0  0  0  0  0  0  0  0  0  0  0
    8.9734  -13.4693   18.3128 C   0  0  0  0  0  0  0  0  0  0  0  0
    9.0767  -12.9559   17.1595 O   0  0  0  0  0  0  0  0  0  0  0  0
   10.1849  -13.8828   18.9217 N   0  0  0  0  0  0  0  0  0  0  0  0
   11.3616  -14.2001   18.1066 C   0  0  0  0  0  0  0  0  0  0  0  0
   12.5216  -14.4386   18.9922 C   0  0  0  0  0  0  0  0  0  0  0  0
   12.3903  -15.1156   20.0385 O   0  0  0  0  0  0  0  0  0  0  0  0
   13.7658  -13.9066   18.6591 O   0  0  0  0  0  0  0  0  0  0  0  0
  2  1  1  0
  3  2  2  0
  4  2  1  0
  5  4  1  0
  6  5  1  0
  6  7  1  6
  8 10  1  0
  8  6  1  0
  9  8  2  0
 11 12  1  0
 11 10  1  0
 12 14  1  0
 13 12  2  0
 14 15  1  0
 15 16  1  0
 16 17  2  0
 16 18  1  0
M  END
$$$$
