QGG.pdb
     RDKit          3D

 18 17  0  0  1  0  0  0  0  0999 V2000
    8.3177  -25.7211   39.6218 N   0  0  0  0  0  0  0  0  0  0  0  0
    8.3513  -27.0352   39.1125 C   0  0  0  0  0  0  0  0  0  0  0  0
    8.6700  -27.9611   39.8981 O   0  0  0  0  0  0  0  0  0  0  0  0
    8.0264  -27.3153   37.7181 C   0  0  0  0  0  0  0  0  0  0  0  0
    7.6581  -26.1502   36.8758 C   0  0  0  0  0  0  0  0  0  0  0  0
    7.8840  -26.3132   35.4121 C   0  0  2  0  0  0  0  0  0  0  0  0
    7.2189  -27.5116   34.9669 N   0  0  0  0  0  0  0  0  0  0  0  0
    9.3560  -26.3711   35.0857 C   0  0  0  0  0  0  0  0  0  0  0  0
   10.0981  -25.3917   35.3177 O   0  0  0  0  0  0  0  0  0  0  0  0
    9.9283  -27.5333   34.5108 N   0  0  0  0  0  0  0  0  0  0  0  0
   11.3096  -27.6392   34.2164 C   0  0  0  0  0  0  0  0  0  0  0  0
   11.9597  -26.4795   33.6182 C   0  0  0  0  0  0  0  0  0  0  0  0
   12.2276  -25.5099   34.3879 O   0  0  0  0  0  0  0  0  0  0  0  0
   12.3296  -26.3171   32.2594 N   0  0  0  0  0  0  0  0  0  0  0  0
   13.7239  -26.4859   31.8384 C   0  0  0  0  0  0  0  0  0  0  0  0
   14.4324  -25.1935   31.9593 C   0  0  0  0  0  0  0  0  0  0  0  0
   15.5648  -25.0421   31.4445 O   0  0  0  0  0  0  0  0  0  0  0  0
   13.8354  -24.1405   32.6496 O   0  0  0  0  0  0  0  0  0  0  0  0
  2  1  1  0
  3  2  2  0
  4  2  1  0
  5  4  1  0
  6  5  1  0
  6  7  1  1
  8 10  1  0
  8  6  1  0
  9  8  2  0
 11 12  1  0
 11 10  1  0
 12 14  1  0
 13 12  2  0
 14 15  1  0
 15 16  1  0
 16 17  2  0
 16 18  1  0
M  END
$$$$
