QGG.pdb
     RDKit          3D

 18 17  0  0  1  0  0  0  0  0999 V2000
    9.3674  -11.4522   19.2995 N   0  0  0  0  0  0  0  0  0  0  0  0
    8.6576  -12.5540   18.7801 C   0  0  0  0  0  0  0  0  0  0  0  0
    9.1478  -13.1556   17.7934 O   0  0  0  0  0  0  0  0  0  0  0  0
    7.3936  -12.9852   19.3674 C   0  0  0  0  0  0  0  0  0  0  0  0
    7.3896  -14.3117   20.0328 C   0  0  0  0  0  0  0  0  0  0  0  0
    8.1649  -14.4010   21.3021 C   0  0  2  0  0  0  0  0  0  0  0  0
    9.3006  -13.5176   21.2194 N   0  0  0  0  0  0  0  0  0  0  0  0
    8.6124  -15.8159   21.5750 C   0  0  0  0  0  0  0  0  0  0  0  0
    7.7736  -16.7177   21.7916 O   0  0  0  0  0  0  0  0  0  0  0  0
    9.9889  -16.1529   21.5919 N   0  0  0  0  0  0  0  0  0  0  0  0
   10.4569  -17.4356   21.9679 C   0  0  0  0  0  0  0  0  0  0  0  0
   11.4053  -17.5074   23.0728 C   0  0  0  0  0  0  0  0  0  0  0  0
   11.0252  -17.0419   24.1878 O   0  0  0  0  0  0  0  0  0  0  0  0
   12.7157  -18.0467   23.0367 N   0  0  0  0  0  0  0  0  0  0  0  0
   13.5550  -18.0541   24.2389 C   0  0  0  0  0  0  0  0  0  0  0  0
   14.6074  -17.0235   24.1084 C   0  0  0  0  0  0  0  0  0  0  0  0
   15.5200  -16.9393   24.9631 O   0  0  0  0  0  0  0  0  0  0  0  0
   14.5818  -16.1429   23.0288 O   0  0  0  0  0  0  0  0  0  0  0  0
  2  1  1  0
  3  2  2  0
  4  2  1  0
  5  4  1  0
  6  5  1  0
  6  7  1  6
  8 10  1  0
  8  6  1  0
  9  8  2  0
 11 12  1  0
 11 10  1  0
 12 14  1  0
 13 12  2  0
 14 15  1  0
 15 16  1  0
 16 17  2  0
 16 18  1  0
M  END
$$$$
