QGG.pdb
     RDKit          3D

 18 17  0  0  1  0  0  0  0  0999 V2000
   -8.4497  -23.1484   31.3094 N   0  0  0  0  0  0  0  0  0  0  0  0
   -8.9649  -22.5361   30.1487 C   0  0  0  0  0  0  0  0  0  0  0  0
   -9.6673  -21.5055   30.2914 O   0  0  0  0  0  0  0  0  0  0  0  0
   -8.6927  -23.0787   28.8221 C   0  0  0  0  0  0  0  0  0  0  0  0
   -7.7869  -24.2525   28.7584 C   0  0  0  0  0  0  0  0  0  0  0  0
   -6.3494  -23.9761   29.0366 C   0  0  2  0  0  0  0  0  0  0  0  0
   -5.7543  -23.3761   27.8692 N   0  0  0  0  0  0  0  0  0  0  0  0
   -5.6115  -25.2349   29.4205 C   0  0  0  0  0  0  0  0  0  0  0  0
   -5.9746  -25.9087   30.4094 O   0  0  0  0  0  0  0  0  0  0  0  0
   -4.4939  -25.6801   28.6711 N   0  0  0  0  0  0  0  0  0  0  0  0
   -3.7546  -26.8377   29.0163 C   0  0  0  0  0  0  0  0  0  0  0  0
   -2.8332  -26.7355   30.1415 C   0  0  0  0  0  0  0  0  0  0  0  0
   -2.4418  -25.5739   30.4603 O   0  0  0  0  0  0  0  0  0  0  0  0
   -2.3247  -27.8015   30.9253 N   0  0  0  0  0  0  0  0  0  0  0  0
   -1.3601  -27.5462   31.9996 C   0  0  0  0  0  0  0  0  0  0  0  0
   -0.9556  -28.8307   32.6107 C   0  0  0  0  0  0  0  0  0  0  0  0
   -1.6868  -29.8422   32.4998 O   0  0  0  0  0  0  0  0  0  0  0  0
    0.2452  -28.9137   33.3128 O   0  0  0  0  0  0  0  0  0  0  0  0
  2  1  1  0
  3  2  2  0
  4  2  1  0
  5  4  1  0
  6  5  1  0
  6  7  1  6
  8 10  1  0
  8  6  1  0
  9  8  2  0
 11 12  1  0
 11 10  1  0
 12 14  1  0
 13 12  2  0
 14 15  1  0
 15 16  1  0
 16 17  2  0
 16 18  1  0
M  END
$$$$
