QGG.pdb
     RDKit          3D

 18 17  0  0  1  0  0  0  0  0999 V2000
    0.2239  -26.7483   30.7392 N   0  0  0  0  0  0  0  0  0  0  0  0
   -0.6312  -27.6983   30.1443 C   0  0  0  0  0  0  0  0  0  0  0  0
   -0.2738  -28.9016   30.1615 O   0  0  0  0  0  0  0  0  0  0  0  0
   -1.8922  -27.3006   29.5277 C   0  0  0  0  0  0  0  0  0  0  0  0
   -2.2565  -25.8656   29.6285 C   0  0  0  0  0  0  0  0  0  0  0  0
   -3.5399  -25.4769   28.9789 C   0  0  2  0  0  0  0  0  0  0  0  0
   -3.3520  -25.4520   27.5503 N   0  0  0  0  0  0  0  0  0  0  0  0
   -4.0229  -24.1359   29.4737 C   0  0  0  0  0  0  0  0  0  0  0  0
   -4.2712  -23.9569   30.6863 O   0  0  0  0  0  0  0  0  0  0  0  0
   -4.2053  -23.0528   28.5780 N   0  0  0  0  0  0  0  0  0  0  0  0
   -4.7260  -21.8013   28.9885 C   0  0  0  0  0  0  0  0  0  0  0  0
   -6.1172  -21.7624   29.4229 C   0  0  0  0  0  0  0  0  0  0  0  0
   -6.5685  -20.6429   29.8067 O   0  0  0  0  0  0  0  0  0  0  0  0
   -7.0280  -22.8479   29.4615 N   0  0  0  0  0  0  0  0  0  0  0  0
   -8.3994  -22.6569   29.9436 C   0  0  0  0  0  0  0  0  0  0  0  0
   -8.7092  -23.6847   30.9607 C   0  0  0  0  0  0  0  0  0  0  0  0
   -9.8452  -23.7313   31.4876 O   0  0  0  0  0  0  0  0  0  0  0  0
   -7.7311  -24.6047   31.3331 O   0  0  0  0  0  0  0  0  0  0  0  0
  2  1  1  0
  3  2  2  0
  4  2  1  0
  5  4  1  0
  6  5  1  0
  6  7  1  6
  8 10  1  0
  8  6  1  0
  9  8  2  0
 11 12  1  0
 11 10  1  0
 12 14  1  0
 13 12  2  0
 14 15  1  0
 15 16  1  0
 16 17  2  0
 16 18  1  0
M  END
$$$$
