QGG.pdb
     RDKit          3D

 18 17  0  0  1  0  0  0  0  0999 V2000
    9.3127  -13.7360   17.8818 N   0  0  0  0  0  0  0  0  0  0  0  0
    7.9931  -13.4059   17.5113 C   0  0  0  0  0  0  0  0  0  0  0  0
    7.7512  -13.2357   16.2912 O   0  0  0  0  0  0  0  0  0  0  0  0
    6.9388  -13.2660   18.5100 C   0  0  0  0  0  0  0  0  0  0  0  0
    7.2986  -13.6123   19.9075 C   0  0  0  0  0  0  0  0  0  0  0  0
    7.8162  -14.9934   20.1188 C   0  0  2  0  0  0  0  0  0  0  0  0
    6.8271  -15.9380   19.6643 N   0  0  0  0  0  0  0  0  0  0  0  0
    8.1561  -15.2377   21.5684 C   0  0  0  0  0  0  0  0  0  0  0  0
    7.2926  -15.0814   22.4594 O   0  0  0  0  0  0  0  0  0  0  0  0
    9.4575  -15.6483   21.9511 N   0  0  0  0  0  0  0  0  0  0  0  0
    9.7947  -15.9703   23.2884 C   0  0  0  0  0  0  0  0  0  0  0  0
   11.1776  -16.3429   23.5613 C   0  0  0  0  0  0  0  0  0  0  0  0
   11.6012  -17.4108   23.0280 O   0  0  0  0  0  0  0  0  0  0  0  0
   12.1081  -15.6349   24.3628 N   0  0  0  0  0  0  0  0  0  0  0  0
   13.4297  -15.2790   23.8371 C   0  0  0  0  0  0  0  0  0  0  0  0
   14.1719  -16.5130   23.5005 C   0  0  0  0  0  0  0  0  0  0  0  0
   14.4634  -16.7710   22.3093 O   0  0  0  0  0  0  0  0  0  0  0  0
   14.5478  -17.3913   24.5148 O   0  0  0  0  0  0  0  0  0  0  0  0
  2  1  1  0
  3  2  2  0
  4  2  1  0
  5  4  1  0
  6  5  1  0
  6  7  1  1
  8 10  1  0
  8  6  1  0
  9  8  2  0
 11 12  1  0
 11 10  1  0
 12 14  1  0
 13 12  2  0
 14 15  1  0
 15 16  1  0
 16 17  2  0
 16 18  1  0
M  END
$$$$
