QGG.pdb
     RDKit          3D

 18 17  0  0  1  0  0  0  0  0999 V2000
    8.3650  -12.9249   17.2768 N   0  0  0  0  0  0  0  0  0  0  0  0
    7.6145  -13.1696   18.4450 C   0  0  0  0  0  0  0  0  0  0  0  0
    6.3651  -13.2290   18.3382 O   0  0  0  0  0  0  0  0  0  0  0  0
    8.2646  -13.3493   19.7386 C   0  0  0  0  0  0  0  0  0  0  0  0
    9.7480  -13.3080   19.7471 C   0  0  0  0  0  0  0  0  0  0  0  0
   10.4267  -14.2493   18.8125 C   0  0  2  0  0  0  0  0  0  0  0  0
    9.8980  -15.5742   19.0176 N   0  0  0  0  0  0  0  0  0  0  0  0
   11.9223  -14.2385   19.0106 C   0  0  0  0  0  0  0  0  0  0  0  0
   12.5645  -13.1672   18.9491 O   0  0  0  0  0  0  0  0  0  0  0  0
   12.6303  -15.4385   19.2699 N   0  0  0  0  0  0  0  0  0  0  0  0
   14.0384  -15.4783   19.4172 C   0  0  0  0  0  0  0  0  0  0  0  0
   14.5674  -15.7164   20.7548 C   0  0  0  0  0  0  0  0  0  0  0  0
   15.4361  -14.9003   21.1830 O   0  0  0  0  0  0  0  0  0  0  0  0
   14.2122  -16.7681   21.6364 N   0  0  0  0  0  0  0  0  0  0  0  0
   13.7940  -16.4818   23.0122 C   0  0  0  0  0  0  0  0  0  0  0  0
   14.9388  -16.6872   23.9254 C   0  0  0  0  0  0  0  0  0  0  0  0
   16.0815  -16.9179   23.4656 O   0  0  0  0  0  0  0  0  0  0  0  0
   14.7432  -16.6231   25.3035 O   0  0  0  0  0  0  0  0  0  0  0  0
  2  1  1  0
  3  2  2  0
  4  2  1  0
  5  4  1  0
  6  5  1  0
  6  7  1  1
  8 10  1  0
  8  6  1  0
  9  8  2  0
 11 12  1  0
 11 10  1  0
 12 14  1  0
 13 12  2  0
 14 15  1  0
 15 16  1  0
 16 17  2  0
 16 18  1  0
M  END
$$$$
