VLT.pdb
     RDKit          3D

 23 22  0  0  1  0  0  0  0  0999 V2000
   24.6631  -18.1013  -16.4468 C   0  0  0  0  0  0  0  0  0  0  0  0
   25.8254  -18.9560  -16.8243 C   0  0  2  0  0  0  0  0  0  0  0  0
   25.3234  -20.0789  -17.7169 C   0  0  0  0  0  0  0  0  0  0  0  0
   26.5201  -19.5819  -15.6545 C   0  0  2  0  0  0  0  0  0  0  0  0
   27.7132  -20.2765  -16.0801 N   0  0  0  0  0  0  0  0  0  0  0  0
   25.6588  -20.4421  -14.8373 C   0  0  0  0  0  0  0  0  0  0  0  0
   25.3739  -21.5992  -15.2105 O   0  0  0  0  0  0  0  0  0  0  0  0
   26.0483  -20.3273   -9.3422 C   0  0  0  0  0  0  0  0  0  0  0  0
   25.8657  -20.7006  -10.7929 C   0  0  1  0  0  0  0  0  0  0  0  0
   26.0908  -22.2356  -10.8237 C   0  0  0  0  0  0  0  0  0  0  0  0
   24.5312  -20.3847  -11.3353 C   0  0  0  0  0  0  0  0  0  0  0  0
   24.2341  -20.7411  -12.7489 C   0  0  2  0  0  0  0  0  0  0  0  0
   25.1457  -19.9560  -13.6143 N   0  0  0  0  0  0  0  0  0  0  0  0
   22.8440  -20.5130  -13.1968 C   0  0  0  0  0  0  0  0  0  0  0  0
   22.5030  -19.3004  -13.4267 O   0  0  0  0  0  0  0  0  0  0  0  0
   20.9951  -23.1096  -15.7556 C   0  0  0  0  0  0  0  0  0  0  0  0
   20.7185  -21.6246  -15.5993 C   0  0  1  0  0  0  0  0  0  0  0  0
   19.5713  -21.3164  -16.3215 O   0  0  0  0  0  0  0  0  0  0  0  0
   20.6223  -21.2301  -14.1476 C   0  0  2  0  0  0  0  0  0  0  0  0
   21.8480  -21.4701  -13.4049 N   0  0  0  0  0  0  0  0  0  0  0  0
   19.4266  -21.8219  -13.5104 C   0  0  0  0  0  0  0  0  0  0  0  0
   18.1638  -21.5301  -13.9493 O   0  0  0  0  0  0  0  0  0  0  0  0
   19.5819  -22.6074  -12.5494 O   0  0  0  0  0  0  0  0  0  0  0  0
  2  1  1  1
  2  3  1  0
  4  2  1  0
  4  6  1  0
  4  5  1  6
  6  7  2  0
  6 13  1  0
  9  8  1  1
  9 11  1  0
  9 10  1  0
 12 11  1  1
 13 12  1  0
 14 12  1  0
 14 20  1  0
 15 14  2  0
 17 16  1  1
 18 17  1  0
 19 20  1  1
 19 17  1  0
 19 21  1  0
 21 22  1  0
 23 21  2  0
M  END
$$$$
