VLT.pdb
     RDKit          3D

 23 22  0  0  1  0  0  0  0  0999 V2000
   18.6774  -23.4836  -16.6778 C   0  0  0  0  0  0  0  0  0  0  0  0
   19.5005  -24.7097  -16.8852 C   0  0  2  0  0  0  0  0  0  0  0  0
   18.5624  -25.8960  -17.0342 C   0  0  0  0  0  0  0  0  0  0  0  0
   20.4347  -25.0087  -15.7535 C   0  0  2  0  0  0  0  0  0  0  0  0
   19.8433  -25.9587  -14.8397 N   0  0  0  0  0  0  0  0  0  0  0  0
   20.9236  -23.8184  -15.0510 C   0  0  0  0  0  0  0  0  0  0  0  0
   20.4128  -23.4609  -13.9691 O   0  0  0  0  0  0  0  0  0  0  0  0
   26.2592  -23.0052  -14.6204 C   0  0  0  0  0  0  0  0  0  0  0  0
   24.7827  -22.9493  -14.3138 C   0  0  1  0  0  0  0  0  0  0  0  0
   24.7190  -22.5902  -12.8056 C   0  0  0  0  0  0  0  0  0  0  0  0
   24.0407  -21.9421  -15.0946 C   0  0  0  0  0  0  0  0  0  0  0  0
   22.5620  -21.8728  -14.9454 C   0  0  2  0  0  0  0  0  0  0  0  0
   21.9845  -23.0678  -15.6047 N   0  0  0  0  0  0  0  0  0  0  0  0
   21.9103  -20.6666  -15.4982 C   0  0  0  0  0  0  0  0  0  0  0  0
   22.1601  -20.3849  -16.7219 O   0  0  0  0  0  0  0  0  0  0  0  0
   18.2692  -19.9261  -15.9631 C   0  0  0  0  0  0  0  0  0  0  0  0
   18.8772  -18.6951  -15.3143 C   0  0  1  0  0  0  0  0  0  0  0  0
   18.4768  -18.6609  -13.9834 O   0  0  0  0  0  0  0  0  0  0  0  0
   20.3755  -18.6671  -15.4777 C   0  0  2  0  0  0  0  0  0  0  0  0
   21.0434  -19.7899  -14.8414 N   0  0  0  0  0  0  0  0  0  0  0  0
   20.9323  -17.3554  -15.0837 C   0  0  0  0  0  0  0  0  0  0  0  0
   20.5390  -16.1977  -15.6983 O   0  0  0  0  0  0  0  0  0  0  0  0
   21.7808  -17.3116  -14.1658 O   0  0  0  0  0  0  0  0  0  0  0  0
  2  1  1  1
  2  3  1  0
  4  2  1  0
  4  6  1  0
  4  5  1  1
  6  7  2  0
  6 13  1  0
  9  8  1  6
  9 11  1  0
  9 10  1  0
 12 11  1  6
 13 12  1  0
 14 12  1  0
 14 20  1  0
 15 14  2  0
 17 16  1  1
 18 17  1  0
 19 20  1  1
 19 17  1  0
 19 21  1  0
 21 22  1  0
 23 21  2  0
M  END
$$$$
