VLT.pdb
     RDKit          3D

 23 22  0  0  1  0  0  0  0  0999 V2000
   26.1879  -19.0243  -16.1380 C   0  0  0  0  0  0  0  0  0  0  0  0
   27.3045  -18.6382  -15.2280 C   0  0  2  0  0  0  0  0  0  0  0  0
   28.3761  -17.9452  -16.0532 C   0  0  0  0  0  0  0  0  0  0  0  0
   27.9464  -19.7991  -14.5330 C   0  0  2  0  0  0  0  0  0  0  0  0
   28.5394  -20.7040  -15.4905 N   0  0  0  0  0  0  0  0  0  0  0  0
   27.0591  -20.5047  -13.6033 C   0  0  0  0  0  0  0  0  0  0  0  0
   26.4465  -21.5322  -13.9612 O   0  0  0  0  0  0  0  0  0  0  0  0
   25.5092  -21.8441   -8.3639 C   0  0  0  0  0  0  0  0  0  0  0  0
   25.4299  -20.4096   -8.8256 C   0  0  1  0  0  0  0  0  0  0  0  0
   25.8583  -19.5842   -7.5834 C   0  0  0  0  0  0  0  0  0  0  0  0
   26.3143  -20.0902   -9.9617 C   0  0  0  0  0  0  0  0  0  0  0  0
   25.9701  -20.6279  -11.3055 C   0  0  2  0  0  0  0  0  0  0  0  0
   26.8959  -20.0163  -12.2879 N   0  0  0  0  0  0  0  0  0  0  0  0
   24.5817  -20.4002  -11.7590 C   0  0  0  0  0  0  0  0  0  0  0  0
   24.2932  -19.2208  -12.1655 O   0  0  0  0  0  0  0  0  0  0  0  0
   20.6022  -21.6325  -14.2084 C   0  0  0  0  0  0  0  0  0  0  0  0
   22.0105  -21.8379  -13.6786 C   0  0  1  0  0  0  0  0  0  0  0  0
   22.9085  -21.4960  -14.6833 O   0  0  0  0  0  0  0  0  0  0  0  0
   22.2381  -21.0702  -12.4014 C   0  0  2  0  0  0  0  0  0  0  0  0
   23.5366  -21.3261  -11.8014 N   0  0  0  0  0  0  0  0  0  0  0  0
   21.1125  -21.2518  -11.4601 C   0  0  0  0  0  0  0  0  0  0  0  0
   19.8380  -20.8771  -11.7884 O   0  0  0  0  0  0  0  0  0  0  0  0
   21.3390  -21.7617  -10.3406 O   0  0  0  0  0  0  0  0  0  0  0  0
  2  1  1  6
  2  3  1  0
  4  2  1  0
  4  6  1  0
  4  5  1  6
  6  7  2  0
  6 13  1  0
  9  8  1  1
  9 11  1  0
  9 10  1  0
 12 11  1  1
 13 12  1  0
 14 12  1  0
 14 20  1  0
 15 14  2  0
 17 16  1  6
 18 17  1  0
 19 20  1  1
 19 17  1  0
 19 21  1  0
 21 22  1  0
 23 21  2  0
M  END
$$$$
