VLT.pdb
     RDKit          3D

 23 22  0  0  1  0  0  0  0  0999 V2000
   26.0078  -19.5277  -17.2105 C   0  0  0  0  0  0  0  0  0  0  0  0
   27.2871  -18.8874  -16.7892 C   0  0  2  0  0  0  0  0  0  0  0  0
   27.8747  -18.1596  -17.9869 C   0  0  0  0  0  0  0  0  0  0  0  0
   28.3158  -19.8588  -16.2985 C   0  0  2  0  0  0  0  0  0  0  0  0
   28.7119  -20.7612  -17.3549 N   0  0  0  0  0  0  0  0  0  0  0  0
   27.9221  -20.5865  -15.0882 C   0  0  0  0  0  0  0  0  0  0  0  0
   27.2725  -21.6501  -15.1657 O   0  0  0  0  0  0  0  0  0  0  0  0
   31.3414  -20.6850  -10.7494 C   0  0  0  0  0  0  0  0  0  0  0  0
   30.3051  -21.0755  -11.7745 C   0  0  1  0  0  0  0  0  0  0  0  0
   30.1967  -22.6176  -11.6400 C   0  0  0  0  0  0  0  0  0  0  0  0
   28.9802  -20.4650  -11.5579 C   0  0  0  0  0  0  0  0  0  0  0  0
   27.9017  -20.7340  -12.5468 C   0  0  2  0  0  0  0  0  0  0  0  0
   28.2820  -20.0784  -13.8202 N   0  0  0  0  0  0  0  0  0  0  0  0
   26.5467  -20.2805  -12.1679 C   0  0  0  0  0  0  0  0  0  0  0  0
   26.2881  -19.0368  -12.3284 O   0  0  0  0  0  0  0  0  0  0  0  0
   23.6921  -20.2649  -13.8633 C   0  0  0  0  0  0  0  0  0  0  0  0
   23.2075  -20.8649  -12.5551 C   0  0  1  0  0  0  0  0  0  0  0  0
   23.0122  -22.2280  -12.7465 O   0  0  0  0  0  0  0  0  0  0  0  0
   24.1549  -20.5606  -11.4229 C   0  0  2  0  0  0  0  0  0  0  0  0
   25.5025  -21.0530  -11.6538 N   0  0  0  0  0  0  0  0  0  0  0  0
   23.5910  -20.9865  -10.1242 C   0  0  0  0  0  0  0  0  0  0  0  0
   22.3811  -20.5232   -9.6834 O   0  0  0  0  0  0  0  0  0  0  0  0
   24.2405  -21.7899   -9.4190 O   0  0  0  0  0  0  0  0  0  0  0  0
  2  1  1  6
  2  3  1  0
  4  2  1  0
  4  6  1  0
  4  5  1  6
  6  7  2  0
  6 13  1  0
  9  8  1  1
  9 11  1  0
  9 10  1  0
 12 11  1  1
 13 12  1  0
 14 12  1  0
 14 20  1  0
 15 14  2  0
 17 16  1  6
 18 17  1  0
 19 20  1  6
 19 17  1  0
 19 21  1  0
 21 22  1  0
 23 21  2  0
M  END
$$$$
