VLT.pdb
     RDKit          3D

 23 22  0  0  1  0  0  0  0  0999 V2000
   24.1523  -20.6315  -14.7462 C   0  0  0  0  0  0  0  0  0  0  0  0
   22.7381  -20.8739  -15.1525 C   0  0  2  0  0  0  0  0  0  0  0  0
   22.4330  -20.0071  -16.3629 C   0  0  0  0  0  0  0  0  0  0  0  0
   21.7381  -20.5379  -14.0896 C   0  0  2  0  0  0  0  0  0  0  0  0
   21.6729  -19.1096  -13.8820 N   0  0  0  0  0  0  0  0  0  0  0  0
   21.9418  -21.2565  -12.8280 C   0  0  0  0  0  0  0  0  0  0  0  0
   21.9506  -22.5048  -12.7987 O   0  0  0  0  0  0  0  0  0  0  0  0
   25.6906  -19.3672   -9.3151 C   0  0  0  0  0  0  0  0  0  0  0  0
   24.7771  -20.2656  -10.1122 C   0  0  1  0  0  0  0  0  0  0  0  0
   25.4334  -21.6678  -10.0073 C   0  0  0  0  0  0  0  0  0  0  0  0
   23.3943  -20.3267   -9.6035 C   0  0  0  0  0  0  0  0  0  0  0  0
   22.4059  -21.1718  -10.3264 C   0  0  2  0  0  0  0  0  0  0  0  0
   22.1302  -20.5281  -11.6325 N   0  0  0  0  0  0  0  0  0  0  0  0
   21.1211  -21.4039   -9.6331 C   0  0  0  0  0  0  0  0  0  0  0  0
   20.2953  -20.4258   -9.6050 O   0  0  0  0  0  0  0  0  0  0  0  0
   18.2288  -22.7516  -10.6139 C   0  0  0  0  0  0  0  0  0  0  0  0
   18.4053  -23.4680   -9.2866 C   0  0  1  0  0  0  0  0  0  0  0  0
   18.7765  -24.7823   -9.5465 O   0  0  0  0  0  0  0  0  0  0  0  0
   19.3838  -22.7468   -8.3951 C   0  0  2  0  0  0  0  0  0  0  0  0
   20.6932  -22.5739   -9.0013 N   0  0  0  0  0  0  0  0  0  0  0  0
   19.4376  -23.3619   -7.0518 C   0  0  0  0  0  0  0  0  0  0  0  0
   20.6055  -23.8559   -6.5375 O   0  0  0  0  0  0  0  0  0  0  0  0
   18.3871  -23.4269   -6.3758 O   0  0  0  0  0  0  0  0  0  0  0  0
  2  1  1  1
  2  3  1  0
  4  2  1  0
  4  6  1  0
  4  5  1  1
  6  7  2  0
  6 13  1  0
  9  8  1  1
  9 11  1  0
  9 10  1  0
 12 11  1  1
 13 12  1  0
 14 12  1  0
 14 20  1  0
 15 14  2  0
 17 16  1  6
 18 17  1  0
 19 20  1  6
 19 17  1  0
 19 21  1  0
 21 22  1  0
 23 21  2  0
M  END
$$$$
