VLT.pdb
     RDKit          3D

 23 22  0  0  1  0  0  0  0  0999 V2000
   27.0369  -18.6092  -15.8536 C   0  0  0  0  0  0  0  0  0  0  0  0
   27.4394  -19.8676  -16.5452 C   0  0  2  0  0  0  0  0  0  0  0  0
   26.2733  -20.3384  -17.3986 C   0  0  0  0  0  0  0  0  0  0  0  0
   27.7977  -20.9821  -15.6113 C   0  0  2  0  0  0  0  0  0  0  0  0
   28.2641  -22.1352  -16.3463 N   0  0  0  0  0  0  0  0  0  0  0  0
   26.7326  -21.3389  -14.6691 C   0  0  0  0  0  0  0  0  0  0  0  0
   25.8873  -22.2102  -14.9613 O   0  0  0  0  0  0  0  0  0  0  0  0
   24.8989  -21.9141   -9.4505 C   0  0  0  0  0  0  0  0  0  0  0  0
   25.1578  -20.5138   -9.9498 C   0  0  1  0  0  0  0  0  0  0  0  0
   25.7941  -19.7868   -8.7355 C   0  0  0  0  0  0  0  0  0  0  0  0
   26.0723  -20.4429  -11.1045 C   0  0  0  0  0  0  0  0  0  0  0  0
   25.6080  -20.9733  -12.4146 C   0  0  2  0  0  0  0  0  0  0  0  0
   26.6622  -20.6892  -13.4167 N   0  0  0  0  0  0  0  0  0  0  0  0
   24.3244  -20.4362  -12.9136 C   0  0  0  0  0  0  0  0  0  0  0  0
   24.2929  -19.1887  -13.2001 O   0  0  0  0  0  0  0  0  0  0  0  0
   22.6026  -20.7017  -16.0211 C   0  0  0  0  0  0  0  0  0  0  0  0
   21.5294  -21.0271  -14.9972 C   0  0  1  0  0  0  0  0  0  0  0  0
   21.2921  -22.3964  -15.0345 O   0  0  0  0  0  0  0  0  0  0  0  0
   21.9078  -20.5338  -13.6240 C   0  0  2  0  0  0  0  0  0  0  0  0
   23.1304  -21.1326  -13.1156 N   0  0  0  0  0  0  0  0  0  0  0  0
   20.7704  -20.6393  -12.6853 C   0  0  0  0  0  0  0  0  0  0  0  0
   19.6368  -19.8903  -12.8481 O   0  0  0  0  0  0  0  0  0  0  0  0
   20.8539  -21.4349  -11.7237 O   0  0  0  0  0  0  0  0  0  0  0  0
  2  1  1  1
  2  3  1  0
  4  2  1  0
  4  6  1  0
  4  5  1  6
  6  7  2  0
  6 13  1  0
  9  8  1  1
  9 11  1  0
  9 10  1  0
 12 11  1  1
 13 12  1  0
 14 12  1  0
 14 20  1  0
 15 14  2  0
 17 16  1  6
 18 17  1  0
 19 20  1  1
 19 17  1  0
 19 21  1  0
 21 22  1  0
 23 21  2  0
M  END
$$$$
