VLT.pdb
     RDKit          3D

 23 22  0  0  1  0  0  0  0  0999 V2000
   28.1829  -18.1397  -16.8210 C   0  0  0  0  0  0  0  0  0  0  0  0
   27.1488  -18.9548  -16.1208 C   0  0  2  0  0  0  0  0  0  0  0  0
   26.0431  -18.0239  -15.6514 C   0  0  0  0  0  0  0  0  0  0  0  0
   27.6667  -19.6861  -14.9209 C   0  0  2  0  0  0  0  0  0  0  0  0
   28.7850  -20.5280  -15.2785 N   0  0  0  0  0  0  0  0  0  0  0  0
   26.6412  -20.4354  -14.1884 C   0  0  0  0  0  0  0  0  0  0  0  0
   26.2355  -21.5393  -14.6080 O   0  0  0  0  0  0  0  0  0  0  0  0
   26.2312  -19.9453   -8.5850 C   0  0  0  0  0  0  0  0  0  0  0  0
   26.2269  -20.5308   -9.9758 C   0  0  1  0  0  0  0  0  0  0  0  0
   26.1163  -22.0614   -9.7456 C   0  0  0  0  0  0  0  0  0  0  0  0
   25.1074  -20.0747  -10.8205 C   0  0  0  0  0  0  0  0  0  0  0  0
   25.0281  -20.5640  -12.2232 C   0  0  2  0  0  0  0  0  0  0  0  0
   26.1065  -19.9021  -12.9947 N   0  0  0  0  0  0  0  0  0  0  0  0
   23.7428  -20.3373  -12.9174 C   0  0  0  0  0  0  0  0  0  0  0  0
   23.4829  -19.1351  -13.2731 O   0  0  0  0  0  0  0  0  0  0  0  0
   21.6013  -23.2286  -15.1499 C   0  0  0  0  0  0  0  0  0  0  0  0
   21.5297  -21.7228  -15.3333 C   0  0  1  0  0  0  0  0  0  0  0  0
   20.3920  -21.4276  -16.0757 O   0  0  0  0  0  0  0  0  0  0  0  0
   21.5706  -21.0023  -14.0099 C   0  0  2  0  0  0  0  0  0  0  0  0
   22.7690  -21.2860  -13.2385 N   0  0  0  0  0  0  0  0  0  0  0  0
   20.3211  -21.2116  -13.2478 C   0  0  0  0  0  0  0  0  0  0  0  0
   19.1083  -20.8100  -13.7383 O   0  0  0  0  0  0  0  0  0  0  0  0
   20.3826  -21.7705  -12.1305 O   0  0  0  0  0  0  0  0  0  0  0  0
  2  1  1  1
  2  3  1  0
  4  2  1  0
  4  6  1  0
  4  5  1  6
  6  7  2  0
  6 13  1  0
  9  8  1  1
  9 11  1  0
  9 10  1  0
 12 11  1  1
 13 12  1  0
 14 12  1  0
 14 20  1  0
 15 14  2  0
 17 16  1  1
 18 17  1  0
 19 20  1  1
 19 17  1  0
 19 21  1  0
 21 22  1  0
 23 21  2  0
M  END
$$$$
