VLT.pdb
     RDKit          3D

 23 22  0  0  1  0  0  0  0  0999 V2000
   17.1748  -26.4021   -9.7769 C   0  0  0  0  0  0  0  0  0  0  0  0
   18.5764  -26.2238   -9.2997 C   0  0  2  0  0  0  0  0  0  0  0  0
   18.9691  -27.4542   -8.4989 C   0  0  0  0  0  0  0  0  0  0  0  0
   18.7669  -25.0283   -8.4181 C   0  0  2  0  0  0  0  0  0  0  0  0
   17.9681  -25.1442   -7.2198 N   0  0  0  0  0  0  0  0  0  0  0  0
   18.5429  -23.7459   -9.0925 C   0  0  0  0  0  0  0  0  0  0  0  0
   17.5534  -23.0393   -8.8080 O   0  0  0  0  0  0  0  0  0  0  0  0
   22.6874  -20.2406  -10.2433 C   0  0  0  0  0  0  0  0  0  0  0  0
   21.3113  -20.7681   -9.9188 C   0  0  1  0  0  0  0  0  0  0  0  0
   20.4984  -19.5037   -9.5338 C   0  0  0  0  0  0  0  0  0  0  0  0
   20.6491  -21.4604  -11.0399 C   0  0  0  0  0  0  0  0  0  0  0  0
   19.2944  -22.0354  -10.8217 C   0  0  2  0  0  0  0  0  0  0  0  0
   19.4570  -23.3052  -10.0751 N   0  0  0  0  0  0  0  0  0  0  0  0
   18.4990  -22.3014  -12.0390 C   0  0  0  0  0  0  0  0  0  0  0  0
   18.9143  -23.2380  -12.8069 O   0  0  0  0  0  0  0  0  0  0  0  0
   15.1256  -23.7801  -12.7039 C   0  0  0  0  0  0  0  0  0  0  0  0
   15.1729  -22.4192  -13.3759 C   0  0  1  0  0  0  0  0  0  0  0  0
   14.4809  -21.5148  -12.5784 O   0  0  0  0  0  0  0  0  0  0  0  0
   16.5905  -21.9901  -13.6561 C   0  0  2  0  0  0  0  0  0  0  0  0
   17.3354  -21.6502  -12.4556 N   0  0  0  0  0  0  0  0  0  0  0  0
   16.6356  -20.9351  -14.6910 C   0  0  0  0  0  0  0  0  0  0  0  0
   16.1868  -21.1620  -15.9636 O   0  0  0  0  0  0  0  0  0  0  0  0
   17.0948  -19.8119  -14.3875 O   0  0  0  0  0  0  0  0  0  0  0  0
  2  1  1  1
  2  3  1  0
  4  2  1  0
  4  6  1  0
  4  5  1  1
  6  7  2  0
  6 13  1  0
  9  8  1  6
  9 11  1  0
  9 10  1  0
 12 11  1  6
 13 12  1  0
 14 12  1  0
 14 20  1  0
 15 14  2  0
 17 16  1  1
 18 17  1  0
 19 20  1  1
 19 17  1  0
 19 21  1  0
 21 22  1  0
 23 21  2  0
M  END
$$$$
