ENW.pdb
     RDKit          3D

 32 33  0  0  1  0  0  0  0  0999 V2000
   24.0309  -18.6641  -17.8469 N   0  0  0  0  0  0  0  0  0  0  0  0
   23.4859  -19.9298  -17.3930 C   0  0  1  0  0  0  0  0  0  0  0  0
   22.9810  -20.7158  -18.5929 C   0  0  0  0  0  0  0  0  0  0  0  0
   22.9523  -19.7444  -19.7799 C   0  0  0  0  0  0  0  0  0  0  0  0
   21.7673  -18.8845  -19.7274 C   0  0  0  0  0  0  0  0  0  0  0  0
   21.7852  -17.8203  -19.0928 O   0  0  0  0  0  0  0  0  0  0  0  0
   24.5874  -20.6984  -16.7199 C   0  0  0  0  0  0  0  0  0  0  0  0
   24.4181  -21.9041  -16.3986 O   0  0  0  0  0  0  0  0  0  0  0  0
   20.5851  -19.2390  -20.3978 O   0  0  0  0  0  0  0  0  0  0  0  0
   28.2220  -23.1610  -16.9589 N   0  0  0  0  0  0  0  0  0  0  0  0
   28.7714  -21.8294  -17.0741 C   0  0  0  0  0  0  0  0  0  0  0  0
   29.8168  -21.7440  -17.7473 O   0  0  0  0  0  0  0  0  0  0  0  0
   28.1233  -20.7073  -16.4399 C   0  0  0  0  0  0  0  0  0  0  0  0
   26.8626  -20.9030  -15.6614 C   0  0  2  0  0  0  0  0  0  0  0  0
   25.8379  -20.1282  -16.4156 N   0  0  0  0  0  0  0  0  0  0  0  0
   26.8727  -20.4547  -14.2714 C   0  0  0  0  0  0  0  0  0  0  0  0
   27.1114  -19.2267  -13.9680 O   0  0  0  0  0  0  0  0  0  0  0  0
   26.6211  -21.2877  -13.1768 N   0  0  0  0  0  0  0  0  0  0  0  0
   26.6541  -20.8683  -11.7689 C   0  0  1  0  0  0  0  0  0  0  0  0
   25.8813  -19.6208  -11.5737 C   0  0  0  0  0  0  0  0  0  0  0  0
   24.4377  -19.8577  -11.4710 C   0  0  0  0  0  0  0  0  0  0  0  0
   23.7386  -20.1528  -10.2908 C   0  0  0  0  0  0  0  0  0  0  0  0
   22.4418  -20.3497  -10.5706 N   0  0  0  0  0  0  0  0  0  0  0  0
   22.2204  -20.2055  -11.8795 C   0  0  0  0  0  0  0  0  0  0  0  0
   21.0677  -20.2931  -12.6426 C   0  0  0  0  0  0  0  0  0  0  0  0
   21.1381  -20.0715  -13.9995 C   0  0  0  0  0  0  0  0  0  0  0  0
   22.3533  -19.7684  -14.5690 C   0  0  0  0  0  0  0  0  0  0  0  0
   23.5066  -19.6810  -13.8079 C   0  0  0  0  0  0  0  0  0  0  0  0
   23.4404  -19.9024  -12.4483 C   0  0  0  0  0  0  0  0  0  0  0  0
   26.3596  -21.9518  -10.8764 C   0  0  0  0  0  0  0  0  0  0  0  0
   26.4745  -21.9226   -9.5068 O   0  0  0  0  0  0  0  0  0  0  0  0
   25.9554  -23.0691  -11.3603 O   0  0  0  0  0  0  0  0  0  0  0  0
  2  1  1  6
  2  3  1  0
  3  4  1  0
  4  5  1  0
  5  9  1  0
  6  5  2  0
  7  2  1  0
  8  7  2  0
 10 11  1  0
 11 12  2  0
 13 11  1  0
 14 13  1  6
 14 15  1  0
 15  7  1  0
 16 18  1  0
 16 14  1  0
 17 16  2  0
 19 18  1  0
 19 20  1  6
 20 21  1  0
 21 29  1  0
 21 22  2  0
 22 23  1  0
 24 23  1  0
 24 25  2  0
 26 25  1  0
 27 26  2  0
 28 29  2  0
 28 27  1  0
 29 24  1  0
 30 31  1  0
 30 19  1  0
 32 30  2  0
M  END
$$$$
