ENW.pdb
     RDKit          3D

 32 33  0  0  1  0  0  0  0  0999 V2000
   28.5086  -17.8979  -16.2580 N   0  0  0  0  0  0  0  0  0  0  0  0
   27.1650  -17.4265  -15.9798 C   0  0  1  0  0  0  0  0  0  0  0  0
   26.8780  -16.2015  -16.8337 C   0  0  0  0  0  0  0  0  0  0  0  0
   28.2361  -15.6042  -17.2239 C   0  0  0  0  0  0  0  0  0  0  0  0
   28.0713  -14.4917  -18.1628 C   0  0  0  0  0  0  0  0  0  0  0  0
   29.0585  -13.9067  -18.6305 O   0  0  0  0  0  0  0  0  0  0  0  0
   26.2017  -18.5223  -16.3384 C   0  0  0  0  0  0  0  0  0  0  0  0
   25.3322  -18.3388  -17.2306 O   0  0  0  0  0  0  0  0  0  0  0  0
   26.7943  -14.0636  -18.5614 O   0  0  0  0  0  0  0  0  0  0  0  0
   26.1914  -20.5456  -18.8994 N   0  0  0  0  0  0  0  0  0  0  0  0
   26.6202  -21.6796  -18.1132 C   0  0  0  0  0  0  0  0  0  0  0  0
   27.4365  -22.4356  -18.6750 O   0  0  0  0  0  0  0  0  0  0  0  0
   26.1152  -21.8835  -16.7772 C   0  0  0  0  0  0  0  0  0  0  0  0
   25.2578  -20.8467  -16.1264 C   0  0  2  0  0  0  0  0  0  0  0  0
   26.2143  -19.7826  -15.7117 N   0  0  0  0  0  0  0  0  0  0  0  0
   24.4823  -21.2711  -14.9636 C   0  0  0  0  0  0  0  0  0  0  0  0
   23.2902  -21.7398  -15.0915 O   0  0  0  0  0  0  0  0  0  0  0  0
   24.9510  -21.2201  -13.6472 N   0  0  0  0  0  0  0  0  0  0  0  0
   24.1943  -21.6474  -12.4623 C   0  0  1  0  0  0  0  0  0  0  0  0
   25.0919  -22.2636  -11.4592 C   0  0  0  0  0  0  0  0  0  0  0  0
   25.8968  -21.2747  -10.7346 C   0  0  0  0  0  0  0  0  0  0  0  0
   25.4012  -20.3092   -9.8453 C   0  0  0  0  0  0  0  0  0  0  0  0
   26.4097  -19.5468   -9.3976 N   0  0  0  0  0  0  0  0  0  0  0  0
   27.5663  -19.9411   -9.9358 C   0  0  0  0  0  0  0  0  0  0  0  0
   28.8663  -19.4891   -9.7796 C   0  0  0  0  0  0  0  0  0  0  0  0
   29.8850  -20.1148  -10.4622 C   0  0  0  0  0  0  0  0  0  0  0  0
   29.5895  -21.1761  -11.2863 C   0  0  0  0  0  0  0  0  0  0  0  0
   28.2906  -21.6289  -11.4440 C   0  0  0  0  0  0  0  0  0  0  0  0
   27.2672  -21.0047  -10.7622 C   0  0  0  0  0  0  0  0  0  0  0  0
   23.3102  -20.6222  -11.9885 C   0  0  0  0  0  0  0  0  0  0  0  0
   23.3780  -19.2871  -12.3093 O   0  0  0  0  0  0  0  0  0  0  0  0
   22.3603  -20.9366  -11.1857 O   0  0  0  0  0  0  0  0  0  0  0  0
  2  1  1  6
  2  3  1  0
  3  4  1  0
  4  5  1  0
  5  9  1  0
  6  5  2  0
  7  2  1  0
  8  7  2  0
 10 11  1  0
 11 12  2  0
 13 11  1  0
 14 13  1  1
 14 15  1  0
 15  7  1  0
 16 18  1  0
 16 14  1  0
 17 16  2  0
 19 18  1  0
 19 20  1  1
 20 21  1  0
 21 29  1  0
 21 22  2  0
 22 23  1  0
 24 23  1  0
 24 25  2  0
 26 25  1  0
 27 26  2  0
 28 29  2  0
 28 27  1  0
 29 24  1  0
 30 31  1  0
 30 19  1  0
 32 30  2  0
M  END
$$$$
