ENW.pdb
     RDKit          3D

 32 33  0  0  1  0  0  0  0  0999 V2000
   32.6889  -24.7432  -14.9061 N   0  0  0  0  0  0  0  0  0  0  0  0
   32.9334  -25.2408  -16.2468 C   0  0  1  0  0  0  0  0  0  0  0  0
   34.3797  -25.6980  -16.3545 C   0  0  0  0  0  0  0  0  0  0  0  0
   35.2273  -24.4397  -16.5826 C   0  0  0  0  0  0  0  0  0  0  0  0
   35.7109  -24.3746  -17.9639 C   0  0  0  0  0  0  0  0  0  0  0  0
   36.8603  -24.7391  -18.2499 O   0  0  0  0  0  0  0  0  0  0  0  0
   32.0208  -26.4103  -16.4849 C   0  0  0  0  0  0  0  0  0  0  0  0
   31.8802  -27.2979  -15.6028 O   0  0  0  0  0  0  0  0  0  0  0  0
   34.8857  -23.9047  -18.9988 O   0  0  0  0  0  0  0  0  0  0  0  0
   27.0246  -28.3597  -17.6836 N   0  0  0  0  0  0  0  0  0  0  0  0
   27.9972  -28.0133  -18.6946 C   0  0  0  0  0  0  0  0  0  0  0  0
   27.7849  -28.4992  -19.8226 O   0  0  0  0  0  0  0  0  0  0  0  0
   29.1181  -27.1621  -18.3780 C   0  0  0  0  0  0  0  0  0  0  0  0
   30.3909  -27.7493  -17.8594 C   0  0  2  0  0  0  0  0  0  0  0  0
   31.2922  -26.5773  -17.6776 N   0  0  0  0  0  0  0  0  0  0  0  0
   31.0542  -28.7344  -18.7097 C   0  0  0  0  0  0  0  0  0  0  0  0
   31.8357  -28.3719  -19.6662 O   0  0  0  0  0  0  0  0  0  0  0  0
   30.9158  -30.1180  -18.5620 N   0  0  0  0  0  0  0  0  0  0  0  0
   31.5170  -31.1276  -19.4443 C   0  0  1  0  0  0  0  0  0  0  0  0
   31.6287  -32.4313  -18.7520 C   0  0  0  0  0  0  0  0  0  0  0  0
   32.3496  -33.4340  -19.5429 C   0  0  0  0  0  0  0  0  0  0  0  0
   33.6683  -33.3163  -20.0077 C   0  0  0  0  0  0  0  0  0  0  0  0
   33.9910  -34.3986  -20.7310 N   0  0  0  0  0  0  0  0  0  0  0  0
   32.9614  -35.2472  -20.7847 C   0  0  0  0  0  0  0  0  0  0  0  0
   32.8079  -36.4857  -21.3856 C   0  0  0  0  0  0  0  0  0  0  0  0
   31.6125  -37.1560  -21.2545 C   0  0  0  0  0  0  0  0  0  0  0  0
   30.5949  -36.5801  -20.5296 C   0  0  0  0  0  0  0  0  0  0  0  0
   30.7464  -35.3419  -19.9287 C   0  0  0  0  0  0  0  0  0  0  0  0
   31.9422  -34.6671  -20.0578 C   0  0  0  0  0  0  0  0  0  0  0  0
   30.9076  -31.1406  -20.7427 C   0  0  0  0  0  0  0  0  0  0  0  0
   31.5314  -31.4680  -21.9232 O   0  0  0  0  0  0  0  0  0  0  0  0
   29.6713  -30.8178  -20.8571 O   0  0  0  0  0  0  0  0  0  0  0  0
  2  1  1  1
  2  3  1  0
  3  4  1  0
  4  5  1  0
  5  9  1  0
  6  5  2  0
  7  2  1  0
  8  7  2  0
 10 11  1  0
 11 12  2  0
 13 11  1  0
 14 13  1  6
 14 15  1  0
 15  7  1  0
 16 18  1  0
 16 14  1  0
 17 16  2  0
 19 18  1  0
 19 20  1  1
 20 21  1  0
 21 29  1  0
 21 22  2  0
 22 23  1  0
 24 23  1  0
 24 25  2  0
 26 25  1  0
 27 26  2  0
 28 29  2  0
 28 27  1  0
 29 24  1  0
 30 31  1  0
 30 19  1  0
 32 30  2  0
M  END
$$$$
