ENW.pdb
     RDKit          3D

 32 33  0  0  1  0  0  0  0  0999 V2000
   27.8789  -34.3275  -15.8848 N   0  0  0  0  0  0  0  0  0  0  0  0
   27.3803  -33.0114  -15.5321 C   0  0  1  0  0  0  0  0  0  0  0  0
   28.1037  -31.9634  -16.3631 C   0  0  0  0  0  0  0  0  0  0  0  0
   29.5313  -31.8661  -15.8101 C   0  0  0  0  0  0  0  0  0  0  0  0
   30.5157  -31.8493  -16.8951 C   0  0  0  0  0  0  0  0  0  0  0  0
   30.1568  -31.9515  -18.0767 O   0  0  0  0  0  0  0  0  0  0  0  0
   25.9111  -32.9694  -15.8438 C   0  0  0  0  0  0  0  0  0  0  0  0
   25.4555  -33.5790  -16.8471 O   0  0  0  0  0  0  0  0  0  0  0  0
   31.8874  -31.7112  -16.6263 O   0  0  0  0  0  0  0  0  0  0  0  0
   21.7379  -31.4445  -12.4746 N   0  0  0  0  0  0  0  0  0  0  0  0
   22.8973  -32.1843  -12.9179 C   0  0  0  0  0  0  0  0  0  0  0  0
   23.8699  -32.1618  -12.1389 O   0  0  0  0  0  0  0  0  0  0  0  0
   22.8864  -32.8854  -14.1788 C   0  0  0  0  0  0  0  0  0  0  0  0
   23.5326  -32.2834  -15.3845 C   0  0  2  0  0  0  0  0  0  0  0  0
   24.9850  -32.2622  -15.0541 N   0  0  0  0  0  0  0  0  0  0  0  0
   23.1073  -30.9358  -15.7538 C   0  0  0  0  0  0  0  0  0  0  0  0
   23.6155  -29.8971  -15.1883 O   0  0  0  0  0  0  0  0  0  0  0  0
   22.1478  -30.6567  -16.7320 N   0  0  0  0  0  0  0  0  0  0  0  0
   21.6762  -29.3135  -17.0959 C   0  0  1  0  0  0  0  0  0  0  0  0
   21.8910  -29.0534  -18.5373 C   0  0  0  0  0  0  0  0  0  0  0  0
   21.0472  -29.8900  -19.3968 C   0  0  0  0  0  0  0  0  0  0  0  0
   19.6844  -29.6817  -19.6583 C   0  0  0  0  0  0  0  0  0  0  0  0
   19.2215  -30.6596  -20.4508 N   0  0  0  0  0  0  0  0  0  0  0  0
   20.1965  -31.5240  -20.7424 C   0  0  0  0  0  0  0  0  0  0  0  0
   20.2214  -32.6693  -21.5211 C   0  0  0  0  0  0  0  0  0  0  0  0
   21.4011  -33.3652  -21.6604 C   0  0  0  0  0  0  0  0  0  0  0  0
   22.5307  -32.9081  -21.0217 C   0  0  0  0  0  0  0  0  0  0  0  0
   22.5075  -31.7639  -20.2425 C   0  0  0  0  0  0  0  0  0  0  0  0
   21.3278  -31.0639  -20.1003 C   0  0  0  0  0  0  0  0  0  0  0  0
   20.3631  -29.0460  -16.5843 C   0  0  0  0  0  0  0  0  0  0  0  0
   19.4988  -29.9752  -16.0555 O   0  0  0  0  0  0  0  0  0  0  0  0
   19.9142  -27.8445  -16.6097 O   0  0  0  0  0  0  0  0  0  0  0  0
  2  1  1  6
  2  3  1  0
  3  4  1  0
  4  5  1  0
  5  9  1  0
  6  5  2  0
  7  2  1  0
  8  7  2  0
 10 11  1  0
 11 12  2  0
 13 11  1  0
 14 13  1  1
 14 15  1  0
 15  7  1  0
 16 18  1  0
 16 14  1  0
 17 16  2  0
 19 18  1  0
 19 20  1  6
 20 21  1  0
 21 29  1  0
 21 22  2  0
 22 23  1  0
 24 23  1  0
 24 25  2  0
 26 25  1  0
 27 26  2  0
 28 29  2  0
 28 27  1  0
 29 24  1  0
 30 31  1  0
 30 19  1  0
 32 30  2  0
M  END
$$$$
