ENW.pdb
     RDKit          3D

 32 33  0  0  1  0  0  0  0  0999 V2000
   24.1088  -20.2044  -17.1374 N   0  0  0  0  0  0  0  0  0  0  0  0
   25.2988  -19.7194  -16.4637 C   0  0  1  0  0  0  0  0  0  0  0  0
   25.7943  -18.4646  -17.1653 C   0  0  0  0  0  0  0  0  0  0  0  0
   26.3188  -18.9018  -18.5391 C   0  0  0  0  0  0  0  0  0  0  0  0
   27.5876  -19.6232  -18.4124 C   0  0  0  0  0  0  0  0  0  0  0  0
   28.5225  -19.1481  -17.7523 O   0  0  0  0  0  0  0  0  0  0  0  0
   24.9300  -19.3864  -15.0458 C   0  0  0  0  0  0  0  0  0  0  0  0
   24.3697  -18.2919  -14.7740 O   0  0  0  0  0  0  0  0  0  0  0  0
   27.7758  -20.8712  -19.0287 O   0  0  0  0  0  0  0  0  0  0  0  0
   21.6168  -21.1901  -11.2783 N   0  0  0  0  0  0  0  0  0  0  0  0
   22.3994  -20.0019  -11.5306 C   0  0  0  0  0  0  0  0  0  0  0  0
   22.3000  -19.1086  -10.6670 O   0  0  0  0  0  0  0  0  0  0  0  0
   23.2240  -19.8991  -12.7099 C   0  0  0  0  0  0  0  0  0  0  0  0
   24.7140  -19.9218  -12.5952 C   0  0  2  0  0  0  0  0  0  0  0  0
   25.1859  -20.2552  -13.9682 N   0  0  0  0  0  0  0  0  0  0  0  0
   25.2854  -20.8767  -11.6490 C   0  0  0  0  0  0  0  0  0  0  0  0
   25.3284  -22.1354  -11.9151 O   0  0  0  0  0  0  0  0  0  0  0  0
   25.8315  -20.5230  -10.4113 N   0  0  0  0  0  0  0  0  0  0  0  0
   26.2004  -21.4678   -9.3481 C   0  0  1  0  0  0  0  0  0  0  0  0
   27.6082  -21.2707   -8.9348 C   0  0  0  0  0  0  0  0  0  0  0  0
   27.7638  -20.2042   -7.9403 C   0  0  0  0  0  0  0  0  0  0  0  0
   27.1959  -18.9235   -8.0180 C   0  0  0  0  0  0  0  0  0  0  0  0
   27.5790  -18.1941   -6.9597 N   0  0  0  0  0  0  0  0  0  0  0  0
   28.3788  -18.9098   -6.1654 C   0  0  0  0  0  0  0  0  0  0  0  0
   29.0080  -18.6120   -4.9679 C   0  0  0  0  0  0  0  0  0  0  0  0
   29.7736  -19.5750   -4.3500 C   0  0  0  0  0  0  0  0  0  0  0  0
   29.8982  -20.8133   -4.9364 C   0  0  0  0  0  0  0  0  0  0  0  0
   29.2704  -21.1125   -6.1336 C   0  0  0  0  0  0  0  0  0  0  0  0
   28.5027  -20.1506   -6.7559 C   0  0  0  0  0  0  0  0  0  0  0  0
   25.2232  -21.5073   -8.2989 C   0  0  0  0  0  0  0  0  0  0  0  0
   24.1023  -20.7162   -8.2104 O   0  0  0  0  0  0  0  0  0  0  0  0
   25.3749  -22.3379   -7.3331 O   0  0  0  0  0  0  0  0  0  0  0  0
  2  1  1  6
  2  3  1  0
  3  4  1  0
  4  5  1  0
  5  9  1  0
  6  5  2  0
  7  2  1  0
  8  7  2  0
 10 11  1  0
 11 12  2  0
 13 11  1  0
 14 13  1  6
 14 15  1  0
 15  7  1  0
 16 18  1  0
 16 14  1  0
 17 16  2  0
 19 18  1  0
 19 20  1  1
 20 21  1  0
 21 29  1  0
 21 22  2  0
 22 23  1  0
 24 23  1  0
 24 25  2  0
 26 25  1  0
 27 26  2  0
 28 29  2  0
 28 27  1  0
 29 24  1  0
 30 31  1  0
 30 19  1  0
 32 30  2  0
M  END
$$$$
