ENW.pdb
     RDKit          3D

 32 33  0  0  1  0  0  0  0  0999 V2000
   28.0800  -20.8209  -15.2251 N   0  0  0  0  0  0  0  0  0  0  0  0
   27.4325  -22.0265  -15.7069 C   0  0  1  0  0  0  0  0  0  0  0  0
   28.4609  -23.1426  -15.8019 C   0  0  0  0  0  0  0  0  0  0  0  0
   29.5720  -22.6443  -16.7350 C   0  0  0  0  0  0  0  0  0  0  0  0
   29.1826  -22.7877  -18.1400 C   0  0  0  0  0  0  0  0  0  0  0  0
   28.1693  -23.4283  -18.4537 O   0  0  0  0  0  0  0  0  0  0  0  0
   26.3675  -22.4113  -14.7195 C   0  0  0  0  0  0  0  0  0  0  0  0
   25.7010  -23.4674  -14.8812 O   0  0  0  0  0  0  0  0  0  0  0  0
   29.9413  -22.1997  -19.1655 O   0  0  0  0  0  0  0  0  0  0  0  0
   25.4780  -20.0161   -9.4997 N   0  0  0  0  0  0  0  0  0  0  0  0
   25.7686  -20.4145  -10.8580 C   0  0  0  0  0  0  0  0  0  0  0  0
   26.2156  -19.5110  -11.5910 O   0  0  0  0  0  0  0  0  0  0  0  0
   25.5435  -21.7718  -11.2922 C   0  0  0  0  0  0  0  0  0  0  0  0
   24.9815  -22.0483  -12.6492 C   0  0  2  0  0  0  0  0  0  0  0  0
   26.0602  -21.6319  -13.5883 N   0  0  0  0  0  0  0  0  0  0  0  0
   23.7463  -21.3535  -13.0026 C   0  0  0  0  0  0  0  0  0  0  0  0
   23.7550  -20.1167  -13.3595 O   0  0  0  0  0  0  0  0  0  0  0  0
   22.4818  -21.9504  -12.9974 N   0  0  0  0  0  0  0  0  0  0  0  0
   21.2361  -21.2976  -13.4233 C   0  0  1  0  0  0  0  0  0  0  0  0
   21.0716  -21.3862  -14.8919 C   0  0  0  0  0  0  0  0  0  0  0  0
   20.8133  -22.7544  -15.3524 C   0  0  0  0  0  0  0  0  0  0  0  0
   19.5936  -23.4390  -15.2408 C   0  0  0  0  0  0  0  0  0  0  0  0
   19.7266  -24.6818  -15.7270 N   0  0  0  0  0  0  0  0  0  0  0  0
   20.9729  -24.8808  -16.1629 C   0  0  0  0  0  0  0  0  0  0  0  0
   21.5885  -25.9729  -16.7519 C   0  0  0  0  0  0  0  0  0  0  0  0
   22.9107  -25.8826  -17.1247 C   0  0  0  0  0  0  0  0  0  0  0  0
   23.5930  -24.7086  -16.9030 C   0  0  0  0  0  0  0  0  0  0  0  0
   22.9793  -23.6161  -16.3139 C   0  0  0  0  0  0  0  0  0  0  0  0
   21.6551  -23.7026  -15.9389 C   0  0  0  0  0  0  0  0  0  0  0  0
   20.1148  -21.7035  -12.6263 C   0  0  0  0  0  0  0  0  0  0  0  0
   19.9341  -22.9433  -12.0604 O   0  0  0  0  0  0  0  0  0  0  0  0
   19.1698  -20.8652  -12.4026 O   0  0  0  0  0  0  0  0  0  0  0  0
  2  1  1  1
  2  3  1  0
  3  4  1  0
  4  5  1  0
  5  9  1  0
  6  5  2  0
  7  2  1  0
  8  7  2  0
 10 11  1  0
 11 12  2  0
 13 11  1  0
 14 13  1  1
 14 15  1  0
 15  7  1  0
 16 18  1  0
 16 14  1  0
 17 16  2  0
 19 18  1  0
 19 20  1  6
 20 21  1  0
 21 29  1  0
 21 22  2  0
 22 23  1  0
 24 23  1  0
 24 25  2  0
 26 25  1  0
 27 26  2  0
 28 29  2  0
 28 27  1  0
 29 24  1  0
 30 31  1  0
 30 19  1  0
 32 30  2  0
M  END
$$$$
