ENW.pdb
     RDKit          3D

 32 33  0  0  1  0  0  0  0  0999 V2000
   27.0105  -17.3700  -15.9663 N   0  0  0  0  0  0  0  0  0  0  0  0
   26.7155  -17.4377  -14.5473 C   0  0  1  0  0  0  0  0  0  0  0  0
   25.8778  -16.2315  -14.1527 C   0  0  0  0  0  0  0  0  0  0  0  0
   26.3100  -15.0741  -15.0621 C   0  0  0  0  0  0  0  0  0  0  0  0
   25.3890  -14.9200  -16.1910 C   0  0  0  0  0  0  0  0  0  0  0  0
   24.1936  -15.2270  -16.0790 O   0  0  0  0  0  0  0  0  0  0  0  0
   25.9328  -18.6945  -14.2923 C   0  0  0  0  0  0  0  0  0  0  0  0
   25.0784  -19.0929  -15.1272 O   0  0  0  0  0  0  0  0  0  0  0  0
   25.8332  -14.4161  -17.4245 O   0  0  0  0  0  0  0  0  0  0  0  0
   26.9792  -21.6629  -16.0352 N   0  0  0  0  0  0  0  0  0  0  0  0
   28.1088  -21.1651  -15.2840 C   0  0  0  0  0  0  0  0  0  0  0  0
   29.1932  -21.1603  -15.8985 O   0  0  0  0  0  0  0  0  0  0  0  0
   27.9481  -20.7151  -13.9227 C   0  0  0  0  0  0  0  0  0  0  0  0
   26.6341  -20.8651  -13.2267 C   0  0  2  0  0  0  0  0  0  0  0  0
   26.1036  -19.4762  -13.1342 N   0  0  0  0  0  0  0  0  0  0  0  0
   26.6619  -21.4555  -11.8910 C   0  0  0  0  0  0  0  0  0  0  0  0
   26.8762  -22.7135  -11.7218 O   0  0  0  0  0  0  0  0  0  0  0  0
   26.4757  -20.7314  -10.7094 N   0  0  0  0  0  0  0  0  0  0  0  0
   26.3821  -21.3158   -9.3645 C   0  0  1  0  0  0  0  0  0  0  0  0
   27.6893  -21.2541   -8.6723 C   0  0  0  0  0  0  0  0  0  0  0  0
   27.7050  -20.2813   -7.5751 C   0  0  0  0  0  0  0  0  0  0  0  0
   27.0520  -19.0394   -7.5729 C   0  0  0  0  0  0  0  0  0  0  0  0
   27.3146  -18.3925   -6.4278 N   0  0  0  0  0  0  0  0  0  0  0  0
   28.1131  -19.1275   -5.6499 C   0  0  0  0  0  0  0  0  0  0  0  0
   28.6432  -18.9064   -4.3895 C   0  0  0  0  0  0  0  0  0  0  0  0
   29.4366  -19.8721   -3.8120 C   0  0  0  0  0  0  0  0  0  0  0  0
   29.6866  -21.0367   -4.5005 C   0  0  0  0  0  0  0  0  0  0  0  0
   29.1580  -21.2591   -5.7607 C   0  0  0  0  0  0  0  0  0  0  0  0
   28.3629  -20.2942   -6.3427 C   0  0  0  0  0  0  0  0  0  0  0  0
   25.2479  -20.8209   -8.6392 C   0  0  0  0  0  0  0  0  0  0  0  0
   24.3947  -19.8270   -9.0565 O   0  0  0  0  0  0  0  0  0  0  0  0
   24.9737  -21.3201   -7.4897 O   0  0  0  0  0  0  0  0  0  0  0  0
  2  1  1  6
  2  3  1  0
  3  4  1  0
  4  5  1  0
  5  9  1  0
  6  5  2  0
  7  2  1  0
  8  7  2  0
 10 11  1  0
 11 12  2  0
 13 11  1  0
 14 13  1  1
 14 15  1  0
 15  7  1  0
 16 18  1  0
 16 14  1  0
 17 16  2  0
 19 18  1  0
 19 20  1  1
 20 21  1  0
 21 29  1  0
 21 22  2  0
 22 23  1  0
 24 23  1  0
 24 25  2  0
 26 25  1  0
 27 26  2  0
 28 29  2  0
 28 27  1  0
 29 24  1  0
 30 31  1  0
 30 19  1  0
 32 30  2  0
M  END
$$$$
