ENW.pdb
     RDKit          3D

 32 33  0  0  1  0  0  0  0  0999 V2000
   23.0517  -20.2439  -13.8066 N   0  0  0  0  0  0  0  0  0  0  0  0
   23.6391  -20.5908  -15.0871 C   0  0  1  0  0  0  0  0  0  0  0  0
   23.5734  -19.3845  -16.0106 C   0  0  0  0  0  0  0  0  0  0  0  0
   22.2570  -18.6599  -15.7016 C   0  0  0  0  0  0  0  0  0  0  0  0
   21.4368  -18.5221  -16.9076 C   0  0  0  0  0  0  0  0  0  0  0  0
   20.2048  -18.6432  -16.8523 O   0  0  0  0  0  0  0  0  0  0  0  0
   25.0755  -20.9656  -14.8561 C   0  0  0  0  0  0  0  0  0  0  0  0
   25.8305  -21.2244  -15.8301 O   0  0  0  0  0  0  0  0  0  0  0  0
   22.0222  -18.2440  -18.1537 O   0  0  0  0  0  0  0  0  0  0  0  0
   28.3104  -18.2178  -12.8029 N   0  0  0  0  0  0  0  0  0  0  0  0
   27.5392  -18.9226  -13.8013 C   0  0  0  0  0  0  0  0  0  0  0  0
   26.6475  -18.2499  -14.3543 O   0  0  0  0  0  0  0  0  0  0  0  0
   27.8159  -20.3054  -14.1057 C   0  0  0  0  0  0  0  0  0  0  0  0
   27.0815  -21.3973  -13.3971 C   0  0  2  0  0  0  0  0  0  0  0  0
   25.6435  -21.0494  -13.5708 N   0  0  0  0  0  0  0  0  0  0  0  0
   27.3641  -21.5627  -11.9736 C   0  0  0  0  0  0  0  0  0  0  0  0
   28.5595  -21.4407  -11.5120 O   0  0  0  0  0  0  0  0  0  0  0  0
   26.3927  -21.8485  -11.0093 N   0  0  0  0  0  0  0  0  0  0  0  0
   26.3644  -21.2974   -9.6474 C   0  0  1  0  0  0  0  0  0  0  0  0
   27.5451  -20.4384   -9.4032 C   0  0  0  0  0  0  0  0  0  0  0  0
   27.5726  -19.8842   -8.0457 C   0  0  0  0  0  0  0  0  0  0  0  0
   26.5520  -19.1281   -7.4495 C   0  0  0  0  0  0  0  0  0  0  0  0
   26.9291  -18.7500   -6.2192 N   0  0  0  0  0  0  0  0  0  0  0  0
   28.1535  -19.2075   -5.9460 C   0  0  0  0  0  0  0  0  0  0  0  0
   28.9576  -19.0983   -4.8235 C   0  0  0  0  0  0  0  0  0  0  0  0
   30.1943  -19.7032   -4.8177 C   0  0  0  0  0  0  0  0  0  0  0  0
   30.6056  -20.4030   -5.9286 C   0  0  0  0  0  0  0  0  0  0  0  0
   29.8033  -20.5127   -7.0517 C   0  0  0  0  0  0  0  0  0  0  0  0
   28.5638  -19.9082   -7.0615 C   0  0  0  0  0  0  0  0  0  0  0  0
   25.0851  -20.7383   -9.3184 C   0  0  0  0  0  0  0  0  0  0  0  0
   24.4220  -20.8895   -8.1236 O   0  0  0  0  0  0  0  0  0  0  0  0
   24.4672  -20.0317  -10.1928 O   0  0  0  0  0  0  0  0  0  0  0  0
  2  1  1  1
  2  3  1  0
  3  4  1  0
  4  5  1  0
  5  9  1  0
  6  5  2  0
  7  2  1  0
  8  7  2  0
 10 11  1  0
 11 12  2  0
 13 11  1  0
 14 13  1  1
 14 15  1  0
 15  7  1  0
 16 18  1  0
 16 14  1  0
 17 16  2  0
 19 18  1  0
 19 20  1  6
 20 21  1  0
 21 29  1  0
 21 22  2  0
 22 23  1  0
 24 23  1  0
 24 25  2  0
 26 25  1  0
 27 26  2  0
 28 29  2  0
 28 27  1  0
 29 24  1  0
 30 31  1  0
 30 19  1  0
 32 30  2  0
M  END
$$$$
