ENW.pdb
     RDKit          3D

 32 33  0  0  1  0  0  0  0  0999 V2000
   26.7123  -18.2053  -16.9400 N   0  0  0  0  0  0  0  0  0  0  0  0
   27.2820  -19.0902  -15.9412 C   0  0  1  0  0  0  0  0  0  0  0  0
   28.7030  -18.6459  -15.6317 C   0  0  0  0  0  0  0  0  0  0  0  0
   29.4954  -18.7481  -16.9414 C   0  0  0  0  0  0  0  0  0  0  0  0
   29.7287  -20.1475  -17.3070 C   0  0  0  0  0  0  0  0  0  0  0  0
   29.2247  -21.0668  -16.6464 O   0  0  0  0  0  0  0  0  0  0  0  0
   26.4454  -18.9909  -14.6973 C   0  0  0  0  0  0  0  0  0  0  0  0
   26.0451  -17.8696  -14.2871 O   0  0  0  0  0  0  0  0  0  0  0  0
   30.5224  -20.4835  -18.4161 O   0  0  0  0  0  0  0  0  0  0  0  0
   21.8778  -18.8506  -12.6162 N   0  0  0  0  0  0  0  0  0  0  0  0
   22.7205  -19.9880  -12.3259 C   0  0  0  0  0  0  0  0  0  0  0  0
   22.3887  -20.6514  -11.3243 O   0  0  0  0  0  0  0  0  0  0  0  0
   23.8543  -20.2979  -13.1626 C   0  0  0  0  0  0  0  0  0  0  0  0
   25.2398  -19.9640  -12.7127 C   0  0  2  0  0  0  0  0  0  0  0  0
   26.0735  -20.1162  -13.9378 N   0  0  0  0  0  0  0  0  0  0  0  0
   25.8016  -20.7903  -11.6473 C   0  0  0  0  0  0  0  0  0  0  0  0
   26.3081  -21.9472  -11.8967 O   0  0  0  0  0  0  0  0  0  0  0  0
   25.8502  -20.4098  -10.3026 N   0  0  0  0  0  0  0  0  0  0  0  0
   26.1850  -21.3003   -9.1827 C   0  0  1  0  0  0  0  0  0  0  0  0
   27.6111  -21.1632   -8.8102 C   0  0  0  0  0  0  0  0  0  0  0  0
   27.8301  -20.1612   -7.7620 C   0  0  0  0  0  0  0  0  0  0  0  0
   27.2316  -18.8934   -7.7037 C   0  0  0  0  0  0  0  0  0  0  0  0
   27.6896  -18.2259   -6.6344 N   0  0  0  0  0  0  0  0  0  0  0  0
   28.5695  -18.9715   -5.9614 C   0  0  0  0  0  0  0  0  0  0  0  0
   29.2934  -18.7373   -4.8040 C   0  0  0  0  0  0  0  0  0  0  0  0
   30.1291  -19.7187   -4.3204 C   0  0  0  0  0  0  0  0  0  0  0  0
   30.2278  -20.9118   -4.9984 C   0  0  0  0  0  0  0  0  0  0  0  0
   29.5054  -21.1473   -6.1558 C   0  0  0  0  0  0  0  0  0  0  0  0
   28.6673  -20.1668   -6.6436 C   0  0  0  0  0  0  0  0  0  0  0  0
   25.2311  -21.2066   -8.1156 C   0  0  0  0  0  0  0  0  0  0  0  0
   25.1755  -22.0214   -7.0097 O   0  0  0  0  0  0  0  0  0  0  0  0
   24.3273  -20.2974   -8.1619 O   0  0  0  0  0  0  0  0  0  0  0  0
  2  1  1  6
  2  3  1  0
  3  4  1  0
  4  5  1  0
  5  9  1  0
  6  5  2  0
  7  2  1  0
  8  7  2  0
 10 11  1  0
 11 12  2  0
 13 11  1  0
 14 13  1  6
 14 15  1  0
 15  7  1  0
 16 18  1  0
 16 14  1  0
 17 16  2  0
 19 18  1  0
 19 20  1  1
 20 21  1  0
 21 29  1  0
 21 22  2  0
 22 23  1  0
 24 23  1  0
 24 25  2  0
 26 25  1  0
 27 26  2  0
 28 29  2  0
 28 27  1  0
 29 24  1  0
 30 31  1  0
 30 19  1  0
 32 30  2  0
M  END
$$$$
