ENW.pdb
     RDKit          3D

 32 33  0  0  1  0  0  0  0  0999 V2000
   26.1945  -17.7655  -18.1781 N   0  0  0  0  0  0  0  0  0  0  0  0
   27.0666  -18.6544  -17.4335 C   0  0  1  0  0  0  0  0  0  0  0  0
   27.6930  -17.8886  -16.2787 C   0  0  0  0  0  0  0  0  0  0  0  0
   28.6888  -16.8961  -16.8924 C   0  0  0  0  0  0  0  0  0  0  0  0
   29.6774  -17.5885  -17.7229 C   0  0  0  0  0  0  0  0  0  0  0  0
   30.2363  -18.6171  -17.3165 O   0  0  0  0  0  0  0  0  0  0  0  0
   26.2331  -19.7811  -16.8921 C   0  0  0  0  0  0  0  0  0  0  0  0
   25.0222  -19.5946  -16.6015 O   0  0  0  0  0  0  0  0  0  0  0  0
   30.0127  -17.1101  -19.0002 O   0  0  0  0  0  0  0  0  0  0  0  0
   26.6989  -25.8972  -16.3043 N   0  0  0  0  0  0  0  0  0  0  0  0
   25.9458  -24.6785  -16.1155 C   0  0  0  0  0  0  0  0  0  0  0  0
   24.8500  -24.8168  -15.5379 O   0  0  0  0  0  0  0  0  0  0  0  0
   26.4631  -23.4133  -16.5772 C   0  0  0  0  0  0  0  0  0  0  0  0
   25.9078  -22.1307  -16.0480 C   0  0  2  0  0  0  0  0  0  0  0  0
   26.7461  -21.0750  -16.6818 N   0  0  0  0  0  0  0  0  0  0  0  0
   25.9317  -21.9531  -14.5983 C   0  0  0  0  0  0  0  0  0  0  0  0
   27.0163  -21.6333  -13.9830 O   0  0  0  0  0  0  0  0  0  0  0  0
   24.8131  -22.0980  -13.7719 N   0  0  0  0  0  0  0  0  0  0  0  0
   24.6259  -21.4303  -12.4764 C   0  0  1  0  0  0  0  0  0  0  0  0
   25.7208  -20.4681  -12.2177 C   0  0  0  0  0  0  0  0  0  0  0  0
   26.1817  -20.4938  -10.8258 C   0  0  0  0  0  0  0  0  0  0  0  0
   25.4173  -20.1393   -9.7038 C   0  0  0  0  0  0  0  0  0  0  0  0
   26.1663  -20.2410   -8.5959 N   0  0  0  0  0  0  0  0  0  0  0  0
   27.4012  -20.6449   -8.9038 C   0  0  0  0  0  0  0  0  0  0  0  0
   28.5151  -20.9074   -8.1234 C   0  0  0  0  0  0  0  0  0  0  0  0
   29.6750  -21.3394   -8.7263 C   0  0  0  0  0  0  0  0  0  0  0  0
   29.7030  -21.5003  -10.0923 C   0  0  0  0  0  0  0  0  0  0  0  0
   28.5907  -21.2379  -10.8740 C   0  0  0  0  0  0  0  0  0  0  0  0
   27.4269  -20.8048  -10.2740 C   0  0  0  0  0  0  0  0  0  0  0  0
   23.2882  -20.9399  -12.3108 C   0  0  0  0  0  0  0  0  0  0  0  0
   22.5438  -21.0011  -11.1567 O   0  0  0  0  0  0  0  0  0  0  0  0
   22.6942  -20.3930  -13.3077 O   0  0  0  0  0  0  0  0  0  0  0  0
  2  1  1  1
  2  3  1  0
  3  4  1  0
  4  5  1  0
  5  9  1  0
  6  5  2  0
  7  2  1  0
  8  7  2  0
 10 11  1  0
 11 12  2  0
 13 11  1  0
 14 13  1  1
 14 15  1  0
 15  7  1  0
 16 18  1  0
 16 14  1  0
 17 16  2  0
 19 18  1  0
 19 20  1  6
 20 21  1  0
 21 29  1  0
 21 22  2  0
 22 23  1  0
 24 23  1  0
 24 25  2  0
 26 25  1  0
 27 26  2  0
 28 29  2  0
 28 27  1  0
 29 24  1  0
 30 31  1  0
 30 19  1  0
 32 30  2  0
M  END
$$$$
