KRA.pdb
     RDKit          3D

 26 25  0  0  1  0  0  0  0  0999 V2000
    6.3480  -21.9003   22.0293 N   0  0  0  0  0  0  0  0  0  0  0  0
    6.3491  -20.9135   23.0618 C   0  0  1  0  0  0  0  0  0  0  0  0
    6.6634  -21.4605   24.4212 C   0  0  0  0  0  0  0  0  0  0  0  0
    5.5059  -21.9953   25.1852 C   0  0  0  0  0  0  0  0  0  0  0  0
    5.6909  -23.3311   25.8141 C   0  0  0  0  0  0  0  0  0  0  0  0
    4.4819  -24.2258   25.6773 C   0  0  0  0  0  0  0  0  0  0  0  0
    3.5342  -24.0145   26.7583 N   0  0  0  0  0  0  0  0  0  0  0  0
    7.2239  -19.7832   22.6985 C   0  0  0  0  0  0  0  0  0  0  0  0
    8.4141  -20.0747   22.3586 O   0  0  0  0  0  0  0  0  0  0  0  0
    8.1112  -13.6252   18.3814 N   0  0  0  0  0  0  0  0  0  0  0  0
    8.3846  -12.7150   19.4262 C   0  0  0  0  0  0  0  0  0  0  0  0
    9.3362  -11.8393   19.2770 N   0  0  0  0  0  0  0  0  0  0  0  0
    7.6723  -12.6934   20.6557 N   0  0  0  0  0  0  0  0  0  0  0  0
    6.8712  -13.8344   21.0506 C   0  0  0  0  0  0  0  0  0  0  0  0
    7.7876  -14.9773   21.4905 C   0  0  0  0  0  0  0  0  0  0  0  0
    7.0106  -16.1760   21.9156 C   0  0  0  0  0  0  0  0  0  0  0  0
    7.8022  -17.3673   22.3025 C   0  0  2  0  0  0  0  0  0  0  0  0
    6.8666  -18.4144   22.6918 N   0  0  0  0  0  0  0  0  0  0  0  0
    8.7888  -17.1826   23.3540 C   0  0  0  0  0  0  0  0  0  0  0  0
    8.5274  -16.8540   24.5402 O   0  0  0  0  0  0  0  0  0  0  0  0
    9.6055  -11.1689   20.0092 C   0  0  0  0  0  0  0  0  0  0  0  0
   11.5997  -18.4883   24.5696 C   0  0  1  0  0  0  0  0  0  0  0  0
   11.1702  -17.1307   24.0447 N   0  0  0  0  0  0  0  0  0  0  0  0
   10.1591  -17.3820   23.0459 C   0  0  0  0  0  0  0  0  0  0  0  0
   12.2879  -16.3428   23.5350 O   0  0  0  0  0  0  0  0  0  0  0  0
   12.4284  -16.1645   22.3070 O   0  0  0  0  0  0  0  0  0  0  0  0
  2  1  1  6
  3  2  1  0
  4  5  1  0
  4  3  1  0
  5  6  1  0
  6  7  1  0
  8  2  1  0
  8  9  2  0
 10 11  1  0
 11 12  2  0
 13 11  1  0
 13 14  1  0
 14 15  1  0
 15 16  1  0
 17 18  1  0
 17 16  1  1
 18  8  1  0
 19 17  1  0
 20 19  2  0
 22 21  1  1
 22 23  1  0
 23 19  1  0
 24 22  1  0
 24 26  1  0
 25 24  2  0
M  END
$$$$
