KRA.pdb
     RDKit          3D

 26 25  0  0  1  0  0  0  0  0999 V2000
    9.3274  -15.7339   19.8584 N   0  0  0  0  0  0  0  0  0  0  0  0
    8.6986  -14.5509   20.3532 C   0  0  1  0  0  0  0  0  0  0  0  0
    7.7966  -13.8841   19.3593 C   0  0  0  0  0  0  0  0  0  0  0  0
    8.2329  -13.9586   17.9402 C   0  0  0  0  0  0  0  0  0  0  0  0
    7.4804  -13.1141   16.9734 C   0  0  0  0  0  0  0  0  0  0  0  0
    7.9764  -13.2492   15.5534 C   0  0  0  0  0  0  0  0  0  0  0  0
    7.1645  -12.4790   14.6268 N   0  0  0  0  0  0  0  0  0  0  0  0
    8.0167  -14.8218   21.6325 C   0  0  0  0  0  0  0  0  0  0  0  0
    7.2662  -13.8983   22.0808 O   0  0  0  0  0  0  0  0  0  0  0  0
    7.9279  -21.9103   27.1802 N   0  0  0  0  0  0  0  0  0  0  0  0
    7.2127  -20.8703   27.8141 C   0  0  0  0  0  0  0  0  0  0  0  0
    6.7222  -21.0662   29.0039 N   0  0  0  0  0  0  0  0  0  0  0  0
    6.9895  -19.5971   27.2238 N   0  0  0  0  0  0  0  0  0  0  0  0
    7.4401  -19.3347   25.8719 C   0  0  0  0  0  0  0  0  0  0  0  0
    7.1697  -17.8720   25.5156 C   0  0  0  0  0  0  0  0  0  0  0  0
    7.6000  -17.5537   24.1245 C   0  0  0  0  0  0  0  0  0  0  0  0
    7.4988  -16.1331   23.7157 C   0  0  2  0  0  0  0  0  0  0  0  0
    8.1174  -16.0041   22.4027 N   0  0  0  0  0  0  0  0  0  0  0  0
    8.0720  -15.1506   24.6209 C   0  0  0  0  0  0  0  0  0  0  0  0
    9.3033  -14.9403   24.7729 O   0  0  0  0  0  0  0  0  0  0  0  0
    6.2734  -20.3248   29.5579 C   0  0  0  0  0  0  0  0  0  0  0  0
    6.5711  -12.3487   26.5030 C   0  0  1  0  0  0  0  0  0  0  0  0
    7.7273  -13.2919   26.2262 N   0  0  0  0  0  0  0  0  0  0  0  0
    7.1982  -14.3541   25.4048 C   0  0  0  0  0  0  0  0  0  0  0  0
    8.3621  -13.7804   27.4462 O   0  0  0  0  0  0  0  0  0  0  0  0
    8.8777  -12.9808   28.2551 O   0  0  0  0  0  0  0  0  0  0  0  0
  2  1  1  6
  3  2  1  0
  4  5  1  0
  4  3  1  0
  5  6  1  0
  6  7  1  0
  8  2  1  0
  8  9  2  0
 10 11  1  0
 11 12  2  0
 13 11  1  0
 13 14  1  0
 14 15  1  0
 15 16  1  0
 17 18  1  0
 17 16  1  1
 18  8  1  0
 19 17  1  0
 20 19  2  0
 22 21  1  6
 22 23  1  0
 23 19  1  0
 24 22  1  0
 24 26  1  0
 25 24  2  0
M  END
$$$$
