KRA.pdb
     RDKit          3D

 26 25  0  0  1  0  0  0  0  0999 V2000
    6.8863  -19.7985   25.8088 N   0  0  0  0  0  0  0  0  0  0  0  0
    7.0973  -18.3900   25.9168 C   0  0  1  0  0  0  0  0  0  0  0  0
    7.7948  -17.9776   27.1775 C   0  0  0  0  0  0  0  0  0  0  0  0
    8.9670  -18.8048   27.5667 C   0  0  0  0  0  0  0  0  0  0  0  0
    9.6830  -18.3933   28.8046 C   0  0  0  0  0  0  0  0  0  0  0  0
   10.8844  -19.2553   29.1115 C   0  0  0  0  0  0  0  0  0  0  0  0
   11.6204  -18.7585   30.2616 N   0  0  0  0  0  0  0  0  0  0  0  0
    7.7699  -17.8719   24.7110 C   0  0  0  0  0  0  0  0  0  0  0  0
    8.4115  -18.7190   24.0125 O   0  0  0  0  0  0  0  0  0  0  0  0
    7.4783  -14.8304   18.3226 N   0  0  0  0  0  0  0  0  0  0  0  0
    8.0127  -13.5236   18.3641 C   0  0  0  0  0  0  0  0  0  0  0  0
    8.6183  -13.0483   17.3144 N   0  0  0  0  0  0  0  0  0  0  0  0
    7.9299  -12.6768   19.5023 N   0  0  0  0  0  0  0  0  0  0  0  0
    7.3922  -13.1854   20.7479 C   0  0  0  0  0  0  0  0  0  0  0  0
    8.2387  -14.3653   21.2285 C   0  0  0  0  0  0  0  0  0  0  0  0
    7.6958  -14.9601   22.4827 C   0  0  0  0  0  0  0  0  0  0  0  0
    8.4342  -16.1219   23.0306 C   0  0  2  0  0  0  0  0  0  0  0  0
    7.7685  -16.5310   24.2605 N   0  0  0  0  0  0  0  0  0  0  0  0
    9.8527  -15.9327   23.2864 C   0  0  0  0  0  0  0  0  0  0  0  0
   10.3323  -15.1983   24.1886 O   0  0  0  0  0  0  0  0  0  0  0  0
    9.0235  -12.1035   17.2767 C   0  0  0  0  0  0  0  0  0  0  0  0
   12.7897  -17.8491   22.7939 C   0  0  1  0  0  0  0  0  0  0  0  0
   12.2055  -16.4517   22.6984 N   0  0  0  0  0  0  0  0  0  0  0  0
   10.7899  -16.6172   22.4706 C   0  0  0  0  0  0  0  0  0  0  0  0
   12.8535  -15.6373   21.6753 O   0  0  0  0  0  0  0  0  0  0  0  0
   12.3067  -15.4614   20.5664 O   0  0  0  0  0  0  0  0  0  0  0  0
  2  1  1  6
  3  2  1  0
  4  5  1  0
  4  3  1  0
  5  6  1  0
  6  7  1  0
  8  2  1  0
  8  9  2  0
 10 11  1  0
 11 12  2  0
 13 11  1  0
 13 14  1  0
 14 15  1  0
 15 16  1  0
 17 18  1  0
 17 16  1  1
 18  8  1  0
 19 17  1  0
 20 19  2  0
 22 21  1  1
 22 23  1  0
 23 19  1  0
 24 22  1  0
 24 26  1  0
 25 24  2  0
M  END
$$$$
