KRA.pdb
     RDKit          3D

 26 25  0  0  1  0  0  0  0  0999 V2000
    6.6735  -21.0587   21.4556 N   0  0  0  0  0  0  0  0  0  0  0  0
    5.9215  -19.9476   21.9452 C   0  0  1  0  0  0  0  0  0  0  0  0
    4.8151  -20.3309   22.8805 C   0  0  0  0  0  0  0  0  0  0  0  0
    4.7000  -21.7815   23.1841 C   0  0  0  0  0  0  0  0  0  0  0  0
    3.6183  -22.1744   24.1274 C   0  0  0  0  0  0  0  0  0  0  0  0
    3.5954  -23.6552   24.4230 C   0  0  0  0  0  0  0  0  0  0  0  0
    2.5623  -23.9930   25.3873 N   0  0  0  0  0  0  0  0  0  0  0  0
    6.8172  -18.9304   22.5265 C   0  0  0  0  0  0  0  0  0  0  0  0
    7.8035  -19.3639   23.2020 O   0  0  0  0  0  0  0  0  0  0  0  0
    8.3517  -12.0924   18.2317 N   0  0  0  0  0  0  0  0  0  0  0  0
    8.6914  -12.0417   19.6017 C   0  0  0  0  0  0  0  0  0  0  0  0
    9.5452  -11.1502   20.0149 N   0  0  0  0  0  0  0  0  0  0  0  0
    8.1494  -12.9202   20.5784 N   0  0  0  0  0  0  0  0  0  0  0  0
    7.1763  -13.9222   20.1933 C   0  0  0  0  0  0  0  0  0  0  0  0
    7.5772  -15.2780   20.7770 C   0  0  0  0  0  0  0  0  0  0  0  0
    7.4713  -15.2926   22.2636 C   0  0  0  0  0  0  0  0  0  0  0  0
    7.6831  -16.6022   22.9233 C   0  0  2  0  0  0  0  0  0  0  0  0
    6.6841  -17.5273   22.4042 N   0  0  0  0  0  0  0  0  0  0  0  0
    7.6475  -16.6149   24.3765 C   0  0  0  0  0  0  0  0  0  0  0  0
    6.6059  -16.5089   25.0745 O   0  0  0  0  0  0  0  0  0  0  0  0
    9.8403  -11.0644   20.9966 C   0  0  0  0  0  0  0  0  0  0  0  0
    8.0827  -18.0842   26.8881 C   0  0  2  0  0  0  0  0  0  0  0  0
    8.8610  -16.8320   26.5285 N   0  0  0  0  0  0  0  0  0  0  0  0
    8.8671  -16.7566   25.0873 C   0  0  0  0  0  0  0  0  0  0  0  0
   10.2024  -16.8163   27.1033 O   0  0  0  0  0  0  0  0  0  0  0  0
   11.2053  -16.7121   26.3665 O   0  0  0  0  0  0  0  0  0  0  0  0
  2  1  1  1
  3  2  1  0
  4  5  1  0
  4  3  1  0
  5  6  1  0
  6  7  1  0
  8  2  1  0
  8  9  2  0
 10 11  1  0
 11 12  2  0
 13 11  1  0
 13 14  1  0
 14 15  1  0
 15 16  1  0
 17 18  1  0
 17 16  1  6
 18  8  1  0
 19 17  1  0
 20 19  2  0
 22 21  1  1
 22 23  1  0
 23 19  1  0
 24 22  1  0
 24 26  1  0
 25 24  2  0
M  END
$$$$
