KRA.pdb
     RDKit          3D

 26 25  0  0  1  0  0  0  0  0999 V2000
   10.7168  -17.4566   18.6798 N   0  0  0  0  0  0  0  0  0  0  0  0
    9.7054  -17.8429   19.6113 C   0  0  1  0  0  0  0  0  0  0  0  0
    9.6545  -19.3178   19.8722 C   0  0  0  0  0  0  0  0  0  0  0  0
    9.3202  -20.1693   18.7005 C   0  0  0  0  0  0  0  0  0  0  0  0
    9.2660  -21.6361   18.9448 C   0  0  0  0  0  0  0  0  0  0  0  0
    8.9081  -22.4319   17.7123 C   0  0  0  0  0  0  0  0  0  0  0  0
    8.7531  -23.8449   18.0132 N   0  0  0  0  0  0  0  0  0  0  0  0
    9.8190  -17.0592   20.8554 C   0  0  0  0  0  0  0  0  0  0  0  0
   10.9910  -16.6996   21.1932 O   0  0  0  0  0  0  0  0  0  0  0  0
    7.9606  -13.0316   27.3491 N   0  0  0  0  0  0  0  0  0  0  0  0
    6.9253  -12.3102   26.7146 C   0  0  0  0  0  0  0  0  0  0  0  0
    6.1091  -11.5976   27.4361 N   0  0  0  0  0  0  0  0  0  0  0  0
    6.7132  -12.3125   25.3094 N   0  0  0  0  0  0  0  0  0  0  0  0
    6.4270  -13.5546   24.6205 C   0  0  0  0  0  0  0  0  0  0  0  0
    7.7132  -14.3698   24.4765 C   0  0  0  0  0  0  0  0  0  0  0  0
    7.7645  -15.0956   23.1757 C   0  0  0  0  0  0  0  0  0  0  0  0
    8.9717  -15.9193   22.9316 C   0  0  2  0  0  0  0  0  0  0  0  0
    8.7545  -16.6716   21.7026 N   0  0  0  0  0  0  0  0  0  0  0  0
    9.3673  -16.8293   23.9940 C   0  0  0  0  0  0  0  0  0  0  0  0
    8.6807  -17.7995   24.4071 O   0  0  0  0  0  0  0  0  0  0  0  0
    5.3156  -11.0760   27.0407 C   0  0  0  0  0  0  0  0  0  0  0  0
   12.5590  -17.4006   25.7559 C   0  0  1  0  0  0  0  0  0  0  0  0
   11.0484  -17.5245   25.6796 N   0  0  0  0  0  0  0  0  0  0  0  0
   10.6193  -16.6306   24.6309 C   0  0  0  0  0  0  0  0  0  0  0  0
   10.3946  -17.2564   26.9566 O   0  0  0  0  0  0  0  0  0  0  0  0
    9.7920  -16.1788   27.1450 O   0  0  0  0  0  0  0  0  0  0  0  0
  2  1  1  6
  3  2  1  0
  4  5  1  0
  4  3  1  0
  5  6  1  0
  6  7  1  0
  8  2  1  0
  8  9  2  0
 10 11  1  0
 11 12  2  0
 13 11  1  0
 13 14  1  0
 14 15  1  0
 15 16  1  0
 17 18  1  0
 17 16  1  1
 18  8  1  0
 19 17  1  0
 20 19  2  0
 22 21  1  6
 22 23  1  0
 23 19  1  0
 24 22  1  0
 24 26  1  0
 25 24  2  0
M  END
$$$$
