KRA.pdb
     RDKit          3D

 26 25  0  0  1  0  0  0  0  0999 V2000
    6.9521  -16.1792   18.9281 N   0  0  0  0  0  0  0  0  0  0  0  0
    8.1189  -15.4960   19.3880 C   0  0  1  0  0  0  0  0  0  0  0  0
    7.8551  -14.0983   19.8599 C   0  0  0  0  0  0  0  0  0  0  0  0
    7.8982  -13.0445   18.8124 C   0  0  0  0  0  0  0  0  0  0  0  0
    7.7659  -13.5078   17.4046 C   0  0  0  0  0  0  0  0  0  0  0  0
    7.8612  -12.3864   16.3976 C   0  0  0  0  0  0  0  0  0  0  0  0
    7.6232  -12.8596   15.0446 N   0  0  0  0  0  0  0  0  0  0  0  0
    8.8279  -16.3024   20.3989 C   0  0  0  0  0  0  0  0  0  0  0  0
    8.1457  -16.6772   21.4045 O   0  0  0  0  0  0  0  0  0  0  0  0
   12.9983  -22.5177   22.2023 N   0  0  0  0  0  0  0  0  0  0  0  0
   13.7837  -21.4648   22.7213 C   0  0  0  0  0  0  0  0  0  0  0  0
   13.7694  -21.2292   24.0014 N   0  0  0  0  0  0  0  0  0  0  0  0
   14.6058  -20.6286   21.9185 N   0  0  0  0  0  0  0  0  0  0  0  0
   14.0052  -19.6204   21.0686 C   0  0  0  0  0  0  0  0  0  0  0  0
   12.7124  -19.1128   21.7094 C   0  0  0  0  0  0  0  0  0  0  0  0
   12.0435  -18.0839   20.8636 C   0  0  0  0  0  0  0  0  0  0  0  0
   10.7993  -17.4935   21.4102 C   0  0  2  0  0  0  0  0  0  0  0  0
   10.1859  -16.6964   20.3558 N   0  0  0  0  0  0  0  0  0  0  0  0
   10.9321  -16.6876   22.6127 C   0  0  0  0  0  0  0  0  0  0  0  0
   11.5988  -15.6240   22.6995 O   0  0  0  0  0  0  0  0  0  0  0  0
   14.2890  -20.4564   24.4384 C   0  0  0  0  0  0  0  0  0  0  0  0
    9.2318  -15.6625   25.3583 C   0  0  1  0  0  0  0  0  0  0  0  0
   10.5051  -16.4251   25.0416 N   0  0  0  0  0  0  0  0  0  0  0  0
   10.2691  -17.1104   23.7935 C   0  0  0  0  0  0  0  0  0  0  0  0
   10.9058  -17.3266   26.1171 O   0  0  0  0  0  0  0  0  0  0  0  0
   11.2648  -16.8716   27.2233 O   0  0  0  0  0  0  0  0  0  0  0  0
  2  1  1  1
  3  2  1  0
  4  5  1  0
  4  3  1  0
  5  6  1  0
  6  7  1  0
  8  2  1  0
  8  9  2  0
 10 11  1  0
 11 12  2  0
 13 11  1  0
 13 14  1  0
 14 15  1  0
 15 16  1  0
 17 18  1  0
 17 16  1  6
 18  8  1  0
 19 17  1  0
 20 19  2  0
 22 21  1  6
 22 23  1  0
 23 19  1  0
 24 22  1  0
 24 26  1  0
 25 24  2  0
M  END
$$$$
