KRA.pdb
     RDKit          3D

 26 25  0  0  1  0  0  0  0  0999 V2000
    7.8608  -12.5200   18.5593 N   0  0  0  0  0  0  0  0  0  0  0  0
    7.8888  -13.9358   18.7456 C   0  0  1  0  0  0  0  0  0  0  0  0
    8.6633  -14.6694   17.6931 C   0  0  0  0  0  0  0  0  0  0  0  0
    7.9001  -15.0442   16.4738 C   0  0  0  0  0  0  0  0  0  0  0  0
    8.6691  -15.7260   15.3977 C   0  0  0  0  0  0  0  0  0  0  0  0
    7.8615  -15.9537   14.1420 C   0  0  0  0  0  0  0  0  0  0  0  0
    8.6770  -16.5050   13.0732 N   0  0  0  0  0  0  0  0  0  0  0  0
    8.3423  -14.2711   20.1083 C   0  0  0  0  0  0  0  0  0  0  0  0
    9.4807  -13.8213   20.4530 O   0  0  0  0  0  0  0  0  0  0  0  0
    6.4145  -19.2013   25.9156 N   0  0  0  0  0  0  0  0  0  0  0  0
    7.5439  -18.7598   26.6397 C   0  0  0  0  0  0  0  0  0  0  0  0
    8.1044  -19.5612   27.4988 N   0  0  0  0  0  0  0  0  0  0  0  0
    8.1196  -17.4695   26.4873 N   0  0  0  0  0  0  0  0  0  0  0  0
    7.5137  -16.5055   25.5912 C   0  0  0  0  0  0  0  0  0  0  0  0
    7.5579  -17.0384   24.1582 C   0  0  0  0  0  0  0  0  0  0  0  0
    7.1324  -16.0055   23.1714 C   0  0  0  0  0  0  0  0  0  0  0  0
    8.2080  -15.3978   22.3533 C   0  0  2  0  0  0  0  0  0  0  0  0
    7.6351  -15.0400   21.0622 N   0  0  0  0  0  0  0  0  0  0  0  0
    9.4042  -16.1980   22.1485 C   0  0  0  0  0  0  0  0  0  0  0  0
    9.4474  -17.2826   21.5121 O   0  0  0  0  0  0  0  0  0  0  0  0
    8.9076  -19.2906   28.0817 C   0  0  0  0  0  0  0  0  0  0  0  0
   12.9200  -15.7889   22.0829 C   0  0  1  0  0  0  0  0  0  0  0  0
   11.7908  -16.6024   22.6882 N   0  0  0  0  0  0  0  0  0  0  0  0
   10.6307  -15.7438   22.6979 C   0  0  0  0  0  0  0  0  0  0  0  0
   12.1188  -17.1281   24.0095 O   0  0  0  0  0  0  0  0  0  0  0  0
   13.0800  -17.9115   24.1581 O   0  0  0  0  0  0  0  0  0  0  0  0
  2  1  1  6
  3  2  1  0
  4  5  1  0
  4  3  1  0
  5  6  1  0
  6  7  1  0
  8  2  1  0
  8  9  2  0
 10 11  1  0
 11 12  2  0
 13 11  1  0
 13 14  1  0
 14 15  1  0
 15 16  1  0
 17 18  1  0
 17 16  1  1
 18  8  1  0
 19 17  1  0
 20 19  2  0
 22 21  1  6
 22 23  1  0
 23 19  1  0
 24 22  1  0
 24 26  1  0
 25 24  2  0
M  END
$$$$
