KRA.pdb
     RDKit          3D

 26 25  0  0  1  0  0  0  0  0999 V2000
    6.1609  -15.8973   19.6749 N   0  0  0  0  0  0  0  0  0  0  0  0
    7.1005  -15.1724   20.4695 C   0  0  1  0  0  0  0  0  0  0  0  0
    7.1023  -13.6966   20.2086 C   0  0  0  0  0  0  0  0  0  0  0  0
    7.5322  -13.2824   18.8472 C   0  0  0  0  0  0  0  0  0  0  0  0
    8.8867  -13.7260   18.4195 C   0  0  0  0  0  0  0  0  0  0  0  0
    9.2928  -13.1815   17.0708 C   0  0  0  0  0  0  0  0  0  0  0  0
   10.6047  -13.6624   16.6719 N   0  0  0  0  0  0  0  0  0  0  0  0
    6.9227  -15.4866   21.8994 C   0  0  0  0  0  0  0  0  0  0  0  0
    5.7437  -15.3720   22.3620 O   0  0  0  0  0  0  0  0  0  0  0  0
   10.8815  -18.7588   28.2098 N   0  0  0  0  0  0  0  0  0  0  0  0
    9.5437  -19.0690   28.5401 C   0  0  0  0  0  0  0  0  0  0  0  0
    9.1179  -18.8493   29.7505 N   0  0  0  0  0  0  0  0  0  0  0  0
    8.6133  -19.6172   27.6164 N   0  0  0  0  0  0  0  0  0  0  0  0
    8.7026  -19.2804   26.2100 C   0  0  0  0  0  0  0  0  0  0  0  0
    8.1691  -17.8644   25.9865 C   0  0  0  0  0  0  0  0  0  0  0  0
    8.1772  -17.4924   24.5432 C   0  0  0  0  0  0  0  0  0  0  0  0
    7.6667  -16.1416   24.2113 C   0  0  2  0  0  0  0  0  0  0  0  0
    7.9326  -15.9014   22.7989 N   0  0  0  0  0  0  0  0  0  0  0  0
    8.1868  -15.0353   24.9980 C   0  0  0  0  0  0  0  0  0  0  0  0
    9.3915  -14.6732   25.0271 O   0  0  0  0  0  0  0  0  0  0  0  0
    8.1643  -19.0757   30.0626 C   0  0  0  0  0  0  0  0  0  0  0  0
    6.6050  -12.3837   27.0370 C   0  0  1  0  0  0  0  0  0  0  0  0
    7.7886  -13.2689   26.6927 N   0  0  0  0  0  0  0  0  0  0  0  0
    7.2882  -14.2899   25.8038 C   0  0  0  0  0  0  0  0  0  0  0  0
    8.4460  -13.8178   27.8744 O   0  0  0  0  0  0  0  0  0  0  0  0
    8.3799  -15.0394   28.1252 O   0  0  0  0  0  0  0  0  0  0  0  0
  2  1  1  6
  3  2  1  0
  4  5  1  0
  4  3  1  0
  5  6  1  0
  6  7  1  0
  8  2  1  0
  8  9  2  0
 10 11  1  0
 11 12  2  0
 13 11  1  0
 13 14  1  0
 14 15  1  0
 15 16  1  0
 17 18  1  0
 17 16  1  1
 18  8  1  0
 19 17  1  0
 20 19  2  0
 22 21  1  6
 22 23  1  0
 23 19  1  0
 24 22  1  0
 24 26  1  0
 25 24  2  0
M  END
$$$$
