KRA.pdb
     RDKit          3D

 26 25  0  0  1  0  0  0  0  0999 V2000
    6.4271  -21.4732   23.0780 N   0  0  0  0  0  0  0  0  0  0  0  0
    6.3888  -20.2839   23.8677 C   0  0  1  0  0  0  0  0  0  0  0  0
    6.6761  -20.5127   25.3206 C   0  0  0  0  0  0  0  0  0  0  0  0
    7.4148  -21.7615   25.6436 C   0  0  0  0  0  0  0  0  0  0  0  0
    7.7827  -21.9599   27.0718 C   0  0  0  0  0  0  0  0  0  0  0  0
    8.2407  -23.3659   27.3785 C   0  0  0  0  0  0  0  0  0  0  0  0
    8.5381  -23.5363   28.7905 N   0  0  0  0  0  0  0  0  0  0  0  0
    7.2571  -19.2448   23.2835 C   0  0  0  0  0  0  0  0  0  0  0  0
    8.3384  -19.6458   22.7479 O   0  0  0  0  0  0  0  0  0  0  0  0
    8.0398  -14.1303   18.4312 N   0  0  0  0  0  0  0  0  0  0  0  0
    8.2571  -12.8933   19.0774 C   0  0  0  0  0  0  0  0  0  0  0  0
    9.0556  -12.0209   18.5335 N   0  0  0  0  0  0  0  0  0  0  0  0
    7.6470  -12.5326   20.3091 N   0  0  0  0  0  0  0  0  0  0  0  0
    6.9051  -13.5190   21.0680 C   0  0  0  0  0  0  0  0  0  0  0  0
    7.8237  -14.6886   21.4258 C   0  0  0  0  0  0  0  0  0  0  0  0
    7.1251  -15.7030   22.2651 C   0  0  0  0  0  0  0  0  0  0  0  0
    7.9105  -16.9051   22.6304 C   0  0  2  0  0  0  0  0  0  0  0  0
    7.0023  -17.8534   23.2622 N   0  0  0  0  0  0  0  0  0  0  0  0
    9.0658  -16.6949   23.4874 C   0  0  0  0  0  0  0  0  0  0  0  0
    9.0159  -16.4649   24.7235 O   0  0  0  0  0  0  0  0  0  0  0  0
    9.2646  -11.1070   18.9567 C   0  0  0  0  0  0  0  0  0  0  0  0
   11.5881  -17.7470   24.6766 C   0  0  2  0  0  0  0  0  0  0  0  0
   11.5294  -16.5571   23.7364 N   0  0  0  0  0  0  0  0  0  0  0  0
   10.3610  -16.7480   22.9111 C   0  0  0  0  0  0  0  0  0  0  0  0
   12.7529  -16.3913   22.9583 O   0  0  0  0  0  0  0  0  0  0  0  0
   12.7574  -16.6183   21.7303 O   0  0  0  0  0  0  0  0  0  0  0  0
  2  1  1  6
  3  2  1  0
  4  5  1  0
  4  3  1  0
  5  6  1  0
  6  7  1  0
  8  2  1  0
  8  9  2  0
 10 11  1  0
 11 12  2  0
 13 11  1  0
 13 14  1  0
 14 15  1  0
 15 16  1  0
 17 18  1  0
 17 16  1  1
 18  8  1  0
 19 17  1  0
 20 19  2  0
 22 21  1  1
 22 23  1  0
 23 19  1  0
 24 22  1  0
 24 26  1  0
 25 24  2  0
M  END
$$$$
