CAM.pdb
     RDKit          3D

 20 19  0  0  1  0  0  0  0  0999 V2000
   19.1586  -12.0973  -18.2203 N   0  0  0  0  0  0  0  0  0  0  0  0
   20.2681  -11.1669  -18.2080 C   0  0  1  0  0  0  0  0  0  0  0  0
   19.9602  -10.1415  -19.3069 C   0  0  0  0  0  0  0  0  0  0  0  0
   20.1719  -10.9652  -20.9317 S   0  0  0  0  0  0  0  0  0  0  0  0
   20.3533  -10.4116  -16.9408 C   0  0  0  0  0  0  0  0  0  0  0  0
   19.2947   -9.9136  -16.4786 O   0  0  0  0  0  0  0  0  0  0  0  0
   22.8946   -9.9965  -14.2659 C   0  0  0  0  0  0  0  0  0  0  0  0
   21.6363   -9.4685  -14.9701 C   0  0  2  0  0  0  0  0  0  0  0  0
   21.5440  -10.2108  -16.2123 N   0  0  0  0  0  0  0  0  0  0  0  0
   21.8369   -8.0296  -15.3191 C   0  0  0  0  0  0  0  0  0  0  0  0
   22.5907   -7.6754  -16.2802 O   0  0  0  0  0  0  0  0  0  0  0  0
   16.8414   -4.4536  -17.6535 C   0  0  0  0  0  0  0  0  0  0  0  0
   17.7759   -4.1900  -16.1273 S   0  0  0  0  0  0  0  0  0  0  0  0
   19.3808   -5.0640  -16.1697 C   0  0  0  0  0  0  0  0  0  0  0  0
   20.1568   -4.8166  -14.9054 C   0  0  0  0  0  0  0  0  0  0  0  0
   21.4458   -5.5717  -14.9161 C   0  0  2  0  0  0  0  0  0  0  0  0
   21.1993   -6.9917  -14.5983 N   0  0  0  0  0  0  0  0  0  0  0  0
   22.3525   -5.0556  -13.8783 C   0  0  0  0  0  0  0  0  0  0  0  0
   22.9875   -3.8177  -14.1116 O   0  0  0  0  0  0  0  0  0  0  0  0
   22.6153   -5.6273  -12.7870 O   0  0  0  0  0  0  0  0  0  0  0  0
  2  1  1  1
  3  2  1  0
  4  3  1  0
  5  2  1  0
  6  5  2  0
  8  7  1  1
  8 10  1  0
  8  9  1  0
  9  5  1  0
 10 11  2  0
 13 12  1  0
 13 14  1  0
 14 15  1  0
 16 15  1  1
 17 16  1  0
 17 10  1  0
 18 19  1  0
 18 16  1  0
 20 18  2  0
M  END
$$$$
