CAM.pdb
     RDKit          3D

 20 19  0  0  1  0  0  0  0  0999 V2000
   14.8019   -9.7718  -17.2251 N   0  0  0  0  0  0  0  0  0  0  0  0
   14.9005   -8.7714  -16.1828 C   0  0  1  0  0  0  0  0  0  0  0  0
   14.9665   -9.5530  -14.8642 C   0  0  0  0  0  0  0  0  0  0  0  0
   13.2730  -10.1248  -14.4542 S   0  0  0  0  0  0  0  0  0  0  0  0
   16.1516   -7.9902  -16.2710 C   0  0  0  0  0  0  0  0  0  0  0  0
   17.2116   -8.6043  -16.5567 O   0  0  0  0  0  0  0  0  0  0  0  0
   16.9993   -4.3453  -16.0558 C   0  0  0  0  0  0  0  0  0  0  0  0
   17.4298   -5.8026  -16.2766 C   0  0  2  0  0  0  0  0  0  0  0  0
   16.2383   -6.5990  -16.0564 N   0  0  0  0  0  0  0  0  0  0  0  0
   18.4260   -6.1836  -15.2302 C   0  0  0  0  0  0  0  0  0  0  0  0
   18.0641   -6.6422  -14.1005 O   0  0  0  0  0  0  0  0  0  0  0  0
   24.5563  -10.3546  -13.3754 C   0  0  0  0  0  0  0  0  0  0  0  0
   23.3244   -9.7568  -14.5575 S   0  0  0  0  0  0  0  0  0  0  0  0
   22.5100   -8.2341  -13.9579 C   0  0  0  0  0  0  0  0  0  0  0  0
   21.4599   -7.7722  -14.9305 C   0  0  0  0  0  0  0  0  0  0  0  0
   20.7974   -6.5243  -14.4449 C   0  0  2  0  0  0  0  0  0  0  0  0
   19.8190   -6.0530  -15.4441 N   0  0  0  0  0  0  0  0  0  0  0  0
   21.7873   -5.4481  -14.2793 C   0  0  0  0  0  0  0  0  0  0  0  0
   21.8665   -4.4623  -15.2853 O   0  0  0  0  0  0  0  0  0  0  0  0
   22.5797   -5.3269  -13.3076 O   0  0  0  0  0  0  0  0  0  0  0  0
  2  1  1  6
  3  2  1  0
  4  3  1  0
  5  2  1  0
  6  5  2  0
  8  7  1  1
  8 10  1  0
  8  9  1  0
  9  5  1  0
 10 11  2  0
 13 12  1  0
 13 14  1  0
 14 15  1  0
 16 15  1  6
 17 16  1  0
 17 10  1  0
 18 19  1  0
 18 16  1  0
 20 18  2  0
M  END
$$$$
