CAM.pdb
     RDKit          3D

 20 19  0  0  1  0  0  0  0  0999 V2000
   27.2157  -21.1035  -11.7502 N   0  0  0  0  0  0  0  0  0  0  0  0
   25.7802  -21.1966  -11.9169 C   0  0  1  0  0  0  0  0  0  0  0  0
   25.1756  -20.5413  -10.6683 C   0  0  0  0  0  0  0  0  0  0  0  0
   25.7243  -21.4947   -9.2009 S   0  0  0  0  0  0  0  0  0  0  0  0
   25.2979  -20.4168  -13.0757 C   0  0  0  0  0  0  0  0  0  0  0  0
   25.4984  -19.1750  -13.0758 O   0  0  0  0  0  0  0  0  0  0  0  0
   24.1372  -21.1899  -16.5023 C   0  0  0  0  0  0  0  0  0  0  0  0
   24.1375  -20.2117  -15.3186 C   0  0  2  0  0  0  0  0  0  0  0  0
   24.6262  -20.9718  -14.1846 N   0  0  0  0  0  0  0  0  0  0  0  0
   22.7314  -19.8066  -15.0169 C   0  0  0  0  0  0  0  0  0  0  0  0
   21.9626  -20.5377  -14.3157 O   0  0  0  0  0  0  0  0  0  0  0  0
   17.6254  -14.1178  -13.3984 C   0  0  0  0  0  0  0  0  0  0  0  0
   19.3147  -14.6491  -13.7675 S   0  0  0  0  0  0  0  0  0  0  0  0
   19.3560  -16.3818  -14.3484 C   0  0  0  0  0  0  0  0  0  0  0  0
   20.7682  -16.8176  -14.6273 C   0  0  0  0  0  0  0  0  0  0  0  0
   20.7962  -18.2001  -15.1929 C   0  0  2  0  0  0  0  0  0  0  0  0
   22.1865  -18.5912  -15.4960 N   0  0  0  0  0  0  0  0  0  0  0  0
   20.0542  -18.2510  -16.4627 C   0  0  0  0  0  0  0  0  0  0  0  0
   18.6948  -18.6253  -16.4194 O   0  0  0  0  0  0  0  0  0  0  0  0
   20.5304  -17.9869  -17.5986 O   0  0  0  0  0  0  0  0  0  0  0  0
  2  1  1  1
  3  2  1  0
  4  3  1  0
  5  2  1  0
  6  5  2  0
  8  7  1  6
  8 10  1  0
  8  9  1  0
  9  5  1  0
 10 11  2  0
 13 12  1  0
 13 14  1  0
 14 15  1  0
 16 15  1  6
 17 16  1  0
 17 10  1  0
 18 19  1  0
 18 16  1  0
 20 18  2  0
M  END
$$$$
