CAM.pdb
     RDKit          3D

 20 19  0  0  1  0  0  0  0  0999 V2000
   28.1895  -21.3310  -17.4209 N   0  0  0  0  0  0  0  0  0  0  0  0
   27.9352  -22.0048  -16.1645 C   0  0  1  0  0  0  0  0  0  0  0  0
   29.2932  -22.5527  -15.7069 C   0  0  0  0  0  0  0  0  0  0  0  0
   29.6070  -24.1217  -16.6031 S   0  0  0  0  0  0  0  0  0  0  0  0
   27.4810  -21.0742  -15.1104 C   0  0  0  0  0  0  0  0  0  0  0  0
   28.2438  -20.1260  -14.7919 O   0  0  0  0  0  0  0  0  0  0  0  0
   24.2626  -20.0299  -13.7996 C   0  0  0  0  0  0  0  0  0  0  0  0
   25.7512  -20.2145  -13.4710 C   0  0  2  0  0  0  0  0  0  0  0  0
   26.2471  -21.1771  -14.4354 N   0  0  0  0  0  0  0  0  0  0  0  0
   25.8815  -20.8278  -12.1148 C   0  0  0  0  0  0  0  0  0  0  0  0
   25.6923  -22.0708  -11.9240 O   0  0  0  0  0  0  0  0  0  0  0  0
   29.4780  -19.6672   -6.1172 C   0  0  0  0  0  0  0  0  0  0  0  0
   27.7338  -19.1878   -6.1032 S   0  0  0  0  0  0  0  0  0  0  0  0
   26.7511  -20.2164   -7.2510 C   0  0  0  0  0  0  0  0  0  0  0  0
   26.8724  -19.7071   -8.6610 C   0  0  0  0  0  0  0  0  0  0  0  0
   26.2131  -20.6413   -9.6224 C   0  0  2  0  0  0  0  0  0  0  0  0
   26.2214  -20.0568  -10.9774 N   0  0  0  0  0  0  0  0  0  0  0  0
   24.8023  -20.8444   -9.2562 C   0  0  0  0  0  0  0  0  0  0  0  0
   23.8307  -20.0532   -9.9043 O   0  0  0  0  0  0  0  0  0  0  0  0
   24.3798  -21.6717   -8.4055 O   0  0  0  0  0  0  0  0  0  0  0  0
  2  1  1  6
  3  2  1  0
  4  3  1  0
  5  2  1  0
  6  5  2  0
  8  7  1  6
  8 10  1  0
  8  9  1  0
  9  5  1  0
 10 11  2  0
 13 12  1  0
 13 14  1  0
 14 15  1  0
 16 15  1  1
 17 16  1  0
 17 10  1  0
 18 19  1  0
 18 16  1  0
 20 18  2  0
M  END
$$$$
