CAM.pdb
     RDKit          3D

 20 19  0  0  1  0  0  0  0  0999 V2000
   18.2283  -12.1699  -17.6016 N   0  0  0  0  0  0  0  0  0  0  0  0
   19.4720  -11.4969  -17.9134 C   0  0  1  0  0  0  0  0  0  0  0  0
   19.1128  -10.4231  -18.9488 C   0  0  0  0  0  0  0  0  0  0  0  0
   18.7945  -11.2583  -20.5502 S   0  0  0  0  0  0  0  0  0  0  0  0
   20.0325  -10.7843  -16.7465 C   0  0  0  0  0  0  0  0  0  0  0  0
   19.2418  -10.1299  -16.0194 O   0  0  0  0  0  0  0  0  0  0  0  0
   23.3803  -10.6455  -15.0856 C   0  0  0  0  0  0  0  0  0  0  0  0
   21.9534  -10.1004  -15.2427 C   0  0  2  0  0  0  0  0  0  0  0  0
   21.3973  -10.7882  -16.3917 N   0  0  0  0  0  0  0  0  0  0  0  0
   22.0182   -8.6455  -15.5765 C   0  0  0  0  0  0  0  0  0  0  0  0
   21.9786   -8.2350  -16.7795 O   0  0  0  0  0  0  0  0  0  0  0  0
   19.0575   -2.1217  -16.8414 C   0  0  0  0  0  0  0  0  0  0  0  0
   19.1126   -3.8810  -16.4239 S   0  0  0  0  0  0  0  0  0  0  0  0
   20.7368   -4.3500  -15.7287 C   0  0  0  0  0  0  0  0  0  0  0  0
   20.8191   -5.8373  -15.5212 C   0  0  0  0  0  0  0  0  0  0  0  0
   22.1272   -6.2171  -14.9075 C   0  0  2  0  0  0  0  0  0  0  0  0
   22.1268   -7.6542  -14.5720 N   0  0  0  0  0  0  0  0  0  0  0  0
   22.3349   -5.4867  -13.6470 C   0  0  0  0  0  0  0  0  0  0  0  0
   22.8242   -4.1657  -13.7214 O   0  0  0  0  0  0  0  0  0  0  0  0
   22.1119   -5.9413  -12.4936 O   0  0  0  0  0  0  0  0  0  0  0  0
  2  1  1  1
  3  2  1  0
  4  3  1  0
  5  2  1  0
  6  5  2  0
  8  7  1  6
  8 10  1  0
  8  9  1  0
  9  5  1  0
 10 11  2  0
 13 12  1  0
 13 14  1  0
 14 15  1  0
 16 15  1  1
 17 16  1  0
 17 10  1  0
 18 19  1  0
 18 16  1  0
 20 18  2  0
M  END
$$$$
