CAM.pdb
     RDKit          3D

 20 19  0  0  1  0  0  0  0  0999 V2000
   17.5552  -13.7021  -18.6839 N   0  0  0  0  0  0  0  0  0  0  0  0
   17.0783  -12.4747  -18.0814 C   0  0  1  0  0  0  0  0  0  0  0  0
   16.8007  -12.8162  -16.6116 C   0  0  0  0  0  0  0  0  0  0  0  0
   15.1768  -13.6634  -16.5193 S   0  0  0  0  0  0  0  0  0  0  0  0
   18.1069  -11.4138  -18.0790 C   0  0  0  0  0  0  0  0  0  0  0  0
   19.2595  -11.7107  -17.6720 O   0  0  0  0  0  0  0  0  0  0  0  0
   18.2198   -7.8430  -19.2156 C   0  0  0  0  0  0  0  0  0  0  0  0
   18.9090   -9.0664  -18.5941 C   0  0  2  0  0  0  0  0  0  0  0  0
   17.8836  -10.0876  -18.5034 N   0  0  0  0  0  0  0  0  0  0  0  0
   19.3372   -8.7333  -17.2019 C   0  0  0  0  0  0  0  0  0  0  0  0
   18.5396   -8.8347  -16.2166 O   0  0  0  0  0  0  0  0  0  0  0  0
   25.0492  -10.1039  -14.8686 C   0  0  0  0  0  0  0  0  0  0  0  0
   24.6480   -8.8133  -13.6663 S   0  0  0  0  0  0  0  0  0  0  0  0
   22.9749   -8.1344  -13.9513 C   0  0  0  0  0  0  0  0  0  0  0  0
   22.4675   -8.5201  -15.3136 C   0  0  0  0  0  0  0  0  0  0  0  0
   21.0785   -8.0129  -15.5269 C   0  0  2  0  0  0  0  0  0  0  0  0
   20.6495   -8.2892  -16.9116 N   0  0  0  0  0  0  0  0  0  0  0  0
   21.0319   -6.5526  -15.3512 C   0  0  0  0  0  0  0  0  0  0  0  0
   20.9336   -6.0477  -14.0376 O   0  0  0  0  0  0  0  0  0  0  0  0
   21.0726   -5.7030  -16.2803 O   0  0  0  0  0  0  0  0  0  0  0  0
  2  1  1  6
  3  2  1  0
  4  3  1  0
  5  2  1  0
  6  5  2  0
  8  7  1  1
  8 10  1  0
  8  9  1  0
  9  5  1  0
 10 11  2  0
 13 12  1  0
 13 14  1  0
 14 15  1  0
 16 15  1  6
 17 16  1  0
 17 10  1  0
 18 19  1  0
 18 16  1  0
 20 18  2  0
M  END
$$$$
