VMT.pdb
     RDKit          3D

 23 22  0  0  1  0  0  0  0  0999 V2000
    6.4753  -16.5921   18.9722 C   0  0  0  0  0  0  0  0  0  0  0  0
    7.3569  -16.4083   20.1812 C   0  0  2  0  0  0  0  0  0  0  0  0
    6.6430  -17.0516   21.3617 C   0  0  0  0  0  0  0  0  0  0  0  0
    7.5588  -14.9614   20.5268 C   0  0  2  0  0  0  0  0  0  0  0  0
    8.1155  -14.2979   19.3723 N   0  0  0  0  0  0  0  0  0  0  0  0
    8.4394  -14.7638   21.7075 C   0  0  0  0  0  0  0  0  0  0  0  0
    9.6858  -14.9993   21.6624 O   0  0  0  0  0  0  0  0  0  0  0  0
    7.0222  -12.0291   27.9811 C   0  0  0  0  0  0  0  0  0  0  0  0
    5.9565  -12.3957   26.5572 S   0  0  0  0  0  0  0  0  0  0  0  0
    6.7634  -13.6937   25.5945 C   0  0  0  0  0  0  0  0  0  0  0  0
    8.1253  -13.2018   25.1461 C   0  0  0  0  0  0  0  0  0  0  0  0
    8.6776  -14.2241   24.1699 C   0  0  2  0  0  0  0  0  0  0  0  0
    7.9346  -14.3002   22.9523 N   0  0  0  0  0  0  0  0  0  0  0  0
    8.7574  -15.5146   24.8990 C   0  0  0  0  0  0  0  0  0  0  0  0
    7.6668  -16.1267   25.0735 O   0  0  0  0  0  0  0  0  0  0  0  0
   10.0262  -18.6037   23.7396 C   0  0  0  0  0  0  0  0  0  0  0  0
   10.6673  -18.4039   25.0946 C   0  0  1  0  0  0  0  0  0  0  0  0
   11.9914  -18.0723   24.9461 O   0  0  0  0  0  0  0  0  0  0  0  0
    9.8886  -17.4335   25.9532 C   0  0  2  0  0  0  0  0  0  0  0  0
    9.9383  -16.0825   25.3938 N   0  0  0  0  0  0  0  0  0  0  0  0
   10.4159  -17.4480   27.3289 C   0  0  0  0  0  0  0  0  0  0  0  0
   10.3823  -18.6047   28.0717 O   0  0  0  0  0  0  0  0  0  0  0  0
   10.8940  -16.4101   27.8222 O   0  0  0  0  0  0  0  0  0  0  0  0
  2  1  1  6
  2  4  1  0
  2  3  1  0
  4  6  1  0
  4  5  1  6
  6 13  1  0
  6  7  2  0
  8  9  1  0
 10  9  1  0
 11 10  1  0
 12 14  1  0
 12 11  1  1
 13 12  1  0
 14 15  2  0
 17 16  1  6
 17 18  1  0
 17 19  1  0
 19 20  1  6
 20 14  1  0
 21 19  1  0
 22 21  1  0
 23 21  2  0
M  END
$$$$
