VMT.pdb
     RDKit          3D

 23 22  0  0  1  0  0  0  0  0999 V2000
    7.7252  -12.3477   20.1583 C   0  0  0  0  0  0  0  0  0  0  0  0
    8.4836  -13.4134   19.4087 C   0  0  2  0  0  0  0  0  0  0  0  0
    7.8177  -13.5685   18.0487 C   0  0  0  0  0  0  0  0  0  0  0  0
    8.4115  -14.7506   20.0869 C   0  0  2  0  0  0  0  0  0  0  0  0
    7.0631  -15.2482   19.9552 N   0  0  0  0  0  0  0  0  0  0  0  0
    8.8017  -14.6970   21.5198 C   0  0  0  0  0  0  0  0  0  0  0  0
   10.0136  -14.5916   21.8821 O   0  0  0  0  0  0  0  0  0  0  0  0
    6.9203  -10.8011   26.6616 C   0  0  0  0  0  0  0  0  0  0  0  0
    6.3229  -12.4953   26.9268 S   0  0  0  0  0  0  0  0  0  0  0  0
    7.4807  -13.6142   26.1082 C   0  0  0  0  0  0  0  0  0  0  0  0
    6.9854  -13.8962   24.7035 C   0  0  0  0  0  0  0  0  0  0  0  0
    8.1138  -14.5803   23.9539 C   0  0  2  0  0  0  0  0  0  0  0  0
    7.8396  -14.7606   22.5637 N   0  0  0  0  0  0  0  0  0  0  0  0
    8.4004  -15.8473   24.6722 C   0  0  0  0  0  0  0  0  0  0  0  0
    7.4167  -16.6149   24.8665 O   0  0  0  0  0  0  0  0  0  0  0  0
   10.4125  -18.7301   23.6444 C   0  0  0  0  0  0  0  0  0  0  0  0
   10.8407  -18.3843   25.0529 C   0  0  1  0  0  0  0  0  0  0  0  0
   12.0950  -17.8256   25.0413 O   0  0  0  0  0  0  0  0  0  0  0  0
    9.8072  -17.5466   25.7707 C   0  0  2  0  0  0  0  0  0  0  0  0
    9.6633  -16.2357   25.1371 N   0  0  0  0  0  0  0  0  0  0  0  0
   10.1775  -17.4022   27.1894 C   0  0  0  0  0  0  0  0  0  0  0  0
   10.1726  -18.4967   28.0217 O   0  0  0  0  0  0  0  0  0  0  0  0
   10.4963  -16.2858   27.6381 O   0  0  0  0  0  0  0  0  0  0  0  0
  2  1  1  1
  2  4  1  0
  2  3  1  0
  4  6  1  0
  4  5  1  1
  6 13  1  0
  6  7  2  0
  8  9  1  0
 10  9  1  0
 11 10  1  0
 12 14  1  0
 12 11  1  1
 13 12  1  0
 14 15  2  0
 17 16  1  6
 17 18  1  0
 17 19  1  0
 19 20  1  6
 20 14  1  0
 21 19  1  0
 22 21  1  0
 23 21  2  0
M  END
$$$$
