VMT.pdb
     RDKit          3D

 23 22  0  0  1  0  0  0  0  0999 V2000
    8.6736  -18.0537   20.5418 C   0  0  0  0  0  0  0  0  0  0  0  0
    7.4619  -17.1591   20.6057 C   0  0  2  0  0  0  0  0  0  0  0  0
    6.7390  -17.2832   19.2718 C   0  0  0  0  0  0  0  0  0  0  0  0
    7.8273  -15.7127   20.7730 C   0  0  2  0  0  0  0  0  0  0  0  0
    8.7062  -15.3439   19.6893 N   0  0  0  0  0  0  0  0  0  0  0  0
    8.4737  -15.4244   22.0797 C   0  0  0  0  0  0  0  0  0  0  0  0
    9.7356  -15.3978   22.2132 O   0  0  0  0  0  0  0  0  0  0  0  0
    7.3742  -11.2984   27.5208 C   0  0  0  0  0  0  0  0  0  0  0  0
    6.1302  -12.1340   26.4952 S   0  0  0  0  0  0  0  0  0  0  0  0
    7.0045  -12.9705   25.1542 C   0  0  0  0  0  0  0  0  0  0  0  0
    7.2517  -14.4128   25.5498 C   0  0  0  0  0  0  0  0  0  0  0  0
    8.2519  -14.9882   24.5641 C   0  0  2  0  0  0  0  0  0  0  0  0
    7.7146  -15.1624   23.2521 N   0  0  0  0  0  0  0  0  0  0  0  0
    8.7734  -16.2419   25.1639 C   0  0  0  0  0  0  0  0  0  0  0  0
    7.9301  -17.1611   25.3598 O   0  0  0  0  0  0  0  0  0  0  0  0
   12.8587  -17.1357   25.5128 C   0  0  0  0  0  0  0  0  0  0  0  0
   11.8129  -18.2264   25.4535 C   0  0  1  0  0  0  0  0  0  0  0  0
   12.3020  -19.3803   26.0144 O   0  0  0  0  0  0  0  0  0  0  0  0
   10.4919  -17.7781   26.0356 C   0  0  2  0  0  0  0  0  0  0  0  0
   10.1102  -16.4639   25.5180 N   0  0  0  0  0  0  0  0  0  0  0  0
   10.5752  -17.7550   27.5065 C   0  0  0  0  0  0  0  0  0  0  0  0
   10.7921  -18.9185   28.2065 O   0  0  0  0  0  0  0  0  0  0  0  0
   10.4489  -16.6792   28.1194 O   0  0  0  0  0  0  0  0  0  0  0  0
  2  1  1  6
  2  4  1  0
  2  3  1  0
  4  6  1  0
  4  5  1  6
  6 13  1  0
  6  7  2  0
  8  9  1  0
 10  9  1  0
 11 10  1  0
 12 14  1  0
 12 11  1  1
 13 12  1  0
 14 15  2  0
 17 16  1  1
 17 18  1  0
 17 19  1  0
 19 20  1  6
 20 14  1  0
 21 19  1  0
 22 21  1  0
 23 21  2  0
M  END
$$$$
