VMT.pdb
     RDKit          3D

 23 22  0  0  1  0  0  0  0  0999 V2000
    7.1778  -14.8298   18.0134 C   0  0  0  0  0  0  0  0  0  0  0  0
    7.8059  -14.9484   19.3787 C   0  0  2  0  0  0  0  0  0  0  0  0
    7.0143  -15.9952   20.1498 C   0  0  0  0  0  0  0  0  0  0  0  0
    7.7195  -13.6699   20.1607 C   0  0  2  0  0  0  0  0  0  0  0  0
    8.4102  -12.6426   19.4187 N   0  0  0  0  0  0  0  0  0  0  0  0
    8.2884  -13.7862   21.5287 C   0  0  0  0  0  0  0  0  0  0  0  0
    9.5350  -13.9160   21.7286 O   0  0  0  0  0  0  0  0  0  0  0  0
    6.1004  -10.9496   26.9281 C   0  0  0  0  0  0  0  0  0  0  0  0
    6.5841  -12.5508   27.6352 S   0  0  0  0  0  0  0  0  0  0  0  0
    7.6134  -13.3952   26.4145 C   0  0  0  0  0  0  0  0  0  0  0  0
    6.9822  -13.2410   25.0449 C   0  0  0  0  0  0  0  0  0  0  0  0
    7.9352  -13.8538   24.0351 C   0  0  2  0  0  0  0  0  0  0  0  0
    7.4679  -13.7586   22.6886 N   0  0  0  0  0  0  0  0  0  0  0  0
    8.1922  -15.2471   24.4778 C   0  0  0  0  0  0  0  0  0  0  0  0
    7.1904  -16.0147   24.5187 O   0  0  0  0  0  0  0  0  0  0  0  0
   10.0898  -17.8328   22.7793 C   0  0  0  0  0  0  0  0  0  0  0  0
   10.5622  -17.8421   24.2158 C   0  0  1  0  0  0  0  0  0  0  0  0
   11.8306  -17.3232   24.2990 O   0  0  0  0  0  0  0  0  0  0  0  0
    9.5702  -17.1786   25.1437 C   0  0  2  0  0  0  0  0  0  0  0  0
    9.4462  -15.7518   24.8445 N   0  0  0  0  0  0  0  0  0  0  0  0
    9.9800  -17.3840   26.5440 C   0  0  0  0  0  0  0  0  0  0  0  0
   10.3456  -16.3117   27.3233 O   0  0  0  0  0  0  0  0  0  0  0  0
    9.9960  -18.5318   27.0250 O   0  0  0  0  0  0  0  0  0  0  0  0
  2  1  1  6
  2  4  1  0
  2  3  1  0
  4  6  1  0
  4  5  1  6
  6 13  1  0
  6  7  2  0
  8  9  1  0
 10  9  1  0
 11 10  1  0
 12 14  1  0
 12 11  1  1
 13 12  1  0
 14 15  2  0
 17 16  1  6
 17 18  1  0
 17 19  1  0
 19 20  1  6
 20 14  1  0
 21 19  1  0
 22 21  1  0
 23 21  2  0
M  END
$$$$
