VMT.pdb
     RDKit          3D

 23 22  0  0  1  0  0  0  0  0999 V2000
    8.5927  -18.0760   20.4374 C   0  0  0  0  0  0  0  0  0  0  0  0
    7.3864  -17.1877   20.2688 C   0  0  2  0  0  0  0  0  0  0  0  0
    6.8278  -17.4456   18.8764 C   0  0  0  0  0  0  0  0  0  0  0  0
    7.7361  -15.7295   20.3373 C   0  0  2  0  0  0  0  0  0  0  0  0
    8.7237  -15.4568   19.3208 N   0  0  0  0  0  0  0  0  0  0  0  0
    8.2440  -15.3161   21.6713 C   0  0  0  0  0  0  0  0  0  0  0  0
    9.4748  -15.3886   21.9731 O   0  0  0  0  0  0  0  0  0  0  0  0
    7.5322  -11.3141   28.0995 C   0  0  0  0  0  0  0  0  0  0  0  0
    6.3989  -12.0808   26.9056 S   0  0  0  0  0  0  0  0  0  0  0  0
    7.2465  -13.5064   26.1901 C   0  0  0  0  0  0  0  0  0  0  0  0
    6.7018  -13.7572   24.7979 C   0  0  0  0  0  0  0  0  0  0  0  0
    7.7636  -14.5189   24.0261 C   0  0  2  0  0  0  0  0  0  0  0  0
    7.3799  -14.8167   22.6828 N   0  0  0  0  0  0  0  0  0  0  0  0
    8.0981  -15.7217   24.8291 C   0  0  0  0  0  0  0  0  0  0  0  0
    7.1513  -16.5274   25.0506 O   0  0  0  0  0  0  0  0  0  0  0  0
   10.0165  -18.5899   23.9579 C   0  0  0  0  0  0  0  0  0  0  0  0
   10.5474  -18.1609   25.3073 C   0  0  1  0  0  0  0  0  0  0  0  0
   11.7961  -17.6069   25.1689 O   0  0  0  0  0  0  0  0  0  0  0  0
    9.5682  -17.2792   26.0482 C   0  0  2  0  0  0  0  0  0  0  0  0
    9.3676  -16.0123   25.3444 N   0  0  0  0  0  0  0  0  0  0  0  0
   10.0474  -17.0428   27.4213 C   0  0  0  0  0  0  0  0  0  0  0  0
   10.1415  -18.0864   28.3116 O   0  0  0  0  0  0  0  0  0  0  0  0
   10.3686  -15.8946   27.7784 O   0  0  0  0  0  0  0  0  0  0  0  0
  2  1  1  6
  2  4  1  0
  2  3  1  0
  4  6  1  0
  4  5  1  6
  6 13  1  0
  6  7  2  0
  8  9  1  0
 10  9  1  0
 11 10  1  0
 12 14  1  0
 12 11  1  1
 13 12  1  0
 14 15  2  0
 17 16  1  6
 17 18  1  0
 17 19  1  0
 19 20  1  6
 20 14  1  0
 21 19  1  0
 22 21  1  0
 23 21  2  0
M  END
$$$$
