VMT.pdb
     RDKit          3D

 23 22  0  0  1  0  0  0  0  0999 V2000
    7.9704  -18.0678   18.4511 C   0  0  0  0  0  0  0  0  0  0  0  0
    8.3582  -17.5808   19.8241 C   0  0  2  0  0  0  0  0  0  0  0  0
    7.3813  -18.1991   20.8143 C   0  0  0  0  0  0  0  0  0  0  0  0
    8.2340  -16.0908   19.9584 C   0  0  2  0  0  0  0  0  0  0  0  0
    9.0083  -15.4794   18.9051 N   0  0  0  0  0  0  0  0  0  0  0  0
    8.6812  -15.5878   21.2833 C   0  0  0  0  0  0  0  0  0  0  0  0
    9.8882  -15.6816   21.6646 O   0  0  0  0  0  0  0  0  0  0  0  0
    7.0910  -11.4953   27.7994 C   0  0  0  0  0  0  0  0  0  0  0  0
    6.3698  -12.0813   26.2392 S   0  0  0  0  0  0  0  0  0  0  0  0
    7.5140  -13.2859   25.5303 C   0  0  0  0  0  0  0  0  0  0  0  0
    7.0412  -13.6563   24.1385 C   0  0  0  0  0  0  0  0  0  0  0  0
    8.1162  -14.5244   23.5108 C   0  0  2  0  0  0  0  0  0  0  0  0
    7.7821  -14.9740   22.1967 N   0  0  0  0  0  0  0  0  0  0  0  0
    8.3882  -15.6283   24.4652 C   0  0  0  0  0  0  0  0  0  0  0  0
    7.4498  -16.4531   24.6485 O   0  0  0  0  0  0  0  0  0  0  0  0
   12.0972  -17.1101   24.6569 C   0  0  0  0  0  0  0  0  0  0  0  0
   10.8490  -17.9042   24.9704 C   0  0  1  0  0  0  0  0  0  0  0  0
   11.1857  -19.1087   25.5370 O   0  0  0  0  0  0  0  0  0  0  0  0
    9.8568  -17.1044   25.7833 C   0  0  2  0  0  0  0  0  0  0  0  0
    9.5917  -15.8082   25.1587 N   0  0  0  0  0  0  0  0  0  0  0  0
   10.3613  -16.9281   27.1564 C   0  0  0  0  0  0  0  0  0  0  0  0
   10.6754  -18.0241   27.9252 O   0  0  0  0  0  0  0  0  0  0  0  0
   10.5045  -15.7836   27.6238 O   0  0  0  0  0  0  0  0  0  0  0  0
  2  1  1  6
  2  4  1  0
  2  3  1  0
  4  6  1  0
  4  5  1  6
  6 13  1  0
  6  7  2  0
  8  9  1  0
 10  9  1  0
 11 10  1  0
 12 14  1  0
 12 11  1  1
 13 12  1  0
 14 15  2  0
 17 16  1  1
 17 18  1  0
 17 19  1  0
 19 20  1  6
 20 14  1  0
 21 19  1  0
 22 21  1  0
 23 21  2  0
M  END
$$$$
