VLD.pdb
     RDKit          3D

 24 23  0  0  1  0  0  0  0  0999 V2000
    8.5882  -17.8924   20.8790 C   0  0  0  0  0  0  0  0  0  0  0  0
    7.3823  -16.9940   20.8333 C   0  0  2  0  0  0  0  0  0  0  0  0
    6.7459  -17.2059   19.4608 C   0  0  0  0  0  0  0  0  0  0  0  0
    7.7393  -15.5221   20.9583 C   0  0  2  0  0  0  0  0  0  0  0  0
    8.7180  -15.1341   19.9744 N   0  0  0  0  0  0  0  0  0  0  0  0
    8.2585  -15.2959   22.3238 C   0  0  0  0  0  0  0  0  0  0  0  0
    9.4903  -15.4048   22.5275 O   0  0  0  0  0  0  0  0  0  0  0  0
    5.7706  -12.2254   26.3782 C   0  0  0  0  0  0  0  0  0  0  0  0
    6.9360  -12.7175   25.5219 C   0  0  1  0  0  0  0  0  0  0  0  0
    8.1628  -11.9895   25.9824 C   0  0  0  0  0  0  0  0  0  0  0  0
    7.0055  -14.2169   25.7267 C   0  0  0  0  0  0  0  0  0  0  0  0
    8.0058  -14.8445   24.7403 C   0  0  2  0  0  0  0  0  0  0  0  0
    7.4590  -14.9609   23.4363 N   0  0  0  0  0  0  0  0  0  0  0  0
    8.5344  -16.1180   25.2890 C   0  0  0  0  0  0  0  0  0  0  0  0
    7.8319  -17.1456   25.4688 O   0  0  0  0  0  0  0  0  0  0  0  0
    9.9016  -16.2438   25.6495 N   0  0  0  0  0  0  0  0  0  0  0  0
   10.4182  -17.4954   26.1598 C   0  0  1  0  0  0  0  0  0  0  0  0
   11.8732  -17.5822   25.7363 C   0  0  0  0  0  0  0  0  0  0  0  0
   12.0165  -17.7531   24.2738 C   0  0  0  0  0  0  0  0  0  0  0  0
   11.3163  -18.6075   23.6511 O   0  0  0  0  0  0  0  0  0  0  0  0
   10.4113  -17.5428   27.6404 C   0  0  0  0  0  0  0  0  0  0  0  0
    9.9978  -16.5321   28.4770 O   0  0  0  0  0  0  0  0  0  0  0  0
   12.9145  -16.9981   23.5017 O   0  0  0  0  0  0  0  0  0  0  0  0
   10.8227  -18.6078   28.1739 O   0  0  0  0  0  0  0  0  0  0  0  0
  2  1  1  6
  2  4  1  0
  3  2  1  0
  4  6  1  0
  4  5  1  6
  6  7  2  0
  9  8  1  1
  9 10  1  0
 11  9  1  0
 12 11  1  1
 12 14  1  0
 13  6  1  0
 13 12  1  0
 14 15  2  0
 16 14  1  0
 16 17  1  0
 17 21  1  0
 17 18  1  1
 19 20  2  0
 19 18  1  0
 21 24  2  0
 21 22  1  0
 23 19  1  0
M  END
$$$$
