VLD.pdb
     RDKit          3D

 24 23  0  0  1  0  0  0  0  0999 V2000
    8.6864  -17.1586   21.0249 C   0  0  0  0  0  0  0  0  0  0  0  0
    7.3580  -16.4664   21.1652 C   0  0  2  0  0  0  0  0  0  0  0  0
    6.5660  -16.8065   19.9039 C   0  0  0  0  0  0  0  0  0  0  0  0
    7.4869  -14.9540   21.2400 C   0  0  2  0  0  0  0  0  0  0  0  0
    8.2434  -14.4362   20.1282 N   0  0  0  0  0  0  0  0  0  0  0  0
    8.1480  -14.6181   22.5188 C   0  0  0  0  0  0  0  0  0  0  0  0
    9.3647  -14.3177   22.5092 O   0  0  0  0  0  0  0  0  0  0  0  0
    5.5618  -12.1228   26.8033 C   0  0  0  0  0  0  0  0  0  0  0  0
    6.5579  -12.4382   25.6890 C   0  0  1  0  0  0  0  0  0  0  0  0
    7.5344  -11.3023   25.6328 C   0  0  0  0  0  0  0  0  0  0  0  0
    7.1897  -13.7663   26.0522 C   0  0  0  0  0  0  0  0  0  0  0  0
    8.1748  -14.2065   24.9554 C   0  0  2  0  0  0  0  0  0  0  0  0
    7.5026  -14.6096   23.7727 N   0  0  0  0  0  0  0  0  0  0  0  0
    9.1157  -15.2217   25.4906 C   0  0  0  0  0  0  0  0  0  0  0  0
    9.7215  -15.1028   26.5864 O   0  0  0  0  0  0  0  0  0  0  0  0
    9.3873  -16.4144   24.7704 N   0  0  0  0  0  0  0  0  0  0  0  0
   10.4395  -17.3111   25.1975 C   0  0  1  0  0  0  0  0  0  0  0  0
   10.0325  -18.7099   24.7714 C   0  0  0  0  0  0  0  0  0  0  0  0
    8.8440  -19.1914   25.5092 C   0  0  0  0  0  0  0  0  0  0  0  0
    8.8560  -19.2677   26.7750 O   0  0  0  0  0  0  0  0  0  0  0  0
   11.7268  -17.0273   24.5216 C   0  0  0  0  0  0  0  0  0  0  0  0
   11.9496  -16.0330   23.5975 O   0  0  0  0  0  0  0  0  0  0  0  0
    7.6565  -19.5841   24.8703 O   0  0  0  0  0  0  0  0  0  0  0  0
   12.7003  -17.7676   24.8257 O   0  0  0  0  0  0  0  0  0  0  0  0
  2  1  1  6
  2  4  1  0
  3  2  1  0
  4  6  1  0
  4  5  1  6
  6  7  2  0
  9  8  1  1
  9 10  1  0
 11  9  1  0
 12 11  1  1
 12 14  1  0
 13  6  1  0
 13 12  1  0
 14 15  2  0
 16 14  1  0
 16 17  1  0
 17 21  1  0
 17 18  1  6
 19 20  2  0
 19 18  1  0
 21 24  2  0
 21 22  1  0
 23 19  1  0
M  END
$$$$
