VLD.pdb
     RDKit          3D

 24 23  0  0  1  0  0  0  0  0999 V2000
    7.8795  -17.7040   20.1510 C   0  0  0  0  0  0  0  0  0  0  0  0
    8.2979  -17.0290   21.4288 C   0  0  2  0  0  0  0  0  0  0  0  0
    7.7380  -17.8838   22.5644 C   0  0  0  0  0  0  0  0  0  0  0  0
    7.7219  -15.6299   21.5719 C   0  0  2  0  0  0  0  0  0  0  0  0
    7.9910  -14.8297   20.4042 N   0  0  0  0  0  0  0  0  0  0  0  0
    8.3227  -15.0130   22.7734 C   0  0  0  0  0  0  0  0  0  0  0  0
    9.5117  -14.6205   22.7206 O   0  0  0  0  0  0  0  0  0  0  0  0
    5.5567  -12.0979   26.6612 C   0  0  0  0  0  0  0  0  0  0  0  0
    6.6033  -12.4914   25.6203 C   0  0  1  0  0  0  0  0  0  0  0  0
    7.5235  -11.3202   25.4522 C   0  0  0  0  0  0  0  0  0  0  0  0
    7.2879  -13.7308   26.1591 C   0  0  0  0  0  0  0  0  0  0  0  0
    8.2962  -14.2731   25.1311 C   0  0  2  0  0  0  0  0  0  0  0  0
    7.6479  -14.8288   23.9981 N   0  0  0  0  0  0  0  0  0  0  0  0
    9.2537  -15.1949   25.7913 C   0  0  0  0  0  0  0  0  0  0  0  0
    9.8334  -14.9385   26.8776 O   0  0  0  0  0  0  0  0  0  0  0  0
    9.5729  -16.4508   25.2118 N   0  0  0  0  0  0  0  0  0  0  0  0
   10.4815  -17.3604   25.8757 C   0  0  1  0  0  0  0  0  0  0  0  0
    9.6783  -18.5892   26.2615 C   0  0  0  0  0  0  0  0  0  0  0  0
   10.4930  -19.5737   27.0070 C   0  0  0  0  0  0  0  0  0  0  0  0
   11.6959  -19.3162   27.3153 O   0  0  0  0  0  0  0  0  0  0  0  0
   11.5595  -17.8324   24.9759 C   0  0  0  0  0  0  0  0  0  0  0  0
   12.8689  -18.0542   25.3344 O   0  0  0  0  0  0  0  0  0  0  0  0
    9.9979  -20.8243   27.4109 O   0  0  0  0  0  0  0  0  0  0  0  0
   11.2405  -18.0477   23.7759 O   0  0  0  0  0  0  0  0  0  0  0  0
  2  1  1  6
  2  4  1  0
  3  2  1  0
  4  6  1  0
  4  5  1  6
  6  7  2  0
  9  8  1  1
  9 10  1  0
 11  9  1  0
 12 11  1  1
 12 14  1  0
 13  6  1  0
 13 12  1  0
 14 15  2  0
 16 14  1  0
 16 17  1  0
 17 21  1  0
 17 18  1  6
 19 20  2  0
 19 18  1  0
 21 24  2  0
 21 22  1  0
 23 19  1  0
M  END
$$$$
