VLD.pdb
     RDKit          3D

 24 23  0  0  1  0  0  0  0  0999 V2000
    6.8596  -20.7795   23.5236 C   0  0  0  0  0  0  0  0  0  0  0  0
    7.3205  -19.4371   24.0229 C   0  0  2  0  0  0  0  0  0  0  0  0
    6.8785  -19.3518   25.4828 C   0  0  0  0  0  0  0  0  0  0  0  0
    6.6812  -18.2791   23.2747 C   0  0  2  0  0  0  0  0  0  0  0  0
    6.8442  -18.4210   21.8501 N   0  0  0  0  0  0  0  0  0  0  0  0
    7.3139  -17.0295   23.7475 C   0  0  0  0  0  0  0  0  0  0  0  0
    8.5080  -16.8035   23.4411 O   0  0  0  0  0  0  0  0  0  0  0  0
    7.4670  -11.9454   25.1423 C   0  0  0  0  0  0  0  0  0  0  0  0
    7.2060  -12.8093   26.3747 C   0  0  1  0  0  0  0  0  0  0  0  0
    6.4392  -11.9689   27.3508 C   0  0  0  0  0  0  0  0  0  0  0  0
    6.4423  -14.0224   25.8847 C   0  0  0  0  0  0  0  0  0  0  0  0
    7.3411  -14.8934   24.9898 C   0  0  2  0  0  0  0  0  0  0  0  0
    6.6648  -16.0535   24.5317 N   0  0  0  0  0  0  0  0  0  0  0  0
    8.6263  -15.1754   25.6760 C   0  0  0  0  0  0  0  0  0  0  0  0
    9.5853  -14.3630   25.7233 O   0  0  0  0  0  0  0  0  0  0  0  0
    8.8443  -16.4143   26.3338 N   0  0  0  0  0  0  0  0  0  0  0  0
   10.0411  -16.6336   27.1170 C   0  0  1  0  0  0  0  0  0  0  0  0
    9.9739  -15.6921   28.3056 C   0  0  0  0  0  0  0  0  0  0  0  0
   11.1648  -15.8099   29.1754 C   0  0  0  0  0  0  0  0  0  0  0  0
   12.1469  -16.5351   28.8320 O   0  0  0  0  0  0  0  0  0  0  0  0
   10.1031  -18.0048   27.6741 C   0  0  0  0  0  0  0  0  0  0  0  0
    9.1720  -18.9979   27.4762 O   0  0  0  0  0  0  0  0  0  0  0  0
   11.2805  -15.1422   30.4055 O   0  0  0  0  0  0  0  0  0  0  0  0
   11.1015  -18.2785   28.3928 O   0  0  0  0  0  0  0  0  0  0  0  0
  2  1  1  6
  2  4  1  0
  3  2  1  0
  4  6  1  0
  4  5  1  6
  6  7  2  0
  9  8  1  6
  9 10  1  0
 11  9  1  0
 12 11  1  1
 12 14  1  0
 13  6  1  0
 13 12  1  0
 14 15  2  0
 16 14  1  0
 16 17  1  0
 17 21  1  0
 17 18  1  1
 19 20  2  0
 19 18  1  0
 21 24  2  0
 21 22  1  0
 23 19  1  0
M  END
$$$$
