VLD.pdb
     RDKit          3D

 24 23  0  0  1  0  0  0  0  0999 V2000
    7.5435  -17.4744   18.8566 C   0  0  0  0  0  0  0  0  0  0  0  0
    7.9332  -16.9941   20.2281 C   0  0  2  0  0  0  0  0  0  0  0  0
    6.8850  -17.5538   21.1883 C   0  0  0  0  0  0  0  0  0  0  0  0
    7.9137  -15.4794   20.3494 C   0  0  2  0  0  0  0  0  0  0  0  0
    8.8025  -14.8652   19.3958 N   0  0  0  0  0  0  0  0  0  0  0  0
    8.3117  -15.1300   21.7295 C   0  0  0  0  0  0  0  0  0  0  0  0
    9.4961  -15.3323   22.0862 O   0  0  0  0  0  0  0  0  0  0  0  0
    8.4381  -12.2651   26.0991 C   0  0  0  0  0  0  0  0  0  0  0  0
    7.2981  -13.2736   26.2290 C   0  0  1  0  0  0  0  0  0  0  0  0
    6.2627  -12.6595   27.1222 C   0  0  0  0  0  0  0  0  0  0  0  0
    6.8072  -13.5381   24.8204 C   0  0  0  0  0  0  0  0  0  0  0  0
    7.8838  -14.2814   24.0107 C   0  0  2  0  0  0  0  0  0  0  0  0
    7.4447  -14.5761   22.6941 N   0  0  0  0  0  0  0  0  0  0  0  0
    8.3652  -15.4650   24.7656 C   0  0  0  0  0  0  0  0  0  0  0  0
    7.6214  -16.4133   25.1252 O   0  0  0  0  0  0  0  0  0  0  0  0
    9.7313  -15.5898   25.1306 N   0  0  0  0  0  0  0  0  0  0  0  0
   10.2190  -16.7966   25.7626 C   0  0  1  0  0  0  0  0  0  0  0  0
   11.6524  -16.9916   25.3030 C   0  0  0  0  0  0  0  0  0  0  0  0
   11.8113  -18.2126   24.4829 C   0  0  0  0  0  0  0  0  0  0  0  0
   10.8161  -18.9581   24.2336 O   0  0  0  0  0  0  0  0  0  0  0  0
   10.2670  -16.6766   27.2383 C   0  0  0  0  0  0  0  0  0  0  0  0
   10.5728  -15.5364   27.9445 O   0  0  0  0  0  0  0  0  0  0  0  0
   13.0438  -18.6131   23.9414 O   0  0  0  0  0  0  0  0  0  0  0  0
   10.0028  -17.7167   27.8990 O   0  0  0  0  0  0  0  0  0  0  0  0
  2  1  1  6
  2  4  1  0
  3  2  1  0
  4  6  1  0
  4  5  1  6
  6  7  2  0
  9  8  1  6
  9 10  1  0
 11  9  1  0
 12 11  1  1
 12 14  1  0
 13  6  1  0
 13 12  1  0
 14 15  2  0
 16 14  1  0
 16 17  1  0
 17 21  1  0
 17 18  1  6
 19 20  2  0
 19 18  1  0
 21 24  2  0
 21 22  1  0
 23 19  1  0
M  END
$$$$
