VLD.pdb
     RDKit          3D

 24 23  0  0  1  0  0  0  0  0999 V2000
    7.9845  -17.4913   20.0323 C   0  0  0  0  0  0  0  0  0  0  0  0
    8.3871  -16.9288   21.3684 C   0  0  2  0  0  0  0  0  0  0  0  0
    7.8083  -17.8742   22.4196 C   0  0  0  0  0  0  0  0  0  0  0  0
    7.8138  -15.5444   21.6217 C   0  0  2  0  0  0  0  0  0  0  0  0
    8.1532  -14.6333   20.5581 N   0  0  0  0  0  0  0  0  0  0  0  0
    8.3510  -15.0601   22.9109 C   0  0  0  0  0  0  0  0  0  0  0  0
    9.5714  -14.7866   22.9923 O   0  0  0  0  0  0  0  0  0  0  0  0
    5.5622  -12.1025   26.7221 C   0  0  0  0  0  0  0  0  0  0  0  0
    6.6935  -12.5368   25.7920 C   0  0  1  0  0  0  0  0  0  0  0  0
    7.7607  -11.4871   25.8720 C   0  0  0  0  0  0  0  0  0  0  0  0
    7.1417  -13.8987   26.2812 C   0  0  0  0  0  0  0  0  0  0  0  0
    8.1733  -14.5012   25.3115 C   0  0  2  0  0  0  0  0  0  0  0  0
    7.5813  -14.8789   24.0786 N   0  0  0  0  0  0  0  0  0  0  0  0
    8.9260  -15.5922   25.9789 C   0  0  0  0  0  0  0  0  0  0  0  0
    8.4258  -16.7088   26.2699 O   0  0  0  0  0  0  0  0  0  0  0  0
   10.2905  -15.4249   26.3330 N   0  0  0  0  0  0  0  0  0  0  0  0
   11.0013  -16.4653   27.0444 C   0  0  1  0  0  0  0  0  0  0  0  0
   12.4808  -16.2559   26.7775 C   0  0  0  0  0  0  0  0  0  0  0  0
   12.8660  -16.6878   25.4159 C   0  0  0  0  0  0  0  0  0  0  0  0
   12.0073  -17.1913   24.6303 O   0  0  0  0  0  0  0  0  0  0  0  0
   10.8237  -16.3633   28.5115 C   0  0  0  0  0  0  0  0  0  0  0  0
   11.3122  -17.2472   29.4456 O   0  0  0  0  0  0  0  0  0  0  0  0
   14.1745  -16.5698   24.9196 O   0  0  0  0  0  0  0  0  0  0  0  0
   10.1647  -15.3757   28.9340 O   0  0  0  0  0  0  0  0  0  0  0  0
  2  1  1  6
  2  4  1  0
  3  2  1  0
  4  6  1  0
  4  5  1  6
  6  7  2  0
  9  8  1  1
  9 10  1  0
 11  9  1  0
 12 11  1  1
 12 14  1  0
 13  6  1  0
 13 12  1  0
 14 15  2  0
 16 14  1  0
 16 17  1  0
 17 21  1  0
 17 18  1  1
 19 20  2  0
 19 18  1  0
 21 24  2  0
 21 22  1  0
 23 19  1  0
M  END
$$$$
