VLD.pdb
     RDKit          3D

 24 23  0  0  1  0  0  0  0  0999 V2000
    8.4686  -18.3102   21.5308 C   0  0  0  0  0  0  0  0  0  0  0  0
    7.6845  -17.1606   20.9587 C   0  0  2  0  0  0  0  0  0  0  0  0
    7.3813  -17.5327   19.5084 C   0  0  0  0  0  0  0  0  0  0  0  0
    8.4686  -15.8588   20.9509 C   0  0  2  0  0  0  0  0  0  0  0  0
    9.7418  -16.0170   20.2949 N   0  0  0  0  0  0  0  0  0  0  0  0
    8.6573  -15.4349   22.3545 C   0  0  0  0  0  0  0  0  0  0  0  0
    9.7388  -15.7055   22.9271 O   0  0  0  0  0  0  0  0  0  0  0  0
    8.3330  -11.9073   26.2236 C   0  0  0  0  0  0  0  0  0  0  0  0
    7.2014  -12.9214   26.3799 C   0  0  1  0  0  0  0  0  0  0  0  0
    6.0727  -12.2223   27.0758 C   0  0  0  0  0  0  0  0  0  0  0  0
    6.8575  -13.3880   24.9802 C   0  0  0  0  0  0  0  0  0  0  0  0
    7.9463  -14.3381   24.4518 C   0  0  2  0  0  0  0  0  0  0  0  0
    7.6955  -14.7361   23.1132 N   0  0  0  0  0  0  0  0  0  0  0  0
    8.1375  -15.4701   25.3922 C   0  0  0  0  0  0  0  0  0  0  0  0
    7.4495  -16.5226   25.3667 O   0  0  0  0  0  0  0  0  0  0  0  0
    9.1374  -15.4199   26.3986 N   0  0  0  0  0  0  0  0  0  0  0  0
    9.6237  -16.6343   27.0170 C   0  0  1  0  0  0  0  0  0  0  0  0
   10.3779  -17.4061   25.9496 C   0  0  0  0  0  0  0  0  0  0  0  0
   10.9847  -18.6448   26.4844 C   0  0  0  0  0  0  0  0  0  0  0  0
   12.2249  -18.6974   26.7439 O   0  0  0  0  0  0  0  0  0  0  0  0
   10.5967  -16.3612   28.1001 C   0  0  0  0  0  0  0  0  0  0  0  0
   11.0535  -15.1200   28.4788 O   0  0  0  0  0  0  0  0  0  0  0  0
   10.2438  -19.8118   26.7330 O   0  0  0  0  0  0  0  0  0  0  0  0
   11.0414  -17.3605   28.7260 O   0  0  0  0  0  0  0  0  0  0  0  0
  2  1  1  6
  2  4  1  0
  3  2  1  0
  4  6  1  0
  4  5  1  1
  6  7  2  0
  9  8  1  6
  9 10  1  0
 11  9  1  0
 12 11  1  1
 12 14  1  0
 13  6  1  0
 13 12  1  0
 14 15  2  0
 16 14  1  0
 16 17  1  0
 17 21  1  0
 17 18  1  6
 19 20  2  0
 19 18  1  0
 21 24  2  0
 21 22  1  0
 23 19  1  0
M  END
$$$$
