VLD.pdb
     RDKit          3D

 24 23  0  0  1  0  0  0  0  0999 V2000
    7.5642  -19.6367   23.8782 C   0  0  0  0  0  0  0  0  0  0  0  0
    6.3232  -18.9613   23.3610 C   0  0  2  0  0  0  0  0  0  0  0  0
    5.5956  -20.0018   22.5115 C   0  0  0  0  0  0  0  0  0  0  0  0
    6.6294  -17.7669   22.4726 C   0  0  2  0  0  0  0  0  0  0  0  0
    7.4069  -18.1539   21.3227 N   0  0  0  0  0  0  0  0  0  0  0  0
    7.3636  -16.7740   23.2851 C   0  0  0  0  0  0  0  0  0  0  0  0
    8.6100  -16.8703   23.3755 O   0  0  0  0  0  0  0  0  0  0  0  0
    8.1721  -11.9797   26.2808 C   0  0  0  0  0  0  0  0  0  0  0  0
    7.0940  -13.0406   26.4951 C   0  0  1  0  0  0  0  0  0  0  0  0
    5.9671  -12.3843   27.2344 C   0  0  0  0  0  0  0  0  0  0  0  0
    6.7101  -13.5357   25.1158 C   0  0  0  0  0  0  0  0  0  0  0  0
    7.5184  -14.7947   24.7566 C   0  0  2  0  0  0  0  0  0  0  0  0
    6.7580  -15.7065   23.9797 N   0  0  0  0  0  0  0  0  0  0  0  0
    8.1078  -15.3906   25.9813 C   0  0  0  0  0  0  0  0  0  0  0  0
    7.5644  -16.3148   26.6390 O   0  0  0  0  0  0  0  0  0  0  0  0
    9.3528  -14.9332   26.4872 N   0  0  0  0  0  0  0  0  0  0  0  0
   10.2320  -15.8303   27.2055 C   0  0  1  0  0  0  0  0  0  0  0  0
   11.3386  -16.2309   26.2471 C   0  0  0  0  0  0  0  0  0  0  0  0
   12.3215  -17.1368   26.8812 C   0  0  0  0  0  0  0  0  0  0  0  0
   12.1568  -17.5367   28.0733 O   0  0  0  0  0  0  0  0  0  0  0  0
   10.8938  -15.1672   28.3530 C   0  0  0  0  0  0  0  0  0  0  0  0
   11.5278  -15.8032   29.3950 O   0  0  0  0  0  0  0  0  0  0  0  0
   13.4703  -17.6000   26.2192 O   0  0  0  0  0  0  0  0  0  0  0  0
   10.8696  -13.9073   28.3689 O   0  0  0  0  0  0  0  0  0  0  0  0
  2  1  1  6
  2  4  1  0
  3  2  1  0
  4  6  1  0
  4  5  1  6
  6  7  2  0
  9  8  1  6
  9 10  1  0
 11  9  1  0
 12 11  1  1
 12 14  1  0
 13  6  1  0
 13 12  1  0
 14 15  2  0
 16 14  1  0
 16 17  1  0
 17 21  1  0
 17 18  1  6
 19 20  2  0
 19 18  1  0
 21 24  2  0
 21 22  1  0
 23 19  1  0
M  END
$$$$
