VLD.pdb
     RDKit          3D

 24 23  0  0  1  0  0  0  0  0999 V2000
    7.6951  -16.7650   19.5171 C   0  0  0  0  0  0  0  0  0  0  0  0
    8.1895  -16.4106   20.8931 C   0  0  2  0  0  0  0  0  0  0  0  0
    7.6961  -17.5194   21.8209 C   0  0  0  0  0  0  0  0  0  0  0  0
    7.6255  -15.0938   21.4007 C   0  0  2  0  0  0  0  0  0  0  0  0
    7.8810  -14.0212   20.4730 N   0  0  0  0  0  0  0  0  0  0  0  0
    8.2500  -14.8076   22.7096 C   0  0  0  0  0  0  0  0  0  0  0  0
    9.4806  -14.5746   22.7537 O   0  0  0  0  0  0  0  0  0  0  0  0
    5.6341  -12.1911   26.7263 C   0  0  0  0  0  0  0  0  0  0  0  0
    6.7130  -12.5968   25.7240 C   0  0  1  0  0  0  0  0  0  0  0  0
    7.7271  -11.4932   25.6935 C   0  0  0  0  0  0  0  0  0  0  0  0
    7.2672  -13.9190   26.2136 C   0  0  0  0  0  0  0  0  0  0  0  0
    8.2175  -14.5210   25.1639 C   0  0  2  0  0  0  0  0  0  0  0  0
    7.5542  -14.7762   23.9359 N   0  0  0  0  0  0  0  0  0  0  0  0
    8.9201  -15.7006   25.7271 C   0  0  0  0  0  0  0  0  0  0  0  0
    8.3439  -16.7761   26.0323 O   0  0  0  0  0  0  0  0  0  0  0  0
   10.3207  -15.6732   25.9563 N   0  0  0  0  0  0  0  0  0  0  0  0
   10.9893  -16.7970   26.5759 C   0  0  1  0  0  0  0  0  0  0  0  0
   12.4722  -16.6454   26.2900 C   0  0  0  0  0  0  0  0  0  0  0  0
   12.7659  -16.6914   24.8407 C   0  0  0  0  0  0  0  0  0  0  0  0
   13.4306  -15.7646   24.2862 O   0  0  0  0  0  0  0  0  0  0  0  0
   10.8461  -16.7912   28.0503 C   0  0  0  0  0  0  0  0  0  0  0  0
   10.1956  -15.8332   28.7929 O   0  0  0  0  0  0  0  0  0  0  0  0
   12.3382  -17.7386   24.0083 O   0  0  0  0  0  0  0  0  0  0  0  0
   11.3700  -17.7534   28.6731 O   0  0  0  0  0  0  0  0  0  0  0  0
  2  1  1  6
  2  4  1  0
  3  2  1  0
  4  6  1  0
  4  5  1  6
  6  7  2  0
  9  8  1  1
  9 10  1  0
 11  9  1  0
 12 11  1  1
 12 14  1  0
 13  6  1  0
 13 12  1  0
 14 15  2  0
 16 14  1  0
 16 17  1  0
 17 21  1  0
 17 18  1  1
 19 20  2  0
 19 18  1  0
 21 24  2  0
 21 22  1  0
 23 19  1  0
M  END
$$$$
