VLD.pdb
     RDKit          3D

 24 23  0  0  1  0  0  0  0  0999 V2000
    7.2160  -17.1597   18.9151 C   0  0  0  0  0  0  0  0  0  0  0  0
    7.6964  -16.6254   20.2370 C   0  0  2  0  0  0  0  0  0  0  0  0
    6.8666  -17.3314   21.3079 C   0  0  0  0  0  0  0  0  0  0  0  0
    7.4711  -15.1298   20.3848 C   0  0  2  0  0  0  0  0  0  0  0  0
    8.1447  -14.3925   19.3459 N   0  0  0  0  0  0  0  0  0  0  0  0
    7.9712  -14.7253   21.7158 C   0  0  0  0  0  0  0  0  0  0  0  0
    9.2080  -14.7133   21.9183 O   0  0  0  0  0  0  0  0  0  0  0  0
    8.3893  -11.9378   26.0530 C   0  0  0  0  0  0  0  0  0  0  0  0
    7.3060  -12.9841   26.3082 C   0  0  1  0  0  0  0  0  0  0  0  0
    6.3417  -12.3929   27.2920 C   0  0  0  0  0  0  0  0  0  0  0  0
    6.6884  -13.2888   24.9589 C   0  0  0  0  0  0  0  0  0  0  0  0
    7.6829  -14.0676   24.0803 C   0  0  2  0  0  0  0  0  0  0  0  0
    7.1480  -14.3447   22.7958 N   0  0  0  0  0  0  0  0  0  0  0  0
    8.1716  -15.2683   24.8026 C   0  0  0  0  0  0  0  0  0  0  0  0
    7.4219  -16.1954   25.2029 O   0  0  0  0  0  0  0  0  0  0  0  0
    9.5524  -15.4358   25.0864 N   0  0  0  0  0  0  0  0  0  0  0  0
   10.0340  -16.6425   25.7232 C   0  0  1  0  0  0  0  0  0  0  0  0
   11.4986  -16.7875   25.3521 C   0  0  0  0  0  0  0  0  0  0  0  0
   11.6750  -17.3914   24.0131 C   0  0  0  0  0  0  0  0  0  0  0  0
   10.6703  -17.7598   23.3325 O   0  0  0  0  0  0  0  0  0  0  0  0
    9.9850  -16.5545   27.2011 C   0  0  0  0  0  0  0  0  0  0  0  0
   10.1036  -17.6098   28.0755 O   0  0  0  0  0  0  0  0  0  0  0  0
   12.9351  -17.5895   23.4253 O   0  0  0  0  0  0  0  0  0  0  0  0
    9.8194  -15.4065   27.6939 O   0  0  0  0  0  0  0  0  0  0  0  0
  2  1  1  6
  2  4  1  0
  3  2  1  0
  4  6  1  0
  4  5  1  6
  6  7  2  0
  9  8  1  6
  9 10  1  0
 11  9  1  0
 12 11  1  1
 12 14  1  0
 13  6  1  0
 13 12  1  0
 14 15  2  0
 16 14  1  0
 16 17  1  0
 17 21  1  0
 17 18  1  1
 19 20  2  0
 19 18  1  0
 21 24  2  0
 21 22  1  0
 23 19  1  0
M  END
$$$$
