NVD.pdb
     RDKit          3D

 24 23  0  0  1  0  0  0  0  0999 V2000
   16.3979  -15.0591  -18.9259 N   0  0  0  0  0  0  0  0  0  0  0  0
   17.7468  -14.6307  -18.9470 C   0  0  0  0  0  0  0  0  0  0  0  0
   18.4851  -15.0852  -19.8724 O   0  0  0  0  0  0  0  0  0  0  0  0
   18.2312  -13.6934  -17.9157 C   0  0  0  0  0  0  0  0  0  0  0  0
   19.4782  -14.2330  -17.2979 C   0  0  2  0  0  0  0  0  0  0  0  0
   19.1051  -15.3966  -16.5150 N   0  0  0  0  0  0  0  0  0  0  0  0
   20.1194  -13.2669  -16.3679 C   0  0  0  0  0  0  0  0  0  0  0  0
   19.6124  -13.0319  -15.2493 O   0  0  0  0  0  0  0  0  0  0  0  0
   24.1872  -10.8537  -14.9794 C   0  0  0  0  0  0  0  0  0  0  0  0
   23.4454  -11.8798  -15.7888 C   0  0  1  0  0  0  0  0  0  0  0  0
   23.6655  -13.2789  -15.2600 C   0  0  0  0  0  0  0  0  0  0  0  0
   21.9688  -11.5968  -15.8835 C   0  0  2  0  0  0  0  0  0  0  0  0
   21.3289  -12.5763  -16.7140 N   0  0  0  0  0  0  0  0  0  0  0  0
   21.6950  -10.2007  -16.3242 C   0  0  0  0  0  0  0  0  0  0  0  0
   21.5460  -10.0377  -17.5620 O   0  0  0  0  0  0  0  0  0  0  0  0
   21.5998   -9.1077  -15.4633 N   0  0  0  0  0  0  0  0  0  0  0  0
   21.2374   -7.7630  -15.9487 C   0  0  1  0  0  0  0  0  0  0  0  0
   19.9292   -7.7854  -16.6469 C   0  0  0  0  0  0  0  0  0  0  0  0
   19.3808   -6.4903  -17.0424 C   0  0  0  0  0  0  0  0  0  0  0  0
   19.9774   -5.6051  -17.6966 O   0  0  0  0  0  0  0  0  0  0  0  0
   21.1998   -6.8367  -14.7644 C   0  0  0  0  0  0  0  0  0  0  0  0
   21.2458   -7.2078  -13.5750 O   0  0  0  0  0  0  0  0  0  0  0  0
   18.0580   -6.1496  -16.6805 O   0  0  0  0  0  0  0  0  0  0  0  0
   21.1050   -5.4496  -14.9513 O   0  0  0  0  0  0  0  0  0  0  0  0
  1  2  1  0
  2  3  2  0
  4  2  1  0
  5  4  1  0
  5  6  1  1
  7  5  1  0
  7  8  2  0
 10  9  1  1
 10 11  1  0
 10 12  1  0
 12 13  1  6
 13  7  1  0
 14 12  1  0
 15 14  2  0
 16 14  1  0
 17 16  1  0
 17 21  1  0
 17 18  1  1
 19 18  1  0
 20 19  2  0
 21 22  2  0
 21 24  1  0
 23 19  1  0
M  END
$$$$
