NVD.pdb
     RDKit          3D

 24 23  0  0  1  0  0  0  0  0999 V2000
   26.9911  -11.5666  -19.9753 N   0  0  0  0  0  0  0  0  0  0  0  0
   26.3719  -10.3673  -20.4020 C   0  0  0  0  0  0  0  0  0  0  0  0
   27.0368   -9.6152  -21.1767 O   0  0  0  0  0  0  0  0  0  0  0  0
   25.0081  -10.0457  -19.9400 C   0  0  0  0  0  0  0  0  0  0  0  0
   24.5734  -11.0541  -18.9291 C   0  0  2  0  0  0  0  0  0  0  0  0
   24.3570  -12.3056  -19.6313 N   0  0  0  0  0  0  0  0  0  0  0  0
   23.2886  -10.6910  -18.2757 C   0  0  0  0  0  0  0  0  0  0  0  0
   22.2294  -10.6499  -18.9389 O   0  0  0  0  0  0  0  0  0  0  0  0
   21.1592  -12.3835  -16.1899 C   0  0  0  0  0  0  0  0  0  0  0  0
   21.5226  -11.1848  -15.3597 C   0  0  1  0  0  0  0  0  0  0  0  0
   22.5478  -11.5238  -14.3017 C   0  0  0  0  0  0  0  0  0  0  0  0
   22.0087  -10.0237  -16.1874 C   0  0  2  0  0  0  0  0  0  0  0  0
   23.2161  -10.3781  -16.8769 N   0  0  0  0  0  0  0  0  0  0  0  0
   22.1513   -8.7817  -15.3778 C   0  0  0  0  0  0  0  0  0  0  0  0
   23.3308   -8.4189  -15.1368 O   0  0  0  0  0  0  0  0  0  0  0  0
   21.0808   -8.0310  -14.8927 N   0  0  0  0  0  0  0  0  0  0  0  0
   21.2847   -6.7745  -14.1478 C   0  0  1  0  0  0  0  0  0  0  0  0
   22.1684   -5.8499  -14.8984 C   0  0  0  0  0  0  0  0  0  0  0  0
   22.3596   -4.5212  -14.3216 C   0  0  0  0  0  0  0  0  0  0  0  0
   22.6185   -4.2674  -13.1233 O   0  0  0  0  0  0  0  0  0  0  0  0
   19.9361   -6.1537  -13.9072 C   0  0  0  0  0  0  0  0  0  0  0  0
   19.7445   -5.1129  -13.2479 O   0  0  0  0  0  0  0  0  0  0  0  0
   22.2542   -3.3780  -15.1455 O   0  0  0  0  0  0  0  0  0  0  0  0
   18.7786   -6.7446  -14.4355 O   0  0  0  0  0  0  0  0  0  0  0  0
  1  2  1  0
  2  3  2  0
  4  2  1  0
  5  4  1  0
  5  6  1  6
  7  5  1  0
  7  8  2  0
 10  9  1  6
 10 11  1  0
 10 12  1  0
 12 13  1  1
 13  7  1  0
 14 12  1  0
 15 14  2  0
 16 14  1  0
 17 16  1  0
 17 21  1  0
 17 18  1  6
 19 18  1  0
 20 19  2  0
 21 22  2  0
 21 24  1  0
 23 19  1  0
M  END
$$$$
