NVD.pdb
     RDKit          3D

 24 23  0  0  1  0  0  0  0  0999 V2000
   17.4035  -11.3448  -15.2395 N   0  0  0  0  0  0  0  0  0  0  0  0
   18.2114  -10.6488  -14.3086 C   0  0  0  0  0  0  0  0  0  0  0  0
   18.0275  -10.9001  -13.0794 O   0  0  0  0  0  0  0  0  0  0  0  0
   19.2134   -9.6801  -14.7927 C   0  0  0  0  0  0  0  0  0  0  0  0
   19.0474   -9.4839  -16.2630 C   0  0  2  0  0  0  0  0  0  0  0  0
   19.5009  -10.6981  -16.9158 N   0  0  0  0  0  0  0  0  0  0  0  0
   19.8778   -8.3684  -16.7879 C   0  0  0  0  0  0  0  0  0  0  0  0
   20.8712   -8.6030  -17.5102 O   0  0  0  0  0  0  0  0  0  0  0  0
   20.6090   -7.0777  -19.2703 C   0  0  0  0  0  0  0  0  0  0  0  0
   19.9846   -5.8901  -18.5935 C   0  0  1  0  0  0  0  0  0  0  0  0
   18.5033   -5.7948  -18.8797 C   0  0  0  0  0  0  0  0  0  0  0  0
   20.2186   -5.8729  -17.1054 C   0  0  2  0  0  0  0  0  0  0  0  0
   19.5747   -6.9977  -16.4897 N   0  0  0  0  0  0  0  0  0  0  0  0
   19.8208   -4.5750  -16.4926 C   0  0  0  0  0  0  0  0  0  0  0  0
   18.6705   -4.5398  -15.9860 O   0  0  0  0  0  0  0  0  0  0  0  0
   20.6314   -3.4409  -16.4551 N   0  0  0  0  0  0  0  0  0  0  0  0
   20.2071   -2.2023  -15.7760 C   0  0  1  0  0  0  0  0  0  0  0  0
   21.3753   -1.4691  -15.2308 C   0  0  0  0  0  0  0  0  0  0  0  0
   21.0935   -0.1987  -14.5664 C   0  0  0  0  0  0  0  0  0  0  0  0
   20.6653    0.8419  -15.1153 O   0  0  0  0  0  0  0  0  0  0  0  0
   19.4598   -1.3594  -16.7726 C   0  0  0  0  0  0  0  0  0  0  0  0
   19.7431   -1.2793  -17.9841 O   0  0  0  0  0  0  0  0  0  0  0  0
   21.3055   -0.0737  -13.1749 O   0  0  0  0  0  0  0  0  0  0  0  0
   18.3608   -0.5878  -16.3665 O   0  0  0  0  0  0  0  0  0  0  0  0
  1  2  1  0
  2  3  2  0
  4  2  1  0
  5  4  1  0
  5  6  1  6
  7  5  1  0
  7  8  2  0
 10  9  1  1
 10 11  1  0
 10 12  1  0
 12 13  1  1
 13  7  1  0
 14 12  1  0
 15 14  2  0
 16 14  1  0
 17 16  1  0
 17 21  1  0
 17 18  1  6
 19 18  1  0
 20 19  2  0
 21 22  2  0
 21 24  1  0
 23 19  1  0
M  END
$$$$
