NVD.pdb
     RDKit          3D

 24 23  0  0  1  0  0  0  0  0999 V2000
   23.8565  -21.4242   -8.1989 N   0  0  0  0  0  0  0  0  0  0  0  0
   24.8164  -20.3940   -8.0542 C   0  0  0  0  0  0  0  0  0  0  0  0
   25.0948  -20.0226   -6.8741 O   0  0  0  0  0  0  0  0  0  0  0  0
   25.4418  -19.8053   -9.2538 C   0  0  0  0  0  0  0  0  0  0  0  0
   24.8603  -20.4318  -10.4774 C   0  0  2  0  0  0  0  0  0  0  0  0
   25.2921  -21.8171  -10.5014 N   0  0  0  0  0  0  0  0  0  0  0  0
   25.3491  -19.7992  -11.7306 C   0  0  0  0  0  0  0  0  0  0  0  0
   25.2192  -18.5689  -11.9123 O   0  0  0  0  0  0  0  0  0  0  0  0
   28.2386  -19.6459  -15.6280 C   0  0  0  0  0  0  0  0  0  0  0  0
   27.7899  -20.2612  -14.3325 C   0  0  1  0  0  0  0  0  0  0  0  0
   28.6032  -19.7600  -13.1609 C   0  0  0  0  0  0  0  0  0  0  0  0
   26.3227  -20.0528  -14.0612 C   0  0  2  0  0  0  0  0  0  0  0  0
   25.9806  -20.5666  -12.7659 N   0  0  0  0  0  0  0  0  0  0  0  0
   25.4694  -20.6119  -15.1464 C   0  0  0  0  0  0  0  0  0  0  0  0
   25.2116  -21.8396  -15.0610 O   0  0  0  0  0  0  0  0  0  0  0  0
   24.9622  -19.8680  -16.2113 N   0  0  0  0  0  0  0  0  0  0  0  0
   23.5633  -20.0023  -16.6590 C   0  0  1  0  0  0  0  0  0  0  0  0
   22.6217  -19.7426  -15.5430 C   0  0  0  0  0  0  0  0  0  0  0  0
   21.1982  -19.7977  -15.8670 C   0  0  0  0  0  0  0  0  0  0  0  0
   20.6725  -20.4926  -16.7661 O   0  0  0  0  0  0  0  0  0  0  0  0
   23.3420  -19.0322  -17.7869 C   0  0  0  0  0  0  0  0  0  0  0  0
   23.8305  -17.8864  -17.8398 O   0  0  0  0  0  0  0  0  0  0  0  0
   20.2812  -19.0148  -15.1302 O   0  0  0  0  0  0  0  0  0  0  0  0
   22.5376  -19.3870  -18.8801 O   0  0  0  0  0  0  0  0  0  0  0  0
  1  2  1  0
  2  3  2  0
  4  2  1  0
  5  4  1  0
  5  6  1  6
  7  5  1  0
  7  8  2  0
 10  9  1  6
 10 11  1  0
 10 12  1  0
 12 13  1  1
 13  7  1  0
 14 12  1  0
 15 14  2  0
 16 14  1  0
 17 16  1  0
 17 21  1  0
 17 18  1  1
 19 18  1  0
 20 19  2  0
 21 22  2  0
 21 24  1  0
 23 19  1  0
M  END
$$$$
