NVD.pdb
     RDKit          3D

 24 23  0  0  1  0  0  0  0  0999 V2000
   29.5383  -20.1910  -16.9690 N   0  0  0  0  0  0  0  0  0  0  0  0
   28.2183  -19.8677  -17.3651 C   0  0  0  0  0  0  0  0  0  0  0  0
   28.0845  -19.1142  -18.3762 O   0  0  0  0  0  0  0  0  0  0  0  0
   27.0751  -20.4072  -16.6044 C   0  0  0  0  0  0  0  0  0  0  0  0
   27.5768  -21.2849  -15.5062 C   0  0  2  0  0  0  0  0  0  0  0  0
   28.0191  -22.5270  -16.1125 N   0  0  0  0  0  0  0  0  0  0  0  0
   26.5178  -21.6308  -14.5222 C   0  0  0  0  0  0  0  0  0  0  0  0
   25.7714  -22.6156  -14.7140 O   0  0  0  0  0  0  0  0  0  0  0  0
   24.5129  -20.6749  -10.0339 C   0  0  0  0  0  0  0  0  0  0  0  0
   25.6209  -20.5452  -11.0407 C   0  0  1  0  0  0  0  0  0  0  0  0
   26.8897  -21.2188  -10.5699 C   0  0  0  0  0  0  0  0  0  0  0  0
   25.2409  -21.0677  -12.4017 C   0  0  2  0  0  0  0  0  0  0  0  0
   26.3144  -20.8578  -13.3303 N   0  0  0  0  0  0  0  0  0  0  0  0
   23.9488  -20.4995  -12.8771 C   0  0  0  0  0  0  0  0  0  0  0  0
   23.9632  -19.2758  -13.1656 O   0  0  0  0  0  0  0  0  0  0  0  0
   22.7694  -21.2312  -13.0124 N   0  0  0  0  0  0  0  0  0  0  0  0
   21.4996  -20.5954  -13.4106 C   0  0  1  0  0  0  0  0  0  0  0  0
   20.9600  -21.2150  -14.6453 C   0  0  0  0  0  0  0  0  0  0  0  0
   19.6685  -20.7165  -15.1123 C   0  0  0  0  0  0  0  0  0  0  0  0
   18.5437  -21.0934  -14.7121 O   0  0  0  0  0  0  0  0  0  0  0  0
   20.5310  -20.7385  -12.2689 C   0  0  0  0  0  0  0  0  0  0  0  0
   20.4757  -21.7248  -11.5082 O   0  0  0  0  0  0  0  0  0  0  0  0
   19.6227  -19.7149  -16.1079 O   0  0  0  0  0  0  0  0  0  0  0  0
   19.6014  -19.7239  -11.9958 O   0  0  0  0  0  0  0  0  0  0  0  0
  1  2  1  0
  2  3  2  0
  4  2  1  0
  5  4  1  0
  5  6  1  6
  7  5  1  0
  7  8  2  0
 10  9  1  1
 10 11  1  0
 10 12  1  0
 12 13  1  6
 13  7  1  0
 14 12  1  0
 15 14  2  0
 16 14  1  0
 17 16  1  0
 17 21  1  0
 17 18  1  6
 19 18  1  0
 20 19  2  0
 21 22  2  0
 21 24  1  0
 23 19  1  0
M  END
$$$$
