EST.pdb
     RDKit          3D

 23 22  0  0  1  0  0  0  0  0999 V2000
   20.0689  -12.5172  -16.4945 N   0  0  0  0  0  0  0  0  0  0  0  0
   19.7434  -11.1523  -16.9057 C   0  0  1  0  0  0  0  0  0  0  0  0
   18.2647  -11.0877  -17.1283 C   0  0  0  0  0  0  0  0  0  0  0  0
   17.8900  -11.7593  -18.4027 C   0  0  0  0  0  0  0  0  0  0  0  0
   16.4727  -11.5681  -18.7610 C   0  0  0  0  0  0  0  0  0  0  0  0
   15.6962  -12.4795  -19.0495 O   0  0  0  0  0  0  0  0  0  0  0  0
   20.0402  -10.1977  -15.7844 C   0  0  0  0  0  0  0  0  0  0  0  0
   19.6945  -10.4837  -14.6199 O   0  0  0  0  0  0  0  0  0  0  0  0
   15.9955  -10.2425  -18.7673 O   0  0  0  0  0  0  0  0  0  0  0  0
   23.2654   -8.5060  -15.7270 O   0  0  0  0  0  0  0  0  0  0  0  0
   22.5026   -8.4166  -14.5630 C   0  0  0  0  0  0  0  0  0  0  0  0
   21.0954   -8.0727  -14.9507 C   0  0  2  0  0  0  0  0  0  0  0  0
   20.7097   -8.9735  -16.0340 N   0  0  0  0  0  0  0  0  0  0  0  0
   21.0894   -6.6926  -15.5292 C   0  0  0  0  0  0  0  0  0  0  0  0
   21.4740   -6.4329  -16.6864 O   0  0  0  0  0  0  0  0  0  0  0  0
   19.4146   -2.0880  -15.5101 C   0  0  0  0  0  0  0  0  0  0  0  0
   19.4215   -3.4390  -14.8449 C   0  0  1  0  0  0  0  0  0  0  0  0
   18.3018   -4.1930  -15.1593 O   0  0  0  0  0  0  0  0  0  0  0  0
   20.6771   -4.2283  -15.2100 C   0  0  2  0  0  0  0  0  0  0  0  0
   20.6246   -5.5750  -14.7474 N   0  0  0  0  0  0  0  0  0  0  0  0
   21.9000   -3.4992  -14.8316 C   0  0  0  0  0  0  0  0  0  0  0  0
   22.6703   -2.7297  -15.6914 O   0  0  0  0  0  0  0  0  0  0  0  0
   22.3059   -3.5577  -13.6422 O   0  0  0  0  0  0  0  0  0  0  0  0
  2  1  1  1
  3  4  1  0
  3  2  1  0
  5  4  1  0
  6  5  2  0
  7 13  1  0
  7  2  1  0
  8  7  2  0
  9  5  1  0
 11 10  1  0
 12 11  1  6
 12 13  1  0
 12 14  1  0
 14 20  1  0
 15 14  2  0
 17 16  1  6
 18 17  1  0
 19 17  1  0
 19 21  1  0
 19 20  1  1
 21 22  1  0
 23 21  2  0
M  END
$$$$
