EST.pdb
     RDKit          3D

 23 22  0  0  1  0  0  0  0  0999 V2000
   23.9231  -14.7958  -18.1805 N   0  0  0  0  0  0  0  0  0  0  0  0
   23.2545  -15.9809  -18.7156 C   0  0  1  0  0  0  0  0  0  0  0  0
   23.6650  -16.1236  -20.1479 C   0  0  0  0  0  0  0  0  0  0  0  0
   23.3165  -14.9022  -20.9240 C   0  0  0  0  0  0  0  0  0  0  0  0
   24.4991  -14.1312  -21.3489 C   0  0  0  0  0  0  0  0  0  0  0  0
   24.8085  -13.0253  -20.9040 O   0  0  0  0  0  0  0  0  0  0  0  0
   23.7554  -17.2100  -18.0120 C   0  0  0  0  0  0  0  0  0  0  0  0
   23.5907  -18.3320  -18.5328 O   0  0  0  0  0  0  0  0  0  0  0  0
   25.3175  -14.7200  -22.3330 O   0  0  0  0  0  0  0  0  0  0  0  0
   25.5961  -16.7121  -14.4621 O   0  0  0  0  0  0  0  0  0  0  0  0
   26.0204  -17.8438  -15.1577 C   0  0  0  0  0  0  0  0  0  0  0  0
   24.9024  -18.2902  -16.0519 C   0  0  2  0  0  0  0  0  0  0  0  0
   24.4143  -17.1101  -16.7610 N   0  0  0  0  0  0  0  0  0  0  0  0
   23.7716  -18.7626  -15.1933 C   0  0  0  0  0  0  0  0  0  0  0  0
   22.9012  -18.0017  -14.7265 O   0  0  0  0  0  0  0  0  0  0  0  0
   21.1001  -22.5795  -13.4783 C   0  0  0  0  0  0  0  0  0  0  0  0
   22.0805  -22.0119  -14.4705 C   0  0  1  0  0  0  0  0  0  0  0  0
   21.5358  -21.8731  -15.7375 O   0  0  0  0  0  0  0  0  0  0  0  0
   22.6185  -20.6605  -14.0045 C   0  0  2  0  0  0  0  0  0  0  0  0
   23.6401  -20.1588  -14.8619 N   0  0  0  0  0  0  0  0  0  0  0  0
   22.9781  -20.6881  -12.5762 C   0  0  0  0  0  0  0  0  0  0  0  0
   22.0914  -20.5058  -11.5248 O   0  0  0  0  0  0  0  0  0  0  0  0
   24.1760  -20.8906  -12.2490 O   0  0  0  0  0  0  0  0  0  0  0  0
  2  1  1  1
  3  4  1  0
  3  2  1  0
  5  4  1  0
  6  5  2  0
  7 13  1  0
  7  2  1  0
  8  7  2  0
  9  5  1  0
 11 10  1  0
 12 11  1  1
 12 13  1  0
 12 14  1  0
 14 20  1  0
 15 14  2  0
 17 16  1  1
 18 17  1  0
 19 17  1  0
 19 21  1  0
 19 20  1  6
 21 22  1  0
 23 21  2  0
M  END
$$$$
