EST.pdb
     RDKit          3D

 23 22  0  0  1  0  0  0  0  0999 V2000
   19.3491  -12.7802  -16.4382 N   0  0  0  0  0  0  0  0  0  0  0  0
   19.5994  -11.4164  -16.9023 C   0  0  1  0  0  0  0  0  0  0  0  0
   18.4270  -10.9995  -17.7341 C   0  0  0  0  0  0  0  0  0  0  0  0
   18.4359  -11.6950  -19.0500 C   0  0  0  0  0  0  0  0  0  0  0  0
   17.9217  -13.0748  -18.9771 C   0  0  0  0  0  0  0  0  0  0  0  0
   16.7295  -13.3794  -19.0276 O   0  0  0  0  0  0  0  0  0  0  0  0
   19.6361  -10.4778  -15.7299 C   0  0  0  0  0  0  0  0  0  0  0  0
   18.8337  -10.6334  -14.7870 O   0  0  0  0  0  0  0  0  0  0  0  0
   18.8787  -14.0997  -18.8406 O   0  0  0  0  0  0  0  0  0  0  0  0
   22.8519   -9.5907  -14.4031 O   0  0  0  0  0  0  0  0  0  0  0  0
   21.7519   -9.2539  -13.6150 C   0  0  0  0  0  0  0  0  0  0  0  0
   20.7352   -8.5852  -14.4913 C   0  0  2  0  0  0  0  0  0  0  0  0
   20.5733   -9.4155  -15.6822 N   0  0  0  0  0  0  0  0  0  0  0  0
   21.3014   -7.2821  -14.9611 C   0  0  0  0  0  0  0  0  0  0  0  0
   22.0913   -7.1842  -15.9207 O   0  0  0  0  0  0  0  0  0  0  0  0
   19.4855   -4.0832  -15.9950 C   0  0  0  0  0  0  0  0  0  0  0  0
   20.4109   -3.7230  -14.8628 C   0  0  1  0  0  0  0  0  0  0  0  0
   19.7389   -3.5342  -13.6654 O   0  0  0  0  0  0  0  0  0  0  0  0
   21.4896   -4.7870  -14.6710 C   0  0  2  0  0  0  0  0  0  0  0  0
   20.9448   -6.0511  -14.3024 N   0  0  0  0  0  0  0  0  0  0  0  0
   22.5690   -4.3065  -13.7911 C   0  0  0  0  0  0  0  0  0  0  0  0
   23.4645   -3.2941  -14.1040 O   0  0  0  0  0  0  0  0  0  0  0  0
   22.7185   -4.8346  -12.6590 O   0  0  0  0  0  0  0  0  0  0  0  0
  2  1  1  1
  3  4  1  0
  3  2  1  0
  5  4  1  0
  6  5  2  0
  7 13  1  0
  7  2  1  0
  8  7  2  0
  9  5  1  0
 11 10  1  0
 12 11  1  1
 12 13  1  0
 12 14  1  0
 14 20  1  0
 15 14  2  0
 17 16  1  6
 18 17  1  0
 19 17  1  0
 19 21  1  0
 19 20  1  1
 21 22  1  0
 23 21  2  0
M  END
$$$$
