EST.pdb
     RDKit          3D

 23 22  0  0  1  0  0  0  0  0999 V2000
   21.2036  -11.7982  -16.7172 N   0  0  0  0  0  0  0  0  0  0  0  0
   20.2452  -11.3795  -17.7389 C   0  0  1  0  0  0  0  0  0  0  0  0
   19.1434  -12.3922  -17.7674 C   0  0  0  0  0  0  0  0  0  0  0  0
   18.5553  -12.5749  -16.4123 C   0  0  0  0  0  0  0  0  0  0  0  0
   17.4293  -13.5264  -16.3951 C   0  0  0  0  0  0  0  0  0  0  0  0
   17.5257  -14.7271  -16.6516 O   0  0  0  0  0  0  0  0  0  0  0  0
   19.6085  -10.0792  -17.3382 C   0  0  0  0  0  0  0  0  0  0  0  0
   18.7714   -9.5416  -18.0915 O   0  0  0  0  0  0  0  0  0  0  0  0
   16.1649  -13.0036  -16.0592 O   0  0  0  0  0  0  0  0  0  0  0  0
   19.6009   -8.9238  -13.5471 O   0  0  0  0  0  0  0  0  0  0  0  0
   18.7342   -8.2788  -14.4288 C   0  0  0  0  0  0  0  0  0  0  0  0
   19.4299   -8.1377  -15.7498 C   0  0  2  0  0  0  0  0  0  0  0  0
   19.9480   -9.4545  -16.1119 N   0  0  0  0  0  0  0  0  0  0  0  0
   20.6225   -7.2534  -15.5627 C   0  0  0  0  0  0  0  0  0  0  0  0
   21.7864   -7.6866  -15.4524 O   0  0  0  0  0  0  0  0  0  0  0  0
   20.1094   -2.9959  -14.7560 C   0  0  0  0  0  0  0  0  0  0  0  0
   21.1776   -3.4820  -15.6996 C   0  0  1  0  0  0  0  0  0  0  0  0
   22.3121   -2.6861  -15.6749 O   0  0  0  0  0  0  0  0  0  0  0  0
   21.5703   -4.9258  -15.3932 C   0  0  2  0  0  0  0  0  0  0  0  0
   20.4678   -5.8221  -15.5008 N   0  0  0  0  0  0  0  0  0  0  0  0
   22.3161   -5.0233  -14.1265 C   0  0  0  0  0  0  0  0  0  0  0  0
   23.6263   -4.6086  -13.9362 O   0  0  0  0  0  0  0  0  0  0  0  0
   21.7495   -5.5170  -13.1175 O   0  0  0  0  0  0  0  0  0  0  0  0
  2  1  1  1
  3  4  1  0
  3  2  1  0
  5  4  1  0
  6  5  2  0
  7 13  1  0
  7  2  1  0
  8  7  2  0
  9  5  1  0
 11 10  1  0
 12 11  1  1
 12 13  1  0
 12 14  1  0
 14 20  1  0
 15 14  2  0
 17 16  1  1
 18 17  1  0
 19 17  1  0
 19 21  1  0
 19 20  1  1
 21 22  1  0
 23 21  2  0
M  END
$$$$
