EST.pdb
     RDKit          3D

 23 22  0  0  1  0  0  0  0  0999 V2000
   16.8167  -10.7342  -15.3296 N   0  0  0  0  0  0  0  0  0  0  0  0
   15.8583  -11.0002  -14.2578 C   0  0  1  0  0  0  0  0  0  0  0  0
   15.9626  -12.4517  -13.9079 C   0  0  0  0  0  0  0  0  0  0  0  0
   15.6023  -13.3055  -15.0727 C   0  0  0  0  0  0  0  0  0  0  0  0
   15.8559  -14.7388  -14.8382 C   0  0  0  0  0  0  0  0  0  0  0  0
   16.4006  -15.1962  -13.8328 O   0  0  0  0  0  0  0  0  0  0  0  0
   16.2523  -10.2422  -13.0221 C   0  0  0  0  0  0  0  0  0  0  0  0
   15.6774  -10.4799  -11.9403 O   0  0  0  0  0  0  0  0  0  0  0  0
   15.4376  -15.6283  -15.8475 O   0  0  0  0  0  0  0  0  0  0  0  0
   19.3882   -7.0989  -11.1037 O   0  0  0  0  0  0  0  0  0  0  0  0
   18.9454   -7.7767  -12.2391 C   0  0  0  0  0  0  0  0  0  0  0  0
   17.7117   -8.5467  -11.8732 C   0  0  2  0  0  0  0  0  0  0  0  0
   17.2714   -9.2582  -13.0706 N   0  0  0  0  0  0  0  0  0  0  0  0
   16.6273   -7.5703  -11.5417 C   0  0  0  0  0  0  0  0  0  0  0  0
   16.0346   -6.8868  -12.3997 O   0  0  0  0  0  0  0  0  0  0  0  0
   15.2861   -7.0486   -7.3687 C   0  0  0  0  0  0  0  0  0  0  0  0
   14.4068   -6.9045   -8.5827 C   0  0  1  0  0  0  0  0  0  0  0  0
   13.3490   -6.0336   -8.3737 O   0  0  0  0  0  0  0  0  0  0  0  0
   15.2102   -6.4370   -9.7946 C   0  0  2  0  0  0  0  0  0  0  0  0
   16.2125   -7.3755  -10.1756 N   0  0  0  0  0  0  0  0  0  0  0  0
   15.6992   -5.0587   -9.6168 C   0  0  0  0  0  0  0  0  0  0  0  0
   14.9197   -3.9152   -9.7138 O   0  0  0  0  0  0  0  0  0  0  0  0
   16.9151   -4.8681   -9.3554 O   0  0  0  0  0  0  0  0  0  0  0  0
  2  1  1  6
  3  4  1  0
  3  2  1  0
  5  4  1  0
  6  5  2  0
  7 13  1  0
  7  2  1  0
  8  7  2  0
  9  5  1  0
 11 10  1  0
 12 11  1  6
 12 13  1  0
 12 14  1  0
 14 20  1  0
 15 14  2  0
 17 16  1  1
 18 17  1  0
 19 17  1  0
 19 21  1  0
 19 20  1  1
 21 22  1  0
 23 21  2  0
M  END
$$$$
