EST.pdb
     RDKit          3D

 23 22  0  0  1  0  0  0  0  0999 V2000
   18.6486  -12.3476  -17.4989 N   0  0  0  0  0  0  0  0  0  0  0  0
   19.8264  -11.6553  -16.9780 C   0  0  1  0  0  0  0  0  0  0  0  0
   20.7822  -11.4710  -18.1149 C   0  0  0  0  0  0  0  0  0  0  0  0
   21.3891  -12.7703  -18.5138 C   0  0  0  0  0  0  0  0  0  0  0  0
   22.4425  -12.6260  -19.5352 C   0  0  0  0  0  0  0  0  0  0  0  0
   22.7744  -11.5575  -20.0499 O   0  0  0  0  0  0  0  0  0  0  0  0
   19.4463  -10.2751  -16.5225 C   0  0  0  0  0  0  0  0  0  0  0  0
   18.7006   -9.5717  -17.2342 O   0  0  0  0  0  0  0  0  0  0  0  0
   23.1015  -13.8054  -19.9347 O   0  0  0  0  0  0  0  0  0  0  0  0
   17.6481   -9.2525  -13.6669 O   0  0  0  0  0  0  0  0  0  0  0  0
   18.8825   -8.6358  -13.4656 C   0  0  0  0  0  0  0  0  0  0  0  0
   19.5327   -8.4420  -14.8030 C   0  0  2  0  0  0  0  0  0  0  0  0
   19.9256   -9.7614  -15.2914 N   0  0  0  0  0  0  0  0  0  0  0  0
   20.8005   -7.6725  -14.6041 C   0  0  0  0  0  0  0  0  0  0  0  0
   21.8262   -8.1622  -14.0916 O   0  0  0  0  0  0  0  0  0  0  0  0
   22.9174   -5.6275  -17.1136 C   0  0  0  0  0  0  0  0  0  0  0  0
   22.4640   -4.7030  -16.0147 C   0  0  1  0  0  0  0  0  0  0  0  0
   21.4242   -3.8761  -16.4098 O   0  0  0  0  0  0  0  0  0  0  0  0
   22.0393   -5.4858  -14.7740 C   0  0  2  0  0  0  0  0  0  0  0  0
   20.8885   -6.2926  -15.0095 N   0  0  0  0  0  0  0  0  0  0  0  0
   21.9412   -4.6107  -13.5930 C   0  0  0  0  0  0  0  0  0  0  0  0
   20.7754   -4.3453  -12.8893 O   0  0  0  0  0  0  0  0  0  0  0  0
   22.9782   -4.0434  -13.1621 O   0  0  0  0  0  0  0  0  0  0  0  0
  2  1  1  6
  3  4  1  0
  3  2  1  0
  5  4  1  0
  6  5  2  0
  7 13  1  0
  7  2  1  0
  8  7  2  0
  9  5  1  0
 11 10  1  0
 12 11  1  1
 12 13  1  0
 12 14  1  0
 14 20  1  0
 15 14  2  0
 17 16  1  6
 18 17  1  0
 19 17  1  0
 19 21  1  0
 19 20  1  6
 21 22  1  0
 23 21  2  0
M  END
$$$$
