EST.pdb
     RDKit          3D

 23 22  0  0  1  0  0  0  0  0999 V2000
   17.1249  -11.7401  -15.8191 N   0  0  0  0  0  0  0  0  0  0  0  0
   17.6022  -10.4727  -16.3702 C   0  0  1  0  0  0  0  0  0  0  0  0
   16.4389   -9.5318  -16.4132 C   0  0  0  0  0  0  0  0  0  0  0  0
   15.9896   -9.3071  -17.8143 C   0  0  0  0  0  0  0  0  0  0  0  0
   16.8619   -8.3806  -18.5587 C   0  0  0  0  0  0  0  0  0  0  0  0
   16.9592   -7.1749  -18.3270 O   0  0  0  0  0  0  0  0  0  0  0  0
   18.6050   -9.8564  -15.4366 C   0  0  0  0  0  0  0  0  0  0  0  0
   18.3737   -9.8280  -14.2107 O   0  0  0  0  0  0  0  0  0  0  0  0
   17.6280   -8.9348  -19.6031 O   0  0  0  0  0  0  0  0  0  0  0  0
   22.2423   -9.2646  -16.8616 O   0  0  0  0  0  0  0  0  0  0  0  0
   22.1526   -9.3772  -15.4746 C   0  0  0  0  0  0  0  0  0  0  0  0
   20.8453   -8.7848  -15.0403 C   0  0  2  0  0  0  0  0  0  0  0  0
   19.8131   -9.3058  -15.9330 N   0  0  0  0  0  0  0  0  0  0  0  0
   20.8962   -7.3075  -15.2733 C   0  0  0  0  0  0  0  0  0  0  0  0
   20.8623   -6.7910  -16.4075 O   0  0  0  0  0  0  0  0  0  0  0  0
   20.1304   -2.7267  -13.9572 C   0  0  0  0  0  0  0  0  0  0  0  0
   19.9285   -4.2116  -13.8095 C   0  0  1  0  0  0  0  0  0  0  0  0
   18.7903   -4.6615  -14.4601 O   0  0  0  0  0  0  0  0  0  0  0  0
   21.1398   -4.9878  -14.3223 C   0  0  2  0  0  0  0  0  0  0  0  0
   20.9895   -6.3956  -14.1615 N   0  0  0  0  0  0  0  0  0  0  0  0
   22.3969   -4.4415  -13.7823 C   0  0  0  0  0  0  0  0  0  0  0  0
   23.2553   -3.5893  -14.4617 O   0  0  0  0  0  0  0  0  0  0  0  0
   22.7496   -4.7525  -12.6153 O   0  0  0  0  0  0  0  0  0  0  0  0
  2  1  1  1
  3  4  1  0
  3  2  1  0
  5  4  1  0
  6  5  2  0
  7 13  1  0
  7  2  1  0
  8  7  2  0
  9  5  1  0
 11 10  1  0
 12 11  1  6
 12 13  1  0
 12 14  1  0
 14 20  1  0
 15 14  2  0
 17 16  1  6
 18 17  1  0
 19 17  1  0
 19 21  1  0
 19 20  1  1
 21 22  1  0
 23 21  2  0
M  END
$$$$
