EST.pdb
     RDKit          3D

 23 22  0  0  1  0  0  0  0  0999 V2000
   20.5440  -10.9797  -17.9605 N   0  0  0  0  0  0  0  0  0  0  0  0
   19.3010  -10.2179  -17.8485 C   0  0  1  0  0  0  0  0  0  0  0  0
   18.1931  -11.1938  -17.6027 C   0  0  0  0  0  0  0  0  0  0  0  0
   18.2683  -12.3334  -18.5572 C   0  0  0  0  0  0  0  0  0  0  0  0
   17.1763  -13.3080  -18.3798 C   0  0  0  0  0  0  0  0  0  0  0  0
   16.0017  -13.1046  -18.6892 O   0  0  0  0  0  0  0  0  0  0  0  0
   19.3542   -9.3309  -16.6373 C   0  0  0  0  0  0  0  0  0  0  0  0
   18.3435   -8.6809  -16.3010 O   0  0  0  0  0  0  0  0  0  0  0  0
   17.5239  -14.5512  -17.8155 O   0  0  0  0  0  0  0  0  0  0  0  0
   22.7737   -9.3036  -14.5276 O   0  0  0  0  0  0  0  0  0  0  0  0
   21.6324   -9.0984  -13.7531 C   0  0  0  0  0  0  0  0  0  0  0  0
   20.5848   -8.4676  -14.6211 C   0  0  2  0  0  0  0  0  0  0  0  0
   20.5415   -9.2234  -15.8704 N   0  0  0  0  0  0  0  0  0  0  0  0
   21.0380   -7.0874  -14.9801 C   0  0  0  0  0  0  0  0  0  0  0  0
   21.7748   -6.8399  -15.9550 O   0  0  0  0  0  0  0  0  0  0  0  0
   20.4456   -2.2175  -14.6386 C   0  0  0  0  0  0  0  0  0  0  0  0
   20.0009   -3.5832  -14.1861 C   0  0  1  0  0  0  0  0  0  0  0  0
   18.8263   -3.9908  -14.7987 O   0  0  0  0  0  0  0  0  0  0  0  0
   21.0862   -4.6285  -14.4355 C   0  0  2  0  0  0  0  0  0  0  0  0
   20.6282   -5.9552  -14.1887 N   0  0  0  0  0  0  0  0  0  0  0  0
   22.3403   -4.2768  -13.7473 C   0  0  0  0  0  0  0  0  0  0  0  0
   23.3797   -3.5456  -14.3039 O   0  0  0  0  0  0  0  0  0  0  0  0
   22.5150   -4.6538  -12.5597 O   0  0  0  0  0  0  0  0  0  0  0  0
  2  1  1  1
  3  4  1  0
  3  2  1  0
  5  4  1  0
  6  5  2  0
  7 13  1  0
  7  2  1  0
  8  7  2  0
  9  5  1  0
 11 10  1  0
 12 11  1  1
 12 13  1  0
 12 14  1  0
 14 20  1  0
 15 14  2  0
 17 16  1  6
 18 17  1  0
 19 17  1  0
 19 21  1  0
 19 20  1  1
 21 22  1  0
 23 21  2  0
M  END
$$$$
