EST.pdb
     RDKit          3D

 23 22  0  0  1  0  0  0  0  0999 V2000
   18.5018  -12.3346  -16.0534 N   0  0  0  0  0  0  0  0  0  0  0  0
   18.9964  -11.0530  -16.5544 C   0  0  1  0  0  0  0  0  0  0  0  0
   17.8841  -10.4071  -17.3198 C   0  0  0  0  0  0  0  0  0  0  0  0
   17.6215  -11.1357  -18.5908 C   0  0  0  0  0  0  0  0  0  0  0  0
   16.4965  -10.5709  -19.3582 C   0  0  0  0  0  0  0  0  0  0  0  0
   15.3249  -10.9351  -19.2505 O   0  0  0  0  0  0  0  0  0  0  0  0
   19.2985  -10.1377  -15.4021 C   0  0  0  0  0  0  0  0  0  0  0  0
   18.5606  -10.1447  -14.3959 O   0  0  0  0  0  0  0  0  0  0  0  0
   16.8067   -9.5445  -20.2720 O   0  0  0  0  0  0  0  0  0  0  0  0
   22.5021   -8.2269  -12.6947 O   0  0  0  0  0  0  0  0  0  0  0  0
   22.0513   -9.0542  -13.7228 C   0  0  0  0  0  0  0  0  0  0  0  0
   20.8010   -8.4536  -14.2928 C   0  0  2  0  0  0  0  0  0  0  0  0
   20.4143   -9.2645  -15.4445 N   0  0  0  0  0  0  0  0  0  0  0  0
   21.1311   -7.0952  -14.8267 C   0  0  0  0  0  0  0  0  0  0  0  0
   21.7882   -6.9100  -15.8700 O   0  0  0  0  0  0  0  0  0  0  0  0
   18.5526   -4.1715  -15.2730 C   0  0  0  0  0  0  0  0  0  0  0  0
   19.7171   -3.6812  -14.4537 C   0  0  1  0  0  0  0  0  0  0  0  0
   19.4107   -3.5691  -13.1065 O   0  0  0  0  0  0  0  0  0  0  0  0
   20.9313   -4.5929  -14.6182 C   0  0  2  0  0  0  0  0  0  0  0  0
   20.6890   -5.9112  -14.1346 N   0  0  0  0  0  0  0  0  0  0  0  0
   22.1532   -3.9626  -14.0891 C   0  0  0  0  0  0  0  0  0  0  0  0
   22.7660   -2.8366  -14.6195 O   0  0  0  0  0  0  0  0  0  0  0  0
   22.7108   -4.4596  -13.0766 O   0  0  0  0  0  0  0  0  0  0  0  0
  2  1  1  1
  3  4  1  0
  3  2  1  0
  5  4  1  0
  6  5  2  0
  7 13  1  0
  7  2  1  0
  8  7  2  0
  9  5  1  0
 11 10  1  0
 12 11  1  6
 12 13  1  0
 12 14  1  0
 14 20  1  0
 15 14  2  0
 17 16  1  6
 18 17  1  0
 19 17  1  0
 19 21  1  0
 19 20  1  1
 21 22  1  0
 23 21  2  0
M  END
$$$$
