EST.pdb
     RDKit          3D

 23 22  0  0  1  0  0  0  0  0999 V2000
   17.2941  -12.8598  -16.2045 N   0  0  0  0  0  0  0  0  0  0  0  0
   18.5582  -12.1950  -15.8915 C   0  0  1  0  0  0  0  0  0  0  0  0
   19.5165  -12.5011  -16.9998 C   0  0  0  0  0  0  0  0  0  0  0  0
   19.8447  -13.9526  -17.0319 C   0  0  0  0  0  0  0  0  0  0  0  0
   20.8264  -14.2995  -18.0757 C   0  0  0  0  0  0  0  0  0  0  0  0
   21.2974  -15.4248  -18.2450 O   0  0  0  0  0  0  0  0  0  0  0  0
   18.3670  -10.7050  -15.9029 C   0  0  0  0  0  0  0  0  0  0  0  0
   17.5542  -10.1912  -16.6981 O   0  0  0  0  0  0  0  0  0  0  0  0
   21.2397  -13.2558  -18.9270 O   0  0  0  0  0  0  0  0  0  0  0  0
   18.2468   -8.8210  -12.7993 O   0  0  0  0  0  0  0  0  0  0  0  0
   17.9191   -8.1009  -13.9476 C   0  0  0  0  0  0  0  0  0  0  0  0
   18.9301   -8.4236  -15.0071 C   0  0  2  0  0  0  0  0  0  0  0  0
   19.1004   -9.8743  -15.0190 N   0  0  0  0  0  0  0  0  0  0  0  0
   20.2480   -7.8488  -14.5922 C   0  0  0  0  0  0  0  0  0  0  0  0
   21.0512   -8.4440  -13.8472 O   0  0  0  0  0  0  0  0  0  0  0  0
   22.9212   -6.1541  -16.9720 C   0  0  0  0  0  0  0  0  0  0  0  0
   22.5400   -5.2050  -15.8666 C   0  0  1  0  0  0  0  0  0  0  0  0
   21.6830   -4.2039  -16.2963 O   0  0  0  0  0  0  0  0  0  0  0  0
   21.8977   -5.9482  -14.6971 C   0  0  2  0  0  0  0  0  0  0  0  0
   20.6529   -6.5445  -15.0516 N   0  0  0  0  0  0  0  0  0  0  0  0
   21.8511   -5.1095  -13.4870 C   0  0  0  0  0  0  0  0  0  0  0  0
   22.9492   -4.7568  -12.7159 O   0  0  0  0  0  0  0  0  0  0  0  0
   20.7433   -4.6609  -13.0938 O   0  0  0  0  0  0  0  0  0  0  0  0
  2  1  1  6
  3  4  1  0
  3  2  1  0
  5  4  1  0
  6  5  2  0
  7 13  1  0
  7  2  1  0
  8  7  2  0
  9  5  1  0
 11 10  1  0
 12 11  1  1
 12 13  1  0
 12 14  1  0
 14 20  1  0
 15 14  2  0
 17 16  1  6
 18 17  1  0
 19 17  1  0
 19 21  1  0
 19 20  1  6
 21 22  1  0
 23 21  2  0
M  END
$$$$
