NPA.pdb
     RDKit          3D

 21 21  0  0  1  0  0  0  0  0999 V2000
    6.5129  -16.1228   19.6681 N   0  0  0  0  0  0  0  0  0  0  0  0
    7.4929  -17.0472   20.1162 C   0  0  0  0  0  0  0  0  0  0  0  0
    7.5432  -18.1537   19.5287 O   0  0  0  0  0  0  0  0  0  0  0  0
    8.3960  -16.6774   21.2330 C   0  0  0  0  0  0  0  0  0  0  0  0
    8.0221  -15.3025   21.7755 C   0  0  2  0  0  0  0  0  0  0  0  0
    8.4531  -14.3295   20.7530 N   0  0  0  0  0  0  0  0  0  0  0  0
    8.7045  -15.0281   23.0630 C   0  0  0  0  0  0  0  0  0  0  0  0
    9.8091  -15.5878   23.2082 O   0  0  0  0  0  0  0  0  0  0  0  0
    8.1904  -14.2090   24.0742 N   0  0  0  0  0  0  0  0  0  0  0  0
    7.1511  -13.1844   23.6805 C   0  0  0  0  0  0  0  0  0  0  0  0
    6.0682  -13.4908   24.6746 C   0  0  0  0  0  0  0  0  0  0  0  0
    6.7735  -14.2028   25.8240 C   0  0  0  0  0  0  0  0  0  0  0  0
    8.2577  -13.9276   25.4278 C   0  0  1  0  0  0  0  0  0  0  0  0
    9.0649  -14.4662   26.4491 C   0  0  0  0  0  0  0  0  0  0  0  0
    9.2079  -15.7703   26.3330 O   0  0  0  0  0  0  0  0  0  0  0  0
   11.4623  -14.0570   29.3286 C   0  0  0  0  0  0  0  0  0  0  0  0
   10.6645  -14.8018   28.3238 C   0  0  2  0  0  0  0  0  0  0  0  0
    9.7445  -13.9544   27.5497 N   0  0  0  0  0  0  0  0  0  0  0  0
    9.8465  -15.8497   29.0251 C   0  0  0  0  0  0  0  0  0  0  0  0
    8.6047  -15.6698   29.1466 O   0  0  0  0  0  0  0  0  0  0  0  0
   10.3981  -17.0084   29.5464 O   0  0  0  0  0  0  0  0  0  0  0  0
  2  1  1  0
  2  3  2  0
  4  2  1  0
  5  4  1  0
  5  6  1  6
  5  7  1  0
  7  8  2  0
  9  7  1  0
  9 13  1  0
 10 11  1  0
 10  9  1  0
 11 12  1  0
 13 12  1  0
 13 14  1  1
 14 15  2  0
 14 18  1  0
 17 16  1  1
 17 19  1  0
 18 17  1  0
 19 21  1  0
 20 19  2  0
M  END
$$$$
