NPA.pdb
     RDKit          3D

 21 21  0  0  1  0  0  0  0  0999 V2000
    7.0698  -20.1684   17.2279 N   0  0  0  0  0  0  0  0  0  0  0  0
    6.6749  -18.8410   17.5407 C   0  0  0  0  0  0  0  0  0  0  0  0
    5.7759  -18.3317   16.8304 O   0  0  0  0  0  0  0  0  0  0  0  0
    7.3243  -18.1269   18.6666 C   0  0  0  0  0  0  0  0  0  0  0  0
    8.1181  -16.9352   18.1428 C   0  0  2  0  0  0  0  0  0  0  0  0
    8.8381  -17.4180   16.9484 N   0  0  0  0  0  0  0  0  0  0  0  0
    9.0813  -16.4425   19.1567 C   0  0  0  0  0  0  0  0  0  0  0  0
   10.1923  -17.0083   19.1526 O   0  0  0  0  0  0  0  0  0  0  0  0
    8.8136  -15.4205   20.0741 N   0  0  0  0  0  0  0  0  0  0  0  0
    8.1692  -14.1598   19.5448 C   0  0  0  0  0  0  0  0  0  0  0  0
    7.0064  -14.0259   20.4854 C   0  0  0  0  0  0  0  0  0  0  0  0
    7.4033  -14.8219   21.7240 C   0  0  0  0  0  0  0  0  0  0  0  0
    8.9127  -15.0597   21.4067 C   0  0  1  0  0  0  0  0  0  0  0  0
    9.4663  -15.7346   22.5126 C   0  0  0  0  0  0  0  0  0  0  0  0
    8.6556  -16.6573   22.9877 O   0  0  0  0  0  0  0  0  0  0  0  0
   12.5367  -16.9922   24.1340 C   0  0  0  0  0  0  0  0  0  0  0  0
   11.0721  -16.7569   24.1133 C   0  0  2  0  0  0  0  0  0  0  0  0
   10.6596  -15.6604   23.2238 N   0  0  0  0  0  0  0  0  0  0  0  0
   10.6088  -16.4222   25.5033 C   0  0  0  0  0  0  0  0  0  0  0  0
   10.8878  -17.2143   26.4435 O   0  0  0  0  0  0  0  0  0  0  0  0
    9.8857  -15.2784   25.7987 O   0  0  0  0  0  0  0  0  0  0  0  0
  2  1  1  0
  2  3  2  0
  4  2  1  0
  5  4  1  0
  5  6  1  6
  5  7  1  0
  7  8  2  0
  9  7  1  0
  9 13  1  0
 10 11  1  0
 10  9  1  0
 11 12  1  0
 13 12  1  0
 13 14  1  1
 14 15  2  0
 14 18  1  0
 17 16  1  1
 17 19  1  0
 18 17  1  0
 19 21  1  0
 20 19  2  0
M  END
$$$$
