NPA.pdb
     RDKit          3D

 21 21  0  0  1  0  0  0  0  0999 V2000
    7.3613  -19.1672   17.5957 N   0  0  0  0  0  0  0  0  0  0  0  0
    6.2171  -18.5941   18.2105 C   0  0  0  0  0  0  0  0  0  0  0  0
    5.3262  -19.3837   18.6040 O   0  0  0  0  0  0  0  0  0  0  0  0
    6.1227  -17.1216   18.3597 C   0  0  0  0  0  0  0  0  0  0  0  0
    7.3629  -16.4554   17.7744 C   0  0  2  0  0  0  0  0  0  0  0  0
    7.8204  -17.3342   16.6807 N   0  0  0  0  0  0  0  0  0  0  0  0
    8.4288  -16.3113   18.7951 C   0  0  0  0  0  0  0  0  0  0  0  0
    9.1937  -17.2896   18.9056 O   0  0  0  0  0  0  0  0  0  0  0  0
    8.6072  -15.1818   19.6014 N   0  0  0  0  0  0  0  0  0  0  0  0
    8.3664  -13.8296   18.9702 C   0  0  0  0  0  0  0  0  0  0  0  0
    7.4135  -13.2259   19.9614 C   0  0  0  0  0  0  0  0  0  0  0  0
    7.6467  -13.9959   21.2568 C   0  0  0  0  0  0  0  0  0  0  0  0
    8.9529  -14.7590   20.8733 C   0  0  1  0  0  0  0  0  0  0  0  0
    9.3599  -15.4805   22.0129 C   0  0  0  0  0  0  0  0  0  0  0  0
    8.3520  -16.0932   22.5986 O   0  0  0  0  0  0  0  0  0  0  0  0
   11.9634  -17.5360   23.5656 C   0  0  0  0  0  0  0  0  0  0  0  0
   10.6945  -16.7739   23.6657 C   0  0  2  0  0  0  0  0  0  0  0  0
   10.5669  -15.6999   22.6688 N   0  0  0  0  0  0  0  0  0  0  0  0
   10.6028  -16.1500   25.0299 C   0  0  0  0  0  0  0  0  0  0  0  0
   10.5208  -14.8952   25.1195 O   0  0  0  0  0  0  0  0  0  0  0  0
   10.6049  -16.8947   26.1978 O   0  0  0  0  0  0  0  0  0  0  0  0
  2  1  1  0
  2  3  2  0
  4  2  1  0
  5  4  1  0
  5  6  1  6
  5  7  1  0
  7  8  2  0
  9  7  1  0
  9 13  1  0
 10 11  1  0
 10  9  1  0
 11 12  1  0
 13 12  1  0
 13 14  1  1
 14 15  2  0
 14 18  1  0
 17 16  1  1
 17 19  1  0
 18 17  1  0
 19 21  1  0
 20 19  2  0
M  END
$$$$
