NPA.pdb
     RDKit          3D

 21 21  0  0  1  0  0  0  0  0999 V2000
    7.6893  -18.8036   18.3561 N   0  0  0  0  0  0  0  0  0  0  0  0
    7.3538  -17.6833   17.5512 C   0  0  0  0  0  0  0  0  0  0  0  0
    6.2936  -17.0762   17.8332 O   0  0  0  0  0  0  0  0  0  0  0  0
    8.2476  -17.2847   16.4369 C   0  0  0  0  0  0  0  0  0  0  0  0
    8.6591  -15.8249   16.5921 C   0  0  2  0  0  0  0  0  0  0  0  0
    9.5024  -15.5122   15.4220 N   0  0  0  0  0  0  0  0  0  0  0  0
    9.4227  -15.6114   17.8451 C   0  0  0  0  0  0  0  0  0  0  0  0
   10.4017  -16.3665   18.0054 O   0  0  0  0  0  0  0  0  0  0  0  0
    9.1100  -14.6472   18.8097 N   0  0  0  0  0  0  0  0  0  0  0  0
    8.6126  -13.3065   18.3198 C   0  0  0  0  0  0  0  0  0  0  0  0
    7.3556  -13.1639   19.1288 C   0  0  0  0  0  0  0  0  0  0  0  0
    7.5512  -14.0799   20.3321 C   0  0  0  0  0  0  0  0  0  0  0  0
    9.0703  -14.3990   20.1709 C   0  0  1  0  0  0  0  0  0  0  0  0
    9.4445  -15.1954   21.2711 C   0  0  0  0  0  0  0  0  0  0  0  0
    8.4682  -15.9860   21.6665 O   0  0  0  0  0  0  0  0  0  0  0  0
   12.1271  -16.8830   23.2293 C   0  0  0  0  0  0  0  0  0  0  0  0
   10.7240  -16.4702   22.9811 C   0  0  2  0  0  0  0  0  0  0  0  0
   10.5935  -15.3466   22.0407 N   0  0  0  0  0  0  0  0  0  0  0  0
   10.0959  -16.0575   24.2826 C   0  0  0  0  0  0  0  0  0  0  0  0
    9.6836  -14.8729   24.4091 O   0  0  0  0  0  0  0  0  0  0  0  0
    9.9498  -16.9235   25.3537 O   0  0  0  0  0  0  0  0  0  0  0  0
  2  1  1  0
  2  3  2  0
  4  2  1  0
  5  4  1  0
  5  6  1  6
  5  7  1  0
  7  8  2  0
  9  7  1  0
  9 13  1  0
 10 11  1  0
 10  9  1  0
 11 12  1  0
 13 12  1  0
 13 14  1  1
 14 15  2  0
 14 18  1  0
 17 16  1  1
 17 19  1  0
 18 17  1  0
 19 21  1  0
 20 19  2  0
M  END
$$$$
