NPA.pdb
     RDKit          3D

 21 21  0  0  1  0  0  0  0  0999 V2000
    6.6426  -19.1250   17.8006 N   0  0  0  0  0  0  0  0  0  0  0  0
    7.8765  -18.8315   17.1626 C   0  0  0  0  0  0  0  0  0  0  0  0
    8.2771  -19.6440   16.2958 O   0  0  0  0  0  0  0  0  0  0  0  0
    8.6243  -17.6067   17.5367 C   0  0  0  0  0  0  0  0  0  0  0  0
    8.0144  -16.9819   18.7865 C   0  0  2  0  0  0  0  0  0  0  0  0
    7.5154  -15.6547   18.3772 N   0  0  0  0  0  0  0  0  0  0  0  0
    9.0229  -16.8394   19.8641 C   0  0  0  0  0  0  0  0  0  0  0  0
    9.9135  -17.7118   19.8764 O   0  0  0  0  0  0  0  0  0  0  0  0
    9.0212  -15.8195   20.8220 N   0  0  0  0  0  0  0  0  0  0  0  0
    8.6044  -14.4388   20.3696 C   0  0  0  0  0  0  0  0  0  0  0  0
    7.5539  -14.1163   21.3929 C   0  0  0  0  0  0  0  0  0  0  0  0
    7.8658  -15.0196   22.5812 C   0  0  0  0  0  0  0  0  0  0  0  0
    9.2753  -15.5346   22.1525 C   0  0  1  0  0  0  0  0  0  0  0  0
    9.7558  -16.3447   23.2002 C   0  0  0  0  0  0  0  0  0  0  0  0
    8.7958  -17.0488   23.7634 O   0  0  0  0  0  0  0  0  0  0  0  0
   12.5700  -18.4007   24.3586 C   0  0  0  0  0  0  0  0  0  0  0  0
   11.2348  -17.7928   24.5791 C   0  0  2  0  0  0  0  0  0  0  0  0
   10.9967  -16.5786   23.7837 N   0  0  0  0  0  0  0  0  0  0  0  0
   11.0950  -17.4281   26.0304 C   0  0  0  0  0  0  0  0  0  0  0  0
   10.8606  -16.2274   26.3349 O   0  0  0  0  0  0  0  0  0  0  0  0
   11.2131  -18.3555   27.0524 O   0  0  0  0  0  0  0  0  0  0  0  0
  2  1  1  0
  2  3  2  0
  4  2  1  0
  5  4  1  0
  5  6  1  6
  5  7  1  0
  7  8  2  0
  9  7  1  0
  9 13  1  0
 10 11  1  0
 10  9  1  0
 11 12  1  0
 13 12  1  0
 13 14  1  1
 14 15  2  0
 14 18  1  0
 17 16  1  1
 17 19  1  0
 18 17  1  0
 19 21  1  0
 20 19  2  0
M  END
$$$$
