NPA.pdb
     RDKit          3D

 21 21  0  0  1  0  0  0  0  0999 V2000
    7.7019  -17.2050   14.7779 N   0  0  0  0  0  0  0  0  0  0  0  0
    7.1079  -17.5548   16.0191 C   0  0  0  0  0  0  0  0  0  0  0  0
    6.2631  -18.4812   16.0055 O   0  0  0  0  0  0  0  0  0  0  0  0
    7.4999  -16.8295   17.2519 C   0  0  0  0  0  0  0  0  0  0  0  0
    8.5618  -15.7841   16.9293 C   0  0  2  0  0  0  0  0  0  0  0  0
    9.3882  -16.3614   15.8514 N   0  0  0  0  0  0  0  0  0  0  0  0
    9.4015  -15.4865   18.1145 C   0  0  0  0  0  0  0  0  0  0  0  0
   10.4142  -16.2027   18.2411 O   0  0  0  0  0  0  0  0  0  0  0  0
    9.1231  -14.4863   19.0527 N   0  0  0  0  0  0  0  0  0  0  0  0
    8.7970  -13.1076   18.5259 C   0  0  0  0  0  0  0  0  0  0  0  0
    7.5092  -12.8319   19.2472 C   0  0  0  0  0  0  0  0  0  0  0  0
    7.5303  -13.7509   20.4639 C   0  0  0  0  0  0  0  0  0  0  0  0
    9.0171  -14.2220   20.4072 C   0  0  1  0  0  0  0  0  0  0  0  0
    9.2346  -15.0408   21.5328 C   0  0  0  0  0  0  0  0  0  0  0  0
    8.1275  -15.6237   21.9439 O   0  0  0  0  0  0  0  0  0  0  0  0
   10.4196  -17.8449   22.5213 C   0  0  0  0  0  0  0  0  0  0  0  0
   10.2837  -16.5413   23.2162 C   0  0  2  0  0  0  0  0  0  0  0  0
   10.3340  -15.3800   22.3147 N   0  0  0  0  0  0  0  0  0  0  0  0
   11.3980  -16.3985   24.2146 C   0  0  0  0  0  0  0  0  0  0  0  0
   11.5111  -17.2623   25.1259 O   0  0  0  0  0  0  0  0  0  0  0  0
   12.3093  -15.3561   24.1788 O   0  0  0  0  0  0  0  0  0  0  0  0
  2  1  1  0
  2  3  2  0
  4  2  1  0
  5  4  1  0
  5  6  1  6
  5  7  1  0
  7  8  2  0
  9  7  1  0
  9 13  1  0
 10 11  1  0
 10  9  1  0
 11 12  1  0
 13 12  1  0
 13 14  1  1
 14 15  2  0
 14 18  1  0
 17 16  1  6
 17 19  1  0
 18 17  1  0
 19 21  1  0
 20 19  2  0
M  END
$$$$
