NPA.pdb
     RDKit          3D

 21 21  0  0  1  0  0  0  0  0999 V2000
    7.9658  -18.5330   14.7812 N   0  0  0  0  0  0  0  0  0  0  0  0
    7.6175  -17.3179   15.4277 C   0  0  0  0  0  0  0  0  0  0  0  0
    6.7090  -16.6326   14.9014 O   0  0  0  0  0  0  0  0  0  0  0  0
    8.3237  -16.9169   16.6686 C   0  0  0  0  0  0  0  0  0  0  0  0
    8.9190  -15.5229   16.5052 C   0  0  2  0  0  0  0  0  0  0  0  0
    9.7887  -15.5877   15.3147 N   0  0  0  0  0  0  0  0  0  0  0  0
    9.7107  -15.1327   17.6967 C   0  0  0  0  0  0  0  0  0  0  0  0
   10.8861  -15.5480   17.7124 O   0  0  0  0  0  0  0  0  0  0  0  0
    9.2225  -14.3568   18.7538 N   0  0  0  0  0  0  0  0  0  0  0  0
    8.6033  -13.0213   18.4104 C   0  0  0  0  0  0  0  0  0  0  0  0
    7.2873  -13.1332   19.1250 C   0  0  0  0  0  0  0  0  0  0  0  0
    7.5099  -14.1861   20.2054 C   0  0  0  0  0  0  0  0  0  0  0  0
    9.0635  -14.3126   20.1281 C   0  0  1  0  0  0  0  0  0  0  0  0
    9.4556  -15.2136   21.1376 C   0  0  0  0  0  0  0  0  0  0  0  0
    8.7554  -16.3287   21.1070 O   0  0  0  0  0  0  0  0  0  0  0  0
   12.0773  -16.5482   23.3920 C   0  0  0  0  0  0  0  0  0  0  0  0
   10.6707  -16.4281   22.9362 C   0  0  2  0  0  0  0  0  0  0  0  0
   10.4007  -15.2091   22.1583 N   0  0  0  0  0  0  0  0  0  0  0  0
    9.7648  -16.4199   24.1354 C   0  0  0  0  0  0  0  0  0  0  0  0
    9.0126  -15.4255   24.3213 O   0  0  0  0  0  0  0  0  0  0  0  0
    9.7196  -17.4596   25.0495 O   0  0  0  0  0  0  0  0  0  0  0  0
  2  1  1  0
  2  3  2  0
  4  2  1  0
  5  4  1  0
  5  6  1  6
  5  7  1  0
  7  8  2  0
  9  7  1  0
  9 13  1  0
 10 11  1  0
 10  9  1  0
 11 12  1  0
 13 12  1  0
 13 14  1  1
 14 15  2  0
 14 18  1  0
 17 16  1  1
 17 19  1  0
 18 17  1  0
 19 21  1  0
 20 19  2  0
M  END
$$$$
