NPA.pdb
     RDKit          3D

 21 21  0  0  1  0  0  0  0  0999 V2000
    8.0377  -18.0058   14.4504 N   0  0  0  0  0  0  0  0  0  0  0  0
    7.7341  -16.7704   15.0807 C   0  0  0  0  0  0  0  0  0  0  0  0
    7.0298  -15.9591   14.4343 O   0  0  0  0  0  0  0  0  0  0  0  0
    8.2485  -16.4948   16.4441 C   0  0  0  0  0  0  0  0  0  0  0  0
    9.1072  -15.2350   16.4351 C   0  0  2  0  0  0  0  0  0  0  0  0
   10.0979  -15.4244   15.3577 N   0  0  0  0  0  0  0  0  0  0  0  0
    9.7947  -15.0430   17.7347 C   0  0  0  0  0  0  0  0  0  0  0  0
   10.9077  -15.5960   17.8333 O   0  0  0  0  0  0  0  0  0  0  0  0
    9.2765  -14.3049   18.8045 N   0  0  0  0  0  0  0  0  0  0  0  0
    8.6647  -12.9586   18.4911 C   0  0  0  0  0  0  0  0  0  0  0  0
    7.3299  -13.0963   19.1650 C   0  0  0  0  0  0  0  0  0  0  0  0
    7.5244  -14.1862   20.2136 C   0  0  0  0  0  0  0  0  0  0  0  0
    9.0797  -14.3090   20.1746 C   0  0  1  0  0  0  0  0  0  0  0  0
    9.4455  -15.2446   21.1623 C   0  0  0  0  0  0  0  0  0  0  0  0
    8.8191  -16.3935   21.0139 O   0  0  0  0  0  0  0  0  0  0  0  0
   11.9225  -16.5399   23.6122 C   0  0  0  0  0  0  0  0  0  0  0  0
   10.5739  -16.4896   22.9961 C   0  0  2  0  0  0  0  0  0  0  0  0
   10.3055  -15.2472   22.2558 N   0  0  0  0  0  0  0  0  0  0  0  0
    9.5359  -16.6167   24.0755 C   0  0  0  0  0  0  0  0  0  0  0  0
    8.7283  -15.6657   24.2562 O   0  0  0  0  0  0  0  0  0  0  0  0
    9.4266  -17.7359   24.8842 O   0  0  0  0  0  0  0  0  0  0  0  0
  2  1  1  0
  2  3  2  0
  4  2  1  0
  5  4  1  0
  5  6  1  6
  5  7  1  0
  7  8  2  0
  9  7  1  0
  9 13  1  0
 10 11  1  0
 10  9  1  0
 11 12  1  0
 13 12  1  0
 13 14  1  6
 14 15  2  0
 14 18  1  0
 17 16  1  1
 17 19  1  0
 18 17  1  0
 19 21  1  0
 20 19  2  0
M  END
$$$$
