NPA.pdb
     RDKit          3D

 21 21  0  0  1  0  0  0  0  0999 V2000
    8.2709  -18.3548   14.9343 N   0  0  0  0  0  0  0  0  0  0  0  0
    7.8478  -17.1395   15.5341 C   0  0  0  0  0  0  0  0  0  0  0  0
    7.0109  -16.4530   14.9013 O   0  0  0  0  0  0  0  0  0  0  0  0
    8.3979  -16.7397   16.8520 C   0  0  0  0  0  0  0  0  0  0  0  0
    9.1838  -15.4400   16.7189 C   0  0  2  0  0  0  0  0  0  0  0  0
   10.2218  -15.6933   15.7009 N   0  0  0  0  0  0  0  0  0  0  0  0
    9.8121  -15.0568   18.0061 C   0  0  0  0  0  0  0  0  0  0  0  0
   10.9179  -15.5850   18.2352 O   0  0  0  0  0  0  0  0  0  0  0  0
    9.2479  -14.1716   18.9315 N   0  0  0  0  0  0  0  0  0  0  0  0
    8.6133  -12.9102   18.3921 C   0  0  0  0  0  0  0  0  0  0  0  0
    7.2644  -12.9751   19.0487 C   0  0  0  0  0  0  0  0  0  0  0  0
    7.4562  -13.8776   20.2628 C   0  0  0  0  0  0  0  0  0  0  0  0
    9.0145  -13.9620   20.2796 C   0  0  1  0  0  0  0  0  0  0  0  0
    9.3754  -14.7172   21.4128 C   0  0  0  0  0  0  0  0  0  0  0  0
    8.7721  -14.2937   22.5042 O   0  0  0  0  0  0  0  0  0  0  0  0
   10.0073  -18.0524   22.6594 C   0  0  0  0  0  0  0  0  0  0  0  0
   10.0813  -16.5889   22.8908 C   0  0  2  0  0  0  0  0  0  0  0  0
   10.2153  -15.7989   21.6573 N   0  0  0  0  0  0  0  0  0  0  0  0
   11.2688  -16.2888   23.7618 C   0  0  0  0  0  0  0  0  0  0  0  0
   11.3706  -16.8755   24.8730 O   0  0  0  0  0  0  0  0  0  0  0  0
   12.2600  -15.3925   23.3973 O   0  0  0  0  0  0  0  0  0  0  0  0
  2  1  1  0
  2  3  2  0
  4  2  1  0
  5  4  1  0
  5  6  1  6
  5  7  1  0
  7  8  2  0
  9  7  1  0
  9 13  1  0
 10 11  1  0
 10  9  1  0
 11 12  1  0
 13 12  1  0
 13 14  1  1
 14 15  2  0
 14 18  1  0
 17 16  1  6
 17 19  1  0
 18 17  1  0
 19 21  1  0
 20 19  2  0
M  END
$$$$
