LCQ.pdb
     RDKit          3D

 24 23  0  0  1  0  0  0  0  0999 V2000
   17.9324  -11.7379  -17.5713 C   0  0  0  0  0  0  0  0  0  0  0  0
   19.3600  -11.8054  -17.1444 C   0  0  2  0  0  0  0  0  0  0  0  0
   20.0084  -13.1420  -17.4330 C   0  0  0  0  0  0  0  0  0  0  0  0
   19.5382  -11.3814  -15.7054 C   0  0  0  0  0  0  0  0  0  0  0  0
   18.9190  -10.0011  -15.5687 C   0  0  2  0  0  0  0  0  0  0  0  0
   19.4001   -9.2143  -16.6850 N   0  0  0  0  0  0  0  0  0  0  0  0
   19.2687   -9.3421  -14.3154 C   0  0  0  0  0  0  0  0  0  0  0  0
   18.9892   -9.8909  -13.2183 O   0  0  0  0  0  0  0  0  0  0  0  0
   19.9250   -8.0817  -14.2161 N   0  0  0  0  0  0  0  0  0  0  0  0
   20.2122   -7.4110  -12.9650 C   0  0  1  0  0  0  0  0  0  0  0  0
   21.4233   -6.5166  -13.2245 C   0  0  0  0  0  0  0  0  0  0  0  0
   21.8049   -5.4812  -11.7938 S   0  0  0  0  0  0  0  0  0  0  0  0
   19.1131   -6.5257  -12.5346 C   0  0  0  0  0  0  0  0  0  0  0  0
   18.5991   -5.6276  -13.2381 O   0  0  0  0  0  0  0  0  0  0  0  0
   13.7476   -7.8346  -10.3374 N   0  0  0  0  0  0  0  0  0  0  0  0
   14.8772   -8.5316   -9.8660 C   0  0  0  0  0  0  0  0  0  0  0  0
   14.7423   -9.6327   -9.3118 O   0  0  0  0  0  0  0  0  0  0  0  0
   16.2128   -7.9440  -10.0353 C   0  0  0  0  0  0  0  0  0  0  0  0
   16.2559   -6.6743  -10.8215 C   0  0  0  0  0  0  0  0  0  0  0  0
   17.5232   -5.8826  -10.6790 C   0  0  2  0  0  0  0  0  0  0  0  0
   18.6003   -6.7087  -11.2200 N   0  0  0  0  0  0  0  0  0  0  0  0
   17.8181   -5.6295   -9.2517 C   0  0  0  0  0  0  0  0  0  0  0  0
   18.8305   -6.1428   -8.7304 O   0  0  0  0  0  0  0  0  0  0  0  0
   17.0141   -4.8379   -8.4493 O   0  0  0  0  0  0  0  0  0  0  0  0
  2  3  1  1
  2  1  1  0
  4  2  1  0
  5  7  1  0
  5  4  1  0
  5  6  1  6
  7  8  2  0
  9 10  1  0
  9  7  1  0
 10 11  1  6
 11 12  1  0
 13 10  1  0
 14 13  2  0
 16 15  1  0
 16 17  2  0
 18 16  1  0
 19 18  1  0
 20 19  1  1
 20 21  1  0
 21 13  1  0
 22 20  1  0
 22 24  1  0
 23 22  2  0
M  END
$$$$
