LCQ.pdb
     RDKit          3D

 24 23  0  0  1  0  0  0  0  0999 V2000
   24.9573  -17.7812  -20.5280 C   0  0  0  0  0  0  0  0  0  0  0  0
   25.3316  -19.2129  -20.7155 C   0  0  2  0  0  0  0  0  0  0  0  0
   24.7193  -19.8344  -21.9521 C   0  0  0  0  0  0  0  0  0  0  0  0
   25.0684  -20.0312  -19.4731 C   0  0  0  0  0  0  0  0  0  0  0  0
   25.7565  -19.3219  -18.3196 C   0  0  2  0  0  0  0  0  0  0  0  0
   27.1108  -19.0418  -18.7486 N   0  0  0  0  0  0  0  0  0  0  0  0
   25.7823  -20.1168  -17.0969 C   0  0  0  0  0  0  0  0  0  0  0  0
   24.7389  -20.7010  -16.7059 O   0  0  0  0  0  0  0  0  0  0  0  0
   26.9285  -20.2994  -16.2711 N   0  0  0  0  0  0  0  0  0  0  0  0
   26.9439  -21.1070  -15.0689 C   0  0  1  0  0  0  0  0  0  0  0  0
   28.4132  -21.2886  -14.6915 C   0  0  0  0  0  0  0  0  0  0  0  0
   29.2536  -22.4259  -15.8161 S   0  0  0  0  0  0  0  0  0  0  0  0
   26.2912  -20.4343  -13.9293 C   0  0  0  0  0  0  0  0  0  0  0  0
   26.2959  -19.1993  -13.7279 O   0  0  0  0  0  0  0  0  0  0  0  0
   20.0715  -20.9331  -11.1251 N   0  0  0  0  0  0  0  0  0  0  0  0
   21.0227  -20.1129  -11.7627 C   0  0  0  0  0  0  0  0  0  0  0  0
   20.6771  -19.3631  -12.6880 O   0  0  0  0  0  0  0  0  0  0  0  0
   22.4239  -20.1538  -11.3238 C   0  0  0  0  0  0  0  0  0  0  0  0
   23.3930  -20.6788  -12.3325 C   0  0  0  0  0  0  0  0  0  0  0  0
   24.8263  -20.6943  -11.8870 C   0  0  2  0  0  0  0  0  0  0  0  0
   25.6052  -21.2535  -12.9897 N   0  0  0  0  0  0  0  0  0  0  0  0
   24.9952  -21.5819  -10.7158 C   0  0  0  0  0  0  0  0  0  0  0  0
   25.3162  -22.7766  -10.8882 O   0  0  0  0  0  0  0  0  0  0  0  0
   24.8121  -21.1478   -9.4139 O   0  0  0  0  0  0  0  0  0  0  0  0
  2  3  1  6
  2  1  1  0
  4  2  1  0
  5  7  1  0
  5  4  1  0
  5  6  1  6
  7  8  2  0
  9 10  1  0
  9  7  1  0
 10 11  1  1
 11 12  1  0
 13 10  1  0
 14 13  2  0
 16 15  1  0
 16 17  2  0
 18 16  1  0
 19 18  1  0
 20 19  1  6
 20 21  1  0
 21 13  1  0
 22 20  1  0
 22 24  1  0
 23 22  2  0
M  END
$$$$
