LCQ.pdb
     RDKit          3D

 24 23  0  0  1  0  0  0  0  0999 V2000
   18.0394  -15.3980  -15.3392 C   0  0  0  0  0  0  0  0  0  0  0  0
   19.4439  -15.8077  -15.6301 C   0  0  2  0  0  0  0  0  0  0  0  0
   20.0808  -16.5994  -14.5085 C   0  0  0  0  0  0  0  0  0  0  0  0
   20.2951  -14.6356  -16.0588 C   0  0  0  0  0  0  0  0  0  0  0  0
   19.5654  -13.9506  -17.2013 C   0  0  2  0  0  0  0  0  0  0  0  0
   19.7427  -14.7852  -18.3713 N   0  0  0  0  0  0  0  0  0  0  0  0
   20.0675  -12.6085  -17.4739 C   0  0  0  0  0  0  0  0  0  0  0  0
   21.1808  -12.4579  -18.0405 O   0  0  0  0  0  0  0  0  0  0  0  0
   19.3842  -11.4032  -17.1435 N   0  0  0  0  0  0  0  0  0  0  0  0
   19.8923  -10.0768  -17.4266 C   0  0  1  0  0  0  0  0  0  0  0  0
   19.2822   -9.6586  -18.7634 C   0  0  0  0  0  0  0  0  0  0  0  0
   17.4890   -9.8801  -18.7749 S   0  0  0  0  0  0  0  0  0  0  0  0
   19.4561   -9.0810  -16.4290 C   0  0  0  0  0  0  0  0  0  0  0  0
   18.3951   -9.1457  -15.7687 O   0  0  0  0  0  0  0  0  0  0  0  0
   23.3937   -4.3053  -14.8781 N   0  0  0  0  0  0  0  0  0  0  0  0
   22.2875   -4.0643  -14.0401 C   0  0  0  0  0  0  0  0  0  0  0  0
   22.3028   -3.1094  -13.2490 O   0  0  0  0  0  0  0  0  0  0  0  0
   21.1192   -4.9519  -14.1105 C   0  0  0  0  0  0  0  0  0  0  0  0
   21.2307   -6.0764  -15.0878 C   0  0  0  0  0  0  0  0  0  0  0  0
   20.0148   -6.9506  -15.1905 C   0  0  2  0  0  0  0  0  0  0  0  0
   20.3073   -7.9637  -16.2022 N   0  0  0  0  0  0  0  0  0  0  0  0
   18.8506   -6.1661  -15.6568 C   0  0  0  0  0  0  0  0  0  0  0  0
   18.0759   -5.6554  -14.8207 O   0  0  0  0  0  0  0  0  0  0  0  0
   18.5708   -5.9653  -16.9978 O   0  0  0  0  0  0  0  0  0  0  0  0
  2  3  1  1
  2  1  1  0
  4  2  1  0
  5  7  1  0
  5  4  1  0
  5  6  1  6
  7  8  2  0
  9 10  1  0
  9  7  1  0
 10 11  1  6
 11 12  1  0
 13 10  1  0
 14 13  2  0
 16 15  1  0
 16 17  2  0
 18 16  1  0
 19 18  1  0
 20 19  1  6
 20 21  1  0
 21 13  1  0
 22 20  1  0
 22 24  1  0
 23 22  2  0
M  END
$$$$
