LCQ.pdb
     RDKit          3D

 24 23  0  0  1  0  0  0  0  0999 V2000
   21.8645  -17.4656  -14.4894 C   0  0  0  0  0  0  0  0  0  0  0  0
   21.6439  -18.7133  -15.2765 C   0  0  2  0  0  0  0  0  0  0  0  0
   20.5324  -18.5890  -16.2961 C   0  0  0  0  0  0  0  0  0  0  0  0
   21.4693  -19.9192  -14.3834 C   0  0  0  0  0  0  0  0  0  0  0  0
   22.6637  -19.9544  -13.4457 C   0  0  2  0  0  0  0  0  0  0  0  0
   23.8061  -20.3592  -14.2380 N   0  0  0  0  0  0  0  0  0  0  0  0
   22.4854  -20.8789  -12.3316 C   0  0  0  0  0  0  0  0  0  0  0  0
   21.9320  -21.9926  -12.5225 O   0  0  0  0  0  0  0  0  0  0  0  0
   22.8978  -20.6254  -10.9919 N   0  0  0  0  0  0  0  0  0  0  0  0
   22.7103  -21.5518   -9.8945 C   0  0  1  0  0  0  0  0  0  0  0  0
   23.8126  -21.2474   -8.8814 C   0  0  0  0  0  0  0  0  0  0  0  0
   24.2640  -19.4978   -8.8945 S   0  0  0  0  0  0  0  0  0  0  0  0
   21.4247  -21.3492   -9.1992 C   0  0  0  0  0  0  0  0  0  0  0  0
   20.8021  -20.2652   -9.1457 O   0  0  0  0  0  0  0  0  0  0  0  0
   16.6765  -23.7317  -10.9142 N   0  0  0  0  0  0  0  0  0  0  0  0
   16.1786  -23.2997   -9.6694 C   0  0  0  0  0  0  0  0  0  0  0  0
   14.9575  -23.3026   -9.4530 O   0  0  0  0  0  0  0  0  0  0  0  0
   17.1155  -22.8462   -8.6330 C   0  0  0  0  0  0  0  0  0  0  0  0
   18.5517  -22.8100   -9.0435 C   0  0  0  0  0  0  0  0  0  0  0  0
   19.5137  -22.4360   -7.9536 C   0  0  2  0  0  0  0  0  0  0  0  0
   20.8515  -22.4726   -8.5404 N   0  0  0  0  0  0  0  0  0  0  0  0
   19.4701  -23.4313   -6.8602 C   0  0  0  0  0  0  0  0  0  0  0  0
   20.3231  -24.3429   -6.8211 O   0  0  0  0  0  0  0  0  0  0  0  0
   18.5140  -23.4034   -5.8591 O   0  0  0  0  0  0  0  0  0  0  0  0
  2  3  1  1
  2  1  1  0
  4  2  1  0
  5  7  1  0
  5  4  1  0
  5  6  1  6
  7  8  2  0
  9 10  1  0
  9  7  1  0
 10 11  1  1
 11 12  1  0
 13 10  1  0
 14 13  2  0
 16 15  1  0
 16 17  2  0
 18 16  1  0
 19 18  1  0
 20 19  1  6
 20 21  1  0
 21 13  1  0
 22 20  1  0
 22 24  1  0
 23 22  2  0
M  END
$$$$
