LCQ.pdb
     RDKit          3D

 24 23  0  0  1  0  0  0  0  0999 V2000
   18.1294  -12.8220  -19.3047 C   0  0  0  0  0  0  0  0  0  0  0  0
   18.7784  -13.7535  -18.3372 C   0  0  2  0  0  0  0  0  0  0  0  0
   17.8808  -14.8952  -17.9117 C   0  0  0  0  0  0  0  0  0  0  0  0
   19.3683  -13.0182  -17.1567 C   0  0  0  0  0  0  0  0  0  0  0  0
   20.2702  -11.9312  -17.7155 C   0  0  2  0  0  0  0  0  0  0  0  0
   21.3406  -12.5996  -18.4256 N   0  0  0  0  0  0  0  0  0  0  0  0
   20.8298  -11.0685  -16.6810 C   0  0  0  0  0  0  0  0  0  0  0  0
   20.0682  -10.5103  -15.8495 O   0  0  0  0  0  0  0  0  0  0  0  0
   22.2172  -10.7889  -16.5196 N   0  0  0  0  0  0  0  0  0  0  0  0
   22.7493   -9.8394  -15.5641 C   0  0  1  0  0  0  0  0  0  0  0  0
   24.2655  -10.0272  -15.5698 C   0  0  0  0  0  0  0  0  0  0  0  0
   24.7381  -11.6459  -14.9208 S   0  0  0  0  0  0  0  0  0  0  0  0
   22.4917   -8.4405  -15.9562 C   0  0  0  0  0  0  0  0  0  0  0  0
   22.2975   -8.0492  -17.1288 O   0  0  0  0  0  0  0  0  0  0  0  0
   17.7962   -6.2441  -16.0907 N   0  0  0  0  0  0  0  0  0  0  0  0
   18.4012   -4.9781  -15.9658 C   0  0  0  0  0  0  0  0  0  0  0  0
   17.7305   -3.9488  -16.1343 O   0  0  0  0  0  0  0  0  0  0  0  0
   19.8297   -4.8881  -15.6358 C   0  0  0  0  0  0  0  0  0  0  0  0
   20.5412   -6.1968  -15.5202 C   0  0  0  0  0  0  0  0  0  0  0  0
   21.9920   -6.0993  -15.1475 C   0  0  2  0  0  0  0  0  0  0  0  0
   22.4624   -7.4643  -14.9215 N   0  0  0  0  0  0  0  0  0  0  0  0
   22.1527   -5.3484  -13.8833 C   0  0  0  0  0  0  0  0  0  0  0  0
   22.1769   -4.0998  -13.9060 O   0  0  0  0  0  0  0  0  0  0  0  0
   22.2802   -5.9707  -12.6530 O   0  0  0  0  0  0  0  0  0  0  0  0
  2  3  1  1
  2  1  1  0
  4  2  1  0
  5  7  1  0
  5  4  1  0
  5  6  1  1
  7  8  2  0
  9 10  1  0
  9  7  1  0
 10 11  1  6
 11 12  1  0
 13 10  1  0
 14 13  2  0
 16 15  1  0
 16 17  2  0
 18 16  1  0
 19 18  1  0
 20 19  1  1
 20 21  1  0
 21 13  1  0
 22 20  1  0
 22 24  1  0
 23 22  2  0
M  END
$$$$
