LCQ.pdb
     RDKit          3D

 24 23  0  0  1  0  0  0  0  0999 V2000
   16.2340  -11.6014  -17.8226 C   0  0  0  0  0  0  0  0  0  0  0  0
   17.0109  -12.4913  -16.9118 C   0  0  2  0  0  0  0  0  0  0  0  0
   16.1837  -13.6132  -16.3223 C   0  0  0  0  0  0  0  0  0  0  0  0
   17.7491  -11.7067  -15.8527 C   0  0  0  0  0  0  0  0  0  0  0  0
   18.5481  -10.6330  -16.5709 C   0  0  2  0  0  0  0  0  0  0  0  0
   19.5269  -11.3171  -17.3898 N   0  0  0  0  0  0  0  0  0  0  0  0
   19.2240   -9.7193  -15.6566 C   0  0  0  0  0  0  0  0  0  0  0  0
   18.8033   -9.5850  -14.4784 O   0  0  0  0  0  0  0  0  0  0  0  0
   20.3640   -8.9329  -15.9897 N   0  0  0  0  0  0  0  0  0  0  0  0
   21.0108   -8.0118  -15.0780 C   0  0  1  0  0  0  0  0  0  0  0  0
   22.4234   -8.5487  -14.8543 C   0  0  0  0  0  0  0  0  0  0  0  0
   22.4687   -9.7681  -13.5217 S   0  0  0  0  0  0  0  0  0  0  0  0
   21.1545   -6.6595  -15.6506 C   0  0  0  0  0  0  0  0  0  0  0  0
   21.5492   -6.4113  -16.8118 O   0  0  0  0  0  0  0  0  0  0  0  0
   17.4050   -2.0639  -13.9207 N   0  0  0  0  0  0  0  0  0  0  0  0
   18.3857   -1.3335  -14.6199 C   0  0  0  0  0  0  0  0  0  0  0  0
   18.2330   -0.1190  -14.8185 O   0  0  0  0  0  0  0  0  0  0  0  0
   19.5871   -2.0212  -15.1111 C   0  0  0  0  0  0  0  0  0  0  0  0
   19.6500   -3.4844  -14.8157 C   0  0  0  0  0  0  0  0  0  0  0  0
   20.8996   -4.1727  -15.2825 C   0  0  2  0  0  0  0  0  0  0  0  0
   20.8185   -5.5558  -14.8179 N   0  0  0  0  0  0  0  0  0  0  0  0
   22.0930   -3.5551  -14.6641 C   0  0  0  0  0  0  0  0  0  0  0  0
   22.4205   -3.8739  -13.5017 O   0  0  0  0  0  0  0  0  0  0  0  0
   22.8803   -2.6244  -15.3205 O   0  0  0  0  0  0  0  0  0  0  0  0
  2  3  1  1
  2  1  1  0
  4  2  1  0
  5  7  1  0
  5  4  1  0
  5  6  1  1
  7  8  2  0
  9 10  1  0
  9  7  1  0
 10 11  1  6
 11 12  1  0
 13 10  1  0
 14 13  2  0
 16 15  1  0
 16 17  2  0
 18 16  1  0
 19 18  1  0
 20 19  1  1
 20 21  1  0
 21 13  1  0
 22 20  1  0
 22 24  1  0
 23 22  2  0
M  END
$$$$
