LCQ.pdb
     RDKit          3D

 24 23  0  0  1  0  0  0  0  0999 V2000
   28.3540  -10.6212  -16.5481 C   0  0  0  0  0  0  0  0  0  0  0  0
   26.9157  -10.4314  -16.2013 C   0  0  2  0  0  0  0  0  0  0  0  0
   26.6322  -10.5798  -14.7222 C   0  0  0  0  0  0  0  0  0  0  0  0
   26.0133  -11.2988  -17.0472 C   0  0  0  0  0  0  0  0  0  0  0  0
   24.5942  -10.7981  -16.8406 C   0  0  2  0  0  0  0  0  0  0  0  0
   23.7338  -11.6315  -17.6541 N   0  0  0  0  0  0  0  0  0  0  0  0
   24.4237   -9.3994  -17.2176 C   0  0  0  0  0  0  0  0  0  0  0  0
   25.4309   -8.6937  -17.4834 O   0  0  0  0  0  0  0  0  0  0  0  0
   23.1691   -8.7321  -17.3164 N   0  0  0  0  0  0  0  0  0  0  0  0
   23.0112   -7.3566  -17.7417 C   0  0  1  0  0  0  0  0  0  0  0  0
   23.6639   -7.2547  -19.1193 C   0  0  0  0  0  0  0  0  0  0  0  0
   23.4163   -5.6227  -19.8540 S   0  0  0  0  0  0  0  0  0  0  0  0
   21.5953   -6.9781  -17.9119 C   0  0  0  0  0  0  0  0  0  0  0  0
   20.8259   -7.4522  -18.7774 O   0  0  0  0  0  0  0  0  0  0  0  0
   15.6293   -5.3625  -17.1733 N   0  0  0  0  0  0  0  0  0  0  0  0
   16.4400   -5.9136  -16.1617 C   0  0  0  0  0  0  0  0  0  0  0  0
   16.2069   -5.6596  -14.9705 O   0  0  0  0  0  0  0  0  0  0  0  0
   17.5612   -6.7885  -16.5290 C   0  0  0  0  0  0  0  0  0  0  0  0
   18.9077   -6.3221  -16.0799 C   0  0  0  0  0  0  0  0  0  0  0  0
   19.6817   -5.5407  -17.1015 C   0  0  2  0  0  0  0  0  0  0  0  0
   21.0668   -6.0000  -17.0239 N   0  0  0  0  0  0  0  0  0  0  0  0
   19.6626   -4.0983  -16.7738 C   0  0  0  0  0  0  0  0  0  0  0  0
   18.5763   -3.4817  -16.7659 O   0  0  0  0  0  0  0  0  0  0  0  0
   20.8087   -3.3836  -16.4699 O   0  0  0  0  0  0  0  0  0  0  0  0
  2  3  1  1
  2  1  1  0
  4  2  1  0
  5  7  1  0
  5  4  1  0
  5  6  1  6
  7  8  2  0
  9 10  1  0
  9  7  1  0
 10 11  1  6
 11 12  1  0
 13 10  1  0
 14 13  2  0
 16 15  1  0
 16 17  2  0
 18 16  1  0
 19 18  1  0
 20 19  1  1
 20 21  1  0
 21 13  1  0
 22 20  1  0
 22 24  1  0
 23 22  2  0
M  END
$$$$
