LCQ.pdb
     RDKit          3D

 24 23  0  0  1  0  0  0  0  0999 V2000
   29.0634  -27.7508  -19.1131 C   0  0  0  0  0  0  0  0  0  0  0  0
   28.5651  -28.1235  -17.7574 C   0  0  2  0  0  0  0  0  0  0  0  0
   27.9353  -29.4986  -17.7085 C   0  0  0  0  0  0  0  0  0  0  0  0
   27.6632  -27.0596  -17.1768 C   0  0  0  0  0  0  0  0  0  0  0  0
   28.4700  -25.7738  -17.1228 C   0  0  2  0  0  0  0  0  0  0  0  0
   29.5536  -25.9985  -16.1890 N   0  0  0  0  0  0  0  0  0  0  0  0
   27.6811  -24.6245  -16.6935 C   0  0  0  0  0  0  0  0  0  0  0  0
   27.0925  -24.6473  -15.5818 O   0  0  0  0  0  0  0  0  0  0  0  0
   27.5092  -23.4295  -17.4495 N   0  0  0  0  0  0  0  0  0  0  0  0
   26.6502  -22.3329  -17.0525 C   0  0  1  0  0  0  0  0  0  0  0  0
   26.9785  -21.1694  -17.9866 C   0  0  0  0  0  0  0  0  0  0  0  0
   28.7030  -20.6541  -17.8272 S   0  0  0  0  0  0  0  0  0  0  0  0
   25.2196  -22.6405  -17.2414 C   0  0  0  0  0  0  0  0  0  0  0  0
   24.7668  -23.7497  -17.6024 O   0  0  0  0  0  0  0  0  0  0  0  0
   21.5326  -23.0941  -13.3841 N   0  0  0  0  0  0  0  0  0  0  0  0
   20.5974  -23.2313  -14.4285 C   0  0  0  0  0  0  0  0  0  0  0  0
   19.4131  -23.4955  -14.1722 O   0  0  0  0  0  0  0  0  0  0  0  0
   21.0358  -23.0600  -15.8199 C   0  0  0  0  0  0  0  0  0  0  0  0
   22.4974  -22.8090  -16.0015 C   0  0  0  0  0  0  0  0  0  0  0  0
   22.8415  -21.8052  -17.0632 C   0  0  2  0  0  0  0  0  0  0  0  0
   24.2861  -21.5957  -16.9938 N   0  0  0  0  0  0  0  0  0  0  0  0
   22.1811  -20.5110  -16.7860 C   0  0  0  0  0  0  0  0  0  0  0  0
   22.7899  -19.6339  -16.1378 O   0  0  0  0  0  0  0  0  0  0  0  0
   20.8984  -20.2168  -17.2164 O   0  0  0  0  0  0  0  0  0  0  0  0
  2  3  1  6
  2  1  1  0
  4  2  1  0
  5  7  1  0
  5  4  1  0
  5  6  1  1
  7  8  2  0
  9 10  1  0
  9  7  1  0
 10 11  1  6
 11 12  1  0
 13 10  1  0
 14 13  2  0
 16 15  1  0
 16 17  2  0
 18 16  1  0
 19 18  1  0
 20 19  1  1
 20 21  1  0
 21 13  1  0
 22 20  1  0
 22 24  1  0
 23 22  2  0
M  END
$$$$
