LCQ.pdb
     RDKit          3D

 24 23  0  0  1  0  0  0  0  0999 V2000
   10.1869   -9.6323   -9.6476 C   0  0  0  0  0  0  0  0  0  0  0  0
   11.0460  -10.8517   -9.6399 C   0  0  2  0  0  0  0  0  0  0  0  0
   10.9089  -11.6723   -8.3758 C   0  0  0  0  0  0  0  0  0  0  0  0
   12.4867  -10.5276   -9.9588 C   0  0  0  0  0  0  0  0  0  0  0  0
   12.4866   -9.7214  -11.2461 C   0  0  2  0  0  0  0  0  0  0  0  0
   11.9628  -10.5871  -12.2820 N   0  0  0  0  0  0  0  0  0  0  0  0
   13.8148   -9.2511  -11.6232 C   0  0  0  0  0  0  0  0  0  0  0  0
   14.4786   -8.5397  -10.8255 O   0  0  0  0  0  0  0  0  0  0  0  0
   14.4553   -9.5356  -12.8633 N   0  0  0  0  0  0  0  0  0  0  0  0
   15.7649   -9.0405  -13.2342 C   0  0  1  0  0  0  0  0  0  0  0  0
   16.4528  -10.1722  -13.9959 C   0  0  0  0  0  0  0  0  0  0  0  0
   16.8593  -11.5561  -12.9076 S   0  0  0  0  0  0  0  0  0  0  0  0
   15.6927   -7.8896  -14.1547 C   0  0  0  0  0  0  0  0  0  0  0  0
   14.9592   -7.8263  -15.1665 O   0  0  0  0  0  0  0  0  0  0  0  0
   15.8836   -2.1816  -12.0788 N   0  0  0  0  0  0  0  0  0  0  0  0
   16.0597   -1.9312  -13.4537 C   0  0  0  0  0  0  0  0  0  0  0  0
   16.0159   -0.7693  -13.8850 O   0  0  0  0  0  0  0  0  0  0  0  0
   16.2944   -3.0551  -14.3699 C   0  0  0  0  0  0  0  0  0  0  0  0
   16.2299   -4.4109  -13.7455 C   0  0  0  0  0  0  0  0  0  0  0  0
   16.4994   -5.5536  -14.6808 C   0  0  2  0  0  0  0  0  0  0  0  0
   16.5203   -6.7682  -13.8685 N   0  0  0  0  0  0  0  0  0  0  0  0
   17.8299   -5.4051  -15.3100 C   0  0  0  0  0  0  0  0  0  0  0  0
   18.8307   -5.9166  -14.7651 O   0  0  0  0  0  0  0  0  0  0  0  0
   18.0260   -4.7152  -16.4943 O   0  0  0  0  0  0  0  0  0  0  0  0
  2  3  1  1
  2  1  1  0
  4  2  1  0
  5  7  1  0
  5  4  1  0
  5  6  1  6
  7  8  2  0
  9 10  1  0
  9  7  1  0
 10 11  1  6
 11 12  1  0
 13 10  1  0
 14 13  2  0
 16 15  1  0
 16 17  2  0
 18 16  1  0
 19 18  1  0
 20 19  1  1
 20 21  1  0
 21 13  1  0
 22 20  1  0
 22 24  1  0
 23 22  2  0
M  END
$$$$
