CMQ.pdb
     RDKit          3D

 24 23  0  0  1  0  0  0  0  0999 V2000
   27.3821  -22.5604  -15.6175 N   0  0  0  0  0  0  0  0  0  0  0  0
   27.5194  -21.3596  -14.8218 C   0  0  1  0  0  0  0  0  0  0  0  0
   27.0998  -20.1546  -15.6336 C   0  0  0  0  0  0  0  0  0  0  0  0
   28.2042  -20.1018  -17.0915 S   0  0  0  0  0  0  0  0  0  0  0  0
   26.7212  -21.5082  -13.5877 C   0  0  0  0  0  0  0  0  0  0  0  0
   25.6315  -22.1268  -13.6343 O   0  0  0  0  0  0  0  0  0  0  0  0
   26.4968  -20.0921   -5.7854 C   0  0  0  0  0  0  0  0  0  0  0  0
   27.5049  -20.1529   -7.3164 S   0  0  0  0  0  0  0  0  0  0  0  0
   26.3684  -20.4842   -8.6781 C   0  0  0  0  0  0  0  0  0  0  0  0
   27.0369  -20.6219   -9.9905 C   0  0  0  0  0  0  0  0  0  0  0  0
   26.2054  -20.9945  -11.1600 C   0  0  2  0  0  0  0  0  0  0  0  0
   27.1191  -20.9846  -12.3302 N   0  0  0  0  0  0  0  0  0  0  0  0
   25.0271  -20.1789  -11.4305 C   0  0  0  0  0  0  0  0  0  0  0  0
   25.2186  -19.0373  -11.9610 O   0  0  0  0  0  0  0  0  0  0  0  0
   22.7355  -21.2378  -16.0268 N   0  0  0  0  0  0  0  0  0  0  0  0
   21.6107  -20.4934  -15.5936 C   0  0  0  0  0  0  0  0  0  0  0  0
   20.6922  -20.3213  -16.4551 O   0  0  0  0  0  0  0  0  0  0  0  0
   21.5463  -19.9811  -14.2360 C   0  0  0  0  0  0  0  0  0  0  0  0
   22.6329  -20.2931  -13.3010 C   0  0  0  0  0  0  0  0  0  0  0  0
   22.5624  -19.8530  -11.8892 C   0  0  2  0  0  0  0  0  0  0  0  0
   23.6963  -20.5179  -11.1699 N   0  0  0  0  0  0  0  0  0  0  0  0
   21.3635  -20.3237  -11.1936 C   0  0  0  0  0  0  0  0  0  0  0  0
   21.3522  -21.3769  -10.4622 O   0  0  0  0  0  0  0  0  0  0  0  0
   20.1498  -19.6691  -11.2706 O   0  0  0  0  0  0  0  0  0  0  0  0
  2  1  1  6
  3  2  1  0
  3  4  1  0
  5  6  2  0
  5  2  1  0
  7  8  1  0
  9  8  1  0
  9 10  1  0
 11 10  1  1
 11 13  1  0
 11 12  1  0
 12  5  1  0
 13 21  1  0
 14 13  2  0
 16 15  1  0
 16 17  2  0
 18 16  1  0
 20 19  1  6
 19 18  1  0
 20 22  1  0
 21 20  1  0
 22 23  2  0
 22 24  1  0
M  END
$$$$
