CMQ.pdb
     RDKit          3D

 24 23  0  0  1  0  0  0  0  0999 V2000
   28.0544  -21.5630  -14.4174 N   0  0  0  0  0  0  0  0  0  0  0  0
   28.4690  -20.7193  -13.3173 C   0  0  1  0  0  0  0  0  0  0  0  0
   28.4318  -19.2679  -13.7408 C   0  0  0  0  0  0  0  0  0  0  0  0
   26.7581  -18.9680  -14.4166 S   0  0  0  0  0  0  0  0  0  0  0  0
   27.5981  -20.9853  -12.1543 C   0  0  0  0  0  0  0  0  0  0  0  0
   26.5496  -21.6540  -12.3149 O   0  0  0  0  0  0  0  0  0  0  0  0
   26.7326  -20.0997   -4.3488 C   0  0  0  0  0  0  0  0  0  0  0  0
   27.8364  -19.9806   -5.8087 S   0  0  0  0  0  0  0  0  0  0  0  0
   26.7839  -20.0876   -7.2703 C   0  0  0  0  0  0  0  0  0  0  0  0
   27.5326  -20.0586   -8.5458 C   0  0  0  0  0  0  0  0  0  0  0  0
   26.8875  -20.6437   -9.7456 C   0  0  2  0  0  0  0  0  0  0  0  0
   27.8802  -20.5223  -10.8428 N   0  0  0  0  0  0  0  0  0  0  0  0
   25.6060  -20.0823  -10.1573 C   0  0  0  0  0  0  0  0  0  0  0  0
   25.6209  -18.9242  -10.6864 O   0  0  0  0  0  0  0  0  0  0  0  0
   23.3900  -22.3258  -14.6735 N   0  0  0  0  0  0  0  0  0  0  0  0
   22.2123  -21.6131  -14.3389 C   0  0  0  0  0  0  0  0  0  0  0  0
   21.2608  -21.6858  -15.1784 O   0  0  0  0  0  0  0  0  0  0  0  0
   22.1345  -20.8623  -13.0979 C   0  0  0  0  0  0  0  0  0  0  0  0
   23.2385  -20.9532  -12.1361 C   0  0  0  0  0  0  0  0  0  0  0  0
   23.1785  -20.2251  -10.8484 C   0  0  2  0  0  0  0  0  0  0  0  0
   24.3503  -20.6839  -10.0350 N   0  0  0  0  0  0  0  0  0  0  0  0
   22.0117  -20.5762  -10.0369 C   0  0  0  0  0  0  0  0  0  0  0  0
   22.0928  -21.2895   -8.9745 O   0  0  0  0  0  0  0  0  0  0  0  0
   20.7314  -20.1655  -10.3526 O   0  0  0  0  0  0  0  0  0  0  0  0
  2  1  1  6
  3  2  1  0
  3  4  1  0
  5  6  2  0
  5  2  1  0
  7  8  1  0
  9  8  1  0
  9 10  1  0
 11 10  1  1
 11 13  1  0
 11 12  1  0
 12  5  1  0
 13 21  1  0
 14 13  2  0
 16 15  1  0
 16 17  2  0
 18 16  1  0
 20 19  1  6
 19 18  1  0
 20 22  1  0
 21 20  1  0
 22 23  2  0
 22 24  1  0
M  END
$$$$
