CMQ.pdb
     RDKit          3D

 24 23  0  0  1  0  0  0  0  0999 V2000
   28.5959  -21.6194  -15.9072 N   0  0  0  0  0  0  0  0  0  0  0  0
   28.1083  -20.4660  -15.1821 C   0  0  1  0  0  0  0  0  0  0  0  0
   27.5302  -19.4577  -16.1497 C   0  0  0  0  0  0  0  0  0  0  0  0
   27.2301  -17.9299  -15.1885 S   0  0  0  0  0  0  0  0  0  0  0  0
   27.1179  -20.9123  -14.1810 C   0  0  0  0  0  0  0  0  0  0  0  0
   26.3320  -21.8452  -14.4713 O   0  0  0  0  0  0  0  0  0  0  0  0
   27.7774  -20.7264   -7.5181 C   0  0  0  0  0  0  0  0  0  0  0  0
   26.1720  -19.9156   -7.8778 S   0  0  0  0  0  0  0  0  0  0  0  0
   25.5634  -20.6226   -9.4222 C   0  0  0  0  0  0  0  0  0  0  0  0
   26.3791  -20.2632  -10.6029 C   0  0  0  0  0  0  0  0  0  0  0  0
   25.9767  -20.8112  -11.9203 C   0  0  2  0  0  0  0  0  0  0  0  0
   26.9993  -20.3399  -12.8880 N   0  0  0  0  0  0  0  0  0  0  0  0
   24.6381  -20.4868  -12.3996 C   0  0  0  0  0  0  0  0  0  0  0  0
   24.4167  -19.2784  -12.7343 O   0  0  0  0  0  0  0  0  0  0  0  0
   23.0948  -24.5700  -14.5079 N   0  0  0  0  0  0  0  0  0  0  0  0
   23.1348  -23.5822  -15.5226 C   0  0  0  0  0  0  0  0  0  0  0  0
   23.7118  -23.9186  -16.6039 O   0  0  0  0  0  0  0  0  0  0  0  0
   22.5341  -22.2780  -15.3035 C   0  0  0  0  0  0  0  0  0  0  0  0
   21.8245  -22.0191  -14.0458 C   0  0  0  0  0  0  0  0  0  0  0  0
   22.2629  -20.9307  -13.1430 C   0  0  2  0  0  0  0  0  0  0  0  0
   23.5609  -21.3672  -12.5349 N   0  0  0  0  0  0  0  0  0  0  0  0
   21.3726  -20.7320  -11.9982 C   0  0  0  0  0  0  0  0  0  0  0  0
   21.6799  -21.0943  -10.8072 O   0  0  0  0  0  0  0  0  0  0  0  0
   20.1311  -20.1378  -12.1117 O   0  0  0  0  0  0  0  0  0  0  0  0
  2  1  1  6
  3  2  1  0
  3  4  1  0
  5  6  2  0
  5  2  1  0
  7  8  1  0
  9  8  1  0
  9 10  1  0
 11 10  1  1
 11 13  1  0
 11 12  1  0
 12  5  1  0
 13 21  1  0
 14 13  2  0
 16 15  1  0
 16 17  2  0
 18 16  1  0
 20 19  1  6
 19 18  1  0
 20 22  1  0
 21 20  1  0
 22 23  2  0
 22 24  1  0
M  END
$$$$
