CMQ.pdb
     RDKit          3D

 24 23  0  0  1  0  0  0  0  0999 V2000
   22.4043  -14.2029  -20.2134 N   0  0  0  0  0  0  0  0  0  0  0  0
   22.5575  -12.7809  -20.4333 C   0  0  1  0  0  0  0  0  0  0  0  0
   21.4305  -12.2713  -21.3035 C   0  0  0  0  0  0  0  0  0  0  0  0
   21.8439  -12.7507  -23.0203 S   0  0  0  0  0  0  0  0  0  0  0  0
   22.6078  -12.0961  -19.1253 C   0  0  0  0  0  0  0  0  0  0  0  0
   21.7875  -12.4187  -18.2335 O   0  0  0  0  0  0  0  0  0  0  0  0
   27.3956  -11.7899  -15.3425 C   0  0  0  0  0  0  0  0  0  0  0  0
   26.9904  -10.0058  -15.2132 S   0  0  0  0  0  0  0  0  0  0  0  0
   25.2654   -9.8240  -15.7099 C   0  0  0  0  0  0  0  0  0  0  0  0
   24.9395  -10.4985  -16.9855 C   0  0  0  0  0  0  0  0  0  0  0  0
   23.5470  -10.4067  -17.4860 C   0  0  2  0  0  0  0  0  0  0  0  0
   23.5443  -11.0775  -18.8105 N   0  0  0  0  0  0  0  0  0  0  0  0
   22.9598   -9.0760  -17.5910 C   0  0  0  0  0  0  0  0  0  0  0  0
   23.3945   -8.3194  -18.5184 O   0  0  0  0  0  0  0  0  0  0  0  0
   17.1579   -7.2410  -16.1834 N   0  0  0  0  0  0  0  0  0  0  0  0
   17.7913   -5.9923  -16.3988 C   0  0  0  0  0  0  0  0  0  0  0  0
   17.0400   -4.9692  -16.3347 O   0  0  0  0  0  0  0  0  0  0  0  0
   19.2174   -5.9275  -16.6667 C   0  0  0  0  0  0  0  0  0  0  0  0
   19.9981   -7.1693  -16.6911 C   0  0  0  0  0  0  0  0  0  0  0  0
   21.4492   -7.1419  -16.9839 C   0  0  2  0  0  0  0  0  0  0  0  0
   21.9602   -8.5352  -16.7773 N   0  0  0  0  0  0  0  0  0  0  0  0
   22.2166   -6.3284  -16.0394 C   0  0  0  0  0  0  0  0  0  0  0  0
   22.5124   -5.1003  -16.2598 O   0  0  0  0  0  0  0  0  0  0  0  0
   22.6821   -6.8206  -14.8359 O   0  0  0  0  0  0  0  0  0  0  0  0
  2  1  1  1
  3  2  1  0
  3  4  1  0
  5  6  2  0
  5  2  1  0
  7  8  1  0
  9  8  1  0
  9 10  1  0
 11 10  1  6
 11 13  1  0
 11 12  1  0
 12  5  1  0
 13 21  1  0
 14 13  2  0
 16 15  1  0
 16 17  2  0
 18 16  1  0
 20 19  1  1
 19 18  1  0
 20 22  1  0
 21 20  1  0
 22 23  2  0
 22 24  1  0
M  END
$$$$
