CMQ.pdb
     RDKit          3D

 24 23  0  0  1  0  0  0  0  0999 V2000
   16.6379  -26.0293   -8.1625 N   0  0  0  0  0  0  0  0  0  0  0  0
   16.5144  -25.1072   -7.0541 C   0  0  1  0  0  0  0  0  0  0  0  0
   15.2532  -24.2867   -7.2067 C   0  0  0  0  0  0  0  0  0  0  0  0
   15.6927  -22.8497   -8.2507 S   0  0  0  0  0  0  0  0  0  0  0  0
   16.5354  -25.8711   -5.7900 C   0  0  0  0  0  0  0  0  0  0  0  0
   15.7463  -26.8346   -5.6440 O   0  0  0  0  0  0  0  0  0  0  0  0
   20.0180  -28.8858    0.2073 C   0  0  0  0  0  0  0  0  0  0  0  0
   19.8507  -28.3126   -1.5270 S   0  0  0  0  0  0  0  0  0  0  0  0
   18.9216  -26.7667   -1.4796 C   0  0  0  0  0  0  0  0  0  0  0  0
   18.6974  -26.1664   -2.8129 C   0  0  0  0  0  0  0  0  0  0  0  0
   17.3690  -26.3498   -3.4449 C   0  0  2  0  0  0  0  0  0  0  0  0
   17.4093  -25.5764   -4.7115 N   0  0  0  0  0  0  0  0  0  0  0  0
   16.1974  -25.9768   -2.6606 C   0  0  0  0  0  0  0  0  0  0  0  0
   15.9866  -24.7334   -2.4846 O   0  0  0  0  0  0  0  0  0  0  0  0
   13.0322  -27.9207   -4.3227 N   0  0  0  0  0  0  0  0  0  0  0  0
   12.0785  -26.9492   -3.9309 C   0  0  0  0  0  0  0  0  0  0  0  0
   11.3052  -26.5276   -4.8473 O   0  0  0  0  0  0  0  0  0  0  0  0
   12.0160  -26.4938   -2.5530 C   0  0  0  0  0  0  0  0  0  0  0  0
   12.9426  -27.0632   -1.5684 C   0  0  0  0  0  0  0  0  0  0  0  0
   14.1758  -26.3384   -1.1864 C   0  0  2  0  0  0  0  0  0  0  0  0
   15.2700  -26.8441   -2.0764 N   0  0  0  0  0  0  0  0  0  0  0  0
   14.6353  -26.6485    0.1684 C   0  0  0  0  0  0  0  0  0  0  0  0
   15.4099  -27.6361    0.4310 O   0  0  0  0  0  0  0  0  0  0  0  0
   14.2703  -25.9005    1.2705 O   0  0  0  0  0  0  0  0  0  0  0  0
  2  1  1  6
  3  2  1  0
  3  4  1  0
  5  6  2  0
  5  2  1  0
  7  8  1  0
  9  8  1  0
  9 10  1  0
 11 10  1  1
 11 13  1  0
 11 12  1  0
 12  5  1  0
 13 21  1  0
 14 13  2  0
 16 15  1  0
 16 17  2  0
 18 16  1  0
 20 19  1  6
 19 18  1  0
 20 22  1  0
 21 20  1  0
 22 23  2  0
 22 24  1  0
M  END
$$$$
