CMQ.pdb
     RDKit          3D

 24 23  0  0  1  0  0  0  0  0999 V2000
   19.3657  -13.5897  -17.3890 N   0  0  0  0  0  0  0  0  0  0  0  0
   19.4270  -12.2003  -17.7886 C   0  0  1  0  0  0  0  0  0  0  0  0
   18.0391  -11.5999  -17.7745 C   0  0  0  0  0  0  0  0  0  0  0  0
   17.3204  -11.9942  -16.1387 S   0  0  0  0  0  0  0  0  0  0  0  0
   20.3558  -11.4836  -16.8909 C   0  0  0  0  0  0  0  0  0  0  0  0
   20.2528  -11.6414  -15.6512 O   0  0  0  0  0  0  0  0  0  0  0  0
   26.9906  -11.0326  -14.6926 C   0  0  0  0  0  0  0  0  0  0  0  0
   26.3386  -10.2940  -16.2397 S   0  0  0  0  0  0  0  0  0  0  0  0
   24.6943   -9.6547  -15.8616 C   0  0  0  0  0  0  0  0  0  0  0  0
   23.6159  -10.2779  -16.6596 C   0  0  0  0  0  0  0  0  0  0  0  0
   22.2223   -9.8374  -16.4115 C   0  0  2  0  0  0  0  0  0  0  0  0
   21.3755  -10.6119  -17.3535 N   0  0  0  0  0  0  0  0  0  0  0  0
   21.9396   -8.4118  -16.5311 C   0  0  0  0  0  0  0  0  0  0  0  0
   21.8255   -7.9377  -17.7074 O   0  0  0  0  0  0  0  0  0  0  0  0
   17.1309   -5.8004  -16.3022 N   0  0  0  0  0  0  0  0  0  0  0  0
   17.8724   -4.6115  -16.0933 C   0  0  0  0  0  0  0  0  0  0  0  0
   17.2000   -3.5332  -16.0709 O   0  0  0  0  0  0  0  0  0  0  0  0
   19.3126   -4.6651  -15.9125 C   0  0  0  0  0  0  0  0  0  0  0  0
   19.9833   -5.9698  -15.8923 C   0  0  0  0  0  0  0  0  0  0  0  0
   21.4535   -6.0595  -15.7426 C   0  0  2  0  0  0  0  0  0  0  0  0
   21.7766   -7.4997  -15.4845 N   0  0  0  0  0  0  0  0  0  0  0  0
   21.9609   -5.3552  -14.5639 C   0  0  0  0  0  0  0  0  0  0  0  0
   22.3425   -5.9631  -13.5014 O   0  0  0  0  0  0  0  0  0  0  0  0
   22.0689   -3.9796  -14.5046 O   0  0  0  0  0  0  0  0  0  0  0  0
  2  1  1  1
  3  2  1  0
  3  4  1  0
  5  6  2  0
  5  2  1  0
  7  8  1  0
  9  8  1  0
  9 10  1  0
 11 10  1  6
 11 13  1  0
 11 12  1  0
 12  5  1  0
 13 21  1  0
 14 13  2  0
 16 15  1  0
 16 17  2  0
 18 16  1  0
 20 19  1  1
 19 18  1  0
 20 22  1  0
 21 20  1  0
 22 23  2  0
 22 24  1  0
M  END
$$$$
