CMQ.pdb
     RDKit          3D

 24 23  0  0  1  0  0  0  0  0999 V2000
   20.8681  -21.7051  -14.8794 N   0  0  0  0  0  0  0  0  0  0  0  0
   20.7033  -20.7018  -13.8497 C   0  0  1  0  0  0  0  0  0  0  0  0
   19.3047  -20.1295  -13.9094 C   0  0  0  0  0  0  0  0  0  0  0  0
   18.3565  -21.1964  -15.0543 S   0  0  0  0  0  0  0  0  0  0  0  0
   21.0041  -21.3083  -12.5368 C   0  0  0  0  0  0  0  0  0  0  0  0
   20.7403  -22.5194  -12.3471 O   0  0  0  0  0  0  0  0  0  0  0  0
   25.4889  -20.7337   -6.1009 C   0  0  0  0  0  0  0  0  0  0  0  0
   24.9150  -19.9477   -7.6556 S   0  0  0  0  0  0  0  0  0  0  0  0
   23.5025  -20.9080   -8.2367 C   0  0  0  0  0  0  0  0  0  0  0  0
   22.9931  -20.4771   -9.5570 C   0  0  0  0  0  0  0  0  0  0  0  0
   21.8781  -21.2471  -10.1586 C   0  0  2  0  0  0  0  0  0  0  0  0
   21.5837  -20.5917  -11.4578 N   0  0  0  0  0  0  0  0  0  0  0  0
   20.6578  -21.3834   -9.3718 C   0  0  0  0  0  0  0  0  0  0  0  0
   19.6950  -20.5981   -9.6503 O   0  0  0  0  0  0  0  0  0  0  0  0
   17.9043  -25.3018  -11.4420 N   0  0  0  0  0  0  0  0  0  0  0  0
   17.0499  -25.2371  -10.3139 C   0  0  0  0  0  0  0  0  0  0  0  0
   15.9943  -25.9424  -10.3745 O   0  0  0  0  0  0  0  0  0  0  0  0
   17.3990  -24.4081   -9.1734 C   0  0  0  0  0  0  0  0  0  0  0  0
   18.6574  -23.6543   -9.1952 C   0  0  0  0  0  0  0  0  0  0  0  0
   19.0530  -22.8143   -8.0420 C   0  0  2  0  0  0  0  0  0  0  0  0
   20.4266  -22.2927   -8.3357 N   0  0  0  0  0  0  0  0  0  0  0  0
   19.2087  -23.5712   -6.7987 C   0  0  0  0  0  0  0  0  0  0  0  0
   20.3488  -23.9608   -6.3599 O   0  0  0  0  0  0  0  0  0  0  0  0
   18.1385  -23.9247   -6.0005 O   0  0  0  0  0  0  0  0  0  0  0  0
  2  1  1  6
  3  2  1  0
  3  4  1  0
  5  6  2  0
  5  2  1  0
  7  8  1  0
  9  8  1  0
  9 10  1  0
 11 10  1  1
 11 13  1  0
 11 12  1  0
 12  5  1  0
 13 21  1  0
 14 13  2  0
 16 15  1  0
 16 17  2  0
 18 16  1  0
 20 19  1  6
 19 18  1  0
 20 22  1  0
 21 20  1  0
 22 23  2  0
 22 24  1  0
M  END
$$$$
