CMQ.pdb
     RDKit          3D

 24 23  0  0  1  0  0  0  0  0999 V2000
   28.5819  -21.1140  -14.7145 N   0  0  0  0  0  0  0  0  0  0  0  0
   28.1596  -20.0423  -13.8386 C   0  0  1  0  0  0  0  0  0  0  0  0
   27.3392  -19.0371  -14.6155 C   0  0  0  0  0  0  0  0  0  0  0  0
   28.5322  -17.9405  -15.4653 S   0  0  0  0  0  0  0  0  0  0  0  0
   27.4103  -20.6180  -12.7032 C   0  0  0  0  0  0  0  0  0  0  0  0
   26.7141  -21.6446  -12.8868 O   0  0  0  0  0  0  0  0  0  0  0  0
   26.2365  -20.3744   -4.8791 C   0  0  0  0  0  0  0  0  0  0  0  0
   27.1095  -19.6584   -6.3246 S   0  0  0  0  0  0  0  0  0  0  0  0
   26.3730  -20.3949   -7.7978 C   0  0  0  0  0  0  0  0  0  0  0  0
   27.0597  -20.0245   -9.0546 C   0  0  0  0  0  0  0  0  0  0  0  0
   26.5351  -20.5805  -10.3249 C   0  0  2  0  0  0  0  0  0  0  0  0
   27.4304  -20.0708  -11.3940 N   0  0  0  0  0  0  0  0  0  0  0  0
   25.1424  -20.2997  -10.6538 C   0  0  0  0  0  0  0  0  0  0  0  0
   24.8782  -19.1508  -11.1350 O   0  0  0  0  0  0  0  0  0  0  0  0
   24.3047  -23.8976  -13.4813 N   0  0  0  0  0  0  0  0  0  0  0  0
   23.5664  -22.9356  -14.2137 C   0  0  0  0  0  0  0  0  0  0  0  0
   23.7416  -22.9405  -15.4725 O   0  0  0  0  0  0  0  0  0  0  0  0
   22.6682  -22.0213  -13.5302 C   0  0  0  0  0  0  0  0  0  0  0  0
   22.5250  -22.1145  -12.0731 C   0  0  0  0  0  0  0  0  0  0  0  0
   22.7596  -20.9308  -11.2153 C   0  0  2  0  0  0  0  0  0  0  0  0
   24.0547  -21.1638  -10.4987 N   0  0  0  0  0  0  0  0  0  0  0  0
   21.7719  -20.7847  -10.1449 C   0  0  0  0  0  0  0  0  0  0  0  0
   22.0269  -21.0663   -8.9202 O   0  0  0  0  0  0  0  0  0  0  0  0
   20.4871  -20.3311  -10.3708 O   0  0  0  0  0  0  0  0  0  0  0  0
  2  1  1  6
  3  2  1  0
  3  4  1  0
  5  6  2  0
  5  2  1  0
  7  8  1  0
  9  8  1  0
  9 10  1  0
 11 10  1  1
 11 13  1  0
 11 12  1  0
 12  5  1  0
 13 21  1  0
 14 13  2  0
 16 15  1  0
 16 17  2  0
 18 16  1  0
 20 19  1  6
 19 18  1  0
 20 22  1  0
 21 20  1  0
 22 23  2  0
 22 24  1  0
M  END
$$$$
