SEQ.pdb
     RDKit          3D

 25 24  0  0  1  0  0  0  0  0999 V2000
    8.7796  -12.2272   18.4720 O   0  0  0  0  0  0  0  0  0  0  0  0
    8.4969  -12.9593   19.6413 C   0  0  0  0  0  0  0  0  0  0  0  0
    8.5483  -14.4290   19.2596 C   0  0  2  0  0  0  0  0  0  0  0  0
    7.4122  -14.8087   18.4519 N   0  0  0  0  0  0  0  0  0  0  0  0
    8.7030  -15.2379   20.4925 C   0  0  0  0  0  0  0  0  0  0  0  0
    7.6618  -15.5415   21.1652 O   0  0  0  0  0  0  0  0  0  0  0  0
    9.9489  -15.7009   20.9793 N   0  0  0  0  0  0  0  0  0  0  0  0
    9.9496  -16.4938   22.2218 C   0  0  1  0  0  0  0  0  0  0  0  0
   11.2168  -17.3525   22.0945 C   0  0  0  0  0  0  0  0  0  0  0  0
   10.8986  -18.4158   21.0600 C   0  0  0  0  0  0  0  0  0  0  0  0
   12.0312  -19.3592   20.8618 C   0  0  0  0  0  0  0  0  0  0  0  0
   12.2452  -19.9761   19.7894 O   0  0  0  0  0  0  0  0  0  0  0  0
   10.0180  -15.6412   23.4152 C   0  0  0  0  0  0  0  0  0  0  0  0
   10.9826  -14.8734   23.5906 O   0  0  0  0  0  0  0  0  0  0  0  0
   12.8822  -19.5511   21.9380 O   0  0  0  0  0  0  0  0  0  0  0  0
    5.1937  -12.7461   25.9662 N   0  0  0  0  0  0  0  0  0  0  0  0
    6.2714  -12.4168   26.8469 C   0  0  0  0  0  0  0  0  0  0  0  0
    6.1524  -11.5502   27.7120 O   0  0  0  0  0  0  0  0  0  0  0  0
    7.5761  -13.1387   26.7214 C   0  0  0  0  0  0  0  0  0  0  0  0
    7.5860  -14.0845   25.5566 C   0  0  0  0  0  0  0  0  0  0  0  0
    8.9322  -14.8385   25.5637 C   0  0  2  0  0  0  0  0  0  0  0  0
    8.9678  -15.6930   24.3684 N   0  0  0  0  0  0  0  0  0  0  0  0
    9.1153  -15.6022   26.7819 C   0  0  0  0  0  0  0  0  0  0  0  0
    9.6121  -14.9068   27.9164 O   0  0  0  0  0  0  0  0  0  0  0  0
    8.8900  -16.8178   26.9671 O   0  0  0  0  0  0  0  0  0  0  0  0
  1  2  1  0
  2  3  1  0
  3  5  1  0
  3  4  1  1
  5  6  2  0
  7  8  1  0
  7  5  1  0
  8  9  1  6
  9 10  1  0
 10 11  1  0
 11 12  2  0
 11 15  1  0
 13  8  1  0
 14 13  2  0
 16 17  1  0
 17 19  1  0
 18 17  2  0
 19 20  1  0
 21 20  1  1
 21 23  1  0
 21 22  1  0
 22 13  1  0
 23 24  1  0
 25 23  2  0
M  END
$$$$
