SEQ.pdb
     RDKit          3D

 25 24  0  0  1  0  0  0  0  0999 V2000
    9.9011  -16.1111   14.5374 O   0  0  0  0  0  0  0  0  0  0  0  0
    9.7009  -14.7210   14.6416 C   0  0  0  0  0  0  0  0  0  0  0  0
    8.5085  -14.5193   15.5611 C   0  0  2  0  0  0  0  0  0  0  0  0
    8.1278  -13.1278   15.6408 N   0  0  0  0  0  0  0  0  0  0  0  0
    8.8099  -15.1333   16.8766 C   0  0  0  0  0  0  0  0  0  0  0  0
    9.5204  -14.4816   17.7128 O   0  0  0  0  0  0  0  0  0  0  0  0
    8.3551  -16.4147   17.2701 N   0  0  0  0  0  0  0  0  0  0  0  0
    8.6169  -16.8410   18.6566 C   0  0  1  0  0  0  0  0  0  0  0  0
    7.7840  -18.1240   18.7970 C   0  0  0  0  0  0  0  0  0  0  0  0
    8.0381  -18.6349   20.2029 C   0  0  0  0  0  0  0  0  0  0  0  0
    7.3453  -19.9253   20.4621 C   0  0  0  0  0  0  0  0  0  0  0  0
    7.9073  -21.0455   20.3880 O   0  0  0  0  0  0  0  0  0  0  0  0
   10.0406  -17.1189   18.8842 C   0  0  0  0  0  0  0  0  0  0  0  0
   10.7215  -17.6908   18.0126 O   0  0  0  0  0  0  0  0  0  0  0  0
    6.0036  -19.8589   20.8007 O   0  0  0  0  0  0  0  0  0  0  0  0
   15.9686  -14.7424   17.8799 N   0  0  0  0  0  0  0  0  0  0  0  0
   14.7029  -14.4797   18.4919 C   0  0  0  0  0  0  0  0  0  0  0  0
   14.0871  -13.4375   18.2725 O   0  0  0  0  0  0  0  0  0  0  0  0
   14.1061  -15.4904   19.4201 C   0  0  0  0  0  0  0  0  0  0  0  0
   12.6147  -15.5734   19.2778 C   0  0  0  0  0  0  0  0  0  0  0  0
   12.0950  -16.6183   20.2871 C   0  0  2  0  0  0  0  0  0  0  0  0
   10.6399  -16.7219   20.1080 N   0  0  0  0  0  0  0  0  0  0  0  0
   12.4505  -16.2744   21.6495 C   0  0  0  0  0  0  0  0  0  0  0  0
   13.8220  -16.3682   22.0068 O   0  0  0  0  0  0  0  0  0  0  0  0
   11.6916  -15.9001   22.5698 O   0  0  0  0  0  0  0  0  0  0  0  0
  1  2  1  0
  2  3  1  0
  3  5  1  0
  3  4  1  1
  5  6  2  0
  7  8  1  0
  7  5  1  0
  8  9  1  6
  9 10  1  0
 10 11  1  0
 11 12  2  0
 11 15  1  0
 13  8  1  0
 14 13  2  0
 16 17  1  0
 17 19  1  0
 18 17  2  0
 19 20  1  0
 21 20  1  6
 21 23  1  0
 21 22  1  0
 22 13  1  0
 23 24  1  0
 25 23  2  0
M  END
$$$$
