SEQ.pdb
     RDKit          3D

 25 24  0  0  1  0  0  0  0  0999 V2000
    7.6788  -13.0289   20.0842 O   0  0  0  0  0  0  0  0  0  0  0  0
    7.1821  -13.4822   18.8469 C   0  0  0  0  0  0  0  0  0  0  0  0
    8.3772  -13.6140   17.9183 C   0  0  2  0  0  0  0  0  0  0  0  0
    7.9899  -14.1202   16.6217 N   0  0  0  0  0  0  0  0  0  0  0  0
    9.4183  -14.4272   18.5915 C   0  0  0  0  0  0  0  0  0  0  0  0
    9.2542  -15.6899   18.6775 O   0  0  0  0  0  0  0  0  0  0  0  0
   10.5989  -13.8856   19.1541 N   0  0  0  0  0  0  0  0  0  0  0  0
   11.5327  -14.8135   19.8170 C   0  0  1  0  0  0  0  0  0  0  0  0
   12.9108  -14.2043   19.5183 C   0  0  0  0  0  0  0  0  0  0  0  0
   13.9292  -15.1885   20.0626 C   0  0  0  0  0  0  0  0  0  0  0  0
   15.3223  -14.6876   19.9190 C   0  0  0  0  0  0  0  0  0  0  0  0
   15.8830  -13.9374   20.7550 O   0  0  0  0  0  0  0  0  0  0  0  0
   11.2990  -14.8839   21.2648 C   0  0  0  0  0  0  0  0  0  0  0  0
   11.1605  -13.8438   21.9353 O   0  0  0  0  0  0  0  0  0  0  0  0
   16.0174  -15.0852   18.7886 O   0  0  0  0  0  0  0  0  0  0  0  0
    6.5804  -17.7901   24.2823 N   0  0  0  0  0  0  0  0  0  0  0  0
    7.8390  -18.2782   24.7549 C   0  0  0  0  0  0  0  0  0  0  0  0
    7.9532  -19.4080   25.2283 O   0  0  0  0  0  0  0  0  0  0  0  0
    9.0496  -17.4023   24.6743 C   0  0  0  0  0  0  0  0  0  0  0  0
    9.5315  -17.2373   23.2629 C   0  0  0  0  0  0  0  0  0  0  0  0
   10.7771  -16.3270   23.2858 C   0  0  2  0  0  0  0  0  0  0  0  0
   11.2241  -16.1526   21.8966 N   0  0  0  0  0  0  0  0  0  0  0  0
   11.8246  -16.8686   24.1285 C   0  0  0  0  0  0  0  0  0  0  0  0
   12.9341  -17.4724   23.4791 O   0  0  0  0  0  0  0  0  0  0  0  0
   11.8787  -16.8751   25.3775 O   0  0  0  0  0  0  0  0  0  0  0  0
  1  2  1  0
  2  3  1  0
  3  5  1  0
  3  4  1  6
  5  6  2  0
  7  8  1  0
  7  5  1  0
  8  9  1  1
  9 10  1  0
 10 11  1  0
 11 12  2  0
 11 15  1  0
 13  8  1  0
 14 13  2  0
 16 17  1  0
 17 19  1  0
 18 17  2  0
 19 20  1  0
 21 20  1  6
 21 23  1  0
 21 22  1  0
 22 13  1  0
 23 24  1  0
 25 23  2  0
M  END
$$$$
