SEQ.pdb
     RDKit          3D

 25 24  0  0  1  0  0  0  0  0999 V2000
    6.2242  -20.6189   22.8501 O   0  0  0  0  0  0  0  0  0  0  0  0
    6.6359  -21.0345   21.5691 C   0  0  0  0  0  0  0  0  0  0  0  0
    7.1460  -22.4581   21.7148 C   0  0  2  0  0  0  0  0  0  0  0  0
    6.1138  -23.3460   22.1980 N   0  0  0  0  0  0  0  0  0  0  0  0
    8.3663  -22.4447   22.5568 C   0  0  0  0  0  0  0  0  0  0  0  0
    8.2846  -22.8422   23.7668 O   0  0  0  0  0  0  0  0  0  0  0  0
    9.6340  -22.0123   22.0992 N   0  0  0  0  0  0  0  0  0  0  0  0
   10.7624  -22.0686   23.0459 C   0  0  1  0  0  0  0  0  0  0  0  0
   11.9816  -21.7589   22.1644 C   0  0  0  0  0  0  0  0  0  0  0  0
   13.1933  -21.8828   23.0691 C   0  0  0  0  0  0  0  0  0  0  0  0
   14.4636  -21.6237   22.3402 C   0  0  0  0  0  0  0  0  0  0  0  0
   15.5160  -22.2851   22.5168 O   0  0  0  0  0  0  0  0  0  0  0  0
   10.6291  -21.0723   24.1161 C   0  0  0  0  0  0  0  0  0  0  0  0
   10.1486  -19.9483   23.8789 O   0  0  0  0  0  0  0  0  0  0  0  0
   14.4582  -20.5871   21.4212 O   0  0  0  0  0  0  0  0  0  0  0  0
    6.6681  -20.0823   27.5641 N   0  0  0  0  0  0  0  0  0  0  0  0
    7.6446  -19.4039   28.3590 C   0  0  0  0  0  0  0  0  0  0  0  0
    7.3173  -18.6691   29.2899 O   0  0  0  0  0  0  0  0  0  0  0  0
    9.0992  -19.5874   28.0597 C   0  0  0  0  0  0  0  0  0  0  0  0
    9.3204  -20.4370   26.8428 C   0  0  0  0  0  0  0  0  0  0  0  0
   10.8392  -20.5143   26.5827 C   0  0  2  0  0  0  0  0  0  0  0  0
   11.0469  -21.4040   25.4314 N   0  0  0  0  0  0  0  0  0  0  0  0
   11.5639  -20.9653   27.7541 C   0  0  0  0  0  0  0  0  0  0  0  0
   12.0162  -19.9705   28.6615 O   0  0  0  0  0  0  0  0  0  0  0  0
   11.8498  -22.1392   28.0753 O   0  0  0  0  0  0  0  0  0  0  0  0
  1  2  1  0
  2  3  1  0
  3  5  1  0
  3  4  1  1
  5  6  2  0
  7  8  1  0
  7  5  1  0
  8  9  1  6
  9 10  1  0
 10 11  1  0
 11 12  2  0
 11 15  1  0
 13  8  1  0
 14 13  2  0
 16 17  1  0
 17 19  1  0
 18 17  2  0
 19 20  1  0
 21 20  1  1
 21 23  1  0
 21 22  1  0
 22 13  1  0
 23 24  1  0
 25 23  2  0
M  END
$$$$
