SEQ.pdb
     RDKit          3D

 25 24  0  0  1  0  0  0  0  0999 V2000
    7.8393  -16.9374   19.8670 O   0  0  0  0  0  0  0  0  0  0  0  0
    8.8161  -16.2165   20.5808 C   0  0  0  0  0  0  0  0  0  0  0  0
   10.1390  -16.9268   20.3495 C   0  0  2  0  0  0  0  0  0  0  0  0
   10.0664  -17.8342   19.2276 N   0  0  0  0  0  0  0  0  0  0  0  0
   10.5623  -17.5729   21.6151 C   0  0  0  0  0  0  0  0  0  0  0  0
   10.0261  -18.6813   21.9507 O   0  0  0  0  0  0  0  0  0  0  0  0
   11.5359  -17.0313   22.4883 N   0  0  0  0  0  0  0  0  0  0  0  0
   11.8781  -17.8007   23.6981 C   0  0  1  0  0  0  0  0  0  0  0  0
   13.3433  -17.4202   23.9586 C   0  0  0  0  0  0  0  0  0  0  0  0
   13.7794  -16.5953   22.7621 C   0  0  0  0  0  0  0  0  0  0  0  0
   14.9402  -15.7212   23.0795 C   0  0  0  0  0  0  0  0  0  0  0  0
   15.0324  -14.5242   22.7123 O   0  0  0  0  0  0  0  0  0  0  0  0
   11.0341  -17.4285   24.8404 C   0  0  0  0  0  0  0  0  0  0  0  0
   10.8999  -16.2341   25.1662 O   0  0  0  0  0  0  0  0  0  0  0  0
   15.9646  -16.2855   23.8220 O   0  0  0  0  0  0  0  0  0  0  0  0
    5.8827  -20.4451   24.1833 N   0  0  0  0  0  0  0  0  0  0  0  0
    6.6984  -20.3394   25.3534 C   0  0  0  0  0  0  0  0  0  0  0  0
    6.5742  -21.1204   26.2958 O   0  0  0  0  0  0  0  0  0  0  0  0
    7.7297  -19.2587   25.4410 C   0  0  0  0  0  0  0  0  0  0  0  0
    8.4085  -19.2360   26.7789 C   0  0  0  0  0  0  0  0  0  0  0  0
    9.5147  -18.1611   26.7362 C   0  0  2  0  0  0  0  0  0  0  0  0
   10.3629  -18.4443   25.5698 N   0  0  0  0  0  0  0  0  0  0  0  0
   10.2793  -18.1261   27.9670 C   0  0  0  0  0  0  0  0  0  0  0  0
    9.5873  -17.7590   29.1518 O   0  0  0  0  0  0  0  0  0  0  0  0
   11.4932  -18.3804   28.1242 O   0  0  0  0  0  0  0  0  0  0  0  0
  1  2  1  0
  2  3  1  0
  3  5  1  0
  3  4  1  6
  5  6  2  0
  7  8  1  0
  7  5  1  0
  8  9  1  1
  9 10  1  0
 10 11  1  0
 11 12  2  0
 11 15  1  0
 13  8  1  0
 14 13  2  0
 16 17  1  0
 17 19  1  0
 18 17  2  0
 19 20  1  0
 21 20  1  1
 21 23  1  0
 21 22  1  0
 22 13  1  0
 23 24  1  0
 25 23  2  0
M  END
$$$$
