CCS.pdb
     RDKit          3D

 19 18  0  0  1  0  0  0  0  0999 V2000
   20.2772  -12.5670  -17.6906 N   0  0  0  0  0  0  0  0  0  0  0  0
   20.7633  -11.2830  -18.1431 C   0  0  1  0  0  0  0  0  0  0  0  0
   19.6510  -10.5548  -18.8571 C   0  0  0  0  0  0  0  0  0  0  0  0
   19.0345  -11.6021  -20.1787 S   0  0  0  0  0  0  0  0  0  0  0  0
   21.2376  -10.4495  -17.0052 C   0  0  0  0  0  0  0  0  0  0  0  0
   20.5506  -10.2439  -15.9698 O   0  0  0  0  0  0  0  0  0  0  0  0
   22.5345   -9.8690  -17.1202 N   0  0  0  0  0  0  0  0  0  0  0  0
   23.1388   -9.0978  -16.0529 C   0  0  1  0  0  0  0  0  0  0  0  0
   24.6529   -9.1070  -16.1724 C   0  0  0  0  0  0  0  0  0  0  0  0
   25.2711  -10.5366  -15.2469 S   0  0  0  0  0  0  0  0  0  0  0  0
   22.6066   -7.7070  -16.1595 C   0  0  0  0  0  0  0  0  0  0  0  0
   22.5934   -7.0724  -17.2601 O   0  0  0  0  0  0  0  0  0  0  0  0
   19.6744   -4.4005  -14.6347 O   0  0  0  0  0  0  0  0  0  0  0  0
   20.2182   -5.6505  -14.4542 C   0  0  0  0  0  0  0  0  0  0  0  0
   21.5821   -5.6488  -15.1604 C   0  0  2  0  0  0  0  0  0  0  0  0
   22.0828   -7.0084  -15.0377 N   0  0  0  0  0  0  0  0  0  0  0  0
   22.4621   -4.6580  -14.5481 C   0  0  0  0  0  0  0  0  0  0  0  0
   23.1896   -4.9750  -13.5874 O   0  0  0  0  0  0  0  0  0  0  0  0
   22.5089   -3.3631  -15.0125 O   0  0  0  0  0  0  0  0  0  0  0  0
  2  3  1  0
  2  1  1  1
  3  4  1  0
  5  6  2  0
  5  2  1  0
  7  5  1  0
  8  7  1  0
  9 10  1  0
  8  9  1  6
 11 12  2  0
 11  8  1  0
 13 14  1  0
 15 14  1  1
 15 16  1  0
 16 11  1  0
 17 15  1  0
 18 17  2  0
 19 17  1  0
M  END
$$$$
