CCS.pdb
     RDKit          3D

 19 18  0  0  1  0  0  0  0  0999 V2000
   18.6775  -10.2857  -14.9201 N   0  0  0  0  0  0  0  0  0  0  0  0
   17.6370   -9.3149  -15.1741 C   0  0  1  0  0  0  0  0  0  0  0  0
   16.6716   -9.8761  -16.1892 C   0  0  0  0  0  0  0  0  0  0  0  0
   17.5305  -10.0667  -17.7544 S   0  0  0  0  0  0  0  0  0  0  0  0
   16.8926   -8.9779  -13.9304 C   0  0  0  0  0  0  0  0  0  0  0  0
   15.8521   -8.2682  -13.9223 O   0  0  0  0  0  0  0  0  0  0  0  0
   17.4043   -9.4966  -12.7051 N   0  0  0  0  0  0  0  0  0  0  0  0
   16.7203   -9.3208  -11.4401 C   0  0  1  0  0  0  0  0  0  0  0  0
   17.2003  -10.3405  -10.4220 C   0  0  0  0  0  0  0  0  0  0  0  0
   16.7819  -11.9873  -11.0505 S   0  0  0  0  0  0  0  0  0  0  0  0
   17.0064   -7.9313  -10.9749 C   0  0  0  0  0  0  0  0  0  0  0  0
   18.1615   -7.4116  -11.0730 O   0  0  0  0  0  0  0  0  0  0  0  0
   14.0198   -5.4154  -10.2065 O   0  0  0  0  0  0  0  0  0  0  0  0
   15.2369   -4.8572  -10.5189 C   0  0  0  0  0  0  0  0  0  0  0  0
   16.3137   -5.7691   -9.9123 C   0  0  2  0  0  0  0  0  0  0  0  0
   16.0051   -7.1057  -10.3944 N   0  0  0  0  0  0  0  0  0  0  0  0
   16.2938   -5.6677   -8.4561 C   0  0  0  0  0  0  0  0  0  0  0  0
   16.0343   -6.6696   -7.7620 O   0  0  0  0  0  0  0  0  0  0  0  0
   16.5583   -4.4754   -7.8214 O   0  0  0  0  0  0  0  0  0  0  0  0
  2  3  1  0
  2  1  1  1
  3  4  1  0
  5  6  2  0
  5  2  1  0
  7  5  1  0
  8  7  1  0
  9 10  1  0
  8  9  1  1
 11 12  2  0
 11  8  1  0
 13 14  1  0
 15 14  1  6
 15 16  1  0
 16 11  1  0
 17 15  1  0
 18 17  2  0
 19 17  1  0
M  END
$$$$
