CCS.pdb
     RDKit          3D

 19 18  0  0  1  0  0  0  0  0999 V2000
   12.9224  -11.7643   -9.7668 N   0  0  0  0  0  0  0  0  0  0  0  0
   13.4697  -10.7702  -10.6621 C   0  0  1  0  0  0  0  0  0  0  0  0
   12.5884  -10.6622  -11.8824 C   0  0  0  0  0  0  0  0  0  0  0  0
   12.7755  -12.1565  -12.8600 S   0  0  0  0  0  0  0  0  0  0  0  0
   13.5569   -9.4371  -10.0064 C   0  0  0  0  0  0  0  0  0  0  0  0
   12.7052   -9.0215   -9.1769 O   0  0  0  0  0  0  0  0  0  0  0  0
   14.6674   -8.6131  -10.3526 N   0  0  0  0  0  0  0  0  0  0  0  0
   14.8926   -7.3165   -9.7467 C   0  0  1  0  0  0  0  0  0  0  0  0
   15.6737   -7.4554   -8.4516 C   0  0  0  0  0  0  0  0  0  0  0  0
   16.0154   -5.7878   -7.8314 S   0  0  0  0  0  0  0  0  0  0  0  0
   15.6489   -6.4939  -10.7369 C   0  0  0  0  0  0  0  0  0  0  0  0
   16.7848   -6.8490  -11.1813 O   0  0  0  0  0  0  0  0  0  0  0  0
   15.5377   -3.2623  -14.1766 O   0  0  0  0  0  0  0  0  0  0  0  0
   14.8538   -3.9815  -13.2249 C   0  0  0  0  0  0  0  0  0  0  0  0
   15.8944   -4.4821  -12.2123 C   0  0  2  0  0  0  0  0  0  0  0  0
   15.1449   -5.2644  -11.2424 N   0  0  0  0  0  0  0  0  0  0  0  0
   16.5965   -3.3505  -11.6143 C   0  0  0  0  0  0  0  0  0  0  0  0
   17.4203   -2.6993  -12.2849 O   0  0  0  0  0  0  0  0  0  0  0  0
   16.3675   -2.9796  -10.3087 O   0  0  0  0  0  0  0  0  0  0  0  0
  2  3  1  0
  2  1  1  1
  3  4  1  0
  5  6  2  0
  5  2  1  0
  7  5  1  0
  8  7  1  0
  9 10  1  0
  8  9  1  1
 11 12  2  0
 11  8  1  0
 13 14  1  0
 15 14  1  6
 15 16  1  0
 16 11  1  0
 17 15  1  0
 18 17  2  0
 19 17  1  0
M  END
$$$$
