CCS.pdb
     RDKit          3D

 19 18  0  0  1  0  0  0  0  0999 V2000
   26.4283   -9.6525  -20.7454 N   0  0  0  0  0  0  0  0  0  0  0  0
   25.0826  -10.1749  -20.6686 C   0  0  1  0  0  0  0  0  0  0  0  0
   25.0731  -11.5978  -21.1713 C   0  0  0  0  0  0  0  0  0  0  0  0
   25.8124  -11.6339  -22.8071 S   0  0  0  0  0  0  0  0  0  0  0  0
   24.5686  -10.1497  -19.2723 C   0  0  0  0  0  0  0  0  0  0  0  0
   23.4356  -10.5942  -18.9481 O   0  0  0  0  0  0  0  0  0  0  0  0
   25.4203   -9.5900  -18.2755 N   0  0  0  0  0  0  0  0  0  0  0  0
   25.0091   -9.4437  -16.8940 C   0  0  1  0  0  0  0  0  0  0  0  0
   26.1582   -9.7624  -15.9534 C   0  0  0  0  0  0  0  0  0  0  0  0
   25.6087   -9.3959  -14.2664 S   0  0  0  0  0  0  0  0  0  0  0  0
   24.5548   -8.0325  -16.7175 C   0  0  0  0  0  0  0  0  0  0  0  0
   25.3187   -7.0441  -16.9488 O   0  0  0  0  0  0  0  0  0  0  0  0
   21.0905   -4.8591  -16.4434 O   0  0  0  0  0  0  0  0  0  0  0  0
   21.4795   -6.1581  -16.6712 C   0  0  0  0  0  0  0  0  0  0  0  0
   22.8531   -6.3344  -16.0071 C   0  0  2  0  0  0  0  0  0  0  0  0
   23.2413   -7.7088  -16.2805 N   0  0  0  0  0  0  0  0  0  0  0  0
   22.7614   -6.0392  -14.5803 C   0  0  0  0  0  0  0  0  0  0  0  0
   22.6024   -6.9625  -13.7587 O   0  0  0  0  0  0  0  0  0  0  0  0
   22.8475   -4.7474  -14.1133 O   0  0  0  0  0  0  0  0  0  0  0  0
  2  3  1  0
  2  1  1  1
  3  4  1  0
  5  6  2  0
  5  2  1  0
  7  5  1  0
  8  7  1  0
  9 10  1  0
  8  9  1  1
 11 12  2  0
 11  8  1  0
 13 14  1  0
 15 14  1  6
 15 16  1  0
 16 11  1  0
 17 15  1  0
 18 17  2  0
 19 17  1  0
M  END
$$$$
