CCS.pdb
     RDKit          3D

 19 18  0  0  1  0  0  0  0  0999 V2000
   18.2561  -12.4398  -15.4852 N   0  0  0  0  0  0  0  0  0  0  0  0
   18.9232  -11.4473  -16.2973 C   0  0  1  0  0  0  0  0  0  0  0  0
   18.1463  -11.2484  -17.5757 C   0  0  0  0  0  0  0  0  0  0  0  0
   18.3866  -12.6865  -18.6235 S   0  0  0  0  0  0  0  0  0  0  0  0
   19.0293  -10.1446  -15.5858 C   0  0  0  0  0  0  0  0  0  0  0  0
   18.1273   -9.6991  -14.8280 O   0  0  0  0  0  0  0  0  0  0  0  0
   20.2191   -9.3866  -15.7903 N   0  0  0  0  0  0  0  0  0  0  0  0
   20.4834   -8.1485  -15.0858 C   0  0  1  0  0  0  0  0  0  0  0  0
   21.9457   -8.0581  -14.6855 C   0  0  0  0  0  0  0  0  0  0  0  0
   22.1815   -6.4918  -13.8061 S   0  0  0  0  0  0  0  0  0  0  0  0
   20.1150   -7.0319  -16.0057 C   0  0  0  0  0  0  0  0  0  0  0  0
   20.4498   -7.0294  -17.2313 O   0  0  0  0  0  0  0  0  0  0  0  0
   17.1968   -3.7930  -17.4648 O   0  0  0  0  0  0  0  0  0  0  0  0
   17.5275   -4.8320  -16.6271 C   0  0  0  0  0  0  0  0  0  0  0  0
   19.0551   -4.8081  -16.4697 C   0  0  2  0  0  0  0  0  0  0  0  0
   19.3682   -5.9044  -15.5674 N   0  0  0  0  0  0  0  0  0  0  0  0
   19.4862   -3.5089  -15.9622 C   0  0  0  0  0  0  0  0  0  0  0  0
   19.9725   -3.4132  -14.8190 O   0  0  0  0  0  0  0  0  0  0  0  0
   19.3669   -2.3704  -16.7264 O   0  0  0  0  0  0  0  0  0  0  0  0
  2  3  1  0
  2  1  1  1
  3  4  1  0
  5  6  2  0
  5  2  1  0
  7  5  1  0
  8  7  1  0
  9 10  1  0
  8  9  1  6
 11 12  2  0
 11  8  1  0
 13 14  1  0
 15 14  1  1
 15 16  1  0
 16 11  1  0
 17 15  1  0
 18 17  2  0
 19 17  1  0
M  END
$$$$
