CCS.pdb
     RDKit          3D

 19 18  0  0  1  0  0  0  0  0999 V2000
   20.3094  -19.6090  -13.5036 N   0  0  0  0  0  0  0  0  0  0  0  0
   21.1988  -20.6771  -13.1065 C   0  0  1  0  0  0  0  0  0  0  0  0
   20.9431  -21.8846  -13.9749 C   0  0  0  0  0  0  0  0  0  0  0  0
   19.4634  -22.7131  -13.3851 S   0  0  0  0  0  0  0  0  0  0  0  0
   22.6252  -20.2751  -13.2415 C   0  0  0  0  0  0  0  0  0  0  0  0
   22.9908  -19.2225  -13.8284 O   0  0  0  0  0  0  0  0  0  0  0  0
   23.6022  -21.1416  -12.6697 N   0  0  0  0  0  0  0  0  0  0  0  0
   25.0157  -20.8239  -12.6643 C   0  0  1  0  0  0  0  0  0  0  0  0
   25.7338  -21.5811  -11.5607 C   0  0  0  0  0  0  0  0  0  0  0  0
   25.1470  -20.9324   -9.9741 S   0  0  0  0  0  0  0  0  0  0  0  0
   25.5562  -21.2000  -14.0042 C   0  0  0  0  0  0  0  0  0  0  0  0
   25.1735  -22.2453  -14.6166 O   0  0  0  0  0  0  0  0  0  0  0  0
   28.3518  -19.9282  -17.7129 O   0  0  0  0  0  0  0  0  0  0  0  0
   27.8400  -19.5872  -16.4831 C   0  0  0  0  0  0  0  0  0  0  0  0
   27.0562  -20.8058  -15.9736 C   0  0  2  0  0  0  0  0  0  0  0  0
   26.5308  -20.4128  -14.6760 N   0  0  0  0  0  0  0  0  0  0  0  0
   27.9314  -21.9723  -15.9067 C   0  0  0  0  0  0  0  0  0  0  0  0
   28.4846  -22.2794  -14.8333 O   0  0  0  0  0  0  0  0  0  0  0  0
   28.1640  -22.7528  -17.0163 O   0  0  0  0  0  0  0  0  0  0  0  0
  2  3  1  0
  2  1  1  6
  3  4  1  0
  5  6  2  0
  5  2  1  0
  7  5  1  0
  8  7  1  0
  9 10  1  0
  8  9  1  1
 11 12  2  0
 11  8  1  0
 13 14  1  0
 15 14  1  1
 15 16  1  0
 16 11  1  0
 17 15  1  0
 18 17  2  0
 19 17  1  0
M  END
$$$$
