REQ.pdb
     RDKit          3D

 30 29  0  0  1  0  0  0  0  0999 V2000
   19.4952  -13.3723    2.4338 N   0  0  0  0  0  0  0  0  0  0  0  0
   18.6897  -13.4394    3.6077 C   0  0  0  0  0  0  0  0  0  0  0  0
   18.8402  -12.5594    4.5283 N   0  0  0  0  0  0  0  0  0  0  0  0
   17.7310  -14.4792    3.7427 N   0  0  0  0  0  0  0  0  0  0  0  0
   17.4379  -15.3573    2.5928 C   0  0  0  0  0  0  0  0  0  0  0  0
   16.4135  -16.3617    2.9801 C   0  0  0  0  0  0  0  0  0  0  0  0
   16.0471  -17.3754    1.9809 C   0  0  0  0  0  0  0  0  0  0  0  0
   15.0446  -18.4129    2.3247 C   0  0  2  0  0  0  0  0  0  0  0  0
   13.6777  -18.0068    2.3280 N   0  0  0  0  0  0  0  0  0  0  0  0
   15.4467  -19.2454    3.4847 C   0  0  0  0  0  0  0  0  0  0  0  0
   14.8237  -19.0766    4.5849 O   0  0  0  0  0  0  0  0  0  0  0  0
   18.2774  -12.6425    5.4278 N   0  0  0  0  0  0  0  0  0  0  0  0
   16.4682  -20.2266    3.5046 C   0  0  2  0  0  0  0  0  0  0  0  0
   16.9221  -20.8797    4.6983 C   0  0  0  0  0  0  0  0  0  0  0  0
   17.5999  -22.1899    4.5545 C   0  0  0  0  0  0  0  0  0  0  0  0
   17.9731  -22.9500    5.7527 C   0  0  0  0  0  0  0  0  0  0  0  0
   18.6256  -24.2512    5.5275 O   0  0  0  0  0  0  0  0  0  0  0  0
   18.9635  -25.0146    6.4689 C   0  0  0  0  0  0  0  0  0  0  0  0
   17.5964  -19.9559    5.6457 O   0  0  0  0  0  0  0  0  0  0  0  0
   18.1182  -18.8718    5.3150 O   0  0  0  0  0  0  0  0  0  0  0  0
   18.9045  -24.7074    4.2383 N   0  0  0  0  0  0  0  0  0  0  0  0
   15.6428  -16.1207    8.1195 C   0  0  0  0  0  0  0  0  0  0  0  0
   16.7236  -16.0452    9.0728 O   0  0  0  0  0  0  0  0  0  0  0  0
   16.8195  -15.0589    9.8271 C   0  0  0  0  0  0  0  0  0  0  0  0
   17.6710  -17.1762    9.0875 C   0  0  0  0  0  0  0  0  0  0  0  0
   17.3555  -18.1899    8.0507 C   0  0  1  0  0  0  0  0  0  0  0  0
   18.2619  -19.3936    8.0190 N   0  0  0  0  0  0  0  0  0  0  0  0
   17.6708  -20.2959    7.0257 C   0  0  0  0  0  0  0  0  0  0  0  0
   18.2898  -20.0301    9.3575 O   0  0  0  0  0  0  0  0  0  0  0  0
   18.8817  -19.4410   10.4609 O   0  0  0  0  0  0  0  0  0  0  0  0
  2  3  2  0
  2  1  1  0
  4  2  1  0
  5  4  1  0
  6  5  1  0
  7  6  1  0
  8  7  1  0
  8  9  1  1
 10 11  2  0
 10  8  1  0
 12 10  1  0
 13 18  1  0
 13 12  1  0
 13 14  1  6
 15 14  1  0
 16 17  2  0
 16 15  1  0
 18 27  1  0
 19 18  2  0
 20 16  1  0
 22 24  1  0
 22 21  1  0
 23 22  2  0
 26 25  1  6
 25 24  1  0
 27 26  1  0
 28 26  1  0
 29 28  1  0
 30 28  2  0
M  END
$$$$
