REQ.pdb
     RDKit          3D

 30 29  0  0  1  0  0  0  0  0999 V2000
   29.6729  -10.6580  -16.8957 N   0  0  0  0  0  0  0  0  0  0  0  0
   29.5798  -12.0657  -17.0981 C   0  0  0  0  0  0  0  0  0  0  0  0
   30.4766  -12.6649  -17.7921 N   0  0  0  0  0  0  0  0  0  0  0  0
   28.4960  -12.7866  -16.5287 N   0  0  0  0  0  0  0  0  0  0  0  0
   27.4158  -12.0566  -15.8364 C   0  0  0  0  0  0  0  0  0  0  0  0
   26.7118  -11.1733  -16.8020 C   0  0  0  0  0  0  0  0  0  0  0  0
   25.5693  -10.3963  -16.3005 C   0  0  0  0  0  0  0  0  0  0  0  0
   24.2685  -11.0715  -16.0731 C   0  0  2  0  0  0  0  0  0  0  0  0
   24.0085  -12.2392  -16.8491 N   0  0  0  0  0  0  0  0  0  0  0  0
   23.1318  -10.1231  -15.9803 C   0  0  0  0  0  0  0  0  0  0  0  0
   23.2668   -8.9752  -16.5200 O   0  0  0  0  0  0  0  0  0  0  0  0
   30.3619  -13.6997  -18.0125 N   0  0  0  0  0  0  0  0  0  0  0  0
   21.8880  -10.3574  -15.3443 C   0  0  1  0  0  0  0  0  0  0  0  0
   20.8317   -9.3892  -15.2795 C   0  0  0  0  0  0  0  0  0  0  0  0
   19.4907   -9.8564  -14.8552 C   0  0  0  0  0  0  0  0  0  0  0  0
   18.9933  -11.1558  -15.3208 C   0  0  0  0  0  0  0  0  0  0  0  0
   17.6678  -11.5664  -14.8267 O   0  0  0  0  0  0  0  0  0  0  0  0
   16.9415  -10.8166  -14.1244 C   0  0  0  0  0  0  0  0  0  0  0  0
   21.2510   -8.1132  -14.6457 O   0  0  0  0  0  0  0  0  0  0  0  0
   22.2227   -8.0023  -13.8709 O   0  0  0  0  0  0  0  0  0  0  0  0
   17.1452  -12.8272  -15.1190 N   0  0  0  0  0  0  0  0  0  0  0  0
   24.5438   -5.2500  -16.8472 C   0  0  0  0  0  0  0  0  0  0  0  0
   24.2633   -4.1041  -16.0161 O   0  0  0  0  0  0  0  0  0  0  0  0
   25.0306   -3.1232  -16.0302 C   0  0  0  0  0  0  0  0  0  0  0  0
   23.0499   -4.1761  -15.1799 C   0  0  0  0  0  0  0  0  0  0  0  0
   22.3563   -5.4822  -15.3037 C   0  0  1  0  0  0  0  0  0  0  0  0
   21.0433   -5.5946  -14.5724 N   0  0  0  0  0  0  0  0  0  0  0  0
   20.5220   -6.9212  -14.9167 C   0  0  0  0  0  0  0  0  0  0  0  0
   20.1224   -4.5302  -15.0379 O   0  0  0  0  0  0  0  0  0  0  0  0
   20.0833   -3.2670  -14.4746 O   0  0  0  0  0  0  0  0  0  0  0  0
  2  3  2  0
  2  1  1  0
  4  2  1  0
  5  4  1  0
  6  5  1  0
  7  6  1  0
  8  7  1  0
  8  9  1  6
 10 11  2  0
 10  8  1  0
 12 10  1  0
 13 18  1  0
 13 12  1  0
 13 14  1  6
 15 14  1  0
 16 17  2  0
 16 15  1  0
 18 27  1  0
 19 18  2  0
 20 16  1  0
 22 24  1  0
 22 21  1  0
 23 22  2  0
 26 25  1  1
 25 24  1  0
 27 26  1  0
 28 26  1  0
 29 28  1  0
 30 28  2  0
M  END
$$$$
