REQ.pdb
     RDKit          3D

 30 29  0  0  1  0  0  0  0  0999 V2000
   18.0652  -16.2002  -15.1052 N   0  0  0  0  0  0  0  0  0  0  0  0
   16.8099  -16.1766  -15.7798 C   0  0  0  0  0  0  0  0  0  0  0  0
   16.3407  -17.2605  -16.2795 N   0  0  0  0  0  0  0  0  0  0  0  0
   16.0950  -14.9538  -15.8896 N   0  0  0  0  0  0  0  0  0  0  0  0
   16.8113  -13.7193  -16.2666 C   0  0  0  0  0  0  0  0  0  0  0  0
   17.6565  -13.2664  -15.1314 C   0  0  0  0  0  0  0  0  0  0  0  0
   17.2730  -12.0177  -14.4575 C   0  0  0  0  0  0  0  0  0  0  0  0
   17.5710  -10.7163  -15.1034 C   0  0  2  0  0  0  0  0  0  0  0  0
   18.4255  -10.7482  -16.2444 N   0  0  0  0  0  0  0  0  0  0  0  0
   17.8795   -9.6424  -14.1277 C   0  0  0  0  0  0  0  0  0  0  0  0
   17.1789   -9.5839  -13.0634 O   0  0  0  0  0  0  0  0  0  0  0  0
   15.3711  -17.2569  -16.7183 N   0  0  0  0  0  0  0  0  0  0  0  0
   18.8869   -8.6544  -14.2519 C   0  0  1  0  0  0  0  0  0  0  0  0
   19.1452   -7.6511  -13.2598 C   0  0  0  0  0  0  0  0  0  0  0  0
   20.3683   -6.8278  -13.4112 C   0  0  0  0  0  0  0  0  0  0  0  0
   20.7407   -5.8794  -12.3554 C   0  0  0  0  0  0  0  0  0  0  0  0
   21.9670   -5.0951  -12.5807 O   0  0  0  0  0  0  0  0  0  0  0  0
   23.0750   -5.4037  -12.0706 C   0  0  0  0  0  0  0  0  0  0  0  0
   17.9363   -6.8689  -12.8960 O   0  0  0  0  0  0  0  0  0  0  0  0
   17.1248   -6.4082  -13.7243 O   0  0  0  0  0  0  0  0  0  0  0  0
   21.9587   -3.9538  -13.3841 N   0  0  0  0  0  0  0  0  0  0  0  0
   15.0232   -7.8447   -7.7420 C   0  0  0  0  0  0  0  0  0  0  0  0
   14.3246   -6.6201   -8.0501 O   0  0  0  0  0  0  0  0  0  0  0  0
   13.3971   -6.2318   -7.3153 C   0  0  0  0  0  0  0  0  0  0  0  0
   14.7703   -5.8904   -9.2524 C   0  0  0  0  0  0  0  0  0  0  0  0
   15.9283   -6.5435   -9.9118 C   0  0  1  0  0  0  0  0  0  0  0  0
   16.4922   -5.8181  -11.1065 N   0  0  0  0  0  0  0  0  0  0  0  0
   17.6537   -6.6092  -11.5254 C   0  0  0  0  0  0  0  0  0  0  0  0
   16.9027   -4.4502  -10.7092 O   0  0  0  0  0  0  0  0  0  0  0  0
   16.0305   -3.3761  -10.6911 O   0  0  0  0  0  0  0  0  0  0  0  0
  2  3  2  0
  2  1  1  0
  4  2  1  0
  5  4  1  0
  6  5  1  0
  7  6  1  0
  8  7  1  0
  8  9  1  6
 10 11  2  0
 10  8  1  0
 12 10  1  0
 13 18  1  0
 13 12  1  0
 13 14  1  1
 15 14  1  0
 16 17  2  0
 16 15  1  0
 18 27  1  0
 19 18  2  0
 20 16  1  0
 22 24  1  0
 22 21  1  0
 23 22  2  0
 26 25  1  6
 25 24  1  0
 27 26  1  0
 28 26  1  0
 29 28  1  0
 30 28  2  0
M  END
$$$$
