REQ.pdb
     RDKit          3D

 30 29  0  0  1  0  0  0  0  0999 V2000
   27.7592  -17.3528  -16.3720 N   0  0  0  0  0  0  0  0  0  0  0  0
   28.4337  -17.7109  -17.5754 C   0  0  0  0  0  0  0  0  0  0  0  0
   28.6679  -16.8122  -18.4598 N   0  0  0  0  0  0  0  0  0  0  0  0
   28.8378  -19.0575  -17.7795 N   0  0  0  0  0  0  0  0  0  0  0  0
   28.4259  -20.0984  -16.8172 C   0  0  0  0  0  0  0  0  0  0  0  0
   27.1187  -20.6715  -17.2310 C   0  0  0  0  0  0  0  0  0  0  0  0
   26.0901  -20.8307  -16.1933 C   0  0  0  0  0  0  0  0  0  0  0  0
   26.2682  -21.8573  -15.1378 C   0  0  2  0  0  0  0  0  0  0  0  0
   26.5494  -23.1848  -15.5762 N   0  0  0  0  0  0  0  0  0  0  0  0
   25.2536  -21.7624  -14.0599 C   0  0  0  0  0  0  0  0  0  0  0  0
   24.2103  -22.4899  -14.1566 O   0  0  0  0  0  0  0  0  0  0  0  0
   29.1814  -17.0792  -19.3529 N   0  0  0  0  0  0  0  0  0  0  0  0
   25.3176  -20.9346  -12.9123 C   0  0  2  0  0  0  0  0  0  0  0  0
   24.2394  -20.7826  -11.9786 C   0  0  0  0  0  0  0  0  0  0  0  0
   24.5541  -20.2181  -10.6448 C   0  0  0  0  0  0  0  0  0  0  0  0
   24.9724  -21.1112   -9.5584 C   0  0  0  0  0  0  0  0  0  0  0  0
   25.8695  -20.5338   -8.5429 O   0  0  0  0  0  0  0  0  0  0  0  0
   26.1276  -19.3037   -8.4839 C   0  0  0  0  0  0  0  0  0  0  0  0
   23.0121  -20.2176  -12.5951 O   0  0  0  0  0  0  0  0  0  0  0  0
   23.0137  -19.4245  -13.5584 O   0  0  0  0  0  0  0  0  0  0  0  0
   26.4861  -21.3361   -7.5816 N   0  0  0  0  0  0  0  0  0  0  0  0
   20.7769  -22.5590  -16.3163 C   0  0  0  0  0  0  0  0  0  0  0  0
   19.5228  -21.8623  -16.1592 O   0  0  0  0  0  0  0  0  0  0  0  0
   18.6343  -21.9788  -17.0240 C   0  0  0  0  0  0  0  0  0  0  0  0
   19.3755  -21.0330  -14.9478 C   0  0  0  0  0  0  0  0  0  0  0  0
   20.5732  -21.0937  -14.0736 C   0  0  1  0  0  0  0  0  0  0  0  0
   20.4933  -20.2884  -12.8022 N   0  0  0  0  0  0  0  0  0  0  0  0
   21.7359  -20.5817  -12.0808 C   0  0  0  0  0  0  0  0  0  0  0  0
   19.3135  -20.7186  -12.0146 O   0  0  0  0  0  0  0  0  0  0  0  0
   18.0314  -20.2630  -12.2664 O   0  0  0  0  0  0  0  0  0  0  0  0
  2  3  2  0
  2  1  1  0
  4  2  1  0
  5  4  1  0
  6  5  1  0
  7  6  1  0
  8  7  1  0
  8  9  1  6
 10 11  2  0
 10  8  1  0
 12 10  1  0
 13 18  1  0
 13 12  1  0
 13 14  1  1
 15 14  1  0
 16 17  2  0
 16 15  1  0
 18 27  1  0
 19 18  2  0
 20 16  1  0
 22 24  1  0
 22 21  1  0
 23 22  2  0
 26 25  1  6
 25 24  1  0
 27 26  1  0
 28 26  1  0
 29 28  1  0
 30 28  2  0
M  END
$$$$
