REQ.pdb
     RDKit          3D

 30 29  0  0  1  0  0  0  0  0999 V2000
   25.2121  -20.2700  -11.2533 N   0  0  0  0  0  0  0  0  0  0  0  0
   26.5865  -20.5793  -11.0372 C   0  0  0  0  0  0  0  0  0  0  0  0
   26.9459  -21.1218   -9.9321 N   0  0  0  0  0  0  0  0  0  0  0  0
   27.5399  -20.2831  -12.0480 N   0  0  0  0  0  0  0  0  0  0  0  0
   27.1163  -19.5603  -13.2635 C   0  0  0  0  0  0  0  0  0  0  0  0
   27.3146  -20.4271  -14.4542 C   0  0  0  0  0  0  0  0  0  0  0  0
   26.4358  -21.5969  -14.5941 C   0  0  0  0  0  0  0  0  0  0  0  0
   25.4552  -21.6467  -15.7058 C   0  0  2  0  0  0  0  0  0  0  0  0
   25.9872  -21.6775  -17.0284 N   0  0  0  0  0  0  0  0  0  0  0  0
   24.3174  -20.7139  -15.5169 C   0  0  0  0  0  0  0  0  0  0  0  0
   23.8488  -20.5750  -14.3387 O   0  0  0  0  0  0  0  0  0  0  0  0
   27.9617  -21.4088   -9.7969 N   0  0  0  0  0  0  0  0  0  0  0  0
   23.6810  -19.9457  -16.5226 C   0  0  1  0  0  0  0  0  0  0  0  0
   22.6416  -18.9931  -16.2591 C   0  0  0  0  0  0  0  0  0  0  0  0
   22.8257  -17.6116  -16.7634 C   0  0  0  0  0  0  0  0  0  0  0  0
   21.7897  -16.6031  -16.5135 C   0  0  0  0  0  0  0  0  0  0  0  0
   21.9984  -15.2815  -17.1296 O   0  0  0  0  0  0  0  0  0  0  0  0
   22.2749  -15.1353  -18.3484 C   0  0  0  0  0  0  0  0  0  0  0  0
   21.2801  -19.5398  -16.4897 O   0  0  0  0  0  0  0  0  0  0  0  0
   20.9013  -20.0447  -17.5661 O   0  0  0  0  0  0  0  0  0  0  0  0
   21.8974  -14.1091  -16.3791 N   0  0  0  0  0  0  0  0  0  0  0  0
   18.1673  -22.2089  -12.1168 C   0  0  0  0  0  0  0  0  0  0  0  0
   19.3417  -21.3740  -12.0374 O   0  0  0  0  0  0  0  0  0  0  0  0
   20.0301  -21.3663  -10.9996 C   0  0  0  0  0  0  0  0  0  0  0  0
   19.6550  -20.5605  -13.2278 C   0  0  0  0  0  0  0  0  0  0  0  0
   18.6449  -20.7217  -14.3030 C   0  0  1  0  0  0  0  0  0  0  0  0
   18.9636  -20.0328  -15.6050 N   0  0  0  0  0  0  0  0  0  0  0  0
   20.3207  -19.5026  -15.4391 C   0  0  0  0  0  0  0  0  0  0  0  0
   17.9945  -18.9353  -15.8368 O   0  0  0  0  0  0  0  0  0  0  0  0
   16.6582  -19.1561  -16.1200 O   0  0  0  0  0  0  0  0  0  0  0  0
  2  3  2  0
  2  1  1  0
  4  2  1  0
  5  4  1  0
  6  5  1  0
  7  6  1  0
  8  7  1  0
  8  9  1  6
 10 11  2  0
 10  8  1  0
 12 10  1  0
 13 18  1  0
 13 12  1  0
 13 14  1  1
 15 14  1  0
 16 17  2  0
 16 15  1  0
 18 27  1  0
 19 18  2  0
 20 16  1  0
 22 24  1  0
 22 21  1  0
 23 22  2  0
 26 25  1  6
 25 24  1  0
 27 26  1  0
 28 26  1  0
 29 28  1  0
 30 28  2  0
M  END
$$$$
