HMD.pdb
     RDKit          3D

 27 27  0  0  1  0  0  0  0  0999 V2000
   19.8357  -13.7865  -16.8002 N   0  0  0  0  0  0  0  0  0  0  0  0
   19.7594  -12.4428  -17.3003 C   0  0  1  0  0  0  0  0  0  0  0  0
   18.3774  -11.9843  -17.6117 C   0  0  0  0  0  0  0  0  0  0  0  0
   17.6445  -12.8482  -18.5428 C   0  0  0  0  0  0  0  0  0  0  0  0
   16.7104  -13.8380  -18.3320 C   0  0  0  0  0  0  0  0  0  0  0  0
   16.3172  -14.3587  -19.4990 N   0  0  0  0  0  0  0  0  0  0  0  0
   16.9942  -13.7074  -20.4522 C   0  0  0  0  0  0  0  0  0  0  0  0
   17.8000  -12.7910  -19.8786 N   0  0  0  0  0  0  0  0  0  0  0  0
   20.4825  -11.4766  -16.4354 C   0  0  0  0  0  0  0  0  0  0  0  0
   20.2535  -11.4542  -15.1797 O   0  0  0  0  0  0  0  0  0  0  0  0
   26.6363  -11.4317  -14.4675 C   0  0  0  0  0  0  0  0  0  0  0  0
   26.3013   -9.9312  -15.3942 S   0  0  0  0  0  0  0  0  0  0  0  0
   24.5955   -9.3525  -15.2115 C   0  0  0  0  0  0  0  0  0  0  0  0
   23.6449  -10.1432  -16.0638 C   0  0  0  0  0  0  0  0  0  0  0  0
   22.2146   -9.7095  -15.9717 C   0  0  2  0  0  0  0  0  0  0  0  0
   21.4344  -10.5480  -16.8977 N   0  0  0  0  0  0  0  0  0  0  0  0
   21.9753   -8.2859  -16.2104 C   0  0  0  0  0  0  0  0  0  0  0  0
   22.1407   -7.8097  -17.3488 O   0  0  0  0  0  0  0  0  0  0  0  0
   21.5555   -7.4598  -15.1375 N   0  0  0  0  0  0  0  0  0  0  0  0
   21.2319   -6.0286  -15.3221 C   0  0  1  0  0  0  0  0  0  0  0  0
   19.8703   -5.7320  -14.7731 C   0  0  0  0  0  0  0  0  0  0  0  0
   19.5566   -4.3032  -14.9556 C   0  0  0  0  0  0  0  0  0  0  0  0
   20.1907   -3.4618  -14.2219 O   0  0  0  0  0  0  0  0  0  0  0  0
   22.2947   -5.2151  -14.6763 C   0  0  0  0  0  0  0  0  0  0  0  0
   22.7804   -5.5450  -13.5919 O   0  0  0  0  0  0  0  0  0  0  0  0
   18.6482   -3.7670  -15.8317 O   0  0  0  0  0  0  0  0  0  0  0  0
   22.7494   -4.0554  -15.3122 O   0  0  0  0  0  0  0  0  0  0  0  0
  2  1  1  1
  2  3  1  0
  2  9  1  0
  4  3  1  0
  4  5  2  0
  6  5  1  0
  7  6  1  0
  8  7  2  0
  8  4  1  0
  9 10  2  0
 12 11  1  0
 13 12  1  0
 15 14  1  6
 14 13  1  0
 16 15  1  0
 16  9  1  0
 17 18  2  0
 17 15  1  0
 19 17  1  0
 20 24  1  0
 20 19  1  0
 20 21  1  1
 22 23  2  0
 22 21  1  0
 24 27  1  0
 25 24  2  0
 26 22  1  0
M  END
$$$$
