HMD.pdb
     RDKit          3D

 27 27  0  0  1  0  0  0  0  0999 V2000
   18.8838  -12.8503  -17.4159 N   0  0  0  0  0  0  0  0  0  0  0  0
   18.9488  -11.4190  -17.5068 C   0  0  1  0  0  0  0  0  0  0  0  0
   17.6217  -10.7442  -17.4797 C   0  0  0  0  0  0  0  0  0  0  0  0
   16.6955  -11.1792  -18.5300 C   0  0  0  0  0  0  0  0  0  0  0  0
   16.8534  -12.0442  -19.5899 C   0  0  0  0  0  0  0  0  0  0  0  0
   15.7179  -12.1290  -20.2907 N   0  0  0  0  0  0  0  0  0  0  0  0
   14.8373  -11.3239  -19.6845 C   0  0  0  0  0  0  0  0  0  0  0  0
   15.4241  -10.7458  -18.6170 N   0  0  0  0  0  0  0  0  0  0  0  0
   19.8894  -10.8326  -16.5191 C   0  0  0  0  0  0  0  0  0  0  0  0
   20.3237  -11.5473  -15.5546 O   0  0  0  0  0  0  0  0  0  0  0  0
   26.6897  -10.4791  -14.5421 C   0  0  0  0  0  0  0  0  0  0  0  0
   25.2426  -10.7455  -15.5704 S   0  0  0  0  0  0  0  0  0  0  0  0
   23.8661   -9.6457  -15.1539 C   0  0  0  0  0  0  0  0  0  0  0  0
   22.6425   -9.9517  -15.9690 C   0  0  0  0  0  0  0  0  0  0  0  0
   21.4735   -9.0547  -15.7021 C   0  0  2  0  0  0  0  0  0  0  0  0
   20.3614   -9.5066  -16.5555 N   0  0  0  0  0  0  0  0  0  0  0  0
   21.7301   -7.6243  -15.8730 C   0  0  0  0  0  0  0  0  0  0  0  0
   22.1501   -7.1936  -16.9630 O   0  0  0  0  0  0  0  0  0  0  0  0
   21.4963   -6.7397  -14.7901 N   0  0  0  0  0  0  0  0  0  0  0  0
   21.3211   -5.2839  -14.9828 C   0  0  1  0  0  0  0  0  0  0  0  0
   19.9332   -4.8751  -14.5956 C   0  0  0  0  0  0  0  0  0  0  0  0
   19.7707   -3.4209  -14.7746 C   0  0  0  0  0  0  0  0  0  0  0  0
   20.4769   -2.8564  -15.6863 O   0  0  0  0  0  0  0  0  0  0  0  0
   22.3631   -4.5729  -14.1972 C   0  0  0  0  0  0  0  0  0  0  0  0
   22.5685   -3.3671  -14.3539 O   0  0  0  0  0  0  0  0  0  0  0  0
   18.9402   -2.5933  -14.0636 O   0  0  0  0  0  0  0  0  0  0  0  0
   23.1224   -5.2870  -13.2647 O   0  0  0  0  0  0  0  0  0  0  0  0
  2  1  1  1
  2  3  1  0
  2  9  1  0
  4  3  1  0
  4  5  2  0
  6  5  1  0
  7  6  1  0
  8  7  2  0
  8  4  1  0
  9 10  2  0
 12 11  1  0
 13 12  1  0
 15 14  1  6
 14 13  1  0
 16 15  1  0
 16  9  1  0
 17 18  2  0
 17 15  1  0
 19 17  1  0
 20 24  1  0
 20 19  1  0
 20 21  1  1
 22 23  2  0
 22 21  1  0
 24 27  1  0
 25 24  2  0
 26 22  1  0
M  END
$$$$
