HMD.pdb
     RDKit          3D

 27 27  0  0  1  0  0  0  0  0999 V2000
   20.6037  -12.5114  -16.2549 N   0  0  0  0  0  0  0  0  0  0  0  0
   19.8036  -11.3219  -16.3335 C   0  0  1  0  0  0  0  0  0  0  0  0
   18.4201  -11.4802  -15.8064 C   0  0  0  0  0  0  0  0  0  0  0  0
   17.6715  -12.5995  -16.3869 C   0  0  0  0  0  0  0  0  0  0  0  0
   17.1995  -13.7700  -15.8357 C   0  0  0  0  0  0  0  0  0  0  0  0
   16.5688  -14.4968  -16.7639 N   0  0  0  0  0  0  0  0  0  0  0  0
   16.6355  -13.7975  -17.9030 C   0  0  0  0  0  0  0  0  0  0  0  0
   17.3024  -12.6470  -17.6806 N   0  0  0  0  0  0  0  0  0  0  0  0
   20.4881  -10.1413  -15.7487 C   0  0  0  0  0  0  0  0  0  0  0  0
   20.4245   -9.9292  -14.4914 O   0  0  0  0  0  0  0  0  0  0  0  0
   26.5347  -10.4847  -14.3852 C   0  0  0  0  0  0  0  0  0  0  0  0
   25.7379   -9.2187  -15.3774 S   0  0  0  0  0  0  0  0  0  0  0  0
   23.9380   -9.1958  -15.1833 C   0  0  0  0  0  0  0  0  0  0  0  0
   23.3039   -8.1048  -15.9976 C   0  0  0  0  0  0  0  0  0  0  0  0
   21.8162   -8.0054  -15.8583 C   0  0  2  0  0  0  0  0  0  0  0  0
   21.2291   -9.2001  -16.4886 N   0  0  0  0  0  0  0  0  0  0  0  0
   21.2188   -6.7771  -16.3831 C   0  0  0  0  0  0  0  0  0  0  0  0
   21.1224   -6.6085  -17.6128 O   0  0  0  0  0  0  0  0  0  0  0  0
   20.7537   -5.7872  -15.4811 N   0  0  0  0  0  0  0  0  0  0  0  0
   20.2200   -4.4871  -15.9414 C   0  0  1  0  0  0  0  0  0  0  0  0
   18.9646   -4.1514  -15.1966 C   0  0  0  0  0  0  0  0  0  0  0  0
   17.8616   -5.0129  -15.6597 C   0  0  0  0  0  0  0  0  0  0  0  0
   17.7240   -5.1646  -16.9272 O   0  0  0  0  0  0  0  0  0  0  0  0
   21.2751   -3.4545  -15.7713 C   0  0  0  0  0  0  0  0  0  0  0  0
   22.3774   -3.7404  -15.2980 O   0  0  0  0  0  0  0  0  0  0  0  0
   16.9526   -5.6761  -14.8760 O   0  0  0  0  0  0  0  0  0  0  0  0
   21.0098   -2.1361  -16.1555 O   0  0  0  0  0  0  0  0  0  0  0  0
  2  1  1  1
  2  3  1  0
  2  9  1  0
  4  3  1  0
  4  5  2  0
  6  5  1  0
  7  6  1  0
  8  7  2  0
  8  4  1  0
  9 10  2  0
 12 11  1  0
 13 12  1  0
 15 14  1  6
 14 13  1  0
 16 15  1  0
 16  9  1  0
 17 18  2  0
 17 15  1  0
 19 17  1  0
 20 24  1  0
 20 19  1  0
 20 21  1  1
 22 23  2  0
 22 21  1  0
 24 27  1  0
 25 24  2  0
 26 22  1  0
M  END
$$$$
