HMD.pdb
     RDKit          3D

 27 27  0  0  1  0  0  0  0  0999 V2000
   28.2385  -20.5674  -14.9643 N   0  0  0  0  0  0  0  0  0  0  0  0
   27.2596  -19.8239  -14.2226 C   0  0  1  0  0  0  0  0  0  0  0  0
   26.4494  -18.8867  -15.0486 C   0  0  0  0  0  0  0  0  0  0  0  0
   27.2358  -17.9164  -15.8169 C   0  0  0  0  0  0  0  0  0  0  0  0
   28.5950  -17.7382  -15.9493 C   0  0  0  0  0  0  0  0  0  0  0  0
   28.8493  -16.7094  -16.7645 N   0  0  0  0  0  0  0  0  0  0  0  0
   27.6613  -16.2305  -17.1526 C   0  0  0  0  0  0  0  0  0  0  0  0
   26.6801  -16.9580  -16.5816 N   0  0  0  0  0  0  0  0  0  0  0  0
   26.4067  -20.6984  -13.3787 C   0  0  0  0  0  0  0  0  0  0  0  0
   26.2664  -21.9307  -13.6811 O   0  0  0  0  0  0  0  0  0  0  0  0
   25.5256  -21.0515   -6.6641 C   0  0  0  0  0  0  0  0  0  0  0  0
   26.6851  -20.2831   -7.7987 S   0  0  0  0  0  0  0  0  0  0  0  0
   26.5228  -20.8912   -9.4963 C   0  0  0  0  0  0  0  0  0  0  0  0
   25.1025  -20.8215   -9.9794 C   0  0  0  0  0  0  0  0  0  0  0  0
   24.9119  -21.1991  -11.4159 C   0  0  2  0  0  0  0  0  0  0  0  0
   25.7132  -20.2700  -12.2307 N   0  0  0  0  0  0  0  0  0  0  0  0
   23.5223  -21.2464  -11.8718 C   0  0  0  0  0  0  0  0  0  0  0  0
   22.7071  -21.9979  -11.3055 O   0  0  0  0  0  0  0  0  0  0  0  0
   23.1170  -20.4317  -12.9589 N   0  0  0  0  0  0  0  0  0  0  0  0
   21.7292  -20.4291  -13.4699 C   0  0  1  0  0  0  0  0  0  0  0  0
   20.9307  -19.3597  -12.7901 C   0  0  0  0  0  0  0  0  0  0  0  0
   19.8666  -19.9713  -11.9735 C   0  0  0  0  0  0  0  0  0  0  0  0
   19.8008  -21.2534  -11.9548 O   0  0  0  0  0  0  0  0  0  0  0  0
   21.7676  -20.2584  -14.9456 C   0  0  0  0  0  0  0  0  0  0  0  0
   20.8706  -20.7067  -15.6633 O   0  0  0  0  0  0  0  0  0  0  0  0
   18.9251  -19.3134  -11.2245 O   0  0  0  0  0  0  0  0  0  0  0  0
   22.8416  -19.5770  -15.5273 O   0  0  0  0  0  0  0  0  0  0  0  0
  2  1  1  6
  2  3  1  0
  2  9  1  0
  4  3  1  0
  4  5  2  0
  6  5  1  0
  7  6  1  0
  8  7  2  0
  8  4  1  0
  9 10  2  0
 12 11  1  0
 13 12  1  0
 15 14  1  1
 14 13  1  0
 16 15  1  0
 16  9  1  0
 17 18  2  0
 17 15  1  0
 19 17  1  0
 20 24  1  0
 20 19  1  0
 20 21  1  1
 22 23  2  0
 22 21  1  0
 24 27  1  0
 25 24  2  0
 26 22  1  0
M  END
$$$$
