HMD.pdb
     RDKit          3D

 27 27  0  0  1  0  0  0  0  0999 V2000
   21.3614  -12.1372  -18.5147 N   0  0  0  0  0  0  0  0  0  0  0  0
   20.4873  -11.5839  -17.5192 C   0  0  1  0  0  0  0  0  0  0  0  0
   19.7110  -12.5993  -16.7553 C   0  0  0  0  0  0  0  0  0  0  0  0
   19.0169  -13.5875  -17.5870 C   0  0  0  0  0  0  0  0  0  0  0  0
   19.1875  -14.9466  -17.7298 C   0  0  0  0  0  0  0  0  0  0  0  0
   18.3127  -15.4318  -18.6169 N   0  0  0  0  0  0  0  0  0  0  0  0
   17.5857  -14.3911  -19.0407 C   0  0  0  0  0  0  0  0  0  0  0  0
   18.0079  -13.2710  -18.4199 N   0  0  0  0  0  0  0  0  0  0  0  0
   21.1860  -10.6297  -16.6217 C   0  0  0  0  0  0  0  0  0  0  0  0
   20.5803  -10.1583  -15.6017 O   0  0  0  0  0  0  0  0  0  0  0  0
   27.0470  -12.9488  -14.7555 C   0  0  0  0  0  0  0  0  0  0  0  0
   26.6600  -11.2826  -15.3000 S   0  0  0  0  0  0  0  0  0  0  0  0
   24.8818  -10.9439  -15.3331 C   0  0  0  0  0  0  0  0  0  0  0  0
   24.5896   -9.5468  -15.8003 C   0  0  0  0  0  0  0  0  0  0  0  0
   23.1333   -9.2106  -15.8924 C   0  0  2  0  0  0  0  0  0  0  0  0
   22.5086  -10.1830  -16.8053 N   0  0  0  0  0  0  0  0  0  0  0  0
   22.8323   -7.8351  -16.2905 C   0  0  0  0  0  0  0  0  0  0  0  0
   22.7122   -7.5487  -17.4962 O   0  0  0  0  0  0  0  0  0  0  0  0
   22.6796   -6.8383  -15.2941 N   0  0  0  0  0  0  0  0  0  0  0  0
   22.3169   -5.4425  -15.6220 C   0  0  1  0  0  0  0  0  0  0  0  0
   21.0305   -5.4097  -16.3883 C   0  0  0  0  0  0  0  0  0  0  0  0
   20.6098   -4.0130  -16.6020 C   0  0  0  0  0  0  0  0  0  0  0  0
   21.3650   -3.2749  -17.3323 O   0  0  0  0  0  0  0  0  0  0  0  0
   22.2463   -4.6620  -14.3594 C   0  0  0  0  0  0  0  0  0  0  0  0
   22.1398   -3.4335  -14.3738 O   0  0  0  0  0  0  0  0  0  0  0  0
   19.4882   -3.4066  -16.0977 O   0  0  0  0  0  0  0  0  0  0  0  0
   22.3024   -5.3357  -13.1350 O   0  0  0  0  0  0  0  0  0  0  0  0
  2  1  1  1
  2  3  1  0
  2  9  1  0
  4  3  1  0
  4  5  2  0
  6  5  1  0
  7  6  1  0
  8  7  2  0
  8  4  1  0
  9 10  2  0
 12 11  1  0
 13 12  1  0
 15 14  1  6
 14 13  1  0
 16 15  1  0
 16  9  1  0
 17 18  2  0
 17 15  1  0
 19 17  1  0
 20 24  1  0
 20 19  1  0
 20 21  1  1
 22 23  2  0
 22 21  1  0
 24 27  1  0
 25 24  2  0
 26 22  1  0
M  END
$$$$
