HMD.pdb
     RDKit          3D

 27 27  0  0  1  0  0  0  0  0999 V2000
   28.0130  -21.1795  -16.5260 N   0  0  0  0  0  0  0  0  0  0  0  0
   27.5523  -20.2487  -15.5347 C   0  0  1  0  0  0  0  0  0  0  0  0
   26.9648  -19.0004  -16.0950 C   0  0  0  0  0  0  0  0  0  0  0  0
   27.8576  -18.2542  -16.9874 C   0  0  0  0  0  0  0  0  0  0  0  0
   27.8759  -18.1141  -18.3573 C   0  0  0  0  0  0  0  0  0  0  0  0
   28.8919  -17.3281  -18.7282 N   0  0  0  0  0  0  0  0  0  0  0  0
   29.5213  -16.9663  -17.6040 C   0  0  0  0  0  0  0  0  0  0  0  0
   28.8990  -17.5244  -16.5460 N   0  0  0  0  0  0  0  0  0  0  0  0
   26.6553  -20.8843  -14.5369 C   0  0  0  0  0  0  0  0  0  0  0  0
   25.7411  -21.6862  -14.9253 O   0  0  0  0  0  0  0  0  0  0  0  0
   26.2236  -19.2563   -7.8850 C   0  0  0  0  0  0  0  0  0  0  0  0
   25.8121  -20.9893   -8.1083 S   0  0  0  0  0  0  0  0  0  0  0  0
   25.1898  -21.3609   -9.7674 C   0  0  0  0  0  0  0  0  0  0  0  0
   26.1485  -20.9160  -10.8343 C   0  0  0  0  0  0  0  0  0  0  0  0
   25.6613  -21.1183  -12.2358 C   0  0  2  0  0  0  0  0  0  0  0  0
   26.7285  -20.6712  -13.1471 N   0  0  0  0  0  0  0  0  0  0  0  0
   24.3849  -20.4774  -12.5537 C   0  0  0  0  0  0  0  0  0  0  0  0
   24.3432  -19.2546  -12.7838 O   0  0  0  0  0  0  0  0  0  0  0  0
   23.2034  -21.2598  -12.5965 N   0  0  0  0  0  0  0  0  0  0  0  0
   21.9002  -20.7002  -13.0155 C   0  0  1  0  0  0  0  0  0  0  0  0
   21.7009  -20.9009  -14.4864 C   0  0  0  0  0  0  0  0  0  0  0  0
   20.3806  -20.3829  -14.8886 C   0  0  0  0  0  0  0  0  0  0  0  0
   19.3729  -21.1665  -14.7510 O   0  0  0  0  0  0  0  0  0  0  0  0
   20.8288  -21.3356  -12.2050 C   0  0  0  0  0  0  0  0  0  0  0  0
   20.8217  -22.5511  -11.9974 O   0  0  0  0  0  0  0  0  0  0  0  0
   20.1070  -19.1417  -15.4030 O   0  0  0  0  0  0  0  0  0  0  0  0
   19.8120  -20.5379  -11.6701 O   0  0  0  0  0  0  0  0  0  0  0  0
  2  1  1  6
  2  3  1  0
  2  9  1  0
  4  3  1  0
  4  5  2  0
  6  5  1  0
  7  6  1  0
  8  7  2  0
  8  4  1  0
  9 10  2  0
 12 11  1  0
 13 12  1  0
 15 14  1  1
 14 13  1  0
 16 15  1  0
 16  9  1  0
 17 18  2  0
 17 15  1  0
 19 17  1  0
 20 24  1  0
 20 19  1  0
 20 21  1  6
 22 23  2  0
 22 21  1  0
 24 27  1  0
 25 24  2  0
 26 22  1  0
M  END
$$$$
