HMD.pdb
     RDKit          3D

 27 27  0  0  1  0  0  0  0  0999 V2000
   19.4394  -11.8631  -19.0298 N   0  0  0  0  0  0  0  0  0  0  0  0
   20.4752  -11.0314  -18.4853 C   0  0  1  0  0  0  0  0  0  0  0  0
   21.3627  -10.4124  -19.5082 C   0  0  0  0  0  0  0  0  0  0  0  0
   22.0763  -11.3723  -20.3565 C   0  0  0  0  0  0  0  0  0  0  0  0
   21.6240  -12.3478  -21.2169 C   0  0  0  0  0  0  0  0  0  0  0  0
   22.6569  -12.9854  -21.7774 N   0  0  0  0  0  0  0  0  0  0  0  0
   23.7647  -12.4228  -21.2800 C   0  0  0  0  0  0  0  0  0  0  0  0
   23.4191  -11.4448  -20.4186 N   0  0  0  0  0  0  0  0  0  0  0  0
   19.9478  -10.0268  -17.5278 C   0  0  0  0  0  0  0  0  0  0  0  0
   18.8150   -9.4788  -17.7428 O   0  0  0  0  0  0  0  0  0  0  0  0
   17.4239   -8.7032  -10.5238 C   0  0  0  0  0  0  0  0  0  0  0  0
   18.1530   -9.6585  -11.8573 S   0  0  0  0  0  0  0  0  0  0  0  0
   18.7973   -8.6258  -13.1976 C   0  0  0  0  0  0  0  0  0  0  0  0
   19.4755   -9.4469  -14.2565 C   0  0  0  0  0  0  0  0  0  0  0  0
   20.0040   -8.6590  -15.4151 C   0  0  2  0  0  0  0  0  0  0  0  0
   20.6140   -9.6104  -16.3594 N   0  0  0  0  0  0  0  0  0  0  0  0
   20.9318   -7.5819  -15.0687 C   0  0  0  0  0  0  0  0  0  0  0  0
   22.1122   -7.8480  -14.7756 O   0  0  0  0  0  0  0  0  0  0  0  0
   20.4745   -6.2400  -15.0706 N   0  0  0  0  0  0  0  0  0  0  0  0
   21.3772   -5.0973  -14.8124 C   0  0  1  0  0  0  0  0  0  0  0  0
   20.9765   -3.9230  -15.6513 C   0  0  0  0  0  0  0  0  0  0  0  0
   21.8841   -2.7902  -15.3938 C   0  0  0  0  0  0  0  0  0  0  0  0
   22.9169   -3.0158  -14.6652 O   0  0  0  0  0  0  0  0  0  0  0  0
   21.3517   -4.7921  -13.3583 C   0  0  0  0  0  0  0  0  0  0  0  0
   22.2868   -4.2005  -12.8140 O   0  0  0  0  0  0  0  0  0  0  0  0
   21.7434   -1.5048  -15.8499 O   0  0  0  0  0  0  0  0  0  0  0  0
   20.2461   -5.1844  -12.5966 O   0  0  0  0  0  0  0  0  0  0  0  0
  2  1  1  6
  2  3  1  0
  2  9  1  0
  4  3  1  0
  4  5  2  0
  6  5  1  0
  7  6  1  0
  8  7  2  0
  8  4  1  0
  9 10  2  0
 12 11  1  0
 13 12  1  0
 15 14  1  1
 14 13  1  0
 16 15  1  0
 16  9  1  0
 17 18  2  0
 17 15  1  0
 19 17  1  0
 20 24  1  0
 20 19  1  0
 20 21  1  6
 22 23  2  0
 22 21  1  0
 24 27  1  0
 25 24  2  0
 26 22  1  0
M  END
$$$$
