HMD.pdb
     RDKit          3D

 27 27  0  0  1  0  0  0  0  0999 V2000
   17.6098  -12.5755  -15.8874 N   0  0  0  0  0  0  0  0  0  0  0  0
   17.8707  -11.2827  -16.4546 C   0  0  1  0  0  0  0  0  0  0  0  0
   16.6598  -10.4320  -16.6192 C   0  0  0  0  0  0  0  0  0  0  0  0
   15.5836  -11.0490  -17.4011 C   0  0  0  0  0  0  0  0  0  0  0  0
   14.2812  -11.3611  -17.0805 C   0  0  0  0  0  0  0  0  0  0  0  0
   13.6687  -11.9223  -18.1282 N   0  0  0  0  0  0  0  0  0  0  0  0
   14.5720  -11.9700  -19.1145 C   0  0  0  0  0  0  0  0  0  0  0  0
   15.7341  -11.4422  -18.6797 N   0  0  0  0  0  0  0  0  0  0  0  0
   18.9605  -10.5649  -15.7464 C   0  0  0  0  0  0  0  0  0  0  0  0
   18.9240  -10.4511  -14.4754 O   0  0  0  0  0  0  0  0  0  0  0  0
   26.5753  -10.4357  -14.7838 C   0  0  0  0  0  0  0  0  0  0  0  0
   25.0835  -10.8406  -15.6964 S   0  0  0  0  0  0  0  0  0  0  0  0
   23.6562   -9.8445  -15.1976 C   0  0  0  0  0  0  0  0  0  0  0  0
   22.4220  -10.2144  -15.9692 C   0  0  0  0  0  0  0  0  0  0  0  0
   21.2011   -9.4251  -15.6105 C   0  0  2  0  0  0  0  0  0  0  0  0
   20.0723   -9.9769  -16.3791 N   0  0  0  0  0  0  0  0  0  0  0  0
   21.3147   -7.9779  -15.7940 C   0  0  0  0  0  0  0  0  0  0  0  0
   21.4917   -7.5073  -16.9329 O   0  0  0  0  0  0  0  0  0  0  0  0
   21.2216   -7.1227  -14.6671 N   0  0  0  0  0  0  0  0  0  0  0  0
   21.2889   -5.6500  -14.7852 C   0  0  1  0  0  0  0  0  0  0  0  0
   20.0971   -5.0243  -14.1284 C   0  0  0  0  0  0  0  0  0  0  0  0
   18.9303   -5.1051  -15.0257 C   0  0  0  0  0  0  0  0  0  0  0  0
   19.1559   -5.0866  -16.2895 O   0  0  0  0  0  0  0  0  0  0  0  0
   22.5718   -5.1853  -14.1963 C   0  0  0  0  0  0  0  0  0  0  0  0
   23.1400   -5.8322  -13.3135 O   0  0  0  0  0  0  0  0  0  0  0  0
   17.6134   -5.1957  -14.6548 O   0  0  0  0  0  0  0  0  0  0  0  0
   23.1416   -3.9926  -14.6534 O   0  0  0  0  0  0  0  0  0  0  0  0
  2  1  1  1
  2  3  1  0
  2  9  1  0
  4  3  1  0
  4  5  2  0
  6  5  1  0
  7  6  1  0
  8  7  2  0
  8  4  1  0
  9 10  2  0
 12 11  1  0
 13 12  1  0
 15 14  1  6
 14 13  1  0
 16 15  1  0
 16  9  1  0
 17 18  2  0
 17 15  1  0
 19 17  1  0
 20 24  1  0
 20 19  1  0
 20 21  1  1
 22 23  2  0
 22 21  1  0
 24 27  1  0
 25 24  2  0
 26 22  1  0
M  END
$$$$
