HMD.pdb
     RDKit          3D

 27 27  0  0  1  0  0  0  0  0999 V2000
   27.8757  -21.5423  -16.1893 N   0  0  0  0  0  0  0  0  0  0  0  0
   27.2235  -20.5154  -15.4269 C   0  0  1  0  0  0  0  0  0  0  0  0
   26.4219  -19.5633  -16.2444 C   0  0  0  0  0  0  0  0  0  0  0  0
   27.1959  -18.8122  -17.2379 C   0  0  0  0  0  0  0  0  0  0  0  0
   27.4149  -19.0254  -18.5807 C   0  0  0  0  0  0  0  0  0  0  0  0
   28.1999  -18.0648  -19.0794 N   0  0  0  0  0  0  0  0  0  0  0  0
   28.4826  -17.2407  -18.0635 C   0  0  0  0  0  0  0  0  0  0  0  0
   27.8769  -17.6885  -16.9452 N   0  0  0  0  0  0  0  0  0  0  0  0
   26.4414  -21.0658  -14.2912 C   0  0  0  0  0  0  0  0  0  0  0  0
   25.7493  -22.1264  -14.4522 O   0  0  0  0  0  0  0  0  0  0  0  0
   27.5211  -20.1524   -7.8918 C   0  0  0  0  0  0  0  0  0  0  0  0
   25.7292  -20.2551   -7.9216 S   0  0  0  0  0  0  0  0  0  0  0  0
   25.0831  -20.9004   -9.4850 C   0  0  0  0  0  0  0  0  0  0  0  0
   25.9224  -20.4710  -10.6540 C   0  0  0  0  0  0  0  0  0  0  0  0
   25.4404  -20.9633  -11.9835 C   0  0  2  0  0  0  0  0  0  0  0  0
   26.3953  -20.4978  -13.0037 N   0  0  0  0  0  0  0  0  0  0  0  0
   24.0678  -20.5920  -12.3286 C   0  0  0  0  0  0  0  0  0  0  0  0
   23.8108  -19.4297  -12.6933 O   0  0  0  0  0  0  0  0  0  0  0  0
   23.0399  -21.5647  -12.2435 N   0  0  0  0  0  0  0  0  0  0  0  0
   21.6349  -21.2620  -12.5919 C   0  0  1  0  0  0  0  0  0  0  0  0
   20.8702  -22.5323  -12.8038 C   0  0  0  0  0  0  0  0  0  0  0  0
   19.4730  -22.2231  -13.1581 C   0  0  0  0  0  0  0  0  0  0  0  0
   19.1637  -20.9867  -13.3130 O   0  0  0  0  0  0  0  0  0  0  0  0
   21.0506  -20.4196  -11.5162 C   0  0  0  0  0  0  0  0  0  0  0  0
   21.3574  -20.5907  -10.3341 O   0  0  0  0  0  0  0  0  0  0  0  0
   18.4534  -23.1218  -13.3397 O   0  0  0  0  0  0  0  0  0  0  0  0
   20.1367  -19.4161  -11.8539 O   0  0  0  0  0  0  0  0  0  0  0  0
  2  1  1  6
  2  3  1  0
  2  9  1  0
  4  3  1  0
  4  5  2  0
  6  5  1  0
  7  6  1  0
  8  7  2  0
  8  4  1  0
  9 10  2  0
 12 11  1  0
 13 12  1  0
 15 14  1  1
 14 13  1  0
 16 15  1  0
 16  9  1  0
 17 18  2  0
 17 15  1  0
 19 17  1  0
 20 24  1  0
 20 19  1  0
 20 21  1  1
 22 23  2  0
 22 21  1  0
 24 27  1  0
 25 24  2  0
 26 22  1  0
M  END
$$$$
