GEK.pdb
     RDKit          3D

 23 22  0  0  1  0  0  0  0  0999 V2000
    6.6633  -15.5523   22.9144 N   0  0  0  0  0  0  0  0  0  0  0  0
    6.5554  -16.7231   22.0976 C   0  0  0  0  0  0  0  0  0  0  0  0
    5.5481  -17.6841   22.5823 C   0  0  0  0  0  0  0  0  0  0  0  0
    4.9703  -17.4191   23.6751 O   0  0  0  0  0  0  0  0  0  0  0  0
    5.1979  -18.8707   21.8997 N   0  0  0  0  0  0  0  0  0  0  0  0
    4.1529  -19.7626   22.4839 C   0  0  1  0  0  0  0  0  0  0  0  0
    3.2114  -20.1343   21.3563 C   0  0  0  0  0  0  0  0  0  0  0  0
    2.4408  -18.9750   20.8194 C   0  0  0  0  0  0  0  0  0  0  0  0
    1.6000  -19.4159   19.6681 C   0  0  0  0  0  0  0  0  0  0  0  0
    2.0857  -19.4336   18.5141 O   0  0  0  0  0  0  0  0  0  0  0  0
    4.8832  -20.9110   23.0546 C   0  0  0  0  0  0  0  0  0  0  0  0
    6.1178  -21.1106   22.7728 O   0  0  0  0  0  0  0  0  0  0  0  0
    0.2928  -19.7995   19.8759 O   0  0  0  0  0  0  0  0  0  0  0  0
    4.3225  -21.8725   23.9421 N   0  0  0  0  0  0  0  0  0  0  0  0
    5.1084  -22.9944   24.4498 C   0  0  1  0  0  0  0  0  0  0  0  0
    4.3879  -23.4915   25.6675 C   0  0  0  0  0  0  0  0  0  0  0  0
    4.9453  -24.7023   26.3138 C   0  0  0  0  0  0  0  0  0  0  0  0
    4.1884  -25.1688   27.5090 C   0  0  0  0  0  0  0  0  0  0  0  0
    4.7618  -26.3201   28.2675 C   0  0  0  0  0  0  0  0  0  0  0  0
    4.0554  -26.7020   29.4394 N   0  0  0  0  0  0  0  0  0  0  0  0
    5.4252  -23.9702   23.4261 C   0  0  0  0  0  0  0  0  0  0  0  0
    6.5188  -24.5856   23.4577 O   0  0  0  0  0  0  0  0  0  0  0  0
    4.5540  -24.2520   22.4048 O   0  0  0  0  0  0  0  0  0  0  0  0
  2  1  1  0
  3  5  1  0
  3  2  1  0
  4  3  2  0
  6  5  1  0
  6 11  1  0
  6  7  1  6
  8  7  1  0
  9  8  1  0
 10  9  2  0
 11 14  1  0
 12 11  2  0
 13  9  1  0
 14 15  1  0
 15 21  1  0
 15 16  1  1
 17 16  1  0
 18 17  1  0
 19 18  1  0
 20 19  1  0
 21 23  1  0
 22 21  2  0
M  END
$$$$
