GEK.pdb
     RDKit          3D

 23 22  0  0  1  0  0  0  0  0999 V2000
    6.9478  -19.7751   19.2444 N   0  0  0  0  0  0  0  0  0  0  0  0
    7.9629  -18.7659   19.2176 C   0  0  0  0  0  0  0  0  0  0  0  0
    9.2020  -19.1637   19.9101 C   0  0  0  0  0  0  0  0  0  0  0  0
    9.1664  -20.2189   20.6053 O   0  0  0  0  0  0  0  0  0  0  0  0
   10.4124  -18.4380   19.8393 N   0  0  0  0  0  0  0  0  0  0  0  0
   11.6446  -19.0207   20.4482 C   0  0  1  0  0  0  0  0  0  0  0  0
   12.8239  -18.4488   19.6878 C   0  0  0  0  0  0  0  0  0  0  0  0
   14.1436  -18.9378   20.1828 C   0  0  0  0  0  0  0  0  0  0  0  0
   15.2431  -18.3289   19.3785 C   0  0  0  0  0  0  0  0  0  0  0  0
   15.1823  -17.1202   19.0567 O   0  0  0  0  0  0  0  0  0  0  0  0
   11.6072  -18.6325   21.8716 C   0  0  0  0  0  0  0  0  0  0  0  0
   11.2352  -17.4571   22.2227 O   0  0  0  0  0  0  0  0  0  0  0  0
   16.3197  -19.0963   18.9899 O   0  0  0  0  0  0  0  0  0  0  0  0
   11.9591  -19.4839   22.9569 N   0  0  0  0  0  0  0  0  0  0  0  0
   11.7967  -19.0595   24.3453 C   0  0  1  0  0  0  0  0  0  0  0  0
   11.5925  -20.3126   25.1435 C   0  0  0  0  0  0  0  0  0  0  0  0
   11.4867  -20.1479   26.6119 C   0  0  0  0  0  0  0  0  0  0  0  0
   11.2019  -21.4066   27.3559 C   0  0  0  0  0  0  0  0  0  0  0  0
   10.8853  -21.2779   28.8095 C   0  0  0  0  0  0  0  0  0  0  0  0
   10.4948  -22.4759   29.4658 N   0  0  0  0  0  0  0  0  0  0  0  0
   12.8437  -18.1596   24.7862 C   0  0  0  0  0  0  0  0  0  0  0  0
   13.9781  -18.2007   24.2504 O   0  0  0  0  0  0  0  0  0  0  0  0
   12.6340  -17.2452   25.7869 O   0  0  0  0  0  0  0  0  0  0  0  0
  2  1  1  0
  3  5  1  0
  3  2  1  0
  4  3  2  0
  6  5  1  0
  6 11  1  0
  6  7  1  6
  8  7  1  0
  9  8  1  0
 10  9  2  0
 11 14  1  0
 12 11  2  0
 13  9  1  0
 14 15  1  0
 15 21  1  0
 15 16  1  1
 17 16  1  0
 18 17  1  0
 19 18  1  0
 20 19  1  0
 21 23  1  0
 22 21  2  0
M  END
$$$$
