GEK.pdb
     RDKit          3D

 23 22  0  0  1  0  0  0  0  0999 V2000
    6.8684  -19.2228   19.4282 N   0  0  0  0  0  0  0  0  0  0  0  0
    6.5608  -20.5443   19.8851 C   0  0  0  0  0  0  0  0  0  0  0  0
    6.2229  -20.6039   21.3188 C   0  0  0  0  0  0  0  0  0  0  0  0
    6.4024  -19.5559   22.0025 O   0  0  0  0  0  0  0  0  0  0  0  0
    5.7152  -21.7552   21.9618 N   0  0  0  0  0  0  0  0  0  0  0  0
    5.3985  -21.6922   23.4193 C   0  0  1  0  0  0  0  0  0  0  0  0
    4.2472  -22.6472   23.6610 C   0  0  0  0  0  0  0  0  0  0  0  0
    2.9209  -22.0914   23.2635 C   0  0  0  0  0  0  0  0  0  0  0  0
    2.0441  -23.1875   22.7572 C   0  0  0  0  0  0  0  0  0  0  0  0
    2.4624  -24.3678   22.7551 O   0  0  0  0  0  0  0  0  0  0  0  0
    6.6442  -22.0711   24.1142 C   0  0  0  0  0  0  0  0  0  0  0  0
    7.3884  -23.0122   23.6628 O   0  0  0  0  0  0  0  0  0  0  0  0
    0.7794  -22.8995   22.2918 O   0  0  0  0  0  0  0  0  0  0  0  0
    7.1325  -21.4572   25.3021 N   0  0  0  0  0  0  0  0  0  0  0  0
    8.4044  -21.8546   25.9009 C   0  0  1  0  0  0  0  0  0  0  0  0
    9.4167  -20.8509   25.4350 C   0  0  0  0  0  0  0  0  0  0  0  0
   10.8086  -21.0559   25.8986 C   0  0  0  0  0  0  0  0  0  0  0  0
   11.7871  -20.0626   25.3743 C   0  0  0  0  0  0  0  0  0  0  0  0
   13.1874  -20.1563   25.8843 C   0  0  0  0  0  0  0  0  0  0  0  0
   14.1308  -19.2945   25.2634 N   0  0  0  0  0  0  0  0  0  0  0  0
    8.3090  -22.0814   27.3291 C   0  0  0  0  0  0  0  0  0  0  0  0
    7.3322  -21.6305   27.9758 O   0  0  0  0  0  0  0  0  0  0  0  0
    9.2667  -22.7869   28.0124 O   0  0  0  0  0  0  0  0  0  0  0  0
  2  1  1  0
  3  5  1  0
  3  2  1  0
  4  3  2  0
  6  5  1  0
  6 11  1  0
  6  7  1  6
  8  7  1  0
  9  8  1  0
 10  9  2  0
 11 14  1  0
 12 11  2  0
 13  9  1  0
 14 15  1  0
 15 21  1  0
 15 16  1  1
 17 16  1  0
 18 17  1  0
 19 18  1  0
 20 19  1  0
 21 23  1  0
 22 21  2  0
M  END
$$$$
