GEK.pdb
     RDKit          3D

 23 22  0  0  1  0  0  0  0  0999 V2000
    6.7719  -18.1466   17.9122 N   0  0  0  0  0  0  0  0  0  0  0  0
    7.9045  -17.2747   17.9938 C   0  0  0  0  0  0  0  0  0  0  0  0
    9.0932  -17.9133   18.5871 C   0  0  0  0  0  0  0  0  0  0  0  0
    8.9491  -19.0709   19.0744 O   0  0  0  0  0  0  0  0  0  0  0  0
   10.3693  -17.3088   18.6397 N   0  0  0  0  0  0  0  0  0  0  0  0
   11.5213  -18.0911   19.1779 C   0  0  1  0  0  0  0  0  0  0  0  0
   12.6277  -18.0116   18.1457 C   0  0  0  0  0  0  0  0  0  0  0  0
   13.4149  -19.2728   18.0203 C   0  0  0  0  0  0  0  0  0  0  0  0
   14.7729  -18.9702   17.4808 C   0  0  0  0  0  0  0  0  0  0  0  0
   15.7859  -19.4420   18.0459 O   0  0  0  0  0  0  0  0  0  0  0  0
   11.8624  -17.4610   20.4681 C   0  0  0  0  0  0  0  0  0  0  0  0
   12.1840  -16.2216   20.5296 O   0  0  0  0  0  0  0  0  0  0  0  0
   14.9098  -18.1720   16.3658 O   0  0  0  0  0  0  0  0  0  0  0  0
   11.8657  -18.1297   21.7249 N   0  0  0  0  0  0  0  0  0  0  0  0
   12.2564  -17.4446   22.9545 C   0  0  1  0  0  0  0  0  0  0  0  0
   11.6489  -18.2281   24.0798 C   0  0  0  0  0  0  0  0  0  0  0  0
   12.0460  -17.8284   25.4499 C   0  0  0  0  0  0  0  0  0  0  0  0
   11.5095  -18.7041   26.5289 C   0  0  0  0  0  0  0  0  0  0  0  0
   11.8410  -18.3273   27.9352 C   0  0  0  0  0  0  0  0  0  0  0  0
   11.2596  -19.1384   28.9463 N   0  0  0  0  0  0  0  0  0  0  0  0
   13.6799  -17.1824   23.0262 C   0  0  0  0  0  0  0  0  0  0  0  0
   14.4977  -18.0014   22.5403 O   0  0  0  0  0  0  0  0  0  0  0  0
   14.1749  -16.0474   23.6166 O   0  0  0  0  0  0  0  0  0  0  0  0
  2  1  1  0
  3  5  1  0
  3  2  1  0
  4  3  2  0
  6  5  1  0
  6 11  1  0
  6  7  1  6
  8  7  1  0
  9  8  1  0
 10  9  2  0
 11 14  1  0
 12 11  2  0
 13  9  1  0
 14 15  1  0
 15 21  1  0
 15 16  1  1
 17 16  1  0
 18 17  1  0
 19 18  1  0
 20 19  1  0
 21 23  1  0
 22 21  2  0
M  END
$$$$
