GEK.pdb
     RDKit          3D

 23 22  0  0  1  0  0  0  0  0999 V2000
    2.1832  -22.2840   21.8527 N   0  0  0  0  0  0  0  0  0  0  0  0
    2.8417  -21.0849   22.2748 C   0  0  0  0  0  0  0  0  0  0  0  0
    4.2871  -21.2611   22.5050 C   0  0  0  0  0  0  0  0  0  0  0  0
    4.7184  -22.4443   22.6149 O   0  0  0  0  0  0  0  0  0  0  0  0
    5.2051  -20.1918   22.6079 N   0  0  0  0  0  0  0  0  0  0  0  0
    6.6353  -20.4901   22.9147 C   0  0  1  0  0  0  0  0  0  0  0  0
    7.4661  -19.4437   22.1999 C   0  0  0  0  0  0  0  0  0  0  0  0
    7.8202  -19.8207   20.8005 C   0  0  0  0  0  0  0  0  0  0  0  0
    9.2801  -19.6107   20.5739 C   0  0  0  0  0  0  0  0  0  0  0  0
    9.9844  -19.1103   21.4802 O   0  0  0  0  0  0  0  0  0  0  0  0
    6.7463  -20.4379   24.3854 C   0  0  0  0  0  0  0  0  0  0  0  0
    6.1295  -19.5388   25.0596 O   0  0  0  0  0  0  0  0  0  0  0  0
    9.8489  -19.9647   19.3697 O   0  0  0  0  0  0  0  0  0  0  0  0
    7.5107  -21.3414   25.1765 N   0  0  0  0  0  0  0  0  0  0  0  0
    7.6375  -21.1732   26.6222 C   0  0  1  0  0  0  0  0  0  0  0  0
    7.3252  -22.5097   27.2267 C   0  0  0  0  0  0  0  0  0  0  0  0
    7.5128  -22.6297   28.6913 C   0  0  0  0  0  0  0  0  0  0  0  0
    7.1775  -23.9695   29.2494 C   0  0  0  0  0  0  0  0  0  0  0  0
    7.4325  -24.1803   30.7055 C   0  0  0  0  0  0  0  0  0  0  0  0
    6.9947  -25.4232   31.2364 N   0  0  0  0  0  0  0  0  0  0  0  0
    8.8866  -20.5491   27.0101 C   0  0  0  0  0  0  0  0  0  0  0  0
    8.8890  -19.5977   27.8290 O   0  0  0  0  0  0  0  0  0  0  0  0
   10.0903  -20.9708   26.5053 O   0  0  0  0  0  0  0  0  0  0  0  0
  2  1  1  0
  3  5  1  0
  3  2  1  0
  4  3  2  0
  6  5  1  0
  6 11  1  0
  6  7  1  6
  8  7  1  0
  9  8  1  0
 10  9  2  0
 11 14  1  0
 12 11  2  0
 13  9  1  0
 14 15  1  0
 15 21  1  0
 15 16  1  1
 17 16  1  0
 18 17  1  0
 19 18  1  0
 20 19  1  0
 21 23  1  0
 22 21  2  0
M  END
$$$$
