GEK.pdb
     RDKit          3D

 23 22  0  0  1  0  0  0  0  0999 V2000
    9.9953  -17.7585   18.9879 N   0  0  0  0  0  0  0  0  0  0  0  0
   10.6249  -16.7781   19.8198 C   0  0  0  0  0  0  0  0  0  0  0  0
   11.3889  -17.3621   20.9371 C   0  0  0  0  0  0  0  0  0  0  0  0
   11.2686  -18.6046   21.1369 O   0  0  0  0  0  0  0  0  0  0  0  0
   12.2381  -16.6172   21.7859 N   0  0  0  0  0  0  0  0  0  0  0  0
   12.9895  -17.3256   22.8641 C   0  0  1  0  0  0  0  0  0  0  0  0
   14.0789  -16.3829   23.3335 C   0  0  0  0  0  0  0  0  0  0  0  0
   15.2692  -16.3560   22.4344 C   0  0  0  0  0  0  0  0  0  0  0  0
   16.2871  -15.4057   22.9707 C   0  0  0  0  0  0  0  0  0  0  0  0
   16.8764  -14.6213   22.1926 O   0  0  0  0  0  0  0  0  0  0  0  0
   11.9898  -17.6463   23.9014 C   0  0  0  0  0  0  0  0  0  0  0  0
   11.2194  -16.7377   24.3748 O   0  0  0  0  0  0  0  0  0  0  0  0
   16.5779  -15.3946   24.3176 O   0  0  0  0  0  0  0  0  0  0  0  0
   11.7804  -18.9398   24.4577 N   0  0  0  0  0  0  0  0  0  0  0  0
   10.8281  -19.1602   25.5434 C   0  0  1  0  0  0  0  0  0  0  0  0
    9.9378  -20.2813   25.0964 C   0  0  0  0  0  0  0  0  0  0  0  0
    8.9897  -20.8107   26.1040 C   0  0  0  0  0  0  0  0  0  0  0  0
    8.1572  -21.9513   25.6297 C   0  0  0  0  0  0  0  0  0  0  0  0
    6.6794  -21.7411   25.5892 C   0  0  0  0  0  0  0  0  0  0  0  0
    5.9121  -22.8355   25.1078 N   0  0  0  0  0  0  0  0  0  0  0  0
   11.4688  -19.3014   26.8356 C   0  0  0  0  0  0  0  0  0  0  0  0
   12.7133  -19.4472   26.9104 O   0  0  0  0  0  0  0  0  0  0  0  0
   10.7491  -19.2793   28.0032 O   0  0  0  0  0  0  0  0  0  0  0  0
  2  1  1  0
  3  5  1  0
  3  2  1  0
  4  3  2  0
  6  5  1  0
  6 11  1  0
  6  7  1  1
  8  7  1  0
  9  8  1  0
 10  9  2  0
 11 14  1  0
 12 11  2  0
 13  9  1  0
 14 15  1  0
 15 21  1  0
 15 16  1  6
 17 16  1  0
 18 17  1  0
 19 18  1  0
 20 19  1  0
 21 23  1  0
 22 21  2  0
M  END
$$$$
