GEK.pdb
     RDKit          3D

 23 22  0  0  1  0  0  0  0  0999 V2000
    7.7449  -12.7867   17.6111 N   0  0  0  0  0  0  0  0  0  0  0  0
    8.8823  -13.4498   18.1734 C   0  0  0  0  0  0  0  0  0  0  0  0
    8.5326  -14.4195   19.2272 C   0  0  0  0  0  0  0  0  0  0  0  0
    7.3562  -14.3782   19.6881 O   0  0  0  0  0  0  0  0  0  0  0  0
    9.4304  -15.3809   19.7432 N   0  0  0  0  0  0  0  0  0  0  0  0
    8.9557  -16.3248   20.7979 C   0  0  1  0  0  0  0  0  0  0  0  0
    9.7388  -17.6101   20.6227 C   0  0  0  0  0  0  0  0  0  0  0  0
    9.4627  -18.6230   21.6828 C   0  0  0  0  0  0  0  0  0  0  0  0
   10.2385  -19.8677   21.4078 C   0  0  0  0  0  0  0  0  0  0  0  0
   10.6323  -20.1106   20.2442 O   0  0  0  0  0  0  0  0  0  0  0  0
    9.2057  -15.6440   22.0833 C   0  0  0  0  0  0  0  0  0  0  0  0
   10.3184  -15.0476   22.3056 O   0  0  0  0  0  0  0  0  0  0  0  0
   10.5174  -20.7468   22.4317 O   0  0  0  0  0  0  0  0  0  0  0  0
    8.2791  -15.5757   23.1618 N   0  0  0  0  0  0  0  0  0  0  0  0
    8.5595  -14.7919   24.3623 C   0  0  1  0  0  0  0  0  0  0  0  0
    7.3485  -13.9386   24.5958 C   0  0  0  0  0  0  0  0  0  0  0  0
    7.3928  -13.0411   25.7735 C   0  0  0  0  0  0  0  0  0  0  0  0
    6.1372  -12.2767   26.0154 C   0  0  0  0  0  0  0  0  0  0  0  0
    6.1484  -11.2930   27.1387 C   0  0  0  0  0  0  0  0  0  0  0  0
    4.9042  -10.6716   27.4290 N   0  0  0  0  0  0  0  0  0  0  0  0
    9.0185  -15.6038   25.4716 C   0  0  0  0  0  0  0  0  0  0  0  0
    8.6829  -16.8107   25.5515 O   0  0  0  0  0  0  0  0  0  0  0  0
    9.8240  -15.0901   26.4559 O   0  0  0  0  0  0  0  0  0  0  0  0
  2  1  1  0
  3  5  1  0
  3  2  1  0
  4  3  2  0
  6  5  1  0
  6 11  1  0
  6  7  1  1
  8  7  1  0
  9  8  1  0
 10  9  2  0
 11 14  1  0
 12 11  2  0
 13  9  1  0
 14 15  1  0
 15 21  1  0
 15 16  1  1
 17 16  1  0
 18 17  1  0
 19 18  1  0
 20 19  1  0
 21 23  1  0
 22 21  2  0
M  END
$$$$
