GEK.pdb
     RDKit          3D

 23 22  0  0  1  0  0  0  0  0999 V2000
    5.7562  -19.9654   22.8687 N   0  0  0  0  0  0  0  0  0  0  0  0
    5.6648  -18.5691   23.1715 C   0  0  0  0  0  0  0  0  0  0  0  0
    6.7390  -17.7661   22.5596 C   0  0  0  0  0  0  0  0  0  0  0  0
    7.8494  -18.3364   22.3598 O   0  0  0  0  0  0  0  0  0  0  0  0
    6.5959  -16.4102   22.1888 N   0  0  0  0  0  0  0  0  0  0  0  0
    7.7947  -15.6568   21.7155 C   0  0  1  0  0  0  0  0  0  0  0  0
    7.3176  -14.7008   20.6411 C   0  0  0  0  0  0  0  0  0  0  0  0
    6.8214  -15.3873   19.4128 C   0  0  0  0  0  0  0  0  0  0  0  0
    7.9597  -16.0423   18.7044 C   0  0  0  0  0  0  0  0  0  0  0  0
    8.9588  -15.3641   18.3728 O   0  0  0  0  0  0  0  0  0  0  0  0
    8.3413  -14.9863   22.9112 C   0  0  0  0  0  0  0  0  0  0  0  0
    8.3224  -13.7086   23.0145 O   0  0  0  0  0  0  0  0  0  0  0  0
    7.9086  -17.3886   18.4146 O   0  0  0  0  0  0  0  0  0  0  0  0
    8.9166  -15.6556   24.0281 N   0  0  0  0  0  0  0  0  0  0  0  0
    9.0270  -15.0088   25.3334 C   0  0  1  0  0  0  0  0  0  0  0  0
    7.6479  -14.5327   25.6811 C   0  0  0  0  0  0  0  0  0  0  0  0
    7.5021  -13.0852   25.9604 C   0  0  0  0  0  0  0  0  0  0  0  0
    6.4681  -12.7538   26.9802 C   0  0  0  0  0  0  0  0  0  0  0  0
    6.2942  -11.3114   27.3251 C   0  0  0  0  0  0  0  0  0  0  0  0
    5.3366  -11.0283   28.3356 N   0  0  0  0  0  0  0  0  0  0  0  0
    9.7083  -15.8299   26.3141 C   0  0  0  0  0  0  0  0  0  0  0  0
    9.5868  -17.0790   26.2852 O   0  0  0  0  0  0  0  0  0  0  0  0
   10.4985  -15.2795   27.2910 O   0  0  0  0  0  0  0  0  0  0  0  0
  2  1  1  0
  3  5  1  0
  3  2  1  0
  4  3  2  0
  6  5  1  0
  6 11  1  0
  6  7  1  6
  8  7  1  0
  9  8  1  0
 10  9  2  0
 11 14  1  0
 12 11  2  0
 13  9  1  0
 14 15  1  0
 15 21  1  0
 15 16  1  1
 17 16  1  0
 18 17  1  0
 19 18  1  0
 20 19  1  0
 21 23  1  0
 22 21  2  0
M  END
$$$$
