GEK.pdb
     RDKit          3D

 23 22  0  0  1  0  0  0  0  0999 V2000
   10.5431  -16.3537   17.5685 N   0  0  0  0  0  0  0  0  0  0  0  0
   11.1903  -17.2193   18.5075 C   0  0  0  0  0  0  0  0  0  0  0  0
   10.4377  -17.3870   19.7639 C   0  0  0  0  0  0  0  0  0  0  0  0
    9.3822  -16.7057   19.9048 O   0  0  0  0  0  0  0  0  0  0  0  0
   10.8276  -18.2579   20.8061 N   0  0  0  0  0  0  0  0  0  0  0  0
    9.9306  -18.4226   21.9880 C   0  0  1  0  0  0  0  0  0  0  0  0
    9.6070  -19.8992   22.0924 C   0  0  0  0  0  0  0  0  0  0  0  0
   10.7017  -20.7051   22.7073 C   0  0  0  0  0  0  0  0  0  0  0  0
   10.2703  -22.1276   22.8387 C   0  0  0  0  0  0  0  0  0  0  0  0
    9.6957  -22.5091   23.8838 O   0  0  0  0  0  0  0  0  0  0  0  0
   10.6880  -17.8947   23.1394 C   0  0  0  0  0  0  0  0  0  0  0  0
   11.9427  -18.1269   23.2630 O   0  0  0  0  0  0  0  0  0  0  0  0
   10.5067  -23.0174   21.8134 O   0  0  0  0  0  0  0  0  0  0  0  0
   10.1333  -17.1036   24.1849 N   0  0  0  0  0  0  0  0  0  0  0  0
   10.9328  -16.6857   25.3340 C   0  0  1  0  0  0  0  0  0  0  0  0
   10.0657  -15.7559   26.1296 C   0  0  0  0  0  0  0  0  0  0  0  0
   10.6449  -15.2304   27.3877 C   0  0  0  0  0  0  0  0  0  0  0  0
    9.7376  -14.3356   28.1592 C   0  0  0  0  0  0  0  0  0  0  0  0
   10.2776  -13.7478   29.4211 C   0  0  0  0  0  0  0  0  0  0  0  0
    9.3873  -12.9084   30.1429 N   0  0  0  0  0  0  0  0  0  0  0  0
   11.5283  -17.8009   26.0424 C   0  0  0  0  0  0  0  0  0  0  0  0
   12.7175  -17.7341   26.4387 O   0  0  0  0  0  0  0  0  0  0  0  0
   10.8238  -18.9489   26.3018 O   0  0  0  0  0  0  0  0  0  0  0  0
  2  1  1  0
  3  5  1  0
  3  2  1  0
  4  3  2  0
  6  5  1  0
  6 11  1  0
  6  7  1  1
  8  7  1  0
  9  8  1  0
 10  9  2  0
 11 14  1  0
 12 11  2  0
 13  9  1  0
 14 15  1  0
 15 21  1  0
 15 16  1  1
 17 16  1  0
 18 17  1  0
 19 18  1  0
 20 19  1  0
 21 23  1  0
 22 21  2  0
M  END
$$$$
