GEK.pdb
     RDKit          3D

 23 22  0  0  1  0  0  0  0  0999 V2000
    5.1783  -18.2904   20.0901 N   0  0  0  0  0  0  0  0  0  0  0  0
    5.9847  -17.1201   20.2625 C   0  0  0  0  0  0  0  0  0  0  0  0
    7.1978  -17.3583   21.0653 C   0  0  0  0  0  0  0  0  0  0  0  0
    7.3285  -18.4976   21.5973 O   0  0  0  0  0  0  0  0  0  0  0  0
    8.2100  -16.3937   21.2695 N   0  0  0  0  0  0  0  0  0  0  0  0
    9.4062  -16.7584   22.0849 C   0  0  1  0  0  0  0  0  0  0  0  0
   10.5794  -16.8458   21.1301 C   0  0  0  0  0  0  0  0  0  0  0  0
   10.5516  -18.0607   20.2645 C   0  0  0  0  0  0  0  0  0  0  0  0
   11.7606  -18.0869   19.3902 C   0  0  0  0  0  0  0  0  0  0  0  0
   12.8984  -18.1780   19.9049 O   0  0  0  0  0  0  0  0  0  0  0  0
    9.5384  -15.6923   23.0968 C   0  0  0  0  0  0  0  0  0  0  0  0
    9.6087  -14.4606   22.7485 O   0  0  0  0  0  0  0  0  0  0  0  0
   11.6233  -18.0085   18.0212 O   0  0  0  0  0  0  0  0  0  0  0  0
    9.5942  -15.9071   24.5030 N   0  0  0  0  0  0  0  0  0  0  0  0
    8.8305  -15.0798   25.4338 C   0  0  1  0  0  0  0  0  0  0  0  0
    7.4318  -15.0281   24.8953 C   0  0  0  0  0  0  0  0  0  0  0  0
    6.4198  -14.3697   25.7536 C   0  0  0  0  0  0  0  0  0  0  0  0
    6.6108  -12.9016   25.9191 C   0  0  0  0  0  0  0  0  0  0  0  0
    5.5943  -12.1737   26.7355 C   0  0  0  0  0  0  0  0  0  0  0  0
    5.7503  -10.7632   26.8032 N   0  0  0  0  0  0  0  0  0  0  0  0
    8.9912  -15.4891   26.8148 C   0  0  0  0  0  0  0  0  0  0  0  0
    8.8842  -16.6992   27.1307 O   0  0  0  0  0  0  0  0  0  0  0  0
    9.2632  -14.5830   27.8081 O   0  0  0  0  0  0  0  0  0  0  0  0
  2  1  1  0
  3  5  1  0
  3  2  1  0
  4  3  2  0
  6  5  1  0
  6 11  1  0
  6  7  1  6
  8  7  1  0
  9  8  1  0
 10  9  2  0
 11 14  1  0
 12 11  2  0
 13  9  1  0
 14 15  1  0
 15 21  1  0
 15 16  1  6
 17 16  1  0
 18 17  1  0
 19 18  1  0
 20 19  1  0
 21 23  1  0
 22 21  2  0
M  END
$$$$
