KLQ.pdb
     RDKit          3D

 27 26  0  0  1  0  0  0  0  0999 V2000
   29.5632  -32.2698    2.8845 N   0  0  0  0  0  0  0  0  0  0  0  0
   30.9558  -32.5664    3.1152 C   0  0  1  0  0  0  0  0  0  0  0  0
   31.1305  -33.6662    4.1000 C   0  0  0  0  0  0  0  0  0  0  0  0
   30.7308  -33.3601    5.5029 C   0  0  0  0  0  0  0  0  0  0  0  0
   30.9535  -34.4559    6.4984 C   0  0  0  0  0  0  0  0  0  0  0  0
   30.3784  -34.0174    7.8504 C   0  0  0  0  0  0  0  0  0  0  0  0
   30.6564  -35.0025    8.8680 N   0  0  0  0  0  0  0  0  0  0  0  0
   31.5842  -32.9711    1.8195 C   0  0  0  0  0  0  0  0  0  0  0  0
   30.8857  -33.6034    0.9995 O   0  0  0  0  0  0  0  0  0  0  0  0
   34.8881  -32.2225   -2.2687 C   0  0  0  0  0  0  0  0  0  0  0  0
   35.6878  -32.7267   -1.0581 C   0  0  1  0  0  0  0  0  0  0  0  0
   37.0455  -32.1224   -1.1570 C   0  0  0  0  0  0  0  0  0  0  0  0
   34.9148  -32.3255    0.1512 C   0  0  0  0  0  0  0  0  0  0  0  0
   33.5731  -33.0124    0.2751 C   0  0  2  0  0  0  0  0  0  0  0  0
   32.9480  -32.6427    1.5276 N   0  0  0  0  0  0  0  0  0  0  0  0
   33.8629  -34.4749    0.3293 C   0  0  0  0  0  0  0  0  0  0  0  0
   33.9603  -35.0155    1.4580 O   0  0  0  0  0  0  0  0  0  0  0  0
   30.2055  -37.7463    1.2633 N   0  0  0  0  0  0  0  0  0  0  0  0
   31.2669  -38.6764    1.2392 C   0  0  0  0  0  0  0  0  0  0  0  0
   31.0941  -39.8139    1.7912 O   0  0  0  0  0  0  0  0  0  0  0  0
   32.5453  -38.3905    0.6040 C   0  0  0  0  0  0  0  0  0  0  0  0
   32.7215  -37.0651   -0.0175 C   0  0  0  0  0  0  0  0  0  0  0  0
   34.0274  -36.7337   -0.6592 C   0  0  2  0  0  0  0  0  0  0  0  0
   34.0304  -35.2684   -0.8096 N   0  0  0  0  0  0  0  0  0  0  0  0
   34.2333  -37.3795   -1.9442 C   0  0  0  0  0  0  0  0  0  0  0  0
   34.1458  -36.7628   -3.0623 O   0  0  0  0  0  0  0  0  0  0  0  0
   34.5536  -38.7286   -2.0623 O   0  0  0  0  0  0  0  0  0  0  0  0
  2  3  1  0
  2  1  1  6
  4  5  1  0
  4  3  1  0
  5  6  1  0
  6  7  1  0
  8  2  1  0
  9  8  2  0
 11 10  1  6
 12 11  1  0
 13 11  1  0
 14 13  1  1
 14 15  1  0
 15  8  1  0
 16 17  2  0
 16 14  1  0
 18 19  1  0
 19 20  2  0
 21 22  1  0
 21 19  1  0
 23 22  1  6
 23 24  1  0
 24 16  1  0
 25 23  1  0
 26 25  2  0
 27 25  1  0
M  END
$$$$
