KLQ.pdb
     RDKit          3D

 27 26  0  0  1  0  0  0  0  0999 V2000
   27.0567  -19.6128  -14.4873 N   0  0  0  0  0  0  0  0  0  0  0  0
   26.6882  -20.9664  -14.8223 C   0  0  1  0  0  0  0  0  0  0  0  0
   27.8800  -21.8416  -14.9753 C   0  0  0  0  0  0  0  0  0  0  0  0
   28.7802  -21.5296  -16.1216 C   0  0  0  0  0  0  0  0  0  0  0  0
   28.6161  -22.3932  -17.3335 C   0  0  0  0  0  0  0  0  0  0  0  0
   29.6537  -21.9735  -18.3815 C   0  0  0  0  0  0  0  0  0  0  0  0
   29.0783  -21.0493  -19.3292 N   0  0  0  0  0  0  0  0  0  0  0  0
   25.8207  -21.5141  -13.7338 C   0  0  0  0  0  0  0  0  0  0  0  0
   25.3532  -22.6635  -13.8769 O   0  0  0  0  0  0  0  0  0  0  0  0
   26.3877  -19.4804   -8.6526 C   0  0  0  0  0  0  0  0  0  0  0  0
   26.2905  -20.4556   -9.8354 C   0  0  1  0  0  0  0  0  0  0  0  0
   26.8105  -21.7665   -9.3564 C   0  0  0  0  0  0  0  0  0  0  0  0
   24.8597  -20.4683  -10.2516 C   0  0  0  0  0  0  0  0  0  0  0  0
   24.6068  -21.2029  -11.5493 C   0  0  2  0  0  0  0  0  0  0  0  0
   25.5344  -20.7424  -12.5610 N   0  0  0  0  0  0  0  0  0  0  0  0
   23.2341  -20.8112  -11.9833 C   0  0  0  0  0  0  0  0  0  0  0  0
   22.3399  -20.7267  -11.1064 O   0  0  0  0  0  0  0  0  0  0  0  0
   21.6604  -17.0249  -16.6678 N   0  0  0  0  0  0  0  0  0  0  0  0
   20.4318  -17.6320  -16.3296 C   0  0  0  0  0  0  0  0  0  0  0  0
   19.3653  -17.1993  -16.8807 O   0  0  0  0  0  0  0  0  0  0  0  0
   20.3366  -18.7348  -15.3839 C   0  0  0  0  0  0  0  0  0  0  0  0
   21.5837  -19.2126  -14.7592 C   0  0  0  0  0  0  0  0  0  0  0  0
   21.5021  -20.1863  -13.6313 C   0  0  2  0  0  0  0  0  0  0  0  0
   22.8971  -20.5352  -13.3118 N   0  0  0  0  0  0  0  0  0  0  0  0
   20.7344  -21.3810  -13.9384 C   0  0  0  0  0  0  0  0  0  0  0  0
   21.2491  -22.4337  -14.4531 O   0  0  0  0  0  0  0  0  0  0  0  0
   19.3693  -21.4799  -13.6869 O   0  0  0  0  0  0  0  0  0  0  0  0
  2  3  1  0
  2  1  1  1
  4  5  1  0
  4  3  1  0
  5  6  1  0
  6  7  1  0
  8  2  1  0
  9  8  2  0
 11 10  1  1
 12 11  1  0
 13 11  1  0
 14 13  1  1
 14 15  1  0
 15  8  1  0
 16 17  2  0
 16 14  1  0
 18 19  1  0
 19 20  2  0
 21 22  1  0
 21 19  1  0
 23 22  1  6
 23 24  1  0
 24 16  1  0
 25 23  1  0
 26 25  2  0
 27 25  1  0
M  END
$$$$
