KLQ.pdb
     RDKit          3D

 27 26  0  0  1  0  0  0  0  0999 V2000
   23.9414  -35.2144  -13.4510 N   0  0  0  0  0  0  0  0  0  0  0  0
   23.0299  -35.3467  -12.3409 C   0  0  1  0  0  0  0  0  0  0  0  0
   22.5297  -36.7394  -12.2000 C   0  0  0  0  0  0  0  0  0  0  0  0
   23.0714  -37.7324  -13.1707 C   0  0  0  0  0  0  0  0  0  0  0  0
   23.3118  -39.1080  -12.6310 C   0  0  0  0  0  0  0  0  0  0  0  0
   23.8274  -39.9996  -13.7668 C   0  0  0  0  0  0  0  0  0  0  0  0
   24.1286  -41.3247  -13.2802 N   0  0  0  0  0  0  0  0  0  0  0  0
   23.7404  -34.9569  -11.0837 C   0  0  0  0  0  0  0  0  0  0  0  0
   24.9827  -35.0819  -11.0476 O   0  0  0  0  0  0  0  0  0  0  0  0
   23.7353  -30.1588   -9.0790 C   0  0  0  0  0  0  0  0  0  0  0  0
   24.1908  -31.5860   -9.4184 C   0  0  1  0  0  0  0  0  0  0  0  0
   25.6566  -31.6429   -9.1604 C   0  0  0  0  0  0  0  0  0  0  0  0
   23.3738  -32.4994   -8.5706 C   0  0  0  0  0  0  0  0  0  0  0  0
   23.6905  -33.9650   -8.7695 C   0  0  2  0  0  0  0  0  0  0  0  0
   23.0168  -34.4547   -9.9537 N   0  0  0  0  0  0  0  0  0  0  0  0
   23.1093  -34.6750   -7.5930 C   0  0  0  0  0  0  0  0  0  0  0  0
   22.2264  -34.0840   -6.9245 O   0  0  0  0  0  0  0  0  0  0  0  0
   22.2267  -40.3525   -4.6301 N   0  0  0  0  0  0  0  0  0  0  0  0
   21.5722  -40.0296   -5.8383 C   0  0  0  0  0  0  0  0  0  0  0  0
   20.6105  -40.7721   -6.2286 O   0  0  0  0  0  0  0  0  0  0  0  0
   21.9471  -38.8807   -6.6501 C   0  0  0  0  0  0  0  0  0  0  0  0
   23.0612  -38.0396   -6.1755 C   0  0  0  0  0  0  0  0  0  0  0  0
   22.8477  -36.5699   -6.0287 C   0  0  2  0  0  0  0  0  0  0  0  0
   23.4981  -35.9595   -7.2010 N   0  0  0  0  0  0  0  0  0  0  0  0
   23.3877  -36.0160   -4.7989 C   0  0  0  0  0  0  0  0  0  0  0  0
   22.7474  -36.0096   -3.6908 O   0  0  0  0  0  0  0  0  0  0  0  0
   24.6579  -35.4521   -4.7251 O   0  0  0  0  0  0  0  0  0  0  0  0
  2  3  1  0
  2  1  1  6
  4  5  1  0
  4  3  1  0
  5  6  1  0
  6  7  1  0
  8  2  1  0
  9  8  2  0
 11 10  1  1
 12 11  1  0
 13 11  1  0
 14 13  1  1
 14 15  1  0
 15  8  1  0
 16 17  2  0
 16 14  1  0
 18 19  1  0
 19 20  2  0
 21 22  1  0
 21 19  1  0
 23 22  1  1
 23 24  1  0
 24 16  1  0
 25 23  1  0
 26 25  2  0
 27 25  1  0
M  END
$$$$
