KLQ.pdb
     RDKit          3D

 27 26  0  0  1  0  0  0  0  0999 V2000
   28.1663  -20.1029  -16.8947 N   0  0  0  0  0  0  0  0  0  0  0  0
   27.0117  -20.9675  -16.8987 C   0  0  1  0  0  0  0  0  0  0  0  0
   27.2785  -22.2417  -17.6163 C   0  0  0  0  0  0  0  0  0  0  0  0
   27.5169  -22.1309  -19.0834 C   0  0  0  0  0  0  0  0  0  0  0  0
   28.5653  -23.0406  -19.6444 C   0  0  0  0  0  0  0  0  0  0  0  0
   28.6782  -22.7907  -21.1529 C   0  0  0  0  0  0  0  0  0  0  0  0
   29.7924  -23.5198  -21.7100 N   0  0  0  0  0  0  0  0  0  0  0  0
   26.6353  -21.2767  -15.4845 C   0  0  0  0  0  0  0  0  0  0  0  0
   26.0714  -22.3665  -15.2511 O   0  0  0  0  0  0  0  0  0  0  0  0
   29.8364  -19.7772  -11.4381 C   0  0  0  0  0  0  0  0  0  0  0  0
   28.8864  -20.6197  -12.3025 C   0  0  1  0  0  0  0  0  0  0  0  0
   29.0408  -22.0333  -11.8594 C   0  0  0  0  0  0  0  0  0  0  0  0
   27.5235  -20.0508  -12.1039 C   0  0  0  0  0  0  0  0  0  0  0  0
   26.4889  -20.5917  -13.0655 C   0  0  2  0  0  0  0  0  0  0  0  0
   26.9136  -20.3495  -14.4282 N   0  0  0  0  0  0  0  0  0  0  0  0
   25.2507  -19.7935  -12.8296 C   0  0  0  0  0  0  0  0  0  0  0  0
   25.1400  -18.6893  -13.4163 O   0  0  0  0  0  0  0  0  0  0  0  0
   22.8441  -22.5609  -16.2003 N   0  0  0  0  0  0  0  0  0  0  0  0
   21.6409  -22.0237  -15.6941 C   0  0  0  0  0  0  0  0  0  0  0  0
   20.5616  -22.2250  -16.3445 O   0  0  0  0  0  0  0  0  0  0  0  0
   21.5839  -21.2570  -14.4578 C   0  0  0  0  0  0  0  0  0  0  0  0
   22.8530  -20.9917  -13.7558 C   0  0  0  0  0  0  0  0  0  0  0  0
   22.8322  -20.1814  -12.5028 C   0  0  2  0  0  0  0  0  0  0  0  0
   24.2133  -20.2132  -11.9915 N   0  0  0  0  0  0  0  0  0  0  0  0
   21.9043  -20.6727  -11.4986 C   0  0  0  0  0  0  0  0  0  0  0  0
   22.2702  -21.3470  -10.4742 O   0  0  0  0  0  0  0  0  0  0  0  0
   20.5340  -20.4394  -11.5662 O   0  0  0  0  0  0  0  0  0  0  0  0
  2  3  1  0
  2  1  1  1
  4  5  1  0
  4  3  1  0
  5  6  1  0
  6  7  1  0
  8  2  1  0
  9  8  2  0
 11 10  1  1
 12 11  1  0
 13 11  1  0
 14 13  1  1
 14 15  1  0
 15  8  1  0
 16 17  2  0
 16 14  1  0
 18 19  1  0
 19 20  2  0
 21 22  1  0
 21 19  1  0
 23 22  1  6
 23 24  1  0
 24 16  1  0
 25 23  1  0
 26 25  2  0
 27 25  1  0
M  END
$$$$
