KLQ.pdb
     RDKit          3D

 27 26  0  0  1  0  0  0  0  0999 V2000
   26.1744  -32.6866  -14.1108 N   0  0  0  0  0  0  0  0  0  0  0  0
   26.4963  -33.4655  -12.9402 C   0  0  1  0  0  0  0  0  0  0  0  0
   27.7655  -34.2203  -13.1109 C   0  0  0  0  0  0  0  0  0  0  0  0
   28.2991  -34.3008  -14.5003 C   0  0  0  0  0  0  0  0  0  0  0  0
   28.9593  -33.0610  -15.0184 C   0  0  0  0  0  0  0  0  0  0  0  0
   29.5195  -33.3487  -16.4163 C   0  0  0  0  0  0  0  0  0  0  0  0
   30.0890  -32.1551  -16.9945 N   0  0  0  0  0  0  0  0  0  0  0  0
   26.6334  -32.5442  -11.7699 C   0  0  0  0  0  0  0  0  0  0  0  0
   26.5235  -31.3165  -11.9722 O   0  0  0  0  0  0  0  0  0  0  0  0
   22.4558  -32.2706  -10.0046 C   0  0  0  0  0  0  0  0  0  0  0  0
   23.9106  -31.7777  -10.0121 C   0  0  1  0  0  0  0  0  0  0  0  0
   23.9290  -30.4791   -9.2829 C   0  0  0  0  0  0  0  0  0  0  0  0
   24.7221  -32.8569   -9.3816 C   0  0  0  0  0  0  0  0  0  0  0  0
   26.1977  -32.5381   -9.2895 C   0  0  2  0  0  0  0  0  0  0  0  0
   26.8836  -33.0552  -10.4550 N   0  0  0  0  0  0  0  0  0  0  0  0
   26.7058  -33.2812   -8.0997 C   0  0  0  0  0  0  0  0  0  0  0  0
   26.0344  -33.2286   -7.0404 O   0  0  0  0  0  0  0  0  0  0  0  0
   24.7074  -37.6933   -9.3513 N   0  0  0  0  0  0  0  0  0  0  0  0
   25.5272  -38.2685   -8.3565 C   0  0  0  0  0  0  0  0  0  0  0  0
   25.3223  -39.4834   -8.0244 O   0  0  0  0  0  0  0  0  0  0  0  0
   26.5990  -37.5321   -7.7019 C   0  0  0  0  0  0  0  0  0  0  0  0
   26.8019  -36.1246   -8.0914 C   0  0  0  0  0  0  0  0  0  0  0  0
   27.8971  -35.3445   -7.4442 C   0  0  2  0  0  0  0  0  0  0  0  0
   27.8871  -34.0291   -8.1071 N   0  0  0  0  0  0  0  0  0  0  0  0
   29.2070  -35.9631   -7.5564 C   0  0  0  0  0  0  0  0  0  0  0  0
   29.5424  -37.0190   -6.9157 O   0  0  0  0  0  0  0  0  0  0  0  0
   30.2060  -35.4580   -8.3831 O   0  0  0  0  0  0  0  0  0  0  0  0
  2  3  1  0
  2  1  1  6
  4  5  1  0
  4  3  1  0
  5  6  1  0
  6  7  1  0
  8  2  1  0
  9  8  2  0
 11 10  1  1
 12 11  1  0
 13 11  1  0
 14 13  1  6
 14 15  1  0
 15  8  1  0
 16 17  2  0
 16 14  1  0
 18 19  1  0
 19 20  2  0
 21 22  1  0
 21 19  1  0
 23 22  1  6
 23 24  1  0
 24 16  1  0
 25 23  1  0
 26 25  2  0
 27 25  1  0
M  END
$$$$
