SPV.pdb
     RDKit          3D

 21 21  0  0  1  0  0  0  0  0999 V2000
   14.2543  -13.5410  -15.0123 O   0  0  0  0  0  0  0  0  0  0  0  0
   15.4175  -12.8042  -15.0671 C   0  0  0  0  0  0  0  0  0  0  0  0
   16.1606  -13.2355  -16.3444 C   0  0  2  0  0  0  0  0  0  0  0  0
   16.4641  -14.6265  -16.3091 N   0  0  0  0  0  0  0  0  0  0  0  0
   17.3660  -12.4165  -16.5295 C   0  0  0  0  0  0  0  0  0  0  0  0
   18.3949  -12.8026  -15.8718 O   0  0  0  0  0  0  0  0  0  0  0  0
   17.3871  -11.2658  -17.3857 N   0  0  0  0  0  0  0  0  0  0  0  0
   16.3617  -10.9770  -18.3648 C   0  0  0  0  0  0  0  0  0  0  0  0
   16.7338   -9.6576  -18.9726 C   0  0  0  0  0  0  0  0  0  0  0  0
   17.6814   -9.0226  -17.9884 C   0  0  0  0  0  0  0  0  0  0  0  0
   18.3911  -10.2472  -17.4595 C   0  0  1  0  0  0  0  0  0  0  0  0
   19.1169   -9.9400  -16.2209 C   0  0  0  0  0  0  0  0  0  0  0  0
   18.5289   -9.9402  -15.1319 O   0  0  0  0  0  0  0  0  0  0  0  0
   23.1983  -10.1639  -13.6614 C   0  0  0  0  0  0  0  0  0  0  0  0
   22.4922  -10.3152  -15.0077 C   0  0  2  0  0  0  0  0  0  0  0  0
   23.4807   -9.9908  -16.0899 C   0  0  0  0  0  0  0  0  0  0  0  0
   21.2834   -9.4097  -15.0049 C   0  0  2  0  0  0  0  0  0  0  0  0
   20.5197   -9.6317  -16.2091 N   0  0  0  0  0  0  0  0  0  0  0  0
   21.6210   -7.9805  -14.8072 C   0  0  0  0  0  0  0  0  0  0  0  0
   21.9451   -7.5791  -13.6679 O   0  0  0  0  0  0  0  0  0  0  0  0
   21.5935   -7.0665  -15.8337 O   0  0  0  0  0  0  0  0  0  0  0  0
  2  1  1  0
  2  3  1  0
  3  4  1  1
  5  3  1  0
  6  5  2  0
  7  5  1  0
  8  7  1  0
  9  8  1  0
 10  9  1  0
 10 11  1  0
 11  7  1  0
 11 12  1  1
 12 18  1  0
 13 12  2  0
 15 14  1  1
 15 16  1  0
 17 15  1  0
 17 18  1  6
 19 17  1  0
 19 21  1  0
 20 19  2  0
M  END
$$$$
