SPV.pdb
     RDKit          3D

 21 21  0  0  1  0  0  0  0  0999 V2000
   21.6076  -12.2020  -20.4035 O   0  0  0  0  0  0  0  0  0  0  0  0
   21.5005  -11.2528  -19.4105 C   0  0  0  0  0  0  0  0  0  0  0  0
   21.1283  -11.9989  -18.1164 C   0  0  2  0  0  0  0  0  0  0  0  0
   19.8229  -12.5601  -18.2124 N   0  0  0  0  0  0  0  0  0  0  0  0
   21.2548  -11.1011  -16.9605 C   0  0  0  0  0  0  0  0  0  0  0  0
   20.2870  -10.2777  -16.8000 O   0  0  0  0  0  0  0  0  0  0  0  0
   22.3832  -11.1443  -16.0761 N   0  0  0  0  0  0  0  0  0  0  0  0
   23.2310  -12.3057  -15.9154 C   0  0  0  0  0  0  0  0  0  0  0  0
   24.3182  -11.8931  -14.9685 C   0  0  0  0  0  0  0  0  0  0  0  0
   24.3218  -10.3870  -15.0035 C   0  0  0  0  0  0  0  0  0  0  0  0
   22.8490  -10.1122  -15.1992 C   0  0  1  0  0  0  0  0  0  0  0  0
   22.6255   -8.7261  -15.6284 C   0  0  0  0  0  0  0  0  0  0  0  0
   22.9808   -8.3519  -16.7533 O   0  0  0  0  0  0  0  0  0  0  0  0
   19.5301   -6.3332  -14.4529 C   0  0  0  0  0  0  0  0  0  0  0  0
   20.5047   -6.0414  -15.5926 C   0  0  2  0  0  0  0  0  0  0  0  0
   20.0915   -6.8631  -16.7791 C   0  0  0  0  0  0  0  0  0  0  0  0
   21.9002   -6.3488  -15.1035 C   0  0  2  0  0  0  0  0  0  0  0  0
   21.9934   -7.7527  -14.7823 N   0  0  0  0  0  0  0  0  0  0  0  0
   22.3323   -5.4840  -13.9805 C   0  0  0  0  0  0  0  0  0  0  0  0
   22.6679   -4.3015  -14.2115 O   0  0  0  0  0  0  0  0  0  0  0  0
   22.3806   -5.9302  -12.6811 O   0  0  0  0  0  0  0  0  0  0  0  0
  2  1  1  0
  2  3  1  0
  3  4  1  6
  5  3  1  0
  6  5  2  0
  7  5  1  0
  8  7  1  0
  9  8  1  0
 10  9  1  0
 10 11  1  0
 11  7  1  0
 11 12  1  6
 12 18  1  0
 13 12  2  0
 15 14  1  1
 15 16  1  0
 17 15  1  0
 17 18  1  1
 19 17  1  0
 19 21  1  0
 20 19  2  0
M  END
$$$$
