SPV.pdb
     RDKit          3D

 21 21  0  0  1  0  0  0  0  0999 V2000
   19.6085   -9.0220  -18.3026 O   0  0  0  0  0  0  0  0  0  0  0  0
   20.6132   -8.5848  -17.4671 C   0  0  0  0  0  0  0  0  0  0  0  0
   20.1106   -8.7763  -16.0247 C   0  0  2  0  0  0  0  0  0  0  0  0
   19.0504   -9.7260  -15.9791 N   0  0  0  0  0  0  0  0  0  0  0  0
   19.7128   -7.4835  -15.4516 C   0  0  0  0  0  0  0  0  0  0  0  0
   18.5132   -7.1172  -15.7108 O   0  0  0  0  0  0  0  0  0  0  0  0
   20.6059   -6.6885  -14.6593 N   0  0  0  0  0  0  0  0  0  0  0  0
   21.7671   -7.2234  -13.9817 C   0  0  0  0  0  0  0  0  0  0  0  0
   22.4498   -6.0487  -13.3468 C   0  0  0  0  0  0  0  0  0  0  0  0
   21.9254   -4.8426  -14.0817 C   0  0  0  0  0  0  0  0  0  0  0  0
   20.5111   -5.2891  -14.3705 C   0  0  1  0  0  0  0  0  0  0  0  0
   19.8912   -4.4406  -15.3958 C   0  0  0  0  0  0  0  0  0  0  0  0
   20.0989   -4.6538  -16.5971 O   0  0  0  0  0  0  0  0  0  0  0  0
   16.2554   -1.8640  -17.0893 C   0  0  0  0  0  0  0  0  0  0  0  0
   16.8985   -2.7481  -16.0222 C   0  0  2  0  0  0  0  0  0  0  0  0
   16.2575   -2.4257  -14.7036 C   0  0  0  0  0  0  0  0  0  0  0  0
   18.3879   -2.4984  -16.0450 C   0  0  2  0  0  0  0  0  0  0  0  0
   19.0270   -3.3424  -15.0642 N   0  0  0  0  0  0  0  0  0  0  0  0
   18.7462   -1.0702  -15.8787 C   0  0  0  0  0  0  0  0  0  0  0  0
   18.9031   -0.6077  -14.7274 O   0  0  0  0  0  0  0  0  0  0  0  0
   18.9159   -0.2223  -16.9474 O   0  0  0  0  0  0  0  0  0  0  0  0
  2  1  1  0
  2  3  1  0
  3  4  1  6
  5  3  1  0
  6  5  2  0
  7  5  1  0
  8  7  1  0
  9  8  1  0
 10  9  1  0
 10 11  1  0
 11  7  1  0
 11 12  1  6
 12 18  1  0
 13 12  2  0
 15 14  1  6
 15 16  1  0
 17 15  1  0
 17 18  1  1
 19 17  1  0
 19 21  1  0
 20 19  2  0
M  END
$$$$
