SPV.pdb
     RDKit          3D

 21 21  0  0  1  0  0  0  0  0999 V2000
   26.4554  -21.5722  -18.4192 O   0  0  0  0  0  0  0  0  0  0  0  0
   27.3710  -22.5635  -18.1408 C   0  0  0  0  0  0  0  0  0  0  0  0
   28.5472  -21.8932  -17.4079 C   0  0  2  0  0  0  0  0  0  0  0  0
   29.6565  -22.7811  -17.3112 N   0  0  0  0  0  0  0  0  0  0  0  0
   28.1138  -21.4128  -16.0890 C   0  0  0  0  0  0  0  0  0  0  0  0
   28.0028  -22.3162  -15.1880 O   0  0  0  0  0  0  0  0  0  0  0  0
   27.8341  -20.0298  -15.8307 N   0  0  0  0  0  0  0  0  0  0  0  0
   28.2287  -18.9542  -16.7143 C   0  0  0  0  0  0  0  0  0  0  0  0
   27.6735  -17.6999  -16.1083 C   0  0  0  0  0  0  0  0  0  0  0  0
   26.5868  -18.1609  -15.1722 C   0  0  0  0  0  0  0  0  0  0  0  0
   27.1734  -19.4677  -14.6912 C   0  0  1  0  0  0  0  0  0  0  0  0
   26.1496  -20.2961  -14.0423 C   0  0  0  0  0  0  0  0  0  0  0  0
   25.4357  -21.0523  -14.7133 O   0  0  0  0  0  0  0  0  0  0  0  0
   25.4104  -20.1163   -9.7361 C   0  0  0  0  0  0  0  0  0  0  0  0
   25.3696  -21.3972  -10.5676 C   0  0  2  0  0  0  0  0  0  0  0  0
   26.7379  -22.0141  -10.5382 C   0  0  0  0  0  0  0  0  0  0  0  0
   24.9012  -21.0365  -11.9575 C   0  0  2  0  0  0  0  0  0  0  0  0
   25.9295  -20.2736  -12.6231 N   0  0  0  0  0  0  0  0  0  0  0  0
   23.5889  -20.3485  -11.9745 C   0  0  0  0  0  0  0  0  0  0  0  0
   23.5463  -19.1146  -12.1736 O   0  0  0  0  0  0  0  0  0  0  0  0
   22.4029  -21.0157  -11.7790 O   0  0  0  0  0  0  0  0  0  0  0  0
  2  1  1  0
  2  3  1  0
  3  4  1  1
  5  3  1  0
  6  5  2  0
  7  5  1  0
  8  7  1  0
  9  8  1  0
 10  9  1  0
 10 11  1  0
 11  7  1  0
 11 12  1  6
 12 18  1  0
 13 12  2  0
 15 14  1  1
 15 16  1  0
 17 15  1  0
 17 18  1  1
 19 17  1  0
 19 21  1  0
 20 19  2  0
M  END
$$$$
