SPV.pdb
     RDKit          3D

 21 21  0  0  1  0  0  0  0  0999 V2000
   20.6795  -11.5322  -20.3737 O   0  0  0  0  0  0  0  0  0  0  0  0
   20.6824  -10.6252  -19.3365 C   0  0  0  0  0  0  0  0  0  0  0  0
   20.5709  -11.4360  -18.0327 C   0  0  2  0  0  0  0  0  0  0  0  0
   19.3150  -12.1029  -17.9563 N   0  0  0  0  0  0  0  0  0  0  0  0
   20.7990  -10.5634  -16.8731 C   0  0  0  0  0  0  0  0  0  0  0  0
   19.8442   -9.7536  -16.6028 O   0  0  0  0  0  0  0  0  0  0  0  0
   22.0063  -10.6151  -16.1003 N   0  0  0  0  0  0  0  0  0  0  0  0
   22.8502  -11.7869  -16.0105 C   0  0  0  0  0  0  0  0  0  0  0  0
   24.0284  -11.3819  -15.1758 C   0  0  0  0  0  0  0  0  0  0  0  0
   24.0484   -9.8763  -15.2251 C   0  0  0  0  0  0  0  0  0  0  0  0
   22.5673   -9.5826  -15.2816 C   0  0  1  0  0  0  0  0  0  0  0  0
   22.3219   -8.1971  -15.7004 C   0  0  0  0  0  0  0  0  0  0  0  0
   22.5432   -7.8447  -16.8660 O   0  0  0  0  0  0  0  0  0  0  0  0
   19.4532   -6.2804  -16.1514 C   0  0  0  0  0  0  0  0  0  0  0  0
   20.1802   -5.4592  -15.0879 C   0  0  2  0  0  0  0  0  0  0  0  0
   19.9004   -4.0078  -15.3500 C   0  0  0  0  0  0  0  0  0  0  0  0
   21.6479   -5.8104  -15.1498 C   0  0  2  0  0  0  0  0  0  0  0  0
   21.8201   -7.1992  -14.7973 N   0  0  0  0  0  0  0  0  0  0  0  0
   22.5010   -4.9126  -14.3363 C   0  0  0  0  0  0  0  0  0  0  0  0
   22.6165   -5.1228  -13.1089 O   0  0  0  0  0  0  0  0  0  0  0  0
   23.1790   -3.8468  -14.8788 O   0  0  0  0  0  0  0  0  0  0  0  0
  2  1  1  0
  2  3  1  0
  3  4  1  1
  5  3  1  0
  6  5  2  0
  7  5  1  0
  8  7  1  0
  9  8  1  0
 10  9  1  0
 10 11  1  0
 11  7  1  0
 11 12  1  6
 12 18  1  0
 13 12  2  0
 15 14  1  6
 15 16  1  0
 17 15  1  0
 17 18  1  1
 19 17  1  0
 19 21  1  0
 20 19  2  0
M  END
$$$$
