SPV.pdb
     RDKit          3D

 21 21  0  0  1  0  0  0  0  0999 V2000
   18.0614   -8.4041  -17.8532 O   0  0  0  0  0  0  0  0  0  0  0  0
   17.8199   -8.2056  -16.5112 C   0  0  0  0  0  0  0  0  0  0  0  0
   18.5105   -9.3564  -15.7572 C   0  0  2  0  0  0  0  0  0  0  0  0
   17.9821  -10.6159  -16.1604 N   0  0  0  0  0  0  0  0  0  0  0  0
   18.3945   -9.1528  -14.3071 C   0  0  0  0  0  0  0  0  0  0  0  0
   17.2877   -9.5357  -13.7886 O   0  0  0  0  0  0  0  0  0  0  0  0
   19.4465   -8.5656  -13.5286 N   0  0  0  0  0  0  0  0  0  0  0  0
   20.8303   -8.5297  -13.9499 C   0  0  0  0  0  0  0  0  0  0  0  0
   21.5634   -7.7654  -12.8881 C   0  0  0  0  0  0  0  0  0  0  0  0
   20.5004   -6.9894  -12.1549 C   0  0  0  0  0  0  0  0  0  0  0  0
   19.3457   -7.9607  -12.2344 C   0  0  1  0  0  0  0  0  0  0  0  0
   18.0772   -7.2969  -11.9093 C   0  0  0  0  0  0  0  0  0  0  0  0
   17.5188   -6.5684  -12.7396 O   0  0  0  0  0  0  0  0  0  0  0  0
   13.9037   -6.8820   -9.5426 C   0  0  0  0  0  0  0  0  0  0  0  0
   15.1158   -7.6851  -10.0113 C   0  0  2  0  0  0  0  0  0  0  0  0
   15.4092   -8.7309   -8.9751 C   0  0  0  0  0  0  0  0  0  0  0  0
   16.2567   -6.7207  -10.2338 C   0  0  2  0  0  0  0  0  0  0  0  0
   17.4305   -7.4572  -10.6369 N   0  0  0  0  0  0  0  0  0  0  0  0
   16.5160   -5.8398   -9.0709 C   0  0  0  0  0  0  0  0  0  0  0  0
   15.8231   -4.8104   -8.9153 O   0  0  0  0  0  0  0  0  0  0  0  0
   17.4960   -6.1085   -8.1451 O   0  0  0  0  0  0  0  0  0  0  0  0
  2  1  1  0
  2  3  1  0
  3  4  1  1
  5  3  1  0
  6  5  2  0
  7  5  1  0
  8  7  1  0
  9  8  1  0
 10  9  1  0
 10 11  1  0
 11  7  1  0
 11 12  1  6
 12 18  1  0
 13 12  2  0
 15 14  1  1
 15 16  1  0
 17 15  1  0
 17 18  1  1
 19 17  1  0
 19 21  1  0
 20 19  2  0
M  END
$$$$
