SPV.pdb
     RDKit          3D

 21 21  0  0  1  0  0  0  0  0999 V2000
   13.7663   -6.7648  -18.2079 O   0  0  0  0  0  0  0  0  0  0  0  0
   14.8974   -6.9716  -17.4487 C   0  0  0  0  0  0  0  0  0  0  0  0
   15.5252   -8.2917  -17.9315 C   0  0  2  0  0  0  0  0  0  0  0  0
   14.7155   -9.4033  -17.5614 N   0  0  0  0  0  0  0  0  0  0  0  0
   16.8958   -8.4176  -17.4182 C   0  0  0  0  0  0  0  0  0  0  0  0
   16.9897   -8.7968  -16.1985 O   0  0  0  0  0  0  0  0  0  0  0  0
   18.0464   -8.1346  -18.2268 N   0  0  0  0  0  0  0  0  0  0  0  0
   18.0126   -8.0657  -19.6716 C   0  0  0  0  0  0  0  0  0  0  0  0
   19.3960   -7.6727  -20.0967 C   0  0  0  0  0  0  0  0  0  0  0  0
   20.0297   -7.0694  -18.8703 C   0  0  0  0  0  0  0  0  0  0  0  0
   19.3910   -7.9092  -17.7886 C   0  0  1  0  0  0  0  0  0  0  0  0
   19.5637   -7.2874  -16.4699 C   0  0  0  0  0  0  0  0  0  0  0  0
   18.7428   -6.4602  -16.0533 O   0  0  0  0  0  0  0  0  0  0  0  0
   21.3877   -7.4945  -11.9447 C   0  0  0  0  0  0  0  0  0  0  0  0
   21.1994   -8.1298  -13.3212 C   0  0  2  0  0  0  0  0  0  0  0  0
   22.4585   -8.8704  -13.6672 C   0  0  0  0  0  0  0  0  0  0  0  0
   20.8589   -7.0307  -14.2997 C   0  0  2  0  0  0  0  0  0  0  0  0
   20.6711   -7.6026  -15.6113 N   0  0  0  0  0  0  0  0  0  0  0  0
   21.8428   -5.9227  -14.3036 C   0  0  0  0  0  0  0  0  0  0  0  0
   21.8398   -5.0970  -13.3643 O   0  0  0  0  0  0  0  0  0  0  0  0
   22.7693   -5.7616  -15.3063 O   0  0  0  0  0  0  0  0  0  0  0  0
  2  1  1  0
  2  3  1  0
  3  4  1  1
  5  3  1  0
  6  5  2  0
  7  5  1  0
  8  7  1  0
  9  8  1  0
 10  9  1  0
 10 11  1  0
 11  7  1  0
 11 12  1  1
 12 18  1  0
 13 12  2  0
 15 14  1  1
 15 16  1  0
 17 15  1  0
 17 18  1  6
 19 17  1  0
 19 21  1  0
 20 19  2  0
M  END
$$$$
