SPV.pdb
     RDKit          3D

 21 21  0  0  1  0  0  0  0  0999 V2000
   15.6039  -13.9407  -18.2123 O   0  0  0  0  0  0  0  0  0  0  0  0
   16.6601  -13.2245  -17.6926 C   0  0  0  0  0  0  0  0  0  0  0  0
   17.7845  -13.2591  -18.7435 C   0  0  2  0  0  0  0  0  0  0  0  0
   18.2881  -14.5816  -18.9037 N   0  0  0  0  0  0  0  0  0  0  0  0
   18.8451  -12.3094  -18.3812 C   0  0  0  0  0  0  0  0  0  0  0  0
   19.6338  -12.7003  -17.4508 O   0  0  0  0  0  0  0  0  0  0  0  0
   18.9854  -11.0348  -19.0241 N   0  0  0  0  0  0  0  0  0  0  0  0
   18.3810  -10.7093  -20.2978 C   0  0  0  0  0  0  0  0  0  0  0  0
   18.7132   -9.2696  -20.5543 C   0  0  0  0  0  0  0  0  0  0  0  0
   19.0784   -8.7025  -19.2073 C   0  0  0  0  0  0  0  0  0  0  0  0
   19.7389   -9.9040  -18.5721 C   0  0  1  0  0  0  0  0  0  0  0  0
   19.8648   -9.7280  -17.1201 C   0  0  0  0  0  0  0  0  0  0  0  0
   18.8754   -9.8427  -16.3854 O   0  0  0  0  0  0  0  0  0  0  0  0
   22.5179   -9.9995  -13.0728 C   0  0  0  0  0  0  0  0  0  0  0  0
   22.4120  -10.1434  -14.5900 C   0  0  2  0  0  0  0  0  0  0  0  0
   23.7430   -9.7851  -15.1848 C   0  0  0  0  0  0  0  0  0  0  0  0
   21.2826   -9.2600  -15.0648 C   0  0  2  0  0  0  0  0  0  0  0  0
   21.1184   -9.4219  -16.4894 N   0  0  0  0  0  0  0  0  0  0  0  0
   21.4442   -7.8398  -14.6740 C   0  0  0  0  0  0  0  0  0  0  0  0
   21.9765   -7.0404  -15.4750 O   0  0  0  0  0  0  0  0  0  0  0  0
   21.0294   -7.3576  -13.4552 O   0  0  0  0  0  0  0  0  0  0  0  0
  2  1  1  0
  2  3  1  0
  3  4  1  1
  5  3  1  0
  6  5  2  0
  7  5  1  0
  8  7  1  0
  9  8  1  0
 10  9  1  0
 10 11  1  0
 11  7  1  0
 11 12  1  1
 12 18  1  0
 13 12  2  0
 15 14  1  1
 15 16  1  0
 17 15  1  0
 17 18  1  6
 19 17  1  0
 19 21  1  0
 20 19  2  0
M  END
$$$$
