SPV.pdb
     RDKit          3D

 21 21  0  0  1  0  0  0  0  0999 V2000
   26.9284  -19.1107  -15.6128 O   0  0  0  0  0  0  0  0  0  0  0  0
   27.5741  -19.2943  -14.4095 C   0  0  0  0  0  0  0  0  0  0  0  0
   27.4999  -20.7977  -14.0866 C   0  0  2  0  0  0  0  0  0  0  0  0
   27.9321  -21.5767  -15.1976 N   0  0  0  0  0  0  0  0  0  0  0  0
   26.1406  -21.1573  -13.6613 C   0  0  0  0  0  0  0  0  0  0  0  0
   25.3555  -21.5323  -14.6012 O   0  0  0  0  0  0  0  0  0  0  0  0
   25.7235  -21.0917  -12.2905 N   0  0  0  0  0  0  0  0  0  0  0  0
   26.6435  -21.0416  -11.1749 C   0  0  0  0  0  0  0  0  0  0  0  0
   25.7936  -20.9018   -9.9472 C   0  0  0  0  0  0  0  0  0  0  0  0
   24.4633  -20.3978  -10.4431 C   0  0  0  0  0  0  0  0  0  0  0  0
   24.3852  -21.0961  -11.7808 C   0  0  1  0  0  0  0  0  0  0  0  0
   23.3502  -20.4924  -12.6291 C   0  0  0  0  0  0  0  0  0  0  0  0
   23.4558  -19.3196  -13.0103 O   0  0  0  0  0  0  0  0  0  0  0  0
   20.9439  -22.7634  -15.0736 C   0  0  0  0  0  0  0  0  0  0  0  0
   21.1433  -21.2564  -15.2249 C   0  0  2  0  0  0  0  0  0  0  0  0
   22.4303  -21.0299  -15.9638 C   0  0  0  0  0  0  0  0  0  0  0  0
   21.1248  -20.6424  -13.8451 C   0  0  2  0  0  0  0  0  0  0  0  0
   22.1856  -21.2179  -13.0539 N   0  0  0  0  0  0  0  0  0  0  0  0
   19.8061  -20.7409  -13.1765 C   0  0  0  0  0  0  0  0  0  0  0  0
   18.8506  -20.0550  -13.6015 O   0  0  0  0  0  0  0  0  0  0  0  0
   19.5851  -21.5633  -12.0973 O   0  0  0  0  0  0  0  0  0  0  0  0
  2  1  1  0
  2  3  1  0
  3  4  1  6
  5  3  1  0
  6  5  2  0
  7  5  1  0
  8  7  1  0
  9  8  1  0
 10  9  1  0
 10 11  1  0
 11  7  1  0
 11 12  1  6
 12 18  1  0
 13 12  2  0
 15 14  1  1
 15 16  1  0
 17 15  1  0
 17 18  1  1
 19 17  1  0
 19 21  1  0
 20 19  2  0
M  END
$$$$
