SPV.pdb
     RDKit          3D

 21 21  0  0  1  0  0  0  0  0999 V2000
   22.4491  -12.6404  -16.3497 O   0  0  0  0  0  0  0  0  0  0  0  0
   21.1140  -12.7387  -16.6758 C   0  0  0  0  0  0  0  0  0  0  0  0
   20.9031  -11.9071  -17.9540 C   0  0  2  0  0  0  0  0  0  0  0  0
   21.8826  -12.2299  -18.9361 N   0  0  0  0  0  0  0  0  0  0  0  0
   20.9029  -10.4740  -17.6311 C   0  0  0  0  0  0  0  0  0  0  0  0
   22.0531   -9.9106  -17.6461 O   0  0  0  0  0  0  0  0  0  0  0  0
   19.6994   -9.7583  -17.3201 N   0  0  0  0  0  0  0  0  0  0  0  0
   18.3718  -10.2798  -17.5632 C   0  0  0  0  0  0  0  0  0  0  0  0
   17.4217   -9.2525  -17.0240 C   0  0  0  0  0  0  0  0  0  0  0  0
   18.2395   -8.4191  -16.0721 C   0  0  0  0  0  0  0  0  0  0  0  0
   19.5807   -8.4423  -16.7678 C   0  0  1  0  0  0  0  0  0  0  0  0
   20.6500   -8.0039  -15.8624 C   0  0  0  0  0  0  0  0  0  0  0  0
   21.1188   -8.7813  -15.0212 O   0  0  0  0  0  0  0  0  0  0  0  0
   22.9244   -4.5596  -16.7507 C   0  0  0  0  0  0  0  0  0  0  0  0
   23.4200   -5.7479  -15.9284 C   0  0  2  0  0  0  0  0  0  0  0  0
   23.9270   -6.7924  -16.8800 C   0  0  0  0  0  0  0  0  0  0  0  0
   22.2779   -6.2251  -15.0628 C   0  0  2  0  0  0  0  0  0  0  0  0
   21.1979   -6.6769  -15.9067 N   0  0  0  0  0  0  0  0  0  0  0  0
   21.8340   -5.2190  -14.0696 C   0  0  0  0  0  0  0  0  0  0  0  0
   22.5980   -4.9068  -13.1300 O   0  0  0  0  0  0  0  0  0  0  0  0
   20.6049   -4.6069  -14.1374 O   0  0  0  0  0  0  0  0  0  0  0  0
  2  1  1  0
  2  3  1  0
  3  4  1  6
  5  3  1  0
  6  5  2  0
  7  5  1  0
  8  7  1  0
  9  8  1  0
 10  9  1  0
 10 11  1  0
 11  7  1  0
 11 12  1  1
 12 18  1  0
 13 12  2  0
 15 14  1  6
 15 16  1  0
 17 15  1  0
 17 18  1  6
 19 17  1  0
 19 21  1  0
 20 19  2  0
M  END
$$$$
