IDV.pdb
     RDKit          3D

 24 23  0  0  1  0  0  0  0  0999 V2000
    7.4088  -11.9882   19.7744 C   0  0  0  0  0  0  0  0  0  0  0  0
    7.4412  -13.4994   19.7909 C   0  0  0  0  0  0  0  0  0  0  0  0
    7.9241  -14.0883   21.0596 C   0  0  2  0  0  0  0  0  0  0  0  0
    9.2813  -13.5889   21.4226 C   0  0  0  0  0  0  0  0  0  0  0  0
    7.8543  -15.6173   21.0604 C   0  0  2  0  0  0  0  0  0  0  0  0
    6.4976  -16.0482   20.7770 N   0  0  0  0  0  0  0  0  0  0  0  0
    8.2030  -16.1508   22.4073 C   0  0  0  0  0  0  0  0  0  0  0  0
    7.3060  -16.2220   23.2655 O   0  0  0  0  0  0  0  0  0  0  0  0
    9.5143  -16.5675   22.7182 N   0  0  0  0  0  0  0  0  0  0  0  0
    9.8260  -17.2384   23.9941 C   0  0  1  0  0  0  0  0  0  0  0  0
   10.7553  -18.3788   23.7669 C   0  0  0  0  0  0  0  0  0  0  0  0
   11.2212  -19.0928   24.9654 C   0  0  0  0  0  0  0  0  0  0  0  0
   10.4516  -19.2190   25.9535 O   0  0  0  0  0  0  0  0  0  0  0  0
   10.2244  -16.2361   24.9890 C   0  0  0  0  0  0  0  0  0  0  0  0
   11.2872  -15.5291   24.7423 O   0  0  0  0  0  0  0  0  0  0  0  0
   12.4870  -19.6546   25.0875 O   0  0  0  0  0  0  0  0  0  0  0  0
    9.0852  -13.0196   26.1785 C   0  0  0  0  0  0  0  0  0  0  0  0
    9.2442  -13.8088   27.4650 C   0  0  1  0  0  0  0  0  0  0  0  0
    7.9059  -14.0349   28.1051 C   0  0  0  0  0  0  0  0  0  0  0  0
   10.0476  -15.0476   27.2389 C   0  0  2  0  0  0  0  0  0  0  0  0
    9.6029  -15.9135   26.1991 N   0  0  0  0  0  0  0  0  0  0  0  0
   10.5183  -15.6685   28.4999 C   0  0  0  0  0  0  0  0  0  0  0  0
   11.1672  -15.0104   29.4863 O   0  0  0  0  0  0  0  0  0  0  0  0
   10.2735  -16.8964   28.6273 O   0  0  0  0  0  0  0  0  0  0  0  0
  1  2  1  0
  2  3  1  0
  3  5  1  0
  3  4  1  6
  5  7  1  0
  5  6  1  1
  7  8  2  0
  9 10  1  0
  9  7  1  0
 10 14  1  0
 10 11  1  6
 12 13  2  0
 12 11  1  0
 14 15  2  0
 14 21  1  0
 16 12  1  0
 18 17  1  6
 18 20  1  0
 18 19  1  0
 20 22  1  0
 20 21  1  1
 22 24  2  0
 22 23  1  0
M  END
$$$$
