IDV.pdb
     RDKit          3D

 24 23  0  0  1  0  0  0  0  0999 V2000
    7.0358  -11.9800   20.0936 C   0  0  0  0  0  0  0  0  0  0  0  0
    7.7732  -13.2694   19.8134 C   0  0  0  0  0  0  0  0  0  0  0  0
    8.1253  -14.0490   21.0208 C   0  0  2  0  0  0  0  0  0  0  0  0
    8.8246  -13.2124   22.0378 C   0  0  0  0  0  0  0  0  0  0  0  0
    8.9054  -15.3234   20.6891 C   0  0  2  0  0  0  0  0  0  0  0  0
    8.1319  -16.1520   19.7826 N   0  0  0  0  0  0  0  0  0  0  0  0
    9.1303  -16.1287   21.9226 C   0  0  0  0  0  0  0  0  0  0  0  0
    8.1549  -16.6973   22.4435 O   0  0  0  0  0  0  0  0  0  0  0  0
   10.4118  -16.2514   22.4992 N   0  0  0  0  0  0  0  0  0  0  0  0
   10.6163  -16.9629   23.7748 C   0  0  1  0  0  0  0  0  0  0  0  0
   11.7049  -17.9690   23.6388 C   0  0  0  0  0  0  0  0  0  0  0  0
   11.4947  -19.0308   22.6430 C   0  0  0  0  0  0  0  0  0  0  0  0
   10.3548  -19.5499   22.5174 O   0  0  0  0  0  0  0  0  0  0  0  0
   10.7362  -15.9878   24.8647 C   0  0  0  0  0  0  0  0  0  0  0  0
   11.6792  -15.0971   24.7776 O   0  0  0  0  0  0  0  0  0  0  0  0
   12.4940  -19.5152   21.8066 O   0  0  0  0  0  0  0  0  0  0  0  0
    9.4979  -12.8650   26.2357 C   0  0  0  0  0  0  0  0  0  0  0  0
    9.2716  -13.8809   27.3402 C   0  0  1  0  0  0  0  0  0  0  0  0
    7.8117  -14.2090   27.4539 C   0  0  0  0  0  0  0  0  0  0  0  0
   10.1683  -15.0639   27.1733 C   0  0  2  0  0  0  0  0  0  0  0  0
    9.9534  -15.8670   26.0168 N   0  0  0  0  0  0  0  0  0  0  0  0
   10.4528  -15.7574   28.4520 C   0  0  0  0  0  0  0  0  0  0  0  0
   10.9157  -15.1530   29.5690 O   0  0  0  0  0  0  0  0  0  0  0  0
   10.2303  -16.9961   28.4614 O   0  0  0  0  0  0  0  0  0  0  0  0
  1  2  1  0
  2  3  1  0
  3  5  1  0
  3  4  1  1
  5  7  1  0
  5  6  1  6
  7  8  2  0
  9 10  1  0
  9  7  1  0
 10 14  1  0
 10 11  1  6
 12 13  2  0
 12 11  1  0
 14 15  2  0
 14 21  1  0
 16 12  1  0
 18 17  1  6
 18 20  1  0
 18 19  1  0
 20 22  1  0
 20 21  1  6
 22 24  2  0
 22 23  1  0
M  END
$$$$
