IDV.pdb
     RDKit          3D

 24 23  0  0  1  0  0  0  0  0999 V2000
    7.5722  -11.8254   20.9843 C   0  0  0  0  0  0  0  0  0  0  0  0
    7.2818  -13.3072   21.0553 C   0  0  0  0  0  0  0  0  0  0  0  0
    8.0314  -14.1263   20.0772 C   0  0  2  0  0  0  0  0  0  0  0  0
    7.8854  -13.6046   18.6880 C   0  0  0  0  0  0  0  0  0  0  0  0
    7.6868  -15.6145   20.1722 C   0  0  2  0  0  0  0  0  0  0  0  0
    6.2751  -15.8112   19.8981 N   0  0  0  0  0  0  0  0  0  0  0  0
    7.9308  -16.1153   21.5543 C   0  0  0  0  0  0  0  0  0  0  0  0
    6.9652  -16.1948   22.3335 O   0  0  0  0  0  0  0  0  0  0  0  0
    9.2203  -16.4923   21.9846 N   0  0  0  0  0  0  0  0  0  0  0  0
    9.4557  -17.0126   23.3444 C   0  0  1  0  0  0  0  0  0  0  0  0
   10.5240  -18.0490   23.3254 C   0  0  0  0  0  0  0  0  0  0  0  0
   10.9737  -18.5501   24.6330 C   0  0  0  0  0  0  0  0  0  0  0  0
   10.1265  -18.9715   25.4632 O   0  0  0  0  0  0  0  0  0  0  0  0
    9.6260  -15.8905   24.2745 C   0  0  0  0  0  0  0  0  0  0  0  0
   10.6569  -15.1166   24.1054 O   0  0  0  0  0  0  0  0  0  0  0  0
   12.3059  -18.5932   25.0280 O   0  0  0  0  0  0  0  0  0  0  0  0
    6.6174  -13.8002   26.4878 C   0  0  0  0  0  0  0  0  0  0  0  0
    8.0403  -13.3321   26.2437 C   0  0  1  0  0  0  0  0  0  0  0  0
    8.3732  -12.1849   27.1520 C   0  0  0  0  0  0  0  0  0  0  0  0
    8.9991  -14.4760   26.3023 C   0  0  2  0  0  0  0  0  0  0  0  0
    8.8102  -15.5143   25.3458 N   0  0  0  0  0  0  0  0  0  0  0  0
    9.3437  -14.8698   27.6892 C   0  0  0  0  0  0  0  0  0  0  0  0
    9.8635  -14.0375   28.6188 O   0  0  0  0  0  0  0  0  0  0  0  0
    9.1173  -16.0715   27.9867 O   0  0  0  0  0  0  0  0  0  0  0  0
  1  2  1  0
  2  3  1  0
  3  5  1  0
  3  4  1  6
  5  7  1  0
  5  6  1  1
  7  8  2  0
  9 10  1  0
  9  7  1  0
 10 14  1  0
 10 11  1  6
 12 13  2  0
 12 11  1  0
 14 15  2  0
 14 21  1  0
 16 12  1  0
 18 17  1  1
 18 20  1  0
 18 19  1  0
 20 22  1  0
 20 21  1  1
 22 24  2  0
 22 23  1  0
M  END
$$$$
