IDV.pdb
     RDKit          3D

 24 23  0  0  1  0  0  0  0  0999 V2000
    6.4429  -12.0663   23.1447 C   0  0  0  0  0  0  0  0  0  0  0  0
    6.7647  -13.4959   22.7736 C   0  0  0  0  0  0  0  0  0  0  0  0
    7.7793  -13.6384   21.7059 C   0  0  2  0  0  0  0  0  0  0  0  0
    7.4835  -12.7603   20.5378 C   0  0  0  0  0  0  0  0  0  0  0  0
    7.9927  -15.0960   21.2906 C   0  0  2  0  0  0  0  0  0  0  0  0
    6.7127  -15.7205   21.0109 N   0  0  0  0  0  0  0  0  0  0  0  0
    8.6132  -15.8664   22.4051 C   0  0  0  0  0  0  0  0  0  0  0  0
    7.8656  -16.4625   23.1999 O   0  0  0  0  0  0  0  0  0  0  0  0
   10.0129  -15.9264   22.5698 N   0  0  0  0  0  0  0  0  0  0  0  0
   10.6322  -16.8174   23.5687 C   0  0  1  0  0  0  0  0  0  0  0  0
   11.7891  -17.5400   22.9726 C   0  0  0  0  0  0  0  0  0  0  0  0
   12.4644  -18.5205   23.8362 C   0  0  0  0  0  0  0  0  0  0  0  0
   11.9035  -18.9091   24.8940 O   0  0  0  0  0  0  0  0  0  0  0  0
   10.8746  -16.0693   24.8075 C   0  0  0  0  0  0  0  0  0  0  0  0
   11.7703  -15.1274   24.7792 O   0  0  0  0  0  0  0  0  0  0  0  0
   13.7134  -19.0644   23.5589 O   0  0  0  0  0  0  0  0  0  0  0  0
    8.5505  -14.2890   27.4122 C   0  0  0  0  0  0  0  0  0  0  0  0
   10.0521  -14.3160   27.6313 C   0  0  1  0  0  0  0  0  0  0  0  0
   10.3871  -13.8016   29.0007 C   0  0  0  0  0  0  0  0  0  0  0  0
   10.6169  -15.6615   27.3121 C   0  0  2  0  0  0  0  0  0  0  0  0
   10.2567  -16.2204   26.0525 N   0  0  0  0  0  0  0  0  0  0  0  0
   10.6487  -16.5672   28.4852 C   0  0  0  0  0  0  0  0  0  0  0  0
   10.0208  -17.7623   28.5520 O   0  0  0  0  0  0  0  0  0  0  0  0
   11.3228  -16.1625   29.4680 O   0  0  0  0  0  0  0  0  0  0  0  0
  1  2  1  0
  2  3  1  0
  3  5  1  0
  3  4  1  6
  5  7  1  0
  5  6  1  1
  7  8  2  0
  9 10  1  0
  9  7  1  0
 10 14  1  0
 10 11  1  6
 12 13  2  0
 12 11  1  0
 14 15  2  0
 14 21  1  0
 16 12  1  0
 18 17  1  1
 18 20  1  0
 18 19  1  0
 20 22  1  0
 20 21  1  6
 22 24  2  0
 22 23  1  0
M  END
$$$$
