IDV.pdb
     RDKit          3D

 24 23  0  0  1  0  0  0  0  0999 V2000
    7.8615  -11.9400   20.3485 C   0  0  0  0  0  0  0  0  0  0  0  0
    7.5776  -13.4224   20.4302 C   0  0  0  0  0  0  0  0  0  0  0  0
    8.5340  -14.2716   19.6860 C   0  0  2  0  0  0  0  0  0  0  0  0
    8.6459  -13.8611   18.2570 C   0  0  0  0  0  0  0  0  0  0  0  0
    8.2307  -15.7645   19.8338 C   0  0  2  0  0  0  0  0  0  0  0  0
    6.9274  -16.0604   19.2677 N   0  0  0  0  0  0  0  0  0  0  0  0
    8.1696  -16.1403   21.2745 C   0  0  0  0  0  0  0  0  0  0  0  0
    7.0590  -16.1628   21.8331 O   0  0  0  0  0  0  0  0  0  0  0  0
    9.3342  -16.4635   22.0019 N   0  0  0  0  0  0  0  0  0  0  0  0
    9.2629  -16.9385   23.3964 C   0  0  1  0  0  0  0  0  0  0  0  0
   10.2521  -18.0272   23.6247 C   0  0  0  0  0  0  0  0  0  0  0  0
   10.3806  -18.5163   25.0058 C   0  0  0  0  0  0  0  0  0  0  0  0
   11.4940  -18.4487   25.5892 O   0  0  0  0  0  0  0  0  0  0  0  0
    9.3083  -15.7890   24.3073 C   0  0  0  0  0  0  0  0  0  0  0  0
   10.3665  -15.0343   24.2757 O   0  0  0  0  0  0  0  0  0  0  0  0
    9.3297  -19.0630   25.7333 O   0  0  0  0  0  0  0  0  0  0  0  0
    7.5275  -12.3756   27.4086 C   0  0  0  0  0  0  0  0  0  0  0  0
    7.2398  -13.4932   26.4230 C   0  0  1  0  0  0  0  0  0  0  0  0
    6.6662  -12.9330   25.1545 C   0  0  0  0  0  0  0  0  0  0  0  0
    8.4375  -14.3662   26.2369 C   0  0  2  0  0  0  0  0  0  0  0  0
    8.3445  -15.3676   25.2284 N   0  0  0  0  0  0  0  0  0  0  0  0
    9.0879  -14.7343   27.5170 C   0  0  0  0  0  0  0  0  0  0  0  0
    9.8173  -13.8903   28.2803 O   0  0  0  0  0  0  0  0  0  0  0  0
    8.9224  -15.9250   27.8897 O   0  0  0  0  0  0  0  0  0  0  0  0
  1  2  1  0
  2  3  1  0
  3  5  1  0
  3  4  1  6
  5  7  1  0
  5  6  1  1
  7  8  2  0
  9 10  1  0
  9  7  1  0
 10 14  1  0
 10 11  1  1
 12 13  2  0
 12 11  1  0
 14 15  2  0
 14 21  1  0
 16 12  1  0
 18 17  1  1
 18 20  1  0
 18 19  1  0
 20 22  1  0
 20 21  1  1
 22 24  2  0
 22 23  1  0
M  END
$$$$
