IDV.pdb
     RDKit          3D

 24 23  0  0  1  0  0  0  0  0999 V2000
    7.6501  -12.0965   19.5147 C   0  0  0  0  0  0  0  0  0  0  0  0
    7.5451  -13.6007   19.6208 C   0  0  0  0  0  0  0  0  0  0  0  0
    7.9097  -14.1486   20.9462 C   0  0  2  0  0  0  0  0  0  0  0  0
    9.2746  -13.7212   21.3676 C   0  0  0  0  0  0  0  0  0  0  0  0
    7.7332  -15.6670   21.0217 C   0  0  2  0  0  0  0  0  0  0  0  0
    6.3678  -16.0214   20.6801 N   0  0  0  0  0  0  0  0  0  0  0  0
    7.9673  -16.1469   22.4129 C   0  0  0  0  0  0  0  0  0  0  0  0
    7.0480  -16.0288   23.2417 O   0  0  0  0  0  0  0  0  0  0  0  0
    9.1968  -16.7218   22.7971 N   0  0  0  0  0  0  0  0  0  0  0  0
    9.3677  -17.3631   24.1142 C   0  0  1  0  0  0  0  0  0  0  0  0
   10.0309  -18.6873   23.9642 C   0  0  0  0  0  0  0  0  0  0  0  0
   10.4267  -19.3662   25.2075 C   0  0  0  0  0  0  0  0  0  0  0  0
    9.5429  -19.7313   26.0261 O   0  0  0  0  0  0  0  0  0  0  0  0
    9.9781  -16.4089   25.0471 C   0  0  0  0  0  0  0  0  0  0  0  0
   11.0823  -15.8284   24.6812 O   0  0  0  0  0  0  0  0  0  0  0  0
   11.7451  -19.6415   25.5521 O   0  0  0  0  0  0  0  0  0  0  0  0
    9.5793  -13.0703   26.2449 C   0  0  0  0  0  0  0  0  0  0  0  0
    9.6498  -13.8603   27.5389 C   0  0  1  0  0  0  0  0  0  0  0  0
    8.3277  -13.8168   28.2473 C   0  0  0  0  0  0  0  0  0  0  0  0
   10.1880  -15.2332   27.3008 C   0  0  2  0  0  0  0  0  0  0  0  0
    9.5263  -16.0131   26.3096 N   0  0  0  0  0  0  0  0  0  0  0  0
   10.6051  -15.9142   28.5497 C   0  0  0  0  0  0  0  0  0  0  0  0
   11.4054  -15.3693   29.4929 O   0  0  0  0  0  0  0  0  0  0  0  0
   10.1580  -17.0796   28.7104 O   0  0  0  0  0  0  0  0  0  0  0  0
  1  2  1  0
  2  3  1  0
  3  5  1  0
  3  4  1  6
  5  7  1  0
  5  6  1  1
  7  8  2  0
  9 10  1  0
  9  7  1  0
 10 14  1  0
 10 11  1  6
 12 13  2  0
 12 11  1  0
 14 15  2  0
 14 21  1  0
 16 12  1  0
 18 17  1  6
 18 20  1  0
 18 19  1  0
 20 22  1  0
 20 21  1  1
 22 24  2  0
 22 23  1  0
M  END
$$$$
