CQD.pdb
     RDKit          3D

 24 23  0  0  1  0  0  0  0  0999 V2000
    8.7427  -15.6894   17.0239 N   0  0  0  0  0  0  0  0  0  0  0  0
    8.9724  -16.6095   18.1064 C   0  0  1  0  0  0  0  0  0  0  0  0
    9.7086  -17.8301   17.6024 C   0  0  0  0  0  0  0  0  0  0  0  0
    8.5049  -19.0567   17.0216 S   0  0  0  0  0  0  0  0  0  0  0  0
    9.6010  -16.0077   19.2870 C   0  0  0  0  0  0  0  0  0  0  0  0
   10.4929  -15.1275   19.0835 O   0  0  0  0  0  0  0  0  0  0  0  0
    7.4241  -14.0699   24.6446 N   0  0  0  0  0  0  0  0  0  0  0  0
    6.9071  -15.0967   23.8125 C   0  0  0  0  0  0  0  0  0  0  0  0
    5.7079  -15.4560   24.0587 O   0  0  0  0  0  0  0  0  0  0  0  0
    7.7057  -15.7210   22.7189 C   0  0  0  0  0  0  0  0  0  0  0  0
    9.0642  -15.1146   22.7488 C   0  0  0  0  0  0  0  0  0  0  0  0
   10.0063  -15.6780   21.7067 C   0  0  2  0  0  0  0  0  0  0  0  0
    9.3085  -16.3142   20.6250 N   0  0  0  0  0  0  0  0  0  0  0  0
   11.0485  -16.5299   22.3340 C   0  0  0  0  0  0  0  0  0  0  0  0
   10.8713  -17.7731   22.2585 O   0  0  0  0  0  0  0  0  0  0  0  0
   12.1942  -16.0653   22.9924 N   0  0  0  0  0  0  0  0  0  0  0  0
   13.2186  -16.9378   23.5517 C   0  0  1  0  0  0  0  0  0  0  0  0
   14.5346  -16.2489   23.6704 C   0  0  0  0  0  0  0  0  0  0  0  0
   15.0276  -15.8626   22.3340 C   0  0  0  0  0  0  0  0  0  0  0  0
   14.7363  -16.5463   21.3220 O   0  0  0  0  0  0  0  0  0  0  0  0
   12.7582  -17.4410   24.8616 C   0  0  0  0  0  0  0  0  0  0  0  0
   11.7213  -16.9290   25.3778 O   0  0  0  0  0  0  0  0  0  0  0  0
   15.8266  -14.7432   22.1207 O   0  0  0  0  0  0  0  0  0  0  0  0
   13.3610  -18.4394   25.5952 O   0  0  0  0  0  0  0  0  0  0  0  0
  2  1  1  6
  3  2  1  0
  4  3  1  0
  5  2  1  0
  5  6  2  0
  7  8  1  0
  8 10  1  0
  8  9  2  0
 10 11  1  0
 12 11  1  1
 12 13  1  0
 13  5  1  0
 14 12  1  0
 15 14  2  0
 16 14  1  0
 17 16  1  0
 17 21  1  0
 17 18  1  1
 19 23  1  0
 19 18  1  0
 20 19  2  0
 21 24  1  0
 22 21  2  0
M  END
$$$$
