CQD.pdb
     RDKit          3D

 24 23  0  0  1  0  0  0  0  0999 V2000
    8.0023  -14.2873   17.8146 N   0  0  0  0  0  0  0  0  0  0  0  0
    8.9160  -13.6835   18.7483 C   0  0  1  0  0  0  0  0  0  0  0  0
    8.1860  -13.3030   20.0163 C   0  0  0  0  0  0  0  0  0  0  0  0
    7.0303  -11.9513   19.6581 S   0  0  0  0  0  0  0  0  0  0  0  0
   10.1293  -14.4685   18.9989 C   0  0  0  0  0  0  0  0  0  0  0  0
   10.0181  -15.7329   18.9692 O   0  0  0  0  0  0  0  0  0  0  0  0
   15.7518  -14.6142   16.3103 N   0  0  0  0  0  0  0  0  0  0  0  0
   15.9490  -14.6674   17.7147 C   0  0  0  0  0  0  0  0  0  0  0  0
   17.0693  -14.2223   18.1325 O   0  0  0  0  0  0  0  0  0  0  0  0
   14.9197  -15.2064   18.6492 C   0  0  0  0  0  0  0  0  0  0  0  0
   13.6908  -14.3822   18.4919 C   0  0  0  0  0  0  0  0  0  0  0  0
   12.5496  -14.8121   19.3886 C   0  0  2  0  0  0  0  0  0  0  0  0
   11.4060  -13.9521   19.2692 N   0  0  0  0  0  0  0  0  0  0  0  0
   13.0129  -15.0064   20.7861 C   0  0  0  0  0  0  0  0  0  0  0  0
   13.1499  -13.9643   21.4773 O   0  0  0  0  0  0  0  0  0  0  0  0
   13.3044  -16.2387   21.3848 N   0  0  0  0  0  0  0  0  0  0  0  0
   13.7142  -16.3885   22.7752 C   0  0  1  0  0  0  0  0  0  0  0  0
   13.1637  -17.6300   23.3886 C   0  0  0  0  0  0  0  0  0  0  0  0
   11.7591  -17.4184   23.7892 C   0  0  0  0  0  0  0  0  0  0  0  0
   11.3535  -16.2781   24.1233 O   0  0  0  0  0  0  0  0  0  0  0  0
   15.1891  -16.3652   22.8465 C   0  0  0  0  0  0  0  0  0  0  0  0
   15.8502  -16.4673   21.7712 O   0  0  0  0  0  0  0  0  0  0  0  0
   10.8217  -18.4468   23.8199 O   0  0  0  0  0  0  0  0  0  0  0  0
   15.9354  -16.2387   23.9978 O   0  0  0  0  0  0  0  0  0  0  0  0
  2  1  1  6
  3  2  1  0
  4  3  1  0
  5  2  1  0
  5  6  2  0
  7  8  1  0
  8 10  1  0
  8  9  2  0
 10 11  1  0
 12 11  1  6
 12 13  1  0
 13  5  1  0
 14 12  1  0
 15 14  2  0
 16 14  1  0
 17 16  1  0
 17 21  1  0
 17 18  1  6
 19 23  1  0
 19 18  1  0
 20 19  2  0
 21 24  1  0
 22 21  2  0
M  END
$$$$
