CQD.pdb
     RDKit          3D

 24 23  0  0  1  0  0  0  0  0999 V2000
    5.5292  -15.3384   26.3630 N   0  0  0  0  0  0  0  0  0  0  0  0
    6.2703  -14.2772   25.7339 C   0  0  1  0  0  0  0  0  0  0  0  0
    7.1697  -13.6025   26.7447 C   0  0  0  0  0  0  0  0  0  0  0  0
    6.3205  -12.1514   27.4259 S   0  0  0  0  0  0  0  0  0  0  0  0
    6.9783  -14.6766   24.5132 C   0  0  0  0  0  0  0  0  0  0  0  0
    7.3595  -15.8850   24.4333 O   0  0  0  0  0  0  0  0  0  0  0  0
    6.5835  -13.4972   18.9134 N   0  0  0  0  0  0  0  0  0  0  0  0
    7.9334  -13.9308   18.8505 C   0  0  0  0  0  0  0  0  0  0  0  0
    8.2931  -14.4590   17.7463 O   0  0  0  0  0  0  0  0  0  0  0  0
    8.8773  -13.7829   19.9952 C   0  0  0  0  0  0  0  0  0  0  0  0
    8.0923  -13.3188   21.1711 C   0  0  0  0  0  0  0  0  0  0  0  0
    8.0127  -14.3348   22.2903 C   0  0  2  0  0  0  0  0  0  0  0  0
    7.2751  -13.8463   23.4213 N   0  0  0  0  0  0  0  0  0  0  0  0
    9.3592  -14.8599   22.6315 C   0  0  0  0  0  0  0  0  0  0  0  0
   10.0756  -14.1250   23.3591 O   0  0  0  0  0  0  0  0  0  0  0  0
    9.8853  -16.0889   22.2135 N   0  0  0  0  0  0  0  0  0  0  0  0
   11.2476  -16.5251   22.4917 C   0  0  1  0  0  0  0  0  0  0  0  0
   11.2897  -17.9128   23.0329 C   0  0  0  0  0  0  0  0  0  0  0  0
   11.0978  -17.8930   24.4962 C   0  0  0  0  0  0  0  0  0  0  0  0
   11.3827  -16.8696   25.1653 O   0  0  0  0  0  0  0  0  0  0  0  0
   12.0511  -16.4074   21.2582 C   0  0  0  0  0  0  0  0  0  0  0  0
   11.4488  -16.2760   20.1520 O   0  0  0  0  0  0  0  0  0  0  0  0
   10.6009  -18.9827   25.2053 O   0  0  0  0  0  0  0  0  0  0  0  0
   13.4272  -16.4256   21.1916 O   0  0  0  0  0  0  0  0  0  0  0  0
  2  1  1  1
  3  2  1  0
  4  3  1  0
  5  2  1  0
  5  6  2  0
  7  8  1  0
  8 10  1  0
  8  9  2  0
 10 11  1  0
 12 11  1  6
 12 13  1  0
 13  5  1  0
 14 12  1  0
 15 14  2  0
 16 14  1  0
 17 16  1  0
 17 21  1  0
 17 18  1  6
 19 23  1  0
 19 18  1  0
 20 19  2  0
 21 24  1  0
 22 21  2  0
M  END
$$$$
