CQD.pdb
     RDKit          3D

 24 23  0  0  1  0  0  0  0  0999 V2000
    7.9549  -13.8938   16.9794 N   0  0  0  0  0  0  0  0  0  0  0  0
    8.6282  -13.5079   18.1914 C   0  0  1  0  0  0  0  0  0  0  0  0
    7.6379  -13.4232   19.3306 C   0  0  0  0  0  0  0  0  0  0  0  0
    8.5153  -12.9731   20.8532 S   0  0  0  0  0  0  0  0  0  0  0  0
    9.8046  -14.3223   18.5139 C   0  0  0  0  0  0  0  0  0  0  0  0
    9.6788  -15.5826   18.4262 O   0  0  0  0  0  0  0  0  0  0  0  0
   15.6879  -13.5834   17.1904 N   0  0  0  0  0  0  0  0  0  0  0  0
   14.7333  -14.3337   16.4557 C   0  0  0  0  0  0  0  0  0  0  0  0
   15.0605  -14.6205   15.2563 O   0  0  0  0  0  0  0  0  0  0  0  0
   13.4301  -14.7637   17.0389 C   0  0  0  0  0  0  0  0  0  0  0  0
   13.4165  -14.3503   18.4683 C   0  0  0  0  0  0  0  0  0  0  0  0
   12.1476  -14.7305   19.2007 C   0  0  2  0  0  0  0  0  0  0  0  0
   11.0605  -13.8381   18.9115 N   0  0  0  0  0  0  0  0  0  0  0  0
   12.4039  -14.9160   20.6517 C   0  0  0  0  0  0  0  0  0  0  0  0
   12.6560  -13.8742   21.3103 O   0  0  0  0  0  0  0  0  0  0  0  0
   12.3872  -16.1398   21.3329 N   0  0  0  0  0  0  0  0  0  0  0  0
   12.6648  -16.2797   22.7566 C   0  0  1  0  0  0  0  0  0  0  0  0
   11.9339  -17.4311   23.3572 C   0  0  0  0  0  0  0  0  0  0  0  0
   12.2732  -17.5570   24.7881 C   0  0  0  0  0  0  0  0  0  0  0  0
   13.3863  -18.0158   25.1441 O   0  0  0  0  0  0  0  0  0  0  0  0
   14.1228  -16.4115   22.9511 C   0  0  0  0  0  0  0  0  0  0  0  0
   14.5940  -16.2741   24.1185 O   0  0  0  0  0  0  0  0  0  0  0  0
   11.3994  -17.1831   25.8049 O   0  0  0  0  0  0  0  0  0  0  0  0
   15.0440  -16.6775   21.9617 O   0  0  0  0  0  0  0  0  0  0  0  0
  2  1  1  6
  3  2  1  0
  4  3  1  0
  5  2  1  0
  5  6  2  0
  7  8  1  0
  8 10  1  0
  8  9  2  0
 10 11  1  0
 12 11  1  6
 12 13  1  0
 13  5  1  0
 14 12  1  0
 15 14  2  0
 16 14  1  0
 17 16  1  0
 17 21  1  0
 17 18  1  6
 19 23  1  0
 19 18  1  0
 20 19  2  0
 21 24  1  0
 22 21  2  0
M  END
$$$$
