CQD.pdb
     RDKit          3D

 24 23  0  0  1  0  0  0  0  0999 V2000
    5.4060  -19.4948   22.4437 N   0  0  0  0  0  0  0  0  0  0  0  0
    5.7098  -18.2405   23.0805 C   0  0  1  0  0  0  0  0  0  0  0  0
    6.1667  -18.4776   24.5021 C   0  0  0  0  0  0  0  0  0  0  0  0
    6.0197  -16.9333   25.4426 S   0  0  0  0  0  0  0  0  0  0  0  0
    6.6249  -17.3832   22.3197 C   0  0  0  0  0  0  0  0  0  0  0  0
    7.6055  -17.9487   21.7448 O   0  0  0  0  0  0  0  0  0  0  0  0
    7.3732  -13.8399   18.5192 N   0  0  0  0  0  0  0  0  0  0  0  0
    8.3720  -13.1717   19.2741 C   0  0  0  0  0  0  0  0  0  0  0  0
    9.3872  -12.7702   18.6140 O   0  0  0  0  0  0  0  0  0  0  0  0
    8.2515  -12.9484   20.7435 C   0  0  0  0  0  0  0  0  0  0  0  0
    7.1457  -13.8102   21.2422 C   0  0  0  0  0  0  0  0  0  0  0  0
    7.5762  -15.2227   21.5745 C   0  0  2  0  0  0  0  0  0  0  0  0
    6.5183  -15.9922   22.1667 N   0  0  0  0  0  0  0  0  0  0  0  0
    8.8356  -15.2259   22.3615 C   0  0  0  0  0  0  0  0  0  0  0  0
    8.7768  -14.7124   23.5084 O   0  0  0  0  0  0  0  0  0  0  0  0
   10.0633  -15.7472   21.9338 N   0  0  0  0  0  0  0  0  0  0  0  0
   11.2546  -15.8082   22.7707 C   0  0  1  0  0  0  0  0  0  0  0  0
   11.2232  -16.9706   23.7025 C   0  0  0  0  0  0  0  0  0  0  0  0
   12.4158  -16.9565   24.5720 C   0  0  0  0  0  0  0  0  0  0  0  0
   13.2449  -16.0160   24.5062 O   0  0  0  0  0  0  0  0  0  0  0  0
   12.4493  -15.8499   21.9035 C   0  0  0  0  0  0  0  0  0  0  0  0
   12.2970  -16.1064   20.6728 O   0  0  0  0  0  0  0  0  0  0  0  0
   12.6861  -17.9619   25.4958 O   0  0  0  0  0  0  0  0  0  0  0  0
   13.7465  -15.6301   22.3127 O   0  0  0  0  0  0  0  0  0  0  0  0
  2  1  1  6
  3  2  1  0
  4  3  1  0
  5  2  1  0
  5  6  2  0
  7  8  1  0
  8 10  1  0
  8  9  2  0
 10 11  1  0
 12 11  1  1
 12 13  1  0
 13  5  1  0
 14 12  1  0
 15 14  2  0
 16 14  1  0
 17 16  1  0
 17 21  1  0
 17 18  1  6
 19 23  1  0
 19 18  1  0
 20 19  2  0
 21 24  1  0
 22 21  2  0
M  END
$$$$
