CQD.pdb
     RDKit          3D

 24 23  0  0  1  0  0  0  0  0999 V2000
    5.7797  -18.5869   22.2047 N   0  0  0  0  0  0  0  0  0  0  0  0
    5.8844  -17.1612   22.3711 C   0  0  1  0  0  0  0  0  0  0  0  0
    5.6889  -16.7928   23.8243 C   0  0  0  0  0  0  0  0  0  0  0  0
    7.0463  -17.4896   24.8055 S   0  0  0  0  0  0  0  0  0  0  0  0
    7.0948  -16.5727   21.7883 C   0  0  0  0  0  0  0  0  0  0  0  0
    8.0611  -17.3588   21.5428 O   0  0  0  0  0  0  0  0  0  0  0  0
    9.6073  -13.8905   17.9685 N   0  0  0  0  0  0  0  0  0  0  0  0
    8.2032  -13.6859   17.9927 C   0  0  0  0  0  0  0  0  0  0  0  0
    7.5980  -13.8761   16.8858 O   0  0  0  0  0  0  0  0  0  0  0  0
    7.4737  -13.2753   19.2267 C   0  0  0  0  0  0  0  0  0  0  0  0
    8.4295  -13.3557   20.3644 C   0  0  0  0  0  0  0  0  0  0  0  0
    8.5417  -14.7386   20.9696 C   0  0  2  0  0  0  0  0  0  0  0  0
    7.2863  -15.2181   21.4754 N   0  0  0  0  0  0  0  0  0  0  0  0
    9.6509  -14.8017   21.9550 C   0  0  0  0  0  0  0  0  0  0  0  0
    9.4758  -14.1749   23.0316 O   0  0  0  0  0  0  0  0  0  0  0  0
   10.8569  -15.4929   21.7822 N   0  0  0  0  0  0  0  0  0  0  0  0
   11.8926  -15.5852   22.8032 C   0  0  1  0  0  0  0  0  0  0  0  0
   11.4465  -16.3829   23.9801 C   0  0  0  0  0  0  0  0  0  0  0  0
   11.3178  -17.8058   23.6096 C   0  0  0  0  0  0  0  0  0  0  0  0
   10.7390  -18.1407   22.5470 O   0  0  0  0  0  0  0  0  0  0  0  0
   13.1124  -16.1586   22.1997 C   0  0  0  0  0  0  0  0  0  0  0  0
   13.0613  -16.5709   21.0034 O   0  0  0  0  0  0  0  0  0  0  0  0
   11.8188  -18.8376   24.3980 O   0  0  0  0  0  0  0  0  0  0  0  0
   14.3323  -16.2910   22.8264 O   0  0  0  0  0  0  0  0  0  0  0  0
  2  1  1  1
  3  2  1  0
  4  3  1  0
  5  2  1  0
  5  6  2  0
  7  8  1  0
  8 10  1  0
  8  9  2  0
 10 11  1  0
 12 11  1  1
 12 13  1  0
 13  5  1  0
 14 12  1  0
 15 14  2  0
 16 14  1  0
 17 16  1  0
 17 21  1  0
 17 18  1  1
 19 23  1  0
 19 18  1  0
 20 19  2  0
 21 24  1  0
 22 21  2  0
M  END
$$$$
