WYC.pdb
     RDKit          3D

 33 35  0  0  1  0  0  0  0  0999 V2000
   25.5679  -19.5483  -18.5619 N   0  0  0  0  0  0  0  0  0  0  0  0
   25.2709  -19.0922  -17.2492 C   0  0  1  0  0  0  0  0  0  0  0  0
   25.2524  -17.5839  -17.1754 C   0  0  0  0  0  0  0  0  0  0  0  0
   26.5085  -16.9768  -17.6397 C   0  0  0  0  0  0  0  0  0  0  0  0
   26.6371  -15.9433  -18.5394 C   0  0  0  0  0  0  0  0  0  0  0  0
   27.9340  -15.6286  -18.7048 N   0  0  0  0  0  0  0  0  0  0  0  0
   28.6455  -16.4548  -17.9162 C   0  0  0  0  0  0  0  0  0  0  0  0
   30.0040  -16.5210  -17.7490 C   0  0  0  0  0  0  0  0  0  0  0  0
   30.5319  -17.4727  -16.8756 C   0  0  0  0  0  0  0  0  0  0  0  0
   29.6753  -18.3185  -16.2065 C   0  0  0  0  0  0  0  0  0  0  0  0
   28.3126  -18.2447  -16.3804 C   0  0  0  0  0  0  0  0  0  0  0  0
   27.7743  -17.3094  -17.2389 C   0  0  0  0  0  0  0  0  0  0  0  0
   24.0125  -19.6595  -16.6795 C   0  0  0  0  0  0  0  0  0  0  0  0
   23.1748  -20.1381  -17.4869 O   0  0  0  0  0  0  0  0  0  0  0  0
   18.3738  -23.1230  -11.0060 O   0  0  0  0  0  0  0  0  0  0  0  0
   19.4922  -22.5014  -11.5547 C   0  0  0  0  0  0  0  0  0  0  0  0
   20.3252  -23.1623  -12.4330 C   0  0  0  0  0  0  0  0  0  0  0  0
   21.4281  -22.5335  -12.9674 C   0  0  0  0  0  0  0  0  0  0  0  0
   21.7675  -21.2134  -12.6611 C   0  0  0  0  0  0  0  0  0  0  0  0
   22.9678  -20.5869  -13.2745 C   0  0  0  0  0  0  0  0  0  0  0  0
   22.6692  -20.2109  -14.6953 C   0  0  2  0  0  0  0  0  0  0  0  0
   23.8515  -19.6181  -15.2729 N   0  0  0  0  0  0  0  0  0  0  0  0
   21.5429  -19.2700  -14.8443 C   0  0  0  0  0  0  0  0  0  0  0  0
   21.6428  -18.1091  -14.3833 O   0  0  0  0  0  0  0  0  0  0  0  0
   20.9272  -20.5662  -11.7834 C   0  0  0  0  0  0  0  0  0  0  0  0
   19.8172  -21.1980  -11.2449 C   0  0  0  0  0  0  0  0  0  0  0  0
   20.3244  -19.6196  -15.4974 N   0  0  0  0  0  0  0  0  0  0  0  0
   19.2435  -18.6713  -15.5247 C   0  0  1  0  0  0  0  0  0  0  0  0
   18.8170  -18.4032  -16.9564 C   0  0  0  0  0  0  0  0  0  0  0  0
   18.1930  -19.9884  -17.6177 S   0  0  0  0  0  0  0  0  0  0  0  0
   18.0418  -19.1842  -14.8024 C   0  0  0  0  0  0  0  0  0  0  0  0
   16.9694  -18.3439  -14.5545 O   0  0  0  0  0  0  0  0  0  0  0  0
   17.9663  -20.3692  -14.4049 O   0  0  0  0  0  0  0  0  0  0  0  0
  2 13  1  0
  2  1  1  6
  3  2  1  0
  4  3  1  0
  5  4  2  0
  6  5  1  0
  7  6  1  0
  7 12  2  0
  8  7  1  0
  9  8  2  0
  9 10  1  0
 10 11  2  0
 11 12  1  0
 12  4  1  0
 13 14  2  0
 15 16  1  0
 16 17  2  0
 17 18  1  0
 19 18  2  0
 19 20  1  0
 21 20  1  1
 22 21  1  0
 22 13  1  0
 23 21  1  0
 24 23  2  0
 25 19  1  0
 26 16  1  0
 26 25  2  0
 27 23  1  0
 28 27  1  0
 29 30  1  0
 28 29  1  6
 31 28  1  0
 31 32  1  0
 33 31  2  0
M  END
$$$$
