WYC.pdb
     RDKit          3D

 33 35  0  0  1  0  0  0  0  0999 V2000
   24.5289  -31.8564  -16.1970 N   0  0  0  0  0  0  0  0  0  0  0  0
   25.1634  -32.7649  -15.3075 C   0  0  1  0  0  0  0  0  0  0  0  0
   26.5875  -33.0474  -15.7235 C   0  0  0  0  0  0  0  0  0  0  0  0
   26.6784  -33.6700  -17.0524 C   0  0  0  0  0  0  0  0  0  0  0  0
   27.1301  -33.0750  -18.2083 C   0  0  0  0  0  0  0  0  0  0  0  0
   27.1006  -33.9532  -19.2263 N   0  0  0  0  0  0  0  0  0  0  0  0
   26.6310  -35.1141  -18.7340 C   0  0  0  0  0  0  0  0  0  0  0  0
   26.4165  -36.2984  -19.3892 C   0  0  0  0  0  0  0  0  0  0  0  0
   25.9097  -37.3843  -18.6743 C   0  0  0  0  0  0  0  0  0  0  0  0
   25.6388  -37.2370  -17.3319 C   0  0  0  0  0  0  0  0  0  0  0  0
   25.8573  -36.0442  -16.6822 C   0  0  0  0  0  0  0  0  0  0  0  0
   26.3587  -34.9615  -17.3736 C   0  0  0  0  0  0  0  0  0  0  0  0
   25.1097  -32.3488  -13.8743 C   0  0  0  0  0  0  0  0  0  0  0  0
   25.1577  -31.1164  -13.6262 O   0  0  0  0  0  0  0  0  0  0  0  0
   20.7990  -28.1400  -10.8725 O   0  0  0  0  0  0  0  0  0  0  0  0
   21.4460  -29.3716  -10.9291 C   0  0  0  0  0  0  0  0  0  0  0  0
   22.3623  -29.7486   -9.9699 C   0  0  0  0  0  0  0  0  0  0  0  0
   22.9941  -30.9706  -10.0400 C   0  0  0  0  0  0  0  0  0  0  0  0
   22.7531  -31.8881  -11.0654 C   0  0  0  0  0  0  0  0  0  0  0  0
   23.4620  -33.1945  -11.0840 C   0  0  0  0  0  0  0  0  0  0  0  0
   24.8850  -32.9892  -11.5110 C   0  0  2  0  0  0  0  0  0  0  0  0
   25.0090  -33.3697  -12.8977 N   0  0  0  0  0  0  0  0  0  0  0  0
   25.8669  -33.7525  -10.7177 C   0  0  0  0  0  0  0  0  0  0  0  0
   26.2187  -34.8923  -11.1014 O   0  0  0  0  0  0  0  0  0  0  0  0
   21.8362  -31.4985  -12.0157 C   0  0  0  0  0  0  0  0  0  0  0  0
   21.1999  -30.2690  -11.9462 C   0  0  0  0  0  0  0  0  0  0  0  0
   26.4466  -33.2514   -9.5151 N   0  0  0  0  0  0  0  0  0  0  0  0
   27.2591  -34.1226   -8.7094 C   0  0  1  0  0  0  0  0  0  0  0  0
   27.8884  -33.3456   -7.5676 C   0  0  0  0  0  0  0  0  0  0  0  0
   26.5397  -32.3969   -6.7798 S   0  0  0  0  0  0  0  0  0  0  0  0
   26.4517  -35.2184   -8.0959 C   0  0  0  0  0  0  0  0  0  0  0  0
   27.0817  -36.3322   -7.5665 O   0  0  0  0  0  0  0  0  0  0  0  0
   25.2019  -35.1664   -8.0414 O   0  0  0  0  0  0  0  0  0  0  0  0
  2 13  1  0
  2  1  1  6
  3  2  1  0
  4  3  1  0
  5  4  2  0
  6  5  1  0
  7  6  1  0
  7 12  2  0
  8  7  1  0
  9  8  2  0
  9 10  1  0
 10 11  2  0
 11 12  1  0
 12  4  1  0
 13 14  2  0
 15 16  1  0
 16 17  2  0
 17 18  1  0
 19 18  2  0
 19 20  1  0
 21 20  1  1
 22 21  1  0
 22 13  1  0
 23 21  1  0
 24 23  2  0
 25 19  1  0
 26 16  1  0
 26 25  2  0
 27 23  1  0
 28 27  1  0
 29 30  1  0
 28 29  1  1
 31 28  1  0
 31 32  1  0
 33 31  2  0
M  END
$$$$
