WYC.pdb
     RDKit          3D

 33 35  0  0  1  0  0  0  0  0999 V2000
   29.2439  -23.6418  -17.7723 N   0  0  0  0  0  0  0  0  0  0  0  0
   28.0655  -22.8493  -17.7210 C   0  0  1  0  0  0  0  0  0  0  0  0
   27.1562  -23.1280  -18.8942 C   0  0  0  0  0  0  0  0  0  0  0  0
   27.7141  -22.6559  -20.1701 C   0  0  0  0  0  0  0  0  0  0  0  0
   28.4900  -23.3815  -21.0450 C   0  0  0  0  0  0  0  0  0  0  0  0
   28.7957  -22.6380  -22.1231 N   0  0  0  0  0  0  0  0  0  0  0  0
   28.2210  -21.4337  -21.9491 C   0  0  0  0  0  0  0  0  0  0  0  0
   28.2549  -20.3407  -22.7750 C   0  0  0  0  0  0  0  0  0  0  0  0
   27.5867  -19.1790  -22.3864 C   0  0  0  0  0  0  0  0  0  0  0  0
   26.9125  -19.1618  -21.1856 C   0  0  0  0  0  0  0  0  0  0  0  0
   26.8837  -20.2639  -20.3627 C   0  0  0  0  0  0  0  0  0  0  0  0
   27.5380  -21.4203  -20.7320 C   0  0  0  0  0  0  0  0  0  0  0  0
   27.3124  -22.9638  -16.4365 C   0  0  0  0  0  0  0  0  0  0  0  0
   27.2400  -24.1024  -15.9064 O   0  0  0  0  0  0  0  0  0  0  0  0
   23.5773  -20.6629   -8.8759 O   0  0  0  0  0  0  0  0  0  0  0  0
   24.2729  -20.6592  -10.0820 C   0  0  0  0  0  0  0  0  0  0  0  0
   23.7301  -20.1105  -11.2249 C   0  0  0  0  0  0  0  0  0  0  0  0
   24.4310  -20.1148  -12.4107 C   0  0  0  0  0  0  0  0  0  0  0  0
   25.7101  -20.6635  -12.5304 C   0  0  0  0  0  0  0  0  0  0  0  0
   26.4192  -20.6330  -13.8364 C   0  0  0  0  0  0  0  0  0  0  0  0
   26.0658  -21.8556  -14.6300 C   0  0  2  0  0  0  0  0  0  0  0  0
   26.7337  -21.7842  -15.9074 N   0  0  0  0  0  0  0  0  0  0  0  0
   24.6184  -22.0269  -14.8578 C   0  0  0  0  0  0  0  0  0  0  0  0
   24.0325  -21.2920  -15.6864 O   0  0  0  0  0  0  0  0  0  0  0  0
   26.2393  -21.2074  -11.3817 C   0  0  0  0  0  0  0  0  0  0  0  0
   25.5349  -21.2038  -10.1880 C   0  0  0  0  0  0  0  0  0  0  0  0
   23.8378  -23.0030  -14.1714 N   0  0  0  0  0  0  0  0  0  0  0  0
   22.4330  -23.1104  -14.4601 C   0  0  1  0  0  0  0  0  0  0  0  0
   21.9349  -24.5055  -14.1299 C   0  0  0  0  0  0  0  0  0  0  0  0
   23.1895  -25.6698  -14.7703 S   0  0  0  0  0  0  0  0  0  0  0  0
   21.6274  -22.1565  -13.6414 C   0  0  0  0  0  0  0  0  0  0  0  0
   20.2641  -22.0388  -13.8539 O   0  0  0  0  0  0  0  0  0  0  0  0
   22.1491  -21.4454  -12.7527 O   0  0  0  0  0  0  0  0  0  0  0  0
  2 13  1  0
  2  1  1  1
  3  2  1  0
  4  3  1  0
  5  4  2  0
  6  5  1  0
  7  6  1  0
  7 12  2  0
  8  7  1  0
  9  8  2  0
  9 10  1  0
 10 11  2  0
 11 12  1  0
 12  4  1  0
 13 14  2  0
 15 16  1  0
 16 17  2  0
 17 18  1  0
 19 18  2  0
 19 20  1  0
 21 20  1  6
 22 21  1  0
 22 13  1  0
 23 21  1  0
 24 23  2  0
 25 19  1  0
 26 16  1  0
 26 25  2  0
 27 23  1  0
 28 27  1  0
 29 30  1  0
 28 29  1  1
 31 28  1  0
 31 32  1  0
 33 31  2  0
M  END
$$$$
