WYC.pdb
     RDKit          3D

 33 35  0  0  1  0  0  0  0  0999 V2000
   24.6749  -19.2904  -10.9084 N   0  0  0  0  0  0  0  0  0  0  0  0
   25.8912  -19.9447  -11.2425 C   0  0  1  0  0  0  0  0  0  0  0  0
   26.0869  -21.2033  -10.4308 C   0  0  0  0  0  0  0  0  0  0  0  0
   26.1740  -20.9402   -8.9868 C   0  0  0  0  0  0  0  0  0  0  0  0
   25.1318  -20.9422   -8.0880 C   0  0  0  0  0  0  0  0  0  0  0  0
   25.5861  -20.6899   -6.8476 N   0  0  0  0  0  0  0  0  0  0  0  0
   26.9183  -20.5241   -6.9402 C   0  0  0  0  0  0  0  0  0  0  0  0
   27.8180  -20.2432   -5.9456 C   0  0  0  0  0  0  0  0  0  0  0  0
   29.1670  -20.1038   -6.2739 C   0  0  0  0  0  0  0  0  0  0  0  0
   29.5574  -20.2517   -7.5864 C   0  0  0  0  0  0  0  0  0  0  0  0
   28.6471  -20.5338   -8.5786 C   0  0  0  0  0  0  0  0  0  0  0  0
   27.3104  -20.6758   -8.2712 C   0  0  0  0  0  0  0  0  0  0  0  0
   26.0454  -20.2326  -12.6997 C   0  0  0  0  0  0  0  0  0  0  0  0
   24.9997  -20.4703  -13.3574 O   0  0  0  0  0  0  0  0  0  0  0  0
   29.7026  -19.8533  -20.6592 O   0  0  0  0  0  0  0  0  0  0  0  0
   29.4711  -19.7668  -19.2890 C   0  0  0  0  0  0  0  0  0  0  0  0
   30.1091  -20.6025  -18.3965 C   0  0  0  0  0  0  0  0  0  0  0  0
   29.8692  -20.5044  -17.0436 C   0  0  0  0  0  0  0  0  0  0  0  0
   28.9830  -19.5720  -16.4991 C   0  0  0  0  0  0  0  0  0  0  0  0
   28.7699  -19.5104  -15.0293 C   0  0  0  0  0  0  0  0  0  0  0  0
   27.5151  -20.2493  -14.6708 C   0  0  2  0  0  0  0  0  0  0  0  0
   27.3559  -20.2179  -13.2367 N   0  0  0  0  0  0  0  0  0  0  0  0
   27.4945  -21.6537  -15.1220 C   0  0  0  0  0  0  0  0  0  0  0  0
   28.2309  -22.4949  -14.5562 O   0  0  0  0  0  0  0  0  0  0  0  0
   28.3536  -18.7445  -17.4015 C   0  0  0  0  0  0  0  0  0  0  0  0
   28.5940  -18.8423  -18.7631 C   0  0  0  0  0  0  0  0  0  0  0  0
   26.6653  -22.1114  -16.1880 N   0  0  0  0  0  0  0  0  0  0  0  0
   26.7585  -23.4821  -16.6131 C   0  0  1  0  0  0  0  0  0  0  0  0
   25.5078  -24.2421  -16.2109 C   0  0  0  0  0  0  0  0  0  0  0  0
   25.7631  -25.9749  -16.7324 S   0  0  0  0  0  0  0  0  0  0  0  0
   26.8750  -23.5923  -18.0975 C   0  0  0  0  0  0  0  0  0  0  0  0
   27.3803  -24.7472  -18.6705 O   0  0  0  0  0  0  0  0  0  0  0  0
   26.5259  -22.6609  -18.8580 O   0  0  0  0  0  0  0  0  0  0  0  0
  2 13  1  0
  2  1  1  6
  3  2  1  0
  4  3  1  0
  5  4  2  0
  6  5  1  0
  7  6  1  0
  7 12  2  0
  8  7  1  0
  9  8  2  0
  9 10  1  0
 10 11  2  0
 11 12  1  0
 12  4  1  0
 13 14  2  0
 15 16  1  0
 16 17  2  0
 17 18  1  0
 19 18  2  0
 19 20  1  0
 21 20  1  1
 22 21  1  0
 22 13  1  0
 23 21  1  0
 24 23  2  0
 25 19  1  0
 26 16  1  0
 26 25  2  0
 27 23  1  0
 28 27  1  0
 29 30  1  0
 28 29  1  6
 31 28  1  0
 31 32  1  0
 33 31  2  0
M  END
$$$$
