WYC.pdb
     RDKit          3D

 33 35  0  0  1  0  0  0  0  0999 V2000
   20.8749  -18.0628  -20.6664 N   0  0  0  0  0  0  0  0  0  0  0  0
   19.7850  -17.5943  -19.8843 C   0  0  1  0  0  0  0  0  0  0  0  0
   19.0177  -16.5051  -20.5955 C   0  0  0  0  0  0  0  0  0  0  0  0
   19.8642  -15.3598  -20.9611 C   0  0  0  0  0  0  0  0  0  0  0  0
   20.9990  -15.3934  -21.7389 C   0  0  0  0  0  0  0  0  0  0  0  0
   21.4982  -14.1536  -21.8881 N   0  0  0  0  0  0  0  0  0  0  0  0
   20.6911  -13.3177  -21.2094 C   0  0  0  0  0  0  0  0  0  0  0  0
   20.7932  -11.9592  -21.0623 C   0  0  0  0  0  0  0  0  0  0  0  0
   19.8373  -11.2882  -20.2986 C   0  0  0  0  0  0  0  0  0  0  0  0
   18.8190  -12.0080  -19.7139 C   0  0  0  0  0  0  0  0  0  0  0  0
   18.7243  -13.3719  -19.8671 C   0  0  0  0  0  0  0  0  0  0  0  0
   19.6599  -14.0503  -20.6194 C   0  0  0  0  0  0  0  0  0  0  0  0
   18.8592  -18.6726  -19.4257 C   0  0  0  0  0  0  0  0  0  0  0  0
   18.5591  -19.5703  -20.2543 O   0  0  0  0  0  0  0  0  0  0  0  0
   14.4706  -24.5159  -14.8459 O   0  0  0  0  0  0  0  0  0  0  0  0
   15.3665  -23.5635  -15.3242 C   0  0  0  0  0  0  0  0  0  0  0  0
   15.7758  -22.5033  -14.5429 C   0  0  0  0  0  0  0  0  0  0  0  0
   16.6628  -21.5690  -15.0306 C   0  0  0  0  0  0  0  0  0  0  0  0
   17.1942  -21.6332  -16.3209 C   0  0  0  0  0  0  0  0  0  0  0  0
   18.1525  -20.5977  -16.7888 C   0  0  0  0  0  0  0  0  0  0  0  0
   17.4354  -19.5995  -17.6482 C   0  0  2  0  0  0  0  0  0  0  0  0
   18.3852  -18.6078  -18.0925 N   0  0  0  0  0  0  0  0  0  0  0  0
   16.3159  -18.9176  -16.9715 C   0  0  0  0  0  0  0  0  0  0  0  0
   16.5572  -18.0435  -16.1068 O   0  0  0  0  0  0  0  0  0  0  0  0
   16.7770  -22.6966  -17.0892 C   0  0  0  0  0  0  0  0  0  0  0  0
   15.8844  -23.6373  -16.5996 C   0  0  0  0  0  0  0  0  0  0  0  0
   14.9488  -19.2073  -17.2554 N   0  0  0  0  0  0  0  0  0  0  0  0
   13.9176  -18.4653  -16.5813 C   0  0  1  0  0  0  0  0  0  0  0  0
   12.6133  -18.5619  -17.3513 C   0  0  0  0  0  0  0  0  0  0  0  0
   12.9669  -17.9787  -19.0467 S   0  0  0  0  0  0  0  0  0  0  0  0
   13.6554  -19.0037  -15.2136 C   0  0  0  0  0  0  0  0  0  0  0  0
   13.2239  -18.1581  -14.2055 O   0  0  0  0  0  0  0  0  0  0  0  0
   13.8143  -20.2150  -14.9394 O   0  0  0  0  0  0  0  0  0  0  0  0
  2 13  1  0
  2  1  1  6
  3  2  1  0
  4  3  1  0
  5  4  2  0
  6  5  1  0
  7  6  1  0
  7 12  2  0
  8  7  1  0
  9  8  2  0
  9 10  1  0
 10 11  2  0
 11 12  1  0
 12  4  1  0
 13 14  2  0
 15 16  1  0
 16 17  2  0
 17 18  1  0
 19 18  2  0
 19 20  1  0
 21 20  1  1
 22 21  1  0
 22 13  1  0
 23 21  1  0
 24 23  2  0
 25 19  1  0
 26 16  1  0
 26 25  2  0
 27 23  1  0
 28 27  1  0
 29 30  1  0
 28 29  1  6
 31 28  1  0
 31 32  1  0
 33 31  2  0
M  END
$$$$
