WYC.pdb
     RDKit          3D

 33 35  0  0  1  0  0  0  0  0999 V2000
   21.8678  -23.6646  -18.6450 N   0  0  0  0  0  0  0  0  0  0  0  0
   21.0619  -23.5392  -17.4814 C   0  0  1  0  0  0  0  0  0  0  0  0
   19.7027  -22.9659  -17.8054 C   0  0  0  0  0  0  0  0  0  0  0  0
   19.7826  -21.6977  -18.5453 C   0  0  0  0  0  0  0  0  0  0  0  0
   20.3478  -20.5236  -18.1026 C   0  0  0  0  0  0  0  0  0  0  0  0
   20.2664  -19.5790  -19.0563 N   0  0  0  0  0  0  0  0  0  0  0  0
   19.6502  -20.1370  -20.1144 C   0  0  0  0  0  0  0  0  0  0  0  0
   19.3354  -19.5683  -21.3208 C   0  0  0  0  0  0  0  0  0  0  0  0
   18.6808  -20.3400  -22.2816 C   0  0  0  0  0  0  0  0  0  0  0  0
   18.3689  -21.6500  -21.9923 C   0  0  0  0  0  0  0  0  0  0  0  0
   18.6890  -22.2128  -20.7784 C   0  0  0  0  0  0  0  0  0  0  0  0
   19.3368  -21.4645  -19.8181 C   0  0  0  0  0  0  0  0  0  0  0  0
   20.9235  -24.8039  -16.6995 C   0  0  0  0  0  0  0  0  0  0  0  0
   20.9350  -25.8861  -17.3408 O   0  0  0  0  0  0  0  0  0  0  0  0
   21.4986  -30.5278  -10.1877 O   0  0  0  0  0  0  0  0  0  0  0  0
   21.6193  -29.4634  -11.0770 C   0  0  0  0  0  0  0  0  0  0  0  0
   21.3839  -28.1636  -10.6808 C   0  0  0  0  0  0  0  0  0  0  0  0
   21.5075  -27.1211  -11.5727 C   0  0  0  0  0  0  0  0  0  0  0  0
   21.8715  -27.3087  -12.9083 C   0  0  0  0  0  0  0  0  0  0  0  0
   21.9941  -26.1429  -13.8222 C   0  0  0  0  0  0  0  0  0  0  0  0
   20.6850  -25.9055  -14.5143 C   0  0  2  0  0  0  0  0  0  0  0  0
   20.7890  -24.6953  -15.2937 N   0  0  0  0  0  0  0  0  0  0  0  0
   19.5341  -25.7856  -13.5992 C   0  0  0  0  0  0  0  0  0  0  0  0
   19.3198  -24.6976  -13.0158 O   0  0  0  0  0  0  0  0  0  0  0  0
   22.1034  -28.6111  -13.2896 C   0  0  0  0  0  0  0  0  0  0  0  0
   21.9792  -29.6608  -12.3930 C   0  0  0  0  0  0  0  0  0  0  0  0
   18.6371  -26.8632  -13.3395 N   0  0  0  0  0  0  0  0  0  0  0  0
   17.5339  -26.6592  -12.4397 C   0  0  1  0  0  0  0  0  0  0  0  0
   16.2620  -26.3885  -13.2223 C   0  0  0  0  0  0  0  0  0  0  0  0
   15.2193  -27.8795  -13.0500 S   0  0  0  0  0  0  0  0  0  0  0  0
   17.2779  -27.8659  -11.5987 C   0  0  0  0  0  0  0  0  0  0  0  0
   16.3221  -27.8244  -10.5974 O   0  0  0  0  0  0  0  0  0  0  0  0
   17.9076  -28.9347  -11.7687 O   0  0  0  0  0  0  0  0  0  0  0  0
  2 13  1  0
  2  1  1  6
  3  2  1  0
  4  3  1  0
  5  4  2  0
  6  5  1  0
  7  6  1  0
  7 12  2  0
  8  7  1  0
  9  8  2  0
  9 10  1  0
 10 11  2  0
 11 12  1  0
 12  4  1  0
 13 14  2  0
 15 16  1  0
 16 17  2  0
 17 18  1  0
 19 18  2  0
 19 20  1  0
 21 20  1  1
 22 21  1  0
 22 13  1  0
 23 21  1  0
 24 23  2  0
 25 19  1  0
 26 16  1  0
 26 25  2  0
 27 23  1  0
 28 27  1  0
 29 30  1  0
 28 29  1  6
 31 28  1  0
 31 32  1  0
 33 31  2  0
M  END
$$$$
