CEH.pdb
     RDKit          3D

 26 26  0  0  1  0  0  0  0  0999 V2000
    7.0988  -15.5750   19.6727 N   0  0  0  0  0  0  0  0  0  0  0  0
    7.7116  -14.9145   20.7829 C   0  0  1  0  0  0  0  0  0  0  0  0
    6.7025  -14.0561   21.5273 C   0  0  0  0  0  0  0  0  0  0  0  0
    7.5923  -13.3065   22.9314 S   0  0  0  0  0  0  0  0  0  0  0  0
    8.2488  -15.9028   21.7849 C   0  0  0  0  0  0  0  0  0  0  0  0
    7.6038  -16.9398   22.0820 O   0  0  0  0  0  0  0  0  0  0  0  0
    9.4974  -15.7082   22.4329 N   0  0  0  0  0  0  0  0  0  0  0  0
    9.9849  -16.6369   23.4360 C   0  0  1  0  0  0  0  0  0  0  0  0
   11.0764  -17.5263   22.8877 C   0  0  0  0  0  0  0  0  0  0  0  0
   11.7052  -16.9894   21.6413 C   0  0  0  0  0  0  0  0  0  0  0  0
   12.7635  -17.9232   21.2011 C   0  0  0  0  0  0  0  0  0  0  0  0
   12.7968  -18.3272   20.0179 O   0  0  0  0  0  0  0  0  0  0  0  0
   10.4946  -15.9411   24.6342 C   0  0  0  0  0  0  0  0  0  0  0  0
   10.9185  -14.7557   24.6205 O   0  0  0  0  0  0  0  0  0  0  0  0
   13.7105  -18.3438   22.1024 O   0  0  0  0  0  0  0  0  0  0  0  0
   10.5246  -16.6001   25.8717 N   0  0  0  0  0  0  0  0  0  0  0  0
    9.8138  -16.2347   27.0433 C   0  0  1  0  0  0  0  0  0  0  0  0
    8.3413  -16.0600   26.8974 C   0  0  0  0  0  0  0  0  0  0  0  0
    7.9269  -14.6572   26.6969 C   0  0  0  0  0  0  0  0  0  0  0  0
    8.7034  -13.5257   26.7436 C   0  0  0  0  0  0  0  0  0  0  0  0
    7.9435  -12.4286   26.5045 N   0  0  0  0  0  0  0  0  0  0  0  0
    6.6970  -12.9075   26.3122 C   0  0  0  0  0  0  0  0  0  0  0  0
    6.6818  -14.2469   26.4269 N   0  0  0  0  0  0  0  0  0  0  0  0
   10.0680  -17.2317   28.0969 C   0  0  0  0  0  0  0  0  0  0  0  0
   10.2903  -18.4179   27.7843 O   0  0  0  0  0  0  0  0  0  0  0  0
   10.0692  -16.8953   29.4365 O   0  0  0  0  0  0  0  0  0  0  0  0
  2  5  1  0
  2  1  1  6
  3  2  1  0
  4  3  1  0
  5  7  1  0
  6  5  2  0
  7  8  1  0
  8  9  1  6
  9 10  1  0
 10 11  1  0
 11 12  2  0
 11 15  1  0
 13 14  2  0
 13  8  1  0
 16 13  1  0
 17 16  1  0
 17 24  1  0
 17 18  1  6
 19 18  1  0
 19 23  1  0
 20 21  1  0
 20 19  2  0
 21 22  1  0
 22 23  2  0
 24 25  2  0
 24 26  1  0
M  END
$$$$
