CEH.pdb
     RDKit          3D

 26 26  0  0  1  0  0  0  0  0999 V2000
    7.9163  -13.0961   18.3605 N   0  0  0  0  0  0  0  0  0  0  0  0
    8.9330  -14.0848   18.5419 C   0  0  1  0  0  0  0  0  0  0  0  0
   10.2965  -13.4355   18.7113 C   0  0  0  0  0  0  0  0  0  0  0  0
   10.2608  -12.5596   20.3102 S   0  0  0  0  0  0  0  0  0  0  0  0
    8.6941  -14.9001   19.7859 C   0  0  0  0  0  0  0  0  0  0  0  0
    7.9399  -14.4816   20.7000 O   0  0  0  0  0  0  0  0  0  0  0  0
    9.3054  -16.1672   19.9794 N   0  0  0  0  0  0  0  0  0  0  0  0
    9.0484  -16.9606   21.1672 C   0  0  1  0  0  0  0  0  0  0  0  0
    9.3103  -18.4286   20.9237 C   0  0  0  0  0  0  0  0  0  0  0  0
    8.3028  -19.0662   20.0204 C   0  0  0  0  0  0  0  0  0  0  0  0
    8.6234  -20.5034   19.8882 C   0  0  0  0  0  0  0  0  0  0  0  0
    7.9156  -21.3631   20.4577 O   0  0  0  0  0  0  0  0  0  0  0  0
    9.8612  -16.5163   22.3168 C   0  0  0  0  0  0  0  0  0  0  0  0
   11.0269  -16.0541   22.2052 O   0  0  0  0  0  0  0  0  0  0  0  0
    9.7055  -20.8874   19.1347 O   0  0  0  0  0  0  0  0  0  0  0  0
    9.3439  -16.5966   23.6178 N   0  0  0  0  0  0  0  0  0  0  0  0
    9.8847  -15.9954   24.7829 C   0  0  1  0  0  0  0  0  0  0  0  0
    8.9125  -15.3415   25.7034 C   0  0  0  0  0  0  0  0  0  0  0  0
    9.5275  -14.8093   26.9356 C   0  0  0  0  0  0  0  0  0  0  0  0
   10.8386  -14.8897   27.3354 C   0  0  0  0  0  0  0  0  0  0  0  0
   10.9997  -14.2730   28.5320 N   0  0  0  0  0  0  0  0  0  0  0  0
    9.7713  -13.8175   28.8536 C   0  0  0  0  0  0  0  0  0  0  0  0
    8.8826  -14.1374   27.8969 N   0  0  0  0  0  0  0  0  0  0  0  0
   10.6468  -17.0025   25.5404 C   0  0  0  0  0  0  0  0  0  0  0  0
   11.3210  -16.6522   26.5290 O   0  0  0  0  0  0  0  0  0  0  0  0
   10.6415  -18.3386   25.1905 O   0  0  0  0  0  0  0  0  0  0  0  0
  2  5  1  0
  2  1  1  1
  3  2  1  0
  4  3  1  0
  5  7  1  0
  6  5  2  0
  7  8  1  0
  8  9  1  6
  9 10  1  0
 10 11  1  0
 11 12  2  0
 11 15  1  0
 13 14  2  0
 13  8  1  0
 16 13  1  0
 17 16  1  0
 17 24  1  0
 17 18  1  1
 19 18  1  0
 19 23  1  0
 20 21  1  0
 20 19  2  0
 21 22  1  0
 22 23  2  0
 24 25  2  0
 24 26  1  0
M  END
$$$$
