CEH.pdb
     RDKit          3D

 26 26  0  0  1  0  0  0  0  0999 V2000
    6.5241  -15.8880   19.8136 N   0  0  0  0  0  0  0  0  0  0  0  0
    7.4490  -15.1104   20.5778 C   0  0  1  0  0  0  0  0  0  0  0  0
    6.7444  -13.9545   21.2684 C   0  0  0  0  0  0  0  0  0  0  0  0
    8.0347  -13.0033   22.1378 S   0  0  0  0  0  0  0  0  0  0  0  0
    8.0893  -15.9291   21.6682 C   0  0  0  0  0  0  0  0  0  0  0  0
    7.4102  -16.7247   22.3649 O   0  0  0  0  0  0  0  0  0  0  0  0
    9.4773  -15.8392   21.9550 N   0  0  0  0  0  0  0  0  0  0  0  0
   10.0806  -16.6007   23.0332 C   0  0  1  0  0  0  0  0  0  0  0  0
   11.5070  -16.9837   22.7140 C   0  0  0  0  0  0  0  0  0  0  0  0
   11.6462  -17.7120   21.4149 C   0  0  0  0  0  0  0  0  0  0  0  0
   13.0804  -17.9681   21.1636 C   0  0  0  0  0  0  0  0  0  0  0  0
   13.5923  -17.6664   20.0630 O   0  0  0  0  0  0  0  0  0  0  0  0
   10.0605  -15.8625   24.3116 C   0  0  0  0  0  0  0  0  0  0  0  0
   10.0108  -14.6068   24.3871 O   0  0  0  0  0  0  0  0  0  0  0  0
   13.8469  -18.5404   22.1490 O   0  0  0  0  0  0  0  0  0  0  0  0
   10.0971  -16.5597   25.5278 N   0  0  0  0  0  0  0  0  0  0  0  0
    9.4062  -16.2211   26.7192 C   0  0  1  0  0  0  0  0  0  0  0  0
    7.9264  -16.0855   26.6113 C   0  0  0  0  0  0  0  0  0  0  0  0
    7.4717  -14.6975   26.3957 C   0  0  0  0  0  0  0  0  0  0  0  0
    8.2274  -13.5519   26.3506 C   0  0  0  0  0  0  0  0  0  0  0  0
    7.4312  -12.4767   26.1310 N   0  0  0  0  0  0  0  0  0  0  0  0
    6.1838  -12.9830   26.0434 C   0  0  0  0  0  0  0  0  0  0  0  0
    6.2029  -14.3179   26.2019 N   0  0  0  0  0  0  0  0  0  0  0  0
    9.7136  -17.2174   27.7592 C   0  0  0  0  0  0  0  0  0  0  0  0
   10.0251  -18.3787   27.4294 O   0  0  0  0  0  0  0  0  0  0  0  0
    9.6687  -16.9075   29.1045 O   0  0  0  0  0  0  0  0  0  0  0  0
  2  5  1  0
  2  1  1  1
  3  2  1  0
  4  3  1  0
  5  7  1  0
  6  5  2  0
  7  8  1  0
  8  9  1  6
  9 10  1  0
 10 11  1  0
 11 12  2  0
 11 15  1  0
 13 14  2  0
 13  8  1  0
 16 13  1  0
 17 16  1  0
 17 24  1  0
 17 18  1  6
 19 18  1  0
 19 23  1  0
 20 21  1  0
 20 19  2  0
 21 22  1  0
 22 23  2  0
 24 25  2  0
 24 26  1  0
M  END
$$$$
