CEH.pdb
     RDKit          3D

 26 26  0  0  1  0  0  0  0  0999 V2000
    7.7040  -15.1466   17.7813 N   0  0  0  0  0  0  0  0  0  0  0  0
    8.6416  -14.7012   18.7645 C   0  0  1  0  0  0  0  0  0  0  0  0
    8.1179  -13.4773   19.4976 C   0  0  0  0  0  0  0  0  0  0  0  0
    8.0786  -12.1194   18.2811 S   0  0  0  0  0  0  0  0  0  0  0  0
    8.8818  -15.7540   19.8148 C   0  0  0  0  0  0  0  0  0  0  0  0
    7.9469  -16.4893   20.2210 O   0  0  0  0  0  0  0  0  0  0  0  0
   10.1646  -15.9609   20.3878 N   0  0  0  0  0  0  0  0  0  0  0  0
   10.4068  -17.0273   21.3420 C   0  0  1  0  0  0  0  0  0  0  0  0
   11.5955  -17.8710   20.9442 C   0  0  0  0  0  0  0  0  0  0  0  0
   11.3743  -18.6459   19.6840 C   0  0  0  0  0  0  0  0  0  0  0  0
   12.5901  -19.4338   19.3895 C   0  0  0  0  0  0  0  0  0  0  0  0
   13.5722  -19.3920   20.1628 O   0  0  0  0  0  0  0  0  0  0  0  0
   10.6257  -16.5100   22.7073 C   0  0  0  0  0  0  0  0  0  0  0  0
   11.5343  -15.6895   23.0011 O   0  0  0  0  0  0  0  0  0  0  0  0
   12.6327  -20.2128   18.2592 O   0  0  0  0  0  0  0  0  0  0  0  0
    9.7998  -16.9296   23.7601 N   0  0  0  0  0  0  0  0  0  0  0  0
    9.8881  -16.5283   25.1174 C   0  0  1  0  0  0  0  0  0  0  0  0
    8.6021  -16.2097   25.7992 C   0  0  0  0  0  0  0  0  0  0  0  0
    7.9082  -15.0336   25.2378 C   0  0  0  0  0  0  0  0  0  0  0  0
    8.3718  -14.1357   24.3083 C   0  0  0  0  0  0  0  0  0  0  0  0
    7.4272  -13.1963   24.0561 N   0  0  0  0  0  0  0  0  0  0  0  0
    6.3852  -13.5346   24.8432 C   0  0  0  0  0  0  0  0  0  0  0  0
    6.6694  -14.6387   25.5558 N   0  0  0  0  0  0  0  0  0  0  0  0
   10.5843  -17.5720   25.8886 C   0  0  0  0  0  0  0  0  0  0  0  0
   10.9348  -18.6270   25.3241 O   0  0  0  0  0  0  0  0  0  0  0  0
   10.8668  -17.4221   27.2323 O   0  0  0  0  0  0  0  0  0  0  0  0
  2  5  1  0
  2  1  1  6
  3  2  1  0
  4  3  1  0
  5  7  1  0
  6  5  2  0
  7  8  1  0
  8  9  1  6
  9 10  1  0
 10 11  1  0
 11 12  2  0
 11 15  1  0
 13 14  2  0
 13  8  1  0
 16 13  1  0
 17 16  1  0
 17 24  1  0
 17 18  1  1
 19 18  1  0
 19 23  1  0
 20 21  1  0
 20 19  2  0
 21 22  1  0
 22 23  2  0
 24 25  2  0
 24 26  1  0
M  END
$$$$
