TNH.pdb
     RDKit          3D

 26 26  0  0  1  0  0  0  0  0999 V2000
    9.7400  -12.5109   19.3293 C   0  0  0  0  0  0  0  0  0  0  0  0
    8.7222  -13.1158   18.3879 C   0  0  1  0  0  0  0  0  0  0  0  0
    8.6803  -12.5148   17.1603 O   0  0  0  0  0  0  0  0  0  0  0  0
    8.9025  -14.6127   18.2594 C   0  0  2  0  0  0  0  0  0  0  0  0
    7.8590  -15.1735   17.3978 N   0  0  0  0  0  0  0  0  0  0  0  0
    8.8886  -15.3393   19.5273 C   0  0  0  0  0  0  0  0  0  0  0  0
    7.8448  -15.5883   20.1917 O   0  0  0  0  0  0  0  0  0  0  0  0
   10.6507  -19.7965   20.7168 N   0  0  0  0  0  0  0  0  0  0  0  0
   11.2534  -18.5976   20.3089 C   0  0  0  0  0  0  0  0  0  0  0  0
   11.6881  -18.4825   19.1449 O   0  0  0  0  0  0  0  0  0  0  0  0
   11.3756  -17.4724   21.2493 C   0  0  0  0  0  0  0  0  0  0  0  0
   10.1575  -16.5786   21.2842 C   0  0  2  0  0  0  0  0  0  0  0  0
   10.1104  -15.8122   20.0782 N   0  0  0  0  0  0  0  0  0  0  0  0
   10.1603  -15.7692   22.5213 C   0  0  0  0  0  0  0  0  0  0  0  0
   11.0226  -14.8590   22.6964 O   0  0  0  0  0  0  0  0  0  0  0  0
    9.2122  -15.9918   23.5220 N   0  0  0  0  0  0  0  0  0  0  0  0
    9.0986  -15.1025   24.7228 C   0  0  1  0  0  0  0  0  0  0  0  0
    7.6622  -14.6937   24.7334 C   0  0  0  0  0  0  0  0  0  0  0  0
    7.2088  -13.8608   25.8393 C   0  0  0  0  0  0  0  0  0  0  0  0
    7.8172  -13.3358   26.9476 C   0  0  0  0  0  0  0  0  0  0  0  0
    6.9089  -12.5734   27.6175 N   0  0  0  0  0  0  0  0  0  0  0  0
    5.7570  -12.6242   26.9346 C   0  0  0  0  0  0  0  0  0  0  0  0
    5.9341  -13.3924   25.8721 N   0  0  0  0  0  0  0  0  0  0  0  0
    9.3173  -15.9962   25.9179 C   0  0  0  0  0  0  0  0  0  0  0  0
    9.6281  -15.5084   27.1456 O   0  0  0  0  0  0  0  0  0  0  0  0
    9.2088  -17.2371   25.7774 O   0  0  0  0  0  0  0  0  0  0  0  0
  2  4  1  0
  2  1  1  1
  3  2  1  0
  4  6  1  0
  4  5  1  6
  6 13  1  0
  6  7  2  0
  8  9  1  0
  9 11  1  0
 10  9  2  0
 12 11  1  6
 12 14  1  0
 13 12  1  0
 14 15  2  0
 16 17  1  0
 16 14  1  0
 17 24  1  0
 18 19  1  0
 17 18  1  1
 19 23  1  0
 20 19  2  0
 20 21  1  0
 21 22  1  0
 23 22  2  0
 24 25  1  0
 26 24  2  0
M  END
$$$$
