TNH.pdb
     RDKit          3D

 26 26  0  0  1  0  0  0  0  0999 V2000
    8.3664  -12.2941   18.5226 C   0  0  0  0  0  0  0  0  0  0  0  0
    8.7205  -13.2616   19.6301 C   0  0  1  0  0  0  0  0  0  0  0  0
    8.0743  -13.0113   20.8090 O   0  0  0  0  0  0  0  0  0  0  0  0
    8.5317  -14.6988   19.1960 C   0  0  2  0  0  0  0  0  0  0  0  0
    7.1610  -14.9059   18.7225 N   0  0  0  0  0  0  0  0  0  0  0  0
    8.8126  -15.6903   20.2322 C   0  0  0  0  0  0  0  0  0  0  0  0
    7.9254  -16.2943   20.8964 O   0  0  0  0  0  0  0  0  0  0  0  0
   11.2805  -19.7346   19.9817 N   0  0  0  0  0  0  0  0  0  0  0  0
   11.8077  -18.4356   19.9419 C   0  0  0  0  0  0  0  0  0  0  0  0
   12.2526  -17.9755   18.8706 O   0  0  0  0  0  0  0  0  0  0  0  0
   11.8388  -17.6110   21.1602 C   0  0  0  0  0  0  0  0  0  0  0  0
   10.4995  -17.0084   21.5166 C   0  0  2  0  0  0  0  0  0  0  0  0
   10.1600  -16.0223   20.5386 N   0  0  0  0  0  0  0  0  0  0  0  0
   10.5260  -16.5050   22.9064 C   0  0  0  0  0  0  0  0  0  0  0  0
   11.3426  -15.6011   23.2511 O   0  0  0  0  0  0  0  0  0  0  0  0
    9.6511  -17.0159   23.8674 N   0  0  0  0  0  0  0  0  0  0  0  0
    9.6679  -16.5446   25.2898 C   0  0  1  0  0  0  0  0  0  0  0  0
    8.2266  -16.3248   25.6133 C   0  0  0  0  0  0  0  0  0  0  0  0
    7.7029  -14.9736   25.4642 C   0  0  0  0  0  0  0  0  0  0  0  0
    8.2519  -13.7750   25.0953 C   0  0  0  0  0  0  0  0  0  0  0  0
    7.2648  -12.8368   25.0746 N   0  0  0  0  0  0  0  0  0  0  0  0
    6.1227  -13.4446   25.4238 C   0  0  0  0  0  0  0  0  0  0  0  0
    6.3821  -14.7209   25.6567 N   0  0  0  0  0  0  0  0  0  0  0  0
   10.1344  -17.7229   26.1074 C   0  0  0  0  0  0  0  0  0  0  0  0
   10.4317  -17.6220   27.4277 O   0  0  0  0  0  0  0  0  0  0  0  0
   10.2534  -18.8401   25.5513 O   0  0  0  0  0  0  0  0  0  0  0  0
  2  4  1  0
  2  1  1  6
  3  2  1  0
  4  6  1  0
  4  5  1  1
  6 13  1  0
  6  7  2  0
  8  9  1  0
  9 11  1  0
 10  9  2  0
 12 11  1  6
 12 14  1  0
 13 12  1  0
 14 15  2  0
 16 17  1  0
 16 14  1  0
 17 24  1  0
 18 19  1  0
 17 18  1  1
 19 23  1  0
 20 19  2  0
 20 21  1  0
 21 22  1  0
 23 22  2  0
 24 25  1  0
 26 24  2  0
M  END
$$$$
