TNH.pdb
     RDKit          3D

 26 26  0  0  1  0  0  0  0  0999 V2000
    8.1740  -12.0135   18.6232 C   0  0  0  0  0  0  0  0  0  0  0  0
    9.1232  -13.0506   19.1814 C   0  0  1  0  0  0  0  0  0  0  0  0
    8.5576  -13.8672   20.1212 O   0  0  0  0  0  0  0  0  0  0  0  0
    9.7801  -13.8546   18.0807 C   0  0  2  0  0  0  0  0  0  0  0  0
    8.7604  -14.5159   17.2629 N   0  0  0  0  0  0  0  0  0  0  0  0
   10.7223  -14.8699   18.5467 C   0  0  0  0  0  0  0  0  0  0  0  0
   10.4589  -16.1020   18.6216 O   0  0  0  0  0  0  0  0  0  0  0  0
   14.5081  -16.3056   17.0669 N   0  0  0  0  0  0  0  0  0  0  0  0
   14.7000  -15.0838   17.7282 C   0  0  0  0  0  0  0  0  0  0  0  0
   15.1550  -14.1024   17.1059 O   0  0  0  0  0  0  0  0  0  0  0  0
   14.3666  -14.9535   19.1555 C   0  0  0  0  0  0  0  0  0  0  0  0
   12.9673  -15.4135   19.4938 C   0  0  2  0  0  0  0  0  0  0  0  0
   12.0290  -14.4823   18.9491 N   0  0  0  0  0  0  0  0  0  0  0  0
   12.8430  -15.6219   20.9521 C   0  0  0  0  0  0  0  0  0  0  0  0
   13.5341  -14.9393   21.7640 O   0  0  0  0  0  0  0  0  0  0  0  0
   11.9611  -16.5758   21.4642 N   0  0  0  0  0  0  0  0  0  0  0  0
   11.7008  -16.7115   22.9337 C   0  0  1  0  0  0  0  0  0  0  0  0
   10.2643  -17.1128   23.0093 C   0  0  0  0  0  0  0  0  0  0  0  0
    9.2667  -16.1074   22.6684 C   0  0  0  0  0  0  0  0  0  0  0  0
    9.1957  -14.7483   22.8164 C   0  0  0  0  0  0  0  0  0  0  0  0
    8.0340  -14.3136   22.2539 N   0  0  0  0  0  0  0  0  0  0  0  0
    7.3963  -15.3858   21.7645 C   0  0  0  0  0  0  0  0  0  0  0  0
    8.1311  -16.4581   22.0108 N   0  0  0  0  0  0  0  0  0  0  0  0
   12.5193  -17.8938   23.3883 C   0  0  0  0  0  0  0  0  0  0  0  0
   12.6321  -18.2430   24.6949 O   0  0  0  0  0  0  0  0  0  0  0  0
   13.1199  -18.5835   22.5310 O   0  0  0  0  0  0  0  0  0  0  0  0
  2  4  1  0
  2  1  1  6
  3  2  1  0
  4  6  1  0
  4  5  1  1
  6 13  1  0
  6  7  2  0
  8  9  1  0
  9 11  1  0
 10  9  2  0
 12 11  1  1
 12 14  1  0
 13 12  1  0
 14 15  2  0
 16 17  1  0
 16 14  1  0
 17 24  1  0
 18 19  1  0
 17 18  1  6
 19 23  1  0
 20 19  2  0
 20 21  1  0
 21 22  1  0
 23 22  2  0
 24 25  1  0
 26 24  2  0
M  END
$$$$
