TNH.pdb
     RDKit          3D

 26 26  0  0  1  0  0  0  0  0999 V2000
    8.1814  -11.8951   18.2616 C   0  0  0  0  0  0  0  0  0  0  0  0
    8.9347  -12.9682   19.0160 C   0  0  1  0  0  0  0  0  0  0  0  0
    8.1573  -13.6787   19.8881 O   0  0  0  0  0  0  0  0  0  0  0  0
    9.6850  -13.8871   18.0768 C   0  0  2  0  0  0  0  0  0  0  0  0
    8.7433  -14.5982   17.2088 N   0  0  0  0  0  0  0  0  0  0  0  0
   10.5326  -14.8761   18.7397 C   0  0  0  0  0  0  0  0  0  0  0  0
   10.1907  -16.0709   18.9599 O   0  0  0  0  0  0  0  0  0  0  0  0
   14.7505  -16.3191   17.4827 N   0  0  0  0  0  0  0  0  0  0  0  0
   14.5018  -15.0818   18.0944 C   0  0  0  0  0  0  0  0  0  0  0  0
   14.5829  -14.0293   17.4287 O   0  0  0  0  0  0  0  0  0  0  0  0
   14.1451  -15.0188   19.5206 C   0  0  0  0  0  0  0  0  0  0  0  0
   12.7200  -15.4332   19.8061 C   0  0  2  0  0  0  0  0  0  0  0  0
   11.8327  -14.5049   19.1776 N   0  0  0  0  0  0  0  0  0  0  0  0
   12.5186  -15.5780   21.2635 C   0  0  0  0  0  0  0  0  0  0  0  0
   13.1850  -14.8777   22.0810 O   0  0  0  0  0  0  0  0  0  0  0  0
   11.5896  -16.4900   21.7685 N   0  0  0  0  0  0  0  0  0  0  0  0
   11.3425  -16.6431   23.2386 C   0  0  1  0  0  0  0  0  0  0  0  0
    9.8873  -16.9665   23.3274 C   0  0  0  0  0  0  0  0  0  0  0  0
    8.9421  -15.8946   23.0444 C   0  0  0  0  0  0  0  0  0  0  0  0
    8.6880  -14.6749   23.6118 C   0  0  0  0  0  0  0  0  0  0  0  0
    7.7146  -14.0567   22.8870 N   0  0  0  0  0  0  0  0  0  0  0  0
    7.3722  -14.8796   21.8862 C   0  0  0  0  0  0  0  0  0  0  0  0
    8.1044  -15.9777   21.9783 N   0  0  0  0  0  0  0  0  0  0  0  0
   12.1008  -17.8782   23.6560 C   0  0  0  0  0  0  0  0  0  0  0  0
   12.1927  -18.2741   24.9509 O   0  0  0  0  0  0  0  0  0  0  0  0
   12.6690  -18.5689   22.7777 O   0  0  0  0  0  0  0  0  0  0  0  0
  2  4  1  0
  2  1  1  6
  3  2  1  0
  4  6  1  0
  4  5  1  1
  6 13  1  0
  6  7  2  0
  8  9  1  0
  9 11  1  0
 10  9  2  0
 12 11  1  1
 12 14  1  0
 13 12  1  0
 14 15  2  0
 16 17  1  0
 16 14  1  0
 17 24  1  0
 18 19  1  0
 17 18  1  6
 19 23  1  0
 20 19  2  0
 20 21  1  0
 21 22  1  0
 23 22  2  0
 24 25  1  0
 26 24  2  0
M  END
$$$$
