TNH.pdb
     RDKit          3D

 26 26  0  0  1  0  0  0  0  0999 V2000
    9.1958  -12.6757   20.1500 C   0  0  0  0  0  0  0  0  0  0  0  0
    8.2759  -13.1652   19.0535 C   0  0  1  0  0  0  0  0  0  0  0  0
    8.1135  -12.2729   18.0301 O   0  0  0  0  0  0  0  0  0  0  0  0
    8.6995  -14.5223   18.5353 C   0  0  2  0  0  0  0  0  0  0  0  0
    7.7305  -15.0104   17.5511 N   0  0  0  0  0  0  0  0  0  0  0  0
    8.8597  -15.5455   19.5663 C   0  0  0  0  0  0  0  0  0  0  0  0
    7.9023  -16.0786   20.1926 O   0  0  0  0  0  0  0  0  0  0  0  0
   12.6584  -18.3717   18.6775 N   0  0  0  0  0  0  0  0  0  0  0  0
   11.7514  -18.5167   19.7373 C   0  0  0  0  0  0  0  0  0  0  0  0
   10.9527  -19.4755   19.7481 O   0  0  0  0  0  0  0  0  0  0  0  0
   11.7371  -17.5413   20.8390 C   0  0  0  0  0  0  0  0  0  0  0  0
   10.4013  -16.8595   21.0255 C   0  0  2  0  0  0  0  0  0  0  0  0
   10.1628  -15.9949   19.9121 N   0  0  0  0  0  0  0  0  0  0  0  0
   10.3574  -16.1860   22.3408 C   0  0  0  0  0  0  0  0  0  0  0  0
   10.9771  -15.0986   22.5314 O   0  0  0  0  0  0  0  0  0  0  0  0
    9.6318  -16.7352   23.4000 N   0  0  0  0  0  0  0  0  0  0  0  0
    9.5796  -16.0865   24.7499 C   0  0  1  0  0  0  0  0  0  0  0  0
    8.1189  -15.9848   25.0442 C   0  0  0  0  0  0  0  0  0  0  0  0
    7.5290  -14.6529   25.0659 C   0  0  0  0  0  0  0  0  0  0  0  0
    8.0265  -13.3885   24.8991 C   0  0  0  0  0  0  0  0  0  0  0  0
    6.9915  -12.5057   24.9666 N   0  0  0  0  0  0  0  0  0  0  0  0
    5.8710  -13.2119   25.1706 C   0  0  0  0  0  0  0  0  0  0  0  0
    6.1899  -14.4946   25.2299 N   0  0  0  0  0  0  0  0  0  0  0  0
   10.1598  -17.0928   25.7118 C   0  0  0  0  0  0  0  0  0  0  0  0
   10.5394  -18.3368   25.3242 O   0  0  0  0  0  0  0  0  0  0  0  0
   10.2993  -16.7731   26.9159 O   0  0  0  0  0  0  0  0  0  0  0  0
  2  4  1  0
  2  1  1  1
  3  2  1  0
  4  6  1  0
  4  5  1  6
  6 13  1  0
  6  7  2  0
  8  9  1  0
  9 11  1  0
 10  9  2  0
 12 11  1  6
 12 14  1  0
 13 12  1  0
 14 15  2  0
 16 17  1  0
 16 14  1  0
 17 24  1  0
 18 19  1  0
 17 18  1  1
 19 23  1  0
 20 19  2  0
 20 21  1  0
 21 22  1  0
 23 22  2  0
 24 25  1  0
 26 24  2  0
M  END
$$$$
