TNH.pdb
     RDKit          3D

 26 26  0  0  1  0  0  0  0  0999 V2000
    9.0634  -12.7091   17.4874 C   0  0  0  0  0  0  0  0  0  0  0  0
    9.1484  -13.4541   18.8011 C   0  0  1  0  0  0  0  0  0  0  0  0
    8.5155  -12.8224   19.8357 O   0  0  0  0  0  0  0  0  0  0  0  0
    8.6764  -14.8850   18.6617 C   0  0  2  0  0  0  0  0  0  0  0  0
    7.2981  -14.9147   18.1665 N   0  0  0  0  0  0  0  0  0  0  0  0
    8.7373  -15.6696   19.8932 C   0  0  0  0  0  0  0  0  0  0  0  0
    7.7428  -15.9091   20.6325 O   0  0  0  0  0  0  0  0  0  0  0  0
   12.9313  -18.7474   23.1545 N   0  0  0  0  0  0  0  0  0  0  0  0
   11.6165  -18.5558   22.7055 C   0  0  0  0  0  0  0  0  0  0  0  0
   10.6611  -19.0335   23.3508 O   0  0  0  0  0  0  0  0  0  0  0  0
   11.3579  -17.7924   21.4744 C   0  0  0  0  0  0  0  0  0  0  0  0
   10.1189  -16.9300   21.5469 C   0  0  2  0  0  0  0  0  0  0  0  0
    9.9794  -16.2148   20.3168 N   0  0  0  0  0  0  0  0  0  0  0  0
   10.1712  -16.0711   22.7490 C   0  0  0  0  0  0  0  0  0  0  0  0
   11.0305  -15.1464   22.8461 O   0  0  0  0  0  0  0  0  0  0  0  0
    9.2743  -16.2619   23.8022 N   0  0  0  0  0  0  0  0  0  0  0  0
    9.1740  -15.2996   24.9465 C   0  0  1  0  0  0  0  0  0  0  0  0
    7.7593  -14.8238   24.8940 C   0  0  0  0  0  0  0  0  0  0  0  0
    7.3400  -13.8509   25.8939 C   0  0  0  0  0  0  0  0  0  0  0  0
    7.9843  -13.1795   26.8980 C   0  0  0  0  0  0  0  0  0  0  0  0
    7.0951  -12.3366   27.4927 N   0  0  0  0  0  0  0  0  0  0  0  0
    5.9193  -12.4826   26.8664 C   0  0  0  0  0  0  0  0  0  0  0  0
    6.0636  -13.3863   25.9110 N   0  0  0  0  0  0  0  0  0  0  0  0
    9.3193  -16.1311   26.1963 C   0  0  0  0  0  0  0  0  0  0  0  0
    9.5668  -15.5820   27.4125 O   0  0  0  0  0  0  0  0  0  0  0  0
    9.2079  -17.3770   26.1143 O   0  0  0  0  0  0  0  0  0  0  0  0
  2  4  1  0
  2  1  1  6
  3  2  1  0
  4  6  1  0
  4  5  1  1
  6 13  1  0
  6  7  2  0
  8  9  1  0
  9 11  1  0
 10  9  2  0
 12 11  1  6
 12 14  1  0
 13 12  1  0
 14 15  2  0
 16 17  1  0
 16 14  1  0
 17 24  1  0
 18 19  1  0
 17 18  1  1
 19 23  1  0
 20 19  2  0
 20 21  1  0
 21 22  1  0
 23 22  2  0
 24 25  1  0
 26 24  2  0
M  END
$$$$
