EMW.pdb
     RDKit          3D

 32 33  0  0  1  0  0  0  0  0999 V2000
   18.1459  -10.4396  -17.2392 N   0  0  0  0  0  0  0  0  0  0  0  0
   18.0487  -11.3687  -16.1025 C   0  0  1  0  0  0  0  0  0  0  0  0
   18.7758  -12.6358  -16.3859 C   0  0  0  0  0  0  0  0  0  0  0  0
   18.0115  -13.4743  -17.3668 C   0  0  0  0  0  0  0  0  0  0  0  0
   17.0578  -14.3291  -16.6009 C   0  0  0  0  0  0  0  0  0  0  0  0
   17.4759  -15.2479  -15.8882 O   0  0  0  0  0  0  0  0  0  0  0  0
   18.4649  -10.6274  -14.9111 C   0  0  0  0  0  0  0  0  0  0  0  0
   18.6305  -11.1406  -13.7523 O   0  0  0  0  0  0  0  0  0  0  0  0
   15.6873  -14.0820  -16.6963 O   0  0  0  0  0  0  0  0  0  0  0  0
   20.4362   -3.9488  -14.2788 C   0  0  0  0  0  0  0  0  0  0  0  0
   21.6516   -5.1597  -13.6668 S   0  0  0  0  0  0  0  0  0  0  0  0
   20.7579   -6.6264  -13.0279 C   0  0  0  0  0  0  0  0  0  0  0  0
   20.1559   -7.3928  -14.1621 C   0  0  0  0  0  0  0  0  0  0  0  0
   19.2479   -8.5046  -13.7548 C   0  0  2  0  0  0  0  0  0  0  0  0
   18.7320   -9.2142  -14.9413 N   0  0  0  0  0  0  0  0  0  0  0  0
   18.0875   -7.9408  -13.0657 C   0  0  0  0  0  0  0  0  0  0  0  0
   17.1282   -7.3983  -13.6595 O   0  0  0  0  0  0  0  0  0  0  0  0
   18.0258   -8.0010  -11.6529 N   0  0  0  0  0  0  0  0  0  0  0  0
   16.9159   -7.4025  -10.9235 C   0  0  1  0  0  0  0  0  0  0  0  0
   16.7624   -8.0276   -9.5574 C   0  0  0  0  0  0  0  0  0  0  0  0
   15.6145   -7.3887   -8.8792 C   0  0  0  0  0  0  0  0  0  0  0  0
   15.5528   -6.1558   -8.2768 C   0  0  0  0  0  0  0  0  0  0  0  0
   14.3079   -5.9690   -7.7679 N   0  0  0  0  0  0  0  0  0  0  0  0
   13.5532   -7.0459   -8.0208 C   0  0  0  0  0  0  0  0  0  0  0  0
   12.2586   -7.3874   -7.7443 C   0  0  0  0  0  0  0  0  0  0  0  0
   11.7134   -8.6108   -8.1372 C   0  0  0  0  0  0  0  0  0  0  0  0
   12.5131   -9.4975   -8.8258 C   0  0  0  0  0  0  0  0  0  0  0  0
   13.8160   -9.1578   -9.1058 C   0  0  0  0  0  0  0  0  0  0  0  0
   14.3490   -7.9315   -8.7075 C   0  0  0  0  0  0  0  0  0  0  0  0
   17.1933   -5.9564  -10.7272 C   0  0  0  0  0  0  0  0  0  0  0  0
   18.3912   -5.5628  -10.5104 O   0  0  0  0  0  0  0  0  0  0  0  0
   16.2422   -4.9691  -10.7600 O   0  0  0  0  0  0  0  0  0  0  0  0
  2  1  1  6
  2  7  1  0
  3  4  1  0
  3  2  1  0
  5  9  1  0
  5  4  1  0
  6  5  2  0
  7  8  2  0
  7 15  1  0
 11 10  1  0
 12 11  1  0
 13 12  1  0
 14 13  1  6
 14 16  1  0
 15 14  1  0
 16 17  2  0
 18 16  1  0
 18 19  1  0
 19 20  1  1
 21 20  1  0
 22 21  2  0
 23 22  1  0
 24 23  1  0
 24 29  2  0
 25 26  2  0
 25 24  1  0
 26 27  1  0
 27 28  2  0
 29 28  1  0
 29 21  1  0
 30 32  1  0
 30 19  1  0
 31 30  2  0
M  END
$$$$
