EMW.pdb
     RDKit          3D

 32 33  0  0  1  0  0  0  0  0999 V2000
   26.7975  -19.5051  -16.8314 N   0  0  0  0  0  0  0  0  0  0  0  0
   27.1008  -20.3019  -15.6323 C   0  0  1  0  0  0  0  0  0  0  0  0
   28.5611  -20.2996  -15.3459 C   0  0  0  0  0  0  0  0  0  0  0  0
   29.3265  -20.8674  -16.5041 C   0  0  0  0  0  0  0  0  0  0  0  0
   29.1858  -22.3526  -16.4687 C   0  0  0  0  0  0  0  0  0  0  0  0
   28.9869  -22.9360  -15.3977 O   0  0  0  0  0  0  0  0  0  0  0  0
   26.2238  -19.8157  -14.5661 C   0  0  0  0  0  0  0  0  0  0  0  0
   25.9758  -18.5845  -14.3288 O   0  0  0  0  0  0  0  0  0  0  0  0
   29.2808  -23.0785  -17.6570 O   0  0  0  0  0  0  0  0  0  0  0  0
   20.4374  -20.3188  -14.3624 C   0  0  0  0  0  0  0  0  0  0  0  0
   20.5158  -20.4276  -12.5458 S   0  0  0  0  0  0  0  0  0  0  0  0
   22.2054  -19.9779  -11.9969 C   0  0  0  0  0  0  0  0  0  0  0  0
   23.2127  -20.4691  -12.9870 C   0  0  0  0  0  0  0  0  0  0  0  0
   24.6338  -20.1986  -12.6214 C   0  0  2  0  0  0  0  0  0  0  0  0
   25.5440  -20.7078  -13.6654 N   0  0  0  0  0  0  0  0  0  0  0  0
   24.9544  -20.9264  -11.3938 C   0  0  0  0  0  0  0  0  0  0  0  0
   25.0381  -22.1740  -11.3327 O   0  0  0  0  0  0  0  0  0  0  0  0
   25.1859  -20.2012  -10.2006 N   0  0  0  0  0  0  0  0  0  0  0  0
   25.5039  -20.8865   -8.9551 C   0  0  1  0  0  0  0  0  0  0  0  0
   26.1258  -19.9396   -7.9564 C   0  0  0  0  0  0  0  0  0  0  0  0
   27.5708  -20.2391   -7.8679 C   0  0  0  0  0  0  0  0  0  0  0  0
   28.3491  -20.9696   -8.7323 C   0  0  0  0  0  0  0  0  0  0  0  0
   29.6238  -21.0041   -8.2655 N   0  0  0  0  0  0  0  0  0  0  0  0
   29.7008  -20.3161   -7.1191 C   0  0  0  0  0  0  0  0  0  0  0  0
   30.7131  -20.0328   -6.2451 C   0  0  0  0  0  0  0  0  0  0  0  0
   30.5084  -19.2704   -5.0939 C   0  0  0  0  0  0  0  0  0  0  0  0
   29.2415  -18.7916   -4.8377 C   0  0  0  0  0  0  0  0  0  0  0  0
   28.2204  -19.0744   -5.7145 C   0  0  0  0  0  0  0  0  0  0  0  0
   28.4382  -19.8377   -6.8618 C   0  0  0  0  0  0  0  0  0  0  0  0
   24.2474  -21.4074   -8.3581 C   0  0  0  0  0  0  0  0  0  0  0  0
   23.1197  -20.9443   -8.7465 O   0  0  0  0  0  0  0  0  0  0  0  0
   24.1880  -22.3781   -7.3914 O   0  0  0  0  0  0  0  0  0  0  0  0
  2  1  1  6
  2  7  1  0
  3  4  1  0
  3  2  1  0
  5  9  1  0
  5  4  1  0
  6  5  2  0
  7  8  2  0
  7 15  1  0
 11 10  1  0
 12 11  1  0
 13 12  1  0
 14 13  1  6
 14 16  1  0
 15 14  1  0
 16 17  2  0
 18 16  1  0
 18 19  1  0
 19 20  1  1
 21 20  1  0
 22 21  2  0
 23 22  1  0
 24 23  1  0
 24 29  2  0
 25 26  2  0
 25 24  1  0
 26 27  1  0
 27 28  2  0
 29 28  1  0
 29 21  1  0
 30 32  1  0
 30 19  1  0
 31 30  2  0
M  END
$$$$
