EMW.pdb
     RDKit          3D

 32 33  0  0  1  0  0  0  0  0999 V2000
   26.8873  -17.4941  -18.0252 N   0  0  0  0  0  0  0  0  0  0  0  0
   26.2575  -18.7535  -18.4519 C   0  0  1  0  0  0  0  0  0  0  0  0
   26.6250  -19.0848  -19.8553 C   0  0  0  0  0  0  0  0  0  0  0  0
   26.7372  -17.8367  -20.6796 C   0  0  0  0  0  0  0  0  0  0  0  0
   28.1364  -17.3307  -20.5657 C   0  0  0  0  0  0  0  0  0  0  0  0
   29.0921  -18.0779  -20.8005 O   0  0  0  0  0  0  0  0  0  0  0  0
   26.5819  -19.7561  -17.4361 C   0  0  0  0  0  0  0  0  0  0  0  0
   26.1615  -20.9632  -17.4407 O   0  0  0  0  0  0  0  0  0  0  0  0
   28.3572  -16.0044  -20.1910 O   0  0  0  0  0  0  0  0  0  0  0  0
   28.9070  -21.2792  -10.3685 C   0  0  0  0  0  0  0  0  0  0  0  0
   28.7041  -20.1468  -11.7807 S   0  0  0  0  0  0  0  0  0  0  0  0
   29.1740  -21.0259  -13.3185 C   0  0  0  0  0  0  0  0  0  0  0  0
   28.9163  -20.1537  -14.5055 C   0  0  0  0  0  0  0  0  0  0  0  0
   27.6508  -20.4508  -15.2381 C   0  0  2  0  0  0  0  0  0  0  0  0
   27.4276  -19.4618  -16.3103 N   0  0  0  0  0  0  0  0  0  0  0  0
   26.5260  -20.3258  -14.3114 C   0  0  0  0  0  0  0  0  0  0  0  0
   26.2838  -19.2873  -13.6556 O   0  0  0  0  0  0  0  0  0  0  0  0
   25.6530  -21.4252  -14.1315 N   0  0  0  0  0  0  0  0  0  0  0  0
   24.6856  -21.4457  -13.0426 C   0  0  1  0  0  0  0  0  0  0  0  0
   23.9920  -20.1112  -12.9056 C   0  0  0  0  0  0  0  0  0  0  0  0
   23.0890  -20.1734  -11.7367 C   0  0  0  0  0  0  0  0  0  0  0  0
   23.4133  -20.3200  -10.4101 C   0  0  0  0  0  0  0  0  0  0  0  0
   22.2743  -20.3380   -9.6710 N   0  0  0  0  0  0  0  0  0  0  0  0
   21.2135  -20.2073  -10.4778 C   0  0  0  0  0  0  0  0  0  0  0  0
   19.8624  -20.1621  -10.2742 C   0  0  0  0  0  0  0  0  0  0  0  0
   18.9575  -20.0145  -11.3266 C   0  0  0  0  0  0  0  0  0  0  0  0
   19.4506  -19.9116  -12.6097 C   0  0  0  0  0  0  0  0  0  0  0  0
   20.8092  -19.9565  -12.8188 C   0  0  0  0  0  0  0  0  0  0  0  0
   21.7032  -20.1044  -11.7580 C   0  0  0  0  0  0  0  0  0  0  0  0
   23.6460  -22.4636  -13.3417 C   0  0  0  0  0  0  0  0  0  0  0  0
   23.3914  -22.7740  -14.5566 O   0  0  0  0  0  0  0  0  0  0  0  0
   22.9080  -23.1254  -12.3942 O   0  0  0  0  0  0  0  0  0  0  0  0
  2  1  1  1
  2  7  1  0
  3  4  1  0
  3  2  1  0
  5  9  1  0
  5  4  1  0
  6  5  2  0
  7  8  2  0
  7 15  1  0
 11 10  1  0
 12 11  1  0
 13 12  1  0
 14 13  1  1
 14 16  1  0
 15 14  1  0
 16 17  2  0
 18 16  1  0
 18 19  1  0
 19 20  1  6
 21 20  1  0
 22 21  2  0
 23 22  1  0
 24 23  1  0
 24 29  2  0
 25 26  2  0
 25 24  1  0
 26 27  1  0
 27 28  2  0
 29 28  1  0
 29 21  1  0
 30 32  1  0
 30 19  1  0
 31 30  2  0
M  END
$$$$
