EMW.pdb
     RDKit          3D

 32 33  0  0  1  0  0  0  0  0999 V2000
   20.6146  -13.0155  -18.9541 N   0  0  0  0  0  0  0  0  0  0  0  0
   19.9558  -12.7022  -17.6764 C   0  0  1  0  0  0  0  0  0  0  0  0
   19.6902  -13.9410  -16.8957 C   0  0  0  0  0  0  0  0  0  0  0  0
   18.7851  -14.8615  -17.6591 C   0  0  0  0  0  0  0  0  0  0  0  0
   18.0108  -15.6718  -16.6739 C   0  0  0  0  0  0  0  0  0  0  0  0
   16.7981  -15.4854  -16.5273 O   0  0  0  0  0  0  0  0  0  0  0  0
   20.7676  -11.6763  -17.0202 C   0  0  0  0  0  0  0  0  0  0  0  0
   20.5424  -11.2010  -15.8553 O   0  0  0  0  0  0  0  0  0  0  0  0
   18.6686  -16.6435  -15.9181 O   0  0  0  0  0  0  0  0  0  0  0  0
   26.7765  -10.0964  -14.3584 C   0  0  0  0  0  0  0  0  0  0  0  0
   25.3792  -10.6380  -15.3939 S   0  0  0  0  0  0  0  0  0  0  0  0
   25.1697   -9.4521  -16.7752 C   0  0  0  0  0  0  0  0  0  0  0  0
   24.0449   -9.8890  -17.6584 C   0  0  0  0  0  0  0  0  0  0  0  0
   22.7374  -10.0721  -16.9632 C   0  0  2  0  0  0  0  0  0  0  0  0
   21.9247  -11.0961  -17.6478 N   0  0  0  0  0  0  0  0  0  0  0  0
   21.9831   -8.8210  -17.0348 C   0  0  0  0  0  0  0  0  0  0  0  0
   21.4547   -8.3925  -18.0857 O   0  0  0  0  0  0  0  0  0  0  0  0
   21.8304   -8.0379  -15.8657 N   0  0  0  0  0  0  0  0  0  0  0  0
   21.1765   -6.7371  -15.9132 C   0  0  1  0  0  0  0  0  0  0  0  0
   20.6871   -6.3237  -14.5457 C   0  0  0  0  0  0  0  0  0  0  0  0
   19.9012   -5.0796  -14.6886 C   0  0  0  0  0  0  0  0  0  0  0  0
   18.5722   -4.9371  -15.0051 C   0  0  0  0  0  0  0  0  0  0  0  0
   18.2607   -3.6159  -15.0412 N   0  0  0  0  0  0  0  0  0  0  0  0
   19.3496   -2.8900  -14.7570 C   0  0  0  0  0  0  0  0  0  0  0  0
   19.6008   -1.5499  -14.6566 C   0  0  0  0  0  0  0  0  0  0  0  0
   20.8656   -1.0536  -14.3366 C   0  0  0  0  0  0  0  0  0  0  0  0
   21.8887   -1.9506  -14.1162 C   0  0  0  0  0  0  0  0  0  0  0  0
   21.6401   -3.2995  -14.2162 C   0  0  0  0  0  0  0  0  0  0  0  0
   20.3712   -3.7828  -14.5368 C   0  0  0  0  0  0  0  0  0  0  0  0
   22.1607   -5.7201  -16.3645 C   0  0  0  0  0  0  0  0  0  0  0  0
   23.3701   -5.7790  -15.9514 O   0  0  0  0  0  0  0  0  0  0  0  0
   21.8759   -4.6852  -17.2180 O   0  0  0  0  0  0  0  0  0  0  0  0
  2  1  1  6
  2  7  1  0
  3  4  1  0
  3  2  1  0
  5  9  1  0
  5  4  1  0
  6  5  2  0
  7  8  2  0
  7 15  1  0
 11 10  1  0
 12 11  1  0
 13 12  1  0
 14 13  1  6
 14 16  1  0
 15 14  1  0
 16 17  2  0
 18 16  1  0
 18 19  1  0
 19 20  1  1
 21 20  1  0
 22 21  2  0
 23 22  1  0
 24 23  1  0
 24 29  2  0
 25 26  2  0
 25 24  1  0
 26 27  1  0
 27 28  2  0
 29 28  1  0
 29 21  1  0
 30 32  1  0
 30 19  1  0
 31 30  2  0
M  END
$$$$
