EMW.pdb
     RDKit          3D

 32 33  0  0  1  0  0  0  0  0999 V2000
   18.2051  -19.2838    2.2132 N   0  0  0  0  0  0  0  0  0  0  0  0
   18.3305  -20.3962    1.2583 C   0  0  1  0  0  0  0  0  0  0  0  0
   17.6260  -20.0874   -0.0155 C   0  0  0  0  0  0  0  0  0  0  0  0
   16.1661  -19.8498    0.2335 C   0  0  0  0  0  0  0  0  0  0  0  0
   15.5048  -21.1756    0.4112 C   0  0  0  0  0  0  0  0  0  0  0  0
   15.7321  -22.0981   -0.3789 O   0  0  0  0  0  0  0  0  0  0  0  0
   19.7563  -20.7113    1.1581 C   0  0  0  0  0  0  0  0  0  0  0  0
   20.6944  -19.8445    1.1099 O   0  0  0  0  0  0  0  0  0  0  0  0
   14.6260  -21.3657    1.4787 O   0  0  0  0  0  0  0  0  0  0  0  0
   23.0751  -25.2447    4.0695 C   0  0  0  0  0  0  0  0  0  0  0  0
   21.6579  -25.8839    3.1202 S   0  0  0  0  0  0  0  0  0  0  0  0
   21.0362  -24.5588    2.0176 C   0  0  0  0  0  0  0  0  0  0  0  0
   22.0678  -23.4856    1.8754 C   0  0  0  0  0  0  0  0  0  0  0  0
   21.6809  -22.3602    0.9752 C   0  0  2  0  0  0  0  0  0  0  0  0
   20.2409  -22.0647    1.1037 N   0  0  0  0  0  0  0  0  0  0  0  0
   21.9040  -22.7650   -0.4125 C   0  0  0  0  0  0  0  0  0  0  0  0
   21.3982  -23.7903   -0.9225 O   0  0  0  0  0  0  0  0  0  0  0  0
   22.7321  -21.9696   -1.2400 N   0  0  0  0  0  0  0  0  0  0  0  0
   23.6149  -22.5782   -2.2261 C   0  0  1  0  0  0  0  0  0  0  0  0
   25.0338  -22.0879   -2.0625 C   0  0  0  0  0  0  0  0  0  0  0  0
   25.5521  -21.7089   -3.3942 C   0  0  0  0  0  0  0  0  0  0  0  0
   25.0446  -22.0207   -4.6319 C   0  0  0  0  0  0  0  0  0  0  0  0
   25.8389  -21.4780   -5.5902 N   0  0  0  0  0  0  0  0  0  0  0  0
   26.8523  -20.8196   -5.0134 C   0  0  0  0  0  0  0  0  0  0  0  0
   27.9177  -20.1069   -5.4888 C   0  0  0  0  0  0  0  0  0  0  0  0
   28.8489  -19.5078   -4.6389 C   0  0  0  0  0  0  0  0  0  0  0  0
   28.6813  -19.6442   -3.2775 C   0  0  0  0  0  0  0  0  0  0  0  0
   27.6108  -20.3604   -2.7953 C   0  0  0  0  0  0  0  0  0  0  0  0
   26.6870  -20.9544   -3.6556 C   0  0  0  0  0  0  0  0  0  0  0  0
   23.6217  -24.0496   -2.0224 C   0  0  0  0  0  0  0  0  0  0  0  0
   23.4087  -24.8294   -3.0141 O   0  0  0  0  0  0  0  0  0  0  0  0
   23.8456  -24.6687   -0.8195 O   0  0  0  0  0  0  0  0  0  0  0  0
  2  1  1  1
  2  7  1  0
  3  4  1  0
  3  2  1  0
  5  9  1  0
  5  4  1  0
  6  5  2  0
  7  8  2  0
  7 15  1  0
 11 10  1  0
 12 11  1  0
 13 12  1  0
 14 13  1  1
 14 16  1  0
 15 14  1  0
 16 17  2  0
 18 16  1  0
 18 19  1  0
 19 20  1  1
 21 20  1  0
 22 21  2  0
 23 22  1  0
 24 23  1  0
 24 29  2  0
 25 26  2  0
 25 24  1  0
 26 27  1  0
 27 28  2  0
 29 28  1  0
 29 21  1  0
 30 32  1  0
 30 19  1  0
 31 30  2  0
M  END
$$$$
