EMW.pdb
     RDKit          3D

 32 33  0  0  1  0  0  0  0  0999 V2000
   26.7291  -18.9291  -16.0252 N   0  0  0  0  0  0  0  0  0  0  0  0
   26.9985  -20.3435  -16.3281 C   0  0  1  0  0  0  0  0  0  0  0  0
   28.4613  -20.5982  -16.4272 C   0  0  0  0  0  0  0  0  0  0  0  0
   29.2251  -19.3081  -16.3867 C   0  0  0  0  0  0  0  0  0  0  0  0
   30.3086  -19.3790  -17.4103 C   0  0  0  0  0  0  0  0  0  0  0  0
   30.4213  -20.3751  -18.1329 O   0  0  0  0  0  0  0  0  0  0  0  0
   26.2611  -21.1367  -15.3436 C   0  0  0  0  0  0  0  0  0  0  0  0
   26.2719  -22.4131  -15.2780 O   0  0  0  0  0  0  0  0  0  0  0  0
   31.1953  -18.3095  -17.5451 O   0  0  0  0  0  0  0  0  0  0  0  0
   24.6065  -21.0378   -8.6789 C   0  0  0  0  0  0  0  0  0  0  0  0
   26.1005  -20.4643   -9.5492 S   0  0  0  0  0  0  0  0  0  0  0  0
   26.1082  -21.1677  -11.2413 C   0  0  0  0  0  0  0  0  0  0  0  0
   24.8692  -20.7578  -11.9714 C   0  0  0  0  0  0  0  0  0  0  0  0
   24.7208  -21.3479  -13.3338 C   0  0  2  0  0  0  0  0  0  0  0  0
   25.4351  -20.5308  -14.3337 N   0  0  0  0  0  0  0  0  0  0  0  0
   23.3069  -21.3274  -13.7079 C   0  0  0  0  0  0  0  0  0  0  0  0
   22.7221  -20.3089  -14.1413 O   0  0  0  0  0  0  0  0  0  0  0  0
   22.5410  -22.5108  -13.5810 N   0  0  0  0  0  0  0  0  0  0  0  0
   21.1099  -22.5120  -13.8531 C   0  0  1  0  0  0  0  0  0  0  0  0
   20.5382  -23.9062  -13.7542 C   0  0  0  0  0  0  0  0  0  0  0  0
   19.0761  -23.8257  -13.9580 C   0  0  0  0  0  0  0  0  0  0  0  0
   18.0910  -23.6140  -13.0244 C   0  0  0  0  0  0  0  0  0  0  0  0
   16.8813  -23.6241  -13.6411 N   0  0  0  0  0  0  0  0  0  0  0  0
   17.0479  -23.8366  -14.9527 C   0  0  0  0  0  0  0  0  0  0  0  0
   16.1950  -23.9399  -16.0162 C   0  0  0  0  0  0  0  0  0  0  0  0
   16.6521  -24.1706  -17.3148 C   0  0  0  0  0  0  0  0  0  0  0  0
   18.0089  -24.2971  -17.5227 C   0  0  0  0  0  0  0  0  0  0  0  0
   18.8701  -24.1938  -16.4555 C   0  0  0  0  0  0  0  0  0  0  0  0
   18.4004  -23.9630  -15.1622 C   0  0  0  0  0  0  0  0  0  0  0  0
   20.4261  -21.6729  -12.8357 C   0  0  0  0  0  0  0  0  0  0  0  0
   20.9146  -21.5790  -11.6570 O   0  0  0  0  0  0  0  0  0  0  0  0
   19.2743  -20.9627  -13.0579 O   0  0  0  0  0  0  0  0  0  0  0  0
  2  1  1  1
  2  7  1  0
  3  4  1  0
  3  2  1  0
  5  9  1  0
  5  4  1  0
  6  5  2  0
  7  8  2  0
  7 15  1  0
 11 10  1  0
 12 11  1  0
 13 12  1  0
 14 13  1  1
 14 16  1  0
 15 14  1  0
 16 17  2  0
 18 16  1  0
 18 19  1  0
 19 20  1  1
 21 20  1  0
 22 21  2  0
 23 22  1  0
 24 23  1  0
 24 29  2  0
 25 26  2  0
 25 24  1  0
 26 27  1  0
 27 28  2  0
 29 28  1  0
 29 21  1  0
 30 32  1  0
 30 19  1  0
 31 30  2  0
M  END
$$$$
