EMW.pdb
     RDKit          3D

 32 33  0  0  1  0  0  0  0  0999 V2000
   26.1376  -22.8028  -14.9639 N   0  0  0  0  0  0  0  0  0  0  0  0
   26.7524  -21.7161  -14.1856 C   0  0  1  0  0  0  0  0  0  0  0  0
   26.8665  -20.4757  -14.9999 C   0  0  0  0  0  0  0  0  0  0  0  0
   25.6360  -20.2778  -15.8344 C   0  0  0  0  0  0  0  0  0  0  0  0
   25.9560  -19.2872  -16.9036 C   0  0  0  0  0  0  0  0  0  0  0  0
   26.6413  -18.2913  -16.6478 O   0  0  0  0  0  0  0  0  0  0  0  0
   26.0000  -21.6111  -12.9346 C   0  0  0  0  0  0  0  0  0  0  0  0
   24.8558  -22.1403  -12.7238 O   0  0  0  0  0  0  0  0  0  0  0  0
   25.4741  -19.4951  -18.1969 O   0  0  0  0  0  0  0  0  0  0  0  0
   26.9628  -20.2228   -5.2638 C   0  0  0  0  0  0  0  0  0  0  0  0
   27.2164  -19.5350   -6.9313 S   0  0  0  0  0  0  0  0  0  0  0  0
   26.1643  -20.4530   -8.1181 C   0  0  0  0  0  0  0  0  0  0  0  0
   26.4736  -20.0215   -9.5161 C   0  0  0  0  0  0  0  0  0  0  0  0
   25.6887  -20.7201  -10.5755 C   0  0  2  0  0  0  0  0  0  0  0  0
   26.4975  -20.8814  -11.7991 N   0  0  0  0  0  0  0  0  0  0  0  0
   24.5395  -19.8911  -10.9384 C   0  0  0  0  0  0  0  0  0  0  0  0
   24.6283  -18.8548  -11.6351 O   0  0  0  0  0  0  0  0  0  0  0  0
   23.2499  -20.2622  -10.4887 N   0  0  0  0  0  0  0  0  0  0  0  0
   22.1463  -20.4263  -11.4253 C   0  0  1  0  0  0  0  0  0  0  0  0
   22.6009  -21.1239  -12.6851 C   0  0  0  0  0  0  0  0  0  0  0  0
   22.3148  -20.2407  -13.8357 C   0  0  0  0  0  0  0  0  0  0  0  0
   22.5115  -18.8857  -13.9457 C   0  0  0  0  0  0  0  0  0  0  0  0
   22.1016  -18.4729  -15.1727 N   0  0  0  0  0  0  0  0  0  0  0  0
   21.6419  -19.5207  -15.8685 C   0  0  0  0  0  0  0  0  0  0  0  0
   21.1207  -19.6757  -17.1228 C   0  0  0  0  0  0  0  0  0  0  0  0
   20.7097  -20.9185  -17.6076 C   0  0  0  0  0  0  0  0  0  0  0  0
   20.8370  -22.0198  -16.7886 C   0  0  0  0  0  0  0  0  0  0  0  0
   21.3609  -21.8681  -15.5261 C   0  0  0  0  0  0  0  0  0  0  0  0
   21.7681  -20.6202  -15.0534 C   0  0  0  0  0  0  0  0  0  0  0  0
   21.1019  -21.2735  -10.7945 C   0  0  0  0  0  0  0  0  0  0  0  0
   19.8905  -21.1956  -11.1989 O   0  0  0  0  0  0  0  0  0  0  0  0
   21.3311  -22.1661   -9.7790 O   0  0  0  0  0  0  0  0  0  0  0  0
  2  1  1  6
  2  7  1  0
  3  4  1  0
  3  2  1  0
  5  9  1  0
  5  4  1  0
  6  5  2  0
  7  8  2  0
  7 15  1  0
 11 10  1  0
 12 11  1  0
 13 12  1  0
 14 13  1  1
 14 16  1  0
 15 14  1  0
 16 17  2  0
 18 16  1  0
 18 19  1  0
 19 20  1  6
 21 20  1  0
 22 21  2  0
 23 22  1  0
 24 23  1  0
 24 29  2  0
 25 26  2  0
 25 24  1  0
 26 27  1  0
 27 28  2  0
 29 28  1  0
 29 21  1  0
 30 32  1  0
 30 19  1  0
 31 30  2  0
M  END
$$$$
