EMW.pdb
     RDKit          3D

 32 33  0  0  1  0  0  0  0  0999 V2000
   27.6550  -19.8786  -14.7098 N   0  0  0  0  0  0  0  0  0  0  0  0
   26.8521  -20.9878  -15.2483 C   0  0  1  0  0  0  0  0  0  0  0  0
   27.7242  -22.0443  -15.8294 C   0  0  0  0  0  0  0  0  0  0  0  0
   29.1470  -21.5746  -15.8981 C   0  0  0  0  0  0  0  0  0  0  0  0
   29.5514  -21.5310  -17.3338 C   0  0  0  0  0  0  0  0  0  0  0  0
   29.8393  -22.5722  -17.9338 O   0  0  0  0  0  0  0  0  0  0  0  0
   25.9375  -21.4056  -14.1846 C   0  0  0  0  0  0  0  0  0  0  0  0
   25.0429  -22.3106  -14.3042 O   0  0  0  0  0  0  0  0  0  0  0  0
   29.6020  -20.3026  -17.9946 O   0  0  0  0  0  0  0  0  0  0  0  0
   28.7156  -21.1117   -7.8425 C   0  0  0  0  0  0  0  0  0  0  0  0
   27.0574  -20.5526   -8.3484 S   0  0  0  0  0  0  0  0  0  0  0  0
   26.6964  -21.2051  -10.0223 C   0  0  0  0  0  0  0  0  0  0  0  0
   25.3859  -20.6724  -10.5074 C   0  0  0  0  0  0  0  0  0  0  0  0
   24.9648  -21.1715  -11.8489 C   0  0  2  0  0  0  0  0  0  0  0  0
   25.9668  -20.8167  -12.8725 N   0  0  0  0  0  0  0  0  0  0  0  0
   23.7196  -20.5069  -12.2327 C   0  0  0  0  0  0  0  0  0  0  0  0
   23.6185  -19.2696  -12.3933 O   0  0  0  0  0  0  0  0  0  0  0  0
   22.5555  -21.2852  -12.4382 N   0  0  0  0  0  0  0  0  0  0  0  0
   21.4510  -20.7856  -13.2461 C   0  0  1  0  0  0  0  0  0  0  0  0
   21.8645  -20.6182  -14.6889 C   0  0  0  0  0  0  0  0  0  0  0  0
   20.7272  -20.0390  -15.4351 C   0  0  0  0  0  0  0  0  0  0  0  0
   19.9476  -18.9572  -15.1051 C   0  0  0  0  0  0  0  0  0  0  0  0
   19.0062  -18.7751  -16.0666 N   0  0  0  0  0  0  0  0  0  0  0  0
   19.1484  -19.7081  -17.0166 C   0  0  0  0  0  0  0  0  0  0  0  0
   18.4904  -19.9883  -18.1817 C   0  0  0  0  0  0  0  0  0  0  0  0
   18.8600  -21.0527  -19.0056 C   0  0  0  0  0  0  0  0  0  0  0  0
   19.9241  -21.8419  -18.6246 C   0  0  0  0  0  0  0  0  0  0  0  0
   20.5886  -21.5633  -17.4532 C   0  0  0  0  0  0  0  0  0  0  0  0
   20.2091  -20.4961  -16.6385 C   0  0  0  0  0  0  0  0  0  0  0  0
   20.3421  -21.7732  -13.2083 C   0  0  0  0  0  0  0  0  0  0  0  0
   20.5912  -23.0156  -13.3851 O   0  0  0  0  0  0  0  0  0  0  0  0
   19.0252  -21.4581  -12.9915 O   0  0  0  0  0  0  0  0  0  0  0  0
  2  1  1  1
  2  7  1  0
  3  4  1  0
  3  2  1  0
  5  9  1  0
  5  4  1  0
  6  5  2  0
  7  8  2  0
  7 15  1  0
 11 10  1  0
 12 11  1  0
 13 12  1  0
 14 13  1  1
 14 16  1  0
 15 14  1  0
 16 17  2  0
 18 16  1  0
 18 19  1  0
 19 20  1  6
 21 20  1  0
 22 21  2  0
 23 22  1  0
 24 23  1  0
 24 29  2  0
 25 26  2  0
 25 24  1  0
 26 27  1  0
 27 28  2  0
 29 28  1  0
 29 21  1  0
 30 32  1  0
 30 19  1  0
 31 30  2  0
M  END
$$$$
