EMW.pdb
     RDKit          3D

 32 33  0  0  1  0  0  0  0  0999 V2000
   25.3848  -17.2752  -14.4351 N   0  0  0  0  0  0  0  0  0  0  0  0
   24.6596  -18.2449  -15.2709 C   0  0  1  0  0  0  0  0  0  0  0  0
   24.7168  -17.8590  -16.7069 C   0  0  0  0  0  0  0  0  0  0  0  0
   23.3366  -17.7903  -17.2899 C   0  0  0  0  0  0  0  0  0  0  0  0
   23.4401  -18.0448  -18.7566 C   0  0  0  0  0  0  0  0  0  0  0  0
   22.4572  -18.4389  -19.3933 O   0  0  0  0  0  0  0  0  0  0  0  0
   25.1759  -19.5709  -14.9282 C   0  0  0  0  0  0  0  0  0  0  0  0
   24.5567  -20.6706  -15.1304 O   0  0  0  0  0  0  0  0  0  0  0  0
   24.6583  -17.8339  -19.4045 O   0  0  0  0  0  0  0  0  0  0  0  0
   28.7314  -23.7790  -15.8858 C   0  0  0  0  0  0  0  0  0  0  0  0
   28.5406  -22.2884  -16.9152 S   0  0  0  0  0  0  0  0  0  0  0  0
   28.7986  -20.8070  -15.8678 C   0  0  0  0  0  0  0  0  0  0  0  0
   28.4797  -21.1265  -14.4422 C   0  0  0  0  0  0  0  0  0  0  0  0
   27.0262  -21.1059  -14.1057 C   0  0  2  0  0  0  0  0  0  0  0  0
   26.4641  -19.7578  -14.3159 N   0  0  0  0  0  0  0  0  0  0  0  0
   26.8642  -21.4111  -12.6844 C   0  0  0  0  0  0  0  0  0  0  0  0
   27.1706  -22.5131  -12.1756 O   0  0  0  0  0  0  0  0  0  0  0  0
   26.3347  -20.4225  -11.8210 N   0  0  0  0  0  0  0  0  0  0  0  0
   26.0959  -20.7056  -10.4122 C   0  0  1  0  0  0  0  0  0  0  0  0
   26.8433  -19.7362   -9.5279 C   0  0  0  0  0  0  0  0  0  0  0  0
   26.5311  -20.0555   -8.1185 C   0  0  0  0  0  0  0  0  0  0  0  0
   25.4027  -20.6453   -7.6031 C   0  0  0  0  0  0  0  0  0  0  0  0
   25.5256  -20.7423   -6.2543 N   0  0  0  0  0  0  0  0  0  0  0  0
   26.7036  -20.2321   -5.8730 C   0  0  0  0  0  0  0  0  0  0  0  0
   27.3281  -20.0770   -4.6668 C   0  0  0  0  0  0  0  0  0  0  0  0
   28.5922  -19.4956   -4.5546 C   0  0  0  0  0  0  0  0  0  0  0  0
   29.2240  -19.0667   -5.7021 C   0  0  0  0  0  0  0  0  0  0  0  0
   28.5991  -19.2210   -6.9175 C   0  0  0  0  0  0  0  0  0  0  0  0
   27.3354  -19.8038   -7.0160 C   0  0  0  0  0  0  0  0  0  0  0  0
   24.6464  -20.5465  -10.1285 C   0  0  0  0  0  0  0  0  0  0  0  0
   23.9308  -19.7961  -10.8780 O   0  0  0  0  0  0  0  0  0  0  0  0
   23.9831  -21.1571   -9.0953 O   0  0  0  0  0  0  0  0  0  0  0  0
  2  1  1  1
  2  7  1  0
  3  4  1  0
  3  2  1  0
  5  9  1  0
  5  4  1  0
  6  5  2  0
  7  8  2  0
  7 15  1  0
 11 10  1  0
 12 11  1  0
 13 12  1  0
 14 13  1  1
 14 16  1  0
 15 14  1  0
 16 17  2  0
 18 16  1  0
 18 19  1  0
 19 20  1  1
 21 20  1  0
 22 21  2  0
 23 22  1  0
 24 23  1  0
 24 29  2  0
 25 26  2  0
 25 24  1  0
 26 27  1  0
 27 28  2  0
 29 28  1  0
 29 21  1  0
 30 32  1  0
 30 19  1  0
 31 30  2  0
M  END
$$$$
