LIP.pdb
     RDKit          3D

 24 24  0  0  1  0  0  0  0  0999 V2000
    5.5112  -12.1200   26.3989 C   0  0  0  0  0  0  0  0  0  0  0  0
    6.4913  -12.9146   27.2343 C   0  0  2  0  0  0  0  0  0  0  0  0
    7.3821  -12.0256   28.0573 C   0  0  0  0  0  0  0  0  0  0  0  0
    7.2735  -13.8823   26.3710 C   0  0  0  0  0  0  0  0  0  0  0  0
    6.2942  -14.6318   25.5225 C   0  0  2  0  0  0  0  0  0  0  0  0
    5.5251  -15.5094   26.3850 N   0  0  0  0  0  0  0  0  0  0  0  0
    6.9440  -15.4209   24.4474 C   0  0  0  0  0  0  0  0  0  0  0  0
    7.2156  -16.6338   24.6437 O   0  0  0  0  0  0  0  0  0  0  0  0
    8.4287  -12.5733   19.8740 C   0  0  0  0  0  0  0  0  0  0  0  0
    8.5152  -13.3115   21.2164 C   0  0  0  0  0  0  0  0  0  0  0  0
    7.9441  -14.6884   20.9426 C   0  0  2  0  0  0  0  0  0  0  0  0
    6.4945  -14.5008   20.5440 C   0  0  0  0  0  0  0  0  0  0  0  0
    8.0346  -15.5937   22.1814 C   0  0  2  0  0  0  0  0  0  0  0  0
    7.2745  -14.8597   23.1969 N   0  0  0  0  0  0  0  0  0  0  0  0
    9.4356  -15.7685   22.5843 C   0  0  0  0  0  0  0  0  0  0  0  0
    9.9348  -14.8617   23.3354 O   0  0  0  0  0  0  0  0  0  0  0  0
   10.2489  -16.8645   22.1949 N   0  0  0  0  0  0  0  0  0  0  0  0
    9.9359  -18.0146   21.3752 C   0  0  0  0  0  0  0  0  0  0  0  0
   10.5347  -19.1464   22.2240 C   0  0  0  0  0  0  0  0  0  0  0  0
   11.8906  -18.5441   22.5589 C   0  0  0  0  0  0  0  0  0  0  0  0
   11.6415  -17.0502   22.5632 C   0  0  1  0  0  0  0  0  0  0  0  0
   12.5500  -16.3570   21.6092 C   0  0  0  0  0  0  0  0  0  0  0  0
   13.7485  -16.1397   21.8794 O   0  0  0  0  0  0  0  0  0  0  0  0
   12.0621  -15.9390   20.3890 O   0  0  0  0  0  0  0  0  0  0  0  0
  2  1  1  6
  2  3  1  0
  4  2  1  0
  5  4  1  0
  5  6  1  1
  7  5  1  0
  7  8  2  0
  9 10  1  0
 10 11  1  0
 11 13  1  0
 11 12  1  1
 13 14  1  1
 13 15  1  0
 14  7  1  0
 15 17  1  0
 16 15  2  0
 17 18  1  0
 17 21  1  0
 18 19  1  0
 19 20  1  0
 21 22  1  6
 21 20  1  0
 22 24  1  0
 23 22  2  0
M  END
$$$$
