LIP.pdb
     RDKit          3D

 24 24  0  0  1  0  0  0  0  0999 V2000
    6.6799  -17.4171   20.1956 C   0  0  0  0  0  0  0  0  0  0  0  0
    8.1760  -17.6296   20.1162 C   0  0  2  0  0  0  0  0  0  0  0  0
    8.5303  -19.0751   19.9012 C   0  0  0  0  0  0  0  0  0  0  0  0
    8.8689  -17.0348   21.3244 C   0  0  0  0  0  0  0  0  0  0  0  0
    8.4069  -15.6179   21.4644 C   0  0  2  0  0  0  0  0  0  0  0  0
    8.9322  -14.8569   20.3461 N   0  0  0  0  0  0  0  0  0  0  0  0
    8.8282  -14.9947   22.7431 C   0  0  0  0  0  0  0  0  0  0  0  0
    9.9693  -14.4723   22.8340 O   0  0  0  0  0  0  0  0  0  0  0  0
    5.4029  -12.2566   25.8253 C   0  0  0  0  0  0  0  0  0  0  0  0
    6.6898  -12.6652   25.0964 C   0  0  0  0  0  0  0  0  0  0  0  0
    7.1704  -13.9077   25.8191 C   0  0  2  0  0  0  0  0  0  0  0  0
    7.4420  -13.5129   27.2563 C   0  0  0  0  0  0  0  0  0  0  0  0
    8.4486  -14.4737   25.1799 C   0  0  2  0  0  0  0  0  0  0  0  0
    7.9906  -14.9634   23.8767 N   0  0  0  0  0  0  0  0  0  0  0  0
    8.9900  -15.5638   26.0009 C   0  0  0  0  0  0  0  0  0  0  0  0
    8.5325  -16.7362   25.7734 O   0  0  0  0  0  0  0  0  0  0  0  0
    9.9721  -15.3922   27.0112 N   0  0  0  0  0  0  0  0  0  0  0  0
   10.3934  -14.1981   27.7106 C   0  0  0  0  0  0  0  0  0  0  0  0
   11.9209  -14.3412   27.6327 C   0  0  0  0  0  0  0  0  0  0  0  0
   12.0765  -15.7989   28.0381 C   0  0  0  0  0  0  0  0  0  0  0  0
   10.7898  -16.4509   27.5766 C   0  0  1  0  0  0  0  0  0  0  0  0
   10.0972  -17.1218   28.7108 C   0  0  0  0  0  0  0  0  0  0  0  0
    9.0274  -16.6852   29.1813 O   0  0  0  0  0  0  0  0  0  0  0  0
   10.6461  -18.2594   29.2641 O   0  0  0  0  0  0  0  0  0  0  0  0
  2  1  1  1
  2  3  1  0
  4  2  1  0
  5  4  1  0
  5  6  1  6
  7  5  1  0
  7  8  2  0
  9 10  1  0
 10 11  1  0
 11 13  1  0
 11 12  1  1
 13 14  1  6
 13 15  1  0
 14  7  1  0
 15 17  1  0
 16 15  2  0
 17 18  1  0
 17 21  1  0
 18 19  1  0
 19 20  1  0
 21 22  1  1
 21 20  1  0
 22 24  1  0
 23 22  2  0
M  END
$$$$
