LIP.pdb
     RDKit          3D

 24 24  0  0  1  0  0  0  0  0999 V2000
    7.6978  -18.1950   20.2875 C   0  0  0  0  0  0  0  0  0  0  0  0
    9.1875  -18.4067   20.4487 C   0  0  2  0  0  0  0  0  0  0  0  0
    9.5465  -19.8654   20.5149 C   0  0  0  0  0  0  0  0  0  0  0  0
    9.7173  -17.6234   21.6317 C   0  0  0  0  0  0  0  0  0  0  0  0
    9.2638  -16.2049   21.4805 C   0  0  2  0  0  0  0  0  0  0  0  0
    9.9864  -15.6136   20.3696 N   0  0  0  0  0  0  0  0  0  0  0  0
    9.4713  -15.3964   22.7069 C   0  0  0  0  0  0  0  0  0  0  0  0
   10.5874  -14.8530   22.9121 O   0  0  0  0  0  0  0  0  0  0  0  0
    5.9352  -12.4835   26.6576 C   0  0  0  0  0  0  0  0  0  0  0  0
    7.3684  -12.9999   26.4744 C   0  0  0  0  0  0  0  0  0  0  0  0
    7.3091  -13.8907   25.2496 C   0  0  2  0  0  0  0  0  0  0  0  0
    6.3130  -14.9931   25.5456 C   0  0  0  0  0  0  0  0  0  0  0  0
    8.6835  -14.4983   24.9265 C   0  0  2  0  0  0  0  0  0  0  0  0
    8.4546  -15.2093   23.6657 N   0  0  0  0  0  0  0  0  0  0  0  0
    9.0977  -15.4191   25.9925 C   0  0  0  0  0  0  0  0  0  0  0  0
    8.8429  -16.6593   25.8115 O   0  0  0  0  0  0  0  0  0  0  0  0
    9.7512  -15.0177   27.1868 N   0  0  0  0  0  0  0  0  0  0  0  0
    9.7099  -13.7573   27.8954 C   0  0  0  0  0  0  0  0  0  0  0  0
   11.2041  -13.5317   28.1716 C   0  0  0  0  0  0  0  0  0  0  0  0
   11.5952  -14.9100   28.6823 C   0  0  0  0  0  0  0  0  0  0  0  0
   10.6381  -15.8505   27.9799 C   0  0  1  0  0  0  0  0  0  0  0  0
    9.8764  -16.6668   28.9645 C   0  0  0  0  0  0  0  0  0  0  0  0
    8.6486  -16.5218   29.1320 O   0  0  0  0  0  0  0  0  0  0  0  0
   10.5382  -17.6132   29.7182 O   0  0  0  0  0  0  0  0  0  0  0  0
  2  1  1  1
  2  3  1  0
  4  2  1  0
  5  4  1  0
  5  6  1  6
  7  5  1  0
  7  8  2  0
  9 10  1  0
 10 11  1  0
 11 13  1  0
 11 12  1  1
 13 14  1  6
 13 15  1  0
 14  7  1  0
 15 17  1  0
 16 15  2  0
 17 18  1  0
 17 21  1  0
 18 19  1  0
 19 20  1  0
 21 22  1  1
 21 20  1  0
 22 24  1  0
 23 22  2  0
M  END
$$$$
