LIP.pdb
     RDKit          3D

 24 24  0  0  1  0  0  0  0  0999 V2000
    9.6283  -19.9697   24.0072 C   0  0  0  0  0  0  0  0  0  0  0  0
    8.8410  -19.4785   25.2025 C   0  0  2  0  0  0  0  0  0  0  0  0
    9.5377  -19.7807   26.5003 C   0  0  0  0  0  0  0  0  0  0  0  0
    7.4226  -20.0081   25.1671 C   0  0  0  0  0  0  0  0  0  0  0  0
    6.5429  -19.0039   25.8442 C   0  0  2  0  0  0  0  0  0  0  0  0
    5.2274  -19.5930   26.0116 N   0  0  0  0  0  0  0  0  0  0  0  0
    6.4346  -17.7290   25.0934 C   0  0  0  0  0  0  0  0  0  0  0  0
    5.7934  -17.6971   24.0112 O   0  0  0  0  0  0  0  0  0  0  0  0
    6.7845  -12.8429   27.5825 C   0  0  0  0  0  0  0  0  0  0  0  0
    6.2700  -13.8955   26.5917 C   0  0  0  0  0  0  0  0  0  0  0  0
    7.4623  -14.2227   25.7151 C   0  0  2  0  0  0  0  0  0  0  0  0
    7.8367  -12.9541   24.9765 C   0  0  0  0  0  0  0  0  0  0  0  0
    7.1346  -15.3380   24.7096 C   0  0  2  0  0  0  0  0  0  0  0  0
    7.0291  -16.5346   25.5492 N   0  0  0  0  0  0  0  0  0  0  0  0
    8.2145  -15.4697   23.7237 C   0  0  0  0  0  0  0  0  0  0  0  0
    9.1836  -16.2448   24.0332 O   0  0  0  0  0  0  0  0  0  0  0  0
    8.2419  -14.7991   22.4731 N   0  0  0  0  0  0  0  0  0  0  0  0
    7.5230  -13.6257   22.0269 C   0  0  0  0  0  0  0  0  0  0  0  0
    7.0329  -14.0937   20.6483 C   0  0  0  0  0  0  0  0  0  0  0  0
    8.3136  -14.7038   20.0994 C   0  0  0  0  0  0  0  0  0  0  0  0
    9.0530  -15.1831   21.3312 C   0  0  1  0  0  0  0  0  0  0  0  0
   10.4112  -14.5783   21.4050 C   0  0  0  0  0  0  0  0  0  0  0  0
   11.3046  -14.8609   20.5813 O   0  0  0  0  0  0  0  0  0  0  0  0
   10.7000  -13.6785   22.4093 O   0  0  0  0  0  0  0  0  0  0  0  0
  2  1  1  6
  2  3  1  0
  4  2  1  0
  5  4  1  0
  5  6  1  6
  7  5  1  0
  7  8  2  0
  9 10  1  0
 10 11  1  0
 11 13  1  0
 11 12  1  6
 13 14  1  1
 13 15  1  0
 14  7  1  0
 15 17  1  0
 16 15  2  0
 17 18  1  0
 17 21  1  0
 18 19  1  0
 19 20  1  0
 21 22  1  1
 21 20  1  0
 22 24  1  0
 23 22  2  0
M  END
$$$$
