LIP.pdb
     RDKit          3D

 24 24  0  0  1  0  0  0  0  0999 V2000
    8.8575  -14.0353   18.7043 C   0  0  0  0  0  0  0  0  0  0  0  0
    7.4738  -13.7786   19.2607 C   0  0  2  0  0  0  0  0  0  0  0  0
    6.6726  -12.8604   18.3798 C   0  0  0  0  0  0  0  0  0  0  0  0
    7.5515  -13.2896   20.6919 C   0  0  0  0  0  0  0  0  0  0  0  0
    8.3163  -14.3060   21.4811 C   0  0  2  0  0  0  0  0  0  0  0  0
    7.5940  -15.5632   21.4223 N   0  0  0  0  0  0  0  0  0  0  0  0
    8.5225  -13.9064   22.8949 C   0  0  0  0  0  0  0  0  0  0  0  0
    8.3820  -12.7010   23.2273 O   0  0  0  0  0  0  0  0  0  0  0  0
    5.5708  -12.5503   25.6861 C   0  0  0  0  0  0  0  0  0  0  0  0
    7.0288  -12.7415   25.2479 C   0  0  0  0  0  0  0  0  0  0  0  0
    7.3476  -14.1874   25.5717 C   0  0  2  0  0  0  0  0  0  0  0  0
    7.0093  -14.4043   27.0324 C   0  0  0  0  0  0  0  0  0  0  0  0
    8.8303  -14.5078   25.3233 C   0  0  2  0  0  0  0  0  0  0  0  0
    8.8743  -14.8352   23.8955 N   0  0  0  0  0  0  0  0  0  0  0  0
    9.2508  -15.6481   26.1470 C   0  0  0  0  0  0  0  0  0  0  0  0
    9.0087  -16.8141   25.6805 O   0  0  0  0  0  0  0  0  0  0  0  0
    9.8973  -15.5307   27.4050 N   0  0  0  0  0  0  0  0  0  0  0  0
    9.7659  -14.5201   28.4316 C   0  0  0  0  0  0  0  0  0  0  0  0
   11.2417  -14.2456   28.7579 C   0  0  0  0  0  0  0  0  0  0  0  0
   11.7624  -15.6702   28.8715 C   0  0  0  0  0  0  0  0  0  0  0  0
   10.8722  -16.4653   27.9393 C   0  0  1  0  0  0  0  0  0  0  0  0
   10.2084  -17.5838   28.6635 C   0  0  0  0  0  0  0  0  0  0  0  0
    8.9813  -17.5874   28.8889 O   0  0  0  0  0  0  0  0  0  0  0  0
   10.9631  -18.6514   29.1019 O   0  0  0  0  0  0  0  0  0  0  0  0
  2  1  1  6
  2  3  1  0
  4  2  1  0
  5  4  1  0
  5  6  1  1
  7  5  1  0
  7  8  2  0
  9 10  1  0
 10 11  1  0
 11 13  1  0
 11 12  1  1
 13 14  1  6
 13 15  1  0
 14  7  1  0
 15 17  1  0
 16 15  2  0
 17 18  1  0
 17 21  1  0
 18 19  1  0
 19 20  1  0
 21 22  1  1
 21 20  1  0
 22 24  1  0
 23 22  2  0
M  END
$$$$
