LIP.pdb
     RDKit          3D

 24 24  0  0  1  0  0  0  0  0999 V2000
    7.3907  -19.3919   28.4839 C   0  0  0  0  0  0  0  0  0  0  0  0
    7.7989  -20.1591   27.2450 C   0  0  2  0  0  0  0  0  0  0  0  0
    9.1848  -20.7299   27.3656 C   0  0  0  0  0  0  0  0  0  0  0  0
    7.6267  -19.3081   26.0041 C   0  0  0  0  0  0  0  0  0  0  0  0
    6.2522  -18.7165   26.0429 C   0  0  2  0  0  0  0  0  0  0  0  0
    5.3166  -19.7101   25.5498 N   0  0  0  0  0  0  0  0  0  0  0  0
    6.1348  -17.4710   25.2456 C   0  0  0  0  0  0  0  0  0  0  0  0
    5.6835  -17.5239   24.0722 O   0  0  0  0  0  0  0  0  0  0  0  0
    6.4947  -12.4543   27.6225 C   0  0  0  0  0  0  0  0  0  0  0  0
    5.9880  -13.5136   26.6348 C   0  0  0  0  0  0  0  0  0  0  0  0
    7.2223  -13.9670   25.8810 C   0  0  2  0  0  0  0  0  0  0  0  0
    7.7598  -12.7623   25.1362 C   0  0  0  0  0  0  0  0  0  0  0  0
    6.8953  -15.0944   24.8887 C   0  0  2  0  0  0  0  0  0  0  0  0
    6.5135  -16.2124   25.7559 N   0  0  0  0  0  0  0  0  0  0  0  0
    8.0771  -15.4225   24.0818 C   0  0  0  0  0  0  0  0  0  0  0  0
    8.9090  -16.2497   24.5912 O   0  0  0  0  0  0  0  0  0  0  0  0
    8.3417  -14.8844   22.7953 N   0  0  0  0  0  0  0  0  0  0  0  0
    7.8053  -13.7076   22.1472 C   0  0  0  0  0  0  0  0  0  0  0  0
    7.4710  -14.2700   20.7573 C   0  0  0  0  0  0  0  0  0  0  0  0
    8.7530  -15.0325   20.4592 C   0  0  0  0  0  0  0  0  0  0  0  0
    9.2648  -15.4442   21.8239 C   0  0  1  0  0  0  0  0  0  0  0  0
   10.6500  -14.9457   22.0448 C   0  0  0  0  0  0  0  0  0  0  0  0
   10.9004  -14.0313   22.8558 O   0  0  0  0  0  0  0  0  0  0  0  0
   11.6935  -15.5046   21.3372 O   0  0  0  0  0  0  0  0  0  0  0  0
  2  1  1  1
  2  3  1  0
  4  2  1  0
  5  4  1  0
  5  6  1  6
  7  5  1  0
  7  8  2  0
  9 10  1  0
 10 11  1  0
 11 13  1  0
 11 12  1  6
 13 14  1  1
 13 15  1  0
 14  7  1  0
 15 17  1  0
 16 15  2  0
 17 18  1  0
 17 21  1  0
 18 19  1  0
 19 20  1  0
 21 22  1  1
 21 20  1  0
 22 24  1  0
 23 22  2  0
M  END
$$$$
