LIP.pdb
     RDKit          3D

 24 24  0  0  1  0  0  0  0  0999 V2000
   11.1243  -19.7650   23.0839 C   0  0  0  0  0  0  0  0  0  0  0  0
   10.1305  -18.6949   22.6876 C   0  0  2  0  0  0  0  0  0  0  0  0
    8.7899  -19.2742   22.3293 C   0  0  0  0  0  0  0  0  0  0  0  0
   10.6953  -17.8153   21.5918 C   0  0  0  0  0  0  0  0  0  0  0  0
    9.8303  -16.5977   21.4918 C   0  0  2  0  0  0  0  0  0  0  0  0
   10.2577  -15.8313   20.3361 N   0  0  0  0  0  0  0  0  0  0  0  0
    9.8806  -15.7498   22.7081 C   0  0  0  0  0  0  0  0  0  0  0  0
   10.9241  -15.0968   22.9683 O   0  0  0  0  0  0  0  0  0  0  0  0
    5.8955  -12.8564   26.1511 C   0  0  0  0  0  0  0  0  0  0  0  0
    7.3357  -13.3846   26.1896 C   0  0  0  0  0  0  0  0  0  0  0  0
    7.4347  -14.3353   25.0134 C   0  0  2  0  0  0  0  0  0  0  0  0
    6.4789  -15.4799   25.2811 C   0  0  0  0  0  0  0  0  0  0  0  0
    8.8639  -14.8743   24.8421 C   0  0  2  0  0  0  0  0  0  0  0  0
    8.7914  -15.6443   23.5972 N   0  0  0  0  0  0  0  0  0  0  0  0
    9.2266  -15.7289   25.9794 C   0  0  0  0  0  0  0  0  0  0  0  0
    9.1308  -16.9920   25.8026 O   0  0  0  0  0  0  0  0  0  0  0  0
    9.6684  -15.2415   27.2371 N   0  0  0  0  0  0  0  0  0  0  0  0
    9.3837  -13.9910   27.9062 C   0  0  0  0  0  0  0  0  0  0  0  0
   10.7916  -13.5803   28.3631 C   0  0  0  0  0  0  0  0  0  0  0  0
   11.2794  -14.8961   28.9500 C   0  0  0  0  0  0  0  0  0  0  0  0
   10.5417  -15.9526   28.1542 C   0  0  1  0  0  0  0  0  0  0  0  0
    9.7657  -16.8500   29.0534 C   0  0  0  0  0  0  0  0  0  0  0  0
    8.5182  -16.8459   29.0728 O   0  0  0  0  0  0  0  0  0  0  0  0
   10.4360  -17.7147   29.8929 O   0  0  0  0  0  0  0  0  0  0  0  0
  2  1  1  6
  2  3  1  0
  4  2  1  0
  5  4  1  0
  5  6  1  6
  7  5  1  0
  7  8  2  0
  9 10  1  0
 10 11  1  0
 11 13  1  0
 11 12  1  1
 13 14  1  6
 13 15  1  0
 14  7  1  0
 15 17  1  0
 16 15  2  0
 17 18  1  0
 17 21  1  0
 18 19  1  0
 19 20  1  0
 21 22  1  1
 21 20  1  0
 22 24  1  0
 23 22  2  0
M  END
$$$$
