LIP.pdb
     RDKit          3D

 24 24  0  0  1  0  0  0  0  0999 V2000
    7.6453  -18.5160   21.1838 C   0  0  0  0  0  0  0  0  0  0  0  0
    6.8403  -17.2791   21.5183 C   0  0  2  0  0  0  0  0  0  0  0  0
    5.4010  -17.6036   21.8086 C   0  0  0  0  0  0  0  0  0  0  0  0
    6.9928  -16.2292   20.4374 C   0  0  0  0  0  0  0  0  0  0  0  0
    6.7509  -14.8910   21.0630 C   0  0  2  0  0  0  0  0  0  0  0  0
    6.9380  -13.8740   20.0450 N   0  0  0  0  0  0  0  0  0  0  0  0
    7.6425  -14.6215   22.2176 C   0  0  0  0  0  0  0  0  0  0  0  0
    8.8701  -14.4253   22.0230 O   0  0  0  0  0  0  0  0  0  0  0  0
    5.9052  -11.6477   26.2468 C   0  0  0  0  0  0  0  0  0  0  0  0
    6.7860  -12.2679   25.1540 C   0  0  0  0  0  0  0  0  0  0  0  0
    7.1897  -13.6229   25.6999 C   0  0  2  0  0  0  0  0  0  0  0  0
    7.9726  -13.3775   26.9734 C   0  0  0  0  0  0  0  0  0  0  0  0
    8.0533  -14.4018   24.6949 C   0  0  2  0  0  0  0  0  0  0  0  0
    7.1640  -14.5754   23.5430 N   0  0  0  0  0  0  0  0  0  0  0  0
    8.4538  -15.6957   25.2615 C   0  0  0  0  0  0  0  0  0  0  0  0
    7.5117  -16.4727   25.6417 O   0  0  0  0  0  0  0  0  0  0  0  0
    9.7994  -16.1229   25.4072 N   0  0  0  0  0  0  0  0  0  0  0  0
   11.0349  -15.3871   25.2494 C   0  0  0  0  0  0  0  0  0  0  0  0
   11.8521  -16.3727   24.4005 C   0  0  0  0  0  0  0  0  0  0  0  0
   11.5918  -17.6640   25.1608 C   0  0  0  0  0  0  0  0  0  0  0  0
   10.2205  -17.4642   25.7717 C   0  0  1  0  0  0  0  0  0  0  0  0
   10.2673  -17.6331   27.2500 C   0  0  0  0  0  0  0  0  0  0  0  0
   10.2044  -16.6593   28.0274 O   0  0  0  0  0  0  0  0  0  0  0  0
   10.3833  -18.8987   27.7854 O   0  0  0  0  0  0  0  0  0  0  0  0
  2  1  1  6
  2  3  1  0
  4  2  1  0
  5  4  1  0
  5  6  1  6
  7  5  1  0
  7  8  2  0
  9 10  1  0
 10 11  1  0
 11 13  1  0
 11 12  1  1
 13 14  1  6
 13 15  1  0
 14  7  1  0
 15 17  1  0
 16 15  2  0
 17 18  1  0
 17 21  1  0
 18 19  1  0
 19 20  1  0
 21 22  1  1
 21 20  1  0
 22 24  1  0
 23 22  2  0
M  END
$$$$
