QKI.pdb
     RDKit          3D

 27 26  0  0  1  0  0  0  0  0999 V2000
   21.5714  -11.3549  -21.5784 N   0  0  0  0  0  0  0  0  0  0  0  0
   20.9270  -12.5786  -21.2855 C   0  0  0  0  0  0  0  0  0  0  0  0
   20.6710  -13.3775  -22.2169 O   0  0  0  0  0  0  0  0  0  0  0  0
   20.5557  -12.9154  -19.8928 C   0  0  0  0  0  0  0  0  0  0  0  0
   21.0185  -11.8054  -18.9714 C   0  0  0  0  0  0  0  0  0  0  0  0
   20.1279  -11.6503  -17.7750 C   0  0  2  0  0  0  0  0  0  0  0  0
   18.8286  -12.2566  -17.9876 N   0  0  0  0  0  0  0  0  0  0  0  0
   19.9624  -10.1694  -17.5478 C   0  0  0  0  0  0  0  0  0  0  0  0
   20.5174   -9.3395  -18.3145 O   0  0  0  0  0  0  0  0  0  0  0  0
   19.1772   -9.7152  -16.4689 N   0  0  0  0  0  0  0  0  0  0  0  0
   18.9648   -8.3506  -16.1139 C   0  0  1  0  0  0  0  0  0  0  0  0
   17.7302   -8.2308  -15.2674 C   0  0  0  0  0  0  0  0  0  0  0  0
   16.5482   -8.5303  -16.1704 C   0  0  0  0  0  0  0  0  0  0  0  0
   15.2137   -8.3560  -15.5152 C   0  0  0  0  0  0  0  0  0  0  0  0
   14.1609   -8.7532  -16.5676 C   0  0  0  0  0  0  0  0  0  0  0  0
   12.8486   -8.4589  -16.0910 N   0  0  0  0  0  0  0  0  0  0  0  0
   20.1800   -7.7504  -15.4537 C   0  0  0  0  0  0  0  0  0  0  0  0
   20.8343   -8.4690  -14.6562 O   0  0  0  0  0  0  0  0  0  0  0  0
   25.2069   -5.2451  -16.9346 C   0  0  0  0  0  0  0  0  0  0  0  0
   24.1084   -5.1188  -15.9154 C   0  0  0  0  0  0  0  0  0  0  0  0
   22.8307   -5.7795  -16.3901 C   0  0  2  0  0  0  0  0  0  0  0  0
   22.3876   -5.0317  -17.6539 C   0  0  0  0  0  0  0  0  0  0  0  0
   21.7335   -5.6984  -15.3838 C   0  0  2  0  0  0  0  0  0  0  0  0
   20.5687   -6.4285  -15.7205 N   0  0  0  0  0  0  0  0  0  0  0  0
   21.6386   -4.3334  -14.8818 C   0  0  0  0  0  0  0  0  0  0  0  0
   22.3845   -3.7035  -13.9196 O   0  0  0  0  0  0  0  0  0  0  0  0
   20.7254   -3.5448  -15.3873 O   0  0  0  0  0  0  0  0  0  0  0  0
  2  1  1  0
  2  3  2  0
  4  5  1  0
  4  2  1  0
  5  6  1  0
  6  8  1  0
  6  7  1  6
  8  9  2  0
 10 11  1  0
 10  8  1  0
 12 13  1  0
 11 12  1  1
 13 14  1  0
 14 15  1  0
 16 15  1  0
 17 18  2  0
 17 11  1  0
 19 20  1  0
 20 21  1  0
 21 23  1  0
 21 22  1  6
 23 25  1  0
 23 24  1  6
 24 17  1  0
 25 26  1  0
 27 25  2  0
M  END
$$$$
