QKI.pdb
     RDKit          3D

 27 26  0  0  1  0  0  0  0  0999 V2000
   15.8464  -16.4794  -18.6810 N   0  0  0  0  0  0  0  0  0  0  0  0
   16.5584  -15.5502  -17.8884 C   0  0  0  0  0  0  0  0  0  0  0  0
   15.9880  -14.5004  -17.5093 O   0  0  0  0  0  0  0  0  0  0  0  0
   17.9651  -15.8116  -17.5091 C   0  0  0  0  0  0  0  0  0  0  0  0
   18.6866  -14.4914  -17.3310 C   0  0  0  0  0  0  0  0  0  0  0  0
   19.1697  -13.9265  -18.6334 C   0  0  2  0  0  0  0  0  0  0  0  0
   20.1755  -14.7704  -19.2473 N   0  0  0  0  0  0  0  0  0  0  0  0
   19.7640  -12.5760  -18.3253 C   0  0  0  0  0  0  0  0  0  0  0  0
   20.9517  -12.4781  -17.9198 O   0  0  0  0  0  0  0  0  0  0  0  0
   18.9810  -11.4165  -18.4966 N   0  0  0  0  0  0  0  0  0  0  0  0
   19.4105  -10.0804  -18.2443 C   0  0  1  0  0  0  0  0  0  0  0  0
   18.4018   -9.1099  -18.7883 C   0  0  0  0  0  0  0  0  0  0  0  0
   18.4844   -9.1929  -20.3010 C   0  0  0  0  0  0  0  0  0  0  0  0
   17.5016   -8.3221  -21.0196 C   0  0  0  0  0  0  0  0  0  0  0  0
   17.6835   -8.6139  -22.5214 C   0  0  0  0  0  0  0  0  0  0  0  0
   17.1290   -9.8871  -22.8493 N   0  0  0  0  0  0  0  0  0  0  0  0
   19.7012   -9.8547  -16.7823 C   0  0  0  0  0  0  0  0  0  0  0  0
   18.9363  -10.3877  -15.9390 O   0  0  0  0  0  0  0  0  0  0  0  0
   23.9125  -11.4566  -14.6650 C   0  0  0  0  0  0  0  0  0  0  0  0
   22.6159  -10.8240  -15.0893 C   0  0  0  0  0  0  0  0  0  0  0  0
   22.5612   -9.3590  -14.7086 C   0  0  2  0  0  0  0  0  0  0  0  0
   22.7024   -9.2914  -13.1828 C   0  0  0  0  0  0  0  0  0  0  0  0
   21.2735   -8.7129  -15.0931 C   0  0  2  0  0  0  0  0  0  0  0  0
   20.7926   -9.0721  -16.3749 N   0  0  0  0  0  0  0  0  0  0  0  0
   21.2852   -7.3199  -14.6646 C   0  0  0  0  0  0  0  0  0  0  0  0
   20.8952   -6.7707  -13.4708 O   0  0  0  0  0  0  0  0  0  0  0  0
   21.7229   -6.4138  -15.5004 O   0  0  0  0  0  0  0  0  0  0  0  0
  2  1  1  0
  2  3  2  0
  4  5  1  0
  4  2  1  0
  5  6  1  0
  6  8  1  0
  6  7  1  1
  8  9  2  0
 10 11  1  0
 10  8  1  0
 12 13  1  0
 11 12  1  1
 13 14  1  0
 14 15  1  0
 16 15  1  0
 17 18  2  0
 17 11  1  0
 19 20  1  0
 20 21  1  0
 21 23  1  0
 21 22  1  1
 23 25  1  0
 23 24  1  6
 24 17  1  0
 25 26  1  0
 27 25  2  0
M  END
$$$$
