QKI.pdb
     RDKit          3D

 27 26  0  0  1  0  0  0  0  0999 V2000
   19.6479  -19.7636  -12.5832 N   0  0  0  0  0  0  0  0  0  0  0  0
   19.8234  -21.1663  -12.5881 C   0  0  0  0  0  0  0  0  0  0  0  0
   18.8568  -21.9083  -12.2942 O   0  0  0  0  0  0  0  0  0  0  0  0
   21.1358  -21.7561  -12.9353 C   0  0  0  0  0  0  0  0  0  0  0  0
   22.1115  -20.6438  -13.2609 C   0  0  0  0  0  0  0  0  0  0  0  0
   22.0342  -20.2213  -14.6977 C   0  0  2  0  0  0  0  0  0  0  0  0
   22.2135  -21.3416  -15.5996 N   0  0  0  0  0  0  0  0  0  0  0  0
   23.1382  -19.2181  -14.9137 C   0  0  0  0  0  0  0  0  0  0  0  0
   23.2627  -18.2295  -14.1443 O   0  0  0  0  0  0  0  0  0  0  0  0
   24.0372  -19.3937  -15.9850 N   0  0  0  0  0  0  0  0  0  0  0  0
   25.0643  -18.4803  -16.3645 C   0  0  1  0  0  0  0  0  0  0  0  0
   26.0655  -19.1757  -17.2417 C   0  0  0  0  0  0  0  0  0  0  0  0
   27.2095  -18.2029  -17.4585 C   0  0  0  0  0  0  0  0  0  0  0  0
   28.2577  -18.6880  -18.4106 C   0  0  0  0  0  0  0  0  0  0  0  0
   29.3484  -17.6004  -18.4428 C   0  0  0  0  0  0  0  0  0  0  0  0
   30.4488  -18.0260  -19.2452 N   0  0  0  0  0  0  0  0  0  0  0  0
   24.4978  -17.2384  -17.0044 C   0  0  0  0  0  0  0  0  0  0  0  0
   23.5762  -17.3766  -17.8481 O   0  0  0  0  0  0  0  0  0  0  0  0
   22.4000  -11.8966  -15.6498 C   0  0  0  0  0  0  0  0  0  0  0  0
   23.3124  -12.5789  -16.6314 C   0  0  0  0  0  0  0  0  0  0  0  0
   23.8565  -13.8782  -16.0745 C   0  0  2  0  0  0  0  0  0  0  0  0
   24.8161  -13.5061  -14.9373 C   0  0  0  0  0  0  0  0  0  0  0  0
   24.6108  -14.6676  -17.0900 C   0  0  2  0  0  0  0  0  0  0  0  0
   24.9855  -15.9658  -16.6689 N   0  0  0  0  0  0  0  0  0  0  0  0
   25.5658  -13.7983  -17.7655 C   0  0  0  0  0  0  0  0  0  0  0  0
   25.3731  -12.9404  -18.8171 O   0  0  0  0  0  0  0  0  0  0  0  0
   26.8063  -13.7923  -17.3501 O   0  0  0  0  0  0  0  0  0  0  0  0
  2  1  1  0
  2  3  2  0
  4  5  1  0
  4  2  1  0
  5  6  1  0
  6  8  1  0
  6  7  1  6
  8  9  2  0
 10 11  1  0
 10  8  1  0
 12 13  1  0
 11 12  1  6
 13 14  1  0
 14 15  1  0
 16 15  1  0
 17 18  2  0
 17 11  1  0
 19 20  1  0
 20 21  1  0
 21 23  1  0
 21 22  1  1
 23 25  1  0
 23 24  1  1
 24 17  1  0
 25 26  1  0
 27 25  2  0
M  END
$$$$
