QKI.pdb
     RDKit          3D

 27 26  0  0  1  0  0  0  0  0999 V2000
   19.4047  -25.4912   -9.4949 N   0  0  0  0  0  0  0  0  0  0  0  0
   18.1184  -24.9099   -9.4178 C   0  0  0  0  0  0  0  0  0  0  0  0
   17.2890  -25.3584   -8.5917 O   0  0  0  0  0  0  0  0  0  0  0  0
   17.7511  -23.7826  -10.3040 C   0  0  0  0  0  0  0  0  0  0  0  0
   18.9103  -23.4795  -11.2310 C   0  0  0  0  0  0  0  0  0  0  0  0
   18.7306  -24.0943  -12.5869 C   0  0  2  0  0  0  0  0  0  0  0  0
   18.7266  -25.5425  -12.5261 N   0  0  0  0  0  0  0  0  0  0  0  0
   19.8895  -23.6281  -13.4305 C   0  0  0  0  0  0  0  0  0  0  0  0
   20.1363  -22.4000  -13.5542 O   0  0  0  0  0  0  0  0  0  0  0  0
   20.7017  -24.5783  -14.0819 N   0  0  0  0  0  0  0  0  0  0  0  0
   21.8544  -24.2848  -14.8683 C   0  0  1  0  0  0  0  0  0  0  0  0
   22.7985  -25.4523  -14.8436 C   0  0  0  0  0  0  0  0  0  0  0  0
   24.0057  -25.0582  -15.6741 C   0  0  0  0  0  0  0  0  0  0  0  0
   25.0122  -24.2274  -14.9411 C   0  0  0  0  0  0  0  0  0  0  0  0
   26.0945  -23.8518  -15.9712 C   0  0  0  0  0  0  0  0  0  0  0  0
   27.1256  -23.0862  -15.3495 N   0  0  0  0  0  0  0  0  0  0  0  0
   21.4828  -23.8702  -16.2694 C   0  0  0  0  0  0  0  0  0  0  0  0
   20.6260  -24.5573  -16.8809 O   0  0  0  0  0  0  0  0  0  0  0  0
   21.6093  -18.6100  -19.5075 C   0  0  0  0  0  0  0  0  0  0  0  0
   21.5879  -20.1135  -19.5269 C   0  0  0  0  0  0  0  0  0  0  0  0
   22.0185  -20.6931  -18.1953 C   0  0  2  0  0  0  0  0  0  0  0  0
   23.4834  -20.2885  -17.9882 C   0  0  0  0  0  0  0  0  0  0  0  0
   21.9298  -22.1811  -18.1605 C   0  0  2  0  0  0  0  0  0  0  0  0
   22.0765  -22.7511  -16.8733 N   0  0  0  0  0  0  0  0  0  0  0  0
   22.6407  -22.7342  -19.3063 C   0  0  0  0  0  0  0  0  0  0  0  0
   23.8246  -23.4238  -19.3490 O   0  0  0  0  0  0  0  0  0  0  0  0
   22.1198  -22.5820  -20.4966 O   0  0  0  0  0  0  0  0  0  0  0  0
  2  1  1  0
  2  3  2  0
  4  5  1  0
  4  2  1  0
  5  6  1  0
  6  8  1  0
  6  7  1  1
  8  9  2  0
 10 11  1  0
 10  8  1  0
 12 13  1  0
 11 12  1  6
 13 14  1  0
 14 15  1  0
 16 15  1  0
 17 18  2  0
 17 11  1  0
 19 20  1  0
 20 21  1  0
 21 23  1  0
 21 22  1  6
 23 25  1  0
 23 24  1  1
 24 17  1  0
 25 26  1  0
 27 25  2  0
M  END
$$$$
