QKI.pdb
     RDKit          3D

 27 26  0  0  1  0  0  0  0  0999 V2000
   25.6781  -12.0980  -17.8393 N   0  0  0  0  0  0  0  0  0  0  0  0
   25.8198  -12.9380  -16.7112 C   0  0  0  0  0  0  0  0  0  0  0  0
   26.6285  -13.8949  -16.7544 O   0  0  0  0  0  0  0  0  0  0  0  0
   25.0211  -12.6931  -15.4894 C   0  0  0  0  0  0  0  0  0  0  0  0
   24.1227  -11.4940  -15.7135 C   0  0  0  0  0  0  0  0  0  0  0  0
   22.6824  -11.8825  -15.8661 C   0  0  2  0  0  0  0  0  0  0  0  0
   22.4505  -12.6232  -17.0902 N   0  0  0  0  0  0  0  0  0  0  0  0
   21.8892  -10.6011  -15.8940 C   0  0  0  0  0  0  0  0  0  0  0  0
   22.3580   -9.5714  -16.4460 O   0  0  0  0  0  0  0  0  0  0  0  0
   20.6123  -10.5609  -15.2984 N   0  0  0  0  0  0  0  0  0  0  0  0
   19.7048   -9.4624  -15.3544 C   0  0  1  0  0  0  0  0  0  0  0  0
   18.3276   -9.9193  -14.9674 C   0  0  0  0  0  0  0  0  0  0  0  0
   17.8511  -10.8538  -16.0637 C   0  0  0  0  0  0  0  0  0  0  0  0
   16.5052  -11.4594  -15.8141 C   0  0  0  0  0  0  0  0  0  0  0  0
   16.2425  -12.4254  -16.9852 C   0  0  0  0  0  0  0  0  0  0  0  0
   16.1568  -11.7036  -18.2130 N   0  0  0  0  0  0  0  0  0  0  0  0
   20.1842   -8.3001  -14.5225 C   0  0  0  0  0  0  0  0  0  0  0  0
   20.5027   -8.5212  -13.3267 O   0  0  0  0  0  0  0  0  0  0  0  0
   23.4426   -3.2270  -14.9234 C   0  0  0  0  0  0  0  0  0  0  0  0
   22.1811   -3.8231  -14.3623 C   0  0  0  0  0  0  0  0  0  0  0  0
   21.8004   -5.0993  -15.0839 C   0  0  2  0  0  0  0  0  0  0  0  0
   21.4737   -4.7102  -16.5311 C   0  0  0  0  0  0  0  0  0  0  0  0
   20.6026   -5.7598  -14.4902 C   0  0  2  0  0  0  0  0  0  0  0  0
   20.2713   -7.0092  -15.0666 N   0  0  0  0  0  0  0  0  0  0  0  0
   19.5739   -4.7584  -14.2389 C   0  0  0  0  0  0  0  0  0  0  0  0
   18.3925   -4.5365  -14.8975 O   0  0  0  0  0  0  0  0  0  0  0  0
   19.7482   -3.9194  -13.2504 O   0  0  0  0  0  0  0  0  0  0  0  0
  2  1  1  0
  2  3  2  0
  4  5  1  0
  4  2  1  0
  5  6  1  0
  6  8  1  0
  6  7  1  6
  8  9  2  0
 10 11  1  0
 10  8  1  0
 12 13  1  0
 11 12  1  1
 13 14  1  0
 14 15  1  0
 16 15  1  0
 17 18  2  0
 17 11  1  0
 19 20  1  0
 20 21  1  0
 21 23  1  0
 21 22  1  6
 23 25  1  0
 23 24  1  6
 24 17  1  0
 25 26  1  0
 27 25  2  0
M  END
$$$$
