QKI.pdb
     RDKit          3D

 27 26  0  0  1  0  0  0  0  0999 V2000
   29.6167  -18.1178  -17.8587 N   0  0  0  0  0  0  0  0  0  0  0  0
   29.5215  -16.7502  -17.5137 C   0  0  0  0  0  0  0  0  0  0  0  0
   30.3667  -15.9417  -17.9646 O   0  0  0  0  0  0  0  0  0  0  0  0
   28.4355  -16.2748  -16.6275 C   0  0  0  0  0  0  0  0  0  0  0  0
   27.5614  -17.4488  -16.2367 C   0  0  0  0  0  0  0  0  0  0  0  0
   26.9353  -18.1131  -17.4264 C   0  0  2  0  0  0  0  0  0  0  0  0
   26.0682  -17.2086  -18.1549 N   0  0  0  0  0  0  0  0  0  0  0  0
   26.1274  -19.2716  -16.8997 C   0  0  0  0  0  0  0  0  0  0  0  0
   25.0184  -19.0741  -16.3379 O   0  0  0  0  0  0  0  0  0  0  0  0
   26.6204  -20.5845  -17.0420 N   0  0  0  0  0  0  0  0  0  0  0  0
   25.9984  -21.7637  -16.5362 C   0  0  1  0  0  0  0  0  0  0  0  0
   26.6822  -22.9791  -17.0933 C   0  0  0  0  0  0  0  0  0  0  0  0
   25.9194  -24.1859  -16.5797 C   0  0  0  0  0  0  0  0  0  0  0  0
   26.4911  -25.5022  -17.0055 C   0  0  0  0  0  0  0  0  0  0  0  0
   25.4715  -26.5747  -16.5771 C   0  0  0  0  0  0  0  0  0  0  0  0
   25.9360  -27.8735  -16.9419 N   0  0  0  0  0  0  0  0  0  0  0  0
   25.9500  -21.7662  -15.0294 C   0  0  0  0  0  0  0  0  0  0  0  0
   27.0299  -21.9176  -14.4041 O   0  0  0  0  0  0  0  0  0  0  0  0
   25.7617  -20.6319   -9.6150 C   0  0  0  0  0  0  0  0  0  0  0  0
   24.9302  -21.4335  -10.5779 C   0  0  0  0  0  0  0  0  0  0  0  0
   25.1901  -21.0231  -12.0126 C   0  0  2  0  0  0  0  0  0  0  0  0
   24.7995  -19.5445  -12.1288 C   0  0  0  0  0  0  0  0  0  0  0  0
   24.3790  -21.8044  -12.9899 C   0  0  2  0  0  0  0  0  0  0  0  0
   24.7352  -21.6053  -14.3451 N   0  0  0  0  0  0  0  0  0  0  0  0
   22.9813  -21.7917  -12.5768 C   0  0  0  0  0  0  0  0  0  0  0  0
   22.3571  -22.5062  -11.5875 O   0  0  0  0  0  0  0  0  0  0  0  0
   22.1518  -21.0000  -13.2065 O   0  0  0  0  0  0  0  0  0  0  0  0
  2  1  1  0
  2  3  2  0
  4  5  1  0
  4  2  1  0
  5  6  1  0
  6  8  1  0
  6  7  1  1
  8  9  2  0
 10 11  1  0
 10  8  1  0
 12 13  1  0
 11 12  1  1
 13 14  1  0
 14 15  1  0
 16 15  1  0
 17 18  2  0
 17 11  1  0
 19 20  1  0
 20 21  1  0
 21 23  1  0
 21 22  1  1
 23 25  1  0
 23 24  1  6
 24 17  1  0
 25 26  1  0
 27 25  2  0
M  END
$$$$
