QKI.pdb
     RDKit          3D

 27 26  0  0  1  0  0  0  0  0999 V2000
   16.0061  -12.3617  -18.5947 N   0  0  0  0  0  0  0  0  0  0  0  0
   15.4547  -13.5946  -18.1772 C   0  0  0  0  0  0  0  0  0  0  0  0
   14.4180  -14.0253  -18.7351 O   0  0  0  0  0  0  0  0  0  0  0  0
   16.0928  -14.3714  -17.0908 C   0  0  0  0  0  0  0  0  0  0  0  0
   17.3368  -13.6444  -16.6227 C   0  0  0  0  0  0  0  0  0  0  0  0
   18.5888  -14.2196  -17.2145 C   0  0  2  0  0  0  0  0  0  0  0  0
   18.9315  -15.4946  -16.6165 N   0  0  0  0  0  0  0  0  0  0  0  0
   19.6898  -13.2253  -16.9479 C   0  0  0  0  0  0  0  0  0  0  0  0
   20.0689  -12.9922  -15.7703 O   0  0  0  0  0  0  0  0  0  0  0  0
   20.2985  -12.5558  -18.0287 N   0  0  0  0  0  0  0  0  0  0  0  0
   21.3838  -11.6361  -17.9300 C   0  0  1  0  0  0  0  0  0  0  0  0
   22.0049  -11.4344  -19.2823 C   0  0  0  0  0  0  0  0  0  0  0  0
   22.7004  -12.7334  -19.6440 C   0  0  0  0  0  0  0  0  0  0  0  0
   23.2638  -12.7645  -21.0305 C   0  0  0  0  0  0  0  0  0  0  0  0
   23.8471  -14.1767  -21.2280 C   0  0  0  0  0  0  0  0  0  0  0  0
   24.4552  -14.2859  -22.5141 N   0  0  0  0  0  0  0  0  0  0  0  0
   20.9595  -10.3395  -17.2885 C   0  0  0  0  0  0  0  0  0  0  0  0
   19.8625   -9.8372  -17.6414 O   0  0  0  0  0  0  0  0  0  0  0  0
   22.4961   -9.4758  -11.9961 C   0  0  0  0  0  0  0  0  0  0  0  0
   22.6610   -9.3427  -13.4849 C   0  0  0  0  0  0  0  0  0  0  0  0
   21.4489   -8.6963  -14.1231 C   0  0  2  0  0  0  0  0  0  0  0  0
   20.2623   -9.6357  -13.8740 C   0  0  0  0  0  0  0  0  0  0  0  0
   21.6042   -8.5109  -15.5944 C   0  0  2  0  0  0  0  0  0  0  0  0
   21.7657   -9.7113  -16.3266 N   0  0  0  0  0  0  0  0  0  0  0  0
   22.4634   -7.3614  -15.8483 C   0  0  0  0  0  0  0  0  0  0  0  0
   22.2785   -6.0438  -15.5187 O   0  0  0  0  0  0  0  0  0  0  0  0
   23.5926   -7.5540  -16.4802 O   0  0  0  0  0  0  0  0  0  0  0  0
  2  1  1  0
  2  3  2  0
  4  5  1  0
  4  2  1  0
  5  6  1  0
  6  8  1  0
  6  7  1  1
  8  9  2  0
 10 11  1  0
 10  8  1  0
 12 13  1  0
 11 12  1  6
 13 14  1  0
 14 15  1  0
 16 15  1  0
 17 18  2  0
 17 11  1  0
 19 20  1  0
 20 21  1  0
 21 23  1  0
 21 22  1  6
 23 25  1  0
 23 24  1  1
 24 17  1  0
 25 26  1  0
 27 25  2  0
M  END
$$$$
