QKI.pdb
     RDKit          3D

 27 26  0  0  1  0  0  0  0  0999 V2000
   16.1664  -24.0646    3.1882 N   0  0  0  0  0  0  0  0  0  0  0  0
   16.5653  -22.7428    3.4916 C   0  0  0  0  0  0  0  0  0  0  0  0
   16.9458  -22.4663    4.6536 O   0  0  0  0  0  0  0  0  0  0  0  0
   16.5338  -21.6926    2.4491 C   0  0  0  0  0  0  0  0  0  0  0  0
   17.0651  -20.3980    3.0297 C   0  0  0  0  0  0  0  0  0  0  0  0
   15.9660  -19.4830    3.4806 C   0  0  2  0  0  0  0  0  0  0  0  0
   15.2185  -18.9455    2.3612 N   0  0  0  0  0  0  0  0  0  0  0  0
   16.6234  -18.3563    4.2358 C   0  0  0  0  0  0  0  0  0  0  0  0
   17.2674  -17.4659    3.6218 O   0  0  0  0  0  0  0  0  0  0  0  0
   16.5112  -18.3020    5.6398 N   0  0  0  0  0  0  0  0  0  0  0  0
   16.9783  -17.2402    6.4691 C   0  0  1  0  0  0  0  0  0  0  0  0
   15.8899  -16.8138    7.4117 C   0  0  0  0  0  0  0  0  0  0  0  0
   14.9254  -15.9592    6.6106 C   0  0  0  0  0  0  0  0  0  0  0  0
   15.2616  -14.5007    6.5962 C   0  0  0  0  0  0  0  0  0  0  0  0
   14.1398  -13.8068    5.8002 C   0  0  0  0  0  0  0  0  0  0  0  0
   14.2380  -12.3901    5.9380 N   0  0  0  0  0  0  0  0  0  0  0  0
   18.2521  -17.6108    7.1852 C   0  0  0  0  0  0  0  0  0  0  0  0
   18.4586  -18.8260    7.4324 O   0  0  0  0  0  0  0  0  0  0  0  0
   21.5017  -13.0500    8.0009 C   0  0  0  0  0  0  0  0  0  0  0  0
   20.8830  -14.3585    7.5928 C   0  0  0  0  0  0  0  0  0  0  0  0
   20.9365  -15.3732    8.7161 C   0  0  2  0  0  0  0  0  0  0  0  0
   22.4161  -15.5615    9.0738 C   0  0  0  0  0  0  0  0  0  0  0  0
   20.3735  -16.6966    8.3224 C   0  0  2  0  0  0  0  0  0  0  0  0
   19.1794  -16.6284    7.5656 N   0  0  0  0  0  0  0  0  0  0  0  0
   20.4964  -17.6252    9.4390 C   0  0  0  0  0  0  0  0  0  0  0  0
   19.6974  -17.7733   10.5429 O   0  0  0  0  0  0  0  0  0  0  0  0
   21.4977  -18.4670    9.4431 O   0  0  0  0  0  0  0  0  0  0  0  0
  2  1  1  0
  2  3  2  0
  4  5  1  0
  4  2  1  0
  5  6  1  0
  6  8  1  0
  6  7  1  6
  8  9  2  0
 10 11  1  0
 10  8  1  0
 12 13  1  0
 11 12  1  1
 13 14  1  0
 14 15  1  0
 16 15  1  0
 17 18  2  0
 17 11  1  0
 19 20  1  0
 20 21  1  0
 21 23  1  0
 21 22  1  6
 23 25  1  0
 23 24  1  1
 24 17  1  0
 25 26  1  0
 27 25  2  0
M  END
$$$$
