RSY.pdb
     RDKit          3D

 30 30  0  0  1  0  0  0  0  0999 V2000
    7.7448  -13.7590   14.7903 N   0  0  0  0  0  0  0  0  0  0  0  0
    8.0602  -15.0292   15.3420 C   0  0  0  0  0  0  0  0  0  0  0  0
    8.7377  -15.8901   14.6774 N   0  0  0  0  0  0  0  0  0  0  0  0
    7.6224  -15.3552   16.6447 N   0  0  0  0  0  0  0  0  0  0  0  0
    6.9889  -14.3180   17.4957 C   0  0  0  0  0  0  0  0  0  0  0  0
    8.0750  -13.4840   18.0705 C   0  0  0  0  0  0  0  0  0  0  0  0
    7.9718  -13.3480   19.5424 C   0  0  0  0  0  0  0  0  0  0  0  0
    8.4108  -14.4956   20.3687 C   0  0  2  0  0  0  0  0  0  0  0  0
    7.5821  -15.6597   20.3338 N   0  0  0  0  0  0  0  0  0  0  0  0
    8.5928  -13.9959   21.7746 C   0  0  0  0  0  0  0  0  0  0  0  0
    9.3039  -12.9964   22.0290 O   0  0  0  0  0  0  0  0  0  0  0  0
    9.0087  -16.8293   15.0252 O   0  0  0  0  0  0  0  0  0  0  0  0
    6.8535  -15.8432   25.1126 C   0  0  0  0  0  0  0  0  0  0  0  0
    6.6947  -14.4798   24.8472 C   0  0  1  0  0  0  0  0  0  0  0  0
    7.9809  -14.0236   24.1592 N   0  0  0  0  0  0  0  0  0  0  0  0
    7.9489  -14.6645   22.8365 C   0  0  0  0  0  0  0  0  0  0  0  0
    9.1621  -14.5278   24.8957 O   0  0  0  0  0  0  0  0  0  0  0  0
    9.2878  -14.2753   26.1173 O   0  0  0  0  0  0  0  0  0  0  0  0
    9.8099  -14.9652   31.2195 C   0  0  0  0  0  0  0  0  0  0  0  0
   10.0168  -15.4184   29.9072 C   0  0  0  0  0  0  0  0  0  0  0  0
    9.9421  -14.5586   28.8287 C   0  0  0  0  0  0  0  0  0  0  0  0
   10.1450  -15.0134   27.5663 C   0  0  0  0  0  0  0  0  0  0  0  0
   10.4294  -16.3432   27.3396 C   0  0  0  0  0  0  0  0  0  0  0  0
   10.6483  -16.8761   25.9797 C   0  0  2  0  0  0  0  0  0  0  0  0
   11.2678  -15.8450   25.0382 N   0  0  0  0  0  0  0  0  0  0  0  0
   10.1726  -15.2942   24.2756 C   0  0  0  0  0  0  0  0  0  0  0  0
   12.2753  -16.4454   24.1438 O   0  0  0  0  0  0  0  0  0  0  0  0
   11.9727  -16.6069   22.8048 C   0  0  0  0  0  0  0  0  0  0  0  0
   10.5060  -17.2048   28.3970 C   0  0  0  0  0  0  0  0  0  0  0  0
   10.2989  -16.7350   29.6750 O   0  0  0  0  0  0  0  0  0  0  0  0
  1  2  1  0
  2  3  2  0
  4  2  1  0
  5  4  1  0
  5  6  1  0
  7  6  1  0
  7  8  1  0
  8  9  1  1
 10 15  1  0
 10  8  1  0
 11 10  2  0
 12 13  1  0
 14 13  1  6
 14 16  1  0
 14 15  1  0
 16 17  2  0
 18 19  1  0
 19 29  2  0
 19 20  1  0
 20 21  2  0
 21 22  1  0
 22 23  1  0
 24 23  1  1
 25 24  1  0
 25 16  1  0
 26 27  1  0
 26 24  1  0
 28 22  2  0
 29 28  1  0
 30 26  2  0
M  END
$$$$
