RSY.pdb
     RDKit          3D

 30 30  0  0  1  0  0  0  0  0999 V2000
   12.4949  -13.4329   19.3666 N   0  0  0  0  0  0  0  0  0  0  0  0
   11.1941  -13.7514   19.8396 C   0  0  0  0  0  0  0  0  0  0  0  0
   11.0271  -14.5206   20.8506 N   0  0  0  0  0  0  0  0  0  0  0  0
   10.0614  -13.2144   19.1888 N   0  0  0  0  0  0  0  0  0  0  0  0
    9.8802  -13.4135   17.7298 C   0  0  0  0  0  0  0  0  0  0  0  0
    8.4503  -13.7391   17.4952 C   0  0  0  0  0  0  0  0  0  0  0  0
    7.9682  -14.8448   18.3558 C   0  0  0  0  0  0  0  0  0  0  0  0
    8.4435  -16.2122   18.0446 C   0  0  2  0  0  0  0  0  0  0  0  0
    7.6942  -16.9405   17.0691 N   0  0  0  0  0  0  0  0  0  0  0  0
    8.5304  -16.9660   19.3420 C   0  0  0  0  0  0  0  0  0  0  0  0
    7.5035  -17.2965   19.9791 O   0  0  0  0  0  0  0  0  0  0  0  0
   10.1086  -14.7583   21.2707 O   0  0  0  0  0  0  0  0  0  0  0  0
   12.1601  -17.7195   20.9973 C   0  0  0  0  0  0  0  0  0  0  0  0
   11.1755  -18.6860   21.2231 C   0  0  1  0  0  0  0  0  0  0  0  0
    9.8358  -17.9517   21.1821 N   0  0  0  0  0  0  0  0  0  0  0  0
    9.7961  -17.3127   19.8587 C   0  0  0  0  0  0  0  0  0  0  0  0
    9.8009  -16.8919   22.2153 O   0  0  0  0  0  0  0  0  0  0  0  0
   10.6420  -15.9628   22.1820 O   0  0  0  0  0  0  0  0  0  0  0  0
    6.3811  -11.3919   28.1600 C   0  0  0  0  0  0  0  0  0  0  0  0
    6.6464  -12.3300   27.1501 C   0  0  0  0  0  0  0  0  0  0  0  0
    7.3257  -11.9769   26.0003 C   0  0  0  0  0  0  0  0  0  0  0  0
    7.5740  -12.8966   25.0338 C   0  0  0  0  0  0  0  0  0  0  0  0
    7.1515  -14.2003   25.1842 C   0  0  0  0  0  0  0  0  0  0  0  0
    7.3963  -15.2266   24.1507 C   0  0  1  0  0  0  0  0  0  0  0  0
    8.8084  -15.8047   24.2209 N   0  0  0  0  0  0  0  0  0  0  0  0
    8.8471  -16.8780   23.2562 C   0  0  0  0  0  0  0  0  0  0  0  0
    9.1368  -16.3042   25.5693 O   0  0  0  0  0  0  0  0  0  0  0  0
    9.7455  -15.4514   26.4709 C   0  0  0  0  0  0  0  0  0  0  0  0
    6.4783  -14.5632   26.3162 C   0  0  0  0  0  0  0  0  0  0  0  0
    6.2306  -13.6237   27.2922 O   0  0  0  0  0  0  0  0  0  0  0  0
  1  2  1  0
  2  3  2  0
  4  2  1  0
  5  4  1  0
  5  6  1  0
  7  6  1  0
  7  8  1  0
  8  9  1  6
 10 15  1  0
 10  8  1  0
 11 10  2  0
 12 13  1  0
 14 13  1  6
 14 16  1  0
 14 15  1  0
 16 17  2  0
 18 19  1  0
 19 29  2  0
 19 20  1  0
 20 21  2  0
 21 22  1  0
 22 23  1  0
 24 23  1  6
 25 24  1  0
 25 16  1  0
 26 27  1  0
 26 24  1  0
 28 22  2  0
 29 28  1  0
 30 26  2  0
M  END
$$$$
