RSY.pdb
     RDKit          3D

 30 30  0  0  1  0  0  0  0  0999 V2000
    6.9202  -12.7172   16.3433 N   0  0  0  0  0  0  0  0  0  0  0  0
    8.0430  -13.5869   16.3295 C   0  0  0  0  0  0  0  0  0  0  0  0
    8.2288  -14.4133   15.3680 N   0  0  0  0  0  0  0  0  0  0  0  0
    8.9741  -13.5453   17.3907 N   0  0  0  0  0  0  0  0  0  0  0  0
    8.5228  -13.1964   18.7604 C   0  0  0  0  0  0  0  0  0  0  0  0
    7.8801  -14.4023   19.3422 C   0  0  0  0  0  0  0  0  0  0  0  0
    7.8654  -14.3824   20.8238 C   0  0  0  0  0  0  0  0  0  0  0  0
    9.1442  -14.6381   21.5249 C   0  0  2  0  0  0  0  0  0  0  0  0
   10.2069  -15.1773   20.7355 N   0  0  0  0  0  0  0  0  0  0  0  0
    8.8427  -15.5148   22.7080 C   0  0  0  0  0  0  0  0  0  0  0  0
    7.8887  -15.2679   23.4817 O   0  0  0  0  0  0  0  0  0  0  0  0
    8.9836  -15.1243   15.3335 O   0  0  0  0  0  0  0  0  0  0  0  0
    9.8222  -19.4953   25.1353 C   0  0  0  0  0  0  0  0  0  0  0  0
   10.1150  -18.7265   24.0050 C   0  0  2  0  0  0  0  0  0  0  0  0
    9.4134  -17.3837   24.2057 N   0  0  0  0  0  0  0  0  0  0  0  0
    9.6498  -16.6443   22.9572 C   0  0  0  0  0  0  0  0  0  0  0  0
   10.0438  -16.6379   25.3184 O   0  0  0  0  0  0  0  0  0  0  0  0
   11.0548  -15.9298   25.0987 O   0  0  0  0  0  0  0  0  0  0  0  0
    6.4024  -11.5380   24.9951 C   0  0  0  0  0  0  0  0  0  0  0  0
    7.0403  -12.4609   25.8387 C   0  0  0  0  0  0  0  0  0  0  0  0
    6.4650  -13.6809   26.1365 C   0  0  0  0  0  0  0  0  0  0  0  0
    7.0955  -14.5617   26.9539 C   0  0  0  0  0  0  0  0  0  0  0  0
    8.3224  -14.2525   27.5013 C   0  0  0  0  0  0  0  0  0  0  0  0
    9.0348  -15.1821   28.4012 C   0  0  2  0  0  0  0  0  0  0  0  0
   10.1697  -15.9248   27.6985 N   0  0  0  0  0  0  0  0  0  0  0  0
    9.5508  -16.6874   26.6405 C   0  0  0  0  0  0  0  0  0  0  0  0
   10.9051  -16.8124   28.6189 O   0  0  0  0  0  0  0  0  0  0  0  0
   10.8549  -18.1788   28.4165 C   0  0  0  0  0  0  0  0  0  0  0  0
    8.9029  -13.0493   27.2155 C   0  0  0  0  0  0  0  0  0  0  0  0
    8.2563  -12.1612   26.3849 O   0  0  0  0  0  0  0  0  0  0  0  0
  1  2  1  0
  2  3  2  0
  4  2  1  0
  5  4  1  0
  5  6  1  0
  7  6  1  0
  7  8  1  0
  8  9  1  6
 10 15  1  0
 10  8  1  0
 11 10  2  0
 12 13  1  0
 14 13  1  6
 14 16  1  0
 14 15  1  0
 16 17  2  0
 18 19  1  0
 19 29  2  0
 19 20  1  0
 20 21  2  0
 21 22  1  0
 22 23  1  0
 24 23  1  6
 25 24  1  0
 25 16  1  0
 26 27  1  0
 26 24  1  0
 28 22  2  0
 29 28  1  0
 30 26  2  0
M  END
$$$$
