RSY.pdb
     RDKit          3D

 30 30  0  0  1  0  0  0  0  0999 V2000
   10.9776  -19.1082   13.2139 N   0  0  0  0  0  0  0  0  0  0  0  0
    9.6314  -19.5522   13.3024 C   0  0  0  0  0  0  0  0  0  0  0  0
    8.9163  -19.7122   12.2513 N   0  0  0  0  0  0  0  0  0  0  0  0
    9.0653  -19.8236   14.5677 N   0  0  0  0  0  0  0  0  0  0  0  0
    9.8561  -19.5868   15.8005 C   0  0  0  0  0  0  0  0  0  0  0  0
    9.3766  -18.3178   16.4049 C   0  0  0  0  0  0  0  0  0  0  0  0
   10.1621  -17.9210   17.5970 C   0  0  0  0  0  0  0  0  0  0  0  0
    9.7166  -18.4339   18.9126 C   0  0  2  0  0  0  0  0  0  0  0  0
    8.7373  -19.4750   18.8922 N   0  0  0  0  0  0  0  0  0  0  0  0
    9.2463  -17.2566   19.7202 C   0  0  0  0  0  0  0  0  0  0  0  0
    9.9508  -16.2294   19.8546 O   0  0  0  0  0  0  0  0  0  0  0  0
    7.9135  -19.9784   12.2500 O   0  0  0  0  0  0  0  0  0  0  0  0
    5.7493  -17.4473   21.8316 C   0  0  0  0  0  0  0  0  0  0  0  0
    6.0706  -16.2183   21.2477 C   0  0  1  0  0  0  0  0  0  0  0  0
    7.5964  -16.1602   21.1820 N   0  0  0  0  0  0  0  0  0  0  0  0
    7.9818  -17.3042   20.3431 C   0  0  0  0  0  0  0  0  0  0  0  0
    8.1747  -16.3527   22.5313 O   0  0  0  0  0  0  0  0  0  0  0  0
    8.5155  -17.5001   22.9040 O   0  0  0  0  0  0  0  0  0  0  0  0
   10.7029  -14.5482   30.7805 C   0  0  0  0  0  0  0  0  0  0  0  0
   10.2913  -14.4305   29.4437 C   0  0  0  0  0  0  0  0  0  0  0  0
    9.3867  -13.4629   29.0517 C   0  0  0  0  0  0  0  0  0  0  0  0
    8.9995  -13.3629   27.7549 C   0  0  0  0  0  0  0  0  0  0  0  0
    9.5036  -14.2269   26.8062 C   0  0  0  0  0  0  0  0  0  0  0  0
    9.0998  -14.1536   25.3875 C   0  0  1  0  0  0  0  0  0  0  0  0
    8.7616  -15.5235   24.8022 N   0  0  0  0  0  0  0  0  0  0  0  0
    8.3640  -15.2847   23.4351 C   0  0  0  0  0  0  0  0  0  0  0  0
    7.6812  -16.1944   25.5493 O   0  0  0  0  0  0  0  0  0  0  0  0
    8.0060  -17.1989   26.4416 C   0  0  0  0  0  0  0  0  0  0  0  0
   10.3988  -15.1888   27.1799 C   0  0  0  0  0  0  0  0  0  0  0  0
   10.7865  -15.2834   28.4981 O   0  0  0  0  0  0  0  0  0  0  0  0
  1  2  1  0
  2  3  2  0
  4  2  1  0
  5  4  1  0
  5  6  1  0
  7  6  1  0
  7  8  1  0
  8  9  1  6
 10 15  1  0
 10  8  1  0
 11 10  2  0
 12 13  1  0
 14 13  1  6
 14 16  1  0
 14 15  1  0
 16 17  2  0
 18 19  1  0
 19 29  2  0
 19 20  1  0
 20 21  2  0
 21 22  1  0
 22 23  1  0
 24 23  1  6
 25 24  1  0
 25 16  1  0
 26 27  1  0
 26 24  1  0
 28 22  2  0
 29 28  1  0
 30 26  2  0
M  END
$$$$
