RSY.pdb
     RDKit          3D

 30 30  0  0  1  0  0  0  0  0999 V2000
   13.2257  -20.1626   16.3573 N   0  0  0  0  0  0  0  0  0  0  0  0
   13.8652  -20.0205   17.6176 C   0  0  0  0  0  0  0  0  0  0  0  0
   15.0701  -19.5933   17.7043 N   0  0  0  0  0  0  0  0  0  0  0  0
   13.1666  -20.3542   18.7989 N   0  0  0  0  0  0  0  0  0  0  0  0
   11.8010  -20.9283   18.7163 C   0  0  0  0  0  0  0  0  0  0  0  0
   10.8344  -19.8098   18.8585 C   0  0  0  0  0  0  0  0  0  0  0  0
   10.2413  -19.7372   20.2145 C   0  0  0  0  0  0  0  0  0  0  0  0
    8.7642  -19.7172   20.3158 C   0  0  2  0  0  0  0  0  0  0  0  0
    8.0600  -19.0975   19.2372 N   0  0  0  0  0  0  0  0  0  0  0  0
    8.4108  -19.0865   21.6335 C   0  0  0  0  0  0  0  0  0  0  0  0
    8.2403  -17.8503   21.7448 O   0  0  0  0  0  0  0  0  0  0  0  0
   15.5902  -19.4592   18.5920 O   0  0  0  0  0  0  0  0  0  0  0  0
    7.5043  -21.4271   24.7251 C   0  0  0  0  0  0  0  0  0  0  0  0
    6.9640  -20.1380   24.7501 C   0  0  1  0  0  0  0  0  0  0  0  0
    7.9796  -19.2333   24.0530 N   0  0  0  0  0  0  0  0  0  0  0  0
    8.2657  -19.9017   22.7753 C   0  0  0  0  0  0  0  0  0  0  0  0
    9.2326  -19.1693   24.8391 O   0  0  0  0  0  0  0  0  0  0  0  0
   10.1582  -19.9807   24.6013 O   0  0  0  0  0  0  0  0  0  0  0  0
   14.3782  -17.1502   21.7151 C   0  0  0  0  0  0  0  0  0  0  0  0
   13.6132  -17.1058   22.8913 C   0  0  0  0  0  0  0  0  0  0  0  0
   12.3403  -16.5694   22.9020 C   0  0  0  0  0  0  0  0  0  0  0  0
   11.6143  -16.5344   24.0480 C   0  0  0  0  0  0  0  0  0  0  0  0
   12.1363  -17.0345   25.2219 C   0  0  0  0  0  0  0  0  0  0  0  0
   11.3794  -17.0065   26.4897 C   0  0  2  0  0  0  0  0  0  0  0  0
   10.5900  -18.2920   26.7304 N   0  0  0  0  0  0  0  0  0  0  0  0
    9.4381  -18.2195   25.8633 C   0  0  0  0  0  0  0  0  0  0  0  0
   10.1741  -18.4320   28.1386 O   0  0  0  0  0  0  0  0  0  0  0  0
    8.8291  -18.3665   28.4506 C   0  0  0  0  0  0  0  0  0  0  0  0
   13.3941  -17.5677   25.2257 C   0  0  0  0  0  0  0  0  0  0  0  0
   14.1241  -17.5994   24.0583 O   0  0  0  0  0  0  0  0  0  0  0  0
  1  2  1  0
  2  3  2  0
  4  2  1  0
  5  4  1  0
  5  6  1  0
  7  6  1  0
  7  8  1  0
  8  9  1  6
 10 15  1  0
 10  8  1  0
 11 10  2  0
 12 13  1  0
 14 13  1  6
 14 16  1  0
 14 15  1  0
 16 17  2  0
 18 19  1  0
 19 29  2  0
 19 20  1  0
 20 21  2  0
 21 22  1  0
 22 23  1  0
 24 23  1  6
 25 24  1  0
 25 16  1  0
 26 27  1  0
 26 24  1  0
 28 22  2  0
 29 28  1  0
 30 26  2  0
M  END
$$$$
