RSY.pdb
     RDKit          3D

 30 30  0  0  1  0  0  0  0  0999 V2000
   13.1065  -20.3415   16.4550 N   0  0  0  0  0  0  0  0  0  0  0  0
   14.2402  -19.5423   16.1492 C   0  0  0  0  0  0  0  0  0  0  0  0
   14.9823  -19.8049   15.1383 N   0  0  0  0  0  0  0  0  0  0  0  0
   14.5603  -18.4380   16.9696 N   0  0  0  0  0  0  0  0  0  0  0  0
   13.7349  -18.1382   18.1655 C   0  0  0  0  0  0  0  0  0  0  0  0
   12.3764  -17.7691   17.6924 C   0  0  0  0  0  0  0  0  0  0  0  0
   11.4534  -17.4442   18.8051 C   0  0  0  0  0  0  0  0  0  0  0  0
   10.0718  -17.0437   18.4542 C   0  0  2  0  0  0  0  0  0  0  0  0
    9.8846  -16.4686   17.1590 N   0  0  0  0  0  0  0  0  0  0  0  0
    9.5797  -16.1245   19.5368 C   0  0  0  0  0  0  0  0  0  0  0  0
   10.1304  -15.0221   19.7624 O   0  0  0  0  0  0  0  0  0  0  0  0
   15.8575  -19.3023   14.8974 O   0  0  0  0  0  0  0  0  0  0  0  0
    6.3542  -17.1786   21.7354 C   0  0  0  0  0  0  0  0  0  0  0  0
    6.4771  -15.8226   21.4182 C   0  0  1  0  0  0  0  0  0  0  0  0
    7.9754  -15.5409   21.3108 N   0  0  0  0  0  0  0  0  0  0  0  0
    8.4709  -16.5073   20.3201 C   0  0  0  0  0  0  0  0  0  0  0  0
    8.6415  -15.8131   22.6047 O   0  0  0  0  0  0  0  0  0  0  0  0
    9.4063  -16.8003   22.7150 O   0  0  0  0  0  0  0  0  0  0  0  0
   10.8076  -14.9373   31.1353 C   0  0  0  0  0  0  0  0  0  0  0  0
   10.2958  -14.7377   29.8436 C   0  0  0  0  0  0  0  0  0  0  0  0
   10.8477  -13.8052   28.9869 C   0  0  0  0  0  0  0  0  0  0  0  0
   10.3406  -13.6250   27.7411 C   0  0  0  0  0  0  0  0  0  0  0  0
    9.2645  -14.3711   27.3098 C   0  0  0  0  0  0  0  0  0  0  0  0
    8.6807  -14.1974   25.9643 C   0  0  2  0  0  0  0  0  0  0  0  0
    9.0942  -15.3056   24.9977 N   0  0  0  0  0  0  0  0  0  0  0  0
    8.4526  -14.9977   23.7417 C   0  0  0  0  0  0  0  0  0  0  0  0
    8.6876  -16.6399   25.4772 O   0  0  0  0  0  0  0  0  0  0  0  0
    9.6250  -17.4443   26.0977 C   0  0  0  0  0  0  0  0  0  0  0  0
    8.7086  -15.2967   28.1467 C   0  0  0  0  0  0  0  0  0  0  0  0
    9.2294  -15.4733   29.4093 O   0  0  0  0  0  0  0  0  0  0  0  0
  1  2  1  0
  2  3  2  0
  4  2  1  0
  5  4  1  0
  5  6  1  0
  7  6  1  0
  7  8  1  0
  8  9  1  6
 10 15  1  0
 10  8  1  0
 11 10  2  0
 12 13  1  0
 14 13  1  6
 14 16  1  0
 14 15  1  0
 16 17  2  0
 18 19  1  0
 19 29  2  0
 19 20  1  0
 20 21  2  0
 21 22  1  0
 22 23  1  0
 24 23  1  6
 25 24  1  0
 25 16  1  0
 26 27  1  0
 26 24  1  0
 28 22  2  0
 29 28  1  0
 30 26  2  0
M  END
$$$$
