RSY.pdb
     RDKit          3D

 30 30  0  0  1  0  0  0  0  0999 V2000
    9.3253  -12.9477   18.4725 N   0  0  0  0  0  0  0  0  0  0  0  0
    8.1219  -12.8474   17.7248 C   0  0  0  0  0  0  0  0  0  0  0  0
    7.1845  -12.0504   18.0826 N   0  0  0  0  0  0  0  0  0  0  0  0
    7.9493  -13.6369   16.5664 N   0  0  0  0  0  0  0  0  0  0  0  0
    8.9835  -14.6297   16.1843 C   0  0  0  0  0  0  0  0  0  0  0  0
    9.0517  -15.6458   17.2653 C   0  0  0  0  0  0  0  0  0  0  0  0
   10.4204  -15.8097   17.8088 C   0  0  0  0  0  0  0  0  0  0  0  0
   10.6296  -16.8583   18.8331 C   0  0  2  0  0  0  0  0  0  0  0  0
   10.3016  -18.1962   18.4514 N   0  0  0  0  0  0  0  0  0  0  0  0
    9.8774  -16.4414   20.0658 C   0  0  0  0  0  0  0  0  0  0  0  0
   10.0779  -15.3326   20.6134 O   0  0  0  0  0  0  0  0  0  0  0  0
    6.3117  -11.8819   17.5474 O   0  0  0  0  0  0  0  0  0  0  0  0
    7.6104  -19.0741   22.0736 C   0  0  0  0  0  0  0  0  0  0  0  0
    6.9876  -17.8339   21.9047 C   0  0  1  0  0  0  0  0  0  0  0  0
    8.1092  -16.8092   21.7390 N   0  0  0  0  0  0  0  0  0  0  0  0
    8.9212  -17.3157   20.6231 C   0  0  0  0  0  0  0  0  0  0  0  0
    8.9537  -16.7735   22.9545 O   0  0  0  0  0  0  0  0  0  0  0  0
    9.9720  -17.5014   23.0261 O   0  0  0  0  0  0  0  0  0  0  0  0
   11.2598  -14.6715   31.2728 C   0  0  0  0  0  0  0  0  0  0  0  0
   10.7473  -14.7049   29.9664 C   0  0  0  0  0  0  0  0  0  0  0  0
   11.3561  -15.4474   28.9733 C   0  0  0  0  0  0  0  0  0  0  0  0
   10.8473  -15.4687   27.7154 C   0  0  0  0  0  0  0  0  0  0  0  0
    9.7126  -14.7486   27.4079 C   0  0  0  0  0  0  0  0  0  0  0  0
    9.1345  -14.7411   26.0489 C   0  0  1  0  0  0  0  0  0  0  0  0
    9.4188  -16.0320   25.2833 N   0  0  0  0  0  0  0  0  0  0  0  0
    8.6609  -15.9427   24.0578 C   0  0  0  0  0  0  0  0  0  0  0  0
    9.0285  -17.2295   26.0510 O   0  0  0  0  0  0  0  0  0  0  0  0
   10.0077  -17.9618   26.6956 C   0  0  0  0  0  0  0  0  0  0  0  0
    9.1004  -14.0097   28.3803 C   0  0  0  0  0  0  0  0  0  0  0  0
    9.6233  -13.9936   29.6544 O   0  0  0  0  0  0  0  0  0  0  0  0
  1  2  1  0
  2  3  2  0
  4  2  1  0
  5  4  1  0
  5  6  1  0
  7  6  1  0
  7  8  1  0
  8  9  1  6
 10 15  1  0
 10  8  1  0
 11 10  2  0
 12 13  1  0
 14 13  1  6
 14 16  1  0
 14 15  1  0
 16 17  2  0
 18 19  1  0
 19 29  2  0
 19 20  1  0
 20 21  2  0
 21 22  1  0
 22 23  1  0
 24 23  1  6
 25 24  1  0
 25 16  1  0
 26 27  1  0
 26 24  1  0
 28 22  2  0
 29 28  1  0
 30 26  2  0
M  END
$$$$
