PLH.pdb
     RDKit          3D

 26 27  0  0  1  0  0  0  0  0999 V2000
   26.9160  -19.8271  -15.1654 N   0  0  0  0  0  0  0  0  0  0  0  0
   28.1365  -19.6725  -15.9694 C   0  0  0  0  0  0  0  0  0  0  0  0
   29.1591  -20.5797  -15.3571 C   0  0  0  0  0  0  0  0  0  0  0  0
   28.4135  -21.2780  -14.2278 C   0  0  0  0  0  0  0  0  0  0  0  0
   26.9922  -21.1997  -14.7788 C   0  0  1  0  0  0  0  0  0  0  0  0
   25.9922  -21.6046  -13.7847 C   0  0  0  0  0  0  0  0  0  0  0  0
   25.7510  -22.8274  -13.6320 O   0  0  0  0  0  0  0  0  0  0  0  0
   26.2361  -19.2852   -9.1132 C   0  0  0  0  0  0  0  0  0  0  0  0
   25.9682  -20.2834  -10.1752 C   0  0  1  0  0  0  0  0  0  0  0  0
   26.6110  -21.6366   -9.7977 C   0  0  0  0  0  0  0  0  0  0  0  0
   24.6079  -20.4650  -10.6904 C   0  0  0  0  0  0  0  0  0  0  0  0
   24.3050  -21.1395  -11.9576 C   0  0  2  0  0  0  0  0  0  0  0  0
   25.2884  -20.6795  -12.9915 N   0  0  0  0  0  0  0  0  0  0  0  0
   22.9468  -20.9075  -12.4734 C   0  0  0  0  0  0  0  0  0  0  0  0
   21.8965  -20.9081  -11.7826 O   0  0  0  0  0  0  0  0  0  0  0  0
   22.7617  -20.6538  -13.8917 N   0  0  0  0  0  0  0  0  0  0  0  0
   21.4214  -20.3887  -14.4144 C   0  0  1  0  0  0  0  0  0  0  0  0
   21.4828  -19.7534  -15.7731 C   0  0  0  0  0  0  0  0  0  0  0  0
   22.1776  -18.4526  -15.7200 C   0  0  0  0  0  0  0  0  0  0  0  0
   21.6515  -17.2178  -15.3627 C   0  0  0  0  0  0  0  0  0  0  0  0
   22.6354  -16.3336  -15.4591 N   0  0  0  0  0  0  0  0  0  0  0  0
   23.7585  -16.9275  -15.8562 C   0  0  0  0  0  0  0  0  0  0  0  0
   23.4646  -18.2181  -16.0112 N   0  0  0  0  0  0  0  0  0  0  0  0
   20.7081  -21.6899  -14.4270 C   0  0  0  0  0  0  0  0  0  0  0  0
   19.3420  -21.8072  -14.1452 O   0  0  0  0  0  0  0  0  0  0  0  0
   21.2933  -22.7854  -14.6948 O   0  0  0  0  0  0  0  0  0  0  0  0
  1  2  1  0
  3  2  1  0
  4  5  1  0
  4  3  1  0
  5  6  1  1
  5  1  1  0
  6  7  2  0
  9  8  1  1
 10  9  1  0
 11  9  1  0
 12 11  1  1
 13  6  1  0
 13 12  1  0
 14 12  1  0
 14 15  2  0
 16 14  1  0
 17 16  1  0
 17 24  1  0
 17 18  1  6
 19 18  1  0
 20 19  2  0
 21 22  1  0
 21 20  1  0
 22 23  2  0
 23 19  1  0
 24 25  1  0
 26 24  2  0
M  END
$$$$
