PLH.pdb
     RDKit          3D

 26 27  0  0  1  0  0  0  0  0999 V2000
   20.5605  -10.9456  -18.6101 N   0  0  0  0  0  0  0  0  0  0  0  0
   19.9636  -12.0103  -19.4287 C   0  0  0  0  0  0  0  0  0  0  0  0
   20.1811  -13.2878  -18.6777 C   0  0  0  0  0  0  0  0  0  0  0  0
   20.8638  -12.8535  -17.3876 C   0  0  0  0  0  0  0  0  0  0  0  0
   20.3269  -11.4282  -17.2865 C   0  0  1  0  0  0  0  0  0  0  0  0
   20.9998  -10.6586  -16.2344 C   0  0  0  0  0  0  0  0  0  0  0  0
   20.6659  -10.8475  -15.0388 O   0  0  0  0  0  0  0  0  0  0  0  0
   26.3094  -10.1901  -16.0055 C   0  0  0  0  0  0  0  0  0  0  0  0
   24.8864  -10.2085  -15.5925 C   0  0  1  0  0  0  0  0  0  0  0  0
   24.7369  -10.9743  -14.2590 C   0  0  0  0  0  0  0  0  0  0  0  0
   24.1043   -8.9687  -15.5855 C   0  0  0  0  0  0  0  0  0  0  0  0
   22.6491   -8.9299  -15.4025 C   0  0  2  0  0  0  0  0  0  0  0  0
   22.0069   -9.7143  -16.5069 N   0  0  0  0  0  0  0  0  0  0  0  0
   22.0624   -7.5807  -15.3897 C   0  0  0  0  0  0  0  0  0  0  0  0
   22.4524   -6.6248  -14.6725 O   0  0  0  0  0  0  0  0  0  0  0  0
   20.9383   -7.2891  -16.2624 N   0  0  0  0  0  0  0  0  0  0  0  0
   20.4948   -5.9065  -16.4398 C   0  0  1  0  0  0  0  0  0  0  0  0
   21.2310   -5.2387  -17.5648 C   0  0  0  0  0  0  0  0  0  0  0  0
   21.9441   -4.0361  -17.0928 C   0  0  0  0  0  0  0  0  0  0  0  0
   22.0558   -3.5661  -15.7905 C   0  0  0  0  0  0  0  0  0  0  0  0
   22.7844   -2.4589  -15.8382 N   0  0  0  0  0  0  0  0  0  0  0  0
   23.1455   -2.1921  -17.0912 C   0  0  0  0  0  0  0  0  0  0  0  0
   22.6265   -3.1613  -17.8445 N   0  0  0  0  0  0  0  0  0  0  0  0
   19.0300   -5.9594  -16.6712 C   0  0  0  0  0  0  0  0  0  0  0  0
   18.1898   -4.8600  -16.4592 O   0  0  0  0  0  0  0  0  0  0  0  0
   18.4417   -7.0095  -17.0777 O   0  0  0  0  0  0  0  0  0  0  0  0
  1  2  1  0
  3  2  1  0
  4  5  1  0
  4  3  1  0
  5  6  1  1
  5  1  1  0
  6  7  2  0
  9  8  1  1
 10  9  1  0
 11  9  1  0
 12 11  1  6
 13  6  1  0
 13 12  1  0
 14 12  1  0
 14 15  2  0
 16 14  1  0
 17 16  1  0
 17 24  1  0
 17 18  1  6
 19 18  1  0
 20 19  2  0
 21 22  1  0
 21 20  1  0
 22 23  2  0
 23 19  1  0
 24 25  1  0
 26 24  2  0
M  END
$$$$
