PLH.pdb
     RDKit          3D

 26 27  0  0  1  0  0  0  0  0999 V2000
   26.4262  -19.9321  -15.3256 N   0  0  0  0  0  0  0  0  0  0  0  0
   27.2219  -19.0138  -16.1524 C   0  0  0  0  0  0  0  0  0  0  0  0
   28.3299  -18.5151  -15.2766 C   0  0  0  0  0  0  0  0  0  0  0  0
   28.1323  -19.2572  -13.9617 C   0  0  0  0  0  0  0  0  0  0  0  0
   27.4250  -20.5060  -14.4816 C   0  0  1  0  0  0  0  0  0  0  0  0
   26.8943  -21.3331  -13.3924 C   0  0  0  0  0  0  0  0  0  0  0  0
   27.7010  -21.9231  -12.6322 O   0  0  0  0  0  0  0  0  0  0  0  0
   26.1913  -19.5401   -8.6525 C   0  0  0  0  0  0  0  0  0  0  0  0
   26.1500  -20.6787   -9.6001 C   0  0  1  0  0  0  0  0  0  0  0  0
   25.3111  -21.8295   -9.0012 C   0  0  0  0  0  0  0  0  0  0  0  0
   25.8161  -20.4535  -11.0096 C   0  0  0  0  0  0  0  0  0  0  0  0
   24.9399  -21.3379  -11.7858 C   0  0  2  0  0  0  0  0  0  0  0  0
   25.5157  -21.4952  -13.1610 N   0  0  0  0  0  0  0  0  0  0  0  0
   23.5496  -20.8743  -11.9152 C   0  0  0  0  0  0  0  0  0  0  0  0
   22.7613  -20.6633  -10.9590 O   0  0  0  0  0  0  0  0  0  0  0  0
   23.0052  -20.6292  -13.2395 N   0  0  0  0  0  0  0  0  0  0  0  0
   21.6289  -20.1553  -13.3839 C   0  0  1  0  0  0  0  0  0  0  0  0
   21.5736  -18.8728  -14.1622 C   0  0  0  0  0  0  0  0  0  0  0  0
   22.3254  -18.9865  -15.4269 C   0  0  0  0  0  0  0  0  0  0  0  0
   23.0989  -20.0529  -15.8672 C   0  0  0  0  0  0  0  0  0  0  0  0
   23.5841  -19.7167  -17.0549 N   0  0  0  0  0  0  0  0  0  0  0  0
   23.1683  -18.5005  -17.4010 C   0  0  0  0  0  0  0  0  0  0  0  0
   22.4024  -18.0680  -16.3998 N   0  0  0  0  0  0  0  0  0  0  0  0
   20.8716  -21.2506  -14.0386 C   0  0  0  0  0  0  0  0  0  0  0  0
   21.4704  -22.4508  -14.4392 O   0  0  0  0  0  0  0  0  0  0  0  0
   19.6267  -21.1695  -14.2793 O   0  0  0  0  0  0  0  0  0  0  0  0
  1  2  1  0
  3  2  1  0
  4  5  1  0
  4  3  1  0
  5  6  1  1
  5  1  1  0
  6  7  2  0
  9  8  1  1
 10  9  1  0
 11  9  1  0
 12 11  1  1
 13  6  1  0
 13 12  1  0
 14 12  1  0
 14 15  2  0
 16 14  1  0
 17 16  1  0
 17 24  1  0
 17 18  1  6
 19 18  1  0
 20 19  2  0
 21 22  1  0
 21 20  1  0
 22 23  2  0
 23 19  1  0
 24 25  1  0
 26 24  2  0
M  END
$$$$
