PLH.pdb
     RDKit          3D

 26 27  0  0  1  0  0  0  0  0999 V2000
   25.6783  -16.6765  -15.2019 N   0  0  0  0  0  0  0  0  0  0  0  0
   26.3024  -15.4637  -15.7491 C   0  0  0  0  0  0  0  0  0  0  0  0
   27.5843  -15.9035  -16.3868 C   0  0  0  0  0  0  0  0  0  0  0  0
   27.5893  -17.4166  -16.2153 C   0  0  0  0  0  0  0  0  0  0  0  0
   26.0851  -17.6668  -16.1470 C   0  0  1  0  0  0  0  0  0  0  0  0
   25.7725  -19.0446  -15.7519 C   0  0  0  0  0  0  0  0  0  0  0  0
   25.9301  -19.9654  -16.5909 O   0  0  0  0  0  0  0  0  0  0  0  0
   28.0879  -20.6547  -11.6090 C   0  0  0  0  0  0  0  0  0  0  0  0
   27.3618  -20.6048  -12.8998 C   0  0  1  0  0  0  0  0  0  0  0  0
   28.2734  -21.1216  -14.0350 C   0  0  0  0  0  0  0  0  0  0  0  0
   26.0097  -21.1608  -13.0074 C   0  0  0  0  0  0  0  0  0  0  0  0
   25.0732  -20.8113  -14.0813 C   0  0  2  0  0  0  0  0  0  0  0  0
   25.3020  -19.3813  -14.4691 N   0  0  0  0  0  0  0  0  0  0  0  0
   23.6514  -20.9781  -13.7417 C   0  0  0  0  0  0  0  0  0  0  0  0
   23.1241  -22.0381  -13.3191 O   0  0  0  0  0  0  0  0  0  0  0  0
   22.7498  -19.8493  -13.8940 N   0  0  0  0  0  0  0  0  0  0  0  0
   21.3491  -19.9777  -13.4920 C   0  0  1  0  0  0  0  0  0  0  0  0
   21.0523  -19.1445  -12.2791 C   0  0  0  0  0  0  0  0  0  0  0  0
   21.4758  -19.8338  -11.0449 C   0  0  0  0  0  0  0  0  0  0  0  0
   21.4551  -21.1968  -10.7783 C   0  0  0  0  0  0  0  0  0  0  0  0
   21.9254  -21.3595   -9.5489 N   0  0  0  0  0  0  0  0  0  0  0  0
   22.2456  -20.1840   -9.0130 C   0  0  0  0  0  0  0  0  0  0  0  0
   21.9664  -19.2637   -9.9357 N   0  0  0  0  0  0  0  0  0  0  0  0
   20.5346  -19.5812  -14.6673 C   0  0  0  0  0  0  0  0  0  0  0  0
   19.1391  -19.6884  -14.6922 O   0  0  0  0  0  0  0  0  0  0  0  0
   21.0528  -19.1176  -15.7307 O   0  0  0  0  0  0  0  0  0  0  0  0
  1  2  1  0
  3  2  1  0
  4  5  1  0
  4  3  1  0
  5  6  1  1
  5  1  1  0
  6  7  2  0
  9  8  1  1
 10  9  1  0
 11  9  1  0
 12 11  1  1
 13  6  1  0
 13 12  1  0
 14 12  1  0
 14 15  2  0
 16 14  1  0
 17 16  1  0
 17 24  1  0
 17 18  1  1
 19 18  1  0
 20 19  2  0
 21 22  1  0
 21 20  1  0
 22 23  2  0
 23 19  1  0
 24 25  1  0
 26 24  2  0
M  END
$$$$
