PLH.pdb
     RDKit          3D

 26 27  0  0  1  0  0  0  0  0999 V2000
   31.2291  -21.3167   -9.8812 N   0  0  0  0  0  0  0  0  0  0  0  0
   32.5042  -21.8942  -10.3292 C   0  0  0  0  0  0  0  0  0  0  0  0
   32.9766  -22.7796   -9.2173 C   0  0  0  0  0  0  0  0  0  0  0  0
   31.8657  -22.7032   -8.1786 C   0  0  0  0  0  0  0  0  0  0  0  0
   30.6880  -22.3778   -9.0934 C   0  0  1  0  0  0  0  0  0  0  0  0
   29.4848  -22.0161   -8.3362 C   0  0  0  0  0  0  0  0  0  0  0  0
   28.8543  -22.9197   -7.7339 O   0  0  0  0  0  0  0  0  0  0  0  0
   29.4719  -18.1511   -4.7324 C   0  0  0  0  0  0  0  0  0  0  0  0
   29.0702  -19.3636   -5.4835 C   0  0  1  0  0  0  0  0  0  0  0  0
   28.7369  -20.5053   -4.4974 C   0  0  0  0  0  0  0  0  0  0  0  0
   28.0693  -19.2723   -6.5507 C   0  0  0  0  0  0  0  0  0  0  0  0
   27.7662  -20.3721   -7.4732 C   0  0  2  0  0  0  0  0  0  0  0  0
   29.0039  -20.6961   -8.2546 N   0  0  0  0  0  0  0  0  0  0  0  0
   26.6756  -20.1010   -8.4229 C   0  0  0  0  0  0  0  0  0  0  0  0
   25.5621  -19.5980   -8.1273 O   0  0  0  0  0  0  0  0  0  0  0  0
   26.8612  -20.4274   -9.8262 N   0  0  0  0  0  0  0  0  0  0  0  0
   25.8477  -20.0335  -10.8047 C   0  0  1  0  0  0  0  0  0  0  0  0
   26.4020  -20.0512  -12.1997 C   0  0  0  0  0  0  0  0  0  0  0  0
   25.3477  -19.7716  -13.1935 C   0  0  0  0  0  0  0  0  0  0  0  0
   24.0122  -19.4698  -12.9594 C   0  0  0  0  0  0  0  0  0  0  0  0
   23.4399  -19.2954  -14.1431 N   0  0  0  0  0  0  0  0  0  0  0  0
   24.3275  -19.4673  -15.1199 C   0  0  0  0  0  0  0  0  0  0  0  0
   25.4853  -19.7569  -14.5266 N   0  0  0  0  0  0  0  0  0  0  0  0
   24.7092  -20.9696  -10.6336 C   0  0  0  0  0  0  0  0  0  0  0  0
   24.8828  -22.3439  -10.4314 O   0  0  0  0  0  0  0  0  0  0  0  0
   23.4991  -20.5833  -10.6600 O   0  0  0  0  0  0  0  0  0  0  0  0
  1  2  1  0
  3  2  1  0
  4  5  1  0
  4  3  1  0
  5  6  1  1
  5  1  1  0
  6  7  2  0
  9  8  1  1
 10  9  1  0
 11  9  1  0
 12 11  1  6
 13  6  1  0
 13 12  1  0
 14 12  1  0
 14 15  2  0
 16 14  1  0
 17 16  1  0
 17 24  1  0
 17 18  1  6
 19 18  1  0
 20 19  2  0
 21 22  1  0
 21 20  1  0
 22 23  2  0
 23 19  1  0
 24 25  1  0
 26 24  2  0
M  END
$$$$
