HTL.pdb
     RDKit          3D

 26 26  0  0  1  0  0  0  0  0999 V2000
   19.1864  -11.5869  -18.5619 N   0  0  0  0  0  0  0  0  0  0  0  0
   18.4153  -10.6198  -17.8647 C   0  0  1  0  0  0  0  0  0  0  0  0
   17.7065  -11.2872  -16.6909 C   0  0  0  0  0  0  0  0  0  0  0  0
   16.7702  -12.3052  -17.2168 C   0  0  0  0  0  0  0  0  0  0  0  0
   16.9107  -13.6482  -17.3929 C   0  0  0  0  0  0  0  0  0  0  0  0
   15.7717  -14.1729  -17.9170 N   0  0  0  0  0  0  0  0  0  0  0  0
   14.9183  -13.1526  -18.0685 C   0  0  0  0  0  0  0  0  0  0  0  0
   15.5068  -12.0014  -17.6472 N   0  0  0  0  0  0  0  0  0  0  0  0
   19.0643   -9.3659  -17.5104 C   0  0  0  0  0  0  0  0  0  0  0  0
   20.3181   -9.4093  -17.2227 O   0  0  0  0  0  0  0  0  0  0  0  0
   19.4522   -4.4586  -17.1931 C   0  0  0  0  0  0  0  0  0  0  0  0
   18.5982   -5.6510  -17.5051 C   0  0  1  0  0  0  0  0  0  0  0  0
   18.3788   -5.7689  -18.8813 O   0  0  0  0  0  0  0  0  0  0  0  0
   19.2865   -6.9265  -17.0423 C   0  0  2  0  0  0  0  0  0  0  0  0
   18.4827   -8.0925  -17.4428 N   0  0  0  0  0  0  0  0  0  0  0  0
   19.4678   -6.9487  -15.5758 C   0  0  0  0  0  0  0  0  0  0  0  0
   18.7988   -7.7625  -14.8491 O   0  0  0  0  0  0  0  0  0  0  0  0
   23.1237   -9.1491  -12.3271 C   0  0  0  0  0  0  0  0  0  0  0  0
   21.7182   -8.6398  -12.7156 C   0  0  1  0  0  0  0  0  0  0  0  0
   21.3055   -7.7425  -11.5548 C   0  0  0  0  0  0  0  0  0  0  0  0
   21.8153   -7.7965  -13.9612 C   0  0  0  0  0  0  0  0  0  0  0  0
   21.1626   -6.4358  -13.7787 C   0  0  2  0  0  0  0  0  0  0  0  0
   20.3855   -6.0707  -14.9496 N   0  0  0  0  0  0  0  0  0  0  0  0
   22.0948   -5.3738  -13.3809 C   0  0  0  0  0  0  0  0  0  0  0  0
   22.7617   -4.5157  -14.2285 O   0  0  0  0  0  0  0  0  0  0  0  0
   22.3253   -5.2056  -12.1435 O   0  0  0  0  0  0  0  0  0  0  0  0
  2  1  1  1
  3  2  1  0
  4  3  1  0
  5  4  2  0
  6  7  1  0
  6  5  1  0
  7  8  2  0
  8  4  1  0
  9  2  1  0
  9 15  1  0
 10  9  2  0
 12 11  1  6
 13 12  1  0
 14 12  1  0
 14 15  1  1
 16 17  2  0
 16 14  1  0
 19 18  1  1
 19 21  1  0
 20 19  1  0
 22 21  1  6
 22 24  1  0
 22 23  1  0
 23 16  1  0
 24 25  1  0
 26 24  2  0
M  END
$$$$
