HTL.pdb
     RDKit          3D

 26 26  0  0  1  0  0  0  0  0999 V2000
   27.7223  -27.0163  -18.7793 N   0  0  0  0  0  0  0  0  0  0  0  0
   27.3396  -27.6039  -17.5446 C   0  0  1  0  0  0  0  0  0  0  0  0
   26.2059  -26.7922  -16.9269 C   0  0  0  0  0  0  0  0  0  0  0  0
   26.6903  -25.4181  -16.6683 C   0  0  0  0  0  0  0  0  0  0  0  0
   27.9134  -24.8482  -16.8516 C   0  0  0  0  0  0  0  0  0  0  0  0
   27.8858  -23.5462  -16.4622 N   0  0  0  0  0  0  0  0  0  0  0  0
   26.6406  -23.3043  -16.0342 C   0  0  0  0  0  0  0  0  0  0  0  0
   25.8923  -24.4337  -16.1508 N   0  0  0  0  0  0  0  0  0  0  0  0
   27.0994  -29.0394  -17.5255 C   0  0  0  0  0  0  0  0  0  0  0  0
   26.4220  -29.5391  -18.4991 O   0  0  0  0  0  0  0  0  0  0  0  0
   28.2773  -33.6572  -16.5595 C   0  0  0  0  0  0  0  0  0  0  0  0
   28.5348  -32.1854  -16.4334 C   0  0  1  0  0  0  0  0  0  0  0  0
   29.5183  -31.7658  -17.3348 O   0  0  0  0  0  0  0  0  0  0  0  0
   27.2682  -31.4013  -16.7430 C   0  0  2  0  0  0  0  0  0  0  0  0
   27.5226  -29.9634  -16.5602 N   0  0  0  0  0  0  0  0  0  0  0  0
   26.1474  -31.8059  -15.8689 C   0  0  0  0  0  0  0  0  0  0  0  0
   26.2631  -31.7541  -14.5954 O   0  0  0  0  0  0  0  0  0  0  0  0
   21.8387  -33.6486  -14.1998 C   0  0  0  0  0  0  0  0  0  0  0  0
   21.4618  -33.5952  -15.6968 C   0  0  1  0  0  0  0  0  0  0  0  0
   20.4485  -32.4609  -15.7928 C   0  0  0  0  0  0  0  0  0  0  0  0
   22.6761  -33.2220  -16.5081 C   0  0  0  0  0  0  0  0  0  0  0  0
   23.8392  -32.7953  -15.6271 C   0  0  2  0  0  0  0  0  0  0  0  0
   24.9258  -32.2567  -16.4255 N   0  0  0  0  0  0  0  0  0  0  0  0
   24.2986  -33.8349  -14.6980 C   0  0  0  0  0  0  0  0  0  0  0  0
   25.1660  -34.8647  -14.9923 O   0  0  0  0  0  0  0  0  0  0  0  0
   23.8740  -33.8053  -13.5016 O   0  0  0  0  0  0  0  0  0  0  0  0
  2  1  1  6
  3  2  1  0
  4  3  1  0
  5  4  2  0
  6  7  1  0
  6  5  1  0
  7  8  2  0
  8  4  1  0
  9  2  1  0
  9 15  1  0
 10  9  2  0
 12 11  1  6
 13 12  1  0
 14 12  1  0
 14 15  1  1
 16 17  2  0
 16 14  1  0
 19 18  1  1
 19 21  1  0
 20 19  1  0
 22 21  1  6
 22 24  1  0
 22 23  1  0
 23 16  1  0
 24 25  1  0
 26 24  2  0
M  END
$$$$
