HTL.pdb
     RDKit          3D

 26 26  0  0  1  0  0  0  0  0999 V2000
   21.9535  -14.9026  -16.9229 N   0  0  0  0  0  0  0  0  0  0  0  0
   22.5200  -13.6613  -17.3159 C   0  0  1  0  0  0  0  0  0  0  0  0
   22.6866  -13.6376  -18.8315 C   0  0  0  0  0  0  0  0  0  0  0  0
   23.7308  -14.6149  -19.2111 C   0  0  0  0  0  0  0  0  0  0  0  0
   25.0886  -14.5141  -19.2347 C   0  0  0  0  0  0  0  0  0  0  0  0
   25.6368  -15.6814  -19.6640 N   0  0  0  0  0  0  0  0  0  0  0  0
   24.6164  -16.5126  -19.9093 C   0  0  0  0  0  0  0  0  0  0  0  0
   23.4420  -15.8824  -19.6397 N   0  0  0  0  0  0  0  0  0  0  0  0
   21.9223  -12.4465  -16.7812 C   0  0  0  0  0  0  0  0  0  0  0  0
   20.6386  -12.4060  -16.6973 O   0  0  0  0  0  0  0  0  0  0  0  0
   21.4640   -8.6564  -13.8862 C   0  0  0  0  0  0  0  0  0  0  0  0
   22.1905   -9.8674  -14.3902 C   0  0  1  0  0  0  0  0  0  0  0  0
   21.8515  -11.0044  -13.6497 O   0  0  0  0  0  0  0  0  0  0  0  0
   21.8170  -10.1395  -15.8399 C   0  0  2  0  0  0  0  0  0  0  0  0
   22.5836  -11.2932  -16.3373 N   0  0  0  0  0  0  0  0  0  0  0  0
   22.0912   -8.9721  -16.7035 C   0  0  0  0  0  0  0  0  0  0  0  0
   23.2896   -8.6842  -17.0484 O   0  0  0  0  0  0  0  0  0  0  0  0
   20.8321   -5.8650  -20.8993 C   0  0  0  0  0  0  0  0  0  0  0  0
   20.1329   -5.3957  -19.6043 C   0  0  1  0  0  0  0  0  0  0  0  0
   18.7640   -4.9108  -20.0666 C   0  0  0  0  0  0  0  0  0  0  0  0
   19.9377   -6.5728  -18.6833 C   0  0  0  0  0  0  0  0  0  0  0  0
   21.2370   -6.9940  -18.0159 C   0  0  2  0  0  0  0  0  0  0  0  0
   21.0326   -8.1526  -17.1651 N   0  0  0  0  0  0  0  0  0  0  0  0
   21.9280   -5.9065  -17.3123 C   0  0  0  0  0  0  0  0  0  0  0  0
   22.9734   -5.1540  -17.8024 O   0  0  0  0  0  0  0  0  0  0  0  0
   21.5447   -5.6076  -16.1391 O   0  0  0  0  0  0  0  0  0  0  0  0
  2  1  1  6
  3  2  1  0
  4  3  1  0
  5  4  2  0
  6  7  1  0
  6  5  1  0
  7  8  2  0
  8  4  1  0
  9  2  1  0
  9 15  1  0
 10  9  2  0
 12 11  1  1
 13 12  1  0
 14 12  1  0
 14 15  1  6
 16 17  2  0
 16 14  1  0
 19 18  1  6
 19 21  1  0
 20 19  1  0
 22 21  1  1
 22 24  1  0
 22 23  1  0
 23 16  1  0
 24 25  1  0
 26 24  2  0
M  END
$$$$
