HTL.pdb
     RDKit          3D

 26 26  0  0  1  0  0  0  0  0999 V2000
   15.2160  -13.4348  -18.6098 N   0  0  0  0  0  0  0  0  0  0  0  0
   16.1847  -13.2161  -17.5950 C   0  0  1  0  0  0  0  0  0  0  0  0
   16.7376  -14.5573  -17.1247 C   0  0  0  0  0  0  0  0  0  0  0  0
   15.6305  -15.3535  -16.5502 C   0  0  0  0  0  0  0  0  0  0  0  0
   15.0388  -15.3142  -15.3243 C   0  0  0  0  0  0  0  0  0  0  0  0
   14.0558  -16.2499  -15.2493 N   0  0  0  0  0  0  0  0  0  0  0  0
   14.0354  -16.8748  -16.4331 C   0  0  0  0  0  0  0  0  0  0  0  0
   14.9891  -16.3438  -17.2440 N   0  0  0  0  0  0  0  0  0  0  0  0
   17.2176  -12.2227  -17.8500 C   0  0  0  0  0  0  0  0  0  0  0  0
   17.6779  -12.1421  -19.0492 O   0  0  0  0  0  0  0  0  0  0  0  0
   17.1795   -9.3412  -19.0420 C   0  0  0  0  0  0  0  0  0  0  0  0
   18.0017   -9.0570  -17.8207 C   0  0  1  0  0  0  0  0  0  0  0  0
   17.1950   -8.6575  -16.7504 O   0  0  0  0  0  0  0  0  0  0  0  0
   18.7484  -10.3094  -17.3860 C   0  0  2  0  0  0  0  0  0  0  0  0
   17.7841  -11.3253  -16.9344 N   0  0  0  0  0  0  0  0  0  0  0  0
   19.6977  -10.0269  -16.2893 C   0  0  0  0  0  0  0  0  0  0  0  0
   19.3057  -10.0323  -15.0709 O   0  0  0  0  0  0  0  0  0  0  0  0
   24.2134  -10.5019  -13.5558 C   0  0  0  0  0  0  0  0  0  0  0  0
   24.4229   -9.6517  -14.8283 C   0  0  1  0  0  0  0  0  0  0  0  0
   25.7918  -10.0760  -15.3469 C   0  0  0  0  0  0  0  0  0  0  0  0
   23.3855  -10.0221  -15.8571 C   0  0  0  0  0  0  0  0  0  0  0  0
   22.0279   -9.4167  -15.5389 C   0  0  2  0  0  0  0  0  0  0  0  0
   21.0576   -9.7465  -16.5674 N   0  0  0  0  0  0  0  0  0  0  0  0
   22.0665   -7.9765  -15.2569 C   0  0  0  0  0  0  0  0  0  0  0  0
   22.1253   -7.3919  -14.0102 O   0  0  0  0  0  0  0  0  0  0  0  0
   22.0474   -7.1691  -16.2368 O   0  0  0  0  0  0  0  0  0  0  0  0
  2  1  1  6
  3  2  1  0
  4  3  1  0
  5  4  2  0
  6  7  1  0
  6  5  1  0
  7  8  2  0
  8  4  1  0
  9  2  1  0
  9 15  1  0
 10  9  2  0
 12 11  1  6
 13 12  1  0
 14 12  1  0
 14 15  1  1
 16 17  2  0
 16 14  1  0
 19 18  1  1
 19 21  1  0
 20 19  1  0
 22 21  1  6
 22 24  1  0
 22 23  1  0
 23 16  1  0
 24 25  1  0
 26 24  2  0
M  END
$$$$
