HTL.pdb
     RDKit          3D

 26 26  0  0  1  0  0  0  0  0999 V2000
   15.6882  -12.0483  -16.5201 N   0  0  0  0  0  0  0  0  0  0  0  0
   16.9058  -11.6168  -15.9306 C   0  0  1  0  0  0  0  0  0  0  0  0
   18.0020  -12.6337  -16.2299 C   0  0  0  0  0  0  0  0  0  0  0  0
   17.6208  -13.9337  -15.6346 C   0  0  0  0  0  0  0  0  0  0  0  0
   16.9050  -14.2330  -14.5155 C   0  0  0  0  0  0  0  0  0  0  0  0
   16.8148  -15.5808  -14.3646 N   0  0  0  0  0  0  0  0  0  0  0  0
   17.4774  -16.1233  -15.3936 C   0  0  0  0  0  0  0  0  0  0  0  0
   17.9786  -15.1358  -16.1829 N   0  0  0  0  0  0  0  0  0  0  0  0
   17.3168  -10.2395  -16.1609 C   0  0  0  0  0  0  0  0  0  0  0  0
   17.6876   -9.9239  -17.3523 O   0  0  0  0  0  0  0  0  0  0  0  0
   15.3761   -7.1648  -16.0758 C   0  0  0  0  0  0  0  0  0  0  0  0
   16.6100   -6.8669  -15.2776 C   0  0  1  0  0  0  0  0  0  0  0  0
   16.3724   -7.0126  -13.9071 O   0  0  0  0  0  0  0  0  0  0  0  0
   17.7247   -7.8324  -15.6521 C   0  0  2  0  0  0  0  0  0  0  0  0
   17.3595   -9.1937  -15.2286 N   0  0  0  0  0  0  0  0  0  0  0  0
   19.0066   -7.4598  -15.0183 C   0  0  0  0  0  0  0  0  0  0  0  0
   19.3642   -7.9913  -13.9103 O   0  0  0  0  0  0  0  0  0  0  0  0
   24.7582   -6.6832  -16.2438 C   0  0  0  0  0  0  0  0  0  0  0  0
   23.6164   -6.0395  -15.4265 C   0  0  1  0  0  0  0  0  0  0  0  0
   23.7504   -4.5460  -15.6985 C   0  0  0  0  0  0  0  0  0  0  0  0
   22.2880   -6.5066  -15.9641 C   0  0  0  0  0  0  0  0  0  0  0  0
   21.1354   -6.1062  -15.0573 C   0  0  2  0  0  0  0  0  0  0  0  0
   19.8619   -6.5091  -15.6266 N   0  0  0  0  0  0  0  0  0  0  0  0
   21.1439   -4.6906  -14.6686 C   0  0  0  0  0  0  0  0  0  0  0  0
   21.8483   -4.1378  -13.6209 O   0  0  0  0  0  0  0  0  0  0  0  0
   20.4464   -3.8745  -15.3469 O   0  0  0  0  0  0  0  0  0  0  0  0
  2  1  1  6
  3  2  1  0
  4  3  1  0
  5  4  2  0
  6  7  1  0
  6  5  1  0
  7  8  2  0
  8  4  1  0
  9  2  1  0
  9 15  1  0
 10  9  2  0
 12 11  1  6
 13 12  1  0
 14 12  1  0
 14 15  1  1
 16 17  2  0
 16 14  1  0
 19 18  1  6
 19 21  1  0
 20 19  1  0
 22 21  1  6
 22 24  1  0
 22 23  1  0
 23 16  1  0
 24 25  1  0
 26 24  2  0
M  END
$$$$
