HTL.pdb
     RDKit          3D

 26 26  0  0  1  0  0  0  0  0999 V2000
   27.7609  -23.0493  -17.9842 N   0  0  0  0  0  0  0  0  0  0  0  0
   27.1804  -23.3698  -16.7286 C   0  0  1  0  0  0  0  0  0  0  0  0
   27.8236  -24.6401  -16.1824 C   0  0  0  0  0  0  0  0  0  0  0  0
   27.2880  -25.8022  -16.9255 C   0  0  0  0  0  0  0  0  0  0  0  0
   27.8596  -26.6108  -17.8603 C   0  0  0  0  0  0  0  0  0  0  0  0
   26.9704  -27.5537  -18.2697 N   0  0  0  0  0  0  0  0  0  0  0  0
   25.8402  -27.3314  -17.5876 C   0  0  0  0  0  0  0  0  0  0  0  0
   26.0108  -26.2659  -16.7600 N   0  0  0  0  0  0  0  0  0  0  0  0
   27.0751  -22.3051  -15.7417 C   0  0  0  0  0  0  0  0  0  0  0  0
   28.0629  -21.4854  -15.6478 O   0  0  0  0  0  0  0  0  0  0  0  0
   25.7837  -19.2970  -15.9137 C   0  0  0  0  0  0  0  0  0  0  0  0
   25.1578  -19.7761  -14.6381 C   0  0  1  0  0  0  0  0  0  0  0  0
   23.8932  -20.3260  -14.8715 O   0  0  0  0  0  0  0  0  0  0  0  0
   26.0169  -20.8609  -14.0056 C   0  0  2  0  0  0  0  0  0  0  0  0
   26.0110  -22.0563  -14.8640 N   0  0  0  0  0  0  0  0  0  0  0  0
   25.5270  -21.2321  -12.6616 C   0  0  0  0  0  0  0  0  0  0  0  0
   24.7725  -22.2535  -12.5025 O   0  0  0  0  0  0  0  0  0  0  0  0
   26.4858  -21.1795   -7.1191 C   0  0  0  0  0  0  0  0  0  0  0  0
   25.5752  -20.1127   -7.7662 C   0  0  1  0  0  0  0  0  0  0  0  0
   25.7911  -18.8647   -6.9184 C   0  0  0  0  0  0  0  0  0  0  0  0
   26.0519  -19.8276   -9.1674 C   0  0  0  0  0  0  0  0  0  0  0  0
   25.4310  -20.7736  -10.1826 C   0  0  2  0  0  0  0  0  0  0  0  0
   25.8848  -20.4645  -11.5267 N   0  0  0  0  0  0  0  0  0  0  0  0
   23.9680  -20.8631  -10.1001 C   0  0  0  0  0  0  0  0  0  0  0  0
   23.2480  -21.7981   -9.3883 O   0  0  0  0  0  0  0  0  0  0  0  0
   23.2746  -20.0082  -10.7333 O   0  0  0  0  0  0  0  0  0  0  0  0
  2  1  1  6
  3  2  1  0
  4  3  1  0
  5  4  2  0
  6  7  1  0
  6  5  1  0
  7  8  2  0
  8  4  1  0
  9  2  1  0
  9 15  1  0
 10  9  2  0
 12 11  1  6
 13 12  1  0
 14 12  1  0
 14 15  1  6
 16 17  2  0
 16 14  1  0
 19 18  1  1
 19 21  1  0
 20 19  1  0
 22 21  1  1
 22 24  1  0
 22 23  1  0
 23 16  1  0
 24 25  1  0
 26 24  2  0
M  END
$$$$
