HTL.pdb
     RDKit          3D

 26 26  0  0  1  0  0  0  0  0999 V2000
   16.4677  -13.9976  -18.4603 N   0  0  0  0  0  0  0  0  0  0  0  0
   17.4086  -13.5983  -17.4748 C   0  0  1  0  0  0  0  0  0  0  0  0
   18.4146  -14.7220  -17.2498 C   0  0  0  0  0  0  0  0  0  0  0  0
   17.6903  -15.9212  -16.7737 C   0  0  0  0  0  0  0  0  0  0  0  0
   17.0085  -16.1585  -15.6190 C   0  0  0  0  0  0  0  0  0  0  0  0
   16.5083  -17.4223  -15.6224 N   0  0  0  0  0  0  0  0  0  0  0  0
   16.8804  -17.9748  -16.7836 C   0  0  0  0  0  0  0  0  0  0  0  0
   17.6037  -17.0760  -17.5035 N   0  0  0  0  0  0  0  0  0  0  0  0
   18.0280  -12.2894  -17.6232 C   0  0  0  0  0  0  0  0  0  0  0  0
   18.7810  -12.1042  -18.6505 O   0  0  0  0  0  0  0  0  0  0  0  0
   16.6975   -9.3386  -18.7357 C   0  0  0  0  0  0  0  0  0  0  0  0
   17.4071   -8.9004  -17.4896 C   0  0  1  0  0  0  0  0  0  0  0  0
   16.5289   -8.8405  -16.4028 O   0  0  0  0  0  0  0  0  0  0  0  0
   18.5057   -9.8911  -17.1338 C   0  0  2  0  0  0  0  0  0  0  0  0
   17.9037  -11.1840  -16.7705 N   0  0  0  0  0  0  0  0  0  0  0  0
   19.3303   -9.4111  -16.0053 C   0  0  0  0  0  0  0  0  0  0  0  0
   18.9541   -9.6007  -14.7968 O   0  0  0  0  0  0  0  0  0  0  0  0
   24.4655  -10.2623  -15.0696 C   0  0  0  0  0  0  0  0  0  0  0  0
   22.9731   -9.9006  -14.9026 C   0  0  1  0  0  0  0  0  0  0  0  0
   22.6990  -10.0971  -13.4163 C   0  0  0  0  0  0  0  0  0  0  0  0
   22.7675   -8.4458  -15.2389 C   0  0  0  0  0  0  0  0  0  0  0  0
   21.2989   -8.0550  -15.1985 C   0  0  2  0  0  0  0  0  0  0  0  0
   20.5514   -8.7341  -16.2417 N   0  0  0  0  0  0  0  0  0  0  0  0
   21.0652   -6.6058  -15.2052 C   0  0  0  0  0  0  0  0  0  0  0  0
   20.4213   -5.8891  -16.1907 O   0  0  0  0  0  0  0  0  0  0  0  0
   21.4835   -5.9226  -14.2199 O   0  0  0  0  0  0  0  0  0  0  0  0
  2  1  1  6
  3  2  1  0
  4  3  1  0
  5  4  2  0
  6  7  1  0
  6  5  1  0
  7  8  2  0
  8  4  1  0
  9  2  1  0
  9 15  1  0
 10  9  2  0
 12 11  1  6
 13 12  1  0
 14 12  1  0
 14 15  1  1
 16 17  2  0
 16 14  1  0
 19 18  1  1
 19 21  1  0
 20 19  1  0
 22 21  1  6
 22 24  1  0
 22 23  1  0
 23 16  1  0
 24 25  1  0
 26 24  2  0
M  END
$$$$
