HTL.pdb
     RDKit          3D

 26 26  0  0  1  0  0  0  0  0999 V2000
   16.1524  -14.5134  -17.7347 N   0  0  0  0  0  0  0  0  0  0  0  0
   16.9583  -13.9901  -16.6893 C   0  0  1  0  0  0  0  0  0  0  0  0
   17.7715  -15.1181  -16.0633 C   0  0  0  0  0  0  0  0  0  0  0  0
   16.8409  -16.1002  -15.4643 C   0  0  0  0  0  0  0  0  0  0  0  0
   16.5865  -17.4013  -15.7753 C   0  0  0  0  0  0  0  0  0  0  0  0
   15.6367  -17.9041  -14.9432 N   0  0  0  0  0  0  0  0  0  0  0  0
   15.2976  -16.9121  -14.1107 C   0  0  0  0  0  0  0  0  0  0  0  0
   16.0206  -15.8000  -14.4104 N   0  0  0  0  0  0  0  0  0  0  0  0
   17.7458  -12.7997  -16.9748 C   0  0  0  0  0  0  0  0  0  0  0  0
   18.6043  -12.8733  -17.9308 O   0  0  0  0  0  0  0  0  0  0  0  0
   16.9155   -9.8115  -18.5895 C   0  0  0  0  0  0  0  0  0  0  0  0
   17.6038   -9.3376  -17.3446 C   0  0  1  0  0  0  0  0  0  0  0  0
   16.6781   -9.0160  -16.3468 O   0  0  0  0  0  0  0  0  0  0  0  0
   18.5064  -10.4315  -16.7935 C   0  0  2  0  0  0  0  0  0  0  0  0
   17.6840  -11.5589  -16.3258 N   0  0  0  0  0  0  0  0  0  0  0  0
   19.3349   -9.9432  -15.6715 C   0  0  0  0  0  0  0  0  0  0  0  0
   18.9312  -10.0639  -14.4630 O   0  0  0  0  0  0  0  0  0  0  0  0
   24.7597  -10.5474  -16.0512 C   0  0  0  0  0  0  0  0  0  0  0  0
   23.2881  -10.4718  -15.5882 C   0  0  1  0  0  0  0  0  0  0  0  0
   23.2547  -11.2798  -14.2964 C   0  0  0  0  0  0  0  0  0  0  0  0
   22.9345   -9.0421  -15.2676 C   0  0  0  0  0  0  0  0  0  0  0  0
   21.4792   -8.8955  -14.8533 C   0  0  2  0  0  0  0  0  0  0  0  0
   20.5901   -9.3343  -15.9141 N   0  0  0  0  0  0  0  0  0  0  0  0
   21.1302   -7.5587  -14.3572 C   0  0  0  0  0  0  0  0  0  0  0  0
   21.3141   -7.0927  -13.0733 O   0  0  0  0  0  0  0  0  0  0  0  0
   20.6099   -6.7312  -15.1677 O   0  0  0  0  0  0  0  0  0  0  0  0
  2  1  1  6
  3  2  1  0
  4  3  1  0
  5  4  2  0
  6  7  1  0
  6  5  1  0
  7  8  2  0
  8  4  1  0
  9  2  1  0
  9 15  1  0
 10  9  2  0
 12 11  1  6
 13 12  1  0
 14 12  1  0
 14 15  1  1
 16 17  2  0
 16 14  1  0
 19 18  1  1
 19 21  1  0
 20 19  1  0
 22 21  1  6
 22 24  1  0
 22 23  1  0
 23 16  1  0
 24 25  1  0
 26 24  2  0
M  END
$$$$
