FVG.pdb
     RDKit          3D

 23 23  0  0  1  0  0  0  0  0999 V2000
   26.2995  -21.2842  -13.5087 N   0  0  0  0  0  0  0  0  0  0  0  0
   25.4234  -20.4381  -12.7330 C   0  0  1  0  0  0  0  0  0  0  0  0
   24.0394  -20.4529  -13.3450 C   0  0  0  0  0  0  0  0  0  0  0  0
   24.1050  -19.7101  -14.6181 C   0  0  0  0  0  0  0  0  0  0  0  0
   24.0822  -20.4452  -15.8023 C   0  0  0  0  0  0  0  0  0  0  0  0
   24.1419  -19.7799  -16.9959 C   0  0  0  0  0  0  0  0  0  0  0  0
   24.2235  -18.3960  -17.0030 C   0  0  0  0  0  0  0  0  0  0  0  0
   24.2447  -17.6879  -15.8128 C   0  0  0  0  0  0  0  0  0  0  0  0
   24.1848  -18.3514  -14.6030 C   0  0  0  0  0  0  0  0  0  0  0  0
   25.2892  -20.9080  -11.3340 C   0  0  0  0  0  0  0  0  0  0  0  0
   25.1451  -22.1458  -11.1574 O   0  0  0  0  0  0  0  0  0  0  0  0
   25.7062  -20.1406   -6.5637 C   0  0  0  0  0  0  0  0  0  0  0  0
   25.8756  -19.5576   -7.9508 C   0  0  1  0  0  0  0  0  0  0  0  0
   27.3340  -19.5219   -8.2959 C   0  0  0  0  0  0  0  0  0  0  0  0
   25.1866  -20.5080   -8.9116 C   0  0  2  0  0  0  0  0  0  0  0  0
   25.3213  -20.0110  -10.2497 N   0  0  0  0  0  0  0  0  0  0  0  0
   23.7091  -20.5671   -8.6207 C   0  0  0  0  0  0  0  0  0  0  0  0
   22.8950  -19.7327   -9.0953 O   0  0  0  0  0  0  0  0  0  0  0  0
   23.1706  -21.5819   -7.7873 N   0  0  0  0  0  0  0  0  0  0  0  0
   21.7751  -21.6105   -7.4166 C   0  0  0  0  0  0  0  0  0  0  0  0
   21.4608  -22.7776   -6.5506 C   0  0  0  0  0  0  0  0  0  0  0  0
   22.2963  -23.7036   -6.4023 O   0  0  0  0  0  0  0  0  0  0  0  0
   20.2504  -22.8884   -5.8822 O   0  0  0  0  0  0  0  0  0  0  0  0
  2 10  1  0
  2  1  1  6
  3  2  1  0
  4  3  1  0
  5  4  2  0
  6  5  1  0
  7  8  1  0
  7  6  2  0
  8  9  2  0
  9  4  1  0
 10 11  2  0
 13 12  1  1
 13 14  1  0
 15 13  1  0
 16 10  1  0
 15 16  1  6
 17 19  1  0
 17 15  1  0
 18 17  2  0
 20 21  1  0
 20 19  1  0
 21 23  1  0
 22 21  2  0
M  END
$$$$
