FVG.pdb
     RDKit          3D

 23 23  0  0  1  0  0  0  0  0999 V2000
   28.4195  -21.0267   -8.9230 N   0  0  0  0  0  0  0  0  0  0  0  0
   27.0662  -20.5676   -8.7154 C   0  0  1  0  0  0  0  0  0  0  0  0
   27.0923  -19.2370   -7.9949 C   0  0  0  0  0  0  0  0  0  0  0  0
   27.6711  -19.4638   -6.6569 C   0  0  0  0  0  0  0  0  0  0  0  0
   26.8701  -20.0813   -5.6976 C   0  0  0  0  0  0  0  0  0  0  0  0
   27.3836  -20.3028   -4.4493 C   0  0  0  0  0  0  0  0  0  0  0  0
   28.6827  -19.9106   -4.1658 C   0  0  0  0  0  0  0  0  0  0  0  0
   29.4588  -19.2987   -5.1361 C   0  0  0  0  0  0  0  0  0  0  0  0
   28.9486  -19.0712   -6.3992 C   0  0  0  0  0  0  0  0  0  0  0  0
   26.3457  -20.3600   -9.9936 C   0  0  0  0  0  0  0  0  0  0  0  0
   26.8226  -19.5079  -10.7876 O   0  0  0  0  0  0  0  0  0  0  0  0
   23.9917  -21.7602  -13.7537 C   0  0  0  0  0  0  0  0  0  0  0  0
   24.6551  -22.0865  -12.4324 C   0  0  1  0  0  0  0  0  0  0  0  0
   26.1160  -22.3328  -12.6616 C   0  0  0  0  0  0  0  0  0  0  0  0
   24.5160  -20.8551  -11.5575 C   0  0  2  0  0  0  0  0  0  0  0  0
   25.1795  -21.0832  -10.3072 N   0  0  0  0  0  0  0  0  0  0  0  0
   23.0656  -20.6022  -11.2357 C   0  0  0  0  0  0  0  0  0  0  0  0
   22.4483  -21.2521  -10.3521 O   0  0  0  0  0  0  0  0  0  0  0  0
   22.3287  -19.6059  -11.9277 N   0  0  0  0  0  0  0  0  0  0  0  0
   20.9616  -19.2876  -11.5877 C   0  0  0  0  0  0  0  0  0  0  0  0
   20.0113  -20.2893  -12.1390 C   0  0  0  0  0  0  0  0  0  0  0  0
   20.2409  -20.8454  -13.2416 O   0  0  0  0  0  0  0  0  0  0  0  0
   18.8505  -20.6443  -11.4676 O   0  0  0  0  0  0  0  0  0  0  0  0
  2 10  1  0
  2  1  1  6
  3  2  1  0
  4  3  1  0
  5  4  2  0
  6  5  1  0
  7  8  1  0
  7  6  2  0
  8  9  2  0
  9  4  1  0
 10 11  2  0
 13 12  1  6
 13 14  1  0
 15 13  1  0
 16 10  1  0
 15 16  1  1
 17 19  1  0
 17 15  1  0
 18 17  2  0
 20 21  1  0
 20 19  1  0
 21 23  1  0
 22 21  2  0
M  END
$$$$
