FVG.pdb
     RDKit          3D

 23 23  0  0  1  0  0  0  0  0999 V2000
   27.1867  -21.7384  -11.6766 N   0  0  0  0  0  0  0  0  0  0  0  0
   26.3007  -20.6078  -11.8256 C   0  0  1  0  0  0  0  0  0  0  0  0
   26.2898  -19.8057  -10.5424 C   0  0  0  0  0  0  0  0  0  0  0  0
   25.3408  -20.4540   -9.6173 C   0  0  0  0  0  0  0  0  0  0  0  0
   24.0164  -20.5871  -10.0315 C   0  0  0  0  0  0  0  0  0  0  0  0
   23.1169  -21.1847   -9.1919 C   0  0  0  0  0  0  0  0  0  0  0  0
   23.5390  -21.6430   -7.9535 C   0  0  0  0  0  0  0  0  0  0  0  0
   24.8605  -21.4992   -7.5648 C   0  0  0  0  0  0  0  0  0  0  0  0
   25.7755  -20.8971   -8.4060 C   0  0  0  0  0  0  0  0  0  0  0  0
   26.7377  -19.6961  -12.9090 C   0  0  0  0  0  0  0  0  0  0  0  0
   27.9402  -19.3246  -12.8942 O   0  0  0  0  0  0  0  0  0  0  0  0
   26.8357  -18.0783  -17.2816 C   0  0  0  0  0  0  0  0  0  0  0  0
   26.2460  -19.0441  -16.2756 C   0  0  1  0  0  0  0  0  0  0  0  0
   27.1016  -20.2734  -16.2120 C   0  0  0  0  0  0  0  0  0  0  0  0
   26.3051  -18.3578  -14.9241 C   0  0  2  0  0  0  0  0  0  0  0  0
   25.8486  -19.2637  -13.9109 N   0  0  0  0  0  0  0  0  0  0  0  0
   25.3721  -17.1746  -14.8961 C   0  0  0  0  0  0  0  0  0  0  0  0
   24.1224  -17.3037  -14.8210 O   0  0  0  0  0  0  0  0  0  0  0  0
   25.8750  -15.8487  -14.9544 N   0  0  0  0  0  0  0  0  0  0  0  0
   25.0036  -14.6970  -14.9633 C   0  0  0  0  0  0  0  0  0  0  0  0
   24.4780  -14.4167  -16.3257 C   0  0  0  0  0  0  0  0  0  0  0  0
   24.7434  -15.1872  -17.2814 O   0  0  0  0  0  0  0  0  0  0  0  0
   23.6856  -13.3097  -16.5912 O   0  0  0  0  0  0  0  0  0  0  0  0
  2 10  1  0
  2  1  1  1
  3  2  1  0
  4  3  1  0
  5  4  2  0
  6  5  1  0
  7  8  1  0
  7  6  2  0
  8  9  2  0
  9  4  1  0
 10 11  2  0
 13 12  1  6
 13 14  1  0
 15 13  1  0
 16 10  1  0
 15 16  1  1
 17 19  1  0
 17 15  1  0
 18 17  2  0
 20 21  1  0
 20 19  1  0
 21 23  1  0
 22 21  2  0
M  END
$$$$
