FVG.pdb
     RDKit          3D

 23 23  0  0  1  0  0  0  0  0999 V2000
   28.5402  -21.0224   -9.3052 N   0  0  0  0  0  0  0  0  0  0  0  0
   27.1451  -20.7169   -9.0915 C   0  0  1  0  0  0  0  0  0  0  0  0
   27.0277  -19.4321   -8.3004 C   0  0  0  0  0  0  0  0  0  0  0  0
   27.4895  -19.7086   -6.9267 C   0  0  0  0  0  0  0  0  0  0  0  0
   28.8623  -19.8216   -6.7121 C   0  0  0  0  0  0  0  0  0  0  0  0
   29.3158  -20.0777   -5.4473 C   0  0  0  0  0  0  0  0  0  0  0  0
   28.4058  -20.2187   -4.4110 C   0  0  0  0  0  0  0  0  0  0  0  0
   27.0465  -20.1020   -4.6497 C   0  0  0  0  0  0  0  0  0  0  0  0
   26.5796  -19.8436   -5.9235 C   0  0  0  0  0  0  0  0  0  0  0  0
   26.4170  -20.5150  -10.3663 C   0  0  0  0  0  0  0  0  0  0  0  0
   26.9887  -19.8229  -11.2485 O   0  0  0  0  0  0  0  0  0  0  0  0
   23.8091  -21.9996  -13.9152 C   0  0  0  0  0  0  0  0  0  0  0  0
   24.4275  -22.2510  -12.5563 C   0  0  1  0  0  0  0  0  0  0  0  0
   25.8259  -22.7599  -12.7375 C   0  0  0  0  0  0  0  0  0  0  0  0
   24.5014  -20.9083  -11.8543 C   0  0  2  0  0  0  0  0  0  0  0  0
   25.1424  -21.0718  -10.5824 N   0  0  0  0  0  0  0  0  0  0  0  0
   23.1155  -20.3865  -11.5744 C   0  0  0  0  0  0  0  0  0  0  0  0
   22.4267  -20.7918  -10.6020 O   0  0  0  0  0  0  0  0  0  0  0  0
   22.5248  -19.4029  -12.4098 N   0  0  0  0  0  0  0  0  0  0  0  0
   21.2043  -18.8749  -12.1582 C   0  0  0  0  0  0  0  0  0  0  0  0
   20.1430  -19.7950  -12.6459 C   0  0  0  0  0  0  0  0  0  0  0  0
   20.4255  -20.7332  -13.4318 O   0  0  0  0  0  0  0  0  0  0  0  0
   18.8185  -19.6559  -12.2581 O   0  0  0  0  0  0  0  0  0  0  0  0
  2 10  1  0
  2  1  1  6
  3  2  1  0
  4  3  1  0
  5  4  2  0
  6  5  1  0
  7  8  1  0
  7  6  2  0
  8  9  2  0
  9  4  1  0
 10 11  2  0
 13 12  1  6
 13 14  1  0
 15 13  1  0
 16 10  1  0
 15 16  1  1
 17 19  1  0
 17 15  1  0
 18 17  2  0
 20 21  1  0
 20 19  1  0
 21 23  1  0
 22 21  2  0
M  END
$$$$
