FVG.pdb
     RDKit          3D

 23 23  0  0  1  0  0  0  0  0999 V2000
   27.0260  -22.8491  -13.3119 N   0  0  0  0  0  0  0  0  0  0  0  0
   26.2884  -21.8060  -12.6387 C   0  0  1  0  0  0  0  0  0  0  0  0
   27.1078  -20.5336  -12.6352 C   0  0  0  0  0  0  0  0  0  0  0  0
   28.2762  -20.7561  -11.7622 C   0  0  0  0  0  0  0  0  0  0  0  0
   29.5104  -20.9782  -12.3709 C   0  0  0  0  0  0  0  0  0  0  0  0
   30.6091  -21.1872  -11.5834 C   0  0  0  0  0  0  0  0  0  0  0  0
   30.4729  -21.1738  -10.2038 C   0  0  0  0  0  0  0  0  0  0  0  0
   29.2357  -20.9509   -9.6226 C   0  0  0  0  0  0  0  0  0  0  0  0
   28.1210  -20.7390  -10.4100 C   0  0  0  0  0  0  0  0  0  0  0  0
   25.0077  -21.5009  -13.3189 C   0  0  0  0  0  0  0  0  0  0  0  0
   24.8347  -21.9969  -14.4626 O   0  0  0  0  0  0  0  0  0  0  0  0
   21.9939  -19.8261  -10.9913 C   0  0  0  0  0  0  0  0  0  0  0  0
   21.7949  -21.0363  -11.8791 C   0  0  1  0  0  0  0  0  0  0  0  0
   20.3624  -21.0968  -12.3166 C   0  0  0  0  0  0  0  0  0  0  0  0
   22.6553  -20.8218  -13.1099 C   0  0  2  0  0  0  0  0  0  0  0  0
   24.0271  -20.6923  -12.7139 N   0  0  0  0  0  0  0  0  0  0  0  0
   22.2804  -19.5317  -13.7928 C   0  0  0  0  0  0  0  0  0  0  0  0
   22.5409  -18.4054  -13.2948 O   0  0  0  0  0  0  0  0  0  0  0  0
   21.6088  -19.5375  -15.0430 N   0  0  0  0  0  0  0  0  0  0  0  0
   21.2649  -18.3175  -15.7352 C   0  0  0  0  0  0  0  0  0  0  0  0
   19.8236  -17.9863  -15.5810 C   0  0  0  0  0  0  0  0  0  0  0  0
   19.0816  -18.6946  -14.8562 O   0  0  0  0  0  0  0  0  0  0  0  0
   19.2498  -16.8981  -16.2219 O   0  0  0  0  0  0  0  0  0  0  0  0
  2 10  1  0
  2  1  1  6
  3  2  1  0
  4  3  1  0
  5  4  2  0
  6  5  1  0
  7  8  1  0
  7  6  2  0
  8  9  2  0
  9  4  1  0
 10 11  2  0
 13 12  1  1
 13 14  1  0
 15 13  1  0
 16 10  1  0
 15 16  1  1
 17 19  1  0
 17 15  1  0
 18 17  2  0
 20 21  1  0
 20 19  1  0
 21 23  1  0
 22 21  2  0
M  END
$$$$
