FVG.pdb
     RDKit          3D

 23 23  0  0  1  0  0  0  0  0999 V2000
   28.3108  -21.9025  -12.4009 N   0  0  0  0  0  0  0  0  0  0  0  0
   27.0306  -21.4612  -11.8992 C   0  0  1  0  0  0  0  0  0  0  0  0
   27.1807  -20.0900  -11.2766 C   0  0  0  0  0  0  0  0  0  0  0  0
   27.5651  -20.2791   -9.8648 C   0  0  0  0  0  0  0  0  0  0  0  0
   28.9002  -20.5684   -9.5870 C   0  0  0  0  0  0  0  0  0  0  0  0
   29.2819  -20.7482   -8.2859 C   0  0  0  0  0  0  0  0  0  0  0  0
   28.3382  -20.6397   -7.2762 C   0  0  0  0  0  0  0  0  0  0  0  0
   27.0175  -20.3514   -7.5776 C   0  0  0  0  0  0  0  0  0  0  0  0
   26.6232  -20.1683   -8.8885 C   0  0  0  0  0  0  0  0  0  0  0  0
   26.0195  -21.3453  -12.9763 C   0  0  0  0  0  0  0  0  0  0  0  0
   26.3910  -20.8141  -14.0552 O   0  0  0  0  0  0  0  0  0  0  0  0
   22.6091  -23.2683  -15.4924 C   0  0  0  0  0  0  0  0  0  0  0  0
   23.5104  -23.2936  -14.2761 C   0  0  1  0  0  0  0  0  0  0  0  0
   24.8035  -23.9619  -14.6345 C   0  0  0  0  0  0  0  0  0  0  0  0
   23.8083  -21.8488  -13.9227 C   0  0  2  0  0  0  0  0  0  0  0  0
   24.7017  -21.8084  -12.8021 N   0  0  0  0  0  0  0  0  0  0  0  0
   22.5472  -21.1437  -13.4938 C   0  0  0  0  0  0  0  0  0  0  0  0
   22.2783  -20.9199  -12.2848 O   0  0  0  0  0  0  0  0  0  0  0  0
   21.5998  -20.6980  -14.4520 N   0  0  0  0  0  0  0  0  0  0  0  0
   20.3510  -20.0826  -14.0679 C   0  0  0  0  0  0  0  0  0  0  0  0
   20.2496  -18.6867  -14.5698 C   0  0  0  0  0  0  0  0  0  0  0  0
   21.1575  -17.8543  -14.3242 O   0  0  0  0  0  0  0  0  0  0  0  0
   19.1643  -18.2548  -15.3179 O   0  0  0  0  0  0  0  0  0  0  0  0
  2 10  1  0
  2  1  1  6
  3  2  1  0
  4  3  1  0
  5  4  2  0
  6  5  1  0
  7  8  1  0
  7  6  2  0
  8  9  2  0
  9  4  1  0
 10 11  2  0
 13 12  1  6
 13 14  1  0
 15 13  1  0
 16 10  1  0
 15 16  1  1
 17 19  1  0
 17 15  1  0
 18 17  2  0
 20 21  1  0
 20 19  1  0
 21 23  1  0
 22 21  2  0
M  END
$$$$
