FVG.pdb
     RDKit          3D

 23 23  0  0  1  0  0  0  0  0999 V2000
   27.7563  -18.3676   -8.4297 N   0  0  0  0  0  0  0  0  0  0  0  0
   27.1064  -19.6558   -8.4888 C   0  0  1  0  0  0  0  0  0  0  0  0
   26.4800  -19.9644   -7.1462 C   0  0  0  0  0  0  0  0  0  0  0  0
   27.5674  -20.0426   -6.1522 C   0  0  0  0  0  0  0  0  0  0  0  0
   27.9201  -18.8732   -5.4803 C   0  0  0  0  0  0  0  0  0  0  0  0
   28.9254  -18.9194   -4.5539 C   0  0  0  0  0  0  0  0  0  0  0  0
   29.5689  -20.1216   -4.3039 C   0  0  0  0  0  0  0  0  0  0  0  0
   29.2002  -21.2701   -4.9846 C   0  0  0  0  0  0  0  0  0  0  0  0
   28.1864  -21.2327   -5.9217 C   0  0  0  0  0  0  0  0  0  0  0  0
   26.0207  -19.6868   -9.4968 C   0  0  0  0  0  0  0  0  0  0  0  0
   25.1828  -18.7482   -9.4645 O   0  0  0  0  0  0  0  0  0  0  0  0
   27.3351  -20.9236  -12.8151 C   0  0  0  0  0  0  0  0  0  0  0  0
   25.8716  -21.3102  -12.7826 C   0  0  1  0  0  0  0  0  0  0  0  0
   25.7524  -22.7597  -12.4192 C   0  0  0  0  0  0  0  0  0  0  0  0
   25.2279  -20.4927  -11.6787 C   0  0  2  0  0  0  0  0  0  0  0  0
   25.9293  -20.7195  -10.4490 N   0  0  0  0  0  0  0  0  0  0  0  0
   23.8073  -20.9429  -11.4538 C   0  0  0  0  0  0  0  0  0  0  0  0
   23.5199  -21.9250  -10.7209 O   0  0  0  0  0  0  0  0  0  0  0  0
   22.7224  -20.2660  -12.0694 N   0  0  0  0  0  0  0  0  0  0  0  0
   21.3474  -20.6197  -11.8046 C   0  0  0  0  0  0  0  0  0  0  0  0
   20.8101  -21.5453  -12.8367 C   0  0  0  0  0  0  0  0  0  0  0  0
   21.5892  -22.2223  -13.5524 O   0  0  0  0  0  0  0  0  0  0  0  0
   19.4473  -21.6957  -13.0470 O   0  0  0  0  0  0  0  0  0  0  0  0
  2 10  1  0
  2  1  1  1
  3  2  1  0
  4  3  1  0
  5  4  2  0
  6  5  1  0
  7  8  1  0
  7  6  2  0
  8  9  2  0
  9  4  1  0
 10 11  2  0
 13 12  1  1
 13 14  1  0
 15 13  1  0
 16 10  1  0
 15 16  1  1
 17 19  1  0
 17 15  1  0
 18 17  2  0
 20 21  1  0
 20 19  1  0
 21 23  1  0
 22 21  2  0
M  END
$$$$
