IDK.pdb
     RDKit          3D

 26 25  0  0  1  0  0  0  0  0999 V2000
   27.8315  -16.7239  -16.9868 C   0  0  0  0  0  0  0  0  0  0  0  0
   28.2339  -17.7549  -15.9832 C   0  0  0  0  0  0  0  0  0  0  0  0
   27.0987  -18.4733  -15.3354 C   0  0  2  0  0  0  0  0  0  0  0  0
   26.1788  -17.4721  -14.7026 C   0  0  0  0  0  0  0  0  0  0  0  0
   27.5367  -19.5469  -14.3690 C   0  0  2  0  0  0  0  0  0  0  0  0
   28.3879  -20.4570  -15.0902 N   0  0  0  0  0  0  0  0  0  0  0  0
   26.3995  -20.2970  -13.8063 C   0  0  0  0  0  0  0  0  0  0  0  0
   25.8611  -21.2427  -14.4249 O   0  0  0  0  0  0  0  0  0  0  0  0
   25.8818  -19.9594  -12.5320 N   0  0  0  0  0  0  0  0  0  0  0  0
   24.8440  -20.7461  -11.9479 C   0  0  1  0  0  0  0  0  0  0  0  0
   24.7091  -20.6436  -10.4703 C   0  0  0  0  0  0  0  0  0  0  0  0
   25.9386  -20.9651   -9.7143 C   0  0  0  0  0  0  0  0  0  0  0  0
   26.8069  -21.7144  -10.2344 O   0  0  0  0  0  0  0  0  0  0  0  0
   23.5136  -20.3872  -12.5669 C   0  0  0  0  0  0  0  0  0  0  0  0
   23.0566  -19.2162  -12.3854 O   0  0  0  0  0  0  0  0  0  0  0  0
   26.2142  -20.4906   -8.4451 O   0  0  0  0  0  0  0  0  0  0  0  0
   22.7800  -21.3030  -13.3248 N   0  0  0  0  0  0  0  0  0  0  0  0
   21.4447  -20.9894  -13.9204 C   0  0  1  0  0  0  0  0  0  0  0  0
   21.3624  -21.8534  -15.1026 C   0  0  0  0  0  0  0  0  0  0  0  0
   20.2180  -21.9295  -16.0021 C   0  0  0  0  0  0  0  0  0  0  0  0
   19.9345  -20.8761  -17.0031 C   0  0  0  0  0  0  0  0  0  0  0  0
   18.5863  -21.2957  -17.6885 C   0  0  0  0  0  0  0  0  0  0  0  0
   18.1711  -20.1833  -18.5211 N   0  0  0  0  0  0  0  0  0  0  0  0
   20.4981  -21.0971  -12.8341 C   0  0  0  0  0  0  0  0  0  0  0  0
   19.3835  -20.3149  -12.5685 O   0  0  0  0  0  0  0  0  0  0  0  0
   20.6563  -22.0229  -11.9515 O   0  0  0  0  0  0  0  0  0  0  0  0
  1  2  1  0
  3  4  1  1
  3  2  1  0
  5  3  1  0
  5  6  1  6
  7  5  1  0
  8  7  2  0
  9  7  1  0
 10  9  1  0
 10 14  1  0
 10 11  1  1
 12 11  1  0
 13 12  2  0
 14 15  2  0
 14 17  1  0
 16 12  1  0
 17 18  1  0
 18 19  1  6
 19 20  1  0
 21 20  1  0
 22 21  1  0
 23 22  1  0
 24 18  1  0
 24 25  1  0
 26 24  2  0
M  END
$$$$
