IDK.pdb
     RDKit          3D

 26 25  0  0  1  0  0  0  0  0999 V2000
   21.2934  -29.7632  -20.4303 C   0  0  0  0  0  0  0  0  0  0  0  0
   22.2561  -29.8243  -19.2895 C   0  0  0  0  0  0  0  0  0  0  0  0
   23.6928  -29.8803  -19.6860 C   0  0  2  0  0  0  0  0  0  0  0  0
   23.9111  -31.0639  -20.5807 C   0  0  0  0  0  0  0  0  0  0  0  0
   24.6437  -29.8589  -18.5140 C   0  0  2  0  0  0  0  0  0  0  0  0
   24.4538  -28.6087  -17.8257 N   0  0  0  0  0  0  0  0  0  0  0  0
   26.0535  -29.9687  -18.9297 C   0  0  0  0  0  0  0  0  0  0  0  0
   26.4793  -30.9589  -19.5661 O   0  0  0  0  0  0  0  0  0  0  0  0
   26.9734  -28.9392  -18.6135 N   0  0  0  0  0  0  0  0  0  0  0  0
   28.3408  -29.0535  -19.0065 C   0  0  1  0  0  0  0  0  0  0  0  0
   29.0429  -27.7719  -19.2832 C   0  0  0  0  0  0  0  0  0  0  0  0
   30.4368  -27.9206  -19.7536 C   0  0  0  0  0  0  0  0  0  0  0  0
   30.6551  -28.2280  -20.9551 O   0  0  0  0  0  0  0  0  0  0  0  0
   29.1213  -29.7978  -17.9489 C   0  0  0  0  0  0  0  0  0  0  0  0
   28.9232  -29.5035  -16.7294 O   0  0  0  0  0  0  0  0  0  0  0  0
   31.5486  -27.7412  -18.9514 O   0  0  0  0  0  0  0  0  0  0  0  0
   30.0480  -30.7906  -18.2760 N   0  0  0  0  0  0  0  0  0  0  0  0
   30.7522  -31.6227  -17.2524 C   0  0  1  0  0  0  0  0  0  0  0  0
   29.8518  -32.7579  -17.0254 C   0  0  0  0  0  0  0  0  0  0  0  0
   30.1531  -33.9050  -16.1780 C   0  0  0  0  0  0  0  0  0  0  0  0
   29.1912  -35.0141  -15.9865 C   0  0  0  0  0  0  0  0  0  0  0  0
   29.9428  -36.0799  -15.1132 C   0  0  0  0  0  0  0  0  0  0  0  0
   28.9804  -37.1149  -14.7882 N   0  0  0  0  0  0  0  0  0  0  0  0
   32.0940  -31.8069  -17.7554 C   0  0  0  0  0  0  0  0  0  0  0  0
   33.1932  -32.3679  -17.1215 O   0  0  0  0  0  0  0  0  0  0  0  0
   32.3778  -31.4124  -18.9492 O   0  0  0  0  0  0  0  0  0  0  0  0
  1  2  1  0
  3  4  1  1
  3  2  1  0
  5  3  1  0
  5  6  1  6
  7  5  1  0
  8  7  2  0
  9  7  1  0
 10  9  1  0
 10 14  1  0
 10 11  1  1
 12 11  1  0
 13 12  2  0
 14 15  2  0
 14 17  1  0
 16 12  1  0
 17 18  1  0
 18 19  1  6
 19 20  1  0
 21 20  1  0
 22 21  1  0
 23 22  1  0
 24 18  1  0
 24 25  1  0
 26 24  2  0
M  END
$$$$
