IDK.pdb
     RDKit          3D

 26 25  0  0  1  0  0  0  0  0999 V2000
   29.8967  -22.0063  -10.9610 C   0  0  0  0  0  0  0  0  0  0  0  0
   28.5647  -21.4141  -10.6342 C   0  0  0  0  0  0  0  0  0  0  0  0
   27.8402  -20.8246  -11.7970 C   0  0  2  0  0  0  0  0  0  0  0  0
   28.7260  -19.8199  -12.4714 C   0  0  0  0  0  0  0  0  0  0  0  0
   26.4883  -20.2556  -11.4405 C   0  0  2  0  0  0  0  0  0  0  0  0
   25.7394  -21.2972  -10.7869 N   0  0  0  0  0  0  0  0  0  0  0  0
   25.7398  -19.7967  -12.6243 C   0  0  0  0  0  0  0  0  0  0  0  0
   26.1071  -18.8053  -13.2946 O   0  0  0  0  0  0  0  0  0  0  0  0
   24.5689  -20.4782  -13.0372 N   0  0  0  0  0  0  0  0  0  0  0  0
   23.9850  -20.1956  -14.3086 C   0  0  1  0  0  0  0  0  0  0  0  0
   24.9170  -20.2199  -15.4674 C   0  0  0  0  0  0  0  0  0  0  0  0
   24.2962  -19.8818  -16.7662 C   0  0  0  0  0  0  0  0  0  0  0  0
   23.5395  -20.7177  -17.3268 O   0  0  0  0  0  0  0  0  0  0  0  0
   22.8623  -21.1667  -14.5884 C   0  0  0  0  0  0  0  0  0  0  0  0
   23.1526  -22.3853  -14.7974 O   0  0  0  0  0  0  0  0  0  0  0  0
   24.4888  -18.6832  -17.4284 O   0  0  0  0  0  0  0  0  0  0  0  0
   21.5261  -20.7610  -14.6244 N   0  0  0  0  0  0  0  0  0  0  0  0
   20.3789  -21.7202  -14.6259 C   0  0  1  0  0  0  0  0  0  0  0  0
   19.2072  -20.8854  -14.3406 C   0  0  0  0  0  0  0  0  0  0  0  0
   17.8545  -21.3884  -14.1366 C   0  0  0  0  0  0  0  0  0  0  0  0
   16.7407  -20.5028  -13.7275 C   0  0  0  0  0  0  0  0  0  0  0  0
   15.4976  -21.4435  -13.5450 C   0  0  0  0  0  0  0  0  0  0  0  0
   14.3694  -20.5939  -13.2155 N   0  0  0  0  0  0  0  0  0  0  0  0
   20.4969  -22.4675  -15.8568 C   0  0  0  0  0  0  0  0  0  0  0  0
   20.7173  -21.9983  -17.1436 O   0  0  0  0  0  0  0  0  0  0  0  0
   20.3863  -23.7513  -15.8262 O   0  0  0  0  0  0  0  0  0  0  0  0
  1  2  1  0
  3  4  1  1
  3  2  1  0
  5  3  1  0
  5  6  1  6
  7  5  1  0
  8  7  2  0
  9  7  1  0
 10  9  1  0
 10 14  1  0
 10 11  1  6
 12 11  1  0
 13 12  2  0
 14 15  2  0
 14 17  1  0
 16 12  1  0
 17 18  1  0
 18 19  1  6
 19 20  1  0
 21 20  1  0
 22 21  1  0
 23 22  1  0
 24 18  1  0
 24 25  1  0
 26 24  2  0
M  END
$$$$
