IDK.pdb
     RDKit          3D

 26 25  0  0  1  0  0  0  0  0999 V2000
   19.8700  -22.3892  -16.5905 C   0  0  0  0  0  0  0  0  0  0  0  0
   19.5387  -21.5602  -15.3926 C   0  0  0  0  0  0  0  0  0  0  0  0
   20.6315  -20.6523  -14.9388 C   0  0  2  0  0  0  0  0  0  0  0  0
   20.8771  -19.6127  -15.9914 C   0  0  0  0  0  0  0  0  0  0  0  0
   21.8927  -21.3788  -14.5390 C   0  0  2  0  0  0  0  0  0  0  0  0
   21.5203  -22.4115  -13.6075 N   0  0  0  0  0  0  0  0  0  0  0  0
   22.8777  -20.4881  -13.8996 C   0  0  0  0  0  0  0  0  0  0  0  0
   22.7270  -19.2457  -13.8756 O   0  0  0  0  0  0  0  0  0  0  0  0
   24.0360  -21.0266  -13.2877 N   0  0  0  0  0  0  0  0  0  0  0  0
   25.0842  -20.1621  -12.8506 C   0  0  1  0  0  0  0  0  0  0  0  0
   25.2866  -20.0845  -11.3792 C   0  0  0  0  0  0  0  0  0  0  0  0
   25.1152  -21.3672  -10.6639 C   0  0  0  0  0  0  0  0  0  0  0  0
   24.8029  -22.4006  -11.3123 O   0  0  0  0  0  0  0  0  0  0  0  0
   26.3920  -20.5756  -13.4834 C   0  0  0  0  0  0  0  0  0  0  0  0
   27.1021  -21.4479  -12.8934 O   0  0  0  0  0  0  0  0  0  0  0  0
   25.2780  -21.5213   -9.2994 O   0  0  0  0  0  0  0  0  0  0  0  0
   26.8362  -20.0263  -14.6884 N   0  0  0  0  0  0  0  0  0  0  0  0
   27.4976  -20.8316  -15.7609 C   0  0  1  0  0  0  0  0  0  0  0  0
   27.5456  -22.1923  -15.2160 C   0  0  0  0  0  0  0  0  0  0  0  0
   28.0820  -23.3528  -15.9161 C   0  0  0  0  0  0  0  0  0  0  0  0
   29.4616  -23.3776  -16.4530 C   0  0  0  0  0  0  0  0  0  0  0  0
   29.5992  -24.7498  -17.2023 C   0  0  0  0  0  0  0  0  0  0  0  0
   30.9553  -24.8193  -17.7116 N   0  0  0  0  0  0  0  0  0  0  0  0
   26.7798  -20.5258  -16.9770 C   0  0  0  0  0  0  0  0  0  0  0  0
   25.4212  -20.6311  -17.2371 O   0  0  0  0  0  0  0  0  0  0  0  0
   27.4331  -20.0967  -18.0020 O   0  0  0  0  0  0  0  0  0  0  0  0
  1  2  1  0
  3  4  1  6
  3  2  1  0
  5  3  1  0
  5  6  1  1
  7  5  1  0
  8  7  2  0
  9  7  1  0
 10  9  1  0
 10 14  1  0
 10 11  1  1
 12 11  1  0
 13 12  2  0
 14 15  2  0
 14 17  1  0
 16 12  1  0
 17 18  1  0
 18 19  1  1
 19 20  1  0
 21 20  1  0
 22 21  1  0
 23 22  1  0
 24 18  1  0
 24 25  1  0
 26 24  2  0
M  END
$$$$
