IDK.pdb
     RDKit          3D

 26 25  0  0  1  0  0  0  0  0999 V2000
   27.4639  -19.8434   -7.9449 C   0  0  0  0  0  0  0  0  0  0  0  0
   27.5327  -19.9256   -9.4350 C   0  0  0  0  0  0  0  0  0  0  0  0
   27.5609  -21.3121   -9.9841 C   0  0  2  0  0  0  0  0  0  0  0  0
   28.7468  -22.0396   -9.4243 C   0  0  0  0  0  0  0  0  0  0  0  0
   27.5093  -21.3654  -11.4917 C   0  0  2  0  0  0  0  0  0  0  0  0
   28.6911  -20.7099  -11.9883 N   0  0  0  0  0  0  0  0  0  0  0  0
   26.3196  -20.6894  -12.0393 C   0  0  0  0  0  0  0  0  0  0  0  0
   26.3107  -19.4615  -12.2822 O   0  0  0  0  0  0  0  0  0  0  0  0
   25.1400  -21.4260  -12.3077 N   0  0  0  0  0  0  0  0  0  0  0  0
   24.0495  -20.8097  -12.9921 C   0  0  1  0  0  0  0  0  0  0  0  0
   24.2284  -20.6231  -14.4567 C   0  0  0  0  0  0  0  0  0  0  0  0
   23.1207  -19.9097  -15.1281 C   0  0  0  0  0  0  0  0  0  0  0  0
   22.2405  -19.3383  -14.4320 O   0  0  0  0  0  0  0  0  0  0  0  0
   22.7851  -21.6061  -12.7711 C   0  0  0  0  0  0  0  0  0  0  0  0
   22.8759  -22.8673  -12.6514 O   0  0  0  0  0  0  0  0  0  0  0  0
   22.9759  -19.8198  -16.5003 O   0  0  0  0  0  0  0  0  0  0  0  0
   21.5307  -20.9959  -12.6979 N   0  0  0  0  0  0  0  0  0  0  0  0
   20.2650  -21.7530  -12.4510 C   0  0  1  0  0  0  0  0  0  0  0  0
   20.2117  -21.9059  -10.9933 C   0  0  0  0  0  0  0  0  0  0  0  0
   19.6253  -23.0429  -10.2948 C   0  0  0  0  0  0  0  0  0  0  0  0
   19.5458  -23.1011   -8.8175 C   0  0  0  0  0  0  0  0  0  0  0  0
   18.6857  -24.3725   -8.4899 C   0  0  0  0  0  0  0  0  0  0  0  0
   18.5587  -24.4366   -7.0467 N   0  0  0  0  0  0  0  0  0  0  0  0
   19.2377  -21.0430  -13.1777 C   0  0  0  0  0  0  0  0  0  0  0  0
   18.0070  -21.5044  -13.6218 O   0  0  0  0  0  0  0  0  0  0  0  0
   19.4301  -19.8083  -13.4938 O   0  0  0  0  0  0  0  0  0  0  0  0
  1  2  1  0
  3  4  1  6
  3  2  1  0
  5  3  1  0
  5  6  1  6
  7  5  1  0
  8  7  2  0
  9  7  1  0
 10  9  1  0
 10 14  1  0
 10 11  1  6
 12 11  1  0
 13 12  2  0
 14 15  2  0
 14 17  1  0
 16 12  1  0
 17 18  1  0
 18 19  1  1
 19 20  1  0
 21 20  1  0
 22 21  1  0
 23 22  1  0
 24 18  1  0
 24 25  1  0
 26 24  2  0
M  END
$$$$
