IDK.pdb
     RDKit          3D

 26 25  0  0  1  0  0  0  0  0999 V2000
   16.0294  -12.6500  -19.2564 C   0  0  0  0  0  0  0  0  0  0  0  0
   17.2573  -12.5907  -18.4075 C   0  0  0  0  0  0  0  0  0  0  0  0
   17.4109  -11.3353  -17.6170 C   0  0  2  0  0  0  0  0  0  0  0  0
   17.3144  -10.1571  -18.5399 C   0  0  0  0  0  0  0  0  0  0  0  0
   18.6598  -11.3046  -16.7697 C   0  0  2  0  0  0  0  0  0  0  0  0
   18.6397  -12.4720  -15.9273 N   0  0  0  0  0  0  0  0  0  0  0  0
   18.7360  -10.1017  -15.9214 C   0  0  0  0  0  0  0  0  0  0  0  0
   17.9568   -9.9222  -14.9583 O   0  0  0  0  0  0  0  0  0  0  0  0
   19.7087   -9.1055  -16.1807 N   0  0  0  0  0  0  0  0  0  0  0  0
   19.7145   -7.8946  -15.4251 C   0  0  1  0  0  0  0  0  0  0  0  0
   20.9744   -7.5954  -14.6936 C   0  0  0  0  0  0  0  0  0  0  0  0
   21.2554   -8.4952  -13.5543 C   0  0  0  0  0  0  0  0  0  0  0  0
   20.4619   -8.5227  -12.5770 O   0  0  0  0  0  0  0  0  0  0  0  0
   19.4050   -6.7223  -16.3262 C   0  0  0  0  0  0  0  0  0  0  0  0
   20.0031   -6.6420  -17.4437 O   0  0  0  0  0  0  0  0  0  0  0  0
   22.3536   -9.3323  -13.4806 O   0  0  0  0  0  0  0  0  0  0  0  0
   18.4877   -5.7333  -15.9633 N   0  0  0  0  0  0  0  0  0  0  0  0
   18.1256   -4.5865  -16.8520 C   0  0  1  0  0  0  0  0  0  0  0  0
   16.7063   -4.3446  -16.5727 C   0  0  0  0  0  0  0  0  0  0  0  0
   15.7531   -3.7840  -17.5222 C   0  0  0  0  0  0  0  0  0  0  0  0
   14.4154   -4.3810  -17.7374 C   0  0  0  0  0  0  0  0  0  0  0  0
   14.6749   -5.7524  -18.4552 C   0  0  0  0  0  0  0  0  0  0  0  0
   13.3766   -6.3216  -18.7615 N   0  0  0  0  0  0  0  0  0  0  0  0
   19.1295   -3.5754  -16.6125 C   0  0  0  0  0  0  0  0  0  0  0  0
   19.5565   -2.5553  -17.4503 O   0  0  0  0  0  0  0  0  0  0  0  0
   19.7572   -3.5666  -15.4868 O   0  0  0  0  0  0  0  0  0  0  0  0
  1  2  1  0
  3  4  1  6
  3  2  1  0
  5  3  1  0
  5  6  1  1
  7  5  1  0
  8  7  2  0
  9  7  1  0
 10  9  1  0
 10 14  1  0
 10 11  1  6
 12 11  1  0
 13 12  2  0
 14 15  2  0
 14 17  1  0
 16 12  1  0
 17 18  1  0
 18 19  1  1
 19 20  1  0
 21 20  1  0
 22 21  1  0
 23 22  1  0
 24 18  1  0
 24 25  1  0
 26 24  2  0
M  END
$$$$
