IDK.pdb
     RDKit          3D

 26 25  0  0  1  0  0  0  0  0999 V2000
   28.2339  -13.7374  -15.4449 C   0  0  0  0  0  0  0  0  0  0  0  0
   26.8314  -14.1466  -15.1327 C   0  0  0  0  0  0  0  0  0  0  0  0
   25.7925  -13.1350  -15.4816 C   0  0  2  0  0  0  0  0  0  0  0  0
   26.1019  -11.8478  -14.7768 C   0  0  0  0  0  0  0  0  0  0  0  0
   24.3813  -13.6071  -15.2288 C   0  0  2  0  0  0  0  0  0  0  0  0
   24.2523  -14.9168  -15.8128 N   0  0  0  0  0  0  0  0  0  0  0  0
   23.3724  -12.7138  -15.8258 C   0  0  0  0  0  0  0  0  0  0  0  0
   23.1947  -12.6518  -17.0634 O   0  0  0  0  0  0  0  0  0  0  0  0
   22.5679  -11.8918  -14.9993 N   0  0  0  0  0  0  0  0  0  0  0  0
   21.5580  -11.0643  -15.5761 C   0  0  1  0  0  0  0  0  0  0  0  0
   20.2208  -11.1304  -14.9286 C   0  0  0  0  0  0  0  0  0  0  0  0
   19.4275  -12.3303  -15.2714 C   0  0  0  0  0  0  0  0  0  0  0  0
   19.6054  -13.3956  -14.6240 O   0  0  0  0  0  0  0  0  0  0  0  0
   22.0094   -9.6227  -15.5754 C   0  0  0  0  0  0  0  0  0  0  0  0
   22.5310   -9.1511  -14.5179 O   0  0  0  0  0  0  0  0  0  0  0  0
   18.4782  -12.3706  -16.2760 O   0  0  0  0  0  0  0  0  0  0  0  0
   21.8667   -8.8032  -16.6976 N   0  0  0  0  0  0  0  0  0  0  0  0
   22.4110   -7.4122  -16.7703 C   0  0  1  0  0  0  0  0  0  0  0  0
   22.2856   -7.0467  -18.1851 C   0  0  0  0  0  0  0  0  0  0  0  0
   22.6429   -5.7498  -18.7464 C   0  0  0  0  0  0  0  0  0  0  0  0
   22.4396   -5.4306  -20.1777 C   0  0  0  0  0  0  0  0  0  0  0  0
   22.8692   -3.9299  -20.3416 C   0  0  0  0  0  0  0  0  0  0  0  0
   22.6179   -3.5666  -21.7229 N   0  0  0  0  0  0  0  0  0  0  0  0
   21.7309   -6.6725  -15.7321 C   0  0  0  0  0  0  0  0  0  0  0  0
   20.4093   -6.7635  -15.3199 O   0  0  0  0  0  0  0  0  0  0  0  0
   22.3831   -5.7860  -15.0613 O   0  0  0  0  0  0  0  0  0  0  0  0
  1  2  1  0
  3  4  1  1
  3  2  1  0
  5  3  1  0
  5  6  1  6
  7  5  1  0
  8  7  2  0
  9  7  1  0
 10  9  1  0
 10 14  1  0
 10 11  1  1
 12 11  1  0
 13 12  2  0
 14 15  2  0
 14 17  1  0
 16 12  1  0
 17 18  1  0
 18 19  1  6
 19 20  1  0
 21 20  1  0
 22 21  1  0
 23 22  1  0
 24 18  1  0
 24 25  1  0
 26 24  2  0
M  END
$$$$
