IDK.pdb
     RDKit          3D

 26 25  0  0  1  0  0  0  0  0999 V2000
   29.3397  -16.6839    8.4756 C   0  0  0  0  0  0  0  0  0  0  0  0
   29.4112  -17.9563    9.2552 C   0  0  0  0  0  0  0  0  0  0  0  0
   30.5234  -18.8689    8.8621 C   0  0  2  0  0  0  0  0  0  0  0  0
   30.4153  -19.1750    7.3979 C   0  0  0  0  0  0  0  0  0  0  0  0
   30.6086  -20.1159    9.7082 C   0  0  2  0  0  0  0  0  0  0  0  0
   30.5953  -19.7043   11.0878 N   0  0  0  0  0  0  0  0  0  0  0  0
   31.8363  -20.8896    9.4500 C   0  0  0  0  0  0  0  0  0  0  0  0
   32.0310  -21.4757    8.3612 O   0  0  0  0  0  0  0  0  0  0  0  0
   32.8402  -20.9887   10.4442 N   0  0  0  0  0  0  0  0  0  0  0  0
   34.0627  -21.6700   10.1638 C   0  0  1  0  0  0  0  0  0  0  0  0
   35.3065  -20.9476   10.5421 C   0  0  0  0  0  0  0  0  0  0  0  0
   36.5591  -21.6227   10.1402 C   0  0  0  0  0  0  0  0  0  0  0  0
   36.5009  -22.6973    9.4865 O   0  0  0  0  0  0  0  0  0  0  0  0
   34.0734  -23.0152   10.8509 C   0  0  0  0  0  0  0  0  0  0  0  0
   33.4429  -23.1417   11.9461 O   0  0  0  0  0  0  0  0  0  0  0  0
   37.8241  -21.1485   10.4355 O   0  0  0  0  0  0  0  0  0  0  0  0
   34.7546  -24.1119   10.3177 N   0  0  0  0  0  0  0  0  0  0  0  0
   34.7345  -25.4707   10.9418 C   0  0  1  0  0  0  0  0  0  0  0  0
   33.8047  -26.2396   10.1080 C   0  0  0  0  0  0  0  0  0  0  0  0
   32.9189  -27.2890   10.5963 C   0  0  0  0  0  0  0  0  0  0  0  0
   32.0641  -28.0826    9.6844 C   0  0  0  0  0  0  0  0  0  0  0  0
   31.2521  -29.0581   10.6078 C   0  0  0  0  0  0  0  0  0  0  0  0
   30.4590  -29.9033    9.7361 N   0  0  0  0  0  0  0  0  0  0  0  0
   36.1200  -25.8544   11.0857 C   0  0  0  0  0  0  0  0  0  0  0  0
   36.6807  -26.7909   11.9420 O   0  0  0  0  0  0  0  0  0  0  0  0
   37.0108  -25.2818   10.3508 O   0  0  0  0  0  0  0  0  0  0  0  0
  1  2  1  0
  3  4  1  6
  3  2  1  0
  5  3  1  0
  5  6  1  1
  7  5  1  0
  8  7  2  0
  9  7  1  0
 10  9  1  0
 10 14  1  0
 10 11  1  1
 12 11  1  0
 13 12  2  0
 14 15  2  0
 14 17  1  0
 16 12  1  0
 17 18  1  0
 18 19  1  6
 19 20  1  0
 21 20  1  0
 22 21  1  0
 23 22  1  0
 24 18  1  0
 24 25  1  0
 26 24  2  0
M  END
$$$$
