IDK.pdb
     RDKit          3D

 26 25  0  0  1  0  0  0  0  0999 V2000
   27.9134  -19.7563   -5.2331 C   0  0  0  0  0  0  0  0  0  0  0  0
   26.6647  -20.1371   -5.9595 C   0  0  0  0  0  0  0  0  0  0  0  0
   26.6098  -19.6950   -7.3829 C   0  0  2  0  0  0  0  0  0  0  0  0
   26.7537  -18.2034   -7.4413 C   0  0  0  0  0  0  0  0  0  0  0  0
   25.3885  -20.1868   -8.1210 C   0  0  2  0  0  0  0  0  0  0  0  0
   25.2646  -21.5974   -7.8605 N   0  0  0  0  0  0  0  0  0  0  0  0
   25.4855  -19.9741   -9.5762 C   0  0  0  0  0  0  0  0  0  0  0  0
   25.4176  -18.8314  -10.0828 O   0  0  0  0  0  0  0  0  0  0  0  0
   25.6609  -21.0759  -10.4488 N   0  0  0  0  0  0  0  0  0  0  0  0
   25.7435  -20.8684  -11.8585 C   0  0  1  0  0  0  0  0  0  0  0  0
   26.8699  -21.5530  -12.5475 C   0  0  0  0  0  0  0  0  0  0  0  0
   26.9951  -21.2393  -13.9871 C   0  0  0  0  0  0  0  0  0  0  0  0
   26.2079  -20.4072  -14.5101 O   0  0  0  0  0  0  0  0  0  0  0  0
   24.4561  -21.3004  -12.5202 C   0  0  0  0  0  0  0  0  0  0  0  0
   23.9918  -22.4513  -12.2498 O   0  0  0  0  0  0  0  0  0  0  0  0
   27.9385  -21.8060  -14.8244 O   0  0  0  0  0  0  0  0  0  0  0  0
   23.7715  -20.4744  -13.4146 N   0  0  0  0  0  0  0  0  0  0  0  0
   22.4471  -20.8318  -14.0099 C   0  0  1  0  0  0  0  0  0  0  0  0
   21.4947  -19.9419  -13.3378 C   0  0  0  0  0  0  0  0  0  0  0  0
   20.0598  -20.1781  -13.2380 C   0  0  0  0  0  0  0  0  0  0  0  0
   19.5068  -21.4803  -12.8016 C   0  0  0  0  0  0  0  0  0  0  0  0
   17.9530  -21.3650  -12.9917 C   0  0  0  0  0  0  0  0  0  0  0  0
   17.3938  -22.6718  -12.7038 N   0  0  0  0  0  0  0  0  0  0  0  0
   22.6401  -20.7950  -15.4413 C   0  0  0  0  0  0  0  0  0  0  0  0
   21.9396  -21.4665  -16.4329 O   0  0  0  0  0  0  0  0  0  0  0  0
   23.5799  -20.0610  -15.9305 O   0  0  0  0  0  0  0  0  0  0  0  0
  1  2  1  0
  3  4  1  1
  3  2  1  0
  5  3  1  0
  5  6  1  6
  7  5  1  0
  8  7  2  0
  9  7  1  0
 10  9  1  0
 10 14  1  0
 10 11  1  6
 12 11  1  0
 13 12  2  0
 14 15  2  0
 14 17  1  0
 16 12  1  0
 17 18  1  0
 18 19  1  6
 19 20  1  0
 21 20  1  0
 22 21  1  0
 23 22  1  0
 24 18  1  0
 24 25  1  0
 26 24  2  0
M  END
$$$$
