IDK.pdb
     RDKit          3D

 26 25  0  0  1  0  0  0  0  0999 V2000
   13.6768  -14.8319  -16.9830 C   0  0  0  0  0  0  0  0  0  0  0  0
   14.7661  -14.3185  -16.0989 C   0  0  0  0  0  0  0  0  0  0  0  0
   15.3884  -13.0407  -16.5510 C   0  0  2  0  0  0  0  0  0  0  0  0
   15.8574  -13.1951  -17.9671 C   0  0  0  0  0  0  0  0  0  0  0  0
   16.4777  -12.5418  -15.6329 C   0  0  2  0  0  0  0  0  0  0  0  0
   15.9727  -12.6089  -14.2862 N   0  0  0  0  0  0  0  0  0  0  0  0
   16.8723  -11.1529  -15.9289 C   0  0  0  0  0  0  0  0  0  0  0  0
   17.4273  -10.8391  -17.0061 O   0  0  0  0  0  0  0  0  0  0  0  0
   16.6282  -10.1248  -14.9858 N   0  0  0  0  0  0  0  0  0  0  0  0
   17.0222   -8.7826  -15.2697 C   0  0  1  0  0  0  0  0  0  0  0  0
   16.1747   -7.7192  -14.6672 C   0  0  0  0  0  0  0  0  0  0  0  0
   16.6188   -6.3385  -14.9553 C   0  0  0  0  0  0  0  0  0  0  0  0
   17.2768   -5.7062  -14.0877 O   0  0  0  0  0  0  0  0  0  0  0  0
   18.4473   -8.5573  -14.8221 C   0  0  0  0  0  0  0  0  0  0  0  0
   18.8211   -9.0552  -13.7152 O   0  0  0  0  0  0  0  0  0  0  0  0
   16.3594   -5.6723  -16.1389 O   0  0  0  0  0  0  0  0  0  0  0  0
   19.3544   -7.8205  -15.5873 N   0  0  0  0  0  0  0  0  0  0  0  0
   20.8062   -7.7038  -15.2486 C   0  0  1  0  0  0  0  0  0  0  0  0
   21.4840   -8.5013  -16.2759 C   0  0  0  0  0  0  0  0  0  0  0  0
   22.9145   -8.7796  -16.3069 C   0  0  0  0  0  0  0  0  0  0  0  0
   23.5127   -9.7085  -17.2925 C   0  0  0  0  0  0  0  0  0  0  0  0
   25.0569   -9.6853  -17.0125 C   0  0  0  0  0  0  0  0  0  0  0  0
   25.6958  -10.3886  -18.1081 N   0  0  0  0  0  0  0  0  0  0  0  0
   21.0588   -6.2894  -15.0963 C   0  0  0  0  0  0  0  0  0  0  0  0
   22.0578   -5.6554  -14.3719 O   0  0  0  0  0  0  0  0  0  0  0  0
   20.2824   -5.4450  -15.6841 O   0  0  0  0  0  0  0  0  0  0  0  0
  1  2  1  0
  3  4  1  6
  3  2  1  0
  5  3  1  0
  5  6  1  1
  7  5  1  0
  8  7  2  0
  9  7  1  0
 10  9  1  0
 10 14  1  0
 10 11  1  1
 12 11  1  0
 13 12  2  0
 14 15  2  0
 14 17  1  0
 16 12  1  0
 17 18  1  0
 18 19  1  6
 19 20  1  0
 21 20  1  0
 22 21  1  0
 23 22  1  0
 24 18  1  0
 24 25  1  0
 26 24  2  0
M  END
$$$$
