HDQ.pdb
     RDKit          3D

 28 28  0  0  1  0  0  0  0  0999 V2000
    8.7305  -17.2847   16.2162 N   0  0  0  0  0  0  0  0  0  0  0  0
    9.8084  -16.6979   17.0105 C   0  0  1  0  0  0  0  0  0  0  0  0
    9.2218  -16.4115   18.3744 C   0  0  0  0  0  0  0  0  0  0  0  0
    8.5083  -15.0879   18.3392 C   0  0  0  0  0  0  0  0  0  0  0  0
    8.3252  -14.2903   17.2110 C   0  0  0  0  0  0  0  0  0  0  0  0
    7.6410  -13.2023   17.6066 N   0  0  0  0  0  0  0  0  0  0  0  0
    7.3903  -13.2903   18.9376 C   0  0  0  0  0  0  0  0  0  0  0  0
    7.9236  -14.4323   19.3456 N   0  0  0  0  0  0  0  0  0  0  0  0
   10.9365  -17.6484   17.0819 C   0  0  0  0  0  0  0  0  0  0  0  0
   10.7800  -18.9033   17.2041 O   0  0  0  0  0  0  0  0  0  0  0  0
   12.2803  -17.1941   17.0145 N   0  0  0  0  0  0  0  0  0  0  0  0
   13.4179  -18.0661   17.1214 C   0  0  1  0  0  0  0  0  0  0  0  0
   14.5011  -17.6736   16.1399 C   0  0  0  0  0  0  0  0  0  0  0  0
   15.6554  -18.5987   16.1368 C   0  0  0  0  0  0  0  0  0  0  0  0
   15.4756  -19.8142   15.8949 O   0  0  0  0  0  0  0  0  0  0  0  0
   13.9108  -18.2409   18.4838 C   0  0  0  0  0  0  0  0  0  0  0  0
   14.4508  -17.2454   19.0393 O   0  0  0  0  0  0  0  0  0  0  0  0
   16.9509  -18.1820   16.3934 O   0  0  0  0  0  0  0  0  0  0  0  0
   10.8983  -19.5748   23.2167 N   0  0  0  0  0  0  0  0  0  0  0  0
   11.9006  -20.5222   22.8849 C   0  0  0  0  0  0  0  0  0  0  0  0
   12.4471  -21.1442   23.8454 O   0  0  0  0  0  0  0  0  0  0  0  0
   12.3395  -20.8331   21.5158 C   0  0  0  0  0  0  0  0  0  0  0  0
   13.7940  -20.7689   21.2543 C   0  0  0  0  0  0  0  0  0  0  0  0
   14.3583  -19.5683   20.6123 C   0  0  2  0  0  0  0  0  0  0  0  0
   13.8371  -19.4267   19.2354 N   0  0  0  0  0  0  0  0  0  0  0  0
   15.7861  -19.3635   20.6750 C   0  0  0  0  0  0  0  0  0  0  0  0
   16.6189  -19.9650   19.9574 O   0  0  0  0  0  0  0  0  0  0  0  0
   16.3454  -18.4363   21.5847 O   0  0  0  0  0  0  0  0  0  0  0  0
  2  1  1  6
  3  4  1  0
  3  2  1  0
  4  5  2  0
  4  8  1  0
  5  6  1  0
  6  7  1  0
  8  7  2  0
  9 11  1  0
  9  2  1  0
 10  9  2  0
 12 11  1  0
 13 14  1  0
 12 13  1  6
 14 15  2  0
 16 17  2  0
 16 12  1  0
 18 14  1  0
 19 20  1  0
 20 22  1  0
 21 20  2  0
 23 22  1  0
 24 25  1  0
 24 23  1  6
 25 16  1  0
 26 24  1  0
 27 26  2  0
 28 26  1  0
M  END
$$$$
