HDQ.pdb
     RDKit          3D

 28 28  0  0  1  0  0  0  0  0999 V2000
    9.9617  -14.6618   19.8259 N   0  0  0  0  0  0  0  0  0  0  0  0
    8.7577  -14.9098   20.6172 C   0  0  1  0  0  0  0  0  0  0  0  0
    7.7368  -15.4894   19.6642 C   0  0  0  0  0  0  0  0  0  0  0  0
    7.6945  -14.6535   18.4145 C   0  0  0  0  0  0  0  0  0  0  0  0
    8.5598  -13.6057   18.1050 C   0  0  0  0  0  0  0  0  0  0  0  0
    8.1847  -13.1285   16.9050 N   0  0  0  0  0  0  0  0  0  0  0  0
    7.1190  -13.8379   16.4541 C   0  0  0  0  0  0  0  0  0  0  0  0
    6.8508  -14.7440   17.3826 N   0  0  0  0  0  0  0  0  0  0  0  0
    9.0788  -15.8410   21.7175 C   0  0  0  0  0  0  0  0  0  0  0  0
    8.2281  -16.2074   22.5871 O   0  0  0  0  0  0  0  0  0  0  0  0
   10.3834  -16.3842   21.8579 N   0  0  0  0  0  0  0  0  0  0  0  0
   10.7921  -17.1845   22.9798 C   0  0  1  0  0  0  0  0  0  0  0  0
   12.1195  -17.8609   22.7135 C   0  0  0  0  0  0  0  0  0  0  0  0
   12.5652  -18.7374   23.8187 C   0  0  0  0  0  0  0  0  0  0  0  0
   13.5554  -18.4081   24.5109 O   0  0  0  0  0  0  0  0  0  0  0  0
   10.7483  -16.4852   24.2599 C   0  0  0  0  0  0  0  0  0  0  0  0
   11.6218  -15.5995   24.4691 O   0  0  0  0  0  0  0  0  0  0  0  0
   11.9316  -19.9278   24.1336 O   0  0  0  0  0  0  0  0  0  0  0  0
    6.2116  -13.0888   25.7428 N   0  0  0  0  0  0  0  0  0  0  0  0
    7.0330  -12.9796   26.8941 C   0  0  0  0  0  0  0  0  0  0  0  0
    6.7694  -12.0399   27.7038 O   0  0  0  0  0  0  0  0  0  0  0  0
    8.1540  -13.8774   27.2120 C   0  0  0  0  0  0  0  0  0  0  0  0
    8.4597  -14.9336   26.2226 C   0  0  0  0  0  0  0  0  0  0  0  0
    9.6207  -15.8139   26.4442 C   0  0  2  0  0  0  0  0  0  0  0  0
    9.8144  -16.7131   25.2859 N   0  0  0  0  0  0  0  0  0  0  0  0
    9.7170  -16.5198   27.7000 C   0  0  0  0  0  0  0  0  0  0  0  0
   10.7749  -16.6493   28.3591 O   0  0  0  0  0  0  0  0  0  0  0  0
    8.5784  -17.1271   28.2785 O   0  0  0  0  0  0  0  0  0  0  0  0
  2  1  1  6
  3  4  1  0
  3  2  1  0
  4  5  2  0
  4  8  1  0
  5  6  1  0
  6  7  1  0
  8  7  2  0
  9 11  1  0
  9  2  1  0
 10  9  2  0
 12 11  1  0
 13 14  1  0
 12 13  1  6
 14 15  2  0
 16 17  2  0
 16 12  1  0
 18 14  1  0
 19 20  1  0
 20 22  1  0
 21 20  2  0
 23 22  1  0
 24 25  1  0
 24 23  1  6
 25 16  1  0
 26 24  1  0
 27 26  2  0
 28 26  1  0
M  END
$$$$
