HDQ.pdb
     RDKit          3D

 28 28  0  0  1  0  0  0  0  0999 V2000
    9.8791  -15.9779   18.5242 N   0  0  0  0  0  0  0  0  0  0  0  0
   10.8281  -14.8698   18.6187 C   0  0  1  0  0  0  0  0  0  0  0  0
   10.3389  -13.9885   19.7459 C   0  0  0  0  0  0  0  0  0  0  0  0
    8.9634  -13.4780   19.4149 C   0  0  0  0  0  0  0  0  0  0  0  0
    8.6234  -12.1479   19.1751 C   0  0  0  0  0  0  0  0  0  0  0  0
    7.3042  -12.1208   18.9155 N   0  0  0  0  0  0  0  0  0  0  0  0
    6.8082  -13.3824   18.9842 C   0  0  0  0  0  0  0  0  0  0  0  0
    7.8289  -14.1714   19.2854 N   0  0  0  0  0  0  0  0  0  0  0  0
   12.1795  -15.4044   18.8809 C   0  0  0  0  0  0  0  0  0  0  0  0
   12.3869  -16.4913   19.5052 O   0  0  0  0  0  0  0  0  0  0  0  0
   13.3377  -14.7133   18.4361 N   0  0  0  0  0  0  0  0  0  0  0  0
   14.6774  -15.1218   18.7594 C   0  0  1  0  0  0  0  0  0  0  0  0
   15.6826  -14.4900   17.8210 C   0  0  0  0  0  0  0  0  0  0  0  0
   15.5801  -14.9835   16.4303 C   0  0  0  0  0  0  0  0  0  0  0  0
   15.4227  -16.2073   16.2163 O   0  0  0  0  0  0  0  0  0  0  0  0
   15.0262  -14.9650   20.1678 C   0  0  0  0  0  0  0  0  0  0  0  0
   15.0939  -13.7906   20.6231 O   0  0  0  0  0  0  0  0  0  0  0  0
   15.6512  -14.1454   15.3301 O   0  0  0  0  0  0  0  0  0  0  0  0
   13.6426  -19.2358   24.7124 N   0  0  0  0  0  0  0  0  0  0  0  0
   14.2105  -18.1240   25.3859 C   0  0  0  0  0  0  0  0  0  0  0  0
   14.2832  -18.1909   26.6502 O   0  0  0  0  0  0  0  0  0  0  0  0
   14.7214  -16.9143   24.7231 C   0  0  0  0  0  0  0  0  0  0  0  0
   14.7658  -16.9357   23.2448 C   0  0  0  0  0  0  0  0  0  0  0  0
   15.4336  -15.8347   22.5280 C   0  0  2  0  0  0  0  0  0  0  0  0
   15.2953  -16.0124   21.0662 N   0  0  0  0  0  0  0  0  0  0  0  0
   16.7832  -15.4883   22.9065 C   0  0  0  0  0  0  0  0  0  0  0  0
   17.0961  -14.9466   23.9923 O   0  0  0  0  0  0  0  0  0  0  0  0
   17.8687  -15.7518   22.0392 O   0  0  0  0  0  0  0  0  0  0  0  0
  2  1  1  1
  3  4  1  0
  3  2  1  0
  4  5  2  0
  4  8  1  0
  5  6  1  0
  6  7  1  0
  8  7  2  0
  9 11  1  0
  9  2  1  0
 10  9  2  0
 12 11  1  0
 13 14  1  0
 12 13  1  6
 14 15  2  0
 16 17  2  0
 16 12  1  0
 18 14  1  0
 19 20  1  0
 20 22  1  0
 21 20  2  0
 23 22  1  0
 24 25  1  0
 24 23  1  1
 25 16  1  0
 26 24  1  0
 27 26  2  0
 28 26  1  0
M  END
$$$$
