HDQ.pdb
     RDKit          3D

 28 28  0  0  1  0  0  0  0  0999 V2000
    7.1498  -17.3043   20.1043 N   0  0  0  0  0  0  0  0  0  0  0  0
    8.2117  -16.4468   20.6279 C   0  0  1  0  0  0  0  0  0  0  0  0
    7.5616  -15.1225   20.9599 C   0  0  0  0  0  0  0  0  0  0  0  0
    7.8794  -14.1288   19.8765 C   0  0  0  0  0  0  0  0  0  0  0  0
    8.6138  -14.3896   18.7211 C   0  0  0  0  0  0  0  0  0  0  0  0
    8.6646  -13.2424   18.0211 N   0  0  0  0  0  0  0  0  0  0  0  0
    7.9905  -12.2763   18.6952 C   0  0  0  0  0  0  0  0  0  0  0  0
    7.5324  -12.8409   19.8028 N   0  0  0  0  0  0  0  0  0  0  0  0
    8.8115  -17.0826   21.8183 C   0  0  0  0  0  0  0  0  0  0  0  0
    8.1405  -17.7683   22.6512 O   0  0  0  0  0  0  0  0  0  0  0  0
   10.1988  -16.9555   22.0937 N   0  0  0  0  0  0  0  0  0  0  0  0
   10.8019  -17.3673   23.3318 C   0  0  1  0  0  0  0  0  0  0  0  0
   12.2352  -17.8057   23.1220 C   0  0  0  0  0  0  0  0  0  0  0  0
   12.8589  -18.3778   24.3352 C   0  0  0  0  0  0  0  0  0  0  0  0
   14.1067  -18.4028   24.4384 O   0  0  0  0  0  0  0  0  0  0  0  0
   10.6464  -16.4078   24.4203 C   0  0  0  0  0  0  0  0  0  0  0  0
   11.3339  -15.3515   24.3673 O   0  0  0  0  0  0  0  0  0  0  0  0
   12.1195  -18.8985   25.3839 O   0  0  0  0  0  0  0  0  0  0  0  0
    6.6119  -11.5737   27.4679 N   0  0  0  0  0  0  0  0  0  0  0  0
    6.8609  -12.9211   27.1008 C   0  0  0  0  0  0  0  0  0  0  0  0
    5.9096  -13.5546   26.5515 O   0  0  0  0  0  0  0  0  0  0  0  0
    8.1369  -13.6235   27.3062 C   0  0  0  0  0  0  0  0  0  0  0  0
    8.4382  -14.7372   26.3806 C   0  0  0  0  0  0  0  0  0  0  0  0
    9.6468  -15.5510   26.6020 C   0  0  2  0  0  0  0  0  0  0  0  0
    9.7943  -16.5577   25.5284 N   0  0  0  0  0  0  0  0  0  0  0  0
    9.8606  -16.1201   27.9116 C   0  0  0  0  0  0  0  0  0  0  0  0
    9.7543  -17.3399   28.1784 O   0  0  0  0  0  0  0  0  0  0  0  0
   10.2161  -15.3007   29.0080 O   0  0  0  0  0  0  0  0  0  0  0  0
  2  1  1  1
  3  4  1  0
  3  2  1  0
  4  5  2  0
  4  8  1  0
  5  6  1  0
  6  7  1  0
  8  7  2  0
  9 11  1  0
  9  2  1  0
 10  9  2  0
 12 11  1  0
 13 14  1  0
 12 13  1  6
 14 15  2  0
 16 17  2  0
 16 12  1  0
 18 14  1  0
 19 20  1  0
 20 22  1  0
 21 20  2  0
 23 22  1  0
 24 25  1  0
 24 23  1  1
 25 16  1  0
 26 24  1  0
 27 26  2  0
 28 26  1  0
M  END
$$$$
