HDQ.pdb
     RDKit          3D

 28 28  0  0  1  0  0  0  0  0999 V2000
    7.9402  -17.0390   19.7381 N   0  0  0  0  0  0  0  0  0  0  0  0
    8.6671  -16.6123   20.9325 C   0  0  1  0  0  0  0  0  0  0  0  0
    7.9073  -15.4301   21.4908 C   0  0  0  0  0  0  0  0  0  0  0  0
    7.8827  -14.3285   20.4671 C   0  0  0  0  0  0  0  0  0  0  0  0
    6.7498  -13.8509   19.8106 C   0  0  0  0  0  0  0  0  0  0  0  0
    7.1584  -12.8709   18.9853 N   0  0  0  0  0  0  0  0  0  0  0  0
    8.5022  -12.7189   19.1014 C   0  0  0  0  0  0  0  0  0  0  0  0
    8.9048  -13.6077   19.9976 N   0  0  0  0  0  0  0  0  0  0  0  0
    8.7307  -17.7326   21.8927 C   0  0  0  0  0  0  0  0  0  0  0  0
    7.7674  -18.0442   22.6603 O   0  0  0  0  0  0  0  0  0  0  0  0
    9.8980  -18.5336   22.0049 N   0  0  0  0  0  0  0  0  0  0  0  0
   10.1045  -19.4900   23.0578 C   0  0  1  0  0  0  0  0  0  0  0  0
   10.4834  -20.8444   22.4989 C   0  0  0  0  0  0  0  0  0  0  0  0
   10.6053  -21.8946   23.5336 C   0  0  0  0  0  0  0  0  0  0  0  0
   11.6375  -21.9523   24.2403 O   0  0  0  0  0  0  0  0  0  0  0  0
   11.0011  -19.0313   24.1141 C   0  0  0  0  0  0  0  0  0  0  0  0
   12.1437  -18.6220   23.7702 O   0  0  0  0  0  0  0  0  0  0  0  0
    9.6173  -22.8368   23.7655 O   0  0  0  0  0  0  0  0  0  0  0  0
   12.9223  -14.7160   24.5571 N   0  0  0  0  0  0  0  0  0  0  0  0
   13.8512  -15.6931   24.9984 C   0  0  0  0  0  0  0  0  0  0  0  0
   15.0772  -15.4720   24.7618 O   0  0  0  0  0  0  0  0  0  0  0  0
   13.4923  -16.9293   25.7103 C   0  0  0  0  0  0  0  0  0  0  0  0
   12.0696  -17.0930   26.0806 C   0  0  0  0  0  0  0  0  0  0  0  0
   11.5862  -18.4153   26.5164 C   0  0  2  0  0  0  0  0  0  0  0  0
   10.7027  -19.0059   25.4877 N   0  0  0  0  0  0  0  0  0  0  0  0
   11.0314  -18.5400   27.8435 C   0  0  0  0  0  0  0  0  0  0  0  0
   11.5759  -18.0980   28.8819 O   0  0  0  0  0  0  0  0  0  0  0  0
    9.7945  -19.1929   28.0529 O   0  0  0  0  0  0  0  0  0  0  0  0
  2  1  1  6
  3  4  1  0
  3  2  1  0
  4  5  2  0
  4  8  1  0
  5  6  1  0
  6  7  1  0
  8  7  2  0
  9 11  1  0
  9  2  1  0
 10  9  2  0
 12 11  1  0
 13 14  1  0
 12 13  1  6
 14 15  2  0
 16 17  2  0
 16 12  1  0
 18 14  1  0
 19 20  1  0
 20 22  1  0
 21 20  2  0
 23 22  1  0
 24 25  1  0
 24 23  1  6
 25 16  1  0
 26 24  1  0
 27 26  2  0
 28 26  1  0
M  END
$$$$
