HDQ.pdb
     RDKit          3D

 28 28  0  0  1  0  0  0  0  0999 V2000
    8.2373  -17.2002   17.8300 N   0  0  0  0  0  0  0  0  0  0  0  0
    9.4356  -16.4210   18.1366 C   0  0  1  0  0  0  0  0  0  0  0  0
    8.9692  -15.2224   18.9318 C   0  0  0  0  0  0  0  0  0  0  0  0
    8.1272  -14.3405   18.0512 C   0  0  0  0  0  0  0  0  0  0  0  0
    7.7925  -14.5962   16.7226 C   0  0  0  0  0  0  0  0  0  0  0  0
    7.0310  -13.5695   16.3051 N   0  0  0  0  0  0  0  0  0  0  0  0
    6.8779  -12.6832   17.3217 C   0  0  0  0  0  0  0  0  0  0  0  0
    7.5473  -13.1755   18.3534 N   0  0  0  0  0  0  0  0  0  0  0  0
   10.3811  -17.2587   18.9016 C   0  0  0  0  0  0  0  0  0  0  0  0
   10.0241  -18.0037   19.8668 O   0  0  0  0  0  0  0  0  0  0  0  0
   11.7658  -17.2720   18.5864 N   0  0  0  0  0  0  0  0  0  0  0  0
   12.7705  -17.8252   19.4528 C   0  0  1  0  0  0  0  0  0  0  0  0
   14.1185  -17.8712   18.7663 C   0  0  0  0  0  0  0  0  0  0  0  0
   14.1316  -18.7156   17.5518 C   0  0  0  0  0  0  0  0  0  0  0  0
   14.6969  -18.3011   16.5141 O   0  0  0  0  0  0  0  0  0  0  0  0
   12.8190  -17.2146   20.7774 C   0  0  0  0  0  0  0  0  0  0  0  0
   12.5820  -15.9782   20.8570 O   0  0  0  0  0  0  0  0  0  0  0  0
   13.5385  -19.9660   17.5016 O   0  0  0  0  0  0  0  0  0  0  0  0
    8.7023  -15.6013   23.2919 N   0  0  0  0  0  0  0  0  0  0  0  0
    9.5074  -15.6124   24.4598 C   0  0  0  0  0  0  0  0  0  0  0  0
    9.0290  -15.0587   25.4955 O   0  0  0  0  0  0  0  0  0  0  0  0
   10.8428  -16.2222   24.5513 C   0  0  0  0  0  0  0  0  0  0  0  0
   11.3939  -16.8033   23.3076 C   0  0  0  0  0  0  0  0  0  0  0  0
   12.7525  -17.3743   23.3196 C   0  0  2  0  0  0  0  0  0  0  0  0
   13.1086  -17.8858   21.9783 N   0  0  0  0  0  0  0  0  0  0  0  0
   13.0945  -18.3100   24.3647 C   0  0  0  0  0  0  0  0  0  0  0  0
   13.0405  -19.5560   24.2436 O   0  0  0  0  0  0  0  0  0  0  0  0
   13.5266  -17.8541   25.6318 O   0  0  0  0  0  0  0  0  0  0  0  0
  2  1  1  1
  3  4  1  0
  3  2  1  0
  4  5  2  0
  4  8  1  0
  5  6  1  0
  6  7  1  0
  8  7  2  0
  9 11  1  0
  9  2  1  0
 10  9  2  0
 12 11  1  0
 13 14  1  0
 12 13  1  6
 14 15  2  0
 16 17  2  0
 16 12  1  0
 18 14  1  0
 19 20  1  0
 20 22  1  0
 21 20  2  0
 23 22  1  0
 24 25  1  0
 24 23  1  6
 25 16  1  0
 26 24  1  0
 27 26  2  0
 28 26  1  0
M  END
$$$$
