HDQ.pdb
     RDKit          3D

 28 28  0  0  1  0  0  0  0  0999 V2000
    7.6560  -17.2119   20.4817 N   0  0  0  0  0  0  0  0  0  0  0  0
    8.7574  -16.4794   21.1044 C   0  0  1  0  0  0  0  0  0  0  0  0
    8.1577  -15.2097   21.6655 C   0  0  0  0  0  0  0  0  0  0  0  0
    8.1552  -14.1492   20.5989 C   0  0  0  0  0  0  0  0  0  0  0  0
    8.6715  -14.2865   19.3117 C   0  0  0  0  0  0  0  0  0  0  0  0
    8.4683  -13.1165   18.6806 N   0  0  0  0  0  0  0  0  0  0  0  0
    7.8453  -12.2549   19.5242 C   0  0  0  0  0  0  0  0  0  0  0  0
    7.6725  -12.9054   20.6653 N   0  0  0  0  0  0  0  0  0  0  0  0
    9.3672  -17.3158   22.1578 C   0  0  0  0  0  0  0  0  0  0  0  0
    8.6881  -18.0520   22.9394 O   0  0  0  0  0  0  0  0  0  0  0  0
   10.7740  -17.3379   22.3503 N   0  0  0  0  0  0  0  0  0  0  0  0
   11.4154  -18.0393   23.4286 C   0  0  1  0  0  0  0  0  0  0  0  0
   12.7089  -18.6784   22.9717 C   0  0  0  0  0  0  0  0  0  0  0  0
   13.4378  -19.3715   24.0564 C   0  0  0  0  0  0  0  0  0  0  0  0
   13.0362  -20.4869   24.4597 O   0  0  0  0  0  0  0  0  0  0  0  0
   11.5609  -17.2532   24.6496 C   0  0  0  0  0  0  0  0  0  0  0  0
   11.8750  -16.0379   24.5250 O   0  0  0  0  0  0  0  0  0  0  0  0
   14.5640  -18.8396   24.6619 O   0  0  0  0  0  0  0  0  0  0  0  0
    8.2982  -13.6701   26.5289 N   0  0  0  0  0  0  0  0  0  0  0  0
    9.0498  -13.7676   27.7280 C   0  0  0  0  0  0  0  0  0  0  0  0
    8.8248  -12.8972   28.6223 O   0  0  0  0  0  0  0  0  0  0  0  0
   10.0573  -14.8033   28.0036 C   0  0  0  0  0  0  0  0  0  0  0  0
   10.3206  -15.7778   26.9224 C   0  0  0  0  0  0  0  0  0  0  0  0
   11.2870  -16.8662   27.1532 C   0  0  2  0  0  0  0  0  0  0  0  0
   11.3819  -17.7334   25.9588 N   0  0  0  0  0  0  0  0  0  0  0  0
   11.1792  -17.6327   28.3720 C   0  0  0  0  0  0  0  0  0  0  0  0
   11.3082  -17.1533   29.5226 O   0  0  0  0  0  0  0  0  0  0  0  0
   10.9112  -19.0208   28.3332 O   0  0  0  0  0  0  0  0  0  0  0  0
  2  1  1  1
  3  4  1  0
  3  2  1  0
  4  5  2  0
  4  8  1  0
  5  6  1  0
  6  7  1  0
  8  7  2  0
  9 11  1  0
  9  2  1  0
 10  9  2  0
 12 11  1  0
 13 14  1  0
 12 13  1  6
 14 15  2  0
 16 17  2  0
 16 12  1  0
 18 14  1  0
 19 20  1  0
 20 22  1  0
 21 20  2  0
 23 22  1  0
 24 25  1  0
 24 23  1  6
 25 16  1  0
 26 24  1  0
 27 26  2  0
 28 26  1  0
M  END
$$$$
