HDQ.pdb
     RDKit          3D

 28 28  0  0  1  0  0  0  0  0999 V2000
   10.0195  -15.6861   20.6375 N   0  0  0  0  0  0  0  0  0  0  0  0
    9.5231  -15.0449   21.8539 C   0  0  1  0  0  0  0  0  0  0  0  0
    8.0310  -14.8837   21.6688 C   0  0  0  0  0  0  0  0  0  0  0  0
    7.7676  -14.1441   20.3859 C   0  0  0  0  0  0  0  0  0  0  0  0
    8.0558  -12.8021   20.1447 C   0  0  0  0  0  0  0  0  0  0  0  0
    7.6699  -12.5383   18.8837 N   0  0  0  0  0  0  0  0  0  0  0  0
    7.1521  -13.6638   18.3292 C   0  0  0  0  0  0  0  0  0  0  0  0
    7.2256  -14.6074   19.2562 N   0  0  0  0  0  0  0  0  0  0  0  0
    9.8478  -15.8908   23.0200 C   0  0  0  0  0  0  0  0  0  0  0  0
    9.1005  -15.9779   24.0438 O   0  0  0  0  0  0  0  0  0  0  0  0
   11.0375  -16.6655   23.0523 N   0  0  0  0  0  0  0  0  0  0  0  0
   11.4676  -17.4098   24.2043 C   0  0  1  0  0  0  0  0  0  0  0  0
   12.7415  -18.1745   23.9162 C   0  0  0  0  0  0  0  0  0  0  0  0
   12.6440  -19.0546   22.7312 C   0  0  0  0  0  0  0  0  0  0  0  0
   11.6141  -19.7445   22.5539 O   0  0  0  0  0  0  0  0  0  0  0  0
   11.5322  -16.6247   25.4327 C   0  0  0  0  0  0  0  0  0  0  0  0
   12.0772  -15.4888   25.3692 O   0  0  0  0  0  0  0  0  0  0  0  0
   13.6536  -19.1577   21.7889 O   0  0  0  0  0  0  0  0  0  0  0  0
    8.5672  -12.5530   27.3327 N   0  0  0  0  0  0  0  0  0  0  0  0
    8.0718  -13.8518   27.0501 C   0  0  0  0  0  0  0  0  0  0  0  0
    6.8718  -13.9368   26.6492 O   0  0  0  0  0  0  0  0  0  0  0  0
    8.8502  -15.0928   27.1829 C   0  0  0  0  0  0  0  0  0  0  0  0
   10.2410  -14.9555   27.6672 C   0  0  0  0  0  0  0  0  0  0  0  0
   11.0485  -16.1677   27.8924 C   0  0  2  0  0  0  0  0  0  0  0  0
   11.0390  -17.0247   26.6870 N   0  0  0  0  0  0  0  0  0  0  0  0
   10.8237  -16.9276   29.0994 C   0  0  0  0  0  0  0  0  0  0  0  0
   10.8347  -16.4406   30.2539 O   0  0  0  0  0  0  0  0  0  0  0  0
   10.5682  -18.3174   29.0429 O   0  0  0  0  0  0  0  0  0  0  0  0
  2  1  1  6
  3  4  1  0
  3  2  1  0
  4  5  2  0
  4  8  1  0
  5  6  1  0
  6  7  1  0
  8  7  2  0
  9 11  1  0
  9  2  1  0
 10  9  2  0
 12 11  1  0
 13 14  1  0
 12 13  1  6
 14 15  2  0
 16 17  2  0
 16 12  1  0
 18 14  1  0
 19 20  1  0
 20 22  1  0
 21 20  2  0
 23 22  1  0
 24 25  1  0
 24 23  1  6
 25 16  1  0
 26 24  1  0
 27 26  2  0
 28 26  1  0
M  END
$$$$
