HDQ.pdb
     RDKit          3D

 28 28  0  0  1  0  0  0  0  0999 V2000
    9.5902  -15.8389   17.7141 N   0  0  0  0  0  0  0  0  0  0  0  0
   10.4167  -14.6923   18.0872 C   0  0  1  0  0  0  0  0  0  0  0  0
    9.6920  -13.9983   19.2185 C   0  0  0  0  0  0  0  0  0  0  0  0
    8.3559  -13.5127   18.7273 C   0  0  0  0  0  0  0  0  0  0  0  0
    7.8545  -13.6726   17.4367 C   0  0  0  0  0  0  0  0  0  0  0  0
    6.6372  -13.1016   17.4151 N   0  0  0  0  0  0  0  0  0  0  0  0
    6.3599  -12.5917   18.6420 C   0  0  0  0  0  0  0  0  0  0  0  0
    7.4106  -12.8552   19.4046 N   0  0  0  0  0  0  0  0  0  0  0  0
   11.7546  -15.1659   18.4953 C   0  0  0  0  0  0  0  0  0  0  0  0
   11.9452  -16.2601   19.1121 O   0  0  0  0  0  0  0  0  0  0  0  0
   12.9182  -14.4035   18.2098 N   0  0  0  0  0  0  0  0  0  0  0  0
   14.2354  -14.7723   18.6513 C   0  0  1  0  0  0  0  0  0  0  0  0
   15.3009  -14.0791   17.8300 C   0  0  0  0  0  0  0  0  0  0  0  0
   16.6732  -14.5349   18.1418 C   0  0  0  0  0  0  0  0  0  0  0  0
   16.9027  -15.7572   18.2883 O   0  0  0  0  0  0  0  0  0  0  0  0
   14.4414  -14.6422   20.0902 C   0  0  0  0  0  0  0  0  0  0  0  0
   14.4924  -13.4756   20.5674 O   0  0  0  0  0  0  0  0  0  0  0  0
   17.7391  -13.6621   18.2835 O   0  0  0  0  0  0  0  0  0  0  0  0
   11.4160  -17.7500   24.3807 N   0  0  0  0  0  0  0  0  0  0  0  0
   11.1854  -16.5854   23.6044 C   0  0  0  0  0  0  0  0  0  0  0  0
    9.9796  -16.2249   23.4493 O   0  0  0  0  0  0  0  0  0  0  0  0
   12.2400  -15.7725   22.9793 C   0  0  0  0  0  0  0  0  0  0  0  0
   13.6321  -16.2391   23.1591 C   0  0  0  0  0  0  0  0  0  0  0  0
   14.7230  -15.5378   22.4591 C   0  0  2  0  0  0  0  0  0  0  0  0
   14.5896  -15.7073   20.9958 N   0  0  0  0  0  0  0  0  0  0  0  0
   16.0779  -15.7548   22.9083 C   0  0  0  0  0  0  0  0  0  0  0  0
   16.9936  -16.2237   22.1929 O   0  0  0  0  0  0  0  0  0  0  0  0
   16.4615  -15.4372   24.2320 O   0  0  0  0  0  0  0  0  0  0  0  0
  2  1  1  1
  3  4  1  0
  3  2  1  0
  4  5  2  0
  4  8  1  0
  5  6  1  0
  6  7  1  0
  8  7  2  0
  9 11  1  0
  9  2  1  0
 10  9  2  0
 12 11  1  0
 13 14  1  0
 12 13  1  6
 14 15  2  0
 16 17  2  0
 16 12  1  0
 18 14  1  0
 19 20  1  0
 20 22  1  0
 21 20  2  0
 23 22  1  0
 24 25  1  0
 24 23  1  1
 25 16  1  0
 26 24  1  0
 27 26  2  0
 28 26  1  0
M  END
$$$$
