HNF.pdb
     RDKit          3D

 30 31  0  0  1  0  0  0  0  0999 V2000
   33.5317  -12.5211  -20.5731 N   0  0  0  0  0  0  0  0  0  0  0  0
   33.1102  -13.1805  -19.3493 C   0  0  1  0  0  0  0  0  0  0  0  0
   33.2355  -12.1531  -18.2385 C   0  0  0  0  0  0  0  0  0  0  0  0
   34.6208  -11.8795  -17.8498 C   0  0  0  0  0  0  0  0  0  0  0  0
   35.7597  -12.3475  -18.4851 C   0  0  0  0  0  0  0  0  0  0  0  0
   36.8581  -11.9084  -17.8467 N   0  0  0  0  0  0  0  0  0  0  0  0
   36.4108  -11.1732  -16.8231 C   0  0  0  0  0  0  0  0  0  0  0  0
   35.0657  -11.1452  -16.8099 N   0  0  0  0  0  0  0  0  0  0  0  0
   31.6970  -13.5989  -19.5340 C   0  0  0  0  0  0  0  0  0  0  0  0
   30.8746  -12.9784  -20.2721 O   0  0  0  0  0  0  0  0  0  0  0  0
   27.2459  -15.8440  -19.4253 N   0  0  0  0  0  0  0  0  0  0  0  0
   28.1450  -16.9112  -19.2048 C   0  0  0  0  0  0  0  0  0  0  0  0
   27.7359  -18.0805  -19.2874 O   0  0  0  0  0  0  0  0  0  0  0  0
   29.5544  -16.6160  -18.8812 C   0  0  0  0  0  0  0  0  0  0  0  0
   29.7860  -15.1308  -18.9703 C   0  0  2  0  0  0  0  0  0  0  0  0
   31.1518  -14.7458  -18.8855 N   0  0  0  0  0  0  0  0  0  0  0  0
   28.9123  -14.4063  -18.0094 C   0  0  0  0  0  0  0  0  0  0  0  0
   29.0050  -14.7402  -16.7785 O   0  0  0  0  0  0  0  0  0  0  0  0
   28.0128  -13.3997  -18.3707 N   0  0  0  0  0  0  0  0  0  0  0  0
   27.2533  -12.7003  -17.3558 C   0  0  1  0  0  0  0  0  0  0  0  0
   28.1741  -12.1326  -16.2894 C   0  0  0  0  0  0  0  0  0  0  0  0
   29.0409  -11.0460  -16.7655 C   0  0  0  0  0  0  0  0  0  0  0  0
   30.4358  -11.1363  -16.7348 C   0  0  0  0  0  0  0  0  0  0  0  0
   31.2407  -10.1207  -17.1942 C   0  0  0  0  0  0  0  0  0  0  0  0
   30.6983   -8.9664  -17.7065 C   0  0  0  0  0  0  0  0  0  0  0  0
   29.3278   -8.8518  -17.7479 C   0  0  0  0  0  0  0  0  0  0  0  0
   28.5296   -9.8740  -17.2859 C   0  0  0  0  0  0  0  0  0  0  0  0
   26.3176  -11.7251  -17.9183 C   0  0  0  0  0  0  0  0  0  0  0  0
   25.5721  -11.0750  -17.1551 O   0  0  0  0  0  0  0  0  0  0  0  0
   26.2061  -11.4732  -19.2797 O   0  0  0  0  0  0  0  0  0  0  0  0
  2  1  1  6
  2  3  1  0
  4  3  1  0
  4  8  1  0
  5  6  1  0
  5  4  2  0
  6  7  1  0
  7  8  2  0
  9 10  2  0
  9  2  1  0
 11 12  1  0
 12 14  1  0
 13 12  2  0
 15 14  1  1
 15 16  1  0
 16  9  1  0
 17 19  1  0
 17 15  1  0
 18 17  2  0
 20 19  1  0
 20 28  1  0
 20 21  1  1
 22 23  2  0
 22 21  1  0
 24 23  1  0
 25 24  2  0
 26 25  1  0
 26 27  2  0
 27 22  1  0
 28 30  1  0
 29 28  2  0
M  END
$$$$
