HNF.pdb
     RDKit          3D

 30 31  0  0  1  0  0  0  0  0999 V2000
   26.7864  -20.5423  -18.7619 N   0  0  0  0  0  0  0  0  0  0  0  0
   27.0025  -20.8365  -17.3559 C   0  0  1  0  0  0  0  0  0  0  0  0
   27.2207  -19.5033  -16.6631 C   0  0  0  0  0  0  0  0  0  0  0  0
   28.4160  -18.7941  -17.1249 C   0  0  0  0  0  0  0  0  0  0  0  0
   29.6650  -19.3499  -17.3502 C   0  0  0  0  0  0  0  0  0  0  0  0
   30.5266  -18.4010  -17.7550 N   0  0  0  0  0  0  0  0  0  0  0  0
   29.8238  -17.2636  -17.7828 C   0  0  0  0  0  0  0  0  0  0  0  0
   28.5507  -17.4822  -17.4063 N   0  0  0  0  0  0  0  0  0  0  0  0
   25.7786  -21.5086  -16.8493 C   0  0  0  0  0  0  0  0  0  0  0  0
   24.6056  -21.1856  -17.2041 O   0  0  0  0  0  0  0  0  0  0  0  0
   26.1960  -26.3019  -16.3539 N   0  0  0  0  0  0  0  0  0  0  0  0
   25.0837  -25.4368  -16.2534 C   0  0  0  0  0  0  0  0  0  0  0  0
   24.2968  -25.3413  -17.2090 O   0  0  0  0  0  0  0  0  0  0  0  0
   24.8773  -24.6630  -15.0137 C   0  0  0  0  0  0  0  0  0  0  0  0
   24.6832  -23.2103  -15.3591 C   0  0  2  0  0  0  0  0  0  0  0  0
   25.8321  -22.5821  -15.9124 N   0  0  0  0  0  0  0  0  0  0  0  0
   24.1098  -22.4697  -14.2038 C   0  0  0  0  0  0  0  0  0  0  0  0
   24.8544  -22.3414  -13.1722 O   0  0  0  0  0  0  0  0  0  0  0  0
   22.8265  -21.9167  -14.1842 N   0  0  0  0  0  0  0  0  0  0  0  0
   22.4241  -21.0439  -13.1016 C   0  0  1  0  0  0  0  0  0  0  0  0
   23.4177  -19.9082  -12.9273 C   0  0  0  0  0  0  0  0  0  0  0  0
   24.4443  -20.1640  -11.9077 C   0  0  0  0  0  0  0  0  0  0  0  0
   25.7674  -20.4691  -12.2409 C   0  0  0  0  0  0  0  0  0  0  0  0
   26.7258  -20.6944  -11.2812 C   0  0  0  0  0  0  0  0  0  0  0  0
   26.4157  -20.6273   -9.9440 C   0  0  0  0  0  0  0  0  0  0  0  0
   25.1203  -20.3291   -9.5887 C   0  0  0  0  0  0  0  0  0  0  0  0
   24.1672  -20.1046  -10.5565 C   0  0  0  0  0  0  0  0  0  0  0  0
   21.0311  -20.6075  -13.2122 C   0  0  0  0  0  0  0  0  0  0  0  0
   20.4299  -20.7349  -14.2999 O   0  0  0  0  0  0  0  0  0  0  0  0
   20.3216  -20.0480  -12.1573 O   0  0  0  0  0  0  0  0  0  0  0  0
  2  1  1  6
  2  3  1  0
  4  3  1  0
  4  8  1  0
  5  6  1  0
  5  4  2  0
  6  7  1  0
  7  8  2  0
  9 10  2  0
  9  2  1  0
 11 12  1  0
 12 14  1  0
 13 12  2  0
 15 14  1  1
 15 16  1  0
 16  9  1  0
 17 19  1  0
 17 15  1  0
 18 17  2  0
 20 19  1  0
 20 28  1  0
 20 21  1  6
 22 23  2  0
 22 21  1  0
 24 23  1  0
 25 24  2  0
 26 25  1  0
 26 27  2  0
 27 22  1  0
 28 30  1  0
 29 28  2  0
M  END
$$$$
