HNF.pdb
     RDKit          3D

 30 31  0  0  1  0  0  0  0  0999 V2000
   21.9099  -14.4097  -19.3268 N   0  0  0  0  0  0  0  0  0  0  0  0
   21.8595  -14.3635  -17.8757 C   0  0  1  0  0  0  0  0  0  0  0  0
   20.6384  -13.5384  -17.5109 C   0  0  0  0  0  0  0  0  0  0  0  0
   20.7477  -12.1305  -17.8994 C   0  0  0  0  0  0  0  0  0  0  0  0
   21.6373  -11.2026  -17.3825 C   0  0  0  0  0  0  0  0  0  0  0  0
   21.4450  -10.0054  -17.9625 N   0  0  0  0  0  0  0  0  0  0  0  0
   20.4458  -10.1828  -18.8333 C   0  0  0  0  0  0  0  0  0  0  0  0
   20.0139  -11.4568  -18.8084 N   0  0  0  0  0  0  0  0  0  0  0  0
   21.7250  -15.7611  -17.3911 C   0  0  0  0  0  0  0  0  0  0  0  0
   20.8537  -16.5717  -17.8269 O   0  0  0  0  0  0  0  0  0  0  0  0
   23.8970  -18.5562  -17.9288 N   0  0  0  0  0  0  0  0  0  0  0  0
   24.4780  -18.7378  -16.6540 C   0  0  0  0  0  0  0  0  0  0  0  0
   25.5768  -19.3079  -16.5599 O   0  0  0  0  0  0  0  0  0  0  0  0
   23.7679  -18.2454  -15.4574 C   0  0  0  0  0  0  0  0  0  0  0  0
   22.4608  -17.6245  -15.8735 C   0  0  2  0  0  0  0  0  0  0  0  0
   22.5774  -16.3032  -16.3849 N   0  0  0  0  0  0  0  0  0  0  0  0
   21.4542  -17.7448  -14.7853 C   0  0  0  0  0  0  0  0  0  0  0  0
   21.6514  -17.0424  -13.7351 O   0  0  0  0  0  0  0  0  0  0  0  0
   20.3262  -18.5675  -14.8463 N   0  0  0  0  0  0  0  0  0  0  0  0
   19.3014  -18.4781  -13.8277 C   0  0  1  0  0  0  0  0  0  0  0  0
   18.8035  -17.0498  -13.6883 C   0  0  0  0  0  0  0  0  0  0  0  0
   17.8947  -16.6264  -14.7624 C   0  0  0  0  0  0  0  0  0  0  0  0
   16.6994  -17.2978  -15.0365 C   0  0  0  0  0  0  0  0  0  0  0  0
   15.8474  -16.8881  -16.0348 C   0  0  0  0  0  0  0  0  0  0  0  0
   16.1421  -15.7913  -16.8089 C   0  0  0  0  0  0  0  0  0  0  0  0
   17.3128  -15.1126  -16.5601 C   0  0  0  0  0  0  0  0  0  0  0  0
   18.1599  -15.5298  -15.5582 C   0  0  0  0  0  0  0  0  0  0  0  0
   18.2370  -19.4674  -14.0049 C   0  0  0  0  0  0  0  0  0  0  0  0
   18.2116  -20.1665  -15.0401 O   0  0  0  0  0  0  0  0  0  0  0  0
   17.2315  -19.6808  -13.0709 O   0  0  0  0  0  0  0  0  0  0  0  0
  2  1  1  6
  2  3  1  0
  4  3  1  0
  4  8  1  0
  5  6  1  0
  5  4  2  0
  6  7  1  0
  7  8  2  0
  9 10  2  0
  9  2  1  0
 11 12  1  0
 12 14  1  0
 13 12  2  0
 15 14  1  1
 15 16  1  0
 16  9  1  0
 17 19  1  0
 17 15  1  0
 18 17  2  0
 20 19  1  0
 20 28  1  0
 20 21  1  6
 22 23  2  0
 22 21  1  0
 24 23  1  0
 25 24  2  0
 26 25  1  0
 26 27  2  0
 27 22  1  0
 28 30  1  0
 29 28  2  0
M  END
$$$$
