HNF.pdb
     RDKit          3D

 30 31  0  0  1  0  0  0  0  0999 V2000
   23.9216  -32.2852   -5.4458 N   0  0  0  0  0  0  0  0  0  0  0  0
   23.2925  -32.6854   -4.1991 C   0  0  1  0  0  0  0  0  0  0  0  0
   24.1774  -33.7597   -3.5927 C   0  0  0  0  0  0  0  0  0  0  0  0
   24.1692  -35.0163   -4.3451 C   0  0  0  0  0  0  0  0  0  0  0  0
   23.1054  -35.8961   -4.4625 C   0  0  0  0  0  0  0  0  0  0  0  0
   23.4596  -36.9510   -5.2165 N   0  0  0  0  0  0  0  0  0  0  0  0
   24.7316  -36.7330   -5.5672 C   0  0  0  0  0  0  0  0  0  0  0  0
   25.1747  -35.5723   -5.0510 N   0  0  0  0  0  0  0  0  0  0  0  0
   23.2333  -31.4853   -3.3259 C   0  0  0  0  0  0  0  0  0  0  0  0
   24.2403  -30.7629   -3.0608 O   0  0  0  0  0  0  0  0  0  0  0  0
   21.1376  -27.0724   -1.4134 N   0  0  0  0  0  0  0  0  0  0  0  0
   20.4867  -28.1551   -2.0458 C   0  0  0  0  0  0  0  0  0  0  0  0
   19.8455  -27.9557   -3.0901 O   0  0  0  0  0  0  0  0  0  0  0  0
   20.5818  -29.5036   -1.4534 C   0  0  0  0  0  0  0  0  0  0  0  0
   21.9607  -30.0582   -1.6948 C   0  0  2  0  0  0  0  0  0  0  0  0
   22.0226  -31.0499   -2.7114 N   0  0  0  0  0  0  0  0  0  0  0  0
   22.5821  -30.4915   -0.4150 C   0  0  0  0  0  0  0  0  0  0  0  0
   23.5860  -31.2792   -0.4973 O   0  0  0  0  0  0  0  0  0  0  0  0
   22.1377  -30.0927    0.8485 N   0  0  0  0  0  0  0  0  0  0  0  0
   22.8989  -30.4341    2.0316 C   0  0  1  0  0  0  0  0  0  0  0  0
   24.3325  -29.9471    1.9091 C   0  0  0  0  0  0  0  0  0  0  0  0
   25.1753  -30.2738    3.0674 C   0  0  0  0  0  0  0  0  0  0  0  0
   26.1166  -31.3072    3.0376 C   0  0  0  0  0  0  0  0  0  0  0  0
   26.9112  -31.5988    4.1210 C   0  0  0  0  0  0  0  0  0  0  0  0
   26.8089  -30.8776    5.2865 C   0  0  0  0  0  0  0  0  0  0  0  0
   25.8899  -29.8551    5.3425 C   0  0  0  0  0  0  0  0  0  0  0  0
   25.0986  -29.5699    4.2526 C   0  0  0  0  0  0  0  0  0  0  0  0
   22.2338  -30.0287    3.2710 C   0  0  0  0  0  0  0  0  0  0  0  0
   22.3978  -30.7056    4.3083 O   0  0  0  0  0  0  0  0  0  0  0  0
   21.4132  -28.9121    3.3658 O   0  0  0  0  0  0  0  0  0  0  0  0
  2  1  1  6
  2  3  1  0
  4  3  1  0
  4  8  1  0
  5  6  1  0
  5  4  2  0
  6  7  1  0
  7  8  2  0
  9 10  2  0
  9  2  1  0
 11 12  1  0
 12 14  1  0
 13 12  2  0
 15 14  1  1
 15 16  1  0
 16  9  1  0
 17 19  1  0
 17 15  1  0
 18 17  2  0
 20 19  1  0
 20 28  1  0
 20 21  1  6
 22 23  2  0
 22 21  1  0
 24 23  1  0
 25 24  2  0
 26 25  1  0
 26 27  2  0
 27 22  1  0
 28 30  1  0
 29 28  2  0
M  END
$$$$
