HNF.pdb
     RDKit          3D

 30 31  0  0  1  0  0  0  0  0999 V2000
   21.6078  -13.0174  -18.4991 N   0  0  0  0  0  0  0  0  0  0  0  0
   20.7243  -11.9351  -18.1012 C   0  0  1  0  0  0  0  0  0  0  0  0
   20.3576  -12.1869  -16.6496 C   0  0  0  0  0  0  0  0  0  0  0  0
   19.4825  -13.3462  -16.4612 C   0  0  0  0  0  0  0  0  0  0  0  0
   18.1314  -13.4126  -16.7611 C   0  0  0  0  0  0  0  0  0  0  0  0
   17.6473  -14.6261  -16.4453 N   0  0  0  0  0  0  0  0  0  0  0  0
   18.6848  -15.3116  -15.9532 C   0  0  0  0  0  0  0  0  0  0  0  0
   19.7980  -14.5558  -15.9555 N   0  0  0  0  0  0  0  0  0  0  0  0
   21.4817  -10.6660  -18.2492 C   0  0  0  0  0  0  0  0  0  0  0  0
   22.7474  -10.6057  -18.2743 O   0  0  0  0  0  0  0  0  0  0  0  0
   21.6759   -5.2205  -20.7367 N   0  0  0  0  0  0  0  0  0  0  0  0
   22.1624   -6.3774  -20.0881 C   0  0  0  0  0  0  0  0  0  0  0  0
   23.3293   -6.3942  -19.6644 O   0  0  0  0  0  0  0  0  0  0  0  0
   21.2737   -7.5446  -19.9255 C   0  0  0  0  0  0  0  0  0  0  0  0
   21.5196   -8.1749  -18.5803 C   0  0  2  0  0  0  0  0  0  0  0  0
   20.8329   -9.4026  -18.3753 N   0  0  0  0  0  0  0  0  0  0  0  0
   21.2936   -7.1882  -17.4907 C   0  0  0  0  0  0  0  0  0  0  0  0
   20.1106   -7.1181  -17.0105 O   0  0  0  0  0  0  0  0  0  0  0  0
   22.2842   -6.3496  -16.9726 N   0  0  0  0  0  0  0  0  0  0  0  0
   21.9904   -5.4751  -15.8569 C   0  0  1  0  0  0  0  0  0  0  0  0
   22.8001   -5.8711  -14.6342 C   0  0  0  0  0  0  0  0  0  0  0  0
   22.4582   -7.1942  -14.0943 C   0  0  0  0  0  0  0  0  0  0  0  0
   23.1996   -8.3394  -14.4004 C   0  0  0  0  0  0  0  0  0  0  0  0
   22.8816   -9.5720  -13.8810 C   0  0  0  0  0  0  0  0  0  0  0  0
   21.8117   -9.7262  -13.0323 C   0  0  0  0  0  0  0  0  0  0  0  0
   21.0651   -8.6149  -12.7150 C   0  0  0  0  0  0  0  0  0  0  0  0
   21.3909   -7.3844  -13.2395 C   0  0  0  0  0  0  0  0  0  0  0  0
   22.0897   -4.0569  -16.2058 C   0  0  0  0  0  0  0  0  0  0  0  0
   22.5406   -3.7273  -17.3234 O   0  0  0  0  0  0  0  0  0  0  0  0
   21.7042   -3.0327  -15.3506 O   0  0  0  0  0  0  0  0  0  0  0  0
  2  1  1  1
  2  3  1  0
  4  3  1  0
  4  8  1  0
  5  6  1  0
  5  4  2  0
  6  7  1  0
  7  8  2  0
  9 10  2  0
  9  2  1  0
 11 12  1  0
 12 14  1  0
 13 12  2  0
 15 14  1  6
 15 16  1  0
 16  9  1  0
 17 19  1  0
 17 15  1  0
 18 17  2  0
 20 19  1  0
 20 28  1  0
 20 21  1  1
 22 23  2  0
 22 21  1  0
 24 23  1  0
 25 24  2  0
 26 25  1  0
 26 27  2  0
 27 22  1  0
 28 30  1  0
 29 28  2  0
M  END
$$$$
