HNF.pdb
     RDKit          3D

 30 31  0  0  1  0  0  0  0  0999 V2000
   27.5112  -19.1059  -17.3950 N   0  0  0  0  0  0  0  0  0  0  0  0
   27.2113  -18.4799  -16.1189 C   0  0  1  0  0  0  0  0  0  0  0  0
   26.2992  -17.3036  -16.4174 C   0  0  0  0  0  0  0  0  0  0  0  0
   27.0222  -16.0694  -16.7325 C   0  0  0  0  0  0  0  0  0  0  0  0
   26.8822  -14.8491  -16.0915 C   0  0  0  0  0  0  0  0  0  0  0  0
   27.6929  -13.9363  -16.6538 N   0  0  0  0  0  0  0  0  0  0  0  0
   28.3334  -14.5790  -17.6361 C   0  0  0  0  0  0  0  0  0  0  0  0
   27.9416  -15.8647  -17.6975 N   0  0  0  0  0  0  0  0  0  0  0  0
   26.5213  -19.4920  -15.2787 C   0  0  0  0  0  0  0  0  0  0  0  0
   25.7542  -20.3851  -15.7479 O   0  0  0  0  0  0  0  0  0  0  0  0
   25.9194  -23.0048  -11.1926 N   0  0  0  0  0  0  0  0  0  0  0  0
   25.7718  -21.6276  -10.9145 C   0  0  0  0  0  0  0  0  0  0  0  0
   24.9696  -21.2646  -10.0393 O   0  0  0  0  0  0  0  0  0  0  0  0
   26.5751  -20.6460  -11.6691 C   0  0  0  0  0  0  0  0  0  0  0  0
   25.9369  -20.4062  -13.0117 C   0  0  2  0  0  0  0  0  0  0  0  0
   26.6719  -19.5352  -13.8615 N   0  0  0  0  0  0  0  0  0  0  0  0
   24.5140  -20.0047  -12.8507 C   0  0  0  0  0  0  0  0  0  0  0  0
   24.2926  -18.8394  -12.3730 O   0  0  0  0  0  0  0  0  0  0  0  0
   23.4263  -20.8153  -13.1866 N   0  0  0  0  0  0  0  0  0  0  0  0
   22.0738  -20.3214  -13.0367 C   0  0  1  0  0  0  0  0  0  0  0  0
   21.9045  -18.9898  -13.7478 C   0  0  0  0  0  0  0  0  0  0  0  0
   21.9712  -19.0822  -15.2126 C   0  0  0  0  0  0  0  0  0  0  0  0
   20.9957  -19.7446  -15.9638 C   0  0  0  0  0  0  0  0  0  0  0  0
   21.0577  -19.8158  -17.3354 C   0  0  0  0  0  0  0  0  0  0  0  0
   22.0922  -19.2322  -18.0269 C   0  0  0  0  0  0  0  0  0  0  0  0
   23.0660  -18.5742  -17.3116 C   0  0  0  0  0  0  0  0  0  0  0  0
   22.9957  -18.5075  -15.9382 C   0  0  0  0  0  0  0  0  0  0  0  0
   21.0626  -21.3197  -13.3887 C   0  0  0  0  0  0  0  0  0  0  0  0
   21.4187  -22.4070  -13.8907 O   0  0  0  0  0  0  0  0  0  0  0  0
   19.7010  -21.1270  -13.1939 O   0  0  0  0  0  0  0  0  0  0  0  0
  2  1  1  6
  2  3  1  0
  4  3  1  0
  4  8  1  0
  5  6  1  0
  5  4  2  0
  6  7  1  0
  7  8  2  0
  9 10  2  0
  9  2  1  0
 11 12  1  0
 12 14  1  0
 13 12  2  0
 15 14  1  1
 15 16  1  0
 16  9  1  0
 17 19  1  0
 17 15  1  0
 18 17  2  0
 20 19  1  0
 20 28  1  0
 20 21  1  6
 22 23  2  0
 22 21  1  0
 24 23  1  0
 25 24  2  0
 26 25  1  0
 26 27  2  0
 27 22  1  0
 28 30  1  0
 29 28  2  0
M  END
$$$$
