DNV.pdb
     RDKit          3D

 24 23  0  0  1  0  0  0  0  0999 V2000
    9.2237  -19.0276   21.1559 N   0  0  0  0  0  0  0  0  0  0  0  0
    9.6947  -17.6590   20.7892 C   0  0  1  0  0  0  0  0  0  0  0  0
    9.0754  -17.3809   19.4511 C   0  0  0  0  0  0  0  0  0  0  0  0
    9.8416  -17.7806   18.2722 C   0  0  0  0  0  0  0  0  0  0  0  0
   11.0313  -18.2581   18.3875 O   0  0  0  0  0  0  0  0  0  0  0  0
    9.1478  -16.7929   21.8807 C   0  0  0  0  0  0  0  0  0  0  0  0
    9.1958  -15.5469   21.7123 O   0  0  0  0  0  0  0  0  0  0  0  0
    9.3895  -17.6892   16.9746 O   0  0  0  0  0  0  0  0  0  0  0  0
    7.9886  -19.5236   24.1417 N   0  0  0  0  0  0  0  0  0  0  0  0
    7.3368  -18.7809   25.1740 C   0  0  0  0  0  0  0  0  0  0  0  0
    7.1985  -19.3616   26.2842 O   0  0  0  0  0  0  0  0  0  0  0  0
    6.8809  -17.4102   24.8704 C   0  0  0  0  0  0  0  0  0  0  0  0
    8.0469  -16.6602   24.1991 C   0  0  2  0  0  0  0  0  0  0  0  0
    8.5914  -17.2919   23.0601 N   0  0  0  0  0  0  0  0  0  0  0  0
    8.9492  -16.2183   25.2392 C   0  0  0  0  0  0  0  0  0  0  0  0
   10.0913  -16.7223   25.3042 O   0  0  0  0  0  0  0  0  0  0  0  0
    8.9465  -12.3996   26.7476 C   0  0  0  0  0  0  0  0  0  0  0  0
    9.1304  -13.4401   27.8302 C   0  0  1  0  0  0  0  0  0  0  0  0
    7.7785  -13.5492   28.5168 C   0  0  0  0  0  0  0  0  0  0  0  0
    9.4822  -14.7708   27.2619 C   0  0  2  0  0  0  0  0  0  0  0  0
    8.6353  -15.2399   26.2093 N   0  0  0  0  0  0  0  0  0  0  0  0
    9.5455  -15.8066   28.3217 C   0  0  0  0  0  0  0  0  0  0  0  0
   10.5247  -15.7668   29.3225 O   0  0  0  0  0  0  0  0  0  0  0  0
    8.7338  -16.7725   28.3870 O   0  0  0  0  0  0  0  0  0  0  0  0
  2  1  1  1
  2  3  1  0
  3  4  1  0
  4  8  1  0
  4  5  2  0
  6  2  1  0
  7  6  2  0
  9 10  1  0
 10 12  1  0
 10 11  2  0
 13 12  1  1
 13 14  1  0
 13 15  1  0
 14  6  1  0
 15 21  1  0
 16 15  2  0
 18 17  1  6
 18 19  1  0
 20 18  1  0
 20 21  1  6
 22 23  1  0
 22 20  1  0
 24 22  2  0
M  END
$$$$
