DNV.pdb
     RDKit          3D

 24 23  0  0  1  0  0  0  0  0999 V2000
    9.6713  -16.1757   20.2194 N   0  0  0  0  0  0  0  0  0  0  0  0
    8.3493  -16.8561   20.0827 C   0  0  1  0  0  0  0  0  0  0  0  0
    8.6772  -18.3093   19.9032 C   0  0  0  0  0  0  0  0  0  0  0  0
    7.5550  -19.2458   19.9096 C   0  0  0  0  0  0  0  0  0  0  0  0
    6.5490  -19.0776   19.1246 O   0  0  0  0  0  0  0  0  0  0  0  0
    7.6659  -16.5647   21.3822 C   0  0  0  0  0  0  0  0  0  0  0  0
    6.5070  -16.0773   21.3322 O   0  0  0  0  0  0  0  0  0  0  0  0
    7.4625  -20.3540   20.7221 O   0  0  0  0  0  0  0  0  0  0  0  0
    5.6474  -18.8917   24.1737 N   0  0  0  0  0  0  0  0  0  0  0  0
    7.0762  -18.9140   24.1646 C   0  0  0  0  0  0  0  0  0  0  0  0
    7.6206  -19.8722   23.5526 O   0  0  0  0  0  0  0  0  0  0  0  0
    7.7987  -17.8312   24.8606 C   0  0  0  0  0  0  0  0  0  0  0  0
    7.7846  -16.5894   23.9493 C   0  0  2  0  0  0  0  0  0  0  0  0
    8.2415  -16.8060   22.6313 N   0  0  0  0  0  0  0  0  0  0  0  0
    8.3384  -15.4825   24.6972 C   0  0  0  0  0  0  0  0  0  0  0  0
    9.5641  -15.2502   24.6163 O   0  0  0  0  0  0  0  0  0  0  0  0
    6.7285  -11.8417   25.0472 C   0  0  0  0  0  0  0  0  0  0  0  0
    7.1597  -12.3508   26.4049 C   0  0  1  0  0  0  0  0  0  0  0  0
    5.8808  -12.8092   27.0872 C   0  0  0  0  0  0  0  0  0  0  0  0
    8.0795  -13.5162   26.2901 C   0  0  2  0  0  0  0  0  0  0  0  0
    7.5872  -14.6234   25.5304 N   0  0  0  0  0  0  0  0  0  0  0  0
    8.4980  -14.0027   27.6274 C   0  0  0  0  0  0  0  0  0  0  0  0
    9.2618  -13.2037   28.4877 O   0  0  0  0  0  0  0  0  0  0  0  0
    8.1964  -15.1483   28.0664 O   0  0  0  0  0  0  0  0  0  0  0  0
  2  1  1  1
  2  3  1  0
  3  4  1  0
  4  8  1  0
  4  5  2  0
  6  2  1  0
  7  6  2  0
  9 10  1  0
 10 12  1  0
 10 11  2  0
 13 12  1  1
 13 14  1  0
 13 15  1  0
 14  6  1  0
 15 21  1  0
 16 15  2  0
 18 17  1  6
 18 19  1  0
 20 18  1  0
 20 21  1  1
 22 23  1  0
 22 20  1  0
 24 22  2  0
M  END
$$$$
