DNV.pdb
     RDKit          3D

 24 23  0  0  1  0  0  0  0  0999 V2000
   11.8719  -15.3225   17.4444 N   0  0  0  0  0  0  0  0  0  0  0  0
   12.8184  -15.2921   18.5988 C   0  0  1  0  0  0  0  0  0  0  0  0
   13.7425  -14.1451   18.3131 C   0  0  0  0  0  0  0  0  0  0  0  0
   14.8601  -14.4063   17.4080 C   0  0  0  0  0  0  0  0  0  0  0  0
   14.6961  -15.1045   16.3393 O   0  0  0  0  0  0  0  0  0  0  0  0
   11.9293  -15.0500   19.7784 C   0  0  0  0  0  0  0  0  0  0  0  0
   12.4821  -14.8517   20.8912 O   0  0  0  0  0  0  0  0  0  0  0  0
   16.1468  -13.9538   17.5990 O   0  0  0  0  0  0  0  0  0  0  0  0
    8.1638  -13.2714   18.0051 N   0  0  0  0  0  0  0  0  0  0  0  0
    8.2299  -13.2562   19.4324 C   0  0  0  0  0  0  0  0  0  0  0  0
    8.3693  -12.1282   19.9778 O   0  0  0  0  0  0  0  0  0  0  0  0
    8.1312  -14.5408   20.1526 C   0  0  0  0  0  0  0  0  0  0  0  0
    9.5315  -14.8923   20.6896 C   0  0  2  0  0  0  0  0  0  0  0  0
   10.5350  -15.0305   19.7064 N   0  0  0  0  0  0  0  0  0  0  0  0
    9.3804  -15.9427   21.6721 C   0  0  0  0  0  0  0  0  0  0  0  0
    9.2074  -17.1173   21.2808 O   0  0  0  0  0  0  0  0  0  0  0  0
   10.6199  -17.8351   25.9945 C   0  0  0  0  0  0  0  0  0  0  0  0
   10.6607  -16.7287   24.9636 C   0  0  1  0  0  0  0  0  0  0  0  0
   11.8893  -17.0147   24.1152 C   0  0  0  0  0  0  0  0  0  0  0  0
    9.4605  -16.7516   24.0825 C   0  0  2  0  0  0  0  0  0  0  0  0
    9.4139  -15.7421   23.0705 N   0  0  0  0  0  0  0  0  0  0  0  0
    8.2101  -16.6887   24.8780 C   0  0  0  0  0  0  0  0  0  0  0  0
    7.2934  -15.6426   24.7138 O   0  0  0  0  0  0  0  0  0  0  0  0
    7.8992  -17.5602   25.7383 O   0  0  0  0  0  0  0  0  0  0  0  0
  2  1  1  6
  2  3  1  0
  3  4  1  0
  4  8  1  0
  4  5  2  0
  6  2  1  0
  7  6  2  0
  9 10  1  0
 10 12  1  0
 10 11  2  0
 13 12  1  6
 13 14  1  0
 13 15  1  0
 14  6  1  0
 15 21  1  0
 16 15  2  0
 18 17  1  1
 18 19  1  0
 20 18  1  0
 20 21  1  6
 22 23  1  0
 22 20  1  0
 24 22  2  0
M  END
$$$$
