DNV.pdb
     RDKit          3D

 24 23  0  0  1  0  0  0  0  0999 V2000
   11.5515  -18.6349   22.0168 N   0  0  0  0  0  0  0  0  0  0  0  0
   12.1288  -17.2806   22.2658 C   0  0  1  0  0  0  0  0  0  0  0  0
   12.7953  -16.8997   20.9767 C   0  0  0  0  0  0  0  0  0  0  0  0
   14.0766  -17.5382   20.6812 C   0  0  0  0  0  0  0  0  0  0  0  0
   14.7439  -17.2246   19.6263 O   0  0  0  0  0  0  0  0  0  0  0  0
   10.9316  -16.4384   22.5790 C   0  0  0  0  0  0  0  0  0  0  0  0
   11.1053  -15.1961   22.6770 O   0  0  0  0  0  0  0  0  0  0  0  0
   14.6734  -18.4999   21.4659 O   0  0  0  0  0  0  0  0  0  0  0  0
    5.9666  -15.4632   22.5604 N   0  0  0  0  0  0  0  0  0  0  0  0
    6.0030  -16.6996   23.2760 C   0  0  0  0  0  0  0  0  0  0  0  0
    4.8901  -17.2011   23.5907 O   0  0  0  0  0  0  0  0  0  0  0  0
    7.3191  -17.2900   23.5892 C   0  0  0  0  0  0  0  0  0  0  0  0
    8.4053  -16.3453   23.0412 C   0  0  2  0  0  0  0  0  0  0  0  0
    9.6475  -16.9552   22.7627 N   0  0  0  0  0  0  0  0  0  0  0  0
    8.3931  -15.1413   23.8422 C   0  0  0  0  0  0  0  0  0  0  0  0
    8.3620  -14.0318   23.2671 O   0  0  0  0  0  0  0  0  0  0  0  0
    7.5952  -12.4595   24.3802 C   0  0  0  0  0  0  0  0  0  0  0  0
    7.6211  -12.8520   25.8409 C   0  0  1  0  0  0  0  0  0  0  0  0
    6.2126  -13.3308   26.1536 C   0  0  0  0  0  0  0  0  0  0  0  0
    8.5695  -13.9716   26.0942 C   0  0  2  0  0  0  0  0  0  0  0  0
    8.4138  -15.1192   25.2550 N   0  0  0  0  0  0  0  0  0  0  0  0
    8.5199  -14.4060   27.5116 C   0  0  0  0  0  0  0  0  0  0  0  0
    8.8205  -13.5224   28.5559 O   0  0  0  0  0  0  0  0  0  0  0  0
    8.2082  -15.5800   27.8593 O   0  0  0  0  0  0  0  0  0  0  0  0
  2  1  1  6
  2  3  1  0
  3  4  1  0
  4  8  1  0
  4  5  2  0
  6  2  1  0
  7  6  2  0
  9 10  1  0
 10 12  1  0
 10 11  2  0
 13 12  1  1
 13 14  1  0
 13 15  1  0
 14  6  1  0
 15 21  1  0
 16 15  2  0
 18 17  1  6
 18 19  1  0
 20 18  1  0
 20 21  1  6
 22 23  1  0
 22 20  1  0
 24 22  2  0
M  END
$$$$
