DNV.pdb
     RDKit          3D

 24 23  0  0  1  0  0  0  0  0999 V2000
    8.7410  -18.3463   20.5547 N   0  0  0  0  0  0  0  0  0  0  0  0
    8.2027  -16.9997   20.1992 C   0  0  1  0  0  0  0  0  0  0  0  0
    7.2369  -17.2511   19.0788 C   0  0  0  0  0  0  0  0  0  0  0  0
    7.8076  -17.4722   17.7514 C   0  0  0  0  0  0  0  0  0  0  0  0
    9.0718  -17.6583   17.5978 O   0  0  0  0  0  0  0  0  0  0  0  0
    7.5350  -16.5425   21.4585 C   0  0  0  0  0  0  0  0  0  0  0  0
    6.7534  -15.5598   21.3774 O   0  0  0  0  0  0  0  0  0  0  0  0
    7.0829  -17.5006   16.5806 O   0  0  0  0  0  0  0  0  0  0  0  0
    5.9805  -19.8266   23.5687 N   0  0  0  0  0  0  0  0  0  0  0  0
    7.1836  -19.2821   24.1145 C   0  0  0  0  0  0  0  0  0  0  0  0
    8.2511  -19.8987   23.8512 O   0  0  0  0  0  0  0  0  0  0  0  0
    7.0907  -18.0573   24.9331 C   0  0  0  0  0  0  0  0  0  0  0  0
    7.2471  -16.8463   23.9941 C   0  0  2  0  0  0  0  0  0  0  0  0
    7.7311  -17.1459   22.7023 N   0  0  0  0  0  0  0  0  0  0  0  0
    7.8858  -15.7846   24.7400 C   0  0  0  0  0  0  0  0  0  0  0  0
    9.1138  -15.5988   24.5976 O   0  0  0  0  0  0  0  0  0  0  0  0
    7.4883  -11.5925   27.4337 C   0  0  0  0  0  0  0  0  0  0  0  0
    6.8010  -12.7513   26.7458 C   0  0  1  0  0  0  0  0  0  0  0  0
    6.1591  -12.1574   25.5023 C   0  0  0  0  0  0  0  0  0  0  0  0
    7.7734  -13.7972   26.3237 C   0  0  2  0  0  0  0  0  0  0  0  0
    7.2168  -14.9213   25.6367 N   0  0  0  0  0  0  0  0  0  0  0  0
    8.5679  -14.2871   27.4764 C   0  0  0  0  0  0  0  0  0  0  0  0
    9.5759  -13.5038   28.0527 O   0  0  0  0  0  0  0  0  0  0  0  0
    8.3876  -15.4220   28.0017 O   0  0  0  0  0  0  0  0  0  0  0  0
  2  1  1  1
  2  3  1  0
  3  4  1  0
  4  8  1  0
  4  5  2  0
  6  2  1  0
  7  6  2  0
  9 10  1  0
 10 12  1  0
 10 11  2  0
 13 12  1  1
 13 14  1  0
 13 15  1  0
 14  6  1  0
 15 21  1  0
 16 15  2  0
 18 17  1  6
 18 19  1  0
 20 18  1  0
 20 21  1  1
 22 23  1  0
 22 20  1  0
 24 22  2  0
M  END
$$$$
