DNV.pdb
     RDKit          3D

 24 23  0  0  1  0  0  0  0  0999 V2000
    9.2801  -17.5085   20.3032 N   0  0  0  0  0  0  0  0  0  0  0  0
    8.2425  -16.4932   19.9539 C   0  0  1  0  0  0  0  0  0  0  0  0
    7.3610  -17.1700   18.9457 C   0  0  0  0  0  0  0  0  0  0  0  0
    7.8683  -17.2581   17.5777 C   0  0  0  0  0  0  0  0  0  0  0  0
    9.0496  -16.8412   17.2823 O   0  0  0  0  0  0  0  0  0  0  0  0
    7.5519  -16.2315   21.2559 C   0  0  0  0  0  0  0  0  0  0  0  0
    6.5222  -15.5087   21.2319 O   0  0  0  0  0  0  0  0  0  0  0  0
    7.1641  -17.7717   16.5114 O   0  0  0  0  0  0  0  0  0  0  0  0
    6.9314  -19.8494   23.3553 N   0  0  0  0  0  0  0  0  0  0  0  0
    6.4826  -18.7177   24.1036 C   0  0  0  0  0  0  0  0  0  0  0  0
    5.2351  -18.5765   24.2175 O   0  0  0  0  0  0  0  0  0  0  0  0
    7.4955  -17.8115   24.6795 C   0  0  0  0  0  0  0  0  0  0  0  0
    7.5485  -16.5434   23.8068 C   0  0  2  0  0  0  0  0  0  0  0  0
    7.9856  -16.7450   22.4797 N   0  0  0  0  0  0  0  0  0  0  0  0
    8.1689  -15.4938   24.5845 C   0  0  0  0  0  0  0  0  0  0  0  0
    9.4076  -15.3400   24.5145 O   0  0  0  0  0  0  0  0  0  0  0  0
    6.8973  -11.7633   24.9765 C   0  0  0  0  0  0  0  0  0  0  0  0
    7.2317  -12.3208   26.3424 C   0  0  1  0  0  0  0  0  0  0  0  0
    5.8922  -12.6513   26.9809 C   0  0  0  0  0  0  0  0  0  0  0  0
    8.0325  -13.5725   26.2461 C   0  0  2  0  0  0  0  0  0  0  0  0
    7.4704  -14.6084   25.4359 N   0  0  0  0  0  0  0  0  0  0  0  0
    8.3281  -14.1248   27.5906 C   0  0  0  0  0  0  0  0  0  0  0  0
    9.1416  -13.4358   28.4991 O   0  0  0  0  0  0  0  0  0  0  0  0
    7.8718  -15.2319   27.9935 O   0  0  0  0  0  0  0  0  0  0  0  0
  2  1  1  1
  2  3  1  0
  3  4  1  0
  4  8  1  0
  4  5  2  0
  6  2  1  0
  7  6  2  0
  9 10  1  0
 10 12  1  0
 10 11  2  0
 13 12  1  1
 13 14  1  0
 13 15  1  0
 14  6  1  0
 15 21  1  0
 16 15  2  0
 18 17  1  6
 18 19  1  0
 20 18  1  0
 20 21  1  6
 22 23  1  0
 22 20  1  0
 24 22  2  0
M  END
$$$$
