DNV.pdb
     RDKit          3D

 24 23  0  0  1  0  0  0  0  0999 V2000
    9.5817  -18.0088   19.7524 N   0  0  0  0  0  0  0  0  0  0  0  0
    8.7645  -16.7637   19.6462 C   0  0  1  0  0  0  0  0  0  0  0  0
    7.9526  -16.9376   18.3964 C   0  0  0  0  0  0  0  0  0  0  0  0
    8.6089  -16.6127   17.1313 C   0  0  0  0  0  0  0  0  0  0  0  0
    9.8726  -16.3733   17.0844 O   0  0  0  0  0  0  0  0  0  0  0  0
    7.9349  -16.7782   20.8920 C   0  0  0  0  0  0  0  0  0  0  0  0
    6.8100  -17.3390   20.8340 O   0  0  0  0  0  0  0  0  0  0  0  0
    7.9696  -16.5310   15.9142 O   0  0  0  0  0  0  0  0  0  0  0  0
    5.6144  -16.9589   25.3383 N   0  0  0  0  0  0  0  0  0  0  0  0
    6.9446  -17.4806   25.3186 C   0  0  0  0  0  0  0  0  0  0  0  0
    7.4510  -17.7743   26.4350 O   0  0  0  0  0  0  0  0  0  0  0  0
    7.6177  -17.6356   24.0141 C   0  0  0  0  0  0  0  0  0  0  0  0
    7.7894  -16.2337   23.3994 C   0  0  2  0  0  0  0  0  0  0  0  0
    8.3425  -16.2105   22.1008 N   0  0  0  0  0  0  0  0  0  0  0  0
    8.3651  -15.3728   24.4088 C   0  0  0  0  0  0  0  0  0  0  0  0
    9.5807  -15.4848   24.6783 O   0  0  0  0  0  0  0  0  0  0  0  0
    6.8081  -11.5720   25.1024 C   0  0  0  0  0  0  0  0  0  0  0  0
    7.2928  -12.2732   26.3521 C   0  0  1  0  0  0  0  0  0  0  0  0
    6.0392  -12.8100   27.0240 C   0  0  0  0  0  0  0  0  0  0  0  0
    8.1858  -13.4204   26.0294 C   0  0  2  0  0  0  0  0  0  0  0  0
    7.6465  -14.3933   25.1305 N   0  0  0  0  0  0  0  0  0  0  0  0
    8.6407  -14.1089   27.2619 C   0  0  0  0  0  0  0  0  0  0  0  0
    8.3634  -15.4636   27.4849 O   0  0  0  0  0  0  0  0  0  0  0  0
    9.2959  -13.5264   28.1717 O   0  0  0  0  0  0  0  0  0  0  0  0
  2  1  1  1
  2  3  1  0
  3  4  1  0
  4  8  1  0
  4  5  2  0
  6  2  1  0
  7  6  2  0
  9 10  1  0
 10 12  1  0
 10 11  2  0
 13 12  1  1
 13 14  1  0
 13 15  1  0
 14  6  1  0
 15 21  1  0
 16 15  2  0
 18 17  1  6
 18 19  1  0
 20 18  1  0
 20 21  1  6
 22 23  1  0
 22 20  1  0
 24 22  2  0
M  END
$$$$
