DNV.pdb
     RDKit          3D

 24 23  0  0  1  0  0  0  0  0999 V2000
   10.6494  -17.8485   20.4645 N   0  0  0  0  0  0  0  0  0  0  0  0
    9.7581  -16.8203   19.8498 C   0  0  1  0  0  0  0  0  0  0  0  0
    9.0943  -17.5194   18.6999 C   0  0  0  0  0  0  0  0  0  0  0  0
    9.9467  -17.8933   17.5728 C   0  0  0  0  0  0  0  0  0  0  0  0
   11.1818  -18.2069   17.7534 O   0  0  0  0  0  0  0  0  0  0  0  0
    8.8077  -16.4718   20.9525 C   0  0  0  0  0  0  0  0  0  0  0  0
    7.8903  -15.6514   20.6907 O   0  0  0  0  0  0  0  0  0  0  0  0
    9.5338  -17.9439   16.2599 O   0  0  0  0  0  0  0  0  0  0  0  0
    7.1354  -18.2090   26.6004 N   0  0  0  0  0  0  0  0  0  0  0  0
    6.8497  -17.8041   25.2601 C   0  0  0  0  0  0  0  0  0  0  0  0
    5.7609  -17.1961   25.0754 O   0  0  0  0  0  0  0  0  0  0  0  0
    7.8339  -18.1214   24.2068 C   0  0  0  0  0  0  0  0  0  0  0  0
    8.0865  -16.8390   23.3917 C   0  0  2  0  0  0  0  0  0  0  0  0
    8.8855  -17.0065   22.2400 N   0  0  0  0  0  0  0  0  0  0  0  0
    8.4270  -15.7825   24.3187 C   0  0  0  0  0  0  0  0  0  0  0  0
    9.6189  -15.6468   24.6705 O   0  0  0  0  0  0  0  0  0  0  0  0
    5.5042  -13.1350   26.4553 C   0  0  0  0  0  0  0  0  0  0  0  0
    6.7493  -12.6770   25.7284 C   0  0  1  0  0  0  0  0  0  0  0  0
    7.2795  -11.5049   26.5384 C   0  0  0  0  0  0  0  0  0  0  0  0
    7.7912  -13.7404   25.6956 C   0  0  2  0  0  0  0  0  0  0  0  0
    7.4987  -14.8711   24.8701 N   0  0  0  0  0  0  0  0  0  0  0  0
    8.1136  -14.2174   27.0626 C   0  0  0  0  0  0  0  0  0  0  0  0
    8.7667  -13.3928   27.9874 O   0  0  0  0  0  0  0  0  0  0  0  0
    7.8237  -15.3773   27.4711 O   0  0  0  0  0  0  0  0  0  0  0  0
  2  1  1  1
  2  3  1  0
  3  4  1  0
  4  8  1  0
  4  5  2  0
  6  2  1  0
  7  6  2  0
  9 10  1  0
 10 12  1  0
 10 11  2  0
 13 12  1  1
 13 14  1  0
 13 15  1  0
 14  6  1  0
 15 21  1  0
 16 15  2  0
 18 17  1  1
 18 19  1  0
 20 18  1  0
 20 21  1  6
 22 23  1  0
 22 20  1  0
 24 22  2  0
M  END
$$$$
