DNV.pdb
     RDKit          3D

 24 23  0  0  1  0  0  0  0  0999 V2000
    9.5393  -16.7787   19.4389 N   0  0  0  0  0  0  0  0  0  0  0  0
    8.4906  -15.7273   19.2835 C   0  0  1  0  0  0  0  0  0  0  0  0
    7.5879  -16.2366   18.1987 C   0  0  0  0  0  0  0  0  0  0  0  0
    8.1965  -17.0871   17.1774 C   0  0  0  0  0  0  0  0  0  0  0  0
    9.4403  -17.4114   17.2424 O   0  0  0  0  0  0  0  0  0  0  0  0
    7.8299  -15.6863   20.6261 C   0  0  0  0  0  0  0  0  0  0  0  0
    6.8800  -14.8759   20.7812 O   0  0  0  0  0  0  0  0  0  0  0  0
    7.5308  -17.6039   16.0881 O   0  0  0  0  0  0  0  0  0  0  0  0
    5.9808  -17.9539   25.3474 N   0  0  0  0  0  0  0  0  0  0  0  0
    7.3793  -17.8888   25.0608 C   0  0  0  0  0  0  0  0  0  0  0  0
    8.1504  -17.7454   26.0476 O   0  0  0  0  0  0  0  0  0  0  0  0
    7.8121  -17.9928   23.6534 C   0  0  0  0  0  0  0  0  0  0  0  0
    7.7498  -16.5844   23.0327 C   0  0  2  0  0  0  0  0  0  0  0  0
    8.2079  -16.4940   21.7005 N   0  0  0  0  0  0  0  0  0  0  0  0
    8.2673  -15.6467   24.0043 C   0  0  0  0  0  0  0  0  0  0  0  0
    9.5010  -15.4528   24.0610 O   0  0  0  0  0  0  0  0  0  0  0  0
    5.6688  -13.0733   26.5952 C   0  0  0  0  0  0  0  0  0  0  0  0
    6.8735  -12.6751   25.7714 C   0  0  1  0  0  0  0  0  0  0  0  0
    7.5042  -11.5108   26.5182 C   0  0  0  0  0  0  0  0  0  0  0  0
    7.8704  -13.7778   25.6837 C   0  0  2  0  0  0  0  0  0  0  0  0
    7.4714  -14.9158   24.9148 N   0  0  0  0  0  0  0  0  0  0  0  0
    8.2852  -14.2341   27.0327 C   0  0  0  0  0  0  0  0  0  0  0  0
    9.1227  -13.4545   27.8405 O   0  0  0  0  0  0  0  0  0  0  0  0
    7.9148  -15.3354   27.5288 O   0  0  0  0  0  0  0  0  0  0  0  0
  2  1  1  1
  2  3  1  0
  3  4  1  0
  4  8  1  0
  4  5  2  0
  6  2  1  0
  7  6  2  0
  9 10  1  0
 10 12  1  0
 10 11  2  0
 13 12  1  1
 13 14  1  0
 13 15  1  0
 14  6  1  0
 15 21  1  0
 16 15  2  0
 18 17  1  1
 18 19  1  0
 20 18  1  0
 20 21  1  1
 22 23  1  0
 22 20  1  0
 24 22  2  0
M  END
$$$$
