WQA.pdb
     RDKit          3D

 29 30  0  0  1  0  0  0  0  0999 V2000
    6.7958  -17.6625   24.0301 N   0  0  0  0  0  0  0  0  0  0  0  0
    7.7608  -16.6619   24.3663 C   0  0  1  0  0  0  0  0  0  0  0  0
    7.6552  -16.1718   25.7985 C   0  0  0  0  0  0  0  0  0  0  0  0
    6.7006  -15.0404   25.8597 C   0  0  0  0  0  0  0  0  0  0  0  0
    5.3229  -15.1110   26.0060 C   0  0  0  0  0  0  0  0  0  0  0  0
    4.7885  -13.8737   25.9921 N   0  0  0  0  0  0  0  0  0  0  0  0
    5.7803  -12.9807   25.8404 C   0  0  0  0  0  0  0  0  0  0  0  0
    5.7729  -11.5973   25.7703 C   0  0  0  0  0  0  0  0  0  0  0  0
    6.9487  -10.8880   25.6173 C   0  0  0  0  0  0  0  0  0  0  0  0
    8.1374  -11.5755   25.5347 C   0  0  0  0  0  0  0  0  0  0  0  0
    8.1361  -12.9683   25.6058 C   0  0  0  0  0  0  0  0  0  0  0  0
    6.9787  -13.6975   25.7571 C   0  0  0  0  0  0  0  0  0  0  0  0
    9.1422  -17.1127   24.0573 C   0  0  0  0  0  0  0  0  0  0  0  0
    9.4797  -18.3352   24.2017 O   0  0  0  0  0  0  0  0  0  0  0  0
   14.8130  -17.8717   21.8626 N   0  0  0  0  0  0  0  0  0  0  0  0
   14.2934  -16.5903   21.5672 C   0  0  0  0  0  0  0  0  0  0  0  0
   14.3060  -16.1750   20.3870 O   0  0  0  0  0  0  0  0  0  0  0  0
   13.7610  -15.8271   22.7304 C   0  0  0  0  0  0  0  0  0  0  0  0
   12.3055  -15.6267   22.7493 C   0  0  0  0  0  0  0  0  0  0  0  0
   11.5484  -16.5103   23.6970 C   0  0  2  0  0  0  0  0  0  0  0  0
   10.1099  -16.1841   23.5925 N   0  0  0  0  0  0  0  0  0  0  0  0
   11.8964  -16.3429   25.1050 C   0  0  0  0  0  0  0  0  0  0  0  0
   12.9841  -16.8326   25.5511 O   0  0  0  0  0  0  0  0  0  0  0  0
   10.8211  -14.4474   28.2148 C   0  0  0  0  0  0  0  0  0  0  0  0
   11.6014  -15.4974   27.4562 C   0  0  2  0  0  0  0  0  0  0  0  0
   11.1291  -15.6595   26.0908 N   0  0  0  0  0  0  0  0  0  0  0  0
   11.4538  -16.7775   28.1961 C   0  0  0  0  0  0  0  0  0  0  0  0
   10.8744  -17.9076   27.6251 O   0  0  0  0  0  0  0  0  0  0  0  0
   11.8740  -16.8258   29.3841 O   0  0  0  0  0  0  0  0  0  0  0  0
  2 13  1  0
  2  1  1  1
  3  2  1  0
  3  4  1  0
  4  5  2  0
  4 12  1  0
  5  6  1  0
  6  7  1  0
  7  8  2  0
  8  9  1  0
 10  9  2  0
 11 10  1  0
 12 11  2  0
 12  7  1  0
 13 21  1  0
 14 13  2  0
 16 15  1  0
 17 16  2  0
 18 16  1  0
 19 18  1  0
 20 19  1  6
 21 20  1  0
 22 26  1  0
 22 20  1  0
 23 22  2  0
 25 24  1  1
 25 26  1  0
 25 27  1  0
 27 29  2  0
 27 28  1  0
M  END
$$$$
