WQA.pdb
     RDKit          3D

 29 30  0  0  1  0  0  0  0  0999 V2000
    6.7939  -18.1644   24.5732 N   0  0  0  0  0  0  0  0  0  0  0  0
    7.5773  -16.9679   24.5855 C   0  0  1  0  0  0  0  0  0  0  0  0
    7.6111  -16.2767   25.9359 C   0  0  0  0  0  0  0  0  0  0  0  0
    6.6475  -15.1514   25.9343 C   0  0  0  0  0  0  0  0  0  0  0  0
    5.2643  -15.2300   26.0056 C   0  0  0  0  0  0  0  0  0  0  0  0
    4.7238  -13.9966   25.9510 N   0  0  0  0  0  0  0  0  0  0  0  0
    5.7167  -13.0982   25.8455 C   0  0  0  0  0  0  0  0  0  0  0  0
    5.7044  -11.7156   25.7623 C   0  0  0  0  0  0  0  0  0  0  0  0
    6.8823  -10.9996   25.6673 C   0  0  0  0  0  0  0  0  0  0  0  0
    8.0781  -11.6798   25.6563 C   0  0  0  0  0  0  0  0  0  0  0  0
    8.0817  -13.0719   25.7402 C   0  0  0  0  0  0  0  0  0  0  0  0
    6.9223  -13.8075   25.8346 C   0  0  0  0  0  0  0  0  0  0  0  0
    8.9515  -17.2120   24.0767 C   0  0  0  0  0  0  0  0  0  0  0  0
    9.5322  -18.3321   24.2707 O   0  0  0  0  0  0  0  0  0  0  0  0
   12.3252  -14.4813   19.7381 N   0  0  0  0  0  0  0  0  0  0  0  0
   13.3884  -14.8044   20.6125 C   0  0  0  0  0  0  0  0  0  0  0  0
   14.5647  -14.7937   20.1860 O   0  0  0  0  0  0  0  0  0  0  0  0
   12.9946  -15.1397   22.0094 C   0  0  0  0  0  0  0  0  0  0  0  0
   11.5493  -15.1971   22.2680 C   0  0  0  0  0  0  0  0  0  0  0  0
   11.1111  -16.2637   23.2285 C   0  0  2  0  0  0  0  0  0  0  0  0
    9.6399  -16.1972   23.3618 N   0  0  0  0  0  0  0  0  0  0  0  0
   11.6429  -16.1292   24.5815 C   0  0  0  0  0  0  0  0  0  0  0  0
   12.8641  -16.4072   24.8126 O   0  0  0  0  0  0  0  0  0  0  0  0
   10.9732  -14.4753   27.8730 C   0  0  0  0  0  0  0  0  0  0  0  0
   11.5591  -15.5915   27.0379 C   0  0  2  0  0  0  0  0  0  0  0  0
   10.9256  -15.6985   25.7337 N   0  0  0  0  0  0  0  0  0  0  0  0
   11.3700  -16.8558   27.7956 C   0  0  0  0  0  0  0  0  0  0  0  0
   10.6993  -17.9531   27.2618 O   0  0  0  0  0  0  0  0  0  0  0  0
   11.8405  -16.9211   28.9638 O   0  0  0  0  0  0  0  0  0  0  0  0
  2 13  1  0
  2  1  1  1
  3  2  1  0
  3  4  1  0
  4  5  2  0
  4 12  1  0
  5  6  1  0
  6  7  1  0
  7  8  2  0
  8  9  1  0
 10  9  2  0
 11 10  1  0
 12 11  2  0
 12  7  1  0
 13 21  1  0
 14 13  2  0
 16 15  1  0
 17 16  2  0
 18 16  1  0
 19 18  1  0
 20 19  1  6
 21 20  1  0
 22 26  1  0
 22 20  1  0
 23 22  2  0
 25 24  1  1
 25 26  1  0
 25 27  1  0
 27 29  2  0
 27 28  1  0
M  END
$$$$
