WQA.pdb
     RDKit          3D

 29 30  0  0  1  0  0  0  0  0999 V2000
    6.6313  -16.6474   23.7783 N   0  0  0  0  0  0  0  0  0  0  0  0
    7.8592  -16.1502   23.2395 C   0  0  1  0  0  0  0  0  0  0  0  0
    8.2926  -14.8240   23.8361 C   0  0  0  0  0  0  0  0  0  0  0  0
    7.2288  -14.3211   24.7363 C   0  0  0  0  0  0  0  0  0  0  0  0
    6.3024  -15.0731   25.4439 C   0  0  0  0  0  0  0  0  0  0  0  0
    5.4753  -14.2640   26.1351 N   0  0  0  0  0  0  0  0  0  0  0  0
    5.8310  -12.9896   25.9039 C   0  0  0  0  0  0  0  0  0  0  0  0
    5.3178  -11.7901   26.3689 C   0  0  0  0  0  0  0  0  0  0  0  0
    5.8728  -10.5842   25.9855 C   0  0  0  0  0  0  0  0  0  0  0  0
    6.9500  -10.5871   25.1298 C   0  0  0  0  0  0  0  0  0  0  0  0
    7.4605  -11.7991   24.6659 C   0  0  0  0  0  0  0  0  0  0  0  0
    6.9249  -13.0128   25.0323 C   0  0  0  0  0  0  0  0  0  0  0  0
    8.9448  -17.1595   23.3380 C   0  0  0  0  0  0  0  0  0  0  0  0
    9.1001  -18.0447   22.4315 O   0  0  0  0  0  0  0  0  0  0  0  0
   12.5480  -15.4196   20.3514 N   0  0  0  0  0  0  0  0  0  0  0  0
   13.2546  -15.1379   21.5434 C   0  0  0  0  0  0  0  0  0  0  0  0
   14.0509  -14.1733   21.5769 O   0  0  0  0  0  0  0  0  0  0  0  0
   12.9754  -16.0488   22.6885 C   0  0  0  0  0  0  0  0  0  0  0  0
   11.5603  -16.1962   23.0556 C   0  0  0  0  0  0  0  0  0  0  0  0
   11.2905  -17.1040   24.2196 C   0  0  2  0  0  0  0  0  0  0  0  0
    9.8302  -17.1511   24.4474 N   0  0  0  0  0  0  0  0  0  0  0  0
   11.8801  -16.6744   25.4843 C   0  0  0  0  0  0  0  0  0  0  0  0
   13.1467  -16.6253   25.6083 O   0  0  0  0  0  0  0  0  0  0  0  0
   11.1939  -14.7285   28.5718 C   0  0  0  0  0  0  0  0  0  0  0  0
   11.8646  -15.8910   27.8751 C   0  0  2  0  0  0  0  0  0  0  0  0
   11.1741  -16.2790   26.6560 N   0  0  0  0  0  0  0  0  0  0  0  0
   11.8794  -17.0292   28.8303 C   0  0  0  0  0  0  0  0  0  0  0  0
   12.4998  -16.9518   30.0745 O   0  0  0  0  0  0  0  0  0  0  0  0
   11.3044  -18.0975   28.4863 O   0  0  0  0  0  0  0  0  0  0  0  0
  2 13  1  0
  2  1  1  1
  3  2  1  0
  3  4  1  0
  4  5  2  0
  4 12  1  0
  5  6  1  0
  6  7  1  0
  7  8  2  0
  8  9  1  0
 10  9  2  0
 11 10  1  0
 12 11  2  0
 12  7  1  0
 13 21  1  0
 14 13  2  0
 16 15  1  0
 17 16  2  0
 18 16  1  0
 19 18  1  0
 20 19  1  6
 21 20  1  0
 22 26  1  0
 22 20  1  0
 23 22  2  0
 25 24  1  1
 25 26  1  0
 25 27  1  0
 27 29  2  0
 27 28  1  0
M  END
$$$$
