WQA.pdb
     RDKit          3D

 29 30  0  0  1  0  0  0  0  0999 V2000
    6.6533  -17.6828   24.7214 N   0  0  0  0  0  0  0  0  0  0  0  0
    7.3387  -16.6857   23.9589 C   0  0  1  0  0  0  0  0  0  0  0  0
    8.0995  -15.6856   24.8095 C   0  0  0  0  0  0  0  0  0  0  0  0
    7.1414  -14.9244   25.6448 C   0  0  0  0  0  0  0  0  0  0  0  0
    6.0669  -15.4296   26.3622 C   0  0  0  0  0  0  0  0  0  0  0  0
    5.4072  -14.4296   26.9798 N   0  0  0  0  0  0  0  0  0  0  0  0
    6.0192  -13.2696   26.6899 C   0  0  0  0  0  0  0  0  0  0  0  0
    5.7508  -11.9651   27.0704 C   0  0  0  0  0  0  0  0  0  0  0  0
    6.5472  -10.9217   26.6390 C   0  0  0  0  0  0  0  0  0  0  0  0
    7.6191  -11.1940   25.8207 C   0  0  0  0  0  0  0  0  0  0  0  0
    7.8823  -12.5101   25.4419 C   0  0  0  0  0  0  0  0  0  0  0  0
    7.1036  -13.5662   25.8574 C   0  0  0  0  0  0  0  0  0  0  0  0
    8.2241  -17.2973   22.9346 C   0  0  0  0  0  0  0  0  0  0  0  0
    8.8002  -18.4157   23.1507 O   0  0  0  0  0  0  0  0  0  0  0  0
    7.8539  -15.5284   17.2907 N   0  0  0  0  0  0  0  0  0  0  0  0
    8.2646  -14.5701   18.2459 C   0  0  0  0  0  0  0  0  0  0  0  0
    7.9346  -13.3719   18.1009 O   0  0  0  0  0  0  0  0  0  0  0  0
    9.0814  -15.0954   19.3754 C   0  0  0  0  0  0  0  0  0  0  0  0
    9.2477  -16.5547   19.4173 C   0  0  0  0  0  0  0  0  0  0  0  0
    9.4939  -17.1336   20.7797 C   0  0  2  0  0  0  0  0  0  0  0  0
    8.4404  -16.6427   21.6938 N   0  0  0  0  0  0  0  0  0  0  0  0
   10.7642  -16.7517   21.3899 C   0  0  0  0  0  0  0  0  0  0  0  0
   11.4113  -15.7541   20.9340 O   0  0  0  0  0  0  0  0  0  0  0  0
   12.7578  -17.0953   24.5282 C   0  0  0  0  0  0  0  0  0  0  0  0
   12.6655  -16.9193   23.0292 C   0  0  2  0  0  0  0  0  0  0  0  0
   11.3987  -17.3902   22.4933 N   0  0  0  0  0  0  0  0  0  0  0  0
   13.7852  -17.6868   22.4247 C   0  0  0  0  0  0  0  0  0  0  0  0
   13.5787  -18.6961   21.4879 O   0  0  0  0  0  0  0  0  0  0  0  0
   14.9598  -17.4011   22.7838 O   0  0  0  0  0  0  0  0  0  0  0  0
  2 13  1  0
  2  1  1  1
  3  2  1  0
  3  4  1  0
  4  5  2  0
  4 12  1  0
  5  6  1  0
  6  7  1  0
  7  8  2  0
  8  9  1  0
 10  9  2  0
 11 10  1  0
 12 11  2  0
 12  7  1  0
 13 21  1  0
 14 13  2  0
 16 15  1  0
 17 16  2  0
 18 16  1  0
 19 18  1  0
 20 19  1  6
 21 20  1  0
 22 26  1  0
 22 20  1  0
 23 22  2  0
 25 24  1  1
 25 26  1  0
 25 27  1  0
 27 29  2  0
 27 28  1  0
M  END
$$$$
