QCC.pdb
     RDKit          3D

 22 21  0  0  1  0  0  0  0  0999 V2000
    4.3345  -19.0678   20.3770 N   0  0  0  0  0  0  0  0  0  0  0  0
    4.7606  -19.2179   21.7384 C   0  0  0  0  0  0  0  0  0  0  0  0
    3.8842  -19.1241   22.6192 O   0  0  0  0  0  0  0  0  0  0  0  0
    6.1834  -19.4691   21.9770 C   0  0  0  0  0  0  0  0  0  0  0  0
    7.0622  -18.2858   22.0974 C   0  0  0  0  0  0  0  0  0  0  0  0
    7.5491  -17.9138   23.4438 C   0  0  2  0  0  0  0  0  0  0  0  0
    6.6564  -18.2227   24.5344 N   0  0  0  0  0  0  0  0  0  0  0  0
    8.0708  -16.5209   23.5248 C   0  0  0  0  0  0  0  0  0  0  0  0
    8.8675  -16.1387   22.6300 O   0  0  0  0  0  0  0  0  0  0  0  0
    7.7147  -15.6372   24.5404 N   0  0  0  0  0  0  0  0  0  0  0  0
    8.2387  -14.2800   24.6905 C   0  0  1  0  0  0  0  0  0  0  0  0
    7.1053  -13.2965   24.8285 C   0  0  0  0  0  0  0  0  0  0  0  0
    6.1423  -13.6850   26.3001 S   0  0  0  0  0  0  0  0  0  0  0  0
    9.1545  -14.2976   25.8314 C   0  0  0  0  0  0  0  0  0  0  0  0
    9.5990  -13.1754   26.2641 O   0  0  0  0  0  0  0  0  0  0  0  0
    9.6150  -15.4346   26.5292 N   0  0  0  0  0  0  0  0  0  0  0  0
   10.4391  -15.2818   27.7164 C   0  0  1  0  0  0  0  0  0  0  0  0
    9.7076  -14.5547   28.8227 C   0  0  0  0  0  0  0  0  0  0  0  0
    9.3377  -12.8809   28.1864 S   0  0  0  0  0  0  0  0  0  0  0  0
   10.8886  -16.6112   28.1914 C   0  0  0  0  0  0  0  0  0  0  0  0
   10.5387  -17.6289   27.5653 O   0  0  0  0  0  0  0  0  0  0  0  0
   11.6874  -16.7472   29.3134 O   0  0  0  0  0  0  0  0  0  0  0  0
  1  2  1  0
  2  3  2  0
  4  5  1  0
  4  2  1  0
  6  8  1  0
  6  5  1  0
  6  7  1  1
  8 10  1  0
  8  9  2  0
 10 11  1  0
 11 14  1  0
 11 12  1  1
 13 12  1  0
 14 16  1  0
 14 15  2  0
 16 17  1  0
 17 20  1  0
 17 18  1  1
 19 18  1  0
 20 22  1  0
 21 20  2  0
M  END
$$$$
