QCC.pdb
     RDKit          3D

 22 21  0  0  1  0  0  0  0  0999 V2000
   14.1567  -18.9960   15.0684 N   0  0  0  0  0  0  0  0  0  0  0  0
   13.7513  -18.5906   16.3833 C   0  0  0  0  0  0  0  0  0  0  0  0
   14.4786  -17.7669   16.9707 O   0  0  0  0  0  0  0  0  0  0  0  0
   12.5214  -19.1755   16.9212 C   0  0  0  0  0  0  0  0  0  0  0  0
   12.2527  -18.9656   18.3603 C   0  0  0  0  0  0  0  0  0  0  0  0
   11.0722  -18.1581   18.7379 C   0  0  2  0  0  0  0  0  0  0  0  0
   10.2595  -17.6945   17.6396 N   0  0  0  0  0  0  0  0  0  0  0  0
   11.3808  -17.0680   19.7051 C   0  0  0  0  0  0  0  0  0  0  0  0
   11.8293  -15.9859   19.2474 O   0  0  0  0  0  0  0  0  0  0  0  0
   11.1940  -17.1996   21.0786 N   0  0  0  0  0  0  0  0  0  0  0  0
   11.4810  -16.1591   22.0657 C   0  0  1  0  0  0  0  0  0  0  0  0
   10.3886  -16.1092   23.1025 C   0  0  0  0  0  0  0  0  0  0  0  0
   10.2696  -17.7025   23.9338 S   0  0  0  0  0  0  0  0  0  0  0  0
   12.8087  -16.4408   22.6122 C   0  0  0  0  0  0  0  0  0  0  0  0
   13.1674  -17.6671   22.7207 O   0  0  0  0  0  0  0  0  0  0  0  0
   13.7645  -15.4957   23.0422 N   0  0  0  0  0  0  0  0  0  0  0  0
   15.0325  -15.9370   23.5984 C   0  0  1  0  0  0  0  0  0  0  0  0
   16.0783  -14.8449   23.5580 C   0  0  0  0  0  0  0  0  0  0  0  0
   17.6054  -15.5636   24.2613 S   0  0  0  0  0  0  0  0  0  0  0  0
   14.8364  -16.4026   24.9911 C   0  0  0  0  0  0  0  0  0  0  0  0
   13.9851  -15.8397   25.7044 O   0  0  0  0  0  0  0  0  0  0  0  0
   15.5767  -17.4473   25.5164 O   0  0  0  0  0  0  0  0  0  0  0  0
  1  2  1  0
  2  3  2  0
  4  5  1  0
  4  2  1  0
  6  8  1  0
  6  5  1  0
  6  7  1  6
  8 10  1  0
  8  9  2  0
 10 11  1  0
 11 14  1  0
 11 12  1  1
 13 12  1  0
 14 16  1  0
 14 15  2  0
 16 17  1  0
 17 20  1  0
 17 18  1  1
 19 18  1  0
 20 22  1  0
 21 20  2  0
M  END
$$$$
