QCC.pdb
     RDKit          3D

 22 21  0  0  1  0  0  0  0  0999 V2000
    8.8257  -16.6453   15.6473 N   0  0  0  0  0  0  0  0  0  0  0  0
    8.0081  -17.4963   16.4627 C   0  0  0  0  0  0  0  0  0  0  0  0
    6.8279  -17.6636   16.0999 O   0  0  0  0  0  0  0  0  0  0  0  0
    8.6275  -18.0953   17.6467 C   0  0  0  0  0  0  0  0  0  0  0  0
   10.0187  -17.6961   17.9502 C   0  0  0  0  0  0  0  0  0  0  0  0
   10.6530  -18.2503   19.1662 C   0  0  2  0  0  0  0  0  0  0  0  0
    9.9063  -19.2851   19.8396 N   0  0  0  0  0  0  0  0  0  0  0  0
   11.1420  -17.2077   20.1111 C   0  0  0  0  0  0  0  0  0  0  0  0
   11.7694  -16.2285   19.6325 O   0  0  0  0  0  0  0  0  0  0  0  0
   10.9336  -17.2749   21.4862 N   0  0  0  0  0  0  0  0  0  0  0  0
   11.3994  -16.2809   22.4528 C   0  0  1  0  0  0  0  0  0  0  0  0
   10.4188  -16.1617   23.5908 C   0  0  0  0  0  0  0  0  0  0  0  0
   10.2936  -17.7396   24.4501 S   0  0  0  0  0  0  0  0  0  0  0  0
   12.7449  -16.6814   22.8652 C   0  0  0  0  0  0  0  0  0  0  0  0
   13.0717  -17.9147   22.7377 O   0  0  0  0  0  0  0  0  0  0  0  0
   13.7500  -15.8463   23.3981 N   0  0  0  0  0  0  0  0  0  0  0  0
   15.0890  -16.3639   23.6242 C   0  0  1  0  0  0  0  0  0  0  0  0
   16.1552  -15.3747   23.2088 C   0  0  0  0  0  0  0  0  0  0  0  0
   15.6984  -14.7925   21.5367 S   0  0  0  0  0  0  0  0  0  0  0  0
   15.2556  -16.7220   25.0521 C   0  0  0  0  0  0  0  0  0  0  0  0
   14.3341  -16.4723   25.8513 O   0  0  0  0  0  0  0  0  0  0  0  0
   16.4104  -17.3267   25.5170 O   0  0  0  0  0  0  0  0  0  0  0  0
  1  2  1  0
  2  3  2  0
  4  5  1  0
  4  2  1  0
  6  8  1  0
  6  5  1  0
  6  7  1  1
  8 10  1  0
  8  9  2  0
 10 11  1  0
 11 14  1  0
 11 12  1  1
 13 12  1  0
 14 16  1  0
 14 15  2  0
 16 17  1  0
 17 20  1  0
 17 18  1  1
 19 18  1  0
 20 22  1  0
 21 20  2  0
M  END
$$$$
