QCC.pdb
     RDKit          3D

 22 21  0  0  1  0  0  0  0  0999 V2000
    6.3143  -18.6383   24.1138 N   0  0  0  0  0  0  0  0  0  0  0  0
    7.3097  -18.9825   23.1400 C   0  0  0  0  0  0  0  0  0  0  0  0
    7.9635  -20.0237   23.3429 O   0  0  0  0  0  0  0  0  0  0  0  0
    7.4715  -18.0859   21.9936 C   0  0  0  0  0  0  0  0  0  0  0  0
    6.6548  -16.8530   21.9862 C   0  0  0  0  0  0  0  0  0  0  0  0
    7.3381  -15.5664   21.7290 C   0  0  2  0  0  0  0  0  0  0  0  0
    8.2861  -15.5730   20.6414 N   0  0  0  0  0  0  0  0  0  0  0  0
    7.8981  -14.9337   22.9559 C   0  0  0  0  0  0  0  0  0  0  0  0
    9.1487  -14.9079   23.0854 O   0  0  0  0  0  0  0  0  0  0  0  0
    7.1000  -14.3768   23.9519 N   0  0  0  0  0  0  0  0  0  0  0  0
    7.6033  -13.6901   25.1411 C   0  0  1  0  0  0  0  0  0  0  0  0
    6.5148  -12.8492   25.7567 C   0  0  0  0  0  0  0  0  0  0  0  0
    7.0786  -12.1899   27.3352 S   0  0  0  0  0  0  0  0  0  0  0  0
    8.1399  -14.7171   26.0345 C   0  0  0  0  0  0  0  0  0  0  0  0
    7.4232  -15.7571   26.2556 O   0  0  0  0  0  0  0  0  0  0  0  0
    9.3867  -14.6960   26.6954 N   0  0  0  0  0  0  0  0  0  0  0  0
    9.7762  -15.7969   27.5605 C   0  0  1  0  0  0  0  0  0  0  0  0
   10.9182  -16.5983   26.9762 C   0  0  0  0  0  0  0  0  0  0  0  0
   12.2218  -15.3953   26.5328 S   0  0  0  0  0  0  0  0  0  0  0  0
   10.1498  -15.2786   28.8972 C   0  0  0  0  0  0  0  0  0  0  0  0
   10.1479  -14.0490   29.0929 O   0  0  0  0  0  0  0  0  0  0  0  0
   10.5001  -16.1288   29.9315 O   0  0  0  0  0  0  0  0  0  0  0  0
  1  2  1  0
  2  3  2  0
  4  5  1  0
  4  2  1  0
  6  8  1  0
  6  5  1  0
  6  7  1  6
  8 10  1  0
  8  9  2  0
 10 11  1  0
 11 14  1  0
 11 12  1  1
 13 12  1  0
 14 16  1  0
 14 15  2  0
 16 17  1  0
 17 20  1  0
 17 18  1  6
 19 18  1  0
 20 22  1  0
 21 20  2  0
M  END
$$$$
