QCC.pdb
     RDKit          3D

 22 21  0  0  1  0  0  0  0  0999 V2000
   13.9827  -19.1523   23.2825 N   0  0  0  0  0  0  0  0  0  0  0  0
   13.7272  -18.6948   21.9472 C   0  0  0  0  0  0  0  0  0  0  0  0
   14.4971  -19.0976   21.0541 O   0  0  0  0  0  0  0  0  0  0  0  0
   12.5870  -17.7980   21.7471 C   0  0  0  0  0  0  0  0  0  0  0  0
   11.3526  -18.3960   21.1942 C   0  0  0  0  0  0  0  0  0  0  0  0
   10.2026  -17.5030   20.9326 C   0  0  2  0  0  0  0  0  0  0  0  0
   10.1459  -16.9352   19.6075 N   0  0  0  0  0  0  0  0  0  0  0  0
    9.9931  -16.4760   21.9911 C   0  0  0  0  0  0  0  0  0  0  0  0
   10.3614  -15.2983   21.7485 O   0  0  0  0  0  0  0  0  0  0  0  0
    9.4125  -16.7664   23.2230 N   0  0  0  0  0  0  0  0  0  0  0  0
    9.0787  -15.7751   24.2453 C   0  0  1  0  0  0  0  0  0  0  0  0
    7.6071  -15.8315   24.5647 C   0  0  0  0  0  0  0  0  0  0  0  0
    7.1968  -17.4478   25.2454 S   0  0  0  0  0  0  0  0  0  0  0  0
    9.9480  -16.0337   25.3935 C   0  0  0  0  0  0  0  0  0  0  0  0
   10.7338  -17.0455   25.3380 O   0  0  0  0  0  0  0  0  0  0  0  0
   10.0250  -15.2787   26.5833 N   0  0  0  0  0  0  0  0  0  0  0  0
   10.9922  -15.6267   27.6106 C   0  0  1  0  0  0  0  0  0  0  0  0
   11.2515  -14.4750   28.5563 C   0  0  0  0  0  0  0  0  0  0  0  0
    9.6176  -13.7661   28.9697 S   0  0  0  0  0  0  0  0  0  0  0  0
   10.5194  -16.8097   28.3669 C   0  0  0  0  0  0  0  0  0  0  0  0
    9.3866  -17.2682   28.1292 O   0  0  0  0  0  0  0  0  0  0  0  0
   11.3073  -17.4155   29.3301 O   0  0  0  0  0  0  0  0  0  0  0  0
  1  2  1  0
  2  3  2  0
  4  5  1  0
  4  2  1  0
  6  8  1  0
  6  5  1  0
  6  7  1  6
  8 10  1  0
  8  9  2  0
 10 11  1  0
 11 14  1  0
 11 12  1  1
 13 12  1  0
 14 16  1  0
 14 15  2  0
 16 17  1  0
 17 20  1  0
 17 18  1  1
 19 18  1  0
 20 22  1  0
 21 20  2  0
M  END
$$$$
