RED.pdb
     RDKit          3D

 29 28  0  0  1  0  0  0  0  0999 V2000
    7.0495  -14.7955   16.7708 N   0  0  0  0  0  0  0  0  0  0  0  0
    7.4403  -13.4803   17.1173 C   0  0  0  0  0  0  0  0  0  0  0  0
    7.8990  -12.7077   16.2167 N   0  0  0  0  0  0  0  0  0  0  0  0
    7.3092  -13.0558   18.4649 N   0  0  0  0  0  0  0  0  0  0  0  0
    6.7357  -13.9595   19.4418 C   0  0  0  0  0  0  0  0  0  0  0  0
    7.5096  -15.2276   19.5723 C   0  0  0  0  0  0  0  0  0  0  0  0
    8.7591  -15.1301   20.3586 C   0  0  0  0  0  0  0  0  0  0  0  0
    9.5449  -16.3765   20.5635 C   0  0  2  0  0  0  0  0  0  0  0  0
    8.7858  -17.5355   20.9408 N   0  0  0  0  0  0  0  0  0  0  0  0
   10.5121  -16.0867   21.6818 C   0  0  0  0  0  0  0  0  0  0  0  0
   11.2689  -15.0791   21.5834 O   0  0  0  0  0  0  0  0  0  0  0  0
    8.1722  -11.7227   16.3466 N   0  0  0  0  0  0  0  0  0  0  0  0
   10.5587  -16.9340   22.8101 C   0  0  1  0  0  0  0  0  0  0  0  0
   11.5382  -16.6930   23.8351 C   0  0  0  0  0  0  0  0  0  0  0  0
   11.1099  -17.4813   25.0594 C   0  0  0  0  0  0  0  0  0  0  0  0
   12.0731  -17.2189   26.2116 C   0  0  0  0  0  0  0  0  0  0  0  0
   11.6407  -17.9479   27.4312 O   0  0  0  0  0  0  0  0  0  0  0  0
   12.2285  -18.9614   27.8799 C   0  0  0  0  0  0  0  0  0  0  0  0
   12.8578  -17.2143   23.3258 O   0  0  0  0  0  0  0  0  0  0  0  0
   12.9546  -18.3605   22.8170 O   0  0  0  0  0  0  0  0  0  0  0  0
   10.5225  -17.4954   28.1279 N   0  0  0  0  0  0  0  0  0  0  0  0
   14.0332  -16.4278   23.4043 C   0  0  1  0  0  0  0  0  0  0  0  0
   15.2994  -17.0073   22.8927 C   0  0  0  0  0  0  0  0  0  0  0  0
   16.0927  -15.9059   22.2184 C   0  0  0  0  0  0  0  0  0  0  0  0
   15.3640  -15.3979   21.0595 O   0  0  0  0  0  0  0  0  0  0  0  0
   14.7728  -16.1599   20.2751 C   0  0  0  0  0  0  0  0  0  0  0  0
   15.9991  -17.4784   24.1108 O   0  0  0  0  0  0  0  0  0  0  0  0
   15.4574  -17.3209   25.2339 O   0  0  0  0  0  0  0  0  0  0  0  0
   15.3225  -14.0319   20.8158 O   0  0  0  0  0  0  0  0  0  0  0  0
  1  2  1  0
  2  3  2  0
  4  2  1  0
  5  4  1  0
  6  5  1  0
  7  6  1  0
  8  7  1  0
  8  9  1  1
 10  8  1  0
 10 12  1  0
 11 10  2  0
 13 12  1  0
 13 14  1  6
 15 14  1  0
 15 16  1  0
 16 17  2  0
 18 13  1  0
 19 18  2  0
 20 16  1  0
 21 18  1  0
 22 26  1  0
 22 21  1  0
 23 24  1  0
 22 23  1  6
 24 25  2  0
 26 29  1  0
 27 26  2  0
 28 24  1  0
M  END
$$$$
