RED.pdb
     RDKit          3D

 29 28  0  0  1  0  0  0  0  0999 V2000
    7.5825  -12.3057   20.8932 N   0  0  0  0  0  0  0  0  0  0  0  0
    8.0202  -12.2744   19.5479 C   0  0  0  0  0  0  0  0  0  0  0  0
    8.4289  -11.1775   19.0498 N   0  0  0  0  0  0  0  0  0  0  0  0
    7.9925  -13.4719   18.7871 N   0  0  0  0  0  0  0  0  0  0  0  0
    7.8431  -14.7426   19.4675 C   0  0  0  0  0  0  0  0  0  0  0  0
    8.8215  -14.9149   20.5797 C   0  0  0  0  0  0  0  0  0  0  0  0
    9.9750  -15.7915   20.2800 C   0  0  0  0  0  0  0  0  0  0  0  0
   10.5015  -15.7883   18.8887 C   0  0  2  0  0  0  0  0  0  0  0  0
    9.8878  -16.7245   17.9892 N   0  0  0  0  0  0  0  0  0  0  0  0
   11.9609  -16.1488   18.9887 C   0  0  0  0  0  0  0  0  0  0  0  0
   12.2850  -17.3705   18.9942 O   0  0  0  0  0  0  0  0  0  0  0  0
    8.6695  -11.0147   18.0612 N   0  0  0  0  0  0  0  0  0  0  0  0
   12.9340  -15.1294   19.0737 C   0  0  2  0  0  0  0  0  0  0  0  0
   14.3286  -15.4788   19.0377 C   0  0  0  0  0  0  0  0  0  0  0  0
   15.0227  -14.4637   18.1479 C   0  0  0  0  0  0  0  0  0  0  0  0
   16.4965  -14.8233   17.9981 C   0  0  0  0  0  0  0  0  0  0  0  0
   17.1872  -13.8446   17.1201 O   0  0  0  0  0  0  0  0  0  0  0  0
   17.7060  -12.7815   17.5379 C   0  0  0  0  0  0  0  0  0  0  0  0
   14.8547  -15.3699   20.4463 O   0  0  0  0  0  0  0  0  0  0  0  0
   14.5340  -14.4081   21.1906 O   0  0  0  0  0  0  0  0  0  0  0  0
   17.2729  -14.1052   15.7543 N   0  0  0  0  0  0  0  0  0  0  0  0
   15.7287  -16.3500   20.9772 C   0  0  1  0  0  0  0  0  0  0  0  0
   16.2643  -16.1436   22.3452 C   0  0  0  0  0  0  0  0  0  0  0  0
   16.5540  -17.5000   22.9562 C   0  0  0  0  0  0  0  0  0  0  0  0
   15.3472  -18.0419   23.5742 O   0  0  0  0  0  0  0  0  0  0  0  0
   14.3099  -17.3653   23.6835 C   0  0  0  0  0  0  0  0  0  0  0  0
   17.5233  -15.3925   22.1306 O   0  0  0  0  0  0  0  0  0  0  0  0
   17.9392  -15.2064   20.9593 O   0  0  0  0  0  0  0  0  0  0  0  0
   15.3444  -19.3437   24.0562 O   0  0  0  0  0  0  0  0  0  0  0  0
  1  2  1  0
  2  3  2  0
  4  2  1  0
  5  4  1  0
  6  5  1  0
  7  6  1  0
  8  7  1  0
  8  9  1  6
 10  8  1  0
 10 12  1  0
 11 10  2  0
 13 12  1  0
 13 14  1  6
 15 14  1  0
 15 16  1  0
 16 17  2  0
 18 13  1  0
 19 18  2  0
 20 16  1  0
 21 18  1  0
 22 26  1  0
 22 21  1  0
 23 24  1  0
 22 23  1  1
 24 25  2  0
 26 29  1  0
 27 26  2  0
 28 24  1  0
M  END
$$$$
