RED.pdb
     RDKit          3D

 29 28  0  0  1  0  0  0  0  0999 V2000
    8.9057  -13.1176   18.2416 N   0  0  0  0  0  0  0  0  0  0  0  0
    7.5139  -12.9172   18.4001 C   0  0  0  0  0  0  0  0  0  0  0  0
    6.9872  -11.8371   17.9825 N   0  0  0  0  0  0  0  0  0  0  0  0
    6.7391  -13.9302   19.0222 N   0  0  0  0  0  0  0  0  0  0  0  0
    7.3865  -14.8760   19.9089 C   0  0  0  0  0  0  0  0  0  0  0  0
    7.8988  -14.2349   21.1542 C   0  0  0  0  0  0  0  0  0  0  0  0
    7.6935  -15.0100   22.3975 C   0  0  0  0  0  0  0  0  0  0  0  0
    8.5668  -16.1924   22.6262 C   0  0  2  0  0  0  0  0  0  0  0  0
    8.4290  -17.2605   21.6764 N   0  0  0  0  0  0  0  0  0  0  0  0
    8.1907  -16.7396   23.9786 C   0  0  0  0  0  0  0  0  0  0  0  0
    8.1517  -15.9486   24.9637 O   0  0  0  0  0  0  0  0  0  0  0  0
    5.9858  -11.5979   18.0221 N   0  0  0  0  0  0  0  0  0  0  0  0
    7.8907  -18.1115   24.1248 C   0  0  1  0  0  0  0  0  0  0  0  0
    7.6118  -18.6385   25.4336 C   0  0  0  0  0  0  0  0  0  0  0  0
    6.8268  -19.9233   25.2420 C   0  0  0  0  0  0  0  0  0  0  0  0
    6.5567  -20.5755   26.5931 C   0  0  0  0  0  0  0  0  0  0  0  0
    5.7330  -21.8002   26.4275 O   0  0  0  0  0  0  0  0  0  0  0  0
    5.3425  -22.2298   25.3152 C   0  0  0  0  0  0  0  0  0  0  0  0
    8.9364  -18.9398   26.0872 O   0  0  0  0  0  0  0  0  0  0  0  0
    9.9570  -19.2063   25.4022 O   0  0  0  0  0  0  0  0  0  0  0  0
    5.3642  -22.5245   27.5588 N   0  0  0  0  0  0  0  0  0  0  0  0
    9.0736  -18.9321   27.4970 C   0  0  2  0  0  0  0  0  0  0  0  0
   10.3976  -19.2711   28.0738 C   0  0  0  0  0  0  0  0  0  0  0  0
   11.2518  -18.0190   28.0816 C   0  0  0  0  0  0  0  0  0  0  0  0
   12.6675  -18.3756   28.1024 O   0  0  0  0  0  0  0  0  0  0  0  0
   13.4541  -17.8763   28.9255 C   0  0  0  0  0  0  0  0  0  0  0  0
   10.0898  -19.6968   29.4592 O   0  0  0  0  0  0  0  0  0  0  0  0
   11.0148  -20.1289   30.1922 O   0  0  0  0  0  0  0  0  0  0  0  0
   13.1608  -19.2937   27.1855 O   0  0  0  0  0  0  0  0  0  0  0  0
  1  2  1  0
  2  3  2  0
  4  2  1  0
  5  4  1  0
  6  5  1  0
  7  6  1  0
  8  7  1  0
  8  9  1  6
 10  8  1  0
 10 12  1  0
 11 10  2  0
 13 12  1  0
 13 14  1  1
 15 14  1  0
 15 16  1  0
 16 17  2  0
 18 13  1  0
 19 18  2  0
 20 16  1  0
 21 18  1  0
 22 26  1  0
 22 21  1  0
 23 24  1  0
 22 23  1  1
 24 25  2  0
 26 29  1  0
 27 26  2  0
 28 24  1  0
M  END
$$$$
