RED.pdb
     RDKit          3D

 29 28  0  0  1  0  0  0  0  0999 V2000
    6.5991  -13.9032   21.8326 N   0  0  0  0  0  0  0  0  0  0  0  0
    6.5991  -14.0203   20.4224 C   0  0  0  0  0  0  0  0  0  0  0  0
    6.0813  -15.0487   19.8814 N   0  0  0  0  0  0  0  0  0  0  0  0
    7.1779  -12.9835   19.6456 N   0  0  0  0  0  0  0  0  0  0  0  0
    8.3411  -13.2711   18.8306 C   0  0  0  0  0  0  0  0  0  0  0  0
    9.6184  -12.8982   19.5042 C   0  0  0  0  0  0  0  0  0  0  0  0
   10.6294  -13.9751   19.5879 C   0  0  0  0  0  0  0  0  0  0  0  0
   11.3819  -14.3135   18.3501 C   0  0  2  0  0  0  0  0  0  0  0  0
   10.6211  -14.9559   17.3156 N   0  0  0  0  0  0  0  0  0  0  0  0
   12.4724  -15.2661   18.7662 C   0  0  0  0  0  0  0  0  0  0  0  0
   12.1650  -16.4647   19.0245 O   0  0  0  0  0  0  0  0  0  0  0  0
    6.0610  -15.2558   18.8723 N   0  0  0  0  0  0  0  0  0  0  0  0
   13.8061  -14.8124   18.8604 C   0  0  1  0  0  0  0  0  0  0  0  0
   14.8356  -15.7259   19.2774 C   0  0  0  0  0  0  0  0  0  0  0  0
   16.1410  -15.2344   18.6787 C   0  0  0  0  0  0  0  0  0  0  0  0
   15.8583  -14.2944   17.5124 C   0  0  0  0  0  0  0  0  0  0  0  0
   17.1256  -13.8630   16.8692 O   0  0  0  0  0  0  0  0  0  0  0  0
   17.3387  -13.9371   15.6351 C   0  0  0  0  0  0  0  0  0  0  0  0
   14.9068  -15.6647   20.7820 O   0  0  0  0  0  0  0  0  0  0  0  0
   14.7800  -14.5755   21.3980 O   0  0  0  0  0  0  0  0  0  0  0  0
   18.1448  -13.3450   17.6650 N   0  0  0  0  0  0  0  0  0  0  0  0
   15.1193  -16.8350   21.5512 C   0  0  2  0  0  0  0  0  0  0  0  0
   15.1111  -16.7125   23.0296 C   0  0  0  0  0  0  0  0  0  0  0  0
   14.3278  -17.8766   23.6027 C   0  0  0  0  0  0  0  0  0  0  0  0
   14.4150  -17.8731   25.0602 O   0  0  0  0  0  0  0  0  0  0  0  0
   15.1124  -17.0442   25.6702 C   0  0  0  0  0  0  0  0  0  0  0  0
   16.5401  -16.8131   23.4083 O   0  0  0  0  0  0  0  0  0  0  0  0
   17.3829  -17.1722   22.5479 O   0  0  0  0  0  0  0  0  0  0  0  0
   13.7065  -18.8135   25.7955 O   0  0  0  0  0  0  0  0  0  0  0  0
  1  2  1  0
  2  3  2  0
  4  2  1  0
  5  4  1  0
  6  5  1  0
  7  6  1  0
  8  7  1  0
  8  9  1  6
 10  8  1  0
 10 12  1  0
 11 10  2  0
 13 12  1  0
 13 14  1  6
 15 14  1  0
 15 16  1  0
 16 17  2  0
 18 13  1  0
 19 18  2  0
 20 16  1  0
 21 18  1  0
 22 26  1  0
 22 21  1  0
 23 24  1  0
 22 23  1  6
 24 25  2  0
 26 29  1  0
 27 26  2  0
 28 24  1  0
M  END
$$$$
