RED.pdb
     RDKit          3D

 29 28  0  0  1  0  0  0  0  0999 V2000
    9.1588  -13.9858   15.9523 N   0  0  0  0  0  0  0  0  0  0  0  0
    8.1245  -13.8661   16.9106 C   0  0  0  0  0  0  0  0  0  0  0  0
    6.9737  -14.3415   16.6498 N   0  0  0  0  0  0  0  0  0  0  0  0
    8.3991  -13.2173   18.1423 N   0  0  0  0  0  0  0  0  0  0  0  0
    7.3605  -13.1363   19.1497 C   0  0  0  0  0  0  0  0  0  0  0  0
    7.2332  -14.3927   19.9430 C   0  0  0  0  0  0  0  0  0  0  0  0
    8.2319  -14.5665   21.0206 C   0  0  0  0  0  0  0  0  0  0  0  0
    8.1984  -15.8363   21.7948 C   0  0  2  0  0  0  0  0  0  0  0  0
    7.0131  -16.0586   22.5742 N   0  0  0  0  0  0  0  0  0  0  0  0
    9.3624  -15.7794   22.7497 C   0  0  0  0  0  0  0  0  0  0  0  0
    9.2332  -15.1288   23.8256 O   0  0  0  0  0  0  0  0  0  0  0  0
    6.1710  -14.3706   17.2950 N   0  0  0  0  0  0  0  0  0  0  0  0
   10.5664  -16.4456   22.4332 C   0  0  1  0  0  0  0  0  0  0  0  0
   11.6478  -16.4393   23.3812 C   0  0  0  0  0  0  0  0  0  0  0  0
   11.3187  -17.4716   24.4442 C   0  0  0  0  0  0  0  0  0  0  0  0
   10.6619  -16.7953   25.6420 C   0  0  0  0  0  0  0  0  0  0  0  0
   10.4568  -17.7686   26.7449 O   0  0  0  0  0  0  0  0  0  0  0  0
   11.3319  -18.0430   27.6011 C   0  0  0  0  0  0  0  0  0  0  0  0
   12.8959  -16.8466   22.6404 O   0  0  0  0  0  0  0  0  0  0  0  0
   13.1516  -18.0559   22.4071 O   0  0  0  0  0  0  0  0  0  0  0  0
    9.2313  -18.4225   26.8497 N   0  0  0  0  0  0  0  0  0  0  0  0
   13.8223  -15.8779   22.1823 C   0  0  2  0  0  0  0  0  0  0  0  0
   15.1283  -16.3495   21.6601 C   0  0  0  0  0  0  0  0  0  0  0  0
   16.2033  -15.3820   22.1135 C   0  0  0  0  0  0  0  0  0  0  0  0
   16.2285  -14.2121   21.2402 O   0  0  0  0  0  0  0  0  0  0  0  0
   15.4509  -14.1003   20.2766 C   0  0  0  0  0  0  0  0  0  0  0  0
   15.3175  -17.6717   22.3013 O   0  0  0  0  0  0  0  0  0  0  0  0
   15.0573  -18.7157   21.6517 O   0  0  0  0  0  0  0  0  0  0  0  0
   17.1385  -13.1918   21.4805 O   0  0  0  0  0  0  0  0  0  0  0  0
  1  2  1  0
  2  3  2  0
  4  2  1  0
  5  4  1  0
  6  5  1  0
  7  6  1  0
  8  7  1  0
  8  9  1  1
 10  8  1  0
 10 12  1  0
 11 10  2  0
 13 12  1  0
 13 14  1  1
 15 14  1  0
 15 16  1  0
 16 17  2  0
 18 13  1  0
 19 18  2  0
 20 16  1  0
 21 18  1  0
 22 26  1  0
 22 21  1  0
 23 24  1  0
 22 23  1  6
 24 25  2  0
 26 29  1  0
 27 26  2  0
 28 24  1  0
M  END
$$$$
