RED.pdb
     RDKit          3D

 29 28  0  0  1  0  0  0  0  0999 V2000
    8.1255  -15.3591   15.6741 N   0  0  0  0  0  0  0  0  0  0  0  0
    7.7274  -14.0197   15.8972 C   0  0  0  0  0  0  0  0  0  0  0  0
    7.0619  -13.4088   15.0016 N   0  0  0  0  0  0  0  0  0  0  0  0
    8.0814  -13.3909   17.1190 N   0  0  0  0  0  0  0  0  0  0  0  0
    8.9301  -14.0939   18.0600 C   0  0  0  0  0  0  0  0  0  0  0  0
    8.5085  -13.8883   19.4756 C   0  0  0  0  0  0  0  0  0  0  0  0
    7.9801  -15.0882   20.1609 C   0  0  0  0  0  0  0  0  0  0  0  0
    7.5424  -14.9394   21.5748 C   0  0  2  0  0  0  0  0  0  0  0  0
    6.7596  -13.7708   21.8639 N   0  0  0  0  0  0  0  0  0  0  0  0
    8.8005  -14.8553   22.3995 C   0  0  0  0  0  0  0  0  0  0  0  0
    9.1888  -13.7209   22.7998 O   0  0  0  0  0  0  0  0  0  0  0  0
    6.8426  -12.4021   14.9922 N   0  0  0  0  0  0  0  0  0  0  0  0
    9.5190  -16.0303   22.7101 C   0  0  2  0  0  0  0  0  0  0  0  0
   10.6516  -15.9535   23.5930 C   0  0  0  0  0  0  0  0  0  0  0  0
   10.4091  -16.9401   24.7208 C   0  0  0  0  0  0  0  0  0  0  0  0
   11.5798  -16.9141   25.6968 C   0  0  0  0  0  0  0  0  0  0  0  0
   11.3939  -17.9304   26.7638 O   0  0  0  0  0  0  0  0  0  0  0  0
   12.1229  -18.9432   26.8934 C   0  0  0  0  0  0  0  0  0  0  0  0
   11.8659  -16.3681   22.8017 O   0  0  0  0  0  0  0  0  0  0  0  0
   11.9312  -17.4960   22.2489 O   0  0  0  0  0  0  0  0  0  0  0  0
   10.3576  -17.7660   27.6801 N   0  0  0  0  0  0  0  0  0  0  0  0
   12.9743  -15.4984   22.6555 C   0  0  1  0  0  0  0  0  0  0  0  0
   14.1745  -16.0062   21.9468 C   0  0  0  0  0  0  0  0  0  0  0  0
   14.8884  -14.8306   21.3100 C   0  0  0  0  0  0  0  0  0  0  0  0
   14.3918  -14.6145   19.9541 O   0  0  0  0  0  0  0  0  0  0  0  0
   13.6854  -15.4584   19.3757 C   0  0  0  0  0  0  0  0  0  0  0  0
   15.0059  -16.5966   23.0218 O   0  0  0  0  0  0  0  0  0  0  0  0
   14.6266  -16.5047   24.2165 O   0  0  0  0  0  0  0  0  0  0  0  0
   14.7089  -13.4418   19.2824 O   0  0  0  0  0  0  0  0  0  0  0  0
  1  2  1  0
  2  3  2  0
  4  2  1  0
  5  4  1  0
  6  5  1  0
  7  6  1  0
  8  7  1  0
  8  9  1  6
 10  8  1  0
 10 12  1  0
 11 10  2  0
 13 12  1  0
 13 14  1  6
 15 14  1  0
 15 16  1  0
 16 17  2  0
 18 13  1  0
 19 18  2  0
 20 16  1  0
 21 18  1  0
 22 26  1  0
 22 21  1  0
 23 24  1  0
 22 23  1  1
 24 25  2  0
 26 29  1  0
 27 26  2  0
 28 24  1  0
M  END
$$$$
