RED.pdb
     RDKit          3D

 29 28  0  0  1  0  0  0  0  0999 V2000
    7.8207  -12.1241   20.8512 N   0  0  0  0  0  0  0  0  0  0  0  0
    7.6077  -12.7454   19.5978 C   0  0  0  0  0  0  0  0  0  0  0  0
    7.6615  -12.0455   18.5369 N   0  0  0  0  0  0  0  0  0  0  0  0
    7.3396  -14.1382   19.5567 N   0  0  0  0  0  0  0  0  0  0  0  0
    8.3440  -15.0693   20.0303 C   0  0  0  0  0  0  0  0  0  0  0  0
    9.2935  -15.4820   18.9569 C   0  0  0  0  0  0  0  0  0  0  0  0
    9.6100  -16.9264   18.9107 C   0  0  0  0  0  0  0  0  0  0  0  0
   10.3494  -17.5085   20.0628 C   0  0  2  0  0  0  0  0  0  0  0  0
    9.9891  -16.9975   21.3555 N   0  0  0  0  0  0  0  0  0  0  0  0
   11.8035  -17.1842   19.8385 C   0  0  0  0  0  0  0  0  0  0  0  0
   12.3212  -17.4614   18.7192 O   0  0  0  0  0  0  0  0  0  0  0  0
    7.4994  -12.3868   17.5783 N   0  0  0  0  0  0  0  0  0  0  0  0
   12.5581  -16.5825   20.8690 C   0  0  1  0  0  0  0  0  0  0  0  0
   13.9035  -16.1512   20.6003 C   0  0  0  0  0  0  0  0  0  0  0  0
   13.8724  -14.6393   20.4699 C   0  0  0  0  0  0  0  0  0  0  0  0
   13.7442  -14.2451   19.0029 C   0  0  0  0  0  0  0  0  0  0  0  0
   15.0853  -14.0904   18.3837 O   0  0  0  0  0  0  0  0  0  0  0  0
   16.0098  -13.4097   18.8897 C   0  0  0  0  0  0  0  0  0  0  0  0
   14.7463  -16.5460   21.7862 O   0  0  0  0  0  0  0  0  0  0  0  0
   14.2927  -16.4880   22.9580 O   0  0  0  0  0  0  0  0  0  0  0  0
   15.3487  -14.7292   17.1742 N   0  0  0  0  0  0  0  0  0  0  0  0
   16.0788  -16.9958   21.6179 C   0  0  2  0  0  0  0  0  0  0  0  0
   16.8647  -17.3278   22.8315 C   0  0  0  0  0  0  0  0  0  0  0  0
   18.1566  -17.9921   22.3992 C   0  0  0  0  0  0  0  0  0  0  0  0
   17.8944  -19.3547   21.9445 O   0  0  0  0  0  0  0  0  0  0  0  0
   16.7664  -19.8686   22.0398 C   0  0  0  0  0  0  0  0  0  0  0  0
   17.1418  -16.0119   23.4536 O   0  0  0  0  0  0  0  0  0  0  0  0
   16.9702  -14.9634   22.7823 O   0  0  0  0  0  0  0  0  0  0  0  0
   18.9215  -20.1062   21.3902 O   0  0  0  0  0  0  0  0  0  0  0  0
  1  2  1  0
  2  3  2  0
  4  2  1  0
  5  4  1  0
  6  5  1  0
  7  6  1  0
  8  7  1  0
  8  9  1  1
 10  8  1  0
 10 12  1  0
 11 10  2  0
 13 12  1  0
 13 14  1  6
 15 14  1  0
 15 16  1  0
 16 17  2  0
 18 13  1  0
 19 18  2  0
 20 16  1  0
 21 18  1  0
 22 26  1  0
 22 21  1  0
 23 24  1  0
 22 23  1  1
 24 25  2  0
 26 29  1  0
 27 26  2  0
 28 24  1  0
M  END
$$$$
