RED.pdb
     RDKit          3D

 29 28  0  0  1  0  0  0  0  0999 V2000
    7.2196  -12.0001   20.8723 N   0  0  0  0  0  0  0  0  0  0  0  0
    7.7099  -12.2509   19.5688 C   0  0  0  0  0  0  0  0  0  0  0  0
    8.2356  -11.3007   18.9061 N   0  0  0  0  0  0  0  0  0  0  0  0
    7.6029  -13.5605   19.0333 N   0  0  0  0  0  0  0  0  0  0  0  0
    7.7195  -14.7018   19.9187 C   0  0  0  0  0  0  0  0  0  0  0  0
    8.9630  -14.6636   20.7410 C   0  0  0  0  0  0  0  0  0  0  0  0
    9.2042  -15.8565   21.5823 C   0  0  0  0  0  0  0  0  0  0  0  0
    9.5177  -17.1363   20.8920 C   0  0  2  0  0  0  0  0  0  0  0  0
    8.4717  -18.1200   20.9001 N   0  0  0  0  0  0  0  0  0  0  0  0
   10.6993  -17.7279   21.6158 C   0  0  0  0  0  0  0  0  0  0  0  0
   10.5645  -18.8505   22.1810 O   0  0  0  0  0  0  0  0  0  0  0  0
    8.6449  -11.3750   17.9635 N   0  0  0  0  0  0  0  0  0  0  0  0
   11.9254  -17.0289   21.6518 C   0  0  1  0  0  0  0  0  0  0  0  0
   13.0549  -17.6169   22.3203 C   0  0  0  0  0  0  0  0  0  0  0  0
   14.2214  -16.6597   22.1568 C   0  0  0  0  0  0  0  0  0  0  0  0
   15.4746  -17.2519   22.7914 C   0  0  0  0  0  0  0  0  0  0  0  0
   16.6521  -16.3849   22.5317 O   0  0  0  0  0  0  0  0  0  0  0  0
   16.7305  -15.1895   22.9043 C   0  0  0  0  0  0  0  0  0  0  0  0
   12.6965  -17.7435   23.7791 O   0  0  0  0  0  0  0  0  0  0  0  0
   12.1542  -16.7956   24.4030 O   0  0  0  0  0  0  0  0  0  0  0  0
   17.7387  -16.9116   21.8371 N   0  0  0  0  0  0  0  0  0  0  0  0
   12.9599  -18.9371   24.4949 C   0  0  1  0  0  0  0  0  0  0  0  0
   12.5776  -18.9939   25.9272 C   0  0  0  0  0  0  0  0  0  0  0  0
   11.5100  -20.0563   26.0965 C   0  0  0  0  0  0  0  0  0  0  0  0
   11.2910  -20.3284   27.5142 O   0  0  0  0  0  0  0  0  0  0  0  0
   10.6060  -19.5731   28.2254 C   0  0  0  0  0  0  0  0  0  0  0  0
   13.8245  -19.3976   26.6182 O   0  0  0  0  0  0  0  0  0  0  0  0
   14.7593  -19.9124   25.9543 O   0  0  0  0  0  0  0  0  0  0  0  0
   11.8562  -21.4553   28.0953 O   0  0  0  0  0  0  0  0  0  0  0  0
  1  2  1  0
  2  3  2  0
  4  2  1  0
  5  4  1  0
  6  5  1  0
  7  6  1  0
  8  7  1  0
  8  9  1  1
 10  8  1  0
 10 12  1  0
 11 10  2  0
 13 12  1  0
 13 14  1  6
 15 14  1  0
 15 16  1  0
 16 17  2  0
 18 13  1  0
 19 18  2  0
 20 16  1  0
 21 18  1  0
 22 26  1  0
 22 21  1  0
 23 24  1  0
 22 23  1  1
 24 25  2  0
 26 29  1  0
 27 26  2  0
 28 24  1  0
M  END
$$$$
