RED.pdb
     RDKit          3D

 29 28  0  0  1  0  0  0  0  0999 V2000
    9.4676  -15.2375   18.0518 N   0  0  0  0  0  0  0  0  0  0  0  0
    9.8503  -13.9052   18.3362 C   0  0  0  0  0  0  0  0  0  0  0  0
   11.0832  -13.5922   18.3171 N   0  0  0  0  0  0  0  0  0  0  0  0
    8.8452  -12.9493   18.6355 N   0  0  0  0  0  0  0  0  0  0  0  0
    8.0187  -13.1321   19.8118 C   0  0  0  0  0  0  0  0  0  0  0  0
    7.2371  -14.4015   19.7706 C   0  0  0  0  0  0  0  0  0  0  0  0
    7.9221  -15.5868   20.3315 C   0  0  0  0  0  0  0  0  0  0  0  0
    7.4540  -16.0960   21.6485 C   0  0  2  0  0  0  0  0  0  0  0  0
    6.3038  -15.4348   22.1979 N   0  0  0  0  0  0  0  0  0  0  0  0
    8.5952  -15.8903   22.6105 C   0  0  0  0  0  0  0  0  0  0  0  0
    8.6559  -14.8057   23.2567 O   0  0  0  0  0  0  0  0  0  0  0  0
   11.4687  -12.6449   18.4428 N   0  0  0  0  0  0  0  0  0  0  0  0
    9.5685  -16.8997   22.7748 C   0  0  1  0  0  0  0  0  0  0  0  0
   10.6670  -16.6822   23.6773 C   0  0  0  0  0  0  0  0  0  0  0  0
   10.5912  -17.7592   24.7442 C   0  0  0  0  0  0  0  0  0  0  0  0
   11.7386  -17.5939   25.7341 C   0  0  0  0  0  0  0  0  0  0  0  0
   11.7301  -18.6930   26.7330 O   0  0  0  0  0  0  0  0  0  0  0  0
   10.8157  -18.8588   27.5758 C   0  0  0  0  0  0  0  0  0  0  0  0
   11.9382  -16.8373   22.8820 O   0  0  0  0  0  0  0  0  0  0  0  0
   12.1097  -17.8144   22.1088 O   0  0  0  0  0  0  0  0  0  0  0  0
   12.7880  -19.5992   26.7494 N   0  0  0  0  0  0  0  0  0  0  0  0
   12.9821  -15.8850   22.9806 C   0  0  1  0  0  0  0  0  0  0  0  0
   14.2446  -16.1512   22.2484 C   0  0  0  0  0  0  0  0  0  0  0  0
   14.7063  -14.8595   21.6038 C   0  0  0  0  0  0  0  0  0  0  0  0
   14.1379  -14.7339   20.2647 O   0  0  0  0  0  0  0  0  0  0  0  0
   13.3935  -15.6077   19.7872 C   0  0  0  0  0  0  0  0  0  0  0  0
   15.1939  -16.5706   23.3058 O   0  0  0  0  0  0  0  0  0  0  0  0
   14.8143  -16.5903   24.5038 O   0  0  0  0  0  0  0  0  0  0  0  0
   14.4279  -13.6159   19.4947 O   0  0  0  0  0  0  0  0  0  0  0  0
  1  2  1  0
  2  3  2  0
  4  2  1  0
  5  4  1  0
  6  5  1  0
  7  6  1  0
  8  7  1  0
  8  9  1  1
 10  8  1  0
 10 12  1  0
 11 10  2  0
 13 12  1  0
 13 14  1  6
 15 14  1  0
 15 16  1  0
 16 17  2  0
 18 13  1  0
 19 18  2  0
 20 16  1  0
 21 18  1  0
 22 26  1  0
 22 21  1  0
 23 24  1  0
 22 23  1  1
 24 25  2  0
 26 29  1  0
 27 26  2  0
 28 24  1  0
M  END
$$$$
