RED.pdb
     RDKit          3D

 29 28  0  0  1  0  0  0  0  0999 V2000
    7.5340  -11.7274   19.5550 N   0  0  0  0  0  0  0  0  0  0  0  0
    8.3004  -12.7843   20.1010 C   0  0  0  0  0  0  0  0  0  0  0  0
    9.5003  -12.9506   19.7126 N   0  0  0  0  0  0  0  0  0  0  0  0
    7.7086  -13.6335   21.0716 N   0  0  0  0  0  0  0  0  0  0  0  0
    8.4758  -14.7381   21.6114 C   0  0  0  0  0  0  0  0  0  0  0  0
    8.6206  -15.8622   20.6422 C   0  0  0  0  0  0  0  0  0  0  0  0
    9.3010  -17.0673   21.1652 C   0  0  0  0  0  0  0  0  0  0  0  0
    9.5359  -18.1923   20.2208 C   0  0  2  0  0  0  0  0  0  0  0  0
    8.4140  -19.0597   19.9952 N   0  0  0  0  0  0  0  0  0  0  0  0
   10.6371  -19.0259   20.8227 C   0  0  0  0  0  0  0  0  0  0  0  0
   10.3259  -20.0656   21.4707 O   0  0  0  0  0  0  0  0  0  0  0  0
   10.1438  -13.6878   20.0355 N   0  0  0  0  0  0  0  0  0  0  0  0
   11.9847  -18.6390   20.6564 C   0  0  2  0  0  0  0  0  0  0  0  0
   13.0260  -19.4279   21.2578 C   0  0  0  0  0  0  0  0  0  0  0  0
   14.3227  -19.0706   20.5544 C   0  0  0  0  0  0  0  0  0  0  0  0
   15.4582  -19.9408   21.0808 C   0  0  0  0  0  0  0  0  0  0  0  0
   16.7379  -19.5915   20.4128 O   0  0  0  0  0  0  0  0  0  0  0  0
   17.0326  -19.9474   19.2464 C   0  0  0  0  0  0  0  0  0  0  0  0
   13.1054  -19.0331   22.7105 O   0  0  0  0  0  0  0  0  0  0  0  0
   13.2745  -17.8348   23.0532 O   0  0  0  0  0  0  0  0  0  0  0  0
   17.6745  -18.8270   21.1048 N   0  0  0  0  0  0  0  0  0  0  0  0
   12.9917  -20.0017   23.7378 C   0  0  1  0  0  0  0  0  0  0  0  0
   13.1576  -19.5554   25.1428 C   0  0  0  0  0  0  0  0  0  0  0  0
   12.5207  -20.5873   26.0519 C   0  0  0  0  0  0  0  0  0  0  0  0
   11.1219  -20.2476   26.2968 O   0  0  0  0  0  0  0  0  0  0  0  0
   10.6413  -19.1602   25.9333 C   0  0  0  0  0  0  0  0  0  0  0  0
   14.6256  -19.5256   25.3414 O   0  0  0  0  0  0  0  0  0  0  0  0
   15.3807  -19.9459   24.4288 O   0  0  0  0  0  0  0  0  0  0  0  0
   10.2970  -21.1524   26.9509 O   0  0  0  0  0  0  0  0  0  0  0  0
  1  2  1  0
  2  3  2  0
  4  2  1  0
  5  4  1  0
  6  5  1  0
  7  6  1  0
  8  7  1  0
  8  9  1  1
 10  8  1  0
 10 12  1  0
 11 10  2  0
 13 12  1  0
 13 14  1  6
 15 14  1  0
 15 16  1  0
 16 17  2  0
 18 13  1  0
 19 18  2  0
 20 16  1  0
 21 18  1  0
 22 26  1  0
 22 21  1  0
 23 24  1  0
 22 23  1  1
 24 25  2  0
 26 29  1  0
 27 26  2  0
 28 24  1  0
M  END
$$$$
