RED.pdb
     RDKit          3D

 29 28  0  0  1  0  0  0  0  0999 V2000
    7.7047  -12.5615   16.2186 N   0  0  0  0  0  0  0  0  0  0  0  0
    7.5689  -13.0429   17.5423 C   0  0  0  0  0  0  0  0  0  0  0  0
    7.2547  -12.2333   18.4719 N   0  0  0  0  0  0  0  0  0  0  0  0
    7.7866  -14.4214   17.7991 N   0  0  0  0  0  0  0  0  0  0  0  0
    7.5476  -14.9425   19.1301 C   0  0  0  0  0  0  0  0  0  0  0  0
    8.4038  -14.2905   20.1624 C   0  0  0  0  0  0  0  0  0  0  0  0
    8.3867  -14.9296   21.4966 C   0  0  0  0  0  0  0  0  0  0  0  0
    9.2660  -16.1107   21.7078 C   0  0  2  0  0  0  0  0  0  0  0  0
    8.5972  -17.3794   21.7788 N   0  0  0  0  0  0  0  0  0  0  0  0
    9.9585  -15.8911   23.0277 C   0  0  0  0  0  0  0  0  0  0  0  0
   10.4747  -14.7612   23.2613 O   0  0  0  0  0  0  0  0  0  0  0  0
    7.1224  -12.4744   19.4649 N   0  0  0  0  0  0  0  0  0  0  0  0
   10.0199  -16.9374   23.9736 C   0  0  1  0  0  0  0  0  0  0  0  0
   10.5531  -16.6756   25.2834 C   0  0  0  0  0  0  0  0  0  0  0  0
    9.5785  -15.7495   25.9878 C   0  0  0  0  0  0  0  0  0  0  0  0
   10.0304  -15.5120   27.4242 C   0  0  0  0  0  0  0  0  0  0  0  0
    9.4542  -14.2489   27.9518 O   0  0  0  0  0  0  0  0  0  0  0  0
    8.4831  -13.6547   27.4246 C   0  0  0  0  0  0  0  0  0  0  0  0
   10.6237  -17.9943   26.0106 O   0  0  0  0  0  0  0  0  0  0  0  0
    9.6306  -18.7643   26.0644 O   0  0  0  0  0  0  0  0  0  0  0  0
   10.0104  -13.6781   29.0943 N   0  0  0  0  0  0  0  0  0  0  0  0
   11.8136  -18.4087   26.6576 C   0  0  2  0  0  0  0  0  0  0  0  0
   11.8070  -19.7100   27.3698 C   0  0  0  0  0  0  0  0  0  0  0  0
   13.2427  -20.1320   27.6105 C   0  0  0  0  0  0  0  0  0  0  0  0
   13.9166  -20.3734   26.3379 O   0  0  0  0  0  0  0  0  0  0  0  0
   13.3202  -20.2633   25.2526 C   0  0  0  0  0  0  0  0  0  0  0  0
   11.1313  -19.4150   28.6550 O   0  0  0  0  0  0  0  0  0  0  0  0
   11.0159  -18.2217   29.0321 O   0  0  0  0  0  0  0  0  0  0  0  0
   15.2566  -20.7356   26.3252 O   0  0  0  0  0  0  0  0  0  0  0  0
  1  2  1  0
  2  3  2  0
  4  2  1  0
  5  4  1  0
  6  5  1  0
  7  6  1  0
  8  7  1  0
  8  9  1  1
 10  8  1  0
 10 12  1  0
 11 10  2  0
 13 12  1  0
 13 14  1  6
 15 14  1  0
 15 16  1  0
 16 17  2  0
 18 13  1  0
 19 18  2  0
 20 16  1  0
 21 18  1  0
 22 26  1  0
 22 21  1  0
 23 24  1  0
 22 23  1  6
 24 25  2  0
 26 29  1  0
 27 26  2  0
 28 24  1  0
M  END
$$$$
