DEK.pdb
     RDKit          3D

 27 26  0  0  1  0  0  0  0  0999 V2000
    3.5737  -23.2241   21.5024 N   0  0  0  0  0  0  0  0  0  0  0  0
    3.9301  -21.8841   21.8969 C   0  0  1  0  0  0  0  0  0  0  0  0
    2.8984  -21.3547   22.8468 C   0  0  0  0  0  0  0  0  0  0  0  0
    1.8106  -20.7084   22.0736 C   0  0  0  0  0  0  0  0  0  0  0  0
    1.9461  -20.4581   20.8640 O   0  0  0  0  0  0  0  0  0  0  0  0
    5.2948  -21.8577   22.4490 C   0  0  0  0  0  0  0  0  0  0  0  0
    5.7064  -22.8258   23.1562 O   0  0  0  0  0  0  0  0  0  0  0  0
    0.6065  -20.3650   22.6868 O   0  0  0  0  0  0  0  0  0  0  0  0
    6.1903  -20.7954   22.2325 N   0  0  0  0  0  0  0  0  0  0  0  0
    7.5411  -20.7499   22.7218 C   0  0  1  0  0  0  0  0  0  0  0  0
    8.5250  -20.1872   21.7431 C   0  0  0  0  0  0  0  0  0  0  0  0
    9.9389  -20.1995   22.2655 C   0  0  0  0  0  0  0  0  0  0  0  0
   10.8274  -19.6130   21.2494 C   0  0  0  0  0  0  0  0  0  0  0  0
   11.0261  -20.2005   20.1697 O   0  0  0  0  0  0  0  0  0  0  0  0
    7.6381  -19.9607   23.9922 C   0  0  0  0  0  0  0  0  0  0  0  0
    7.1521  -18.7798   24.0311 O   0  0  0  0  0  0  0  0  0  0  0  0
   11.4467  -18.4068   21.4876 O   0  0  0  0  0  0  0  0  0  0  0  0
    8.2347  -20.4474   25.1441 N   0  0  0  0  0  0  0  0  0  0  0  0
    8.3913  -19.6366   26.4035 C   0  0  1  0  0  0  0  0  0  0  0  0
    8.7199  -20.6202   27.4739 C   0  0  0  0  0  0  0  0  0  0  0  0
    9.1122  -20.2060   28.8110 C   0  0  0  0  0  0  0  0  0  0  0  0
    9.4153  -21.1285   29.9035 C   0  0  0  0  0  0  0  0  0  0  0  0
    9.9786  -20.5143   31.1630 C   0  0  0  0  0  0  0  0  0  0  0  0
   10.1191  -21.4936   32.2064 N   0  0  0  0  0  0  0  0  0  0  0  0
    9.4440  -18.6622   26.1518 C   0  0  0  0  0  0  0  0  0  0  0  0
    9.4678  -17.4317   26.8541 O   0  0  0  0  0  0  0  0  0  0  0  0
   10.3574  -18.8123   25.3500 O   0  0  0  0  0  0  0  0  0  0  0  0
  2  1  1  1
  3  2  1  0
  4  3  1  0
  5  4  2  0
  6  7  2  0
  6  2  1  0
  8  4  1  0
  9  6  1  0
 10 11  1  6
 10  9  1  0
 11 12  1  0
 13 17  1  0
 13 12  1  0
 14 13  2  0
 15 18  1  0
 15 10  1  0
 16 15  2  0
 19 18  1  0
 19 20  1  1
 21 20  1  0
 22 21  1  0
 23 22  1  0
 24 23  1  0
 25 26  1  0
 25 19  1  0
 27 25  2  0
M  END
$$$$
