DEK.pdb
     RDKit          3D

 27 26  0  0  1  0  0  0  0  0999 V2000
   10.2178  -15.3913   17.7967 N   0  0  0  0  0  0  0  0  0  0  0  0
    8.8794  -15.1443   18.2716 C   0  0  1  0  0  0  0  0  0  0  0  0
    7.8933  -15.6064   17.2414 C   0  0  0  0  0  0  0  0  0  0  0  0
    8.2484  -15.0159   15.9283 C   0  0  0  0  0  0  0  0  0  0  0  0
    7.4456  -15.0338   14.9800 O   0  0  0  0  0  0  0  0  0  0  0  0
    8.6785  -15.7709   19.5888 C   0  0  0  0  0  0  0  0  0  0  0  0
    7.5108  -15.8532   20.0751 O   0  0  0  0  0  0  0  0  0  0  0  0
    9.4949  -14.4250   15.7256 O   0  0  0  0  0  0  0  0  0  0  0  0
    9.7320  -16.2964   20.3578 N   0  0  0  0  0  0  0  0  0  0  0  0
    9.5818  -16.8798   21.6629 C   0  0  1  0  0  0  0  0  0  0  0  0
   10.5406  -17.9948   21.9459 C   0  0  0  0  0  0  0  0  0  0  0  0
   10.2416  -19.2375   21.1470 C   0  0  0  0  0  0  0  0  0  0  0  0
   11.3289  -20.2081   21.3509 C   0  0  0  0  0  0  0  0  0  0  0  0
   11.9064  -20.2872   22.4512 O   0  0  0  0  0  0  0  0  0  0  0  0
    9.7251  -15.8512   22.7434 C   0  0  0  0  0  0  0  0  0  0  0  0
   10.8875  -15.4037   23.0279 O   0  0  0  0  0  0  0  0  0  0  0  0
   11.7157  -21.0374   20.3224 O   0  0  0  0  0  0  0  0  0  0  0  0
    8.6513  -15.3511   23.4622 N   0  0  0  0  0  0  0  0  0  0  0  0
    8.8025  -14.4944   24.6915 C   0  0  1  0  0  0  0  0  0  0  0  0
    7.5022  -13.7826   24.8451 C   0  0  0  0  0  0  0  0  0  0  0  0
    7.2408  -12.8804   25.9546 C   0  0  0  0  0  0  0  0  0  0  0  0
    6.0356  -12.0638   26.0860 C   0  0  0  0  0  0  0  0  0  0  0  0
    5.9630  -11.1656   27.2979 C   0  0  0  0  0  0  0  0  0  0  0  0
    4.7477  -10.3971   27.3089 N   0  0  0  0  0  0  0  0  0  0  0  0
    9.1210  -15.3897   25.7951 C   0  0  0  0  0  0  0  0  0  0  0  0
    9.8782  -14.9277   26.9003 O   0  0  0  0  0  0  0  0  0  0  0  0
    8.7797  -16.5638   25.8627 O   0  0  0  0  0  0  0  0  0  0  0  0
  2  1  1  6
  3  2  1  0
  4  3  1  0
  5  4  2  0
  6  7  2  0
  6  2  1  0
  8  4  1  0
  9  6  1  0
 10 11  1  1
 10  9  1  0
 11 12  1  0
 13 17  1  0
 13 12  1  0
 14 13  2  0
 15 18  1  0
 15 10  1  0
 16 15  2  0
 19 18  1  0
 19 20  1  1
 21 20  1  0
 22 21  1  0
 23 22  1  0
 24 23  1  0
 25 26  1  0
 25 19  1  0
 27 25  2  0
M  END
$$$$
