DEK.pdb
     RDKit          3D

 27 26  0  0  1  0  0  0  0  0999 V2000
   12.9807  -19.3036   18.6471 N   0  0  0  0  0  0  0  0  0  0  0  0
   12.7831  -17.8795   18.7514 C   0  0  1  0  0  0  0  0  0  0  0  0
   12.4336  -17.3262   17.4028 C   0  0  0  0  0  0  0  0  0  0  0  0
   13.6658  -17.2240   16.5842 C   0  0  0  0  0  0  0  0  0  0  0  0
   14.7558  -17.6386   17.0131 O   0  0  0  0  0  0  0  0  0  0  0  0
   11.7762  -17.5753   19.7818 C   0  0  0  0  0  0  0  0  0  0  0  0
   11.5353  -16.3695   20.0897 O   0  0  0  0  0  0  0  0  0  0  0  0
   13.6309  -16.6586   15.3102 O   0  0  0  0  0  0  0  0  0  0  0  0
   11.0484  -18.5684   20.4610 N   0  0  0  0  0  0  0  0  0  0  0  0
   10.1450  -18.3206   21.5512 C   0  0  1  0  0  0  0  0  0  0  0  0
    9.2511  -19.4772   21.8766 C   0  0  0  0  0  0  0  0  0  0  0  0
    8.4048  -19.9073   20.7058 C   0  0  0  0  0  0  0  0  0  0  0  0
    7.6290  -21.0973   21.0903 C   0  0  0  0  0  0  0  0  0  0  0  0
    7.0943  -21.8103   20.2208 O   0  0  0  0  0  0  0  0  0  0  0  0
   10.8819  -17.9313   22.7968 C   0  0  0  0  0  0  0  0  0  0  0  0
   12.0776  -18.3471   22.9694 O   0  0  0  0  0  0  0  0  0  0  0  0
    7.4891  -21.4303   22.4187 O   0  0  0  0  0  0  0  0  0  0  0  0
   10.3307  -17.1339   23.7867 N   0  0  0  0  0  0  0  0  0  0  0  0
   11.0476  -16.7816   25.0634 C   0  0  1  0  0  0  0  0  0  0  0  0
   10.1785  -15.7823   25.7471 C   0  0  0  0  0  0  0  0  0  0  0  0
   10.5016  -15.2454   27.0589 C   0  0  0  0  0  0  0  0  0  0  0  0
    9.7080  -14.2330   27.7529 C   0  0  0  0  0  0  0  0  0  0  0  0
   10.2283  -13.7774   29.0955 C   0  0  0  0  0  0  0  0  0  0  0  0
    9.4071  -12.7354   29.6499 N   0  0  0  0  0  0  0  0  0  0  0  0
   11.2221  -18.0214   25.8072 C   0  0  0  0  0  0  0  0  0  0  0  0
   12.4054  -18.2529   26.5517 O   0  0  0  0  0  0  0  0  0  0  0  0
   10.4020  -18.9296   25.8531 O   0  0  0  0  0  0  0  0  0  0  0  0
  2  1  1  6
  3  2  1  0
  4  3  1  0
  5  4  2  0
  6  7  2  0
  6  2  1  0
  8  4  1  0
  9  6  1  0
 10 11  1  1
 10  9  1  0
 11 12  1  0
 13 17  1  0
 13 12  1  0
 14 13  2  0
 15 18  1  0
 15 10  1  0
 16 15  2  0
 19 18  1  0
 19 20  1  1
 21 20  1  0
 22 21  1  0
 23 22  1  0
 24 23  1  0
 25 26  1  0
 25 19  1  0
 27 25  2  0
M  END
$$$$
