DEK.pdb
     RDKit          3D

 27 26  0  0  1  0  0  0  0  0999 V2000
    9.8520  -12.9814   18.5892 N   0  0  0  0  0  0  0  0  0  0  0  0
    8.4446  -13.2077   18.8036 C   0  0  1  0  0  0  0  0  0  0  0  0
    7.7744  -13.4542   17.4857 C   0  0  0  0  0  0  0  0  0  0  0  0
    8.5237  -14.4986   16.7462 C   0  0  0  0  0  0  0  0  0  0  0  0
    9.4510  -15.1251   17.2864 O   0  0  0  0  0  0  0  0  0  0  0  0
    8.2421  -14.2997   19.7704 C   0  0  0  0  0  0  0  0  0  0  0  0
    7.0656  -14.6508   20.0859 O   0  0  0  0  0  0  0  0  0  0  0  0
    8.2051  -14.8034   15.4235 O   0  0  0  0  0  0  0  0  0  0  0  0
    9.3032  -14.9930   20.3791 N   0  0  0  0  0  0  0  0  0  0  0  0
    9.1479  -16.0196   21.3731 C   0  0  1  0  0  0  0  0  0  0  0  0
   10.0404  -17.2048   21.1696 C   0  0  0  0  0  0  0  0  0  0  0  0
   11.4655  -16.8166   20.8690 C   0  0  0  0  0  0  0  0  0  0  0  0
   12.2695  -18.0392   20.7126 C   0  0  0  0  0  0  0  0  0  0  0  0
   13.3434  -18.1717   21.3287 O   0  0  0  0  0  0  0  0  0  0  0  0
    9.3824  -15.4864   22.7539 C   0  0  0  0  0  0  0  0  0  0  0  0
   10.3778  -14.7132   22.9629 O   0  0  0  0  0  0  0  0  0  0  0  0
   11.8376  -19.0475   19.8807 O   0  0  0  0  0  0  0  0  0  0  0  0
    8.5680  -15.7897   23.8330 N   0  0  0  0  0  0  0  0  0  0  0  0
    8.8101  -15.2725   25.2265 C   0  0  1  0  0  0  0  0  0  0  0  0
    7.5731  -14.5285   25.5973 C   0  0  0  0  0  0  0  0  0  0  0  0
    7.6149  -13.2810   26.3424 C   0  0  0  0  0  0  0  0  0  0  0  0
    6.4335  -12.5116   26.7279 C   0  0  0  0  0  0  0  0  0  0  0  0
    6.6837  -11.2496   27.5188 C   0  0  0  0  0  0  0  0  0  0  0  0
    5.4502  -10.6191   27.9042 N   0  0  0  0  0  0  0  0  0  0  0  0
    9.0785  -16.4308   26.0675 C   0  0  0  0  0  0  0  0  0  0  0  0
    9.6659  -16.2698   27.3470 O   0  0  0  0  0  0  0  0  0  0  0  0
    8.8325  -17.5900   25.7589 O   0  0  0  0  0  0  0  0  0  0  0  0
  2  1  1  6
  3  2  1  0
  4  3  1  0
  5  4  2  0
  6  7  2  0
  6  2  1  0
  8  4  1  0
  9  6  1  0
 10 11  1  6
 10  9  1  0
 11 12  1  0
 13 17  1  0
 13 12  1  0
 14 13  2  0
 15 18  1  0
 15 10  1  0
 16 15  2  0
 19 18  1  0
 19 20  1  1
 21 20  1  0
 22 21  1  0
 23 22  1  0
 24 23  1  0
 25 26  1  0
 25 19  1  0
 27 25  2  0
M  END
$$$$
