DEK.pdb
     RDKit          3D

 27 26  0  0  1  0  0  0  0  0999 V2000
    9.7667  -14.1938   17.6027 N   0  0  0  0  0  0  0  0  0  0  0  0
    8.4576  -13.9410   18.1506 C   0  0  1  0  0  0  0  0  0  0  0  0
    7.4199  -14.2089   17.1025 C   0  0  0  0  0  0  0  0  0  0  0  0
    8.0933  -14.5748   15.8330 C   0  0  0  0  0  0  0  0  0  0  0  0
    8.6579  -15.6738   15.7012 O   0  0  0  0  0  0  0  0  0  0  0  0
    8.2558  -14.7254   19.3803 C   0  0  0  0  0  0  0  0  0  0  0  0
    7.2078  -14.5526   20.0721 O   0  0  0  0  0  0  0  0  0  0  0  0
    8.1093  -13.6919   14.7539 O   0  0  0  0  0  0  0  0  0  0  0  0
    9.1802  -15.6785   19.8434 N   0  0  0  0  0  0  0  0  0  0  0  0
    9.0093  -16.4786   21.0253 C   0  0  1  0  0  0  0  0  0  0  0  0
    9.8214  -17.7368   21.0319 C   0  0  0  0  0  0  0  0  0  0  0  0
   11.2331  -17.5168   21.5124 C   0  0  0  0  0  0  0  0  0  0  0  0
   11.9741  -18.7843   21.4102 C   0  0  0  0  0  0  0  0  0  0  0  0
   12.1657  -19.3158   20.3007 O   0  0  0  0  0  0  0  0  0  0  0  0
    9.3351  -15.7024   22.2652 C   0  0  0  0  0  0  0  0  0  0  0  0
   10.3588  -14.9380   22.2712 O   0  0  0  0  0  0  0  0  0  0  0  0
   12.4614  -19.3921   22.5452 O   0  0  0  0  0  0  0  0  0  0  0  0
    8.5769  -15.7687   23.4230 N   0  0  0  0  0  0  0  0  0  0  0  0
    8.8462  -14.9243   24.6406 C   0  0  1  0  0  0  0  0  0  0  0  0
    7.5977  -14.1433   24.8696 C   0  0  0  0  0  0  0  0  0  0  0  0
    7.5277  -13.0643   25.8413 C   0  0  0  0  0  0  0  0  0  0  0  0
    6.3268  -12.2764   26.1122 C   0  0  0  0  0  0  0  0  0  0  0  0
    6.4031  -11.3161   27.2754 C   0  0  0  0  0  0  0  0  0  0  0  0
    5.1454  -10.6534   27.4916 N   0  0  0  0  0  0  0  0  0  0  0  0
    9.1797  -15.8381   25.7244 C   0  0  0  0  0  0  0  0  0  0  0  0
    9.2856  -17.2307   25.4840 O   0  0  0  0  0  0  0  0  0  0  0  0
    9.3880  -15.5009   26.8830 O   0  0  0  0  0  0  0  0  0  0  0  0
  2  1  1  6
  3  2  1  0
  4  3  1  0
  5  4  2  0
  6  7  2  0
  6  2  1  0
  8  4  1  0
  9  6  1  0
 10 11  1  6
 10  9  1  0
 11 12  1  0
 13 17  1  0
 13 12  1  0
 14 13  2  0
 15 18  1  0
 15 10  1  0
 16 15  2  0
 19 18  1  0
 19 20  1  1
 21 20  1  0
 22 21  1  0
 23 22  1  0
 24 23  1  0
 25 26  1  0
 25 19  1  0
 27 25  2  0
M  END
$$$$
