DEK.pdb
     RDKit          3D

 27 26  0  0  1  0  0  0  0  0999 V2000
    9.8753  -14.2582   18.7878 N   0  0  0  0  0  0  0  0  0  0  0  0
    8.6327  -14.0904   19.4989 C   0  0  1  0  0  0  0  0  0  0  0  0
    7.4897  -14.2038   18.5357 C   0  0  0  0  0  0  0  0  0  0  0  0
    7.9393  -13.7647   17.1926 C   0  0  0  0  0  0  0  0  0  0  0  0
    7.4568  -14.2623   16.1613 O   0  0  0  0  0  0  0  0  0  0  0  0
    8.5473  -15.0465   20.6155 C   0  0  0  0  0  0  0  0  0  0  0  0
    7.4589  -15.1744   21.2525 O   0  0  0  0  0  0  0  0  0  0  0  0
    8.9170  -12.7803   17.0543 O   0  0  0  0  0  0  0  0  0  0  0  0
    9.6289  -15.8455   21.0265 N   0  0  0  0  0  0  0  0  0  0  0  0
    9.6018  -16.7488   22.1443 C   0  0  1  0  0  0  0  0  0  0  0  0
   10.5525  -17.8992   22.0212 C   0  0  0  0  0  0  0  0  0  0  0  0
   10.2451  -18.7857   20.8415 C   0  0  0  0  0  0  0  0  0  0  0  0
   11.2706  -19.8379   20.7562 C   0  0  0  0  0  0  0  0  0  0  0  0
   11.8821  -20.0384   19.6903 O   0  0  0  0  0  0  0  0  0  0  0  0
    9.8892  -16.0373   23.4316 C   0  0  0  0  0  0  0  0  0  0  0  0
   10.9988  -15.4186   23.5677 O   0  0  0  0  0  0  0  0  0  0  0  0
   11.5606  -20.6099   21.8585 O   0  0  0  0  0  0  0  0  0  0  0  0
    9.0059  -16.0128   24.4988 N   0  0  0  0  0  0  0  0  0  0  0  0
    9.2797  -15.2807   25.7860 C   0  0  1  0  0  0  0  0  0  0  0  0
    7.9636  -14.7346   26.2230 C   0  0  0  0  0  0  0  0  0  0  0  0
    7.5742  -13.3576   25.9671 C   0  0  0  0  0  0  0  0  0  0  0  0
    6.3023  -12.7702   26.3838 C   0  0  0  0  0  0  0  0  0  0  0  0
    6.0793  -11.3228   26.0148 C   0  0  0  0  0  0  0  0  0  0  0  0
    4.8158  -10.8448   26.5076 N   0  0  0  0  0  0  0  0  0  0  0  0
    9.8550  -16.2486   26.7097 C   0  0  0  0  0  0  0  0  0  0  0  0
   10.5887  -15.8143   27.8415 O   0  0  0  0  0  0  0  0  0  0  0  0
    9.7605  -17.4641   26.5959 O   0  0  0  0  0  0  0  0  0  0  0  0
  2  1  1  6
  3  2  1  0
  4  3  1  0
  5  4  2  0
  6  7  2  0
  6  2  1  0
  8  4  1  0
  9  6  1  0
 10 11  1  6
 10  9  1  0
 11 12  1  0
 13 17  1  0
 13 12  1  0
 14 13  2  0
 15 18  1  0
 15 10  1  0
 16 15  2  0
 19 18  1  0
 19 20  1  1
 21 20  1  0
 22 21  1  0
 23 22  1  0
 24 23  1  0
 25 26  1  0
 25 19  1  0
 27 25  2  0
M  END
$$$$
