DEK.pdb
     RDKit          3D

 27 26  0  0  1  0  0  0  0  0999 V2000
    9.9693  -19.1039   21.4897 N   0  0  0  0  0  0  0  0  0  0  0  0
   11.1292  -18.2627   21.3318 C   0  0  1  0  0  0  0  0  0  0  0  0
   11.9170  -18.7207   20.1416 C   0  0  0  0  0  0  0  0  0  0  0  0
   12.3846  -20.1089   20.3722 C   0  0  0  0  0  0  0  0  0  0  0  0
   12.0830  -20.7223   21.4099 O   0  0  0  0  0  0  0  0  0  0  0  0
   10.7298  -16.8476   21.2533 C   0  0  0  0  0  0  0  0  0  0  0  0
   11.6128  -15.9525   21.0919 O   0  0  0  0  0  0  0  0  0  0  0  0
   13.1762  -20.7611   19.4277 O   0  0  0  0  0  0  0  0  0  0  0  0
    9.3936  -16.4204   21.3490 N   0  0  0  0  0  0  0  0  0  0  0  0
    8.9620  -15.0526   21.2547 C   0  0  1  0  0  0  0  0  0  0  0  0
    7.5653  -14.8885   20.7401 C   0  0  0  0  0  0  0  0  0  0  0  0
    7.4543  -15.1534   19.2604 C   0  0  0  0  0  0  0  0  0  0  0  0
    7.2656  -16.5973   19.0477 C   0  0  0  0  0  0  0  0  0  0  0  0
    6.8836  -17.3282   19.9806 O   0  0  0  0  0  0  0  0  0  0  0  0
    9.0609  -14.3537   22.5767 C   0  0  0  0  0  0  0  0  0  0  0  0
    8.9855  -13.0788   22.6151 O   0  0  0  0  0  0  0  0  0  0  0  0
    7.5114  -17.1507   17.8114 O   0  0  0  0  0  0  0  0  0  0  0  0
    9.2324  -15.0227   23.7778 N   0  0  0  0  0  0  0  0  0  0  0  0
    9.1996  -14.3403   25.1198 C   0  0  1  0  0  0  0  0  0  0  0  0
    7.8700  -13.6711   25.1956 C   0  0  0  0  0  0  0  0  0  0  0  0
    7.4473  -12.9211   26.3670 C   0  0  0  0  0  0  0  0  0  0  0  0
    6.1654  -12.2287   26.4834 C   0  0  0  0  0  0  0  0  0  0  0  0
    5.9197  -11.4851   27.7748 C   0  0  0  0  0  0  0  0  0  0  0  0
    4.6233  -10.8631   27.7832 N   0  0  0  0  0  0  0  0  0  0  0  0
    9.3999  -15.3741   26.1258 C   0  0  0  0  0  0  0  0  0  0  0  0
    9.8183  -15.0315   27.4356 O   0  0  0  0  0  0  0  0  0  0  0  0
    9.2328  -16.5726   25.9383 O   0  0  0  0  0  0  0  0  0  0  0  0
  2  1  1  6
  3  2  1  0
  4  3  1  0
  5  4  2  0
  6  7  2  0
  6  2  1  0
  8  4  1  0
  9  6  1  0
 10 11  1  1
 10  9  1  0
 11 12  1  0
 13 17  1  0
 13 12  1  0
 14 13  2  0
 15 18  1  0
 15 10  1  0
 16 15  2  0
 19 18  1  0
 19 20  1  1
 21 20  1  0
 22 21  1  0
 23 22  1  0
 24 23  1  0
 25 26  1  0
 25 19  1  0
 27 25  2  0
M  END
$$$$
