DEK.pdb
     RDKit          3D

 27 26  0  0  1  0  0  0  0  0999 V2000
   10.0159  -13.7795   17.9855 N   0  0  0  0  0  0  0  0  0  0  0  0
    8.7266  -13.6345   18.6137 C   0  0  1  0  0  0  0  0  0  0  0  0
    7.6515  -13.7578   17.5764 C   0  0  0  0  0  0  0  0  0  0  0  0
    8.2755  -14.0242   16.2579 C   0  0  0  0  0  0  0  0  0  0  0  0
    9.2714  -14.7606   16.1576 O   0  0  0  0  0  0  0  0  0  0  0  0
    8.5819  -14.5994   19.7165 C   0  0  0  0  0  0  0  0  0  0  0  0
    7.5002  -14.6437   20.3760 O   0  0  0  0  0  0  0  0  0  0  0  0
    7.7586  -13.4530   15.0957 O   0  0  0  0  0  0  0  0  0  0  0  0
    9.5981  -15.4966   20.0901 N   0  0  0  0  0  0  0  0  0  0  0  0
    9.5318  -16.3864   21.2170 C   0  0  1  0  0  0  0  0  0  0  0  0
   10.5215  -17.5092   21.1658 C   0  0  0  0  0  0  0  0  0  0  0  0
   10.4480  -18.4065   22.3747 C   0  0  0  0  0  0  0  0  0  0  0  0
   11.4199  -19.5002   22.2160 C   0  0  0  0  0  0  0  0  0  0  0  0
   11.0641  -20.6856   22.3524 O   0  0  0  0  0  0  0  0  0  0  0  0
    9.7219  -15.6509   22.5088 C   0  0  0  0  0  0  0  0  0  0  0  0
   10.8235  -15.0399   22.7220 O   0  0  0  0  0  0  0  0  0  0  0  0
   12.7333  -19.2180   21.9148 O   0  0  0  0  0  0  0  0  0  0  0  0
    8.7555  -15.5959   23.5001 N   0  0  0  0  0  0  0  0  0  0  0  0
    8.9245  -14.8236   24.7818 C   0  0  1  0  0  0  0  0  0  0  0  0
    7.6914  -13.9975   24.9165 C   0  0  0  0  0  0  0  0  0  0  0  0
    7.4961  -13.0739   26.0219 C   0  0  0  0  0  0  0  0  0  0  0  0
    6.3017  -12.2522   26.2077 C   0  0  0  0  0  0  0  0  0  0  0  0
    6.2818  -11.3643   27.4292 C   0  0  0  0  0  0  0  0  0  0  0  0
    5.1039  -10.5402   27.4593 N   0  0  0  0  0  0  0  0  0  0  0  0
    9.1002  -15.8023   25.8459 C   0  0  0  0  0  0  0  0  0  0  0  0
    9.8065  -15.4620   27.0265 O   0  0  0  0  0  0  0  0  0  0  0  0
    8.6743  -16.9500   25.8165 O   0  0  0  0  0  0  0  0  0  0  0  0
  2  1  1  6
  3  2  1  0
  4  3  1  0
  5  4  2  0
  6  7  2  0
  6  2  1  0
  8  4  1  0
  9  6  1  0
 10 11  1  6
 10  9  1  0
 11 12  1  0
 13 17  1  0
 13 12  1  0
 14 13  2  0
 15 18  1  0
 15 10  1  0
 16 15  2  0
 19 18  1  0
 19 20  1  1
 21 20  1  0
 22 21  1  0
 23 22  1  0
 24 23  1  0
 25 26  1  0
 25 19  1  0
 27 25  2  0
M  END
$$$$
