DEK.pdb
     RDKit          3D

 27 26  0  0  1  0  0  0  0  0999 V2000
    9.6766  -13.1615   17.7919 N   0  0  0  0  0  0  0  0  0  0  0  0
    8.3853  -13.4059   18.3840 C   0  0  1  0  0  0  0  0  0  0  0  0
    7.3681  -13.5917   17.2988 C   0  0  0  0  0  0  0  0  0  0  0  0
    7.8756  -14.5838   16.3205 C   0  0  0  0  0  0  0  0  0  0  0  0
    8.5344  -15.5699   16.6915 O   0  0  0  0  0  0  0  0  0  0  0  0
    8.4549  -14.5447   19.3149 C   0  0  0  0  0  0  0  0  0  0  0  0
    7.4205  -14.8957   19.9581 O   0  0  0  0  0  0  0  0  0  0  0  0
    7.6252  -14.4336   14.9571 O   0  0  0  0  0  0  0  0  0  0  0  0
    9.6302  -15.2837   19.5374 N   0  0  0  0  0  0  0  0  0  0  0  0
    9.7415  -16.3917   20.4464 C   0  0  1  0  0  0  0  0  0  0  0  0
   10.5726  -17.5243   19.9276 C   0  0  0  0  0  0  0  0  0  0  0  0
   12.0021  -17.1254   19.6641 C   0  0  0  0  0  0  0  0  0  0  0  0
   12.7371  -18.2947   19.1559 C   0  0  0  0  0  0  0  0  0  0  0  0
   12.1588  -19.1505   18.4606 O   0  0  0  0  0  0  0  0  0  0  0  0
   10.3038  -15.9629   21.7677 C   0  0  0  0  0  0  0  0  0  0  0  0
   11.3054  -15.1701   21.7913 O   0  0  0  0  0  0  0  0  0  0  0  0
   14.0735  -18.4500   19.4476 O   0  0  0  0  0  0  0  0  0  0  0  0
    9.7907  -16.3848   22.9836 N   0  0  0  0  0  0  0  0  0  0  0  0
   10.2858  -15.8799   24.3132 C   0  0  1  0  0  0  0  0  0  0  0  0
    9.1079  -15.2351   24.9598 C   0  0  0  0  0  0  0  0  0  0  0  0
    9.1927  -14.6022   26.2658 C   0  0  0  0  0  0  0  0  0  0  0  0
    8.0795  -13.9225   26.9256 C   0  0  0  0  0  0  0  0  0  0  0  0
    8.3698  -13.3192   28.2794 C   0  0  0  0  0  0  0  0  0  0  0  0
    7.2019  -12.6904   28.8345 N   0  0  0  0  0  0  0  0  0  0  0  0
   10.8017  -17.0326   25.0386 C   0  0  0  0  0  0  0  0  0  0  0  0
   10.1895  -18.3030   24.8989 O   0  0  0  0  0  0  0  0  0  0  0  0
   11.7632  -17.0077   25.7965 O   0  0  0  0  0  0  0  0  0  0  0  0
  2  1  1  6
  3  2  1  0
  4  3  1  0
  5  4  2  0
  6  7  2  0
  6  2  1  0
  8  4  1  0
  9  6  1  0
 10 11  1  6
 10  9  1  0
 11 12  1  0
 13 17  1  0
 13 12  1  0
 14 13  2  0
 15 18  1  0
 15 10  1  0
 16 15  2  0
 19 18  1  0
 19 20  1  1
 21 20  1  0
 22 21  1  0
 23 22  1  0
 24 23  1  0
 25 26  1  0
 25 19  1  0
 27 25  2  0
M  END
$$$$
