DIM.pdb
     RDKit          3D

 25 24  0  0  1  0  0  0  0  0999 V2000
   10.3088  -16.2623   19.4616 N   0  0  0  0  0  0  0  0  0  0  0  0
   10.2083  -17.1229   20.6196 C   0  0  1  0  0  0  0  0  0  0  0  0
   11.2025  -18.2445   20.6092 C   0  0  0  0  0  0  0  0  0  0  0  0
   10.7796  -19.2466   19.6071 C   0  0  0  0  0  0  0  0  0  0  0  0
    9.8920  -18.9933   18.7633 O   0  0  0  0  0  0  0  0  0  0  0  0
   10.2801  -16.2929   21.8313 C   0  0  0  0  0  0  0  0  0  0  0  0
   11.1378  -15.3875   22.0094 O   0  0  0  0  0  0  0  0  0  0  0  0
   11.3657  -20.5102   19.5781 O   0  0  0  0  0  0  0  0  0  0  0  0
    6.6552  -13.4222   25.6904 C   0  0  0  0  0  0  0  0  0  0  0  0
    7.9621  -14.1417   25.4959 C   0  0  0  0  0  0  0  0  0  0  0  0
    8.0112  -15.0646   24.3229 C   0  0  2  0  0  0  0  0  0  0  0  0
    7.0191  -16.1892   24.6118 C   0  0  0  0  0  0  0  0  0  0  0  0
    9.3841  -15.6518   24.1056 C   0  0  2  0  0  0  0  0  0  0  0  0
    9.3532  -16.4852   22.8865 N   0  0  0  0  0  0  0  0  0  0  0  0
    9.7691  -16.5829   25.1789 C   0  0  0  0  0  0  0  0  0  0  0  0
    9.9925  -17.7879   24.8972 O   0  0  0  0  0  0  0  0  0  0  0  0
   10.5367  -12.2696   29.5254 C   0  0  0  0  0  0  0  0  0  0  0  0
   10.4088  -14.0085   30.0140 S   0  0  0  0  0  0  0  0  0  0  0  0
   10.9022  -15.0294   28.6066 C   0  0  0  0  0  0  0  0  0  0  0  0
   10.6328  -16.5137   28.8688 C   0  0  0  0  0  0  0  0  0  0  0  0
   10.5159  -17.1669   27.5131 C   0  0  2  0  0  0  0  0  0  0  0  0
    9.9252  -16.2553   26.5454 N   0  0  0  0  0  0  0  0  0  0  0  0
    9.7909  -18.4317   27.6174 C   0  0  0  0  0  0  0  0  0  0  0  0
   10.4070  -19.5256   28.2067 O   0  0  0  0  0  0  0  0  0  0  0  0
    8.6207  -18.5868   27.1962 O   0  0  0  0  0  0  0  0  0  0  0  0
  2  1  1  6
  2  3  1  0
  3  4  1  0
  4  8  1  0
  4  5  2  0
  6  7  2  0
  6  2  1  0
  9 10  1  0
 10 11  1  0
 11 12  1  1
 11 13  1  0
 13 14  1  6
 14  6  1  0
 15 22  1  0
 15 13  1  0
 16 15  2  0
 18 17  1  0
 19 18  1  0
 21 20  1  1
 20 19  1  0
 21 22  1  0
 21 23  1  0
 23 24  1  0
 25 23  2  0
M  END
$$$$
