DIM.pdb
     RDKit          3D

 25 24  0  0  1  0  0  0  0  0999 V2000
    8.8000  -15.2663   20.2894 N   0  0  0  0  0  0  0  0  0  0  0  0
    8.1854  -15.9037   21.4328 C   0  0  1  0  0  0  0  0  0  0  0  0
    8.1933  -17.4002   21.3490 C   0  0  0  0  0  0  0  0  0  0  0  0
    7.3978  -17.8158   20.1736 C   0  0  0  0  0  0  0  0  0  0  0  0
    7.8642  -17.7576   19.0147 O   0  0  0  0  0  0  0  0  0  0  0  0
    8.8156  -15.3861   22.6563 C   0  0  0  0  0  0  0  0  0  0  0  0
   10.0284  -15.0536   22.7319 O   0  0  0  0  0  0  0  0  0  0  0  0
    6.0961  -18.2871   20.3301 O   0  0  0  0  0  0  0  0  0  0  0  0
    5.6407  -12.3638   25.9473 C   0  0  0  0  0  0  0  0  0  0  0  0
    6.8553  -12.8958   25.2366 C   0  0  0  0  0  0  0  0  0  0  0  0
    7.5188  -14.0597   25.8963 C   0  0  2  0  0  0  0  0  0  0  0  0
    8.0854  -13.5462   27.2183 C   0  0  0  0  0  0  0  0  0  0  0  0
    8.6367  -14.6370   25.0633 C   0  0  2  0  0  0  0  0  0  0  0  0
    8.0561  -15.2347   23.8437 N   0  0  0  0  0  0  0  0  0  0  0  0
    9.3131  -15.7579   25.7367 C   0  0  0  0  0  0  0  0  0  0  0  0
    8.6805  -16.8254   25.9401 O   0  0  0  0  0  0  0  0  0  0  0  0
   15.5362  -15.6746   27.2256 C   0  0  0  0  0  0  0  0  0  0  0  0
   15.0319  -16.1835   25.5626 S   0  0  0  0  0  0  0  0  0  0  0  0
   13.2502  -16.4861   25.5795 C   0  0  0  0  0  0  0  0  0  0  0  0
   12.7388  -16.7446   26.9993 C   0  0  0  0  0  0  0  0  0  0  0  0
   11.2418  -16.9006   26.8864 C   0  0  2  0  0  0  0  0  0  0  0  0
   10.6510  -15.7658   26.1939 N   0  0  0  0  0  0  0  0  0  0  0  0
   10.6523  -17.1311   28.2039 C   0  0  0  0  0  0  0  0  0  0  0  0
   10.5227  -18.4285   28.6767 O   0  0  0  0  0  0  0  0  0  0  0  0
   10.2494  -16.2044   28.9452 O   0  0  0  0  0  0  0  0  0  0  0  0
  2  1  1  6
  2  3  1  0
  3  4  1  0
  4  8  1  0
  4  5  2  0
  6  7  2  0
  6  2  1  0
  9 10  1  0
 10 11  1  0
 11 12  1  1
 11 13  1  0
 13 14  1  6
 14  6  1  0
 15 22  1  0
 15 13  1  0
 16 15  2  0
 18 17  1  0
 19 18  1  0
 21 20  1  1
 20 19  1  0
 21 22  1  0
 21 23  1  0
 23 24  1  0
 25 23  2  0
M  END
$$$$
