DIM.pdb
     RDKit          3D

 25 24  0  0  1  0  0  0  0  0999 V2000
    9.4111  -18.9016   20.3625 N   0  0  0  0  0  0  0  0  0  0  0  0
   10.5758  -18.1835   19.8941 C   0  0  1  0  0  0  0  0  0  0  0  0
   10.6556  -18.0993   18.3998 C   0  0  0  0  0  0  0  0  0  0  0  0
   11.0994  -19.4075   17.8718 C   0  0  0  0  0  0  0  0  0  0  0  0
   11.2642  -20.3938   18.6228 O   0  0  0  0  0  0  0  0  0  0  0  0
   10.6166  -16.8701   20.5540 C   0  0  0  0  0  0  0  0  0  0  0  0
   11.5479  -16.0365   20.3964 O   0  0  0  0  0  0  0  0  0  0  0  0
   11.3473  -19.5749   16.5111 O   0  0  0  0  0  0  0  0  0  0  0  0
    6.5503  -13.4376   20.0187 C   0  0  0  0  0  0  0  0  0  0  0  0
    7.9489  -13.8437   20.3961 C   0  0  0  0  0  0  0  0  0  0  0  0
    8.0687  -14.5882   21.6851 C   0  0  2  0  0  0  0  0  0  0  0  0
    7.6772  -13.6103   22.7909 C   0  0  0  0  0  0  0  0  0  0  0  0
    9.4692  -15.0914   21.9347 C   0  0  2  0  0  0  0  0  0  0  0  0
    9.5713  -16.4744   21.4260 N   0  0  0  0  0  0  0  0  0  0  0  0
    9.7743  -15.2035   23.3705 C   0  0  0  0  0  0  0  0  0  0  0  0
    9.5485  -14.2239   24.1258 O   0  0  0  0  0  0  0  0  0  0  0  0
    8.8850  -12.7708   27.4990 C   0  0  0  0  0  0  0  0  0  0  0  0
    9.3672  -14.1055   28.6236 S   0  0  0  0  0  0  0  0  0  0  0  0
   10.1305  -15.4205   27.6467 C   0  0  0  0  0  0  0  0  0  0  0  0
    9.8274  -15.2586   26.1546 C   0  0  0  0  0  0  0  0  0  0  0  0
   10.5232  -16.4016   25.4565 C   0  0  2  0  0  0  0  0  0  0  0  0
   10.3109  -16.3398   24.0186 N   0  0  0  0  0  0  0  0  0  0  0  0
   10.1127  -17.6790   26.0364 C   0  0  0  0  0  0  0  0  0  0  0  0
   10.4799  -17.9878   27.3377 O   0  0  0  0  0  0  0  0  0  0  0  0
    9.4343  -18.5278   25.4119 O   0  0  0  0  0  0  0  0  0  0  0  0
  2  1  1  6
  2  3  1  0
  3  4  1  0
  4  8  1  0
  4  5  2  0
  6  7  2  0
  6  2  1  0
  9 10  1  0
 10 11  1  0
 11 12  1  1
 11 13  1  0
 13 14  1  6
 14  6  1  0
 15 22  1  0
 15 13  1  0
 16 15  2  0
 18 17  1  0
 19 18  1  0
 21 20  1  1
 20 19  1  0
 21 22  1  0
 21 23  1  0
 23 24  1  0
 25 23  2  0
M  END
$$$$
