DIM.pdb
     RDKit          3D

 25 24  0  0  1  0  0  0  0  0999 V2000
   11.0463  -18.4964   20.0635 N   0  0  0  0  0  0  0  0  0  0  0  0
    9.8045  -18.2626   20.7669 C   0  0  1  0  0  0  0  0  0  0  0  0
    9.4656  -19.3487   21.7427 C   0  0  0  0  0  0  0  0  0  0  0  0
    9.2785  -20.6144   21.0008 C   0  0  0  0  0  0  0  0  0  0  0  0
    8.8439  -21.6435   21.5628 O   0  0  0  0  0  0  0  0  0  0  0  0
    9.8531  -16.9260   21.3777 C   0  0  0  0  0  0  0  0  0  0  0  0
   10.8955  -16.4202   21.8723 O   0  0  0  0  0  0  0  0  0  0  0  0
    9.5849  -20.6919   19.6439 O   0  0  0  0  0  0  0  0  0  0  0  0
    6.8834  -12.8897   19.1350 C   0  0  0  0  0  0  0  0  0  0  0  0
    7.9600  -13.6227   19.8881 C   0  0  0  0  0  0  0  0  0  0  0  0
    7.6367  -13.9402   21.3110 C   0  0  2  0  0  0  0  0  0  0  0  0
    7.4847  -12.6025   22.0321 C   0  0  0  0  0  0  0  0  0  0  0  0
    8.7174  -14.7510   21.9830 C   0  0  2  0  0  0  0  0  0  0  0  0
    8.6863  -16.1231   21.4368 N   0  0  0  0  0  0  0  0  0  0  0  0
    8.4717  -14.9226   23.4243 C   0  0  0  0  0  0  0  0  0  0  0  0
    7.6546  -15.7975   23.8093 O   0  0  0  0  0  0  0  0  0  0  0  0
   10.7755  -16.3577   30.2243 C   0  0  0  0  0  0  0  0  0  0  0  0
   10.9484  -14.8220   29.2805 S   0  0  0  0  0  0  0  0  0  0  0  0
    9.5467  -14.6937   28.1470 C   0  0  0  0  0  0  0  0  0  0  0  0
   10.0106  -14.4850   26.7029 C   0  0  0  0  0  0  0  0  0  0  0  0
    8.7574  -14.3811   25.8682 C   0  0  2  0  0  0  0  0  0  0  0  0
    9.0823  -14.1840   24.4639 N   0  0  0  0  0  0  0  0  0  0  0  0
    7.8765  -13.3420   26.3981 C   0  0  0  0  0  0  0  0  0  0  0  0
    7.7849  -12.1239   25.7412 O   0  0  0  0  0  0  0  0  0  0  0  0
    7.1856  -13.4924   27.4329 O   0  0  0  0  0  0  0  0  0  0  0  0
  2  1  1  1
  2  3  1  0
  3  4  1  0
  4  8  1  0
  4  5  2  0
  6  7  2  0
  6  2  1  0
  9 10  1  0
 10 11  1  0
 11 12  1  1
 11 13  1  0
 13 14  1  6
 14  6  1  0
 15 22  1  0
 15 13  1  0
 16 15  2  0
 18 17  1  0
 19 18  1  0
 21 20  1  1
 20 19  1  0
 21 22  1  0
 21 23  1  0
 23 24  1  0
 25 23  2  0
M  END
$$$$
