DIM.pdb
     RDKit          3D

 25 24  0  0  1  0  0  0  0  0999 V2000
   11.4504  -17.8264   18.5523 N   0  0  0  0  0  0  0  0  0  0  0  0
   10.4137  -18.0966   19.5238 C   0  0  1  0  0  0  0  0  0  0  0  0
   10.6355  -19.3686   20.2850 C   0  0  0  0  0  0  0  0  0  0  0  0
   10.7788  -20.4816   19.3216 C   0  0  0  0  0  0  0  0  0  0  0  0
    9.9045  -20.7160   18.4587 O   0  0  0  0  0  0  0  0  0  0  0  0
   10.2615  -16.9188   20.3907 C   0  0  0  0  0  0  0  0  0  0  0  0
   11.2294  -16.3068   20.9161 O   0  0  0  0  0  0  0  0  0  0  0  0
   11.9027  -21.3043   19.3520 O   0  0  0  0  0  0  0  0  0  0  0  0
    7.1365  -12.8612   19.0516 C   0  0  0  0  0  0  0  0  0  0  0  0
    8.1932  -13.6483   19.7777 C   0  0  0  0  0  0  0  0  0  0  0  0
    7.7280  -14.3499   21.0112 C   0  0  2  0  0  0  0  0  0  0  0  0
    7.3810  -13.2626   22.0260 C   0  0  0  0  0  0  0  0  0  0  0  0
    8.7828  -15.2588   21.5926 C   0  0  2  0  0  0  0  0  0  0  0  0
    8.9724  -16.4053   20.6808 N   0  0  0  0  0  0  0  0  0  0  0  0
    8.3570  -15.8660   22.8643 C   0  0  0  0  0  0  0  0  0  0  0  0
    7.2165  -16.3894   22.9448 O   0  0  0  0  0  0  0  0  0  0  0  0
    7.0827  -11.1725   28.2238 C   0  0  0  0  0  0  0  0  0  0  0  0
    7.2491  -11.7494   26.5155 S   0  0  0  0  0  0  0  0  0  0  0  0
    7.8219  -13.4632   26.5503 C   0  0  0  0  0  0  0  0  0  0  0  0
    8.1798  -13.9634   25.1482 C   0  0  0  0  0  0  0  0  0  0  0  0
    8.6647  -15.3826   25.3178 C   0  0  2  0  0  0  0  0  0  0  0  0
    9.1235  -15.9308   24.0507 N   0  0  0  0  0  0  0  0  0  0  0  0
    7.6325  -16.2020   25.9500 C   0  0  0  0  0  0  0  0  0  0  0  0
    6.8899  -17.0817   25.1767 O   0  0  0  0  0  0  0  0  0  0  0  0
    7.3755  -16.1537   27.1757 O   0  0  0  0  0  0  0  0  0  0  0  0
  2  1  1  6
  2  3  1  0
  3  4  1  0
  4  8  1  0
  4  5  2  0
  6  7  2  0
  6  2  1  0
  9 10  1  0
 10 11  1  0
 11 12  1  1
 11 13  1  0
 13 14  1  6
 14  6  1  0
 15 22  1  0
 15 13  1  0
 16 15  2  0
 18 17  1  0
 19 18  1  0
 21 20  1  6
 20 19  1  0
 21 22  1  0
 21 23  1  0
 23 24  1  0
 25 23  2  0
M  END
$$$$
