DIM.pdb
     RDKit          3D

 25 24  0  0  1  0  0  0  0  0999 V2000
    9.7773  -18.6193   19.4765 N   0  0  0  0  0  0  0  0  0  0  0  0
   11.0511  -17.9422   19.5790 C   0  0  1  0  0  0  0  0  0  0  0  0
   11.6397  -17.5875   18.2469 C   0  0  0  0  0  0  0  0  0  0  0  0
   12.3947  -18.7514   17.7346 C   0  0  0  0  0  0  0  0  0  0  0  0
   12.2272  -19.8980   18.2050 O   0  0  0  0  0  0  0  0  0  0  0  0
   10.8995  -16.7859   20.4746 C   0  0  0  0  0  0  0  0  0  0  0  0
   11.8481  -16.0230   20.7991 O   0  0  0  0  0  0  0  0  0  0  0  0
   13.3204  -18.5976   16.7047 O   0  0  0  0  0  0  0  0  0  0  0  0
    6.6949  -13.4264   19.9765 C   0  0  0  0  0  0  0  0  0  0  0  0
    8.0530  -13.9350   20.3769 C   0  0  0  0  0  0  0  0  0  0  0  0
    8.0914  -14.7068   21.6548 C   0  0  2  0  0  0  0  0  0  0  0  0
    7.7449  -13.7216   22.7691 C   0  0  0  0  0  0  0  0  0  0  0  0
    9.4471  -15.3117   21.9250 C   0  0  2  0  0  0  0  0  0  0  0  0
    9.6334  -16.4713   21.0293 N   0  0  0  0  0  0  0  0  0  0  0  0
    9.5468  -15.8743   23.2818 C   0  0  0  0  0  0  0  0  0  0  0  0
    8.6907  -16.7119   23.6649 O   0  0  0  0  0  0  0  0  0  0  0  0
    9.8834  -13.6939   30.4824 C   0  0  0  0  0  0  0  0  0  0  0  0
   10.0565  -13.3030   28.7228 S   0  0  0  0  0  0  0  0  0  0  0  0
    9.5863  -14.7647   27.7695 C   0  0  0  0  0  0  0  0  0  0  0  0
    9.6839  -14.5072   26.2634 C   0  0  0  0  0  0  0  0  0  0  0  0
   10.3408  -15.7289   25.6684 C   0  0  2  0  0  0  0  0  0  0  0  0
   10.5426  -15.5661   24.2369 N   0  0  0  0  0  0  0  0  0  0  0  0
    9.5783  -16.9308   26.0009 C   0  0  0  0  0  0  0  0  0  0  0  0
   10.1913  -17.9547   26.7075 O   0  0  0  0  0  0  0  0  0  0  0  0
    8.3782  -17.0915   25.6773 O   0  0  0  0  0  0  0  0  0  0  0  0
  2  1  1  6
  2  3  1  0
  3  4  1  0
  4  8  1  0
  4  5  2  0
  6  7  2  0
  6  2  1  0
  9 10  1  0
 10 11  1  0
 11 12  1  1
 11 13  1  0
 13 14  1  6
 14  6  1  0
 15 22  1  0
 15 13  1  0
 16 15  2  0
 18 17  1  0
 19 18  1  0
 21 20  1  6
 20 19  1  0
 21 22  1  0
 21 23  1  0
 23 24  1  0
 25 23  2  0
M  END
$$$$
