DIM.pdb
     RDKit          3D

 25 24  0  0  1  0  0  0  0  0999 V2000
    7.4757  -17.6533   22.6896 N   0  0  0  0  0  0  0  0  0  0  0  0
    8.6047  -17.0854   21.9866 C   0  0  1  0  0  0  0  0  0  0  0  0
    8.3155  -16.7924   20.5453 C   0  0  0  0  0  0  0  0  0  0  0  0
    8.7656  -17.9387   19.7265 C   0  0  0  0  0  0  0  0  0  0  0  0
    8.0952  -18.9917   19.6513 O   0  0  0  0  0  0  0  0  0  0  0  0
    9.0842  -15.9133   22.7337 C   0  0  0  0  0  0  0  0  0  0  0  0
   10.1018  -15.2451   22.4095 O   0  0  0  0  0  0  0  0  0  0  0  0
    9.9596  -17.8730   19.0115 O   0  0  0  0  0  0  0  0  0  0  0  0
    5.5314  -12.2373   24.4208 C   0  0  0  0  0  0  0  0  0  0  0  0
    6.8350  -12.8704   24.0168 C   0  0  0  0  0  0  0  0  0  0  0  0
    7.5829  -13.5446   25.1196 C   0  0  2  0  0  0  0  0  0  0  0  0
    7.9923  -12.4488   26.1016 C   0  0  0  0  0  0  0  0  0  0  0  0
    8.8159  -14.2624   24.6283 C   0  0  2  0  0  0  0  0  0  0  0  0
    8.3956  -15.4717   23.8915 N   0  0  0  0  0  0  0  0  0  0  0  0
    9.6421  -14.7734   25.7343 C   0  0  0  0  0  0  0  0  0  0  0  0
    9.4478  -14.3401   26.8986 O   0  0  0  0  0  0  0  0  0  0  0  0
   10.9918  -14.4285   29.6431 C   0  0  0  0  0  0  0  0  0  0  0  0
   10.9810  -16.1021   30.3343 S   0  0  0  0  0  0  0  0  0  0  0  0
   11.2699  -17.2723   28.9876 C   0  0  0  0  0  0  0  0  0  0  0  0
   10.4379  -16.9208   27.7513 C   0  0  0  0  0  0  0  0  0  0  0  0
   11.3856  -16.2626   26.7784 C   0  0  2  0  0  0  0  0  0  0  0  0
   10.6682  -15.7401   25.6257 N   0  0  0  0  0  0  0  0  0  0  0  0
   12.4586  -17.1840   26.4092 C   0  0  0  0  0  0  0  0  0  0  0  0
   12.5726  -17.6075   25.0934 O   0  0  0  0  0  0  0  0  0  0  0  0
   13.2980  -17.6217   27.2305 O   0  0  0  0  0  0  0  0  0  0  0  0
  2  1  1  1
  2  3  1  0
  3  4  1  0
  4  8  1  0
  4  5  2  0
  6  7  2  0
  6  2  1  0
  9 10  1  0
 10 11  1  0
 11 12  1  1
 11 13  1  0
 13 14  1  6
 14  6  1  0
 15 22  1  0
 15 13  1  0
 16 15  2  0
 18 17  1  0
 19 18  1  0
 21 20  1  1
 20 19  1  0
 21 22  1  0
 21 23  1  0
 23 24  1  0
 25 23  2  0
M  END
$$$$
