TRD.pdb
     RDKit          3D

 27 26  0  0  1  0  0  0  0  0999 V2000
   22.1429  -17.0951  -20.3295 C   0  0  0  0  0  0  0  0  0  0  0  0
   23.4980  -17.5767  -19.8958 C   0  0  1  0  0  0  0  0  0  0  0  0
   24.4668  -16.9214  -20.6452 O   0  0  0  0  0  0  0  0  0  0  0  0
   23.7434  -17.2870  -18.4380 C   0  0  2  0  0  0  0  0  0  0  0  0
   25.1560  -17.3637  -18.1480 N   0  0  0  0  0  0  0  0  0  0  0  0
   22.9400  -18.2188  -17.5862 C   0  0  0  0  0  0  0  0  0  0  0  0
   21.7824  -18.4492  -17.9912 O   0  0  0  0  0  0  0  0  0  0  0  0
   24.1354  -24.3631  -13.7877 N   0  0  0  0  0  0  0  0  0  0  0  0
   25.1600  -23.3579  -13.8366 C   0  0  0  0  0  0  0  0  0  0  0  0
   26.2497  -23.5727  -14.4687 N   0  0  0  0  0  0  0  0  0  0  0  0
   24.9962  -22.1049  -13.1917 N   0  0  0  0  0  0  0  0  0  0  0  0
   23.7658  -21.7926  -12.5294 C   0  0  0  0  0  0  0  0  0  0  0  0
   22.8580  -21.1050  -13.5444 C   0  0  0  0  0  0  0  0  0  0  0  0
   23.6960  -20.2117  -14.4497 C   0  0  0  0  0  0  0  0  0  0  0  0
   22.8031  -19.5980  -15.4648 C   0  0  2  0  0  0  0  0  0  0  0  0
   23.4799  -18.7794  -16.4183 N   0  0  0  0  0  0  0  0  0  0  0  0
   21.6057  -18.9786  -14.8348 C   0  0  0  0  0  0  0  0  0  0  0  0
   21.6158  -18.0874  -13.9633 O   0  0  0  0  0  0  0  0  0  0  0  0
   27.0378  -22.9326  -14.5636 N   0  0  0  0  0  0  0  0  0  0  0  0
   20.3257  -19.4365  -15.2586 C   0  0  1  0  0  0  0  0  0  0  0  0
   19.0971  -18.8526  -14.6900 C   0  0  0  0  0  0  0  0  0  0  0  0
   18.2642  -18.4517  -15.8760 C   0  0  0  0  0  0  0  0  0  0  0  0
   16.9693  -17.8322  -15.5195 O   0  0  0  0  0  0  0  0  0  0  0  0
   16.6968  -17.5918  -14.3229 C   0  0  0  0  0  0  0  0  0  0  0  0
   18.4307  -19.8468  -13.8239 O   0  0  0  0  0  0  0  0  0  0  0  0
   18.0105  -19.5458  -12.5442 O   0  0  0  0  0  0  0  0  0  0  0  0
   16.0352  -17.5052  -16.4856 O   0  0  0  0  0  0  0  0  0  0  0  0
  2  1  1  6
  2  4  1  0
  3  2  1  0
  4  5  1  1
  6  4  1  0
  6 16  1  0
  7  6  2  0
  8  9  1  0
  9 10  2  0
 11 12  1  0
 11  9  1  0
 13 14  1  0
 13 12  1  0
 15 16  1  0
 15 14  1  1
 17 15  1  0
 18 17  2  0
 19 17  1  0
 20 24  1  0
 20 19  1  0
 20 21  1  6
 22 21  1  0
 23 22  2  0
 24 25  1  0
 26 22  1  0
 27 24  2  0
M  END
$$$$
