TRD.pdb
     RDKit          3D

 27 26  0  0  1  0  0  0  0  0999 V2000
   21.7200   -7.9778  -17.0666 C   0  0  0  0  0  0  0  0  0  0  0  0
   20.5832   -8.5302  -16.2549 C   0  0  1  0  0  0  0  0  0  0  0  0
   20.3065   -9.8194  -16.6918 O   0  0  0  0  0  0  0  0  0  0  0  0
   20.9301   -8.5853  -14.7900 C   0  0  2  0  0  0  0  0  0  0  0  0
   22.1289   -9.3660  -14.5932 N   0  0  0  0  0  0  0  0  0  0  0  0
   19.7723   -9.1201  -14.0071 C   0  0  0  0  0  0  0  0  0  0  0  0
   19.8960  -10.2950  -13.6055 O   0  0  0  0  0  0  0  0  0  0  0  0
   15.1397   -8.2651   -8.4793 N   0  0  0  0  0  0  0  0  0  0  0  0
   15.3295   -6.8842   -8.8250 C   0  0  0  0  0  0  0  0  0  0  0  0
   15.4407   -5.9965   -7.9124 N   0  0  0  0  0  0  0  0  0  0  0  0
   15.4007   -6.4651  -10.1785 N   0  0  0  0  0  0  0  0  0  0  0  0
   14.6162   -7.1254  -11.1777 C   0  0  0  0  0  0  0  0  0  0  0  0
   15.4672   -8.2472  -11.7646 C   0  0  0  0  0  0  0  0  0  0  0  0
   16.6752   -7.6485  -12.4732 C   0  0  0  0  0  0  0  0  0  0  0  0
   17.4196   -8.7439  -13.1442 C   0  0  2  0  0  0  0  0  0  0  0  0
   18.6399   -8.3294  -13.7578 N   0  0  0  0  0  0  0  0  0  0  0  0
   16.5247   -9.5644  -14.0047 C   0  0  0  0  0  0  0  0  0  0  0  0
   16.0281   -9.2099  -15.0916 O   0  0  0  0  0  0  0  0  0  0  0  0
   15.5825   -4.9958   -8.0469 N   0  0  0  0  0  0  0  0  0  0  0  0
   16.1996  -10.8764  -13.5569 C   0  0  1  0  0  0  0  0  0  0  0  0
   15.3320  -11.7496  -14.3685 C   0  0  0  0  0  0  0  0  0  0  0  0
   15.6938  -13.1521  -13.9646 C   0  0  0  0  0  0  0  0  0  0  0  0
   16.6557  -13.8107  -14.8748 O   0  0  0  0  0  0  0  0  0  0  0  0
   17.0744  -13.2087  -15.8879 C   0  0  0  0  0  0  0  0  0  0  0  0
   13.9155  -11.4195  -14.1096 O   0  0  0  0  0  0  0  0  0  0  0  0
   12.9011  -11.8045  -14.9625 O   0  0  0  0  0  0  0  0  0  0  0  0
   17.1138  -15.0935  -14.6354 O   0  0  0  0  0  0  0  0  0  0  0  0
  2  1  1  6
  2  4  1  0
  3  2  1  0
  4  5  1  6
  6  4  1  0
  6 16  1  0
  7  6  2  0
  8  9  1  0
  9 10  2  0
 11 12  1  0
 11  9  1  0
 13 14  1  0
 13 12  1  0
 15 16  1  0
 15 14  1  6
 17 15  1  0
 18 17  2  0
 19 17  1  0
 20 24  1  0
 20 19  1  0
 20 21  1  6
 22 21  1  0
 23 22  2  0
 24 25  1  0
 26 22  1  0
 27 24  2  0
M  END
$$$$
