TRD.pdb
     RDKit          3D

 27 26  0  0  1  0  0  0  0  0999 V2000
   24.4911  -16.0068  -16.2214 C   0  0  0  0  0  0  0  0  0  0  0  0
   25.3279  -16.7638  -17.2130 C   0  0  1  0  0  0  0  0  0  0  0  0
   26.3724  -15.9493  -17.6312 O   0  0  0  0  0  0  0  0  0  0  0  0
   25.9092  -18.0119  -16.6018 C   0  0  2  0  0  0  0  0  0  0  0  0
   26.8419  -18.6248  -17.5182 N   0  0  0  0  0  0  0  0  0  0  0  0
   24.8121  -18.9477  -16.2017 C   0  0  0  0  0  0  0  0  0  0  0  0
   24.2380  -19.5316  -17.1433 O   0  0  0  0  0  0  0  0  0  0  0  0
   27.3806  -21.2815   -9.8907 N   0  0  0  0  0  0  0  0  0  0  0  0
   25.9763  -21.0047   -9.7738 C   0  0  0  0  0  0  0  0  0  0  0  0
   25.5025  -20.4966   -8.7012 N   0  0  0  0  0  0  0  0  0  0  0  0
   25.0781  -21.2824  -10.8363 N   0  0  0  0  0  0  0  0  0  0  0  0
   25.5083  -22.0656  -11.9551 C   0  0  0  0  0  0  0  0  0  0  0  0
   25.1606  -21.2894  -13.2215 C   0  0  0  0  0  0  0  0  0  0  0  0
   23.7873  -20.6502  -13.0625 C   0  0  0  0  0  0  0  0  0  0  0  0
   23.4370  -19.9628  -14.3310 C   0  0  2  0  0  0  0  0  0  0  0  0
   24.4763  -19.1347  -14.8519 N   0  0  0  0  0  0  0  0  0  0  0  0
   22.0962  -19.3219  -14.2519 C   0  0  0  0  0  0  0  0  0  0  0  0
   21.8271  -18.2588  -13.6594 O   0  0  0  0  0  0  0  0  0  0  0  0
   24.5389  -20.2070   -8.5356 N   0  0  0  0  0  0  0  0  0  0  0  0
   21.0140  -19.9725  -14.9103 C   0  0  2  0  0  0  0  0  0  0  0  0
   19.6541  -19.4060  -14.8510 C   0  0  0  0  0  0  0  0  0  0  0  0
   19.3304  -19.0062  -16.2639 C   0  0  0  0  0  0  0  0  0  0  0  0
   17.9857  -18.4124  -16.4277 O   0  0  0  0  0  0  0  0  0  0  0  0
   16.9820  -19.1509  -16.5333 C   0  0  0  0  0  0  0  0  0  0  0  0
   18.7210  -20.4134  -14.3060 O   0  0  0  0  0  0  0  0  0  0  0  0
   19.1254  -21.6914  -13.9776 O   0  0  0  0  0  0  0  0  0  0  0  0
   17.8017  -17.0423  -16.4680 O   0  0  0  0  0  0  0  0  0  0  0  0
  2  1  1  1
  2  4  1  0
  3  2  1  0
  4  5  1  6
  6  4  1  0
  6 16  1  0
  7  6  2  0
  8  9  1  0
  9 10  2  0
 11 12  1  0
 11  9  1  0
 13 14  1  0
 13 12  1  0
 15 16  1  0
 15 14  1  1
 17 15  1  0
 18 17  2  0
 19 17  1  0
 20 24  1  0
 20 19  1  0
 20 21  1  1
 22 21  1  0
 23 22  2  0
 24 25  1  0
 26 22  1  0
 27 24  2  0
M  END
$$$$
