TRD.pdb
     RDKit          3D

 27 26  0  0  1  0  0  0  0  0999 V2000
   17.7145  -13.0539  -14.0545 C   0  0  0  0  0  0  0  0  0  0  0  0
   17.7974  -11.5685  -13.8474 C   0  0  1  0  0  0  0  0  0  0  0  0
   17.6551  -10.9366  -15.0762 O   0  0  0  0  0  0  0  0  0  0  0  0
   16.7077  -11.0802  -12.9290 C   0  0  2  0  0  0  0  0  0  0  0  0
   15.4127  -11.4067  -13.4785 N   0  0  0  0  0  0  0  0  0  0  0  0
   16.8630   -9.6127  -12.6813 C   0  0  0  0  0  0  0  0  0  0  0  0
   16.3755   -8.8685  -13.5564 O   0  0  0  0  0  0  0  0  0  0  0  0
   13.6981   -5.2308   -9.1337 N   0  0  0  0  0  0  0  0  0  0  0  0
   13.5331   -6.4344   -8.3677 C   0  0  0  0  0  0  0  0  0  0  0  0
   12.3688   -6.9220   -8.1688 N   0  0  0  0  0  0  0  0  0  0  0  0
   14.6475   -7.1153   -7.8134 N   0  0  0  0  0  0  0  0  0  0  0  0
   15.9777   -6.7422   -8.1895 C   0  0  0  0  0  0  0  0  0  0  0  0
   16.2140   -7.2480   -9.6092 C   0  0  0  0  0  0  0  0  0  0  0  0
   17.7114   -7.3646   -9.8625 C   0  0  0  0  0  0  0  0  0  0  0  0
   17.9202   -7.7942  -11.2682 C   0  0  2  0  0  0  0  0  0  0  0  0
   17.5163   -9.1372  -11.5337 N   0  0  0  0  0  0  0  0  0  0  0  0
   19.2807   -7.4345  -11.7522 C   0  0  0  0  0  0  0  0  0  0  0  0
   20.3493   -7.9668  -11.3938 O   0  0  0  0  0  0  0  0  0  0  0  0
   12.1412   -7.7676   -7.6463 N   0  0  0  0  0  0  0  0  0  0  0  0
   19.3841   -6.3890  -12.7134 C   0  0  1  0  0  0  0  0  0  0  0  0
   20.6839   -6.0672  -13.3306 C   0  0  0  0  0  0  0  0  0  0  0  0
   20.3920   -5.8841  -14.7943 C   0  0  0  0  0  0  0  0  0  0  0  0
   21.5620   -5.4565  -15.5917 O   0  0  0  0  0  0  0  0  0  0  0  0
   22.6959   -5.9209  -15.3414 C   0  0  0  0  0  0  0  0  0  0  0  0
   21.2475   -4.8576  -12.6968 O   0  0  0  0  0  0  0  0  0  0  0  0
   22.6068   -4.6329  -12.6162 O   0  0  0  0  0  0  0  0  0  0  0  0
   21.4378   -4.5436  -16.6232 O   0  0  0  0  0  0  0  0  0  0  0  0
  2  1  1  6
  2  4  1  0
  3  2  1  0
  4  5  1  6
  6  4  1  0
  6 16  1  0
  7  6  2  0
  8  9  1  0
  9 10  2  0
 11 12  1  0
 11  9  1  0
 13 14  1  0
 13 12  1  0
 15 16  1  0
 15 14  1  1
 17 15  1  0
 18 17  2  0
 19 17  1  0
 20 24  1  0
 20 19  1  0
 20 21  1  1
 22 21  1  0
 23 22  2  0
 24 25  1  0
 26 22  1  0
 27 24  2  0
M  END
$$$$
