TRD.pdb
     RDKit          3D

 27 26  0  0  1  0  0  0  0  0999 V2000
   13.6163   -9.0807  -16.5942 C   0  0  0  0  0  0  0  0  0  0  0  0
   15.0030   -8.7567  -16.1161 C   0  0  1  0  0  0  0  0  0  0  0  0
   14.9112   -7.9232  -15.0087 O   0  0  0  0  0  0  0  0  0  0  0  0
   15.7515  -10.0017  -15.7174 C   0  0  2  0  0  0  0  0  0  0  0  0
   14.9954  -10.7415  -14.7343 N   0  0  0  0  0  0  0  0  0  0  0  0
   17.1194   -9.6445  -15.2271 C   0  0  0  0  0  0  0  0  0  0  0  0
   17.2007   -9.3906  -14.0080 O   0  0  0  0  0  0  0  0  0  0  0  0
   25.4261  -12.2969  -16.0457 N   0  0  0  0  0  0  0  0  0  0  0  0
   25.4512  -10.9333  -15.5956 C   0  0  0  0  0  0  0  0  0  0  0  0
   26.5569  -10.3737  -15.2831 N   0  0  0  0  0  0  0  0  0  0  0  0
   24.2604  -10.1700  -15.4859 N   0  0  0  0  0  0  0  0  0  0  0  0
   23.0184  -10.7038  -15.9577 C   0  0  0  0  0  0  0  0  0  0  0  0
   21.9474   -9.6394  -15.7403 C   0  0  0  0  0  0  0  0  0  0  0  0
   20.5840  -10.2107  -16.1074 C   0  0  0  0  0  0  0  0  0  0  0  0
   19.5473   -9.1945  -15.7966 C   0  0  2  0  0  0  0  0  0  0  0  0
   18.2157   -9.6072  -16.1027 N   0  0  0  0  0  0  0  0  0  0  0  0
   19.9282   -7.8513  -16.3118 C   0  0  0  0  0  0  0  0  0  0  0  0
   19.9628   -7.5100  -17.5101 O   0  0  0  0  0  0  0  0  0  0  0  0
   26.6947   -9.3997  -15.0146 N   0  0  0  0  0  0  0  0  0  0  0  0
   20.2868   -6.8562  -15.3584 C   0  0  2  0  0  0  0  0  0  0  0  0
   20.6829   -5.5064  -15.8000 C   0  0  0  0  0  0  0  0  0  0  0  0
   19.7781   -4.5651  -15.0541 C   0  0  0  0  0  0  0  0  0  0  0  0
   20.0353   -3.1357  -15.3340 O   0  0  0  0  0  0  0  0  0  0  0  0
   20.9722   -2.8034  -16.0928 C   0  0  0  0  0  0  0  0  0  0  0  0
   22.1142   -5.2888  -15.5057 O   0  0  0  0  0  0  0  0  0  0  0  0
   22.8146   -4.2111  -16.0084 O   0  0  0  0  0  0  0  0  0  0  0  0
   19.2581   -2.1390  -14.7726 O   0  0  0  0  0  0  0  0  0  0  0  0
  2  1  1  1
  2  4  1  0
  3  2  1  0
  4  5  1  1
  6  4  1  0
  6 16  1  0
  7  6  2  0
  8  9  1  0
  9 10  2  0
 11 12  1  0
 11  9  1  0
 13 14  1  0
 13 12  1  0
 15 16  1  0
 15 14  1  6
 17 15  1  0
 18 17  2  0
 19 17  1  0
 20 24  1  0
 20 19  1  0
 20 21  1  1
 22 21  1  0
 23 22  2  0
 24 25  1  0
 26 22  1  0
 27 24  2  0
M  END
$$$$
