TRD.pdb
     RDKit          3D

 27 26  0  0  1  0  0  0  0  0999 V2000
   16.9791  -11.7465  -16.8314 C   0  0  0  0  0  0  0  0  0  0  0  0
   18.0874  -11.1018  -16.0488 C   0  0  1  0  0  0  0  0  0  0  0  0
   17.7328  -11.0798  -14.7059 O   0  0  0  0  0  0  0  0  0  0  0  0
   19.3773  -11.8667  -16.1909 C   0  0  2  0  0  0  0  0  0  0  0  0
   19.2824  -13.1318  -15.5010 N   0  0  0  0  0  0  0  0  0  0  0  0
   20.5229  -11.0391  -15.6989 C   0  0  0  0  0  0  0  0  0  0  0  0
   20.4887  -10.7464  -14.4863 O   0  0  0  0  0  0  0  0  0  0  0  0
   28.1727  -12.8593  -15.1878 N   0  0  0  0  0  0  0  0  0  0  0  0
   27.6593  -12.4756  -16.4731 C   0  0  0  0  0  0  0  0  0  0  0  0
   28.4314  -12.4214  -17.4900 N   0  0  0  0  0  0  0  0  0  0  0  0
   26.2907  -12.1489  -16.6537 N   0  0  0  0  0  0  0  0  0  0  0  0
   25.3833  -12.2168  -15.5482 C   0  0  0  0  0  0  0  0  0  0  0  0
   23.9928  -11.8714  -16.0716 C   0  0  0  0  0  0  0  0  0  0  0  0
   23.9859  -10.4363  -16.5820 C   0  0  0  0  0  0  0  0  0  0  0  0
   22.6773   -9.8216  -16.2446 C   0  0  2  0  0  0  0  0  0  0  0  0
   21.5501  -10.6361  -16.5662 N   0  0  0  0  0  0  0  0  0  0  0  0
   22.5973   -8.4136  -16.7194 C   0  0  0  0  0  0  0  0  0  0  0  0
   22.0981   -8.0315  -17.7958 O   0  0  0  0  0  0  0  0  0  0  0  0
   28.1597  -12.2317  -18.4544 N   0  0  0  0  0  0  0  0  0  0  0  0
   23.1358   -7.4010  -15.8754 C   0  0  2  0  0  0  0  0  0  0  0  0
   23.0156   -5.9785  -16.2444 C   0  0  0  0  0  0  0  0  0  0  0  0
   23.2622   -5.2176  -14.9712 C   0  0  0  0  0  0  0  0  0  0  0  0
   22.1242   -5.2411  -14.0267 O   0  0  0  0  0  0  0  0  0  0  0  0
   21.0300   -5.7366  -14.3745 C   0  0  0  0  0  0  0  0  0  0  0  0
   23.9896   -5.6586  -17.3082 O   0  0  0  0  0  0  0  0  0  0  0  0
   23.8844   -4.5241  -18.0871 O   0  0  0  0  0  0  0  0  0  0  0  0
   22.2356   -4.7231  -12.7492 O   0  0  0  0  0  0  0  0  0  0  0  0
  2  1  1  6
  2  4  1  0
  3  2  1  0
  4  5  1  1
  6  4  1  0
  6 16  1  0
  7  6  2  0
  8  9  1  0
  9 10  2  0
 11 12  1  0
 11  9  1  0
 13 14  1  0
 13 12  1  0
 15 16  1  0
 15 14  1  6
 17 15  1  0
 18 17  2  0
 19 17  1  0
 20 24  1  0
 20 19  1  0
 20 21  1  6
 22 21  1  0
 23 22  2  0
 24 25  1  0
 26 22  1  0
 27 24  2  0
M  END
$$$$
