TRD.pdb
     RDKit          3D

 27 26  0  0  1  0  0  0  0  0999 V2000
   19.1081  -14.5125  -15.2429 C   0  0  0  0  0  0  0  0  0  0  0  0
   18.1118  -13.5551  -15.8321 C   0  0  1  0  0  0  0  0  0  0  0  0
   17.5483  -12.8077  -14.8057 O   0  0  0  0  0  0  0  0  0  0  0  0
   18.7666  -12.6119  -16.8072 C   0  0  2  0  0  0  0  0  0  0  0  0
   19.3081  -13.3503  -17.9239 N   0  0  0  0  0  0  0  0  0  0  0  0
   19.8090  -11.7945  -16.1111 C   0  0  0  0  0  0  0  0  0  0  0  0
   19.3824  -11.0283  -15.2233 O   0  0  0  0  0  0  0  0  0  0  0  0
   28.3421  -10.2689  -16.6797 N   0  0  0  0  0  0  0  0  0  0  0  0
   27.3896  -10.9180  -17.5364 C   0  0  0  0  0  0  0  0  0  0  0  0
   27.5797  -10.9648  -18.7993 N   0  0  0  0  0  0  0  0  0  0  0  0
   26.2185  -11.5239  -17.0130 N   0  0  0  0  0  0  0  0  0  0  0  0
   25.9988  -11.5606  -15.5986 C   0  0  0  0  0  0  0  0  0  0  0  0
   24.6096  -10.9891  -15.3332 C   0  0  0  0  0  0  0  0  0  0  0  0
   23.5882  -11.7211  -16.1939 C   0  0  0  0  0  0  0  0  0  0  0  0
   22.2490  -11.1322  -15.9407 C   0  0  2  0  0  0  0  0  0  0  0  0
   21.1651  -11.9052  -16.4553 N   0  0  0  0  0  0  0  0  0  0  0  0
   22.2152   -9.6852  -16.2864 C   0  0  0  0  0  0  0  0  0  0  0  0
   22.0739   -9.2091  -17.4297 O   0  0  0  0  0  0  0  0  0  0  0  0
   26.9650  -11.3869  -19.4948 N   0  0  0  0  0  0  0  0  0  0  0  0
   22.3548   -8.7491  -15.2225 C   0  0  1  0  0  0  0  0  0  0  0  0
   22.2873   -7.3003  -15.4881 C   0  0  0  0  0  0  0  0  0  0  0  0
   22.0135   -6.6659  -14.1526 C   0  0  0  0  0  0  0  0  0  0  0  0
   21.8871   -5.1930  -14.2014 O   0  0  0  0  0  0  0  0  0  0  0  0
   21.2856   -4.6457  -15.1514 C   0  0  0  0  0  0  0  0  0  0  0  0
   23.5563   -6.8482  -16.0947 O   0  0  0  0  0  0  0  0  0  0  0  0
   23.6030   -5.8552  -17.0521 O   0  0  0  0  0  0  0  0  0  0  0  0
   22.4228   -4.3894  -13.2114 O   0  0  0  0  0  0  0  0  0  0  0  0
  2  1  1  1
  2  4  1  0
  3  2  1  0
  4  5  1  6
  6  4  1  0
  6 16  1  0
  7  6  2  0
  8  9  1  0
  9 10  2  0
 11 12  1  0
 11  9  1  0
 13 14  1  0
 13 12  1  0
 15 16  1  0
 15 14  1  6
 17 15  1  0
 18 17  2  0
 19 17  1  0
 20 24  1  0
 20 19  1  0
 20 21  1  1
 22 21  1  0
 23 22  2  0
 24 25  1  0
 26 22  1  0
 27 24  2  0
M  END
$$$$
