TRD.pdb
     RDKit          3D

 27 26  0  0  1  0  0  0  0  0999 V2000
   26.9670  -11.1531  -15.0520 C   0  0  0  0  0  0  0  0  0  0  0  0
   25.8544  -10.1643  -15.2539 C   0  0  1  0  0  0  0  0  0  0  0  0
   26.2985   -9.1579  -16.1019 O   0  0  0  0  0  0  0  0  0  0  0  0
   24.6466  -10.8158  -15.8753 C   0  0  2  0  0  0  0  0  0  0  0  0
   25.0117  -11.4538  -17.1184 N   0  0  0  0  0  0  0  0  0  0  0  0
   23.5549   -9.8084  -16.0562 C   0  0  0  0  0  0  0  0  0  0  0  0
   23.5464   -9.2216  -17.1575 O   0  0  0  0  0  0  0  0  0  0  0  0
   15.8874  -12.1997  -14.7149 N   0  0  0  0  0  0  0  0  0  0  0  0
   16.7288  -12.4781  -15.8449 C   0  0  0  0  0  0  0  0  0  0  0  0
   16.3866  -13.3568  -16.7075 N   0  0  0  0  0  0  0  0  0  0  0  0
   17.9552  -11.7919  -16.0391 N   0  0  0  0  0  0  0  0  0  0  0  0
   18.3663  -10.7789  -15.1145 C   0  0  0  0  0  0  0  0  0  0  0  0
   19.7327  -10.2715  -15.5646 C   0  0  0  0  0  0  0  0  0  0  0  0
   20.2435   -9.2399  -14.5672 C   0  0  0  0  0  0  0  0  0  0  0  0
   21.5103   -8.6669  -15.0878 C   0  0  2  0  0  0  0  0  0  0  0  0
   22.6196   -9.5637  -15.0388 N   0  0  0  0  0  0  0  0  0  0  0  0
   21.7663   -7.3117  -14.5290 C   0  0  0  0  0  0  0  0  0  0  0  0
   22.4022   -7.0577  -13.4875 O   0  0  0  0  0  0  0  0  0  0  0  0
   16.9071  -13.6313  -17.5402 N   0  0  0  0  0  0  0  0  0  0  0  0
   21.2431   -6.1948  -15.2408 C   0  0  2  0  0  0  0  0  0  0  0  0
   21.5422   -4.8203  -14.7990 C   0  0  0  0  0  0  0  0  0  0  0  0
   22.3866   -4.2282  -15.8932 C   0  0  0  0  0  0  0  0  0  0  0  0
   22.6679   -2.7862  -15.7221 O   0  0  0  0  0  0  0  0  0  0  0  0
   22.2790   -2.1884  -14.6949 C   0  0  0  0  0  0  0  0  0  0  0  0
   20.2800   -4.0847  -14.5792 O   0  0  0  0  0  0  0  0  0  0  0  0
   20.2137   -2.9532  -13.7917 O   0  0  0  0  0  0  0  0  0  0  0  0
   23.3595   -2.0671  -16.6798 O   0  0  0  0  0  0  0  0  0  0  0  0
  2  1  1  6
  2  4  1  0
  3  2  1  0
  4  5  1  6
  6  4  1  0
  6 16  1  0
  7  6  2  0
  8  9  1  0
  9 10  2  0
 11 12  1  0
 11  9  1  0
 13 14  1  0
 13 12  1  0
 15 16  1  0
 15 14  1  1
 17 15  1  0
 18 17  2  0
 19 17  1  0
 20 24  1  0
 20 19  1  0
 20 21  1  6
 22 21  1  0
 23 22  2  0
 24 25  1  0
 26 22  1  0
 27 24  2  0
M  END
$$$$
