WPF.pdb
     RDKit          3D

 33 36  0  0  1  0  0  0  0  0999 V2000
   24.2203  -21.7952  -15.7117 N   0  0  0  0  0  0  0  0  0  0  0  0
   24.2483  -21.2595  -14.4078 C   0  0  1  0  0  0  0  0  0  0  0  0
   22.8970  -21.3943  -13.7334 C   0  0  0  0  0  0  0  0  0  0  0  0
   22.1737  -20.1460  -13.5298 C   0  0  0  0  0  0  0  0  0  0  0  0
   22.0986  -19.0899  -14.4395 C   0  0  0  0  0  0  0  0  0  0  0  0
   21.3765  -18.1109  -13.8851 N   0  0  0  0  0  0  0  0  0  0  0  0
   20.9611  -18.4570  -12.6394 C   0  0  0  0  0  0  0  0  0  0  0  0
   20.2012  -17.8054  -11.6837 C   0  0  0  0  0  0  0  0  0  0  0  0
   19.9265  -18.4282  -10.4832 C   0  0  0  0  0  0  0  0  0  0  0  0
   20.4024  -19.7019  -10.2197 C   0  0  0  0  0  0  0  0  0  0  0  0
   21.1645  -20.3236  -11.2042 C   0  0  0  0  0  0  0  0  0  0  0  0
   21.4627  -19.7409  -12.4148 C   0  0  0  0  0  0  0  0  0  0  0  0
   25.3447  -21.7223  -13.5244 C   0  0  0  0  0  0  0  0  0  0  0  0
   25.4138  -23.0193  -13.4418 O   0  0  0  0  0  0  0  0  0  0  0  0
   26.2369  -20.9106  -12.8324 N   0  0  0  0  0  0  0  0  0  0  0  0
   26.2200  -19.4307  -12.9535 C   0  0  0  0  0  0  0  0  0  0  0  0
   27.7078  -19.2075  -13.2181 C   0  0  0  0  0  0  0  0  0  0  0  0
   28.4289  -20.3040  -12.5067 C   0  0  0  0  0  0  0  0  0  0  0  0
   27.3204  -21.1462  -11.9294 C   0  0  1  0  0  0  0  0  0  0  0  0
   26.9024  -20.7749  -10.5685 C   0  0  0  0  0  0  0  0  0  0  0  0
   26.2485  -19.6954  -10.4472 O   0  0  0  0  0  0  0  0  0  0  0  0
   27.1640  -21.4989   -9.3854 N   0  0  0  0  0  0  0  0  0  0  0  0
   27.0658  -20.8643   -8.0638 C   0  0  1  0  0  0  0  0  0  0  0  0
   28.0800  -21.3460   -7.0996 C   0  0  0  0  0  0  0  0  0  0  0  0
   28.2468  -20.5767   -5.8671 C   0  0  0  0  0  0  0  0  0  0  0  0
   29.3524  -19.7677   -5.6429 C   0  0  0  0  0  0  0  0  0  0  0  0
   29.4276  -19.0905   -4.4540 C   0  0  0  0  0  0  0  0  0  0  0  0
   28.4190  -19.2016   -3.4815 C   0  0  0  0  0  0  0  0  0  0  0  0
   27.3156  -20.0014   -3.6953 C   0  0  0  0  0  0  0  0  0  0  0  0
   27.2550  -20.6780   -4.8907 C   0  0  0  0  0  0  0  0  0  0  0  0
   27.2797  -19.3758   -8.2756 C   0  0  0  0  0  0  0  0  0  0  0  0
   28.2428  -18.9808   -9.0073 O   0  0  0  0  0  0  0  0  0  0  0  0
   26.4902  -18.4025   -7.7220 O   0  0  0  0  0  0  0  0  0  0  0  0
  2  1  1  6
  3  2  1  0
  4  3  1  0
  5  4  2  0
  6  5  1  0
  7  6  1  0
  7 12  2  0
  8  9  2  0
  8  7  1  0
  9 10  1  0
 10 11  2  0
 12 11  1  0
 12  4  1  0
 13  2  1  0
 13 14  2  0
 15 13  1  0
 16 15  1  0
 17 18  1  0
 17 16  1  0
 19 18  1  0
 19 15  1  0
 19 20  1  1
 21 20  2  0
 22 20  1  0
 23 22  1  0
 23 24  1  1
 24 25  1  0
 25 26  2  0
 26 27  1  0
 28 27  2  0
 29 28  1  0
 30 29  2  0
 30 25  1  0
 31 33  1  0
 31 23  1  0
 32 31  2  0
M  END
$$$$
