WPF.pdb
     RDKit          3D

 33 36  0  0  1  0  0  0  0  0999 V2000
   27.6480  -21.3361  -16.8972 N   0  0  0  0  0  0  0  0  0  0  0  0
   26.7491  -21.4191  -15.8141 C   0  0  1  0  0  0  0  0  0  0  0  0
   26.7245  -20.1245  -15.0251 C   0  0  0  0  0  0  0  0  0  0  0  0
   27.9173  -19.8530  -14.2338 C   0  0  0  0  0  0  0  0  0  0  0  0
   28.9309  -18.9539  -14.5697 C   0  0  0  0  0  0  0  0  0  0  0  0
   29.8681  -19.0056  -13.6177 N   0  0  0  0  0  0  0  0  0  0  0  0
   29.5346  -19.9015  -12.6532 C   0  0  0  0  0  0  0  0  0  0  0  0
   30.1570  -20.3047  -11.4848 C   0  0  0  0  0  0  0  0  0  0  0  0
   29.5574  -21.2510  -10.6788 C   0  0  0  0  0  0  0  0  0  0  0  0
   28.3361  -21.8056  -11.0239 C   0  0  0  0  0  0  0  0  0  0  0  0
   27.7427  -21.3763  -12.2071 C   0  0  0  0  0  0  0  0  0  0  0  0
   28.3038  -20.4358  -13.0406 C   0  0  0  0  0  0  0  0  0  0  0  0
   25.3792  -21.8922  -16.1243 C   0  0  0  0  0  0  0  0  0  0  0  0
   25.0358  -21.6707  -17.3599 O   0  0  0  0  0  0  0  0  0  0  0  0
   24.5069  -22.5134  -15.2373 N   0  0  0  0  0  0  0  0  0  0  0  0
   24.8430  -22.7150  -13.8050 C   0  0  0  0  0  0  0  0  0  0  0  0
   24.4905  -24.1972  -13.6955 C   0  0  0  0  0  0  0  0  0  0  0  0
   23.3879  -24.4390  -14.6723 C   0  0  0  0  0  0  0  0  0  0  0  0
   23.2092  -23.1039  -15.3484 C   0  0  1  0  0  0  0  0  0  0  0  0
   22.2203  -22.2156  -14.7177 C   0  0  0  0  0  0  0  0  0  0  0  0
   21.0721  -22.7059  -14.4971 O   0  0  0  0  0  0  0  0  0  0  0  0
   22.4231  -20.8706  -14.3409 N   0  0  0  0  0  0  0  0  0  0  0  0
   21.4302  -20.1442  -13.5374 C   0  0  1  0  0  0  0  0  0  0  0  0
   22.0285  -19.3023  -12.4774 C   0  0  0  0  0  0  0  0  0  0  0  0
   22.9775  -19.9466  -11.5703 C   0  0  0  0  0  0  0  0  0  0  0  0
   22.5706  -20.6025  -10.4165 C   0  0  0  0  0  0  0  0  0  0  0  0
   23.5321  -21.1696   -9.6219 C   0  0  0  0  0  0  0  0  0  0  0  0
   24.8955  -21.0982   -9.9557 C   0  0  0  0  0  0  0  0  0  0  0  0
   25.3100  -20.4503  -11.1009 C   0  0  0  0  0  0  0  0  0  0  0  0
   24.3351  -19.8826  -11.8867 C   0  0  0  0  0  0  0  0  0  0  0  0
   20.6711  -19.2394  -14.4921 C   0  0  0  0  0  0  0  0  0  0  0  0
   21.1321  -19.0371  -15.6607 O   0  0  0  0  0  0  0  0  0  0  0  0
   19.4957  -18.6095  -14.1784 O   0  0  0  0  0  0  0  0  0  0  0  0
  2  1  1  6
  3  2  1  0
  4  3  1  0
  5  4  2  0
  6  5  1  0
  7  6  1  0
  7 12  2  0
  8  9  2  0
  8  7  1  0
  9 10  1  0
 10 11  2  0
 12 11  1  0
 12  4  1  0
 13  2  1  0
 13 14  2  0
 15 13  1  0
 16 15  1  0
 17 18  1  0
 17 16  1  0
 19 18  1  0
 19 15  1  0
 19 20  1  1
 21 20  2  0
 22 20  1  0
 23 22  1  0
 23 24  1  1
 24 25  1  0
 25 26  2  0
 26 27  1  0
 28 27  2  0
 29 28  1  0
 30 29  2  0
 30 25  1  0
 31 33  1  0
 31 23  1  0
 32 31  2  0
M  END
$$$$
