WPF.pdb
     RDKit          3D

 33 36  0  0  1  0  0  0  0  0999 V2000
   28.9449  -19.8972  -10.0144 N   0  0  0  0  0  0  0  0  0  0  0  0
   27.8599  -20.7392  -10.3334 C   0  0  1  0  0  0  0  0  0  0  0  0
   27.0654  -21.0990   -9.0931 C   0  0  0  0  0  0  0  0  0  0  0  0
   27.2181  -20.1867   -7.9675 C   0  0  0  0  0  0  0  0  0  0  0  0
   26.7605  -18.8688   -7.9187 C   0  0  0  0  0  0  0  0  0  0  0  0
   27.1158  -18.3462   -6.7406 N   0  0  0  0  0  0  0  0  0  0  0  0
   27.7954  -19.2515   -5.9906 C   0  0  0  0  0  0  0  0  0  0  0  0
   28.3563  -19.1978   -4.7266 C   0  0  0  0  0  0  0  0  0  0  0  0
   28.9917  -20.3085   -4.2096 C   0  0  0  0  0  0  0  0  0  0  0  0
   29.0767  -21.4815   -4.9409 C   0  0  0  0  0  0  0  0  0  0  0  0
   28.5027  -21.4959   -6.2085 C   0  0  0  0  0  0  0  0  0  0  0  0
   27.8596  -20.4131   -6.7633 C   0  0  0  0  0  0  0  0  0  0  0  0
   26.9746  -20.2915  -11.4345 C   0  0  0  0  0  0  0  0  0  0  0  0
   26.5489  -19.0718  -11.2763 O   0  0  0  0  0  0  0  0  0  0  0  0
   26.6026  -21.0434  -12.5436 N   0  0  0  0  0  0  0  0  0  0  0  0
   27.0641  -22.4403  -12.7454 C   0  0  0  0  0  0  0  0  0  0  0  0
   27.5478  -22.3133  -14.1887 C   0  0  0  0  0  0  0  0  0  0  0  0
   26.6898  -21.2725  -14.8281 C   0  0  0  0  0  0  0  0  0  0  0  0
   25.8043  -20.7985  -13.7044 C   0  0  1  0  0  0  0  0  0  0  0  0
   24.5286  -21.5195  -13.5724 C   0  0  0  0  0  0  0  0  0  0  0  0
   24.5654  -22.6402  -12.9808 O   0  0  0  0  0  0  0  0  0  0  0  0
   23.2705  -21.0886  -14.0454 N   0  0  0  0  0  0  0  0  0  0  0  0
   22.0857  -21.0915  -13.1764 C   0  0  1  0  0  0  0  0  0  0  0  0
   22.2474  -20.2743  -11.9530 C   0  0  0  0  0  0  0  0  0  0  0  0
   21.0739  -20.1198  -11.0943 C   0  0  0  0  0  0  0  0  0  0  0  0
   20.2087  -19.0403  -11.2097 C   0  0  0  0  0  0  0  0  0  0  0  0
   19.1393  -18.9746  -10.3554 C   0  0  0  0  0  0  0  0  0  0  0  0
   18.9124  -19.9671   -9.3865 C   0  0  0  0  0  0  0  0  0  0  0  0
   19.7652  -21.0446   -9.2649 C   0  0  0  0  0  0  0  0  0  0  0  0
   20.8360  -21.0958  -10.1258 C   0  0  0  0  0  0  0  0  0  0  0  0
   20.9438  -20.5087  -13.9904 C   0  0  0  0  0  0  0  0  0  0  0  0
   19.7915  -21.0442  -13.9233 O   0  0  0  0  0  0  0  0  0  0  0  0
   21.0676  -19.4198  -14.8127 O   0  0  0  0  0  0  0  0  0  0  0  0
  2  1  1  1
  3  2  1  0
  4  3  1  0
  5  4  2  0
  6  5  1  0
  7  6  1  0
  7 12  2  0
  8  9  2  0
  8  7  1  0
  9 10  1  0
 10 11  2  0
 12 11  1  0
 12  4  1  0
 13  2  1  0
 13 14  2  0
 15 13  1  0
 16 15  1  0
 17 18  1  0
 17 16  1  0
 19 18  1  0
 19 15  1  0
 19 20  1  1
 21 20  2  0
 22 20  1  0
 23 22  1  0
 23 24  1  1
 24 25  1  0
 25 26  2  0
 26 27  1  0
 28 27  2  0
 29 28  1  0
 30 29  2  0
 30 25  1  0
 31 33  1  0
 31 23  1  0
 32 31  2  0
M  END
$$$$
