WPF.pdb
     RDKit          3D

 33 36  0  0  1  0  0  0  0  0999 V2000
   24.1144  -21.7194  -15.7129 N   0  0  0  0  0  0  0  0  0  0  0  0
   24.6554  -20.8904  -14.7089 C   0  0  1  0  0  0  0  0  0  0  0  0
   23.5604  -20.1651  -13.9515 C   0  0  0  0  0  0  0  0  0  0  0  0
   22.6353  -19.3974  -14.7745 C   0  0  0  0  0  0  0  0  0  0  0  0
   21.3864  -19.8335  -15.2204 C   0  0  0  0  0  0  0  0  0  0  0  0
   20.8505  -18.8676  -15.9733 N   0  0  0  0  0  0  0  0  0  0  0  0
   21.6823  -17.7975  -16.0584 C   0  0  0  0  0  0  0  0  0  0  0  0
   21.5839  -16.5753  -16.7000 C   0  0  0  0  0  0  0  0  0  0  0  0
   22.6114  -15.6600  -16.5949 C   0  0  0  0  0  0  0  0  0  0  0  0
   23.7449  -15.9482  -15.8531 C   0  0  0  0  0  0  0  0  0  0  0  0
   23.8080  -17.1881  -15.2245 C   0  0  0  0  0  0  0  0  0  0  0  0
   22.8079  -18.1305  -15.3017 C   0  0  0  0  0  0  0  0  0  0  0  0
   25.6307  -21.5175  -13.7857 C   0  0  0  0  0  0  0  0  0  0  0  0
   25.4859  -22.8079  -13.6981 O   0  0  0  0  0  0  0  0  0  0  0  0
   26.6176  -20.8554  -13.0637 N   0  0  0  0  0  0  0  0  0  0  0  0
   26.9040  -19.4107  -13.2531 C   0  0  0  0  0  0  0  0  0  0  0  0
   28.4209  -19.4987  -13.4101 C   0  0  0  0  0  0  0  0  0  0  0  0
   28.8592  -20.6699  -12.5950 C   0  0  0  0  0  0  0  0  0  0  0  0
   27.5685  -21.2431  -12.0686 C   0  0  1  0  0  0  0  0  0  0  0  0
   27.1415  -20.7160  -10.7630 C   0  0  0  0  0  0  0  0  0  0  0  0
   26.2938  -19.7733  -10.7782 O   0  0  0  0  0  0  0  0  0  0  0  0
   27.5881  -21.1524   -9.4972 N   0  0  0  0  0  0  0  0  0  0  0  0
   26.6451  -21.3979   -8.3974 C   0  0  1  0  0  0  0  0  0  0  0  0
   27.2857  -21.9436   -7.1798 C   0  0  0  0  0  0  0  0  0  0  0  0
   28.1159  -21.0295   -6.3964 C   0  0  0  0  0  0  0  0  0  0  0  0
   29.4648  -21.2653   -6.1683 C   0  0  0  0  0  0  0  0  0  0  0  0
   30.1614  -20.3574   -5.4146 C   0  0  0  0  0  0  0  0  0  0  0  0
   29.5398  -19.2142   -4.8835 C   0  0  0  0  0  0  0  0  0  0  0  0
   28.2005  -18.9698   -5.1059 C   0  0  0  0  0  0  0  0  0  0  0  0
   27.5130  -19.8908   -5.8604 C   0  0  0  0  0  0  0  0  0  0  0  0
   26.0217  -20.0581   -8.0474 C   0  0  0  0  0  0  0  0  0  0  0  0
   26.6333  -18.9852   -8.3541 O   0  0  0  0  0  0  0  0  0  0  0  0
   24.8175  -19.9172   -7.4095 O   0  0  0  0  0  0  0  0  0  0  0  0
  2  1  1  1
  3  2  1  0
  4  3  1  0
  5  4  2  0
  6  5  1  0
  7  6  1  0
  7 12  2  0
  8  9  2  0
  8  7  1  0
  9 10  1  0
 10 11  2  0
 12 11  1  0
 12  4  1  0
 13  2  1  0
 13 14  2  0
 15 13  1  0
 16 15  1  0
 17 18  1  0
 17 16  1  0
 19 18  1  0
 19 15  1  0
 19 20  1  1
 21 20  2  0
 22 20  1  0
 23 22  1  0
 23 24  1  1
 24 25  1  0
 25 26  2  0
 26 27  1  0
 28 27  2  0
 29 28  1  0
 30 29  2  0
 30 25  1  0
 31 33  1  0
 31 23  1  0
 32 31  2  0
M  END
$$$$
