WPF.pdb
     RDKit          3D

 33 36  0  0  1  0  0  0  0  0999 V2000
   21.9530  -18.8991  -16.7915 N   0  0  0  0  0  0  0  0  0  0  0  0
   23.2627  -18.8804  -16.2696 C   0  0  1  0  0  0  0  0  0  0  0  0
   23.6468  -17.4876  -15.8095 C   0  0  0  0  0  0  0  0  0  0  0  0
   24.7085  -16.8480  -16.5752 C   0  0  0  0  0  0  0  0  0  0  0  0
   24.5270  -15.9284  -17.6095 C   0  0  0  0  0  0  0  0  0  0  0  0
   25.7298  -15.5930  -18.0868 N   0  0  0  0  0  0  0  0  0  0  0  0
   26.7176  -16.2464  -17.4224 C   0  0  0  0  0  0  0  0  0  0  0  0
   28.0968  -16.2365  -17.5356 C   0  0  0  0  0  0  0  0  0  0  0  0
   28.8606  -17.0182  -16.6929 C   0  0  0  0  0  0  0  0  0  0  0  0
   28.2640  -17.8162  -15.7310 C   0  0  0  0  0  0  0  0  0  0  0  0
   26.8749  -17.8010  -15.6494 C   0  0  0  0  0  0  0  0  0  0  0  0
   26.0743  -17.0376  -16.4681 C   0  0  0  0  0  0  0  0  0  0  0  0
   23.5812  -19.8992  -15.2413 C   0  0  0  0  0  0  0  0  0  0  0  0
   22.5299  -20.3072  -14.5917 O   0  0  0  0  0  0  0  0  0  0  0  0
   24.8438  -20.4062  -14.9543 N   0  0  0  0  0  0  0  0  0  0  0  0
   26.0635  -19.9457  -15.6652 C   0  0  0  0  0  0  0  0  0  0  0  0
   26.6464  -21.3112  -16.0239 C   0  0  0  0  0  0  0  0  0  0  0  0
   26.2194  -22.2465  -14.9416 C   0  0  0  0  0  0  0  0  0  0  0  0
   25.3515  -21.3932  -14.0527 C   0  0  1  0  0  0  0  0  0  0  0  0
   26.0604  -20.7213  -12.9524 C   0  0  0  0  0  0  0  0  0  0  0  0
   26.8736  -19.8034  -13.2742 O   0  0  0  0  0  0  0  0  0  0  0  0
   25.9284  -21.0031  -11.5757 N   0  0  0  0  0  0  0  0  0  0  0  0
   26.7356  -20.2978  -10.5707 C   0  0  1  0  0  0  0  0  0  0  0  0
   25.9270  -19.5678   -9.5688 C   0  0  0  0  0  0  0  0  0  0  0  0
   24.8050  -20.2862   -8.9658 C   0  0  0  0  0  0  0  0  0  0  0  0
   24.9148  -20.9429   -7.7477 C   0  0  0  0  0  0  0  0  0  0  0  0
   23.8122  -21.5974   -7.2644 C   0  0  0  0  0  0  0  0  0  0  0  0
   22.5976  -21.6091   -7.9714 C   0  0  0  0  0  0  0  0  0  0  0  0
   22.4776  -20.9581   -9.1817 C   0  0  0  0  0  0  0  0  0  0  0  0
   23.5927  -20.3089   -9.6565 C   0  0  0  0  0  0  0  0  0  0  0  0
   27.5524  -21.3530   -9.8456 C   0  0  0  0  0  0  0  0  0  0  0  0
   27.2954  -22.5841  -10.0390 O   0  0  0  0  0  0  0  0  0  0  0  0
   28.5724  -21.0680   -8.9764 O   0  0  0  0  0  0  0  0  0  0  0  0
  2  1  1  1
  3  2  1  0
  4  3  1  0
  5  4  2  0
  6  5  1  0
  7  6  1  0
  7 12  2  0
  8  9  2  0
  8  7  1  0
  9 10  1  0
 10 11  2  0
 12 11  1  0
 12  4  1  0
 13  2  1  0
 13 14  2  0
 15 13  1  0
 16 15  1  0
 17 18  1  0
 17 16  1  0
 19 18  1  0
 19 15  1  0
 19 20  1  1
 21 20  2  0
 22 20  1  0
 23 22  1  0
 23 24  1  1
 24 25  1  0
 25 26  2  0
 26 27  1  0
 28 27  2  0
 29 28  1  0
 30 29  2  0
 30 25  1  0
 31 33  1  0
 31 23  1  0
 32 31  2  0
M  END
$$$$
