WPF.pdb
     RDKit          3D

 33 36  0  0  1  0  0  0  0  0999 V2000
   24.8477  -21.8444  -15.3709 N   0  0  0  0  0  0  0  0  0  0  0  0
   25.7104  -21.0866  -14.5528 C   0  0  1  0  0  0  0  0  0  0  0  0
   25.0574  -19.7852  -14.1294 C   0  0  0  0  0  0  0  0  0  0  0  0
   24.9466  -18.7742  -15.1726 C   0  0  0  0  0  0  0  0  0  0  0  0
   23.7553  -18.2975  -15.7223 C   0  0  0  0  0  0  0  0  0  0  0  0
   24.0597  -17.4054  -16.6703 N   0  0  0  0  0  0  0  0  0  0  0  0
   25.4046  -17.2586  -16.7879 C   0  0  0  0  0  0  0  0  0  0  0  0
   26.1997  -16.4707  -17.6017 C   0  0  0  0  0  0  0  0  0  0  0  0
   27.5735  -16.5293  -17.4840 C   0  0  0  0  0  0  0  0  0  0  0  0
   28.1708  -17.3691  -16.5587 C   0  0  0  0  0  0  0  0  0  0  0  0
   27.3383  -18.1472  -15.7600 C   0  0  0  0  0  0  0  0  0  0  0  0
   25.9648  -18.1209  -15.8429 C   0  0  0  0  0  0  0  0  0  0  0  0
   26.3174  -21.7904  -13.3983 C   0  0  0  0  0  0  0  0  0  0  0  0
   25.8966  -23.0158  -13.2755 O   0  0  0  0  0  0  0  0  0  0  0  0
   27.2420  -21.2564  -12.5075 N   0  0  0  0  0  0  0  0  0  0  0  0
   27.7883  -19.8839  -12.6596 C   0  0  0  0  0  0  0  0  0  0  0  0
   29.2729  -20.2132  -12.5153 C   0  0  0  0  0  0  0  0  0  0  0  0
   29.3532  -21.3990  -11.6121 C   0  0  0  0  0  0  0  0  0  0  0  0
   27.9106  -21.7401  -11.3396 C   0  0  1  0  0  0  0  0  0  0  0  0
   27.3330  -21.0929  -10.1512 C   0  0  0  0  0  0  0  0  0  0  0  0
   26.8449  -19.9340  -10.3134 O   0  0  0  0  0  0  0  0  0  0  0  0
   27.2754  -21.6331   -8.8485 N   0  0  0  0  0  0  0  0  0  0  0  0
   26.2565  -21.1956   -7.8845 C   0  0  1  0  0  0  0  0  0  0  0  0
   26.5985  -21.5093   -6.4791 C   0  0  0  0  0  0  0  0  0  0  0  0
   27.7344  -20.7975   -5.8944 C   0  0  0  0  0  0  0  0  0  0  0  0
   28.9744  -21.3968   -5.7214 C   0  0  0  0  0  0  0  0  0  0  0  0
   29.9782  -20.6544   -5.1566 C   0  0  0  0  0  0  0  0  0  0  0  0
   29.7714  -19.3216   -4.7612 C   0  0  0  0  0  0  0  0  0  0  0  0
   28.5434  -18.7163   -4.9305 C   0  0  0  0  0  0  0  0  0  0  0  0
   27.5445  -19.4740   -5.4948 C   0  0  0  0  0  0  0  0  0  0  0  0
   26.1426  -19.6875   -8.0214 C   0  0  0  0  0  0  0  0  0  0  0  0
   25.1067  -19.0963   -7.5782 O   0  0  0  0  0  0  0  0  0  0  0  0
   27.0992  -18.8971   -8.6020 O   0  0  0  0  0  0  0  0  0  0  0  0
  2  1  1  1
  3  2  1  0
  4  3  1  0
  5  4  2  0
  6  5  1  0
  7  6  1  0
  7 12  2  0
  8  9  2  0
  8  7  1  0
  9 10  1  0
 10 11  2  0
 12 11  1  0
 12  4  1  0
 13  2  1  0
 13 14  2  0
 15 13  1  0
 16 15  1  0
 17 18  1  0
 17 16  1  0
 19 18  1  0
 19 15  1  0
 19 20  1  1
 21 20  2  0
 22 20  1  0
 23 22  1  0
 23 24  1  1
 24 25  1  0
 25 26  2  0
 26 27  1  0
 28 27  2  0
 29 28  1  0
 30 29  2  0
 30 25  1  0
 31 33  1  0
 31 23  1  0
 32 31  2  0
M  END
$$$$
