GYT.pdb
     RDKit          3D

 24 24  0  0  1  0  0  0  0  0999 V2000
   20.0055  -20.1610  -15.4004 N   0  0  0  0  0  0  0  0  0  0  0  0
   21.3250  -20.0769  -15.9938 C   0  0  0  0  0  0  0  0  0  0  0  0
   22.3505  -19.7835  -14.9460 C   0  0  0  0  0  0  0  0  0  0  0  0
   22.7631  -18.6236  -14.7755 O   0  0  0  0  0  0  0  0  0  0  0  0
   18.5728  -19.2045   -9.8712 O   0  0  0  0  0  0  0  0  0  0  0  0
   19.7413  -19.7617  -10.3778 C   0  0  0  0  0  0  0  0  0  0  0  0
   19.6674  -20.7063  -11.4010 C   0  0  0  0  0  0  0  0  0  0  0  0
   20.8470  -21.2382  -11.8797 C   0  0  0  0  0  0  0  0  0  0  0  0
   22.0574  -20.8383  -11.3523 C   0  0  0  0  0  0  0  0  0  0  0  0
   23.3101  -21.4247  -11.8838 C   0  0  0  0  0  0  0  0  0  0  0  0
   23.8159  -20.6519  -13.0872 C   0  0  2  0  0  0  0  0  0  0  0  0
   22.8493  -20.8340  -14.1486 N   0  0  0  0  0  0  0  0  0  0  0  0
   25.1639  -21.1229  -13.4977 C   0  0  0  0  0  0  0  0  0  0  0  0
   25.3557  -22.2984  -13.9431 O   0  0  0  0  0  0  0  0  0  0  0  0
   22.1422  -19.9002  -10.3352 C   0  0  0  0  0  0  0  0  0  0  0  0
   20.9588  -19.3708   -9.8597 C   0  0  0  0  0  0  0  0  0  0  0  0
   27.7302  -19.5499  -15.9066 C   0  0  0  0  0  0  0  0  0  0  0  0
   28.3074  -19.6316  -14.5127 C   0  0  1  0  0  0  0  0  0  0  0  0
   28.0254  -18.4192  -13.8844 O   0  0  0  0  0  0  0  0  0  0  0  0
   27.6424  -20.7201  -13.6859 C   0  0  2  0  0  0  0  0  0  0  0  0
   26.3002  -20.2886  -13.4138 N   0  0  0  0  0  0  0  0  0  0  0  0
   28.4242  -20.9551  -12.4432 C   0  0  0  0  0  0  0  0  0  0  0  0
   27.9704  -20.6745  -11.3252 O   0  0  0  0  0  0  0  0  0  0  0  0
   29.6877  -21.5011  -12.5525 O   0  0  0  0  0  0  0  0  0  0  0  0
  1  2  1  0
  2  3  1  0
  3  4  2  0
  6  5  1  0
  6  7  2  0
  8  7  1  0
  9 10  1  0
  9  8  2  0
 11 10  1  1
 11 13  1  0
 12 11  1  0
 12  3  1  0
 13 14  2  0
 15 16  2  0
 15  9  1  0
 16  6  1  0
 18 17  1  6
 18 20  1  0
 19 18  1  0
 20 22  1  0
 21 13  1  0
 20 21  1  1
 22 23  2  0
 22 24  1  0
M  END
$$$$
