GYT.pdb
     RDKit          3D

 24 24  0  0  1  0  0  0  0  0999 V2000
   21.2494  -20.7436  -12.2137 N   0  0  0  0  0  0  0  0  0  0  0  0
   21.8185  -20.9809  -13.5251 C   0  0  0  0  0  0  0  0  0  0  0  0
   22.8841  -19.9746  -13.8213 C   0  0  0  0  0  0  0  0  0  0  0  0
   22.8289  -18.8349  -13.3286 O   0  0  0  0  0  0  0  0  0  0  0  0
   25.8496  -20.5915   -8.7835 O   0  0  0  0  0  0  0  0  0  0  0  0
   25.9616  -20.4821  -10.1649 C   0  0  0  0  0  0  0  0  0  0  0  0
   25.7881  -21.6129  -10.9624 C   0  0  0  0  0  0  0  0  0  0  0  0
   25.9064  -21.4675  -12.3292 C   0  0  0  0  0  0  0  0  0  0  0  0
   26.1885  -20.2334  -12.8778 C   0  0  0  0  0  0  0  0  0  0  0  0
   26.3104  -20.1038  -14.3488 C   0  0  0  0  0  0  0  0  0  0  0  0
   25.0776  -19.4572  -14.9515 C   0  0  2  0  0  0  0  0  0  0  0  0
   23.9566  -20.3267  -14.6662 N   0  0  0  0  0  0  0  0  0  0  0  0
   25.2422  -19.2504  -16.4135 C   0  0  0  0  0  0  0  0  0  0  0  0
   25.1372  -20.2098  -17.2415 O   0  0  0  0  0  0  0  0  0  0  0  0
   26.3628  -19.1032  -12.0944 C   0  0  0  0  0  0  0  0  0  0  0  0
   26.2434  -19.2540  -10.7270 C   0  0  0  0  0  0  0  0  0  0  0  0
   23.9028  -15.8715  -18.2030 C   0  0  0  0  0  0  0  0  0  0  0  0
   25.3309  -16.2201  -18.5514 C   0  0  1  0  0  0  0  0  0  0  0  0
   26.1473  -15.5353  -17.6520 O   0  0  0  0  0  0  0  0  0  0  0  0
   25.6157  -17.7013  -18.3633 C   0  0  2  0  0  0  0  0  0  0  0  0
   25.5236  -17.9778  -16.9573 N   0  0  0  0  0  0  0  0  0  0  0  0
   26.9556  -18.0296  -18.9180 C   0  0  0  0  0  0  0  0  0  0  0  0
   27.8991  -18.3631  -18.1878 O   0  0  0  0  0  0  0  0  0  0  0  0
   27.1393  -17.9567  -20.2845 O   0  0  0  0  0  0  0  0  0  0  0  0
  1  2  1  0
  2  3  1  0
  3  4  2  0
  6  5  1  0
  6  7  2  0
  8  7  1  0
  9 10  1  0
  9  8  2  0
 11 10  1  6
 11 13  1  0
 12 11  1  0
 12  3  1  0
 13 14  2  0
 15 16  2  0
 15  9  1  0
 16  6  1  0
 18 17  1  1
 18 20  1  0
 19 18  1  0
 20 22  1  0
 21 13  1  0
 20 21  1  1
 22 23  2  0
 22 24  1  0
M  END
$$$$
