GYT.pdb
     RDKit          3D

 24 24  0  0  1  0  0  0  0  0999 V2000
   17.4065   -8.5786  -14.1338 N   0  0  0  0  0  0  0  0  0  0  0  0
   17.8554   -7.7251  -13.0521 C   0  0  0  0  0  0  0  0  0  0  0  0
   16.6937   -7.2784  -12.2236 C   0  0  0  0  0  0  0  0  0  0  0  0
   15.5765   -7.1124  -12.7423 O   0  0  0  0  0  0  0  0  0  0  0  0
   13.1506  -12.3380  -10.2289 O   0  0  0  0  0  0  0  0  0  0  0  0
   13.7912  -11.1570   -9.8717 C   0  0  0  0  0  0  0  0  0  0  0  0
   13.0370  -10.0686   -9.4344 C   0  0  0  0  0  0  0  0  0  0  0  0
   13.7057   -8.9127   -9.0881 C   0  0  0  0  0  0  0  0  0  0  0  0
   15.0811   -8.8491   -9.1768 C   0  0  0  0  0  0  0  0  0  0  0  0
   15.7757   -7.5959   -8.7990 C   0  0  0  0  0  0  0  0  0  0  0  0
   15.8153   -6.6149   -9.9554 C   0  0  2  0  0  0  0  0  0  0  0  0
   16.8727   -7.0454  -10.8445 N   0  0  0  0  0  0  0  0  0  0  0  0
   16.0458   -5.2286   -9.4734 C   0  0  0  0  0  0  0  0  0  0  0  0
   17.0863   -4.9133   -8.8138 O   0  0  0  0  0  0  0  0  0  0  0  0
   15.8403   -9.9249   -9.6101 C   0  0  0  0  0  0  0  0  0  0  0  0
   15.1662  -11.0795   -9.9555 C   0  0  0  0  0  0  0  0  0  0  0  0
   12.9597   -2.1945   -9.8600 C   0  0  0  0  0  0  0  0  0  0  0  0
   14.3992   -1.9893  -10.2703 C   0  0  1  0  0  0  0  0  0  0  0  0
   14.7004   -0.6477  -10.0388 O   0  0  0  0  0  0  0  0  0  0  0  0
   15.3547   -2.8079   -9.4174 C   0  0  2  0  0  0  0  0  0  0  0  0
   15.1210   -4.1911   -9.7236 N   0  0  0  0  0  0  0  0  0  0  0  0
   15.1327   -2.5012   -7.9795 C   0  0  0  0  0  0  0  0  0  0  0  0
   14.5312   -3.2845   -7.2317 O   0  0  0  0  0  0  0  0  0  0  0  0
   15.6149   -1.3087   -7.4776 O   0  0  0  0  0  0  0  0  0  0  0  0
  1  2  1  0
  2  3  1  0
  3  4  2  0
  6  5  1  0
  6  7  2  0
  8  7  1  0
  9 10  1  0
  9  8  2  0
 11 10  1  1
 11 13  1  0
 12 11  1  0
 12  3  1  0
 13 14  2  0
 15 16  2  0
 15  9  1  0
 16  6  1  0
 18 17  1  1
 18 20  1  0
 19 18  1  0
 20 22  1  0
 21 13  1  0
 20 21  1  1
 22 23  2  0
 22 24  1  0
M  END
$$$$
