GYT.pdb
     RDKit          3D

 24 24  0  0  1  0  0  0  0  0999 V2000
   28.7153  -20.9472  -14.7380 N   0  0  0  0  0  0  0  0  0  0  0  0
   28.0129  -20.0977  -13.7972 C   0  0  0  0  0  0  0  0  0  0  0  0
   26.8484  -20.8255  -13.2058 C   0  0  0  0  0  0  0  0  0  0  0  0
   26.4686  -21.9055  -13.6897 O   0  0  0  0  0  0  0  0  0  0  0  0
   29.9346  -20.9013   -7.4816 O   0  0  0  0  0  0  0  0  0  0  0  0
   28.7003  -20.7635   -8.1062 C   0  0  0  0  0  0  0  0  0  0  0  0
   27.7072  -19.9890   -7.5075 C   0  0  0  0  0  0  0  0  0  0  0  0
   26.4946  -19.8743   -8.1554 C   0  0  0  0  0  0  0  0  0  0  0  0
   26.2842  -20.5127   -9.3603 C   0  0  0  0  0  0  0  0  0  0  0  0
   24.9729  -20.3736  -10.0361 C   0  0  0  0  0  0  0  0  0  0  0  0
   25.0282  -20.8874  -11.4624 C   0  0  2  0  0  0  0  0  0  0  0  0
   26.1802  -20.2781  -12.0914 N   0  0  0  0  0  0  0  0  0  0  0  0
   23.7777  -20.5638  -12.1966 C   0  0  0  0  0  0  0  0  0  0  0  0
   23.4348  -19.3634  -12.4386 O   0  0  0  0  0  0  0  0  0  0  0  0
   27.2644  -21.2848   -9.9640 C   0  0  0  0  0  0  0  0  0  0  0  0
   28.4762  -21.3965   -9.3115 C   0  0  0  0  0  0  0  0  0  0  0  0
   22.8963  -22.3468  -15.4746 C   0  0  0  0  0  0  0  0  0  0  0  0
   21.7128  -22.4231  -14.5387 C   0  0  1  0  0  0  0  0  0  0  0  0
   21.8059  -23.6400  -13.8642 O   0  0  0  0  0  0  0  0  0  0  0  0
   21.7531  -21.3310  -13.4823 C   0  0  2  0  0  0  0  0  0  0  0  0
   22.9070  -21.5731  -12.6628 N   0  0  0  0  0  0  0  0  0  0  0  0
   20.4896  -21.3434  -12.6985 C   0  0  0  0  0  0  0  0  0  0  0  0
   20.4695  -21.6564  -11.5000 O   0  0  0  0  0  0  0  0  0  0  0  0
   19.3152  -20.9948  -13.3354 O   0  0  0  0  0  0  0  0  0  0  0  0
  1  2  1  0
  2  3  1  0
  3  4  2  0
  6  5  1  0
  6  7  2  0
  8  7  1  0
  9 10  1  0
  9  8  2  0
 11 10  1  1
 11 13  1  0
 12 11  1  0
 12  3  1  0
 13 14  2  0
 15 16  2  0
 15  9  1  0
 16  6  1  0
 18 17  1  6
 18 20  1  0
 19 18  1  0
 20 22  1  0
 21 13  1  0
 20 21  1  1
 22 23  2  0
 22 24  1  0
M  END
$$$$
