GYT.pdb
     RDKit          3D

 24 24  0  0  1  0  0  0  0  0999 V2000
   19.6807  -21.2805  -10.6384 N   0  0  0  0  0  0  0  0  0  0  0  0
   20.9597  -21.9200  -10.8733 C   0  0  0  0  0  0  0  0  0  0  0  0
   21.9196  -20.9549  -11.4919 C   0  0  0  0  0  0  0  0  0  0  0  0
   21.5945  -19.7683  -11.6682 O   0  0  0  0  0  0  0  0  0  0  0  0
   26.2389  -19.5319   -6.6168 O   0  0  0  0  0  0  0  0  0  0  0  0
   26.0709  -19.8825   -7.9515 C   0  0  0  0  0  0  0  0  0  0  0  0
   26.3096  -18.9368   -8.9481 C   0  0  0  0  0  0  0  0  0  0  0  0
   26.1330  -19.3195  -10.2618 C   0  0  0  0  0  0  0  0  0  0  0  0
   25.7315  -20.6038  -10.5664 C   0  0  0  0  0  0  0  0  0  0  0  0
   25.5489  -20.9900  -11.9853 C   0  0  0  0  0  0  0  0  0  0  0  0
   24.1926  -20.5549  -12.5071 C   0  0  2  0  0  0  0  0  0  0  0  0
   23.2014  -21.3996  -11.8761 N   0  0  0  0  0  0  0  0  0  0  0  0
   24.1294  -20.6615  -13.9876 C   0  0  0  0  0  0  0  0  0  0  0  0
   24.4329  -21.7366  -14.5951 O   0  0  0  0  0  0  0  0  0  0  0  0
   25.4916  -21.5516   -9.5837 C   0  0  0  0  0  0  0  0  0  0  0  0
   25.6698  -21.1636   -8.2705 C   0  0  0  0  0  0  0  0  0  0  0  0
   21.1274  -20.2713  -16.0290 C   0  0  0  0  0  0  0  0  0  0  0  0
   22.1180  -19.2393  -16.5153 C   0  0  1  0  0  0  0  0  0  0  0  0
   21.8725  -18.0701  -15.7963 O   0  0  0  0  0  0  0  0  0  0  0  0
   23.5523  -19.6451  -16.2180 C   0  0  2  0  0  0  0  0  0  0  0  0
   23.7291  -19.5741  -14.7948 N   0  0  0  0  0  0  0  0  0  0  0  0
   24.4889  -18.7518  -16.9498 C   0  0  0  0  0  0  0  0  0  0  0  0
   25.2502  -17.9774  -16.3537 O   0  0  0  0  0  0  0  0  0  0  0  0
   24.5002  -18.7968  -18.3298 O   0  0  0  0  0  0  0  0  0  0  0  0
  1  2  1  0
  2  3  1  0
  3  4  2  0
  6  5  1  0
  6  7  2  0
  8  7  1  0
  9 10  1  0
  9  8  2  0
 11 10  1  1
 11 13  1  0
 12 11  1  0
 12  3  1  0
 13 14  2  0
 15 16  2  0
 15  9  1  0
 16  6  1  0
 18 17  1  1
 18 20  1  0
 19 18  1  0
 20 22  1  0
 21 13  1  0
 20 21  1  1
 22 23  2  0
 22 24  1  0
M  END
$$$$
