GYT.pdb
     RDKit          3D

 24 24  0  0  1  0  0  0  0  0999 V2000
   19.5853   -9.0067  -15.8963 N   0  0  0  0  0  0  0  0  0  0  0  0
   19.6154   -9.3092  -14.4794 C   0  0  0  0  0  0  0  0  0  0  0  0
   19.6841   -8.0486  -13.6781 C   0  0  0  0  0  0  0  0  0  0  0  0
   20.4585   -7.9587  -12.7101 O   0  0  0  0  0  0  0  0  0  0  0  0
   24.1524   -5.0362  -16.7163 O   0  0  0  0  0  0  0  0  0  0  0  0
   22.9002   -4.9238  -16.1230 C   0  0  0  0  0  0  0  0  0  0  0  0
   22.7779   -4.2944  -14.8846 C   0  0  0  0  0  0  0  0  0  0  0  0
   21.5202   -4.2008  -14.3254 C   0  0  0  0  0  0  0  0  0  0  0  0
   20.4239   -4.7192  -14.9832 C   0  0  0  0  0  0  0  0  0  0  0  0
   19.0837   -4.6058  -14.3613 C   0  0  0  0  0  0  0  0  0  0  0  0
   18.8603   -5.6919  -13.3261 C   0  0  2  0  0  0  0  0  0  0  0  0
   18.8623   -6.9575  -14.0278 N   0  0  0  0  0  0  0  0  0  0  0  0
   17.5834   -5.4812  -12.5963 C   0  0  0  0  0  0  0  0  0  0  0  0
   16.4669   -5.4262  -13.2024 O   0  0  0  0  0  0  0  0  0  0  0  0
   20.5341   -5.3467  -16.2143 C   0  0  0  0  0  0  0  0  0  0  0  0
   21.7951   -5.4378  -16.7697 C   0  0  0  0  0  0  0  0  0  0  0  0
   16.5101   -7.6305   -9.7318 C   0  0  0  0  0  0  0  0  0  0  0  0
   16.4539   -6.1957   -9.2617 C   0  0  1  0  0  0  0  0  0  0  0  0
   17.6676   -5.9273   -8.6299 O   0  0  0  0  0  0  0  0  0  0  0  0
   16.3382   -5.2220  -10.4231 C   0  0  2  0  0  0  0  0  0  0  0  0
   17.5455   -5.3312  -11.1926 N   0  0  0  0  0  0  0  0  0  0  0  0
   16.1201   -3.8456   -9.9046 C   0  0  0  0  0  0  0  0  0  0  0  0
   16.9883   -2.9673  -10.0028 O   0  0  0  0  0  0  0  0  0  0  0  0
   14.9138   -3.5521   -9.3003 O   0  0  0  0  0  0  0  0  0  0  0  0
  1  2  1  0
  2  3  1  0
  3  4  2  0
  6  5  1  0
  6  7  2  0
  8  7  1  0
  9 10  1  0
  9  8  2  0
 11 10  1  6
 11 13  1  0
 12 11  1  0
 12  3  1  0
 13 14  2  0
 15 16  2  0
 15  9  1  0
 16  6  1  0
 18 17  1  6
 18 20  1  0
 19 18  1  0
 20 22  1  0
 21 13  1  0
 20 21  1  1
 22 23  2  0
 22 24  1  0
M  END
$$$$
