GYT.pdb
     RDKit          3D

 24 24  0  0  1  0  0  0  0  0999 V2000
   20.6713  -21.1253  -11.7470 N   0  0  0  0  0  0  0  0  0  0  0  0
   21.7243  -21.5719  -12.6368 C   0  0  0  0  0  0  0  0  0  0  0  0
   22.8217  -20.5581  -12.6965 C   0  0  0  0  0  0  0  0  0  0  0  0
   22.5927  -19.3653  -12.4326 O   0  0  0  0  0  0  0  0  0  0  0  0
   25.6931  -20.2386   -6.8518 O   0  0  0  0  0  0  0  0  0  0  0  0
   25.8709  -20.3410   -8.2267 C   0  0  0  0  0  0  0  0  0  0  0  0
   26.2122  -19.2077   -8.9641 C   0  0  0  0  0  0  0  0  0  0  0  0
   26.3807  -19.3462  -10.3264 C   0  0  0  0  0  0  0  0  0  0  0  0
   26.2133  -20.5761  -10.9287 C   0  0  0  0  0  0  0  0  0  0  0  0
   26.4000  -20.6984  -12.3936 C   0  0  0  0  0  0  0  0  0  0  0  0
   25.2512  -20.0621  -13.1529 C   0  0  2  0  0  0  0  0  0  0  0  0
   24.1236  -20.9637  -13.0554 N   0  0  0  0  0  0  0  0  0  0  0  0
   25.6205  -19.8104  -14.5698 C   0  0  0  0  0  0  0  0  0  0  0  0
   25.4890  -20.7039  -15.4650 O   0  0  0  0  0  0  0  0  0  0  0  0
   25.8742  -21.7088  -10.2052 C   0  0  0  0  0  0  0  0  0  0  0  0
   25.7067  -21.5649   -8.8421 C   0  0  0  0  0  0  0  0  0  0  0  0
   28.0145  -16.4863  -15.5097 C   0  0  0  0  0  0  0  0  0  0  0  0
   26.8211  -16.7659  -16.3931 C   0  0  1  0  0  0  0  0  0  0  0  0
   27.2094  -16.4825  -17.7021 O   0  0  0  0  0  0  0  0  0  0  0  0
   26.4220  -18.2322  -16.3607 C   0  0  2  0  0  0  0  0  0  0  0  0
   26.1362  -18.5659  -14.9938 N   0  0  0  0  0  0  0  0  0  0  0  0
   27.5162  -19.0631  -16.9293 C   0  0  0  0  0  0  0  0  0  0  0  0
   27.6491  -19.2179  -18.1512 O   0  0  0  0  0  0  0  0  0  0  0  0
   28.4003  -19.6726  -16.0612 O   0  0  0  0  0  0  0  0  0  0  0  0
  1  2  1  0
  2  3  1  0
  3  4  2  0
  6  5  1  0
  6  7  2  0
  8  7  1  0
  9 10  1  0
  9  8  2  0
 11 10  1  1
 11 13  1  0
 12 11  1  0
 12  3  1  0
 13 14  2  0
 15 16  2  0
 15  9  1  0
 16  6  1  0
 18 17  1  1
 18 20  1  0
 19 18  1  0
 20 22  1  0
 21 13  1  0
 20 21  1  1
 22 23  2  0
 22 24  1  0
M  END
$$$$
