GYT.pdb
     RDKit          3D

 24 24  0  0  1  0  0  0  0  0999 V2000
   27.6148  -23.4423  -17.7163 N   0  0  0  0  0  0  0  0  0  0  0  0
   27.8560  -22.2534  -16.9237 C   0  0  0  0  0  0  0  0  0  0  0  0
   27.0196  -22.2739  -15.6845 C   0  0  0  0  0  0  0  0  0  0  0  0
   26.1486  -23.1464  -15.5266 O   0  0  0  0  0  0  0  0  0  0  0  0
   24.7590  -20.3860   -7.4467 O   0  0  0  0  0  0  0  0  0  0  0  0
   25.3786  -20.3922   -8.6912 C   0  0  0  0  0  0  0  0  0  0  0  0
   25.3698  -19.2366   -9.4716 C   0  0  0  0  0  0  0  0  0  0  0  0
   25.9942  -19.2788  -10.7010 C   0  0  0  0  0  0  0  0  0  0  0  0
   26.6058  -20.4375  -11.1335 C   0  0  0  0  0  0  0  0  0  0  0  0
   27.2697  -20.4570  -12.4581 C   0  0  0  0  0  0  0  0  0  0  0  0
   26.4281  -21.1862  -13.4882 C   0  0  2  0  0  0  0  0  0  0  0  0
   27.2248  -21.2943  -14.6914 N   0  0  0  0  0  0  0  0  0  0  0  0
   25.1550  -20.4652  -13.7465 C   0  0  0  0  0  0  0  0  0  0  0  0
   25.1375  -19.2890  -14.2293 O   0  0  0  0  0  0  0  0  0  0  0  0
   26.6205  -21.5916  -10.3658 C   0  0  0  0  0  0  0  0  0  0  0  0
   25.9941  -21.5441   -9.1361 C   0  0  0  0  0  0  0  0  0  0  0  0
   22.7302  -20.8464  -16.1036 C   0  0  0  0  0  0  0  0  0  0  0  0
   21.9440  -21.0233  -14.8257 C   0  0  1  0  0  0  0  0  0  0  0  0
   21.8887  -22.3927  -14.5689 O   0  0  0  0  0  0  0  0  0  0  0  0
   22.6407  -20.3811  -13.6372 C   0  0  2  0  0  0  0  0  0  0  0  0
   23.9000  -21.0501  -13.4688 N   0  0  0  0  0  0  0  0  0  0  0  0
   21.7775  -20.4878  -12.4312 C   0  0  0  0  0  0  0  0  0  0  0  0
   22.1028  -21.1795  -11.4563 O   0  0  0  0  0  0  0  0  0  0  0  0
   20.5848  -19.7925  -12.4105 O   0  0  0  0  0  0  0  0  0  0  0  0
  1  2  1  0
  2  3  1  0
  3  4  2  0
  6  5  1  0
  6  7  2  0
  8  7  1  0
  9 10  1  0
  9  8  2  0
 11 10  1  1
 11 13  1  0
 12 11  1  0
 12  3  1  0
 13 14  2  0
 15 16  2  0
 15  9  1  0
 16  6  1  0
 18 17  1  6
 18 20  1  0
 19 18  1  0
 20 22  1  0
 21 13  1  0
 20 21  1  1
 22 23  2  0
 22 24  1  0
M  END
$$$$
