GYT.pdb
     RDKit          3D

 24 24  0  0  1  0  0  0  0  0999 V2000
   24.3831  -19.6287  -19.1597 N   0  0  0  0  0  0  0  0  0  0  0  0
   24.4048  -19.2261  -17.7677 C   0  0  0  0  0  0  0  0  0  0  0  0
   23.6949  -20.2343  -16.9220 C   0  0  0  0  0  0  0  0  0  0  0  0
   22.8835  -21.0255  -17.4322 O   0  0  0  0  0  0  0  0  0  0  0  0
   28.1734  -24.6828  -16.9603 O   0  0  0  0  0  0  0  0  0  0  0  0
   27.2745  -23.9647  -16.1800 C   0  0  0  0  0  0  0  0  0  0  0  0
   27.5108  -22.6148  -15.9218 C   0  0  0  0  0  0  0  0  0  0  0  0
   26.5978  -21.9333  -15.1437 C   0  0  0  0  0  0  0  0  0  0  0  0
   25.4877  -22.5808  -14.6420 C   0  0  0  0  0  0  0  0  0  0  0  0
   24.5220  -21.8264  -13.8090 C   0  0  0  0  0  0  0  0  0  0  0  0
   23.3843  -21.2721  -14.6453 C   0  0  2  0  0  0  0  0  0  0  0  0
   23.9517  -20.2832  -15.5364 N   0  0  0  0  0  0  0  0  0  0  0  0
   22.3267  -20.6808  -13.7855 C   0  0  0  0  0  0  0  0  0  0  0  0
   22.6056  -19.8925  -12.8275 O   0  0  0  0  0  0  0  0  0  0  0  0
   25.2433  -23.9221  -14.8925 C   0  0  0  0  0  0  0  0  0  0  0  0
   26.1600  -24.5997  -15.6718 C   0  0  0  0  0  0  0  0  0  0  0  0
   19.4259  -18.6339  -14.9072 C   0  0  0  0  0  0  0  0  0  0  0  0
   18.8742  -19.8271  -14.1625 C   0  0  1  0  0  0  0  0  0  0  0  0
   18.6040  -20.8103  -15.1136 O   0  0  0  0  0  0  0  0  0  0  0  0
   19.8923  -20.4154  -13.1992 C   0  0  2  0  0  0  0  0  0  0  0  0
   20.9584  -20.9645  -13.9890 N   0  0  0  0  0  0  0  0  0  0  0  0
   19.2388  -21.4387  -12.3409 C   0  0  0  0  0  0  0  0  0  0  0  0
   18.3790  -21.1333  -11.5029 O   0  0  0  0  0  0  0  0  0  0  0  0
   19.6093  -22.7601  -12.4922 O   0  0  0  0  0  0  0  0  0  0  0  0
  1  2  1  0
  2  3  1  0
  3  4  2  0
  6  5  1  0
  6  7  2  0
  8  7  1  0
  9 10  1  0
  9  8  2  0
 11 10  1  1
 11 13  1  0
 12 11  1  0
 12  3  1  0
 13 14  2  0
 15 16  2  0
 15  9  1  0
 16  6  1  0
 18 17  1  6
 18 20  1  0
 19 18  1  0
 20 22  1  0
 21 13  1  0
 20 21  1  6
 22 23  2  0
 22 24  1  0
M  END
$$$$
