QSF.pdb
     RDKit          3D

 27 27  0  0  1  0  0  0  0  0999 V2000
   22.6205  -14.6777  -19.7025 N   0  0  0  0  0  0  0  0  0  0  0  0
   21.3516  -15.0587  -20.2110 C   0  0  0  0  0  0  0  0  0  0  0  0
   21.3210  -15.8068  -21.2128 O   0  0  0  0  0  0  0  0  0  0  0  0
   20.1184  -14.5937  -19.5855 C   0  0  0  0  0  0  0  0  0  0  0  0
   20.3018  -13.7042  -18.4088 C   0  0  0  0  0  0  0  0  0  0  0  0
   21.0227  -14.2926  -17.2448 C   0  0  2  0  0  0  0  0  0  0  0  0
   20.3679  -15.4593  -16.6974 N   0  0  0  0  0  0  0  0  0  0  0  0
   21.0841  -13.2559  -16.1848 C   0  0  0  0  0  0  0  0  0  0  0  0
   20.1116  -13.0390  -15.4097 O   0  0  0  0  0  0  0  0  0  0  0  0
   24.5497  -11.0594  -16.0159 O   0  0  0  0  0  0  0  0  0  0  0  0
   23.8626  -11.2198  -14.8182 C   0  0  0  0  0  0  0  0  0  0  0  0
   22.3675  -11.4105  -15.0572 C   0  0  2  0  0  0  0  0  0  0  0  0
   22.2404  -12.4842  -16.0194 N   0  0  0  0  0  0  0  0  0  0  0  0
   21.7659  -10.1906  -15.6460 C   0  0  0  0  0  0  0  0  0  0  0  0
   21.8255  -10.0274  -16.9040 O   0  0  0  0  0  0  0  0  0  0  0  0
   21.1375   -9.2264  -14.8232 N   0  0  0  0  0  0  0  0  0  0  0  0
   20.5956   -8.0250  -15.4346 C   0  0  1  0  0  0  0  0  0  0  0  0
   19.0897   -8.1075  -15.2679 C   0  0  0  0  0  0  0  0  0  0  0  0
   18.4264   -8.9968  -16.2213 C   0  0  0  0  0  0  0  0  0  0  0  0
   18.2065   -8.5783  -17.5051 C   0  0  0  0  0  0  0  0  0  0  0  0
   17.5857   -9.4297  -18.3940 C   0  0  0  0  0  0  0  0  0  0  0  0
   17.2005  -10.6781  -17.9758 C   0  0  0  0  0  0  0  0  0  0  0  0
   17.4262  -11.0904  -16.6804 C   0  0  0  0  0  0  0  0  0  0  0  0
   18.0369  -10.2675  -15.7871 C   0  0  0  0  0  0  0  0  0  0  0  0
   21.1252   -6.8520  -14.7301 C   0  0  0  0  0  0  0  0  0  0  0  0
   21.8985   -6.9772  -13.7446 O   0  0  0  0  0  0  0  0  0  0  0  0
   20.8121   -5.5499  -15.1010 O   0  0  0  0  0  0  0  0  0  0  0  0
  1  2  1  0
  2  4  1  0
  2  3  2  0
  4  5  1  0
  6  8  1  0
  6  5  1  0
  6  7  1  1
  8 13  1  0
  9  8  2  0
 10 11  1  0
 12 11  1  6
 12 14  1  0
 13 12  1  0
 14 16  1  0
 14 15  2  0
 16 17  1  0
 17 25  1  0
 18 19  1  0
 17 18  1  1
 19 20  2  0
 19 24  1  0
 20 21  1  0
 21 22  2  0
 23 22  1  0
 24 23  2  0
 25 26  2  0
 25 27  1  0
M  END
$$$$
