QSF.pdb
     RDKit          3D

 27 27  0  0  1  0  0  0  0  0999 V2000
   24.5527  -33.8204   -6.4285 N   0  0  0  0  0  0  0  0  0  0  0  0
   25.0402  -34.2862   -7.6773 C   0  0  0  0  0  0  0  0  0  0  0  0
   24.5615  -33.7852   -8.7183 O   0  0  0  0  0  0  0  0  0  0  0  0
   26.0694  -35.3178   -7.7472 C   0  0  0  0  0  0  0  0  0  0  0  0
   26.6321  -35.7403   -6.4379 C   0  0  0  0  0  0  0  0  0  0  0  0
   27.6483  -34.8326   -5.8342 C   0  0  2  0  0  0  0  0  0  0  0  0
   28.8968  -34.8079   -6.5625 N   0  0  0  0  0  0  0  0  0  0  0  0
   27.9236  -35.3187   -4.4595 C   0  0  0  0  0  0  0  0  0  0  0  0
   26.9935  -35.6462   -3.6713 O   0  0  0  0  0  0  0  0  0  0  0  0
   31.6739  -34.5631   -2.8964 O   0  0  0  0  0  0  0  0  0  0  0  0
   31.1258  -35.8040   -2.5929 C   0  0  0  0  0  0  0  0  0  0  0  0
   29.6009  -35.7636   -2.6395 C   0  0  2  0  0  0  0  0  0  0  0  0
   29.2417  -35.4261   -4.0003 N   0  0  0  0  0  0  0  0  0  0  0  0
   29.0722  -34.7048   -1.7473 C   0  0  0  0  0  0  0  0  0  0  0  0
   28.6922  -33.6075   -2.2615 O   0  0  0  0  0  0  0  0  0  0  0  0
   28.9922  -34.9118   -0.3501 N   0  0  0  0  0  0  0  0  0  0  0  0
   28.2650  -33.9523    0.4632 C   0  0  1  0  0  0  0  0  0  0  0  0
   26.8121  -34.0509    0.0368 C   0  0  0  0  0  0  0  0  0  0  0  0
   26.1389  -32.7605   -0.1097 C   0  0  0  0  0  0  0  0  0  0  0  0
   25.8681  -32.0031    0.9969 C   0  0  0  0  0  0  0  0  0  0  0  0
   25.2385  -30.7864    0.8427 C   0  0  0  0  0  0  0  0  0  0  0  0
   24.8956  -30.3586   -0.4148 C   0  0  0  0  0  0  0  0  0  0  0  0
   25.1725  -31.1290   -1.5234 C   0  0  0  0  0  0  0  0  0  0  0  0
   25.7927  -32.3318   -1.3947 C   0  0  0  0  0  0  0  0  0  0  0  0
   28.4098  -34.3195    1.8763 C   0  0  0  0  0  0  0  0  0  0  0  0
   27.9554  -33.5837    2.7912 O   0  0  0  0  0  0  0  0  0  0  0  0
   29.0467  -35.4843    2.2870 O   0  0  0  0  0  0  0  0  0  0  0  0
  1  2  1  0
  2  4  1  0
  2  3  2  0
  4  5  1  0
  6  8  1  0
  6  5  1  0
  6  7  1  6
  8 13  1  0
  9  8  2  0
 10 11  1  0
 12 11  1  6
 12 14  1  0
 13 12  1  0
 14 16  1  0
 14 15  2  0
 16 17  1  0
 17 25  1  0
 18 19  1  0
 17 18  1  6
 19 20  2  0
 19 24  1  0
 20 21  1  0
 21 22  2  0
 23 22  1  0
 24 23  2  0
 25 26  2  0
 25 27  1  0
M  END
$$$$
