QSF.pdb
     RDKit          3D

 27 27  0  0  1  0  0  0  0  0999 V2000
   17.4285  -12.8337  -18.8940 N   0  0  0  0  0  0  0  0  0  0  0  0
   18.1968  -13.3309  -19.9787 C   0  0  0  0  0  0  0  0  0  0  0  0
   17.9100  -14.4606  -20.4322 O   0  0  0  0  0  0  0  0  0  0  0  0
   19.2882  -12.5494  -20.5499 C   0  0  0  0  0  0  0  0  0  0  0  0
   19.3950  -11.1530  -20.0519 C   0  0  0  0  0  0  0  0  0  0  0  0
   20.7499  -10.7114  -19.6157 C   0  0  2  0  0  0  0  0  0  0  0  0
   21.6205  -11.8082  -19.2572 N   0  0  0  0  0  0  0  0  0  0  0  0
   20.5771   -9.8478  -18.4214 C   0  0  0  0  0  0  0  0  0  0  0  0
   19.7436  -10.1256  -17.5149 O   0  0  0  0  0  0  0  0  0  0  0  0
   23.5799   -7.8909  -16.8635 O   0  0  0  0  0  0  0  0  0  0  0  0
   22.3530   -8.0129  -16.2216 C   0  0  0  0  0  0  0  0  0  0  0  0
   21.1959   -7.7495  -17.1812 C   0  0  2  0  0  0  0  0  0  0  0  0
   21.3472   -8.6882  -18.2724 N   0  0  0  0  0  0  0  0  0  0  0  0
   21.2727   -6.3785  -17.7389 C   0  0  0  0  0  0  0  0  0  0  0  0
   21.8265   -6.2099  -18.8692 O   0  0  0  0  0  0  0  0  0  0  0  0
   20.7396   -5.2786  -17.0264 N   0  0  0  0  0  0  0  0  0  0  0  0
   20.8747   -3.9448  -17.5865 C   0  0  1  0  0  0  0  0  0  0  0  0
   20.0893   -3.9493  -18.8848 C   0  0  0  0  0  0  0  0  0  0  0  0
   18.6400   -3.8513  -18.7119 C   0  0  0  0  0  0  0  0  0  0  0  0
   18.0676   -2.6422  -18.4257 C   0  0  0  0  0  0  0  0  0  0  0  0
   16.6999   -2.5643  -18.2715 C   0  0  0  0  0  0  0  0  0  0  0  0
   15.9397   -3.6980  -18.4074 C   0  0  0  0  0  0  0  0  0  0  0  0
   16.5258   -4.9115  -18.6957 C   0  0  0  0  0  0  0  0  0  0  0  0
   17.8725   -5.0115  -18.8520 C   0  0  0  0  0  0  0  0  0  0  0  0
   20.3041   -2.9737  -16.6463 C   0  0  0  0  0  0  0  0  0  0  0  0
   19.7189   -3.3484  -15.5966 O   0  0  0  0  0  0  0  0  0  0  0  0
   20.3734   -1.6010  -16.8518 O   0  0  0  0  0  0  0  0  0  0  0  0
  1  2  1  0
  2  4  1  0
  2  3  2  0
  4  5  1  0
  6  8  1  0
  6  5  1  0
  6  7  1  1
  8 13  1  0
  9  8  2  0
 10 11  1  0
 12 11  1  1
 12 14  1  0
 13 12  1  0
 14 16  1  0
 14 15  2  0
 16 17  1  0
 17 25  1  0
 18 19  1  0
 17 18  1  6
 19 20  2  0
 19 24  1  0
 20 21  1  0
 21 22  2  0
 23 22  1  0
 24 23  2  0
 25 26  2  0
 25 27  1  0
M  END
$$$$
