QSF.pdb
     RDKit          3D

 27 27  0  0  1  0  0  0  0  0999 V2000
   14.7863  -12.0428  -18.9877 N   0  0  0  0  0  0  0  0  0  0  0  0
   14.9551  -12.6745  -17.7281 C   0  0  0  0  0  0  0  0  0  0  0  0
   14.0198  -13.3839  -17.2970 O   0  0  0  0  0  0  0  0  0  0  0  0
   16.1822  -12.5036  -16.9577 C   0  0  0  0  0  0  0  0  0  0  0  0
   17.2387  -11.6956  -17.6212 C   0  0  0  0  0  0  0  0  0  0  0  0
   18.5031  -11.5085  -16.8549 C   0  0  2  0  0  0  0  0  0  0  0  0
   18.5779  -12.3285  -15.6668 N   0  0  0  0  0  0  0  0  0  0  0  0
   18.5698  -10.0852  -16.4403 C   0  0  0  0  0  0  0  0  0  0  0  0
   18.5407   -9.1452  -17.2824 O   0  0  0  0  0  0  0  0  0  0  0  0
   19.0133   -9.1779  -12.3297 O   0  0  0  0  0  0  0  0  0  0  0  0
   18.1823   -8.4339  -13.1594 C   0  0  0  0  0  0  0  0  0  0  0  0
   18.7182   -8.3911  -14.5877 C   0  0  2  0  0  0  0  0  0  0  0  0
   18.6679   -9.7495  -15.0847 N   0  0  0  0  0  0  0  0  0  0  0  0
   20.1313   -7.9447  -14.6095 C   0  0  0  0  0  0  0  0  0  0  0  0
   21.0359   -8.7957  -14.8746 O   0  0  0  0  0  0  0  0  0  0  0  0
   20.4666   -6.5969  -14.3401 N   0  0  0  0  0  0  0  0  0  0  0  0
   21.8285   -6.1496  -14.5764 C   0  0  1  0  0  0  0  0  0  0  0  0
   22.0603   -6.2697  -16.0712 C   0  0  0  0  0  0  0  0  0  0  0  0
   23.3207   -5.6887  -16.5335 C   0  0  0  0  0  0  0  0  0  0  0  0
   24.4672   -6.4345  -16.5029 C   0  0  0  0  0  0  0  0  0  0  0  0
   25.6463   -5.8755  -16.9475 C   0  0  0  0  0  0  0  0  0  0  0  0
   25.6483   -4.5845  -17.4112 C   0  0  0  0  0  0  0  0  0  0  0  0
   24.4882   -3.8413  -17.4380 C   0  0  0  0  0  0  0  0  0  0  0  0
   23.3142   -4.3723  -17.0046 C   0  0  0  0  0  0  0  0  0  0  0  0
   21.9510   -4.7510  -14.1502 C   0  0  0  0  0  0  0  0  0  0  0  0
   23.0731   -4.2463  -13.8836 O   0  0  0  0  0  0  0  0  0  0  0  0
   20.8537   -3.9088  -14.0170 O   0  0  0  0  0  0  0  0  0  0  0  0
  1  2  1  0
  2  4  1  0
  2  3  2  0
  4  5  1  0
  6  8  1  0
  6  5  1  0
  6  7  1  1
  8 13  1  0
  9  8  2  0
 10 11  1  0
 12 11  1  1
 12 14  1  0
 13 12  1  0
 14 16  1  0
 14 15  2  0
 16 17  1  0
 17 25  1  0
 18 19  1  0
 17 18  1  6
 19 20  2  0
 19 24  1  0
 20 21  1  0
 21 22  2  0
 23 22  1  0
 24 23  2  0
 25 26  2  0
 25 27  1  0
M  END
$$$$
