QSF.pdb
     RDKit          3D

 27 27  0  0  1  0  0  0  0  0999 V2000
   18.9291  -15.4884  -15.0955 N   0  0  0  0  0  0  0  0  0  0  0  0
   18.7995  -16.1223  -16.3585 C   0  0  0  0  0  0  0  0  0  0  0  0
   18.7686  -17.3722  -16.3877 O   0  0  0  0  0  0  0  0  0  0  0  0
   18.7041  -15.3418  -17.5873 C   0  0  0  0  0  0  0  0  0  0  0  0
   18.7740  -13.8679  -17.4080 C   0  0  0  0  0  0  0  0  0  0  0  0
   18.6437  -13.0473  -18.6451 C   0  0  2  0  0  0  0  0  0  0  0  0
   18.6767  -13.8329  -19.8581 N   0  0  0  0  0  0  0  0  0  0  0  0
   19.7846  -12.0989  -18.6764 C   0  0  0  0  0  0  0  0  0  0  0  0
   20.9120  -12.4299  -19.1377 O   0  0  0  0  0  0  0  0  0  0  0  0
   21.1599   -7.7267  -19.3711 O   0  0  0  0  0  0  0  0  0  0  0  0
   20.2377   -8.7617  -19.2676 C   0  0  0  0  0  0  0  0  0  0  0  0
   20.6710   -9.7891  -18.2256 C   0  0  2  0  0  0  0  0  0  0  0  0
   19.6322  -10.7961  -18.1869 N   0  0  0  0  0  0  0  0  0  0  0  0
   20.7649   -9.1721  -16.8814 C   0  0  0  0  0  0  0  0  0  0  0  0
   19.7049   -9.0436  -16.1939 O   0  0  0  0  0  0  0  0  0  0  0  0
   22.0107   -8.7346  -16.3734 N   0  0  0  0  0  0  0  0  0  0  0  0
   22.0499   -8.0678  -15.0832 C   0  0  1  0  0  0  0  0  0  0  0  0
   22.8730   -8.9584  -14.1712 C   0  0  0  0  0  0  0  0  0  0  0  0
   24.1070   -9.4614  -14.7746 C   0  0  0  0  0  0  0  0  0  0  0  0
   24.5755  -10.7014  -14.4362 C   0  0  0  0  0  0  0  0  0  0  0  0
   25.7365  -11.1644  -15.0176 C   0  0  0  0  0  0  0  0  0  0  0  0
   26.3994  -10.3749  -15.9226 C   0  0  0  0  0  0  0  0  0  0  0  0
   25.9196   -9.1271  -16.2568 C   0  0  0  0  0  0  0  0  0  0  0  0
   24.7766   -8.6505  -15.6959 C   0  0  0  0  0  0  0  0  0  0  0  0
   22.6969   -6.7606  -15.2423 C   0  0  0  0  0  0  0  0  0  0  0  0
   23.1567   -6.3916  -16.3546 O   0  0  0  0  0  0  0  0  0  0  0  0
   22.8396   -5.8617  -14.1922 O   0  0  0  0  0  0  0  0  0  0  0  0
  1  2  1  0
  2  4  1  0
  2  3  2  0
  4  5  1  0
  6  8  1  0
  6  5  1  0
  6  7  1  6
  8 13  1  0
  9  8  2  0
 10 11  1  0
 12 11  1  6
 12 14  1  0
 13 12  1  0
 14 16  1  0
 14 15  2  0
 16 17  1  0
 17 25  1  0
 18 19  1  0
 17 18  1  1
 19 20  2  0
 19 24  1  0
 20 21  1  0
 21 22  2  0
 23 22  1  0
 24 23  2  0
 25 26  2  0
 25 27  1  0
M  END
$$$$
