QSF.pdb
     RDKit          3D

 27 27  0  0  1  0  0  0  0  0999 V2000
   21.3057  -15.4580  -16.2531 N   0  0  0  0  0  0  0  0  0  0  0  0
   21.5499  -15.1418  -17.6149 C   0  0  0  0  0  0  0  0  0  0  0  0
   21.9209  -16.0636  -18.3743 O   0  0  0  0  0  0  0  0  0  0  0  0
   21.3733  -13.7833  -18.1165 C   0  0  0  0  0  0  0  0  0  0  0  0
   20.8683  -12.8017  -17.1212 C   0  0  0  0  0  0  0  0  0  0  0  0
   19.5979  -12.1049  -17.4698 C   0  0  2  0  0  0  0  0  0  0  0  0
   19.0106  -12.5717  -18.7054 N   0  0  0  0  0  0  0  0  0  0  0  0
   19.9049  -10.6609  -17.6193 C   0  0  0  0  0  0  0  0  0  0  0  0
   20.4061  -10.1940  -18.6797 O   0  0  0  0  0  0  0  0  0  0  0  0
   17.7329   -8.0409  -15.5407 O   0  0  0  0  0  0  0  0  0  0  0  0
   18.4655   -7.7024  -16.6725 C   0  0  0  0  0  0  0  0  0  0  0  0
   19.8510   -8.3417  -16.6485 C   0  0  2  0  0  0  0  0  0  0  0  0
   19.6408   -9.7716  -16.5708 N   0  0  0  0  0  0  0  0  0  0  0  0
   20.6070   -7.9211  -15.4450 C   0  0  0  0  0  0  0  0  0  0  0  0
   20.4106   -8.5406  -14.3540 O   0  0  0  0  0  0  0  0  0  0  0  0
   21.5295   -6.8505  -15.5098 N   0  0  0  0  0  0  0  0  0  0  0  0
   22.2323   -6.4528  -14.3021 C   0  0  1  0  0  0  0  0  0  0  0  0
   23.6845   -6.8401  -14.5103 C   0  0  0  0  0  0  0  0  0  0  0  0
   24.2686   -6.3395  -15.7546 C   0  0  0  0  0  0  0  0  0  0  0  0
   24.2564   -7.1218  -16.8768 C   0  0  0  0  0  0  0  0  0  0  0  0
   24.8052   -6.6342  -18.0436 C   0  0  0  0  0  0  0  0  0  0  0  0
   25.3524   -5.3763  -18.0579 C   0  0  0  0  0  0  0  0  0  0  0  0
   25.3600   -4.5960  -16.9221 C   0  0  0  0  0  0  0  0  0  0  0  0
   24.8243   -5.0565  -15.7606 C   0  0  0  0  0  0  0  0  0  0  0  0
   22.1086   -5.0003  -14.1358 C   0  0  0  0  0  0  0  0  0  0  0  0
   21.5608   -4.2873  -15.0169 O   0  0  0  0  0  0  0  0  0  0  0  0
   22.5801   -4.3312  -13.0127 O   0  0  0  0  0  0  0  0  0  0  0  0
  1  2  1  0
  2  4  1  0
  2  3  2  0
  4  5  1  0
  6  8  1  0
  6  5  1  0
  6  7  1  6
  8 13  1  0
  9  8  2  0
 10 11  1  0
 12 11  1  1
 12 14  1  0
 13 12  1  0
 14 16  1  0
 14 15  2  0
 16 17  1  0
 17 25  1  0
 18 19  1  0
 17 18  1  6
 19 20  2  0
 19 24  1  0
 20 21  1  0
 21 22  2  0
 23 22  1  0
 24 23  2  0
 25 26  2  0
 25 27  1  0
M  END
$$$$
