TFM.pdb
     RDKit          3D

 27 27  0  0  1  0  0  0  0  0999 V2000
    8.9041  -19.1878   18.9376 C   0  0  0  0  0  0  0  0  0  0  0  0
    9.0712  -18.4061   20.2155 C   0  0  1  0  0  0  0  0  0  0  0  0
   10.3160  -18.8323   20.7427 O   0  0  0  0  0  0  0  0  0  0  0  0
    9.1146  -16.9109   19.9667 C   0  0  2  0  0  0  0  0  0  0  0  0
   10.3730  -16.6917   19.2368 N   0  0  0  0  0  0  0  0  0  0  0  0
    9.2616  -16.1864   21.2551 C   0  0  0  0  0  0  0  0  0  0  0  0
   10.4101  -16.0858   21.8171 O   0  0  0  0  0  0  0  0  0  0  0  0
    8.2022  -15.5649   21.9549 N   0  0  0  0  0  0  0  0  0  0  0  0
    8.3781  -14.8795   23.2355 C   0  0  1  0  0  0  0  0  0  0  0  0
    7.2108  -13.9749   23.4838 C   0  0  0  0  0  0  0  0  0  0  0  0
    7.1960  -13.2956   24.7666 C   0  0  0  0  0  0  0  0  0  0  0  0
    6.4702  -13.7841   25.8218 C   0  0  0  0  0  0  0  0  0  0  0  0
    6.4482  -13.1444   27.0425 C   0  0  0  0  0  0  0  0  0  0  0  0
    7.1583  -11.9821   27.2531 C   0  0  0  0  0  0  0  0  0  0  0  0
    7.8927  -11.4792   26.2010 C   0  0  0  0  0  0  0  0  0  0  0  0
    7.9056  -12.1401   24.9663 C   0  0  0  0  0  0  0  0  0  0  0  0
    8.7142  -15.7983   24.3182 C   0  0  0  0  0  0  0  0  0  0  0  0
    8.0714  -16.8737   24.5534 O   0  0  0  0  0  0  0  0  0  0  0  0
   13.9109  -19.1256   24.6787 C   0  0  0  0  0  0  0  0  0  0  0  0
   13.9699  -18.3020   26.2923 S   0  0  0  0  0  0  0  0  0  0  0  0
   12.2586  -17.9100   26.8310 C   0  0  0  0  0  0  0  0  0  0  0  0
   11.7034  -16.8821   25.9005 C   0  0  0  0  0  0  0  0  0  0  0  0
   10.2494  -16.5192   26.1800 C   0  0  2  0  0  0  0  0  0  0  0  0
    9.8083  -15.5435   25.1958 N   0  0  0  0  0  0  0  0  0  0  0  0
   10.0077  -16.0847   27.5580 C   0  0  0  0  0  0  0  0  0  0  0  0
    9.6353  -16.9174   28.5902 O   0  0  0  0  0  0  0  0  0  0  0  0
   10.1597  -14.8352   27.7941 O   0  0  0  0  0  0  0  0  0  0  0  0
  2  1  1  6
  2  3  1  0
  4  2  1  0
  4  6  1  0
  4  5  1  6
  6  7  2  0
  8  9  1  0
  8  6  1  0
  9 17  1  0
  9 10  1  1
 11 10  1  0
 11 16  2  0
 12 11  1  0
 13 12  2  0
 13 14  1  0
 14 15  2  0
 15 16  1  0
 17 18  2  0
 20 19  1  0
 20 21  1  0
 21 22  1  0
 23 22  1  1
 23 25  1  0
 24 17  1  0
 24 23  1  0
 25 27  2  0
 25 26  1  0
M  END
$$$$
