TFM.pdb
     RDKit          3D

 27 27  0  0  1  0  0  0  0  0999 V2000
   10.5756  -20.0003   21.8588 C   0  0  0  0  0  0  0  0  0  0  0  0
   10.9285  -19.2512   20.5993 C   0  0  1  0  0  0  0  0  0  0  0  0
   11.0773  -20.2543   19.6089 O   0  0  0  0  0  0  0  0  0  0  0  0
    9.8322  -18.2901   20.1825 C   0  0  2  0  0  0  0  0  0  0  0  0
   10.3022  -17.7185   18.9110 N   0  0  0  0  0  0  0  0  0  0  0  0
    9.7638  -17.1541   21.1371 C   0  0  0  0  0  0  0  0  0  0  0  0
   10.7872  -16.4059   21.3318 O   0  0  0  0  0  0  0  0  0  0  0  0
    8.6193  -16.8010   21.8880 N   0  0  0  0  0  0  0  0  0  0  0  0
    8.5899  -15.6813   22.8293 C   0  0  1  0  0  0  0  0  0  0  0  0
    7.1986  -15.5047   23.3541 C   0  0  0  0  0  0  0  0  0  0  0  0
    7.0258  -14.4717   24.3593 C   0  0  0  0  0  0  0  0  0  0  0  0
    7.5058  -13.2026   24.1647 C   0  0  0  0  0  0  0  0  0  0  0  0
    7.3487  -12.2163   25.1145 C   0  0  0  0  0  0  0  0  0  0  0  0
    6.6994  -12.4667   26.3042 C   0  0  0  0  0  0  0  0  0  0  0  0
    6.2114  -13.7384   26.5136 C   0  0  0  0  0  0  0  0  0  0  0  0
    6.3786  -14.7305   25.5394 C   0  0  0  0  0  0  0  0  0  0  0  0
    9.6439  -15.7700   23.8345 C   0  0  0  0  0  0  0  0  0  0  0  0
   10.5418  -14.8790   23.9928 O   0  0  0  0  0  0  0  0  0  0  0  0
   10.5067  -12.8310   29.3489 C   0  0  0  0  0  0  0  0  0  0  0  0
    9.4853  -14.3130   29.1354 S   0  0  0  0  0  0  0  0  0  0  0  0
   10.4373  -15.5698   28.1939 C   0  0  0  0  0  0  0  0  0  0  0  0
    9.7648  -15.7693   26.8754 C   0  0  0  0  0  0  0  0  0  0  0  0
   10.4459  -16.8036   25.9866 C   0  0  2  0  0  0  0  0  0  0  0  0
    9.7327  -16.8824   24.7215 N   0  0  0  0  0  0  0  0  0  0  0  0
   10.6110  -18.1104   26.6276 C   0  0  0  0  0  0  0  0  0  0  0  0
   11.5582  -18.4019   27.5843 O   0  0  0  0  0  0  0  0  0  0  0  0
    9.8043  -19.0321   26.2536 O   0  0  0  0  0  0  0  0  0  0  0  0
  2  1  1  1
  2  3  1  0
  4  2  1  0
  4  6  1  0
  4  5  1  6
  6  7  2  0
  8  9  1  0
  8  6  1  0
  9 17  1  0
  9 10  1  1
 11 10  1  0
 11 16  2  0
 12 11  1  0
 13 12  2  0
 13 14  1  0
 14 15  2  0
 15 16  1  0
 17 18  2  0
 20 19  1  0
 20 21  1  0
 21 22  1  0
 23 22  1  1
 23 25  1  0
 24 17  1  0
 24 23  1  0
 25 27  2  0
 25 26  1  0
M  END
$$$$
