TFM.pdb
     RDKit          3D

 27 27  0  0  1  0  0  0  0  0999 V2000
    9.8485  -20.0030   18.7628 C   0  0  0  0  0  0  0  0  0  0  0  0
    9.8993  -19.0717   19.9471 C   0  0  1  0  0  0  0  0  0  0  0  0
   11.1552  -19.3231   20.5542 O   0  0  0  0  0  0  0  0  0  0  0  0
    9.8234  -17.6158   19.5300 C   0  0  2  0  0  0  0  0  0  0  0  0
   11.0963  -17.3603   18.8381 N   0  0  0  0  0  0  0  0  0  0  0  0
    9.8328  -16.7428   20.7317 C   0  0  0  0  0  0  0  0  0  0  0  0
   10.9395  -16.3001   21.2052 O   0  0  0  0  0  0  0  0  0  0  0  0
    8.6790  -16.3321   21.4377 N   0  0  0  0  0  0  0  0  0  0  0  0
    8.7273  -15.5125   22.6487 C   0  0  1  0  0  0  0  0  0  0  0  0
    7.4156  -14.8143   22.8336 C   0  0  0  0  0  0  0  0  0  0  0  0
    7.3031  -13.9770   24.0141 C   0  0  0  0  0  0  0  0  0  0  0  0
    7.6782  -12.6588   23.9896 C   0  0  0  0  0  0  0  0  0  0  0  0
    7.5773  -11.8572   25.1062 C   0  0  0  0  0  0  0  0  0  0  0  0
    7.0930  -12.3503   26.2986 C   0  0  0  0  0  0  0  0  0  0  0  0
    6.7120  -13.6741   26.3381 C   0  0  0  0  0  0  0  0  0  0  0  0
    6.8202  -14.4767   25.1955 C   0  0  0  0  0  0  0  0  0  0  0  0
    9.2236  -16.2532   23.8039 C   0  0  0  0  0  0  0  0  0  0  0  0
    9.0379  -17.5033   23.9709 O   0  0  0  0  0  0  0  0  0  0  0  0
    9.2720  -13.8835   30.1952 C   0  0  0  0  0  0  0  0  0  0  0  0
    9.9849  -13.8360   28.5295 S   0  0  0  0  0  0  0  0  0  0  0  0
   10.8444  -15.4243   28.1969 C   0  0  0  0  0  0  0  0  0  0  0  0
   11.3707  -15.3833   26.7998 C   0  0  0  0  0  0  0  0  0  0  0  0
   10.6833  -16.3610   25.8535 C   0  0  2  0  0  0  0  0  0  0  0  0
    9.9650  -15.6087   24.8369 N   0  0  0  0  0  0  0  0  0  0  0  0
    9.8374  -17.3424   26.5371 C   0  0  0  0  0  0  0  0  0  0  0  0
   10.2926  -18.5129   27.1031 O   0  0  0  0  0  0  0  0  0  0  0  0
    8.5877  -17.0696   26.5988 O   0  0  0  0  0  0  0  0  0  0  0  0
  2  1  1  6
  2  3  1  0
  4  2  1  0
  4  6  1  0
  4  5  1  6
  6  7  2  0
  8  9  1  0
  8  6  1  0
  9 17  1  0
  9 10  1  1
 11 10  1  0
 11 16  2  0
 12 11  1  0
 13 12  2  0
 13 14  1  0
 14 15  2  0
 15 16  1  0
 17 18  2  0
 20 19  1  0
 20 21  1  0
 21 22  1  0
 23 22  1  1
 23 25  1  0
 24 17  1  0
 24 23  1  0
 25 27  2  0
 25 26  1  0
M  END
$$$$
