TFM.pdb
     RDKit          3D

 27 27  0  0  1  0  0  0  0  0999 V2000
   10.7903  -19.8844   21.3529 C   0  0  0  0  0  0  0  0  0  0  0  0
   11.1046  -18.9598   20.2046 C   0  0  1  0  0  0  0  0  0  0  0  0
   11.3072  -19.8156   19.0931 O   0  0  0  0  0  0  0  0  0  0  0  0
    9.9596  -18.0109   19.9081 C   0  0  2  0  0  0  0  0  0  0  0  0
   10.3571  -17.3240   18.6694 N   0  0  0  0  0  0  0  0  0  0  0  0
    9.8913  -16.9566   20.9523 C   0  0  0  0  0  0  0  0  0  0  0  0
   10.9488  -16.3239   21.3077 O   0  0  0  0  0  0  0  0  0  0  0  0
    8.7112  -16.5641   21.6243 N   0  0  0  0  0  0  0  0  0  0  0  0
    8.6841  -15.5402   22.6691 C   0  0  1  0  0  0  0  0  0  0  0  0
    7.2824  -15.3702   23.1675 C   0  0  0  0  0  0  0  0  0  0  0  0
    7.0986  -14.3910   24.2234 C   0  0  0  0  0  0  0  0  0  0  0  0
    6.5094  -14.7304   25.4136 C   0  0  0  0  0  0  0  0  0  0  0  0
    6.3285  -13.8068   26.4205 C   0  0  0  0  0  0  0  0  0  0  0  0
    6.7346  -12.4982   26.2714 C   0  0  0  0  0  0  0  0  0  0  0  0
    7.3286  -12.1425   25.0798 C   0  0  0  0  0  0  0  0  0  0  0  0
    7.5058  -13.0918   24.0655 C   0  0  0  0  0  0  0  0  0  0  0  0
    9.7020  -15.7597   23.6914 C   0  0  0  0  0  0  0  0  0  0  0  0
   10.7163  -15.0036   23.8481 O   0  0  0  0  0  0  0  0  0  0  0  0
   11.4371  -13.5031   30.0331 C   0  0  0  0  0  0  0  0  0  0  0  0
   10.6952  -13.6802   28.3889 S   0  0  0  0  0  0  0  0  0  0  0  0
   10.5307  -15.4656   27.9917 C   0  0  0  0  0  0  0  0  0  0  0  0
    9.8979  -15.5847   26.6441 C   0  0  0  0  0  0  0  0  0  0  0  0
   10.2979  -16.8445   25.8848 C   0  0  2  0  0  0  0  0  0  0  0  0
    9.6193  -16.8563   24.5984 N   0  0  0  0  0  0  0  0  0  0  0  0
   10.0920  -18.0788   26.6466 C   0  0  0  0  0  0  0  0  0  0  0  0
   10.9342  -18.5427   27.6329 O   0  0  0  0  0  0  0  0  0  0  0  0
    9.0462  -18.7580   26.3550 O   0  0  0  0  0  0  0  0  0  0  0  0
  2  1  1  1
  2  3  1  0
  4  2  1  0
  4  6  1  0
  4  5  1  6
  6  7  2  0
  8  9  1  0
  8  6  1  0
  9 17  1  0
  9 10  1  1
 11 10  1  0
 11 16  2  0
 12 11  1  0
 13 12  2  0
 13 14  1  0
 14 15  2  0
 15 16  1  0
 17 18  2  0
 20 19  1  0
 20 21  1  0
 21 22  1  0
 23 22  1  1
 23 25  1  0
 24 17  1  0
 24 23  1  0
 25 27  2  0
 25 26  1  0
M  END
$$$$
