TFM.pdb
     RDKit          3D

 27 27  0  0  1  0  0  0  0  0999 V2000
   10.2792  -20.1033   21.4851 C   0  0  0  0  0  0  0  0  0  0  0  0
   11.0073  -19.2249   20.4999 C   0  0  1  0  0  0  0  0  0  0  0  0
   11.2454  -20.0569   19.3772 O   0  0  0  0  0  0  0  0  0  0  0  0
   10.1726  -18.0323   20.0754 C   0  0  2  0  0  0  0  0  0  0  0  0
   11.0148  -17.3152   19.1055 N   0  0  0  0  0  0  0  0  0  0  0  0
    9.9943  -17.1044   21.2216 C   0  0  0  0  0  0  0  0  0  0  0  0
   10.9921  -16.4465   21.6869 O   0  0  0  0  0  0  0  0  0  0  0  0
    8.7666  -16.8649   21.8803 N   0  0  0  0  0  0  0  0  0  0  0  0
    8.6483  -16.0439   23.0855 C   0  0  1  0  0  0  0  0  0  0  0  0
    7.3193  -15.3539   23.0930 C   0  0  0  0  0  0  0  0  0  0  0  0
    7.0606  -14.4871   24.2284 C   0  0  0  0  0  0  0  0  0  0  0  0
    6.3659  -14.9354   25.3217 C   0  0  0  0  0  0  0  0  0  0  0  0
    6.1134  -14.1188   26.4030 C   0  0  0  0  0  0  0  0  0  0  0  0
    6.5511  -12.8121   26.4293 C   0  0  0  0  0  0  0  0  0  0  0  0
    7.2509  -12.3477   25.3368 C   0  0  0  0  0  0  0  0  0  0  0  0
    7.5000  -13.1890   24.2452 C   0  0  0  0  0  0  0  0  0  0  0  0
    8.9910  -16.7804   24.2978 C   0  0  0  0  0  0  0  0  0  0  0  0
    8.6948  -18.0062   24.4837 O   0  0  0  0  0  0  0  0  0  0  0  0
   10.3806  -13.8791   29.5578 C   0  0  0  0  0  0  0  0  0  0  0  0
   10.8029  -13.2968   27.8941 S   0  0  0  0  0  0  0  0  0  0  0  0
   11.4106  -14.7137   26.8964 C   0  0  0  0  0  0  0  0  0  0  0  0
   10.8590  -15.9687   27.4890 C   0  0  0  0  0  0  0  0  0  0  0  0
   10.2719  -16.9292   26.4612 C   0  0  2  0  0  0  0  0  0  0  0  0
    9.6962  -16.1593   25.3698 N   0  0  0  0  0  0  0  0  0  0  0  0
    9.3309  -17.8960   27.0321 C   0  0  0  0  0  0  0  0  0  0  0  0
    7.9860  -17.9499   26.7396 O   0  0  0  0  0  0  0  0  0  0  0  0
    9.8188  -18.7412   27.8614 O   0  0  0  0  0  0  0  0  0  0  0  0
  2  1  1  1
  2  3  1  0
  4  2  1  0
  4  6  1  0
  4  5  1  6
  6  7  2  0
  8  9  1  0
  8  6  1  0
  9 17  1  0
  9 10  1  1
 11 10  1  0
 11 16  2  0
 12 11  1  0
 13 12  2  0
 13 14  1  0
 14 15  2  0
 15 16  1  0
 17 18  2  0
 20 19  1  0
 20 21  1  0
 21 22  1  0
 23 22  1  1
 23 25  1  0
 24 17  1  0
 24 23  1  0
 25 27  2  0
 25 26  1  0
M  END
$$$$
