NTH.pdb
     RDKit          3D

 26 26  0  0  1  0  0  0  0  0999 V2000
   16.6252  -13.1692  -16.6929 N   0  0  0  0  0  0  0  0  0  0  0  0
   17.1213  -13.3856  -15.3788 C   0  0  0  0  0  0  0  0  0  0  0  0
   16.6212  -14.2669  -14.6451 O   0  0  0  0  0  0  0  0  0  0  0  0
   18.2400  -12.5746  -14.8471 C   0  0  0  0  0  0  0  0  0  0  0  0
   18.7544  -11.5621  -15.8135 C   0  0  2  0  0  0  0  0  0  0  0  0
   19.3898  -12.1895  -16.9407 N   0  0  0  0  0  0  0  0  0  0  0  0
   19.6339  -10.5491  -15.2284 C   0  0  0  0  0  0  0  0  0  0  0  0
   19.3233  -10.0429  -14.1043 O   0  0  0  0  0  0  0  0  0  0  0  0
   23.5612  -10.6139  -15.1314 C   0  0  0  0  0  0  0  0  0  0  0  0
   23.0599   -9.3149  -15.6783 C   0  0  1  0  0  0  0  0  0  0  0  0
   23.1550   -9.2127  -17.0547 O   0  0  0  0  0  0  0  0  0  0  0  0
   21.6451   -8.9962  -15.2246 C   0  0  2  0  0  0  0  0  0  0  0  0
   20.8255  -10.0622  -15.7995 N   0  0  0  0  0  0  0  0  0  0  0  0
   21.1783   -7.6650  -15.6230 C   0  0  0  0  0  0  0  0  0  0  0  0
   20.5218   -7.4480  -16.6886 O   0  0  0  0  0  0  0  0  0  0  0  0
   21.4420   -6.5251  -14.8198 N   0  0  0  0  0  0  0  0  0  0  0  0
   21.0247   -5.1801  -15.2265 C   0  0  1  0  0  0  0  0  0  0  0  0
   19.8713   -4.7509  -14.3819 C   0  0  0  0  0  0  0  0  0  0  0  0
   19.4317   -3.3842  -14.6854 C   0  0  0  0  0  0  0  0  0  0  0  0
   19.9190   -2.1885  -14.1907 C   0  0  0  0  0  0  0  0  0  0  0  0
   19.2171   -1.1836  -14.7392 N   0  0  0  0  0  0  0  0  0  0  0  0
   18.3080   -1.7359  -15.5612 C   0  0  0  0  0  0  0  0  0  0  0  0
   18.4319   -3.0646  -15.5337 N   0  0  0  0  0  0  0  0  0  0  0  0
   22.1627   -4.2524  -15.2456 C   0  0  0  0  0  0  0  0  0  0  0  0
   22.2144   -3.1511  -16.0600 O   0  0  0  0  0  0  0  0  0  0  0  0
   23.1348   -4.4814  -14.4777 O   0  0  0  0  0  0  0  0  0  0  0  0
  1  2  1  0
  2  3  2  0
  4  5  1  0
  4  2  1  0
  5  7  1  0
  5  6  1  6
  7  8  2  0
 10  9  1  6
 10 12  1  0
 11 10  1  0
 12 14  1  0
 13  7  1  0
 12 13  1  6
 14 15  2  0
 16 17  1  0
 16 14  1  0
 17 24  1  0
 18 19  1  0
 17 18  1  1
 19 23  1  0
 20 19  2  0
 20 21  1  0
 21 22  1  0
 23 22  2  0
 24 25  1  0
 26 24  2  0
M  END
$$$$
