NTH.pdb
     RDKit          3D

 26 26  0  0  1  0  0  0  0  0999 V2000
   17.3857  -12.4490  -17.9595 N   0  0  0  0  0  0  0  0  0  0  0  0
   16.9636  -11.8144  -16.7599 C   0  0  0  0  0  0  0  0  0  0  0  0
   15.7638  -11.8501  -16.4073 O   0  0  0  0  0  0  0  0  0  0  0  0
   17.9319  -11.0971  -15.8999 C   0  0  0  0  0  0  0  0  0  0  0  0
   19.3274  -11.1205  -16.4251 C   0  0  2  0  0  0  0  0  0  0  0  0
   19.8732  -12.4508  -16.4024 N   0  0  0  0  0  0  0  0  0  0  0  0
   20.2419  -10.1808  -15.7749 C   0  0  0  0  0  0  0  0  0  0  0  0
   20.5698  -10.3832  -14.5634 O   0  0  0  0  0  0  0  0  0  0  0  0
   23.6706   -9.4051  -16.6800 C   0  0  0  0  0  0  0  0  0  0  0  0
   22.9602   -8.0906  -16.6086 C   0  0  1  0  0  0  0  0  0  0  0  0
   22.6172   -7.5715  -17.8443 O   0  0  0  0  0  0  0  0  0  0  0  0
   21.7428   -8.1320  -15.7001 C   0  0  2  0  0  0  0  0  0  0  0  0
   20.8138   -9.0404  -16.3711 N   0  0  0  0  0  0  0  0  0  0  0  0
   21.1444   -6.8180  -15.4471 C   0  0  0  0  0  0  0  0  0  0  0  0
   20.0373   -6.4494  -15.9491 O   0  0  0  0  0  0  0  0  0  0  0  0
   21.7862   -5.8694  -14.6091 N   0  0  0  0  0  0  0  0  0  0  0  0
   21.1604   -4.5873  -14.2727 C   0  0  1  0  0  0  0  0  0  0  0  0
   19.8171   -4.8423  -13.6740 C   0  0  0  0  0  0  0  0  0  0  0  0
   18.7227   -4.3723  -14.5311 C   0  0  0  0  0  0  0  0  0  0  0  0
   18.7947   -3.7574  -15.7674 C   0  0  0  0  0  0  0  0  0  0  0  0
   17.5457   -3.4963  -16.1861 N   0  0  0  0  0  0  0  0  0  0  0  0
   16.7065   -3.9378  -15.2332 C   0  0  0  0  0  0  0  0  0  0  0  0
   17.4105   -4.4680  -14.2307 N   0  0  0  0  0  0  0  0  0  0  0  0
   22.0566   -3.7538  -13.4614 C   0  0  0  0  0  0  0  0  0  0  0  0
   22.0077   -2.3839  -13.4637 O   0  0  0  0  0  0  0  0  0  0  0  0
   22.9086   -4.3261  -12.7309 O   0  0  0  0  0  0  0  0  0  0  0  0
  1  2  1  0
  2  3  2  0
  4  5  1  0
  4  2  1  0
  5  7  1  0
  5  6  1  1
  7  8  2  0
 10  9  1  6
 10 12  1  0
 11 10  1  0
 12 14  1  0
 13  7  1  0
 12 13  1  6
 14 15  2  0
 16 17  1  0
 16 14  1  0
 17 24  1  0
 18 19  1  0
 17 18  1  1
 19 23  1  0
 20 19  2  0
 20 21  1  0
 21 22  1  0
 23 22  2  0
 24 25  1  0
 26 24  2  0
M  END
$$$$
