NTH.pdb
     RDKit          3D

 26 26  0  0  1  0  0  0  0  0999 V2000
   14.3574  -14.3834  -14.0519 N   0  0  0  0  0  0  0  0  0  0  0  0
   15.0668  -13.7885  -15.1302 C   0  0  0  0  0  0  0  0  0  0  0  0
   14.5932  -13.7983  -16.2881 O   0  0  0  0  0  0  0  0  0  0  0  0
   16.3812  -13.1438  -14.9098 C   0  0  0  0  0  0  0  0  0  0  0  0
   17.4243  -13.5670  -15.8879 C   0  0  2  0  0  0  0  0  0  0  0  0
   17.6944  -14.9760  -15.7888 N   0  0  0  0  0  0  0  0  0  0  0  0
   18.6700  -12.8013  -15.8238 C   0  0  0  0  0  0  0  0  0  0  0  0
   19.5128  -13.0766  -14.9127 O   0  0  0  0  0  0  0  0  0  0  0  0
   21.2813  -12.6820  -18.3281 C   0  0  0  0  0  0  0  0  0  0  0  0
   20.9086  -11.2604  -18.0494 C   0  0  1  0  0  0  0  0  0  0  0  0
   20.0654  -10.7065  -18.9962 O   0  0  0  0  0  0  0  0  0  0  0  0
   20.3319  -11.0689  -16.6566 C   0  0  2  0  0  0  0  0  0  0  0  0
   19.0430  -11.7589  -16.6941 N   0  0  0  0  0  0  0  0  0  0  0  0
   20.1954   -9.6652  -16.2570 C   0  0  0  0  0  0  0  0  0  0  0  0
   19.1036   -9.0213  -16.3398 O   0  0  0  0  0  0  0  0  0  0  0  0
   21.3014   -8.9380  -15.7453 N   0  0  0  0  0  0  0  0  0  0  0  0
   21.2306   -7.4944  -15.5011 C   0  0  1  0  0  0  0  0  0  0  0  0
   22.4358   -7.0706  -14.7292 C   0  0  0  0  0  0  0  0  0  0  0  0
   22.4380   -5.6324  -14.4377 C   0  0  0  0  0  0  0  0  0  0  0  0
   21.5934   -4.9160  -13.6099 C   0  0  0  0  0  0  0  0  0  0  0  0
   21.9580   -3.6240  -13.6456 N   0  0  0  0  0  0  0  0  0  0  0  0
   23.0095   -3.5304  -14.4780 C   0  0  0  0  0  0  0  0  0  0  0  0
   23.3048   -4.7395  -14.9600 N   0  0  0  0  0  0  0  0  0  0  0  0
   20.9965   -6.7542  -16.7474 C   0  0  0  0  0  0  0  0  0  0  0  0
   20.1532   -5.6766  -16.8285 O   0  0  0  0  0  0  0  0  0  0  0  0
   21.5989   -7.1287  -17.7885 O   0  0  0  0  0  0  0  0  0  0  0  0
  1  2  1  0
  2  3  2  0
  4  5  1  0
  4  2  1  0
  5  7  1  0
  5  6  1  1
  7  8  2  0
 10  9  1  6
 10 12  1  0
 11 10  1  0
 12 14  1  0
 13  7  1  0
 12 13  1  6
 14 15  2  0
 16 17  1  0
 16 14  1  0
 17 24  1  0
 18 19  1  0
 17 18  1  6
 19 23  1  0
 20 19  2  0
 20 21  1  0
 21 22  1  0
 23 22  2  0
 24 25  1  0
 26 24  2  0
M  END
$$$$
