NTH.pdb
     RDKit          3D

 26 26  0  0  1  0  0  0  0  0999 V2000
   29.8342  -20.5607  -19.7299 N   0  0  0  0  0  0  0  0  0  0  0  0
   28.5510  -19.9543  -19.8035 C   0  0  0  0  0  0  0  0  0  0  0  0
   28.0579  -19.6364  -20.9085 O   0  0  0  0  0  0  0  0  0  0  0  0
   27.7680  -19.6843  -18.5764 C   0  0  0  0  0  0  0  0  0  0  0  0
   27.3847  -18.2521  -18.4167 C   0  0  2  0  0  0  0  0  0  0  0  0
   28.5433  -17.4134  -18.2675 N   0  0  0  0  0  0  0  0  0  0  0  0
   26.4228  -17.9918  -17.3448 C   0  0  0  0  0  0  0  0  0  0  0  0
   26.7262  -18.3221  -16.1551 O   0  0  0  0  0  0  0  0  0  0  0  0
   25.2488  -14.9250  -15.9189 C   0  0  0  0  0  0  0  0  0  0  0  0
   24.0261  -15.6499  -16.3850 C   0  0  1  0  0  0  0  0  0  0  0  0
   23.5445  -15.2091  -17.6048 O   0  0  0  0  0  0  0  0  0  0  0  0
   24.2129  -17.1577  -16.4081 C   0  0  2  0  0  0  0  0  0  0  0  0
   25.1568  -17.3948  -17.4996 N   0  0  0  0  0  0  0  0  0  0  0  0
   22.9665  -17.9090  -16.5830 C   0  0  0  0  0  0  0  0  0  0  0  0
   22.5096  -18.2438  -17.7200 O   0  0  0  0  0  0  0  0  0  0  0  0
   22.1894  -18.3099  -15.4653 N   0  0  0  0  0  0  0  0  0  0  0  0
   20.9378  -19.0567  -15.6223 C   0  0  1  0  0  0  0  0  0  0  0  0
   20.4789  -19.5268  -14.2820 C   0  0  0  0  0  0  0  0  0  0  0  0
   19.1878  -20.2215  -14.3431 C   0  0  0  0  0  0  0  0  0  0  0  0
   18.3871  -20.4644  -15.4439 C   0  0  0  0  0  0  0  0  0  0  0  0
   17.2939  -21.1295  -15.0362 N   0  0  0  0  0  0  0  0  0  0  0  0
   17.4052  -21.3010  -13.7076 C   0  0  0  0  0  0  0  0  0  0  0  0
   18.5466  -20.7551  -13.2823 N   0  0  0  0  0  0  0  0  0  0  0  0
   19.9486  -18.2842  -16.3843 C   0  0  0  0  0  0  0  0  0  0  0  0
   19.0692  -18.8596  -17.2644 O   0  0  0  0  0  0  0  0  0  0  0  0
   19.9085  -17.0358  -16.2204 O   0  0  0  0  0  0  0  0  0  0  0  0
  1  2  1  0
  2  3  2  0
  4  5  1  0
  4  2  1  0
  5  7  1  0
  5  6  1  1
  7  8  2  0
 10  9  1  6
 10 12  1  0
 11 10  1  0
 12 14  1  0
 13  7  1  0
 12 13  1  6
 14 15  2  0
 16 17  1  0
 16 14  1  0
 17 24  1  0
 18 19  1  0
 17 18  1  1
 19 23  1  0
 20 19  2  0
 20 21  1  0
 21 22  1  0
 23 22  2  0
 24 25  1  0
 26 24  2  0
M  END
$$$$
