NTH.pdb
     RDKit          3D

 26 26  0  0  1  0  0  0  0  0999 V2000
   18.9937  -13.6917  -16.9488 N   0  0  0  0  0  0  0  0  0  0  0  0
   18.4442  -14.7759  -16.2123 C   0  0  0  0  0  0  0  0  0  0  0  0
   17.9398  -14.5894  -15.0827 O   0  0  0  0  0  0  0  0  0  0  0  0
   18.4554  -16.1502  -16.7630 C   0  0  0  0  0  0  0  0  0  0  0  0
   19.1044  -16.2507  -18.1018 C   0  0  2  0  0  0  0  0  0  0  0  0
   18.1766  -16.7090  -19.1005 N   0  0  0  0  0  0  0  0  0  0  0  0
   20.3265  -17.0555  -18.1306 C   0  0  0  0  0  0  0  0  0  0  0  0
   20.6183  -17.6893  -19.1934 O   0  0  0  0  0  0  0  0  0  0  0  0
   23.1282  -16.4778  -15.2031 C   0  0  0  0  0  0  0  0  0  0  0  0
   23.5311  -16.9578  -16.5613 C   0  0  1  0  0  0  0  0  0  0  0  0
   24.7974  -17.5136  -16.6061 O   0  0  0  0  0  0  0  0  0  0  0  0
   22.5170  -17.9122  -17.1693 C   0  0  2  0  0  0  0  0  0  0  0  0
   21.2408  -17.2050  -17.0701 N   0  0  0  0  0  0  0  0  0  0  0  0
   22.4724  -19.2257  -16.5200 C   0  0  0  0  0  0  0  0  0  0  0  0
   23.3900  -20.0951  -16.6452 O   0  0  0  0  0  0  0  0  0  0  0  0
   21.3769  -19.6009  -15.6996 N   0  0  0  0  0  0  0  0  0  0  0  0
   21.3394  -20.8899  -15.0027 C   0  0  1  0  0  0  0  0  0  0  0  0
   22.5736  -21.0335  -14.1757 C   0  0  0  0  0  0  0  0  0  0  0  0
   23.5694  -21.9109  -14.8018 C   0  0  0  0  0  0  0  0  0  0  0  0
   23.5134  -22.5463  -16.0286 C   0  0  0  0  0  0  0  0  0  0  0  0
   24.6441  -23.2516  -16.1943 N   0  0  0  0  0  0  0  0  0  0  0  0
   25.3948  -23.0634  -15.0952 C   0  0  0  0  0  0  0  0  0  0  0  0
   24.7519  -22.2548  -14.2499 N   0  0  0  0  0  0  0  0  0  0  0  0
   20.0768  -21.0648  -14.2739 C   0  0  0  0  0  0  0  0  0  0  0  0
   19.1703  -20.0519  -14.0971 O   0  0  0  0  0  0  0  0  0  0  0  0
   19.8170  -22.1984  -13.7896 O   0  0  0  0  0  0  0  0  0  0  0  0
  1  2  1  0
  2  3  2  0
  4  5  1  0
  4  2  1  0
  5  7  1  0
  5  6  1  6
  7  8  2  0
 10  9  1  1
 10 12  1  0
 11 10  1  0
 12 14  1  0
 13  7  1  0
 12 13  1  1
 14 15  2  0
 16 17  1  0
 16 14  1  0
 17 24  1  0
 18 19  1  0
 17 18  1  1
 19 23  1  0
 20 19  2  0
 20 21  1  0
 21 22  1  0
 23 22  2  0
 24 25  1  0
 26 24  2  0
M  END
$$$$
