NTH.pdb
     RDKit          3D

 26 26  0  0  1  0  0  0  0  0999 V2000
   15.4931  -16.0795  -15.1724 N   0  0  0  0  0  0  0  0  0  0  0  0
   16.9033  -16.0294  -15.3414 C   0  0  0  0  0  0  0  0  0  0  0  0
   17.5578  -17.0739  -15.5550 O   0  0  0  0  0  0  0  0  0  0  0  0
   17.6308  -14.7420  -15.2690 C   0  0  0  0  0  0  0  0  0  0  0  0
   16.7395  -13.5643  -15.0628 C   0  0  2  0  0  0  0  0  0  0  0  0
   16.0168  -13.2380  -16.2625 N   0  0  0  0  0  0  0  0  0  0  0  0
   17.4081  -12.3768  -14.5289 C   0  0  0  0  0  0  0  0  0  0  0  0
   18.2361  -12.5165  -13.5743 O   0  0  0  0  0  0  0  0  0  0  0  0
   19.0592   -9.4813  -16.4685 C   0  0  0  0  0  0  0  0  0  0  0  0
   18.0878   -8.9181  -15.4801 C   0  0  1  0  0  0  0  0  0  0  0  0
   16.9046   -8.4777  -16.0461 O   0  0  0  0  0  0  0  0  0  0  0  0
   17.7982   -9.8736  -14.3346 C   0  0  2  0  0  0  0  0  0  0  0  0
   17.2233  -11.0548  -14.9772 N   0  0  0  0  0  0  0  0  0  0  0  0
   16.9133   -9.3186  -13.3062 C   0  0  0  0  0  0  0  0  0  0  0  0
   15.9277   -9.9551  -12.8191 O   0  0  0  0  0  0  0  0  0  0  0  0
   17.1175   -8.0123  -12.7907 N   0  0  0  0  0  0  0  0  0  0  0  0
   16.2152   -7.4242  -11.7964 C   0  0  1  0  0  0  0  0  0  0  0  0
   16.2153   -8.2780  -10.5721 C   0  0  0  0  0  0  0  0  0  0  0  0
   15.3996   -7.7104   -9.4924 C   0  0  0  0  0  0  0  0  0  0  0  0
   14.0266   -7.5579   -9.4337 C   0  0  0  0  0  0  0  0  0  0  0  0
   13.7117   -6.9885   -8.2590 N   0  0  0  0  0  0  0  0  0  0  0  0
   14.8622   -6.7875   -7.5934 C   0  0  0  0  0  0  0  0  0  0  0  0
   15.8856   -7.2210   -8.3324 N   0  0  0  0  0  0  0  0  0  0  0  0
   16.5248   -6.0072  -11.5683 C   0  0  0  0  0  0  0  0  0  0  0  0
   17.8036   -5.5376  -11.4159 O   0  0  0  0  0  0  0  0  0  0  0  0
   15.5699   -5.1875  -11.5101 O   0  0  0  0  0  0  0  0  0  0  0  0
  1  2  1  0
  2  3  2  0
  4  5  1  0
  4  2  1  0
  5  7  1  0
  5  6  1  6
  7  8  2  0
 10  9  1  6
 10 12  1  0
 11 10  1  0
 12 14  1  0
 13  7  1  0
 12 13  1  6
 14 15  2  0
 16 17  1  0
 16 14  1  0
 17 24  1  0
 18 19  1  0
 17 18  1  1
 19 23  1  0
 20 19  2  0
 20 21  1  0
 21 22  1  0
 23 22  2  0
 24 25  1  0
 26 24  2  0
M  END
$$$$
