NTH.pdb
     RDKit          3D

 26 26  0  0  1  0  0  0  0  0999 V2000
   12.6497  -14.3314  -12.7072 N   0  0  0  0  0  0  0  0  0  0  0  0
   12.3069  -13.8469  -11.4159 C   0  0  0  0  0  0  0  0  0  0  0  0
   11.2165  -14.1570  -10.8867 O   0  0  0  0  0  0  0  0  0  0  0  0
   13.2303  -12.9647  -10.6668 C   0  0  0  0  0  0  0  0  0  0  0  0
   14.5061  -12.6875  -11.3874 C   0  0  2  0  0  0  0  0  0  0  0  0
   15.2810  -13.8866  -11.5605 N   0  0  0  0  0  0  0  0  0  0  0  0
   15.3257  -11.6292  -10.7957 C   0  0  0  0  0  0  0  0  0  0  0  0
   15.9070  -11.8513   -9.6870 O   0  0  0  0  0  0  0  0  0  0  0  0
   18.2686  -10.0056  -12.1543 C   0  0  0  0  0  0  0  0  0  0  0  0
   17.3470   -8.8910  -11.7725 C   0  0  1  0  0  0  0  0  0  0  0  0
   16.6977   -8.3083  -12.8463 O   0  0  0  0  0  0  0  0  0  0  0  0
   16.3409   -9.3015  -10.7103 C   0  0  2  0  0  0  0  0  0  0  0  0
   15.5439  -10.3508  -11.3445 N   0  0  0  0  0  0  0  0  0  0  0  0
   15.5104   -8.1978  -10.2193 C   0  0  0  0  0  0  0  0  0  0  0  0
   14.2472   -8.2735  -10.1086 O   0  0  0  0  0  0  0  0  0  0  0  0
   16.0888   -6.9606   -9.8338 N   0  0  0  0  0  0  0  0  0  0  0  0
   15.2842   -5.8754   -9.2650 C   0  0  1  0  0  0  0  0  0  0  0  0
   14.6286   -6.3583   -8.0140 C   0  0  0  0  0  0  0  0  0  0  0  0
   13.9041   -5.2921   -7.3128 C   0  0  0  0  0  0  0  0  0  0  0  0
   13.7149   -3.9773   -7.6966 C   0  0  0  0  0  0  0  0  0  0  0  0
   12.9935   -3.3571   -6.7488 N   0  0  0  0  0  0  0  0  0  0  0  0
   12.7346   -4.2629   -5.7899 C   0  0  0  0  0  0  0  0  0  0  0  0
   13.2816   -5.4337   -6.1239 N   0  0  0  0  0  0  0  0  0  0  0  0
   16.0740   -4.6461   -9.1203 C   0  0  0  0  0  0  0  0  0  0  0  0
   15.5898   -3.4052   -9.4440 O   0  0  0  0  0  0  0  0  0  0  0  0
   17.2502   -4.7386   -8.6788 O   0  0  0  0  0  0  0  0  0  0  0  0
  1  2  1  0
  2  3  2  0
  4  5  1  0
  4  2  1  0
  5  7  1  0
  5  6  1  1
  7  8  2  0
 10  9  1  6
 10 12  1  0
 11 10  1  0
 12 14  1  0
 13  7  1  0
 12 13  1  6
 14 15  2  0
 16 17  1  0
 16 14  1  0
 17 24  1  0
 18 19  1  0
 17 18  1  1
 19 23  1  0
 20 19  2  0
 20 21  1  0
 21 22  1  0
 23 22  2  0
 24 25  1  0
 26 24  2  0
M  END
$$$$
