NTH.pdb
     RDKit          3D

 26 26  0  0  1  0  0  0  0  0999 V2000
   24.4410   -9.9964  -20.7602 N   0  0  0  0  0  0  0  0  0  0  0  0
   25.1799  -10.7127  -19.7800 C   0  0  0  0  0  0  0  0  0  0  0  0
   26.3062  -10.3120  -19.4111 O   0  0  0  0  0  0  0  0  0  0  0  0
   24.6356  -11.9484  -19.1727 C   0  0  0  0  0  0  0  0  0  0  0  0
   25.5518  -13.1199  -19.2819 C   0  0  2  0  0  0  0  0  0  0  0  0
   25.7824  -13.4781  -20.6554 N   0  0  0  0  0  0  0  0  0  0  0  0
   25.1403  -14.2928  -18.5092 C   0  0  0  0  0  0  0  0  0  0  0  0
   24.5254  -15.2337  -19.1034 O   0  0  0  0  0  0  0  0  0  0  0  0
   27.3237  -16.2888  -16.1711 C   0  0  0  0  0  0  0  0  0  0  0  0
   26.0531  -15.9859  -15.4421 C   0  0  1  0  0  0  0  0  0  0  0  0
   26.1802  -14.9986  -14.4813 O   0  0  0  0  0  0  0  0  0  0  0  0
   24.9033  -15.6603  -16.3808 C   0  0  2  0  0  0  0  0  0  0  0  0
   25.3618  -14.4930  -17.1330 N   0  0  0  0  0  0  0  0  0  0  0  0
   23.6301  -15.4120  -15.6981 C   0  0  0  0  0  0  0  0  0  0  0  0
   23.3084  -14.2821  -15.2151 O   0  0  0  0  0  0  0  0  0  0  0  0
   22.6702  -16.4451  -15.5388 N   0  0  0  0  0  0  0  0  0  0  0  0
   21.3682  -16.2000  -14.9118 C   0  0  1  0  0  0  0  0  0  0  0  0
   20.6563  -15.1283  -15.6685 C   0  0  0  0  0  0  0  0  0  0  0  0
   19.3063  -14.8781  -15.1506 C   0  0  0  0  0  0  0  0  0  0  0  0
   18.8306  -13.7701  -14.4740 C   0  0  0  0  0  0  0  0  0  0  0  0
   17.5344  -13.9715  -14.1863 N   0  0  0  0  0  0  0  0  0  0  0  0
   17.2025  -15.1803  -14.6717 C   0  0  0  0  0  0  0  0  0  0  0  0
   18.2677  -15.7336  -15.2553 N   0  0  0  0  0  0  0  0  0  0  0  0
   20.6150  -17.4490  -14.7424 C   0  0  0  0  0  0  0  0  0  0  0  0
   19.5481  -17.5676  -13.8900 O   0  0  0  0  0  0  0  0  0  0  0  0
   20.9676  -18.4563  -15.4118 O   0  0  0  0  0  0  0  0  0  0  0  0
  1  2  1  0
  2  3  2  0
  4  5  1  0
  4  2  1  0
  5  7  1  0
  5  6  1  6
  7  8  2  0
 10  9  1  6
 10 12  1  0
 11 10  1  0
 12 14  1  0
 13  7  1  0
 12 13  1  1
 14 15  2  0
 16 17  1  0
 16 14  1  0
 17 24  1  0
 18 19  1  0
 17 18  1  6
 19 23  1  0
 20 19  2  0
 20 21  1  0
 21 22  1  0
 23 22  2  0
 24 25  1  0
 26 24  2  0
M  END
$$$$
