NTH.pdb
     RDKit          3D

 26 26  0  0  1  0  0  0  0  0999 V2000
   30.2263  -25.1374  -19.3741 N   0  0  0  0  0  0  0  0  0  0  0  0
   31.2542  -24.4083  -18.7173 C   0  0  0  0  0  0  0  0  0  0  0  0
   32.2643  -24.0221  -19.3463 O   0  0  0  0  0  0  0  0  0  0  0  0
   31.1549  -24.0886  -17.2751 C   0  0  0  0  0  0  0  0  0  0  0  0
   29.9840  -24.7222  -16.6033 C   0  0  2  0  0  0  0  0  0  0  0  0
   30.0015  -26.1518  -16.7586 N   0  0  0  0  0  0  0  0  0  0  0  0
   28.6837  -24.1800  -16.9997 C   0  0  0  0  0  0  0  0  0  0  0  0
   28.0327  -24.7619  -17.9238 O   0  0  0  0  0  0  0  0  0  0  0  0
   25.6873  -24.2740  -15.3023 C   0  0  0  0  0  0  0  0  0  0  0  0
   25.8745  -22.8174  -15.5869 C   0  0  1  0  0  0  0  0  0  0  0  0
   26.3613  -22.0947  -14.5122 O   0  0  0  0  0  0  0  0  0  0  0  0
   26.7289  -22.5669  -16.8183 C   0  0  2  0  0  0  0  0  0  0  0  0
   28.0597  -23.0454  -16.4462 N   0  0  0  0  0  0  0  0  0  0  0  0
   26.7472  -21.1677  -17.2550 C   0  0  0  0  0  0  0  0  0  0  0  0
   27.7610  -20.4128  -17.1289 O   0  0  0  0  0  0  0  0  0  0  0  0
   25.6073  -20.5722  -17.8549 N   0  0  0  0  0  0  0  0  0  0  0  0
   25.5980  -19.1661  -18.2690 C   0  0  1  0  0  0  0  0  0  0  0  0
   26.6554  -18.9544  -19.3010 C   0  0  0  0  0  0  0  0  0  0  0  0
   26.6948  -17.5708  -19.7881 C   0  0  0  0  0  0  0  0  0  0  0  0
   27.6176  -16.5803  -19.5068 C   0  0  0  0  0  0  0  0  0  0  0  0
   27.2610  -15.4668  -20.1674 N   0  0  0  0  0  0  0  0  0  0  0  0
   26.1381  -15.7514  -20.8494 C   0  0  0  0  0  0  0  0  0  0  0  0
   25.7904  -17.0203  -20.6250 N   0  0  0  0  0  0  0  0  0  0  0  0
   24.2500  -18.7350  -18.6601 C   0  0  0  0  0  0  0  0  0  0  0  0
   23.9481  -17.4407  -18.9957 O   0  0  0  0  0  0  0  0  0  0  0  0
   23.3304  -19.5956  -18.6874 O   0  0  0  0  0  0  0  0  0  0  0  0
  1  2  1  0
  2  3  2  0
  4  5  1  0
  4  2  1  0
  5  7  1  0
  5  6  1  6
  7  8  2  0
 10  9  1  1
 10 12  1  0
 11 10  1  0
 12 14  1  0
 13  7  1  0
 12 13  1  1
 14 15  2  0
 16 17  1  0
 16 14  1  0
 17 24  1  0
 18 19  1  0
 17 18  1  6
 19 23  1  0
 20 19  2  0
 20 21  1  0
 21 22  1  0
 23 22  2  0
 24 25  1  0
 26 24  2  0
M  END
$$$$
