NTH.pdb
     RDKit          3D

 26 26  0  0  1  0  0  0  0  0999 V2000
   12.5180  -16.4511  -15.5709 N   0  0  0  0  0  0  0  0  0  0  0  0
   12.9743  -15.7524  -14.4206 C   0  0  0  0  0  0  0  0  0  0  0  0
   12.4893  -15.9942  -13.2930 O   0  0  0  0  0  0  0  0  0  0  0  0
   14.0330  -14.7230  -14.5284 C   0  0  0  0  0  0  0  0  0  0  0  0
   14.4566  -14.4482  -15.9315 C   0  0  2  0  0  0  0  0  0  0  0  0
   15.1009  -15.5925  -16.5177 N   0  0  0  0  0  0  0  0  0  0  0  0
   15.2850  -13.2532  -16.0978 C   0  0  0  0  0  0  0  0  0  0  0  0
   16.5450  -13.3569  -15.9628 O   0  0  0  0  0  0  0  0  0  0  0  0
   15.2406  -11.0896  -19.1112 C   0  0  0  0  0  0  0  0  0  0  0  0
   15.1173  -10.1854  -17.9259 C   0  0  1  0  0  0  0  0  0  0  0  0
   13.8323   -9.7222  -17.7061 O   0  0  0  0  0  0  0  0  0  0  0  0
   15.6764  -10.8055  -16.6563 C   0  0  2  0  0  0  0  0  0  0  0  0
   14.8164  -11.9604  -16.4014 N   0  0  0  0  0  0  0  0  0  0  0  0
   15.7201   -9.8868  -15.5149 C   0  0  0  0  0  0  0  0  0  0  0  0
   14.7348   -9.6981  -14.7356 O   0  0  0  0  0  0  0  0  0  0  0  0
   16.8922   -9.1450  -15.2156 N   0  0  0  0  0  0  0  0  0  0  0  0
   16.9701   -8.2606  -14.0491 C   0  0  1  0  0  0  0  0  0  0  0  0
   18.0178   -8.7731  -13.1176 C   0  0  0  0  0  0  0  0  0  0  0  0
   17.6474  -10.0553  -12.5077 C   0  0  0  0  0  0  0  0  0  0  0  0
   16.8922  -10.2878  -11.3730 C   0  0  0  0  0  0  0  0  0  0  0  0
   16.8090  -11.6144  -11.1818 N   0  0  0  0  0  0  0  0  0  0  0  0
   17.4972  -12.2032  -12.1752 C   0  0  0  0  0  0  0  0  0  0  0  0
   18.0063  -11.2677  -12.9796 N   0  0  0  0  0  0  0  0  0  0  0  0
   17.1277   -6.8580  -14.4537 C   0  0  0  0  0  0  0  0  0  0  0  0
   16.9949   -5.8098  -13.5804 O   0  0  0  0  0  0  0  0  0  0  0  0
   17.3969   -6.6091  -15.6589 O   0  0  0  0  0  0  0  0  0  0  0  0
  1  2  1  0
  2  3  2  0
  4  5  1  0
  4  2  1  0
  5  7  1  0
  5  6  1  1
  7  8  2  0
 10  9  1  6
 10 12  1  0
 11 10  1  0
 12 14  1  0
 13  7  1  0
 12 13  1  1
 14 15  2  0
 16 17  1  0
 16 14  1  0
 17 24  1  0
 18 19  1  0
 17 18  1  1
 19 23  1  0
 20 19  2  0
 20 21  1  0
 21 22  1  0
 23 22  2  0
 24 25  1  0
 26 24  2  0
M  END
$$$$
