NTH.pdb
     RDKit          3D

 26 26  0  0  1  0  0  0  0  0999 V2000
   23.2156  -18.1588  -16.9752 N   0  0  0  0  0  0  0  0  0  0  0  0
   23.1763  -17.9605  -15.5685 C   0  0  0  0  0  0  0  0  0  0  0  0
   23.0669  -18.9335  -14.7897 O   0  0  0  0  0  0  0  0  0  0  0  0
   23.2638  -16.5999  -14.9914 C   0  0  0  0  0  0  0  0  0  0  0  0
   23.3160  -15.5192  -16.0176 C   0  0  2  0  0  0  0  0  0  0  0  0
   24.3442  -15.7707  -16.9911 N   0  0  0  0  0  0  0  0  0  0  0  0
   23.4444  -14.1659  -15.4753 C   0  0  0  0  0  0  0  0  0  0  0  0
   22.7563  -13.8464  -14.4550 O   0  0  0  0  0  0  0  0  0  0  0  0
   26.8085  -12.1757  -15.1553 C   0  0  0  0  0  0  0  0  0  0  0  0
   25.7522  -11.3199  -15.7795 C   0  0  1  0  0  0  0  0  0  0  0  0
   25.8935  -11.1637  -17.1469 O   0  0  0  0  0  0  0  0  0  0  0  0
   24.3460  -11.7905  -15.4473 C   0  0  2  0  0  0  0  0  0  0  0  0
   24.2770  -13.1497  -15.9824 N   0  0  0  0  0  0  0  0  0  0  0  0
   23.2881  -10.9306  -15.9859 C   0  0  0  0  0  0  0  0  0  0  0  0
   22.4436  -11.3244  -16.8492 O   0  0  0  0  0  0  0  0  0  0  0  0
   23.1505   -9.5838  -15.5602 N   0  0  0  0  0  0  0  0  0  0  0  0
   22.0596   -8.7298  -16.0389 C   0  0  1  0  0  0  0  0  0  0  0  0
   20.7544   -9.3685  -15.6977 C   0  0  0  0  0  0  0  0  0  0  0  0
   19.6070   -8.5306  -16.0648 C   0  0  0  0  0  0  0  0  0  0  0  0
   19.6021   -7.2811  -16.6567 C   0  0  0  0  0  0  0  0  0  0  0  0
   18.3274   -6.8862  -16.8063 N   0  0  0  0  0  0  0  0  0  0  0  0
   17.5476   -7.8667  -16.3189 C   0  0  0  0  0  0  0  0  0  0  0  0
   18.3137   -8.8630  -15.8693 N   0  0  0  0  0  0  0  0  0  0  0  0
   22.2193   -7.3480  -15.5686 C   0  0  0  0  0  0  0  0  0  0  0  0
   22.4534   -7.0284  -14.2564 O   0  0  0  0  0  0  0  0  0  0  0  0
   22.1366   -6.4154  -16.4114 O   0  0  0  0  0  0  0  0  0  0  0  0
  1  2  1  0
  2  3  2  0
  4  5  1  0
  4  2  1  0
  5  7  1  0
  5  6  1  6
  7  8  2  0
 10  9  1  6
 10 12  1  0
 11 10  1  0
 12 14  1  0
 13  7  1  0
 12 13  1  6
 14 15  2  0
 16 17  1  0
 16 14  1  0
 17 24  1  0
 18 19  1  0
 17 18  1  1
 19 23  1  0
 20 19  2  0
 20 21  1  0
 21 22  1  0
 23 22  2  0
 24 25  1  0
 26 24  2  0
M  END
$$$$
