NTH.pdb
     RDKit          3D

 26 26  0  0  1  0  0  0  0  0999 V2000
   17.8506  -13.5161  -18.2966 N   0  0  0  0  0  0  0  0  0  0  0  0
   17.6127  -12.6026  -17.2342 C   0  0  0  0  0  0  0  0  0  0  0  0
   16.5018  -12.5671  -16.6600 O   0  0  0  0  0  0  0  0  0  0  0  0
   18.6720  -11.6724  -16.7819 C   0  0  0  0  0  0  0  0  0  0  0  0
   19.8982  -11.7076  -17.6297 C   0  0  2  0  0  0  0  0  0  0  0  0
   20.4725  -13.0256  -17.6655 N   0  0  0  0  0  0  0  0  0  0  0  0
   20.9149  -10.7156  -17.2770 C   0  0  0  0  0  0  0  0  0  0  0  0
   21.8867  -11.0698  -16.5377 O   0  0  0  0  0  0  0  0  0  0  0  0
   23.2410   -8.9085  -19.3627 C   0  0  0  0  0  0  0  0  0  0  0  0
   22.5027   -7.8620  -18.5898 C   0  0  1  0  0  0  0  0  0  0  0  0
   21.5118   -7.2246  -19.3153 O   0  0  0  0  0  0  0  0  0  0  0  0
   21.9384   -8.3900  -17.2814 C   0  0  2  0  0  0  0  0  0  0  0  0
   20.9283   -9.3677  -17.6844 N   0  0  0  0  0  0  0  0  0  0  0  0
   21.3836   -7.3499  -16.4101 C   0  0  0  0  0  0  0  0  0  0  0  0
   20.1981   -6.9076  -16.5226 O   0  0  0  0  0  0  0  0  0  0  0  0
   22.1603   -6.7715  -15.3729 N   0  0  0  0  0  0  0  0  0  0  0  0
   21.6563   -5.6635  -14.5563 C   0  0  1  0  0  0  0  0  0  0  0  0
   21.6069   -6.0935  -13.1278 C   0  0  0  0  0  0  0  0  0  0  0  0
   20.5333   -7.0599  -12.8698 C   0  0  0  0  0  0  0  0  0  0  0  0
   19.5378   -7.4961  -13.7245 C   0  0  0  0  0  0  0  0  0  0  0  0
   18.7703   -8.3806  -13.0673 N   0  0  0  0  0  0  0  0  0  0  0  0
   19.2727   -8.4980  -11.8260 C   0  0  0  0  0  0  0  0  0  0  0  0
   20.3375   -7.7032  -11.6996 N   0  0  0  0  0  0  0  0  0  0  0  0
   22.4098   -4.4291  -14.8100 C   0  0  0  0  0  0  0  0  0  0  0  0
   21.9083   -3.1808  -14.5467 O   0  0  0  0  0  0  0  0  0  0  0  0
   23.5698   -4.5240  -15.2921 O   0  0  0  0  0  0  0  0  0  0  0  0
  1  2  1  0
  2  3  2  0
  4  5  1  0
  4  2  1  0
  5  7  1  0
  5  6  1  1
  7  8  2  0
 10  9  1  6
 10 12  1  0
 11 10  1  0
 12 14  1  0
 13  7  1  0
 12 13  1  6
 14 15  2  0
 16 17  1  0
 16 14  1  0
 17 24  1  0
 18 19  1  0
 17 18  1  1
 19 23  1  0
 20 19  2  0
 20 21  1  0
 21 22  1  0
 23 22  2  0
 24 25  1  0
 26 24  2  0
M  END
$$$$
