LLQ.pdb
     RDKit          3D

 26 25  0  0  1  0  0  0  0  0999 V2000
   18.3787  -18.6337  -12.0227 C   0  0  0  0  0  0  0  0  0  0  0  0
   19.2689  -19.7125  -12.5450 C   0  0  1  0  0  0  0  0  0  0  0  0
   18.9308  -20.0734  -13.9818 C   0  0  0  0  0  0  0  0  0  0  0  0
   20.7373  -19.4217  -12.3743 C   0  0  0  0  0  0  0  0  0  0  0  0
   21.6202  -20.4539  -13.0196 C   0  0  2  0  0  0  0  0  0  0  0  0
   21.2761  -21.7421  -12.4955 N   0  0  0  0  0  0  0  0  0  0  0  0
   23.0254  -20.0901  -12.7423 C   0  0  0  0  0  0  0  0  0  0  0  0
   23.4802  -19.0033  -13.1544 O   0  0  0  0  0  0  0  0  0  0  0  0
   25.1287  -21.6050   -8.0394 C   0  0  0  0  0  0  0  0  0  0  0  0
   24.8073  -20.8036   -9.2857 C   0  0  1  0  0  0  0  0  0  0  0  0
   25.2037  -19.3541   -9.0592 C   0  0  0  0  0  0  0  0  0  0  0  0
   25.6381  -21.3496  -10.4076 C   0  0  0  0  0  0  0  0  0  0  0  0
   25.2618  -20.6698  -11.7250 C   0  0  2  0  0  0  0  0  0  0  0  0
   23.8688  -20.9574  -12.0137 N   0  0  0  0  0  0  0  0  0  0  0  0
   26.0600  -21.2715  -12.8447 C   0  0  0  0  0  0  0  0  0  0  0  0
   27.3116  -21.1696  -12.9174 O   0  0  0  0  0  0  0  0  0  0  0  0
   23.4461  -24.4026  -17.7071 N   0  0  0  0  0  0  0  0  0  0  0  0
   24.8121  -24.3537  -18.0560 C   0  0  0  0  0  0  0  0  0  0  0  0
   25.1538  -24.7394  -19.1995 O   0  0  0  0  0  0  0  0  0  0  0  0
   25.8614  -23.8665  -17.1305 C   0  0  0  0  0  0  0  0  0  0  0  0
   25.2520  -23.4047  -15.8412 C   0  0  0  0  0  0  0  0  0  0  0  0
   26.1577  -22.5074  -15.0481 C   0  0  2  0  0  0  0  0  0  0  0  0
   25.4072  -21.9973  -13.8898 N   0  0  0  0  0  0  0  0  0  0  0  0
   26.6188  -21.3340  -15.8235 C   0  0  0  0  0  0  0  0  0  0  0  0
   25.8178  -20.2222  -16.0270 O   0  0  0  0  0  0  0  0  0  0  0  0
   27.7708  -21.3246  -16.3224 O   0  0  0  0  0  0  0  0  0  0  0  0
  2  1  1  6
  3  2  1  0
  4  5  1  0
  4  2  1  0
  5  6  1  1
  7  8  2  0
  7  5  1  0
 10  9  1  1
 11 10  1  0
 12 10  1  0
 13 12  1  1
 13 14  1  0
 14  7  1  0
 15 16  2  0
 15 13  1  0
 18 17  1  0
 18 19  2  0
 20 21  1  0
 20 18  1  0
 22 21  1  6
 22 23  1  0
 23 15  1  0
 24 22  1  0
 25 24  1  0
 26 24  2  0
M  END
$$$$
