LLQ.pdb
     RDKit          3D

 26 25  0  0  1  0  0  0  0  0999 V2000
   28.3211  -19.5953   -6.8654 C   0  0  0  0  0  0  0  0  0  0  0  0
   27.3381  -20.3884   -7.6615 C   0  0  1  0  0  0  0  0  0  0  0  0
   26.0434  -20.6085   -6.8972 C   0  0  0  0  0  0  0  0  0  0  0  0
   27.0846  -19.8322   -9.0385 C   0  0  0  0  0  0  0  0  0  0  0  0
   26.0883  -20.6390   -9.8245 C   0  0  2  0  0  0  0  0  0  0  0  0
   26.7416  -21.8127  -10.3227 N   0  0  0  0  0  0  0  0  0  0  0  0
   25.5625  -19.7839  -10.9089 C   0  0  0  0  0  0  0  0  0  0  0  0
   24.8915  -18.7687  -10.6315 O   0  0  0  0  0  0  0  0  0  0  0  0
   27.7927  -20.6723  -15.7992 C   0  0  0  0  0  0  0  0  0  0  0  0
   27.3576  -20.4147  -14.3698 C   0  0  1  0  0  0  0  0  0  0  0  0
   28.5911  -20.2220  -13.5032 C   0  0  0  0  0  0  0  0  0  0  0  0
   26.5673  -19.1411  -14.3546 C   0  0  0  0  0  0  0  0  0  0  0  0
   25.4009  -19.2530  -13.3715 C   0  0  2  0  0  0  0  0  0  0  0  0
   25.8079  -20.0978  -12.2638 N   0  0  0  0  0  0  0  0  0  0  0  0
   24.2507  -19.9510  -14.0369 C   0  0  0  0  0  0  0  0  0  0  0  0
   23.7361  -19.5410  -15.1090 O   0  0  0  0  0  0  0  0  0  0  0  0
   20.0175  -24.4289  -13.5429 N   0  0  0  0  0  0  0  0  0  0  0  0
   20.6863  -24.5380  -14.7801 C   0  0  0  0  0  0  0  0  0  0  0  0
   20.1350  -25.1800  -15.7060 O   0  0  0  0  0  0  0  0  0  0  0  0
   22.0120  -23.9274  -15.0341 C   0  0  0  0  0  0  0  0  0  0  0  0
   22.4957  -23.1964  -13.8182 C   0  0  0  0  0  0  0  0  0  0  0  0
   22.4298  -21.7032  -13.9617 C   0  0  2  0  0  0  0  0  0  0  0  0
   23.6896  -21.1328  -13.4593 N   0  0  0  0  0  0  0  0  0  0  0  0
   21.3308  -21.1029  -13.1727 C   0  0  0  0  0  0  0  0  0  0  0  0
   20.0386  -21.0039  -13.6625 O   0  0  0  0  0  0  0  0  0  0  0  0
   21.5546  -20.6624  -12.0186 O   0  0  0  0  0  0  0  0  0  0  0  0
  2  1  1  1
  3  2  1  0
  4  5  1  0
  4  2  1  0
  5  6  1  6
  7  8  2  0
  7  5  1  0
 10  9  1  6
 11 10  1  0
 12 10  1  0
 13 12  1  6
 13 14  1  0
 14  7  1  0
 15 16  2  0
 15 13  1  0
 18 17  1  0
 18 19  2  0
 20 21  1  0
 20 18  1  0
 22 21  1  1
 22 23  1  0
 23 15  1  0
 24 22  1  0
 25 24  1  0
 26 24  2  0
M  END
$$$$
