LLQ.pdb
     RDKit          3D

 26 25  0  0  1  0  0  0  0  0999 V2000
   28.6974  -20.1483   -5.9901 C   0  0  0  0  0  0  0  0  0  0  0  0
   27.3769  -20.2284   -6.6823 C   0  0  1  0  0  0  0  0  0  0  0  0
   26.3838  -19.2276   -6.1157 C   0  0  0  0  0  0  0  0  0  0  0  0
   27.4726  -20.1301   -8.1827 C   0  0  0  0  0  0  0  0  0  0  0  0
   26.1310  -20.1637   -8.8610 C   0  0  2  0  0  0  0  0  0  0  0  0
   25.6298  -21.5051   -8.8172 N   0  0  0  0  0  0  0  0  0  0  0  0
   26.3064  -19.6728  -10.2438 C   0  0  0  0  0  0  0  0  0  0  0  0
   26.5758  -18.4714  -10.4486 O   0  0  0  0  0  0  0  0  0  0  0  0
   28.0530  -19.3309  -14.9933 C   0  0  0  0  0  0  0  0  0  0  0  0
   27.3871  -20.6890  -14.8880 C   0  0  1  0  0  0  0  0  0  0  0  0
   28.2611  -21.7244  -15.5761 C   0  0  0  0  0  0  0  0  0  0  0  0
   27.2946  -21.0416  -13.4340 C   0  0  0  0  0  0  0  0  0  0  0  0
   26.2976  -20.1214  -12.7280 C   0  0  2  0  0  0  0  0  0  0  0  0
   26.1735  -20.5461  -11.3457 N   0  0  0  0  0  0  0  0  0  0  0  0
   24.9398  -20.2863  -13.3459 C   0  0  0  0  0  0  0  0  0  0  0  0
   24.6965  -19.9818  -14.5419 O   0  0  0  0  0  0  0  0  0  0  0  0
   21.8801  -25.2705  -13.6196 N   0  0  0  0  0  0  0  0  0  0  0  0
   21.8747  -24.4552  -14.7708 C   0  0  0  0  0  0  0  0  0  0  0  0
   21.6841  -24.9942  -15.8872 O   0  0  0  0  0  0  0  0  0  0  0  0
   22.0843  -22.9895  -14.7191 C   0  0  0  0  0  0  0  0  0  0  0  0
   22.3542  -22.5464  -13.3128 C   0  0  0  0  0  0  0  0  0  0  0  0
   22.5386  -21.0616  -13.1867 C   0  0  2  0  0  0  0  0  0  0  0  0
   23.8530  -20.8075  -12.5761 N   0  0  0  0  0  0  0  0  0  0  0  0
   21.5210  -20.4330  -12.3149 C   0  0  0  0  0  0  0  0  0  0  0  0
   20.1974  -20.3000  -12.7020 O   0  0  0  0  0  0  0  0  0  0  0  0
   21.8460  -19.9989  -11.1827 O   0  0  0  0  0  0  0  0  0  0  0  0
  2  1  1  1
  3  2  1  0
  4  5  1  0
  4  2  1  0
  5  6  1  6
  7  8  2  0
  7  5  1  0
 10  9  1  1
 11 10  1  0
 12 10  1  0
 13 12  1  6
 13 14  1  0
 14  7  1  0
 15 16  2  0
 15 13  1  0
 18 17  1  0
 18 19  2  0
 20 21  1  0
 20 18  1  0
 22 21  1  1
 22 23  1  0
 23 15  1  0
 24 22  1  0
 25 24  1  0
 26 24  2  0
M  END
$$$$
