LLQ.pdb
     RDKit          3D

 26 25  0  0  1  0  0  0  0  0999 V2000
   29.6626  -21.7165  -19.1411 C   0  0  0  0  0  0  0  0  0  0  0  0
   28.2123  -21.5058  -18.8559 C   0  0  1  0  0  0  0  0  0  0  0  0
   27.3321  -22.1574  -19.9092 C   0  0  0  0  0  0  0  0  0  0  0  0
   27.8044  -21.9080  -17.4624 C   0  0  0  0  0  0  0  0  0  0  0  0
   26.3343  -21.7251  -17.2040 C   0  0  2  0  0  0  0  0  0  0  0  0
   25.9689  -20.3884  -17.5680 N   0  0  0  0  0  0  0  0  0  0  0  0
   26.0833  -22.0084  -15.7756 C   0  0  0  0  0  0  0  0  0  0  0  0
   26.2156  -23.1700  -15.3386 O   0  0  0  0  0  0  0  0  0  0  0  0
   28.7004  -19.1046  -12.7173 C   0  0  0  0  0  0  0  0  0  0  0  0
   27.8923  -20.2501  -13.2949 C   0  0  1  0  0  0  0  0  0  0  0  0
   28.4805  -21.5653  -12.8111 C   0  0  0  0  0  0  0  0  0  0  0  0
   26.4944  -20.1362  -12.7661 C   0  0  0  0  0  0  0  0  0  0  0  0
   25.5833  -21.1545  -13.4532 C   0  0  2  0  0  0  0  0  0  0  0  0
   25.6935  -20.9798  -14.8898 N   0  0  0  0  0  0  0  0  0  0  0  0
   24.1535  -20.8661  -13.0993 C   0  0  0  0  0  0  0  0  0  0  0  0
   23.7311  -20.8804  -11.9145 O   0  0  0  0  0  0  0  0  0  0  0  0
   20.0350  -18.0528  -16.7712 N   0  0  0  0  0  0  0  0  0  0  0  0
   19.3448  -18.1118  -15.5423 C   0  0  0  0  0  0  0  0  0  0  0  0
   18.1667  -17.6841  -15.4944 O   0  0  0  0  0  0  0  0  0  0  0  0
   19.9507  -18.6570  -14.3053 C   0  0  0  0  0  0  0  0  0  0  0  0
   21.3812  -19.0360  -14.5434 C   0  0  0  0  0  0  0  0  0  0  0  0
   21.7974  -20.2701  -13.7960 C   0  0  2  0  0  0  0  0  0  0  0  0
   23.2029  -20.5583  -14.1225 N   0  0  0  0  0  0  0  0  0  0  0  0
   21.0054  -21.4610  -14.1768 C   0  0  0  0  0  0  0  0  0  0  0  0
   19.7994  -21.7710  -13.5694 O   0  0  0  0  0  0  0  0  0  0  0  0
   21.4214  -22.2298  -15.0779 O   0  0  0  0  0  0  0  0  0  0  0  0
  2  1  1  6
  3  2  1  0
  4  5  1  0
  4  2  1  0
  5  6  1  1
  7  8  2  0
  7  5  1  0
 10  9  1  1
 11 10  1  0
 12 10  1  0
 13 12  1  1
 13 14  1  0
 14  7  1  0
 15 16  2  0
 15 13  1  0
 18 17  1  0
 18 19  2  0
 20 21  1  0
 20 18  1  0
 22 21  1  6
 22 23  1  0
 23 15  1  0
 24 22  1  0
 25 24  1  0
 26 24  2  0
M  END
$$$$
