LLQ.pdb
     RDKit          3D

 26 25  0  0  1  0  0  0  0  0999 V2000
   20.2624  -15.8671  -15.9777 C   0  0  0  0  0  0  0  0  0  0  0  0
   20.2633  -14.5412  -16.6641 C   0  0  1  0  0  0  0  0  0  0  0  0
   18.8555  -14.0888  -17.0141 C   0  0  0  0  0  0  0  0  0  0  0  0
   21.0225  -13.4740  -15.9193 C   0  0  0  0  0  0  0  0  0  0  0  0
   20.9332  -12.1232  -16.5739 C   0  0  2  0  0  0  0  0  0  0  0  0
   21.4648  -12.2220  -17.9007 N   0  0  0  0  0  0  0  0  0  0  0  0
   21.6804  -11.1607  -15.7379 C   0  0  0  0  0  0  0  0  0  0  0  0
   21.3596  -10.9932  -14.5434 O   0  0  0  0  0  0  0  0  0  0  0  0
   26.9541  -10.7056  -16.5473 C   0  0  0  0  0  0  0  0  0  0  0  0
   25.5822  -10.7672  -15.9046 C   0  0  1  0  0  0  0  0  0  0  0  0
   25.7416  -11.0685  -14.4236 C   0  0  0  0  0  0  0  0  0  0  0  0
   24.9500   -9.4153  -16.0451 C   0  0  0  0  0  0  0  0  0  0  0  0
   23.5164   -9.4429  -15.5128 C   0  0  2  0  0  0  0  0  0  0  0  0
   22.7592  -10.4215  -16.2712 N   0  0  0  0  0  0  0  0  0  0  0  0
   22.8637   -8.1147  -15.7633 C   0  0  0  0  0  0  0  0  0  0  0  0
   23.2914   -7.0429  -15.2627 O   0  0  0  0  0  0  0  0  0  0  0  0
   18.7251   -7.1119  -20.4726 N   0  0  0  0  0  0  0  0  0  0  0  0
   18.8624   -5.8404  -19.8773 C   0  0  0  0  0  0  0  0  0  0  0  0
   18.2735   -4.8651  -20.4019 O   0  0  0  0  0  0  0  0  0  0  0  0
   19.6721   -5.6062  -18.6590 C   0  0  0  0  0  0  0  0  0  0  0  0
   20.3253   -6.8782  -18.2094 C   0  0  0  0  0  0  0  0  0  0  0  0
   21.1146   -6.7206  -16.9418 C   0  0  2  0  0  0  0  0  0  0  0  0
   21.7069   -8.0232  -16.5991 N   0  0  0  0  0  0  0  0  0  0  0  0
   20.2750   -6.3053  -15.7958 C   0  0  0  0  0  0  0  0  0  0  0  0
   20.1449   -4.9788  -15.4180 O   0  0  0  0  0  0  0  0  0  0  0  0
   19.6511   -7.1674  -15.1297 O   0  0  0  0  0  0  0  0  0  0  0  0
  2  1  1  1
  3  2  1  0
  4  5  1  0
  4  2  1  0
  5  6  1  6
  7  8  2  0
  7  5  1  0
 10  9  1  6
 11 10  1  0
 12 10  1  0
 13 12  1  6
 13 14  1  0
 14  7  1  0
 15 16  2  0
 15 13  1  0
 18 17  1  0
 18 19  2  0
 20 21  1  0
 20 18  1  0
 22 21  1  6
 22 23  1  0
 23 15  1  0
 24 22  1  0
 25 24  1  0
 26 24  2  0
M  END
$$$$
