QGL.pdb
     RDKit          3D

 22 21  0  0  1  0  0  0  0  0999 V2000
   19.7823  -25.3259  -13.6246 N   0  0  0  0  0  0  0  0  0  0  0  0
   18.8965  -26.4042  -13.2481 C   0  0  0  0  0  0  0  0  0  0  0  0
   18.8926  -27.3997  -13.9757 O   0  0  0  0  0  0  0  0  0  0  0  0
   18.0528  -26.3008  -12.0510 C   0  0  0  0  0  0  0  0  0  0  0  0
   18.1953  -25.0197  -11.2937 C   0  0  0  0  0  0  0  0  0  0  0  0
   19.2625  -25.0184  -10.2572 C   0  0  2  0  0  0  0  0  0  0  0  0
   19.7623  -26.2858   -9.8447 N   0  0  0  0  0  0  0  0  0  0  0  0
   18.6758  -24.3520   -9.0396 C   0  0  0  0  0  0  0  0  0  0  0  0
   18.0161  -23.2910   -9.1107 O   0  0  0  0  0  0  0  0  0  0  0  0
   18.8850  -24.9642   -7.7473 N   0  0  0  0  0  0  0  0  0  0  0  0
   18.2769  -24.3122   -6.6308 C   0  0  0  0  0  0  0  0  0  0  0  0
   17.5567  -25.2541   -5.7509 C   0  0  0  0  0  0  0  0  0  0  0  0
   17.6210  -26.5079   -6.0237 O   0  0  0  0  0  0  0  0  0  0  0  0
   16.9688  -27.8447   -1.4908 C   0  0  0  0  0  0  0  0  0  0  0  0
   16.0157  -26.6458   -1.3808 C   0  0  1  0  0  0  0  0  0  0  0  0
   16.0309  -26.2070    0.0427 C   0  0  0  0  0  0  0  0  0  0  0  0
   16.5077  -25.6216   -2.3520 C   0  0  0  0  0  0  0  0  0  0  0  0
   16.2395  -25.9804   -3.7895 C   0  0  2  0  0  0  0  0  0  0  0  0
   16.7890  -24.9261   -4.6198 N   0  0  0  0  0  0  0  0  0  0  0  0
   14.7644  -26.0423   -4.0088 C   0  0  0  0  0  0  0  0  0  0  0  0
   14.0519  -27.2384   -3.9152 O   0  0  0  0  0  0  0  0  0  0  0  0
   14.0894  -25.0179   -4.2892 O   0  0  0  0  0  0  0  0  0  0  0  0
  2  1  1  0
  2  3  2  0
  4  2  1  0
  5  4  1  0
  6  5  1  0
  6  7  1  1
  8  6  1  0
  8 10  1  0
  9  8  2  0
 11 10  1  0
 11 12  1  0
 12 19  1  0
 13 12  2  0
 15 14  1  1
 16 15  1  0
 17 15  1  0
 18 17  1  1
 19 18  1  0
 20 21  1  0
 20 18  1  0
 22 20  2  0
M  END
$$$$
