QGL.pdb
     RDKit          3D

 22 21  0  0  1  0  0  0  0  0999 V2000
   34.7517  -27.9135  -19.0844 N   0  0  0  0  0  0  0  0  0  0  0  0
   33.4416  -27.3351  -19.2793 C   0  0  0  0  0  0  0  0  0  0  0  0
   33.3673  -26.3745  -20.0487 O   0  0  0  0  0  0  0  0  0  0  0  0
   32.2677  -27.8824  -18.5877 C   0  0  0  0  0  0  0  0  0  0  0  0
   32.5517  -29.0556  -17.7057 C   0  0  0  0  0  0  0  0  0  0  0  0
   32.0920  -30.3668  -18.2376 C   0  0  2  0  0  0  0  0  0  0  0  0
   30.6986  -30.6448  -18.1517 N   0  0  0  0  0  0  0  0  0  0  0  0
   32.8087  -31.4267  -17.4412 C   0  0  0  0  0  0  0  0  0  0  0  0
   34.0571  -31.5022  -17.4000 O   0  0  0  0  0  0  0  0  0  0  0  0
   32.0217  -32.3865  -16.7011 N   0  0  0  0  0  0  0  0  0  0  0  0
   32.7501  -33.3701  -15.9638 C   0  0  0  0  0  0  0  0  0  0  0  0
   33.2337  -34.4725  -16.8188 C   0  0  0  0  0  0  0  0  0  0  0  0
   32.6921  -34.6259  -17.9737 O   0  0  0  0  0  0  0  0  0  0  0  0
   37.7918  -35.4207  -18.9135 C   0  0  0  0  0  0  0  0  0  0  0  0
   36.2610  -35.4638  -18.7996 C   0  0  1  0  0  0  0  0  0  0  0  0
   35.7314  -35.7550  -20.1612 C   0  0  0  0  0  0  0  0  0  0  0  0
   35.9406  -36.5020  -17.7731 C   0  0  0  0  0  0  0  0  0  0  0  0
   34.4876  -36.5276  -17.3792 C   0  0  2  0  0  0  0  0  0  0  0  0
   34.2453  -35.3968  -16.5043 N   0  0  0  0  0  0  0  0  0  0  0  0
   34.2099  -37.7847  -16.6240 C   0  0  0  0  0  0  0  0  0  0  0  0
   34.0052  -37.7889  -15.2437 O   0  0  0  0  0  0  0  0  0  0  0  0
   34.1465  -38.9043  -17.1951 O   0  0  0  0  0  0  0  0  0  0  0  0
  2  1  1  0
  2  3  2  0
  4  2  1  0
  5  4  1  0
  6  5  1  0
  6  7  1  1
  8  6  1  0
  8 10  1  0
  9  8  2  0
 11 10  1  0
 11 12  1  0
 12 19  1  0
 13 12  2  0
 15 14  1  6
 16 15  1  0
 17 15  1  0
 18 17  1  1
 19 18  1  0
 20 21  1  0
 20 18  1  0
 22 20  2  0
M  END
$$$$
