QGL.pdb
     RDKit          3D

 22 21  0  0  1  0  0  0  0  0999 V2000
   22.0508  -21.5752  -13.5902 N   0  0  0  0  0  0  0  0  0  0  0  0
   21.8530  -20.1446  -13.6470 C   0  0  0  0  0  0  0  0  0  0  0  0
   20.7388  -19.7247  -13.3264 O   0  0  0  0  0  0  0  0  0  0  0  0
   22.9405  -19.2513  -14.0652 C   0  0  0  0  0  0  0  0  0  0  0  0
   24.2835  -19.9014  -14.1584 C   0  0  0  0  0  0  0  0  0  0  0  0
   24.4803  -21.0680  -13.2564 C   0  0  2  0  0  0  0  0  0  0  0  0
   23.4320  -21.3568  -12.3377 N   0  0  0  0  0  0  0  0  0  0  0  0
   25.7173  -20.7785  -12.4458 C   0  0  0  0  0  0  0  0  0  0  0  0
   26.8467  -20.6555  -12.9704 O   0  0  0  0  0  0  0  0  0  0  0  0
   25.5887  -20.6387  -11.0132 N   0  0  0  0  0  0  0  0  0  0  0  0
   26.7862  -20.3338  -10.2958 C   0  0  0  0  0  0  0  0  0  0  0  0
   26.7942  -20.9146   -8.9383 C   0  0  0  0  0  0  0  0  0  0  0  0
   26.0406  -21.9296   -8.7091 O   0  0  0  0  0  0  0  0  0  0  0  0
   29.9033  -19.4005   -4.2342 C   0  0  0  0  0  0  0  0  0  0  0  0
   28.5888  -19.5740   -5.0087 C   0  0  1  0  0  0  0  0  0  0  0  0
   28.4085  -18.3505   -5.8395 C   0  0  0  0  0  0  0  0  0  0  0  0
   28.7201  -20.8416   -5.7898 C   0  0  0  0  0  0  0  0  0  0  0  0
   27.4873  -21.1887   -6.5816 C   0  0  2  0  0  0  0  0  0  0  0  0
   27.5523  -20.4716   -7.8404 N   0  0  0  0  0  0  0  0  0  0  0  0
   26.2815  -20.7297   -5.8313 C   0  0  0  0  0  0  0  0  0  0  0  0
   25.8118  -21.4025   -4.7026 O   0  0  0  0  0  0  0  0  0  0  0  0
   25.6278  -19.7123   -6.1796 O   0  0  0  0  0  0  0  0  0  0  0  0
  2  1  1  0
  2  3  2  0
  4  2  1  0
  5  4  1  0
  6  5  1  0
  6  7  1  1
  8  6  1  0
  8 10  1  0
  9  8  2  0
 11 10  1  0
 11 12  1  0
 12 19  1  0
 13 12  2  0
 15 14  1  6
 16 15  1  0
 17 15  1  0
 18 17  1  1
 19 18  1  0
 20 21  1  0
 20 18  1  0
 22 20  2  0
M  END
$$$$
