QGL.pdb
     RDKit          3D

 22 21  0  0  1  0  0  0  0  0999 V2000
   32.0021  -26.6648  -18.6521 N   0  0  0  0  0  0  0  0  0  0  0  0
   32.4214  -25.3728  -18.1585 C   0  0  0  0  0  0  0  0  0  0  0  0
   33.3556  -24.8281  -18.7511 O   0  0  0  0  0  0  0  0  0  0  0  0
   31.7516  -24.7540  -17.0078 C   0  0  0  0  0  0  0  0  0  0  0  0
   30.5805  -25.5188  -16.4799 C   0  0  0  0  0  0  0  0  0  0  0  0
   29.2777  -25.1931  -17.1202 C   0  0  2  0  0  0  0  0  0  0  0  0
   28.7757  -23.8753  -16.9268 N   0  0  0  0  0  0  0  0  0  0  0  0
   28.2652  -26.1464  -16.5395 C   0  0  0  0  0  0  0  0  0  0  0  0
   28.0892  -26.2651  -15.3063 O   0  0  0  0  0  0  0  0  0  0  0  0
   27.4724  -26.9486  -17.4430 N   0  0  0  0  0  0  0  0  0  0  0  0
   26.6252  -27.9301  -16.8426 C   0  0  0  0  0  0  0  0  0  0  0  0
   25.2298  -27.8367  -17.3159 C   0  0  0  0  0  0  0  0  0  0  0  0
   24.8948  -26.8131  -18.0163 O   0  0  0  0  0  0  0  0  0  0  0  0
   22.7267  -31.4383  -20.1129 C   0  0  0  0  0  0  0  0  0  0  0  0
   23.2133  -30.0763  -19.5969 C   0  0  1  0  0  0  0  0  0  0  0  0
   22.9789  -29.0888  -20.6874 C   0  0  0  0  0  0  0  0  0  0  0  0
   22.4548  -29.8035  -18.3381 C   0  0  0  0  0  0  0  0  0  0  0  0
   22.8823  -28.5383  -17.6425 C   0  0  2  0  0  0  0  0  0  0  0  0
   24.2000  -28.7645  -17.0809 N   0  0  0  0  0  0  0  0  0  0  0  0
   21.9310  -28.2494  -16.5294 C   0  0  0  0  0  0  0  0  0  0  0  0
   20.8359  -27.4002  -16.6934 O   0  0  0  0  0  0  0  0  0  0  0  0
   22.0693  -28.7577  -15.3865 O   0  0  0  0  0  0  0  0  0  0  0  0
  2  1  1  0
  2  3  2  0
  4  2  1  0
  5  4  1  0
  6  5  1  0
  6  7  1  1
  8  6  1  0
  8 10  1  0
  9  8  2  0
 11 10  1  0
 11 12  1  0
 12 19  1  0
 13 12  2  0
 15 14  1  6
 16 15  1  0
 17 15  1  0
 18 17  1  1
 19 18  1  0
 20 21  1  0
 20 18  1  0
 22 20  2  0
M  END
$$$$
