QGL.pdb
     RDKit          3D

 22 21  0  0  1  0  0  0  0  0999 V2000
   14.4817  -13.2601  -19.0922 N   0  0  0  0  0  0  0  0  0  0  0  0
   13.7261  -12.5833  -18.0626 C   0  0  0  0  0  0  0  0  0  0  0  0
   12.7604  -13.1894  -17.5930 O   0  0  0  0  0  0  0  0  0  0  0  0
   14.1087  -11.2403  -17.6092 C   0  0  0  0  0  0  0  0  0  0  0  0
   15.3131  -10.6704  -18.2874 C   0  0  0  0  0  0  0  0  0  0  0  0
   16.6125  -11.0042  -17.6445 C   0  0  2  0  0  0  0  0  0  0  0  0
   16.5901  -11.2739  -16.2470 N   0  0  0  0  0  0  0  0  0  0  0  0
   17.5125   -9.8139  -17.8551 C   0  0  0  0  0  0  0  0  0  0  0  0
   17.6982   -9.3076  -18.9843 O   0  0  0  0  0  0  0  0  0  0  0  0
   18.1815   -9.2410  -16.7093 N   0  0  0  0  0  0  0  0  0  0  0  0
   18.9943   -8.0926  -16.9583 C   0  0  0  0  0  0  0  0  0  0  0  0
   19.7302   -7.6509  -15.7569 C   0  0  0  0  0  0  0  0  0  0  0  0
   19.1459   -7.7521  -14.6171 O   0  0  0  0  0  0  0  0  0  0  0  0
   24.1149   -9.7267  -14.4847 C   0  0  0  0  0  0  0  0  0  0  0  0
   22.7237   -9.0893  -14.3569 C   0  0  1  0  0  0  0  0  0  0  0  0
   22.1116   -9.6267  -13.1096 C   0  0  0  0  0  0  0  0  0  0  0  0
   22.9329   -7.6092  -14.3587 C   0  0  0  0  0  0  0  0  0  0  0  0
   21.6517   -6.8225  -14.4411 C   0  0  2  0  0  0  0  0  0  0  0  0
   21.0309   -7.1187  -15.7177 N   0  0  0  0  0  0  0  0  0  0  0  0
   21.9711   -5.3654  -14.3912 C   0  0  0  0  0  0  0  0  0  0  0  0
   22.3637   -4.7339  -13.2104 O   0  0  0  0  0  0  0  0  0  0  0  0
   21.9020   -4.6332  -15.4124 O   0  0  0  0  0  0  0  0  0  0  0  0
  2  1  1  0
  2  3  2  0
  4  2  1  0
  5  4  1  0
  6  5  1  0
  6  7  1  1
  8  6  1  0
  8 10  1  0
  9  8  2  0
 11 10  1  0
 11 12  1  0
 12 19  1  0
 13 12  2  0
 15 14  1  1
 16 15  1  0
 17 15  1  0
 18 17  1  6
 19 18  1  0
 20 21  1  0
 20 18  1  0
 22 20  2  0
M  END
$$$$
