QGL.pdb
     RDKit          3D

 22 21  0  0  1  0  0  0  0  0999 V2000
   16.8449  -14.4060  -16.6297 N   0  0  0  0  0  0  0  0  0  0  0  0
   17.9885  -14.4278  -17.5133 C   0  0  0  0  0  0  0  0  0  0  0  0
   18.2392  -15.4985  -18.0711 O   0  0  0  0  0  0  0  0  0  0  0  0
   18.7975  -13.2212  -17.7259 C   0  0  0  0  0  0  0  0  0  0  0  0
   18.3093  -12.0055  -17.0054 C   0  0  0  0  0  0  0  0  0  0  0  0
   18.0913  -10.8113  -17.8653 C   0  0  2  0  0  0  0  0  0  0  0  0
   19.2284  -10.2890  -18.5439 N   0  0  0  0  0  0  0  0  0  0  0  0
   17.5715   -9.7227  -16.9620 C   0  0  0  0  0  0  0  0  0  0  0  0
   16.5608   -9.8781  -16.2408 O   0  0  0  0  0  0  0  0  0  0  0  0
   18.2688   -8.4572  -16.9315 N   0  0  0  0  0  0  0  0  0  0  0  0
   17.7951   -7.4948  -15.9875 C   0  0  0  0  0  0  0  0  0  0  0  0
   18.8687   -6.9919  -15.1075 C   0  0  0  0  0  0  0  0  0  0  0  0
   18.5417   -6.2234  -14.1312 O   0  0  0  0  0  0  0  0  0  0  0  0
   23.0743  -10.1017  -13.6959 C   0  0  0  0  0  0  0  0  0  0  0  0
   21.8153   -9.2239  -13.7447 C   0  0  1  0  0  0  0  0  0  0  0  0
   21.1564   -9.3337  -12.4131 C   0  0  0  0  0  0  0  0  0  0  0  0
   22.2719   -7.8457  -14.1002 C   0  0  0  0  0  0  0  0  0  0  0  0
   21.1515   -6.8423  -14.1714 C   0  0  2  0  0  0  0  0  0  0  0  0
   20.2431   -7.2656  -15.2195 N   0  0  0  0  0  0  0  0  0  0  0  0
   21.7145   -5.5090  -14.5361 C   0  0  0  0  0  0  0  0  0  0  0  0
   22.5122   -4.7767  -13.6560 O   0  0  0  0  0  0  0  0  0  0  0  0
   21.4974   -4.9783  -15.6564 O   0  0  0  0  0  0  0  0  0  0  0  0
  2  1  1  0
  2  3  2  0
  4  2  1  0
  5  4  1  0
  6  5  1  0
  6  7  1  1
  8  6  1  0
  8 10  1  0
  9  8  2  0
 11 10  1  0
 11 12  1  0
 12 19  1  0
 13 12  2  0
 15 14  1  1
 16 15  1  0
 17 15  1  0
 18 17  1  6
 19 18  1  0
 20 21  1  0
 20 18  1  0
 22 20  2  0
M  END
$$$$
