QGL.pdb
     RDKit          3D

 22 21  0  0  1  0  0  0  0  0999 V2000
   26.6783  -21.8072   -8.9377 N   0  0  0  0  0  0  0  0  0  0  0  0
   25.8960  -20.5919   -8.9307 C   0  0  0  0  0  0  0  0  0  0  0  0
   25.9041  -19.9320   -7.8891 O   0  0  0  0  0  0  0  0  0  0  0  0
   25.1383  -20.1786  -10.1184 C   0  0  0  0  0  0  0  0  0  0  0  0
   25.1158  -21.1819  -11.2266 C   0  0  0  0  0  0  0  0  0  0  0  0
   26.4410  -21.4729  -11.8370 C   0  0  2  0  0  0  0  0  0  0  0  0
   27.5440  -20.6950  -11.3850 N   0  0  0  0  0  0  0  0  0  0  0  0
   26.2950  -21.2235  -13.3161 C   0  0  0  0  0  0  0  0  0  0  0  0
   25.4359  -21.8102  -14.0114 O   0  0  0  0  0  0  0  0  0  0  0  0
   27.1805  -20.2722  -13.9481 N   0  0  0  0  0  0  0  0  0  0  0  0
   27.0862  -20.1656  -15.3698 C   0  0  0  0  0  0  0  0  0  0  0  0
   26.1253  -19.1286  -15.7955 C   0  0  0  0  0  0  0  0  0  0  0  0
   25.0819  -18.9354  -15.0712 O   0  0  0  0  0  0  0  0  0  0  0  0
   27.6688  -14.4574  -16.8571 C   0  0  0  0  0  0  0  0  0  0  0  0
   26.8078  -15.6104  -16.3210 C   0  0  1  0  0  0  0  0  0  0  0  0
   26.1319  -15.1129  -15.0901 C   0  0  0  0  0  0  0  0  0  0  0  0
   25.8792  -15.9966  -17.4268 C   0  0  0  0  0  0  0  0  0  0  0  0
   25.1979  -17.3207  -17.2030 C   0  0  2  0  0  0  0  0  0  0  0  0
   26.2252  -18.3078  -16.9325 N   0  0  0  0  0  0  0  0  0  0  0  0
   24.4741  -17.7124  -18.4481 C   0  0  0  0  0  0  0  0  0  0  0  0
   23.3269  -17.0446  -18.8784 O   0  0  0  0  0  0  0  0  0  0  0  0
   24.8628  -18.6654  -19.1724 O   0  0  0  0  0  0  0  0  0  0  0  0
  2  1  1  0
  2  3  2  0
  4  2  1  0
  5  4  1  0
  6  5  1  0
  6  7  1  1
  8  6  1  0
  8 10  1  0
  9  8  2  0
 11 10  1  0
 11 12  1  0
 12 19  1  0
 13 12  2  0
 15 14  1  6
 16 15  1  0
 17 15  1  0
 18 17  1  6
 19 18  1  0
 20 21  1  0
 20 18  1  0
 22 20  2  0
M  END
$$$$
