QGL.pdb
     RDKit          3D

 22 21  0  0  1  0  0  0  0  0999 V2000
   27.6291  -19.0403  -19.4203 N   0  0  0  0  0  0  0  0  0  0  0  0
   27.4248  -20.3515  -19.9930 C   0  0  0  0  0  0  0  0  0  0  0  0
   27.1852  -20.3985  -21.2017 O   0  0  0  0  0  0  0  0  0  0  0  0
   27.5066  -21.5571  -19.1592 C   0  0  0  0  0  0  0  0  0  0  0  0
   27.8104  -21.3017  -17.7178 C   0  0  0  0  0  0  0  0  0  0  0  0
   26.7389  -21.7075  -16.7689 C   0  0  2  0  0  0  0  0  0  0  0  0
   25.4827  -21.0501  -16.8952 N   0  0  0  0  0  0  0  0  0  0  0  0
   27.2591  -21.4143  -15.3852 C   0  0  0  0  0  0  0  0  0  0  0  0
   28.3079  -21.9328  -14.9415 O   0  0  0  0  0  0  0  0  0  0  0  0
   26.5168  -20.5015  -14.5459 N   0  0  0  0  0  0  0  0  0  0  0  0
   27.0585  -20.2504  -13.2478 C   0  0  0  0  0  0  0  0  0  0  0  0
   26.1950  -20.7659  -12.1667 C   0  0  0  0  0  0  0  0  0  0  0  0
   25.4362  -21.7702  -12.4241 O   0  0  0  0  0  0  0  0  0  0  0  0
   27.0265  -19.2812   -7.0097 C   0  0  0  0  0  0  0  0  0  0  0  0
   26.8894  -20.2549   -8.1892 C   0  0  1  0  0  0  0  0  0  0  0  0
   27.4271  -21.5677   -7.7344 C   0  0  0  0  0  0  0  0  0  0  0  0
   25.4416  -20.2714   -8.5602 C   0  0  0  0  0  0  0  0  0  0  0  0
   25.1768  -20.8688   -9.9168 C   0  0  2  0  0  0  0  0  0  0  0  0
   26.1068  -20.2697  -10.8543 N   0  0  0  0  0  0  0  0  0  0  0  0
   23.7864  -20.5256  -10.3369 C   0  0  0  0  0  0  0  0  0  0  0  0
   23.5227  -19.5377  -11.2865 O   0  0  0  0  0  0  0  0  0  0  0  0
   22.7817  -21.1107   -9.8552 O   0  0  0  0  0  0  0  0  0  0  0  0
  2  1  1  0
  2  3  2  0
  4  2  1  0
  5  4  1  0
  6  5  1  0
  6  7  1  6
  8  6  1  0
  8 10  1  0
  9  8  2  0
 11 10  1  0
 11 12  1  0
 12 19  1  0
 13 12  2  0
 15 14  1  1
 16 15  1  0
 17 15  1  0
 18 17  1  1
 19 18  1  0
 20 21  1  0
 20 18  1  0
 22 20  2  0
M  END
$$$$
