QGL.pdb
     RDKit          3D

 22 21  0  0  1  0  0  0  0  0999 V2000
   18.2076  -12.8596  -19.4755 N   0  0  0  0  0  0  0  0  0  0  0  0
   18.2645  -12.0310  -18.2926 C   0  0  0  0  0  0  0  0  0  0  0  0
   19.0892  -11.1143  -18.2957 O   0  0  0  0  0  0  0  0  0  0  0  0
   17.3719  -12.2830  -17.1545 C   0  0  0  0  0  0  0  0  0  0  0  0
   17.9885  -12.0513  -15.8124 C   0  0  0  0  0  0  0  0  0  0  0  0
   17.0435  -12.1265  -14.6659 C   0  0  2  0  0  0  0  0  0  0  0  0
   15.7145  -11.6709  -14.8947 N   0  0  0  0  0  0  0  0  0  0  0  0
   17.6275  -11.2689  -13.5729 C   0  0  0  0  0  0  0  0  0  0  0  0
   18.7382  -11.5149  -13.0516 O   0  0  0  0  0  0  0  0  0  0  0  0
   16.8744  -10.1236  -13.1150 N   0  0  0  0  0  0  0  0  0  0  0  0
   17.5081   -9.2980  -12.1361 C   0  0  0  0  0  0  0  0  0  0  0  0
   16.6562   -8.1686  -11.7134 C   0  0  0  0  0  0  0  0  0  0  0  0
   15.7831   -7.7241  -12.5445 O   0  0  0  0  0  0  0  0  0  0  0  0
   14.8648   -7.2482   -6.6087 C   0  0  0  0  0  0  0  0  0  0  0  0
   14.8385   -7.4461   -8.1312 C   0  0  1  0  0  0  0  0  0  0  0  0
   13.4066   -7.5084   -8.5373 C   0  0  0  0  0  0  0  0  0  0  0  0
   15.6026   -6.3049   -8.7211 C   0  0  0  0  0  0  0  0  0  0  0  0
   15.7819   -6.4101  -10.2124 C   0  0  2  0  0  0  0  0  0  0  0  0
   16.6930   -7.5078  -10.4731 N   0  0  0  0  0  0  0  0  0  0  0  0
   16.3963   -5.1479  -10.7193 C   0  0  0  0  0  0  0  0  0  0  0  0
   15.6329   -4.0139  -10.9998 O   0  0  0  0  0  0  0  0  0  0  0  0
   17.6344   -5.0434  -10.9191 O   0  0  0  0  0  0  0  0  0  0  0  0
  2  1  1  0
  2  3  2  0
  4  2  1  0
  5  4  1  0
  6  5  1  0
  6  7  1  6
  8  6  1  0
  8 10  1  0
  9  8  2  0
 11 10  1  0
 11 12  1  0
 12 19  1  0
 13 12  2  0
 15 14  1  1
 16 15  1  0
 17 15  1  0
 18 17  1  1
 19 18  1  0
 20 21  1  0
 20 18  1  0
 22 20  2  0
M  END
$$$$
