QGL.pdb
     RDKit          3D

 22 21  0  0  1  0  0  0  0  0999 V2000
   20.9019  -19.4211  -13.9157 N   0  0  0  0  0  0  0  0  0  0  0  0
   21.2139  -20.7840  -13.5495 C   0  0  0  0  0  0  0  0  0  0  0  0
   20.4213  -21.6536  -13.9183 O   0  0  0  0  0  0  0  0  0  0  0  0
   22.4233  -21.0972  -12.7783 C   0  0  0  0  0  0  0  0  0  0  0  0
   23.2133  -19.9053  -12.3418 C   0  0  0  0  0  0  0  0  0  0  0  0
   24.1353  -19.3522  -13.3701 C   0  0  2  0  0  0  0  0  0  0  0  0
   23.8478  -19.6644  -14.7288 N   0  0  0  0  0  0  0  0  0  0  0  0
   25.5017  -19.9091  -13.0636 C   0  0  0  0  0  0  0  0  0  0  0  0
   26.3903  -20.0190  -13.9377 O   0  0  0  0  0  0  0  0  0  0  0  0
   25.7904  -20.3289  -11.7112 N   0  0  0  0  0  0  0  0  0  0  0  0
   27.1353  -20.7319  -11.4456 C   0  0  0  0  0  0  0  0  0  0  0  0
   27.3207  -21.1991  -10.0574 C   0  0  0  0  0  0  0  0  0  0  0  0
   28.4493  -21.7250   -9.7407 O   0  0  0  0  0  0  0  0  0  0  0  0
   29.4379  -21.0840   -5.8217 C   0  0  0  0  0  0  0  0  0  0  0  0
   28.2174  -20.1555   -5.9016 C   0  0  1  0  0  0  0  0  0  0  0  0
   28.6529  -18.8207   -5.4036 C   0  0  0  0  0  0  0  0  0  0  0  0
   27.7653  -20.1700   -7.3262 C   0  0  0  0  0  0  0  0  0  0  0  0
   26.8094  -21.2901   -7.6408 C   0  0  2  0  0  0  0  0  0  0  0  0
   26.3783  -21.1320   -9.0163 N   0  0  0  0  0  0  0  0  0  0  0  0
   25.6172  -21.1774   -6.7499 C   0  0  0  0  0  0  0  0  0  0  0  0
   25.5707  -21.7863   -5.4952 O   0  0  0  0  0  0  0  0  0  0  0  0
   24.5937  -20.5270   -7.0863 O   0  0  0  0  0  0  0  0  0  0  0  0
  2  1  1  0
  2  3  2  0
  4  2  1  0
  5  4  1  0
  6  5  1  0
  6  7  1  6
  8  6  1  0
  8 10  1  0
  9  8  2  0
 11 10  1  0
 11 12  1  0
 12 19  1  0
 13 12  2  0
 15 14  1  6
 16 15  1  0
 17 15  1  0
 18 17  1  1
 19 18  1  0
 20 21  1  0
 20 18  1  0
 22 20  2  0
M  END
$$$$
