QGL.pdb
     RDKit          3D

 22 21  0  0  1  0  0  0  0  0999 V2000
   25.1954  -21.3010  -18.2255 N   0  0  0  0  0  0  0  0  0  0  0  0
   24.7890  -21.6376  -16.8799 C   0  0  0  0  0  0  0  0  0  0  0  0
   24.9886  -22.7978  -16.5131 O   0  0  0  0  0  0  0  0  0  0  0  0
   24.1733  -20.6307  -16.0065 C   0  0  0  0  0  0  0  0  0  0  0  0
   23.9236  -19.3075  -16.6560 C   0  0  0  0  0  0  0  0  0  0  0  0
   25.0544  -18.3443  -16.5736 C   0  0  2  0  0  0  0  0  0  0  0  0
   26.2764  -18.7298  -17.1937 N   0  0  0  0  0  0  0  0  0  0  0  0
   25.3410  -18.1451  -15.1076 C   0  0  0  0  0  0  0  0  0  0  0  0
   24.4564  -17.7944  -14.2950 O   0  0  0  0  0  0  0  0  0  0  0  0
   26.6862  -18.3688  -14.6289 N   0  0  0  0  0  0  0  0  0  0  0  0
   26.8893  -18.2321  -13.2212 C   0  0  0  0  0  0  0  0  0  0  0  0
   26.3826  -19.3930  -12.4626 C   0  0  0  0  0  0  0  0  0  0  0  0
   26.3859  -20.5414  -13.0386 O   0  0  0  0  0  0  0  0  0  0  0  0
   27.2960  -19.5507   -7.2698 C   0  0  0  0  0  0  0  0  0  0  0  0
   27.2547  -19.9335   -8.7564 C   0  0  1  0  0  0  0  0  0  0  0  0
   28.3548  -20.9118   -8.9845 C   0  0  0  0  0  0  0  0  0  0  0  0
   25.8837  -20.4677   -9.0195 C   0  0  0  0  0  0  0  0  0  0  0  0
   25.5763  -20.6357  -10.4839 C   0  0  2  0  0  0  0  0  0  0  0  0
   25.8842  -19.3839  -11.1481 N   0  0  0  0  0  0  0  0  0  0  0  0
   24.1197  -20.9179  -10.6464 C   0  0  0  0  0  0  0  0  0  0  0  0
   23.5448  -22.1135  -10.2138 O   0  0  0  0  0  0  0  0  0  0  0  0
   23.3370  -20.0908  -11.1821 O   0  0  0  0  0  0  0  0  0  0  0  0
  2  1  1  0
  2  3  2  0
  4  2  1  0
  5  4  1  0
  6  5  1  0
  6  7  1  6
  8  6  1  0
  8 10  1  0
  9  8  2  0
 11 10  1  0
 11 12  1  0
 12 19  1  0
 13 12  2  0
 15 14  1  1
 16 15  1  0
 17 15  1  0
 18 17  1  1
 19 18  1  0
 20 21  1  0
 20 18  1  0
 22 20  2  0
M  END
$$$$
