QGL.pdb
     RDKit          3D

 22 21  0  0  1  0  0  0  0  0999 V2000
   23.5215  -20.2076  -19.5305 N   0  0  0  0  0  0  0  0  0  0  0  0
   23.7681  -19.2349  -18.4904 C   0  0  0  0  0  0  0  0  0  0  0  0
   24.8982  -19.2235  -17.9971 O   0  0  0  0  0  0  0  0  0  0  0  0
   22.7115  -18.3114  -18.0589 C   0  0  0  0  0  0  0  0  0  0  0  0
   21.8017  -18.8510  -17.0024 C   0  0  0  0  0  0  0  0  0  0  0  0
   20.3514  -18.7782  -17.3257 C   0  0  2  0  0  0  0  0  0  0  0  0
   19.9875  -18.9255  -18.6939 N   0  0  0  0  0  0  0  0  0  0  0  0
   19.8821  -17.4163  -16.8830 C   0  0  0  0  0  0  0  0  0  0  0  0
   19.8396  -17.0829  -15.6777 O   0  0  0  0  0  0  0  0  0  0  0  0
   19.4682  -16.4660  -17.8901 N   0  0  0  0  0  0  0  0  0  0  0  0
   18.9500  -15.2225  -17.4138 C   0  0  0  0  0  0  0  0  0  0  0  0
   19.8500  -14.0883  -17.7028 C   0  0  0  0  0  0  0  0  0  0  0  0
   21.1173  -14.2973  -17.6719 O   0  0  0  0  0  0  0  0  0  0  0  0
   22.9957  -11.1301  -20.0115 C   0  0  0  0  0  0  0  0  0  0  0  0
   21.5719  -10.5943  -20.2206 C   0  0  1  0  0  0  0  0  0  0  0  0
   21.4559  -10.2160  -21.6568 C   0  0  0  0  0  0  0  0  0  0  0  0
   20.6413  -11.6808  -19.7871 C   0  0  0  0  0  0  0  0  0  0  0  0
   20.4809  -11.7724  -18.2928 C   0  0  2  0  0  0  0  0  0  0  0  0
   19.4677  -12.7722  -18.0160 N   0  0  0  0  0  0  0  0  0  0  0  0
   20.0086  -10.4557  -17.7722 C   0  0  0  0  0  0  0  0  0  0  0  0
   20.8733   -9.3738  -17.6023 O   0  0  0  0  0  0  0  0  0  0  0  0
   18.8059  -10.2557  -17.4603 O   0  0  0  0  0  0  0  0  0  0  0  0
  2  1  1  0
  2  3  2  0
  4  2  1  0
  5  4  1  0
  6  5  1  0
  6  7  1  6
  8  6  1  0
  8 10  1  0
  9  8  2  0
 11 10  1  0
 11 12  1  0
 12 19  1  0
 13 12  2  0
 15 14  1  6
 16 15  1  0
 17 15  1  0
 18 17  1  6
 19 18  1  0
 20 21  1  0
 20 18  1  0
 22 20  2  0
M  END
$$$$
