QGL.pdb
     RDKit          3D

 22 21  0  0  1  0  0  0  0  0999 V2000
   18.3463  -23.2537  -16.3240 N   0  0  0  0  0  0  0  0  0  0  0  0
   17.5449  -22.0981  -16.6576 C   0  0  0  0  0  0  0  0  0  0  0  0
   16.3207  -22.2410  -16.6186 O   0  0  0  0  0  0  0  0  0  0  0  0
   18.1775  -20.8235  -17.0191 C   0  0  0  0  0  0  0  0  0  0  0  0
   19.6710  -20.8249  -16.9521 C   0  0  0  0  0  0  0  0  0  0  0  0
   20.2383  -20.6664  -15.5859 C   0  0  2  0  0  0  0  0  0  0  0  0
   20.2198  -19.3570  -15.0279 N   0  0  0  0  0  0  0  0  0  0  0  0
   21.6804  -21.0960  -15.6688 C   0  0  0  0  0  0  0  0  0  0  0  0
   22.3886  -20.8697  -16.6754 O   0  0  0  0  0  0  0  0  0  0  0  0
   22.2605  -21.7930  -14.5436 N   0  0  0  0  0  0  0  0  0  0  0  0
   23.6395  -22.1485  -14.6603 C   0  0  0  0  0  0  0  0  0  0  0  0
   24.5277  -21.2030  -13.9551 C   0  0  0  0  0  0  0  0  0  0  0  0
   24.4824  -19.9638  -14.2910 O   0  0  0  0  0  0  0  0  0  0  0  0
   24.5409  -21.0962  -10.1187 C   0  0  0  0  0  0  0  0  0  0  0  0
   25.9047  -20.4132   -9.9410 C   0  0  1  0  0  0  0  0  0  0  0  0
   26.3843  -20.7489   -8.5711 C   0  0  0  0  0  0  0  0  0  0  0  0
   26.7781  -20.9150  -11.0454 C   0  0  0  0  0  0  0  0  0  0  0  0
   26.3216  -20.4842  -12.4140 C   0  0  2  0  0  0  0  0  0  0  0  0
   25.4404  -21.5130  -12.9317 N   0  0  0  0  0  0  0  0  0  0  0  0
   27.5091  -20.3755  -13.3116 C   0  0  0  0  0  0  0  0  0  0  0  0
   28.2304  -19.1883  -13.4440 O   0  0  0  0  0  0  0  0  0  0  0  0
   27.9193  -21.3499  -13.9942 O   0  0  0  0  0  0  0  0  0  0  0  0
  2  1  1  0
  2  3  2  0
  4  2  1  0
  5  4  1  0
  6  5  1  0
  6  7  1  6
  8  6  1  0
  8 10  1  0
  9  8  2  0
 11 10  1  0
 11 12  1  0
 12 19  1  0
 13 12  2  0
 15 14  1  6
 16 15  1  0
 17 15  1  0
 18 17  1  1
 19 18  1  0
 20 21  1  0
 20 18  1  0
 22 20  2  0
M  END
$$$$
