QGL.pdb
     RDKit          3D

 22 21  0  0  1  0  0  0  0  0999 V2000
   21.7014  -21.1655   -8.4037 N   0  0  0  0  0  0  0  0  0  0  0  0
   20.5177  -20.9853   -9.2133 C   0  0  0  0  0  0  0  0  0  0  0  0
   19.4350  -20.9907   -8.6233 O   0  0  0  0  0  0  0  0  0  0  0  0
   20.6215  -20.8025  -10.6664 C   0  0  0  0  0  0  0  0  0  0  0  0
   22.0194  -20.7806  -11.1961 C   0  0  0  0  0  0  0  0  0  0  0  0
   22.1330  -20.5271  -12.6576 C   0  0  2  0  0  0  0  0  0  0  0  0
   21.5373  -21.4845  -13.5264 N   0  0  0  0  0  0  0  0  0  0  0  0
   23.6063  -20.4939  -12.9730 C   0  0  0  0  0  0  0  0  0  0  0  0
   24.4349  -21.2139  -12.3723 O   0  0  0  0  0  0  0  0  0  0  0  0
   24.0728  -19.5978  -14.0063 N   0  0  0  0  0  0  0  0  0  0  0  0
   25.4745  -19.6230  -14.2824 C   0  0  0  0  0  0  0  0  0  0  0  0
   25.8594  -18.6633  -15.3364 C   0  0  0  0  0  0  0  0  0  0  0  0
   24.9261  -18.0139  -15.9346 O   0  0  0  0  0  0  0  0  0  0  0  0
   28.9146  -14.8602  -17.6493 C   0  0  0  0  0  0  0  0  0  0  0  0
   29.2238  -16.2924  -18.1090 C   0  0  1  0  0  0  0  0  0  0  0  0
   30.6645  -16.3267  -18.4864 C   0  0  0  0  0  0  0  0  0  0  0  0
   28.8576  -17.1916  -16.9725 C   0  0  0  0  0  0  0  0  0  0  0  0
   27.3739  -17.4065  -16.8318 C   0  0  2  0  0  0  0  0  0  0  0  0
   27.1645  -18.3724  -15.7706 N   0  0  0  0  0  0  0  0  0  0  0  0
   26.8409  -17.9725  -18.1058 C   0  0  0  0  0  0  0  0  0  0  0  0
   26.2007  -17.1782  -19.0579 O   0  0  0  0  0  0  0  0  0  0  0  0
   26.9425  -19.1954  -18.3850 O   0  0  0  0  0  0  0  0  0  0  0  0
  2  1  1  0
  2  3  2  0
  4  2  1  0
  5  4  1  0
  6  5  1  0
  6  7  1  6
  8  6  1  0
  8 10  1  0
  9  8  2  0
 11 10  1  0
 11 12  1  0
 12 19  1  0
 13 12  2  0
 15 14  1  1
 16 15  1  0
 17 15  1  0
 18 17  1  6
 19 18  1  0
 20 21  1  0
 20 18  1  0
 22 20  2  0
M  END
$$$$
