VHR.pdb
     RDKit          3D

 29 29  0  0  1  0  0  0  0  0999 V2000
    6.9430  -13.2282   19.4456 C   0  0  0  0  0  0  0  0  0  0  0  0
    8.3054  -13.7944   19.6267 C   0  0  2  0  0  0  0  0  0  0  0  0
    9.1518  -12.7526   20.3678 C   0  0  0  0  0  0  0  0  0  0  0  0
    8.9901  -14.2247   18.3519 C   0  0  2  0  0  0  0  0  0  0  0  0
    8.1282  -15.0922   17.6143 N   0  0  0  0  0  0  0  0  0  0  0  0
   10.2492  -14.9271   18.6984 C   0  0  0  0  0  0  0  0  0  0  0  0
   10.2070  -16.1258   18.9994 O   0  0  0  0  0  0  0  0  0  0  0  0
   11.5220  -14.3334   18.7146 N   0  0  0  0  0  0  0  0  0  0  0  0
   12.7035  -14.9218   19.1580 C   0  0  1  0  0  0  0  0  0  0  0  0
   13.8567  -15.1642   18.2699 C   0  0  0  0  0  0  0  0  0  0  0  0
   13.4717  -15.8782   17.0388 C   0  0  0  0  0  0  0  0  0  0  0  0
   12.4197  -15.6348   16.2104 C   0  0  0  0  0  0  0  0  0  0  0  0
   12.4217  -16.5010   15.1732 N   0  0  0  0  0  0  0  0  0  0  0  0
   13.4715  -17.2972   15.3354 C   0  0  0  0  0  0  0  0  0  0  0  0
   14.1184  -16.9371   16.4563 N   0  0  0  0  0  0  0  0  0  0  0  0
   13.1598  -14.2847   20.4111 C   0  0  0  0  0  0  0  0  0  0  0  0
   14.0252  -13.3345   20.3885 O   0  0  0  0  0  0  0  0  0  0  0  0
   11.9279  -22.2105   21.7372 N   0  0  0  0  0  0  0  0  0  0  0  0
   12.9183  -21.9383   22.7240 C   0  0  0  0  0  0  0  0  0  0  0  0
   13.3858  -22.9060   23.4384 N   0  0  0  0  0  0  0  0  0  0  0  0
   13.4028  -20.6222   22.9383 N   0  0  0  0  0  0  0  0  0  0  0  0
   12.8492  -19.4720   22.2461 C   0  0  0  0  0  0  0  0  0  0  0  0
   13.4537  -18.1811   22.7638 C   0  0  0  0  0  0  0  0  0  0  0  0
   12.8498  -17.0560   21.9666 C   0  0  0  0  0  0  0  0  0  0  0  0
   13.3205  -15.6949   22.4859 C   0  0  2  0  0  0  0  0  0  0  0  0
   12.7208  -14.6270   21.7110 N   0  0  0  0  0  0  0  0  0  0  0  0
   14.7810  -15.6537   22.2688 C   0  0  0  0  0  0  0  0  0  0  0  0
   15.3177  -15.9226   21.1555 O   0  0  0  0  0  0  0  0  0  0  0  0
   15.6032  -15.3073   23.3233 O   0  0  0  0  0  0  0  0  0  0  0  0
  2  1  1  6
  2  4  1  0
  2  3  1  0
  4  5  1  1
  6  4  1  0
  7  6  2  0
  8  6  1  0
  9  8  1  0
  9 10  1  6
 10 11  1  0
 11 12  2  0
 11 15  1  0
 12 13  1  0
 13 14  1  0
 15 14  2  0
 16 26  1  0
 16  9  1  0
 17 16  2  0
 18 19  1  0
 19 21  1  0
 19 20  2  0
 21 22  1  0
 22 23  1  0
 23 24  1  0
 25 24  1  6
 25 26  1  0
 25 27  1  0
 27 29  1  0
 28 27  2  0
M  END
$$$$
