VHR.pdb
     RDKit          3D

 29 29  0  0  1  0  0  0  0  0999 V2000
    9.2469  -20.9355   18.0726 C   0  0  0  0  0  0  0  0  0  0  0  0
    7.9613  -20.6861   17.3692 C   0  0  2  0  0  0  0  0  0  0  0  0
    7.5929  -21.9598   16.5993 C   0  0  0  0  0  0  0  0  0  0  0  0
    7.9622  -19.4906   16.4473 C   0  0  2  0  0  0  0  0  0  0  0  0
    8.9067  -19.6967   15.3961 N   0  0  0  0  0  0  0  0  0  0  0  0
    8.3219  -18.2832   17.2295 C   0  0  0  0  0  0  0  0  0  0  0  0
    9.5158  -18.0110   17.4023 O   0  0  0  0  0  0  0  0  0  0  0  0
    7.3991  -17.3961   17.8074 N   0  0  0  0  0  0  0  0  0  0  0  0
    7.6991  -16.2856   18.5920 C   0  0  1  0  0  0  0  0  0  0  0  0
    6.7595  -15.1635   18.7795 C   0  0  0  0  0  0  0  0  0  0  0  0
    7.3716  -14.0407   19.5134 C   0  0  0  0  0  0  0  0  0  0  0  0
    8.0542  -12.9736   19.0161 C   0  0  0  0  0  0  0  0  0  0  0  0
    8.4404  -12.1494   20.0150 N   0  0  0  0  0  0  0  0  0  0  0  0
    8.0066  -12.6859   21.1493 C   0  0  0  0  0  0  0  0  0  0  0  0
    7.3587  -13.8283   20.8675 N   0  0  0  0  0  0  0  0  0  0  0  0
    8.2438  -16.7083   19.8993 C   0  0  0  0  0  0  0  0  0  0  0  0
    7.6559  -17.6156   20.5945 O   0  0  0  0  0  0  0  0  0  0  0  0
   16.2354  -18.1774   19.6161 N   0  0  0  0  0  0  0  0  0  0  0  0
   15.3305  -19.1544   20.1215 C   0  0  0  0  0  0  0  0  0  0  0  0
   15.7853  -20.2929   20.5247 N   0  0  0  0  0  0  0  0  0  0  0  0
   13.9363  -18.9014   20.1910 N   0  0  0  0  0  0  0  0  0  0  0  0
   13.3842  -17.8290   20.9995 C   0  0  0  0  0  0  0  0  0  0  0  0
   11.8682  -17.8456   20.9656 C   0  0  0  0  0  0  0  0  0  0  0  0
   11.3912  -16.7191   21.8429 C   0  0  0  0  0  0  0  0  0  0  0  0
    9.8646  -16.6065   21.8182 C   0  0  2  0  0  0  0  0  0  0  0  0
    9.4128  -16.1922   20.5049 N   0  0  0  0  0  0  0  0  0  0  0  0
    9.5144  -15.5416   22.7801 C   0  0  0  0  0  0  0  0  0  0  0  0
    9.0282  -14.4289   22.4259 O   0  0  0  0  0  0  0  0  0  0  0  0
    9.7242  -15.7633   24.1271 O   0  0  0  0  0  0  0  0  0  0  0  0
  2  1  1  6
  2  4  1  0
  2  3  1  0
  4  5  1  6
  6  4  1  0
  7  6  2  0
  8  6  1  0
  9  8  1  0
  9 10  1  1
 10 11  1  0
 11 12  2  0
 11 15  1  0
 12 13  1  0
 13 14  1  0
 15 14  2  0
 16 26  1  0
 16  9  1  0
 17 16  2  0
 18 19  1  0
 19 21  1  0
 19 20  2  0
 21 22  1  0
 22 23  1  0
 23 24  1  0
 25 24  1  6
 25 26  1  0
 25 27  1  0
 27 29  1  0
 28 27  2  0
M  END
$$$$
