VHR.pdb
     RDKit          3D

 29 29  0  0  1  0  0  0  0  0999 V2000
    7.9247  -13.1232   20.9025 C   0  0  0  0  0  0  0  0  0  0  0  0
    8.7627  -12.3765   19.9279 C   0  0  2  0  0  0  0  0  0  0  0  0
    7.9379  -11.1921   19.4105 C   0  0  0  0  0  0  0  0  0  0  0  0
    9.2872  -13.2008   18.7770 C   0  0  2  0  0  0  0  0  0  0  0  0
    8.1922  -13.7453   18.0394 N   0  0  0  0  0  0  0  0  0  0  0  0
   10.1343  -14.2917   19.3166 C   0  0  0  0  0  0  0  0  0  0  0  0
    9.6564  -15.4271   19.4265 O   0  0  0  0  0  0  0  0  0  0  0  0
   11.4701  -14.1446   19.7248 N   0  0  0  0  0  0  0  0  0  0  0  0
   12.3003  -15.1488   20.2157 C   0  0  1  0  0  0  0  0  0  0  0  0
   13.7723  -15.0715   20.1480 C   0  0  0  0  0  0  0  0  0  0  0  0
   14.2701  -15.1268   18.7614 C   0  0  0  0  0  0  0  0  0  0  0  0
   13.8525  -15.9247   17.7411 C   0  0  0  0  0  0  0  0  0  0  0  0
   14.5488  -15.6581   16.6141 N   0  0  0  0  0  0  0  0  0  0  0  0
   15.4101  -14.6922   16.9103 C   0  0  0  0  0  0  0  0  0  0  0  0
   15.2573  -14.3576   18.2022 N   0  0  0  0  0  0  0  0  0  0  0  0
   11.8804  -15.5482   21.5753 C   0  0  0  0  0  0  0  0  0  0  0  0
   11.7064  -14.6675   22.4952 O   0  0  0  0  0  0  0  0  0  0  0  0
    9.3029  -21.7044   18.9625 N   0  0  0  0  0  0  0  0  0  0  0  0
    8.1996  -21.2550   19.7431 C   0  0  0  0  0  0  0  0  0  0  0  0
    7.0863  -21.9064   19.7032 N   0  0  0  0  0  0  0  0  0  0  0  0
    8.2993  -20.1034   20.5655 N   0  0  0  0  0  0  0  0  0  0  0  0
    9.2655  -20.0051   21.6450 C   0  0  0  0  0  0  0  0  0  0  0  0
    9.2811  -18.6093   22.2376 C   0  0  0  0  0  0  0  0  0  0  0  0
   10.3924  -18.5692   23.2523 C   0  0  0  0  0  0  0  0  0  0  0  0
   11.0568  -17.1905   23.2912 C   0  0  2  0  0  0  0  0  0  0  0  0
   11.6335  -16.8743   21.9996 N   0  0  0  0  0  0  0  0  0  0  0  0
   12.1570  -17.2908   24.2718 C   0  0  0  0  0  0  0  0  0  0  0  0
   13.3768  -17.2185   23.9452 O   0  0  0  0  0  0  0  0  0  0  0  0
   11.8478  -17.4716   25.6057 O   0  0  0  0  0  0  0  0  0  0  0  0
  2  1  1  1
  2  4  1  0
  2  3  1  0
  4  5  1  1
  6  4  1  0
  7  6  2  0
  8  6  1  0
  9  8  1  0
  9 10  1  1
 10 11  1  0
 11 12  2  0
 11 15  1  0
 12 13  1  0
 13 14  1  0
 15 14  2  0
 16 26  1  0
 16  9  1  0
 17 16  2  0
 18 19  1  0
 19 21  1  0
 19 20  2  0
 21 22  1  0
 22 23  1  0
 23 24  1  0
 25 24  1  6
 25 26  1  0
 25 27  1  0
 27 29  1  0
 28 27  2  0
M  END
$$$$
