VHR.pdb
     RDKit          3D

 29 29  0  0  1  0  0  0  0  0999 V2000
    7.5324  -12.5812   17.7504 C   0  0  0  0  0  0  0  0  0  0  0  0
    7.9469  -13.6272   18.7219 C   0  0  2  0  0  0  0  0  0  0  0  0
    7.2323  -13.3449   20.0487 C   0  0  0  0  0  0  0  0  0  0  0  0
    9.4370  -13.7419   18.9359 C   0  0  2  0  0  0  0  0  0  0  0  0
   10.0947  -13.8599   17.6737 N   0  0  0  0  0  0  0  0  0  0  0  0
    9.7102  -14.9374   19.7695 C   0  0  0  0  0  0  0  0  0  0  0  0
    9.1587  -15.0421   20.8715 O   0  0  0  0  0  0  0  0  0  0  0  0
   10.5643  -15.9917   19.4067 N   0  0  0  0  0  0  0  0  0  0  0  0
   10.9149  -17.0820   20.1986 C   0  0  1  0  0  0  0  0  0  0  0  0
   11.4742  -18.3276   19.6392 C   0  0  0  0  0  0  0  0  0  0  0  0
   10.5095  -19.0334   18.7761 C   0  0  0  0  0  0  0  0  0  0  0  0
    9.3374  -19.6304   19.1250 C   0  0  0  0  0  0  0  0  0  0  0  0
    8.7285  -20.1529   18.0376 N   0  0  0  0  0  0  0  0  0  0  0  0
    9.5072  -19.8917   16.9945 C   0  0  0  0  0  0  0  0  0  0  0  0
   10.5877  -19.2162   17.4199 N   0  0  0  0  0  0  0  0  0  0  0  0
   11.7247  -16.6425   21.3542 C   0  0  0  0  0  0  0  0  0  0  0  0
   12.7060  -15.8272   21.1977 O   0  0  0  0  0  0  0  0  0  0  0  0
    9.9030  -16.8522   30.0290 N   0  0  0  0  0  0  0  0  0  0  0  0
   10.4457  -15.5604   29.7733 C   0  0  0  0  0  0  0  0  0  0  0  0
   10.4624  -14.6804   30.7172 N   0  0  0  0  0  0  0  0  0  0  0  0
   10.9696  -15.2200   28.4996 N   0  0  0  0  0  0  0  0  0  0  0  0
   10.5942  -15.9350   27.2927 C   0  0  0  0  0  0  0  0  0  0  0  0
   11.3257  -15.3853   26.0834 C   0  0  0  0  0  0  0  0  0  0  0  0
   10.8745  -16.1837   24.8896 C   0  0  0  0  0  0  0  0  0  0  0  0
   11.9732  -16.2579   23.8260 C   0  0  2  0  0  0  0  0  0  0  0  0
   11.5247  -17.0453   22.6949 N   0  0  0  0  0  0  0  0  0  0  0  0
   13.1080  -16.9644   24.4546 C   0  0  0  0  0  0  0  0  0  0  0  0
   13.8610  -16.4248   25.3158 O   0  0  0  0  0  0  0  0  0  0  0  0
   13.3642  -18.2720   24.0910 O   0  0  0  0  0  0  0  0  0  0  0  0
  2  1  1  6
  2  4  1  0
  2  3  1  0
  4  5  1  6
  6  4  1  0
  7  6  2  0
  8  6  1  0
  9  8  1  0
  9 10  1  6
 10 11  1  0
 11 12  2  0
 11 15  1  0
 12 13  1  0
 13 14  1  0
 15 14  2  0
 16 26  1  0
 16  9  1  0
 17 16  2  0
 18 19  1  0
 19 21  1  0
 19 20  2  0
 21 22  1  0
 22 23  1  0
 23 24  1  0
 25 24  1  1
 25 26  1  0
 25 27  1  0
 27 29  1  0
 28 27  2  0
M  END
$$$$
