VHR.pdb
     RDKit          3D

 29 29  0  0  1  0  0  0  0  0999 V2000
    2.4851  -20.3306   21.5136 C   0  0  0  0  0  0  0  0  0  0  0  0
    3.6324  -19.3855   21.5041 C   0  0  2  0  0  0  0  0  0  0  0  0
    3.3571  -18.3027   22.5541 C   0  0  0  0  0  0  0  0  0  0  0  0
    3.9303  -18.7601   20.1627 C   0  0  2  0  0  0  0  0  0  0  0  0
    4.1735  -19.7857   19.1991 N   0  0  0  0  0  0  0  0  0  0  0  0
    5.1226  -17.8885   20.2951 C   0  0  0  0  0  0  0  0  0  0  0  0
    6.2414  -18.4078   20.3840 O   0  0  0  0  0  0  0  0  0  0  0  0
    5.0918  -16.4847   20.3287 N   0  0  0  0  0  0  0  0  0  0  0  0
    6.1926  -15.6346   20.3947 C   0  0  1  0  0  0  0  0  0  0  0  0
    6.1323  -14.2176   19.9878 C   0  0  0  0  0  0  0  0  0  0  0  0
    7.4700  -13.6028   19.9093 C   0  0  0  0  0  0  0  0  0  0  0  0
    8.0107  -12.6427   20.7080 C   0  0  0  0  0  0  0  0  0  0  0  0
    9.2741  -12.3593   20.3212 N   0  0  0  0  0  0  0  0  0  0  0  0
    9.5432  -13.1352   19.2781 C   0  0  0  0  0  0  0  0  0  0  0  0
    8.4663  -13.8935   19.0140 N   0  0  0  0  0  0  0  0  0  0  0  0
    6.8581  -15.7517   21.7092 C   0  0  0  0  0  0  0  0  0  0  0  0
    6.2345  -15.4480   22.7914 O   0  0  0  0  0  0  0  0  0  0  0  0
    9.5599  -19.5173   28.0865 N   0  0  0  0  0  0  0  0  0  0  0  0
    8.1667  -19.7437   27.8952 C   0  0  0  0  0  0  0  0  0  0  0  0
    7.4332  -20.0769   28.9032 N   0  0  0  0  0  0  0  0  0  0  0  0
    7.5674  -19.6102   26.6163 N   0  0  0  0  0  0  0  0  0  0  0  0
    8.3434  -19.3120   25.4257 C   0  0  0  0  0  0  0  0  0  0  0  0
    8.2255  -17.8474   25.0505 C   0  0  0  0  0  0  0  0  0  0  0  0
    8.9128  -17.6716   23.7228 C   0  0  0  0  0  0  0  0  0  0  0  0
    8.8028  -16.2263   23.2298 C   0  0  2  0  0  0  0  0  0  0  0  0
    8.1866  -16.1886   21.9185 N   0  0  0  0  0  0  0  0  0  0  0  0
   10.1876  -15.7290   23.0995 C   0  0  0  0  0  0  0  0  0  0  0  0
   10.8337  -15.7729   22.0130 O   0  0  0  0  0  0  0  0  0  0  0  0
   10.8108  -15.1911   24.2085 O   0  0  0  0  0  0  0  0  0  0  0  0
  2  1  1  6
  2  4  1  0
  2  3  1  0
  4  5  1  6
  6  4  1  0
  7  6  2  0
  8  6  1  0
  9  8  1  0
  9 10  1  1
 10 11  1  0
 11 12  2  0
 11 15  1  0
 12 13  1  0
 13 14  1  0
 15 14  2  0
 16 26  1  0
 16  9  1  0
 17 16  2  0
 18 19  1  0
 19 21  1  0
 19 20  2  0
 21 22  1  0
 22 23  1  0
 23 24  1  0
 25 24  1  6
 25 26  1  0
 25 27  1  0
 27 29  1  0
 28 27  2  0
M  END
$$$$
