VHR.pdb
     RDKit          3D

 29 29  0  0  1  0  0  0  0  0999 V2000
    9.0855  -20.7681   19.7430 C   0  0  0  0  0  0  0  0  0  0  0  0
    7.7811  -20.0802   19.5554 C   0  0  2  0  0  0  0  0  0  0  0  0
    6.7805  -21.1100   19.0179 C   0  0  0  0  0  0  0  0  0  0  0  0
    7.8254  -18.8658   18.6596 C   0  0  2  0  0  0  0  0  0  0  0  0
    8.2953  -19.2424   17.3647 N   0  0  0  0  0  0  0  0  0  0  0  0
    8.7337  -17.8600   19.2614 C   0  0  0  0  0  0  0  0  0  0  0  0
    9.9022  -17.7886   18.8629 O   0  0  0  0  0  0  0  0  0  0  0  0
    8.3726  -16.9548   20.2729 N   0  0  0  0  0  0  0  0  0  0  0  0
    9.1848  -15.9712   20.8311 C   0  0  1  0  0  0  0  0  0  0  0  0
    8.7336  -14.5801   21.0270 C   0  0  0  0  0  0  0  0  0  0  0  0
    8.2091  -13.9841   19.7847 C   0  0  0  0  0  0  0  0  0  0  0  0
    6.9718  -13.4694   19.5470 C   0  0  0  0  0  0  0  0  0  0  0  0
    6.8881  -12.9986   18.2831 N   0  0  0  0  0  0  0  0  0  0  0  0
    8.0677  -13.2102   17.7120 C   0  0  0  0  0  0  0  0  0  0  0  0
    8.8791  -13.8043   18.6025 N   0  0  0  0  0  0  0  0  0  0  0  0
    9.8262  -16.4697   22.0658 C   0  0  0  0  0  0  0  0  0  0  0  0
    9.1243  -16.7429   23.1074 O   0  0  0  0  0  0  0  0  0  0  0  0
   16.2809  -21.4195   20.5005 N   0  0  0  0  0  0  0  0  0  0  0  0
   14.9526  -21.5971   20.0180 C   0  0  0  0  0  0  0  0  0  0  0  0
   14.7137  -22.5088   19.1365 N   0  0  0  0  0  0  0  0  0  0  0  0
   13.8841  -20.7905   20.4875 N   0  0  0  0  0  0  0  0  0  0  0  0
   14.0510  -19.8413   21.5737 C   0  0  0  0  0  0  0  0  0  0  0  0
   12.7510  -19.1194   21.8716 C   0  0  0  0  0  0  0  0  0  0  0  0
   13.0268  -18.1496   22.9894 C   0  0  0  0  0  0  0  0  0  0  0  0
   11.7600  -17.3862   23.3849 C   0  0  2  0  0  0  0  0  0  0  0  0
   11.2121  -16.6931   22.2360 N   0  0  0  0  0  0  0  0  0  0  0  0
   12.1816  -16.3724   24.3731 C   0  0  0  0  0  0  0  0  0  0  0  0
   12.2182  -15.1348   24.1145 O   0  0  0  0  0  0  0  0  0  0  0  0
   12.5535  -16.7866   25.6372 O   0  0  0  0  0  0  0  0  0  0  0  0
  2  1  1  6
  2  4  1  0
  2  3  1  0
  4  5  1  6
  6  4  1  0
  7  6  2  0
  8  6  1  0
  9  8  1  0
  9 10  1  1
 10 11  1  0
 11 12  2  0
 11 15  1  0
 12 13  1  0
 13 14  1  0
 15 14  2  0
 16 26  1  0
 16  9  1  0
 17 16  2  0
 18 19  1  0
 19 21  1  0
 19 20  2  0
 21 22  1  0
 22 23  1  0
 23 24  1  0
 25 24  1  6
 25 26  1  0
 25 27  1  0
 27 29  1  0
 28 27  2  0
M  END
$$$$
