VHR.pdb
     RDKit          3D

 29 29  0  0  1  0  0  0  0  0999 V2000
    7.0275  -12.7400   19.3412 C   0  0  0  0  0  0  0  0  0  0  0  0
    8.2981  -13.4883   19.5294 C   0  0  2  0  0  0  0  0  0  0  0  0
    9.1997  -12.6580   20.4505 C   0  0  0  0  0  0  0  0  0  0  0  0
    9.0239  -13.8405   18.2534 C   0  0  2  0  0  0  0  0  0  0  0  0
    8.1434  -14.5505   17.3815 N   0  0  0  0  0  0  0  0  0  0  0  0
   10.2000  -14.6794   18.5876 C   0  0  0  0  0  0  0  0  0  0  0  0
   10.0525  -15.9008   18.7134 O   0  0  0  0  0  0  0  0  0  0  0  0
   11.5043  -14.1947   18.7787 N   0  0  0  0  0  0  0  0  0  0  0  0
   12.6200  -14.9438   19.1433 C   0  0  1  0  0  0  0  0  0  0  0  0
   13.9168  -14.8342   18.4479 C   0  0  0  0  0  0  0  0  0  0  0  0
   13.8816  -15.4400   17.1042 C   0  0  0  0  0  0  0  0  0  0  0  0
   13.2680  -16.5878   16.7067 C   0  0  0  0  0  0  0  0  0  0  0  0
   13.4529  -16.7915   15.3836 N   0  0  0  0  0  0  0  0  0  0  0  0
   14.1823  -15.7776   14.9337 C   0  0  0  0  0  0  0  0  0  0  0  0
   14.4513  -14.9506   15.9575 N   0  0  0  0  0  0  0  0  0  0  0  0
   12.8276  -14.8841   20.6053 C   0  0  0  0  0  0  0  0  0  0  0  0
   13.3082  -13.8281   21.1588 O   0  0  0  0  0  0  0  0  0  0  0  0
   11.7129  -21.3973   23.7239 N   0  0  0  0  0  0  0  0  0  0  0  0
   11.6320  -21.1777   22.3190 C   0  0  0  0  0  0  0  0  0  0  0  0
   12.1275  -22.0525   21.5099 N   0  0  0  0  0  0  0  0  0  0  0  0
   11.0166  -20.0144   21.7892 N   0  0  0  0  0  0  0  0  0  0  0  0
   10.9667  -18.7629   22.5240 C   0  0  0  0  0  0  0  0  0  0  0  0
   12.3603  -18.2888   22.8886 C   0  0  0  0  0  0  0  0  0  0  0  0
   12.2048  -17.0176   23.6799 C   0  0  0  0  0  0  0  0  0  0  0  0
   12.8121  -15.8251   22.9364 C   0  0  2  0  0  0  0  0  0  0  0  0
   12.5367  -15.9252   21.5170 N   0  0  0  0  0  0  0  0  0  0  0  0
   14.2737  -15.9215   23.1272 C   0  0  0  0  0  0  0  0  0  0  0  0
   15.0700  -16.2226   22.1918 O   0  0  0  0  0  0  0  0  0  0  0  0
   14.8012  -15.6733   24.3794 O   0  0  0  0  0  0  0  0  0  0  0  0
  2  1  1  6
  2  4  1  0
  2  3  1  0
  4  5  1  6
  6  4  1  0
  7  6  2  0
  8  6  1  0
  9  8  1  0
  9 10  1  6
 10 11  1  0
 11 12  2  0
 11 15  1  0
 12 13  1  0
 13 14  1  0
 15 14  2  0
 16 26  1  0
 16  9  1  0
 17 16  2  0
 18 19  1  0
 19 21  1  0
 19 20  2  0
 21 22  1  0
 22 23  1  0
 23 24  1  0
 25 24  1  1
 25 26  1  0
 25 27  1  0
 27 29  1  0
 28 27  2  0
M  END
$$$$
