VHR.pdb
     RDKit          3D

 29 29  0  0  1  0  0  0  0  0999 V2000
    7.2971  -22.3455   16.7464 C   0  0  0  0  0  0  0  0  0  0  0  0
    7.6439  -21.1241   17.5196 C   0  0  2  0  0  0  0  0  0  0  0  0
    7.0859  -21.2924   18.9378 C   0  0  0  0  0  0  0  0  0  0  0  0
    7.1641  -19.8285   16.9110 C   0  0  2  0  0  0  0  0  0  0  0  0
    7.6215  -19.7346   15.5614 N   0  0  0  0  0  0  0  0  0  0  0  0
    7.6946  -18.6985   17.7113 C   0  0  0  0  0  0  0  0  0  0  0  0
    8.9154  -18.6046   17.8857 O   0  0  0  0  0  0  0  0  0  0  0  0
    6.9098  -17.6964   18.3052 N   0  0  0  0  0  0  0  0  0  0  0  0
    7.3744  -16.6085   19.0397 C   0  0  1  0  0  0  0  0  0  0  0  0
    6.5712  -15.3897   19.2553 C   0  0  0  0  0  0  0  0  0  0  0  0
    7.3625  -14.2995   19.8546 C   0  0  0  0  0  0  0  0  0  0  0  0
    8.6579  -14.3213   20.2714 C   0  0  0  0  0  0  0  0  0  0  0  0
    9.0243  -13.1105   20.7466 N   0  0  0  0  0  0  0  0  0  0  0  0
    7.9677  -12.3145   20.6348 C   0  0  0  0  0  0  0  0  0  0  0  0
    6.9541  -13.0140   20.0982 N   0  0  0  0  0  0  0  0  0  0  0  0
    7.9555  -17.0603   20.3213 C   0  0  0  0  0  0  0  0  0  0  0  0
    7.3110  -17.8660   21.0880 O   0  0  0  0  0  0  0  0  0  0  0  0
   15.1133  -21.2369   22.6880 N   0  0  0  0  0  0  0  0  0  0  0  0
   14.2086  -21.2481   23.7880 C   0  0  0  0  0  0  0  0  0  0  0  0
   14.3629  -22.1183   24.7283 N   0  0  0  0  0  0  0  0  0  0  0  0
   13.1387  -20.3201   23.8716 N   0  0  0  0  0  0  0  0  0  0  0  0
   12.6109  -19.6407   22.7018 C   0  0  0  0  0  0  0  0  0  0  0  0
   11.4766  -18.7075   23.0786 C   0  0  0  0  0  0  0  0  0  0  0  0
   10.9431  -18.1171   21.8008 C   0  0  0  0  0  0  0  0  0  0  0  0
    9.7540  -17.1918   22.0727 C   0  0  2  0  0  0  0  0  0  0  0  0
    9.2205  -16.6801   20.8261 N   0  0  0  0  0  0  0  0  0  0  0  0
   10.2878  -16.0512   22.8449 C   0  0  0  0  0  0  0  0  0  0  0  0
   10.6505  -14.9662   22.3054 O   0  0  0  0  0  0  0  0  0  0  0  0
   10.3985  -16.1672   24.2168 O   0  0  0  0  0  0  0  0  0  0  0  0
  2  1  1  6
  2  4  1  0
  2  3  1  0
  4  5  1  6
  6  4  1  0
  7  6  2  0
  8  6  1  0
  9  8  1  0
  9 10  1  1
 10 11  1  0
 11 12  2  0
 11 15  1  0
 12 13  1  0
 13 14  1  0
 15 14  2  0
 16 26  1  0
 16  9  1  0
 17 16  2  0
 18 19  1  0
 19 21  1  0
 19 20  2  0
 21 22  1  0
 22 23  1  0
 23 24  1  0
 25 24  1  6
 25 26  1  0
 25 27  1  0
 27 29  1  0
 28 27  2  0
M  END
$$$$
