MNW.pdb
     RDKit          3D

 31 32  0  0  1  0  0  0  0  0999 V2000
    8.0858  -11.8228   20.3017 C   0  0  0  0  0  0  0  0  0  0  0  0
    7.1528  -12.8630   21.4460 S   0  0  0  0  0  0  0  0  0  0  0  0
    7.4244  -14.6114   21.1678 C   0  0  0  0  0  0  0  0  0  0  0  0
    8.6003  -14.8259   20.2280 C   0  0  0  0  0  0  0  0  0  0  0  0
    8.8091  -16.3237   19.9734 C   0  0  2  0  0  0  0  0  0  0  0  0
    7.4990  -16.8554   19.6606 N   0  0  0  0  0  0  0  0  0  0  0  0
    9.2856  -16.9061   21.2545 C   0  0  0  0  0  0  0  0  0  0  0  0
    8.4997  -17.5430   22.0255 O   0  0  0  0  0  0  0  0  0  0  0  0
   11.9769  -19.6981   24.4999 N   0  0  0  0  0  0  0  0  0  0  0  0
   12.8999  -18.9442   23.7396 C   0  0  0  0  0  0  0  0  0  0  0  0
   14.1392  -19.2710   23.9497 O   0  0  0  0  0  0  0  0  0  0  0  0
   12.5881  -17.8775   22.7823 C   0  0  0  0  0  0  0  0  0  0  0  0
   11.1383  -17.5002   22.8459 C   0  0  2  0  0  0  0  0  0  0  0  0
   10.6566  -16.7800   21.6869 N   0  0  0  0  0  0  0  0  0  0  0  0
   10.8773  -16.7669   24.1096 C   0  0  0  0  0  0  0  0  0  0  0  0
   11.2606  -15.5733   24.2830 O   0  0  0  0  0  0  0  0  0  0  0  0
   10.1791  -17.3442   25.2271 N   0  0  0  0  0  0  0  0  0  0  0  0
   10.0626  -16.6282   26.4802 C   0  0  1  0  0  0  0  0  0  0  0  0
    8.6766  -16.8428   27.0924 C   0  0  0  0  0  0  0  0  0  0  0  0
    7.6684  -15.9997   26.4195 C   0  0  0  0  0  0  0  0  0  0  0  0
    6.5206  -16.3659   25.7381 C   0  0  0  0  0  0  0  0  0  0  0  0
    5.8747  -15.2816   25.2701 N   0  0  0  0  0  0  0  0  0  0  0  0
    6.5947  -14.2111   25.6423 C   0  0  0  0  0  0  0  0  0  0  0  0
    6.3797  -12.8564   25.4210 C   0  0  0  0  0  0  0  0  0  0  0  0
    7.2878  -11.9230   25.9177 C   0  0  0  0  0  0  0  0  0  0  0  0
    8.3893  -12.3551   26.6230 C   0  0  0  0  0  0  0  0  0  0  0  0
    8.5994  -13.7187   26.8417 C   0  0  0  0  0  0  0  0  0  0  0  0
    7.7030  -14.6159   26.3499 C   0  0  0  0  0  0  0  0  0  0  0  0
   11.1168  -17.0315   27.4511 C   0  0  0  0  0  0  0  0  0  0  0  0
   11.3227  -16.3193   28.6326 O   0  0  0  0  0  0  0  0  0  0  0  0
   11.8427  -18.0273   27.2185 O   0  0  0  0  0  0  0  0  0  0  0  0
  2  1  1  0
  3  2  1  0
  4  5  1  0
  4  3  1  0
  5  6  1  1
  7  5  1  0
  8  7  2  0
  9 10  1  0
 10 12  1  0
 10 11  2  0
 13 12  1  6
 13 14  1  0
 14  7  1  0
 15 13  1  0
 15 16  2  0
 17 15  1  0
 18 17  1  0
 18 19  1  1
 20 19  1  0
 20 21  2  0
 22 21  1  0
 23 22  1  0
 24 23  2  0
 25 24  1  0
 26 25  2  0
 26 27  1  0
 27 28  2  0
 28 23  1  0
 28 20  1  0
 29 18  1  0
 30 29  1  0
 31 29  2  0
M  END
$$$$
