MNW.pdb
     RDKit          3D

 31 32  0  0  1  0  0  0  0  0999 V2000
    8.7232  -11.8010   20.3578 C   0  0  0  0  0  0  0  0  0  0  0  0
    7.1380  -12.6613   20.2648 S   0  0  0  0  0  0  0  0  0  0  0  0
    7.3223  -14.4191   19.9739 C   0  0  0  0  0  0  0  0  0  0  0  0
    7.8800  -15.1088   21.2090 C   0  0  0  0  0  0  0  0  0  0  0  0
    8.2278  -16.5678   20.8897 C   0  0  2  0  0  0  0  0  0  0  0  0
    6.9653  -17.2217   20.6152 N   0  0  0  0  0  0  0  0  0  0  0  0
    8.8216  -17.1392   22.1259 C   0  0  0  0  0  0  0  0  0  0  0  0
    8.1016  -17.7166   23.0009 O   0  0  0  0  0  0  0  0  0  0  0  0
   12.1772  -16.8884   21.2066 N   0  0  0  0  0  0  0  0  0  0  0  0
   12.7949  -17.6826   22.1997 C   0  0  0  0  0  0  0  0  0  0  0  0
   14.0076  -18.0399   21.9024 O   0  0  0  0  0  0  0  0  0  0  0  0
   12.2079  -18.1142   23.4727 C   0  0  0  0  0  0  0  0  0  0  0  0
   10.7920  -17.6387   23.6045 C   0  0  2  0  0  0  0  0  0  0  0  0
   10.2377  -17.0692   22.3953 N   0  0  0  0  0  0  0  0  0  0  0  0
   10.6917  -16.7104   24.7581 C   0  0  0  0  0  0  0  0  0  0  0  0
   11.1714  -15.5399   24.7200 O   0  0  0  0  0  0  0  0  0  0  0  0
   10.0521  -17.0595   25.9986 N   0  0  0  0  0  0  0  0  0  0  0  0
   10.1849  -16.2139   27.1664 C   0  0  1  0  0  0  0  0  0  0  0  0
    8.8239  -16.0060   27.8342 C   0  0  0  0  0  0  0  0  0  0  0  0
    7.8527  -15.4326   26.8813 C   0  0  0  0  0  0  0  0  0  0  0  0
    6.8616  -16.0571   26.1441 C   0  0  0  0  0  0  0  0  0  0  0  0
    6.1929  -15.1660   25.3887 N   0  0  0  0  0  0  0  0  0  0  0  0
    6.7424  -13.9646   25.6290 C   0  0  0  0  0  0  0  0  0  0  0  0
    6.4344  -12.7112   25.1150 C   0  0  0  0  0  0  0  0  0  0  0  0
    7.1631  -11.5973   25.5281 C   0  0  0  0  0  0  0  0  0  0  0  0
    8.1818  -11.7525   26.4423 C   0  0  0  0  0  0  0  0  0  0  0  0
    8.4862  -13.0157   26.9550 C   0  0  0  0  0  0  0  0  0  0  0  0
    7.7646  -14.0919   26.5410 C   0  0  0  0  0  0  0  0  0  0  0  0
   11.1551  -16.7710   28.1488 C   0  0  0  0  0  0  0  0  0  0  0  0
   11.5429  -16.0441   29.2743 O   0  0  0  0  0  0  0  0  0  0  0  0
   11.6430  -17.9135   27.9770 O   0  0  0  0  0  0  0  0  0  0  0  0
  2  1  1  0
  3  2  1  0
  4  5  1  0
  4  3  1  0
  5  6  1  1
  7  5  1  0
  8  7  2  0
  9 10  1  0
 10 12  1  0
 10 11  2  0
 13 12  1  6
 13 14  1  0
 14  7  1  0
 15 13  1  0
 15 16  2  0
 17 15  1  0
 18 17  1  0
 18 19  1  1
 20 19  1  0
 20 21  2  0
 22 21  1  0
 23 22  1  0
 24 23  2  0
 25 24  1  0
 26 25  2  0
 26 27  1  0
 27 28  2  0
 28 23  1  0
 28 20  1  0
 29 18  1  0
 30 29  1  0
 31 29  2  0
M  END
$$$$
