MNW.pdb
     RDKit          3D

 31 32  0  0  1  0  0  0  0  0999 V2000
    6.6604  -12.2202   21.1169 C   0  0  0  0  0  0  0  0  0  0  0  0
    7.6476  -12.7341   19.6946 S   0  0  0  0  0  0  0  0  0  0  0  0
    7.9847  -14.4933   19.6874 C   0  0  0  0  0  0  0  0  0  0  0  0
    8.5249  -14.9387   21.0371 C   0  0  0  0  0  0  0  0  0  0  0  0
    8.8135  -16.4447   21.0218 C   0  0  2  0  0  0  0  0  0  0  0  0
    7.6539  -17.0608   20.4112 N   0  0  0  0  0  0  0  0  0  0  0  0
    8.9083  -16.8697   22.4423 C   0  0  0  0  0  0  0  0  0  0  0  0
    8.0566  -16.4876   23.3062 O   0  0  0  0  0  0  0  0  0  0  0  0
   13.2907  -17.9243   21.4576 N   0  0  0  0  0  0  0  0  0  0  0  0
   12.7951  -16.6022   21.5278 C   0  0  0  0  0  0  0  0  0  0  0  0
   13.3458  -15.7925   20.6747 O   0  0  0  0  0  0  0  0  0  0  0  0
   11.7629  -16.0964   22.4390 C   0  0  0  0  0  0  0  0  0  0  0  0
   11.2404  -17.1880   23.3242 C   0  0  2  0  0  0  0  0  0  0  0  0
    9.9650  -17.7331   22.9117 N   0  0  0  0  0  0  0  0  0  0  0  0
   11.2179  -16.7113   24.7295 C   0  0  0  0  0  0  0  0  0  0  0  0
   12.2679  -16.3308   25.3249 O   0  0  0  0  0  0  0  0  0  0  0  0
   10.0185  -16.6451   25.5212 N   0  0  0  0  0  0  0  0  0  0  0  0
   10.0857  -16.5101   26.9612 C   0  0  1  0  0  0  0  0  0  0  0  0
    8.7078  -16.1661   27.5314 C   0  0  0  0  0  0  0  0  0  0  0  0
    7.8455  -15.5639   26.4952 C   0  0  0  0  0  0  0  0  0  0  0  0
    6.9850  -16.1711   25.5971 C   0  0  0  0  0  0  0  0  0  0  0  0
    6.3835  -15.2549   24.8156 N   0  0  0  0  0  0  0  0  0  0  0  0
    6.8468  -14.0544   25.1990 C   0  0  0  0  0  0  0  0  0  0  0  0
    6.5563  -12.7808   24.7259 C   0  0  0  0  0  0  0  0  0  0  0  0
    7.1785  -11.6730   25.2986 C   0  0  0  0  0  0  0  0  0  0  0  0
    8.0756  -11.8539   26.3281 C   0  0  0  0  0  0  0  0  0  0  0  0
    8.3631  -13.1374   26.7988 C   0  0  0  0  0  0  0  0  0  0  0  0
    7.7467  -14.2073   26.2284 C   0  0  0  0  0  0  0  0  0  0  0  0
   10.6135  -17.7412   27.6111 C   0  0  0  0  0  0  0  0  0  0  0  0
   11.0447  -17.7309   28.9376 O   0  0  0  0  0  0  0  0  0  0  0  0
   10.6792  -18.8164   26.9689 O   0  0  0  0  0  0  0  0  0  0  0  0
  2  1  1  0
  3  2  1  0
  4  5  1  0
  4  3  1  0
  5  6  1  1
  7  5  1  0
  8  7  2  0
  9 10  1  0
 10 12  1  0
 10 11  2  0
 13 12  1  6
 13 14  1  0
 14  7  1  0
 15 13  1  0
 15 16  2  0
 17 15  1  0
 18 17  1  0
 18 19  1  1
 20 19  1  0
 20 21  2  0
 22 21  1  0
 23 22  1  0
 24 23  2  0
 25 24  1  0
 26 25  2  0
 26 27  1  0
 27 28  2  0
 28 23  1  0
 28 20  1  0
 29 18  1  0
 30 29  1  0
 31 29  2  0
M  END
$$$$
