MNW.pdb
     RDKit          3D

 31 32  0  0  1  0  0  0  0  0999 V2000
    9.3243  -11.5713   20.4838 C   0  0  0  0  0  0  0  0  0  0  0  0
    7.6853  -11.9339   19.8176 S   0  0  0  0  0  0  0  0  0  0  0  0
    7.4218  -13.6849   19.5472 C   0  0  0  0  0  0  0  0  0  0  0  0
    7.9467  -14.4916   20.7243 C   0  0  0  0  0  0  0  0  0  0  0  0
    7.7685  -15.9917   20.4604 C   0  0  2  0  0  0  0  0  0  0  0  0
    6.3398  -16.2064   20.3624 N   0  0  0  0  0  0  0  0  0  0  0  0
    8.2927  -16.6952   21.6594 C   0  0  0  0  0  0  0  0  0  0  0  0
    7.5107  -17.1849   22.5348 O   0  0  0  0  0  0  0  0  0  0  0  0
   13.1162  -20.0096   23.5544 N   0  0  0  0  0  0  0  0  0  0  0  0
   11.8203  -19.7349   23.0607 C   0  0  0  0  0  0  0  0  0  0  0  0
   10.9241  -20.5947   23.4406 O   0  0  0  0  0  0  0  0  0  0  0  0
   11.4258  -18.6159   22.1984 C   0  0  0  0  0  0  0  0  0  0  0  0
   10.2041  -17.9279   22.7296 C   0  0  2  0  0  0  0  0  0  0  0  0
    9.7078  -16.8585   21.8906 N   0  0  0  0  0  0  0  0  0  0  0  0
   10.4610  -17.4762   24.1197 C   0  0  0  0  0  0  0  0  0  0  0  0
   10.8880  -18.2650   25.0125 O   0  0  0  0  0  0  0  0  0  0  0  0
   10.2470  -16.1241   24.5624 N   0  0  0  0  0  0  0  0  0  0  0  0
   10.4341  -15.7588   25.9509 C   0  0  1  0  0  0  0  0  0  0  0  0
    9.2342  -16.2065   26.7885 C   0  0  0  0  0  0  0  0  0  0  0  0
    7.9814  -15.6277   26.2637 C   0  0  0  0  0  0  0  0  0  0  0  0
    6.8512  -16.2594   25.7744 C   0  0  0  0  0  0  0  0  0  0  0  0
    5.9269  -15.3588   25.3916 N   0  0  0  0  0  0  0  0  0  0  0  0
    6.4480  -14.1442   25.6283 C   0  0  0  0  0  0  0  0  0  0  0  0
    5.9181  -12.8772   25.4177 C   0  0  0  0  0  0  0  0  0  0  0  0
    6.6684  -11.7509   25.7509 C   0  0  0  0  0  0  0  0  0  0  0  0
    7.9281  -11.9073   26.2857 C   0  0  0  0  0  0  0  0  0  0  0  0
    8.4548  -13.1841   26.4947 C   0  0  0  0  0  0  0  0  0  0  0  0
    7.7088  -14.2724   26.1639 C   0  0  0  0  0  0  0  0  0  0  0  0
   11.6892  -16.3305   26.5119 C   0  0  0  0  0  0  0  0  0  0  0  0
   12.1527  -15.9585   27.7739 O   0  0  0  0  0  0  0  0  0  0  0  0
   12.3551  -17.1630   25.8513 O   0  0  0  0  0  0  0  0  0  0  0  0
  2  1  1  0
  3  2  1  0
  4  5  1  0
  4  3  1  0
  5  6  1  1
  7  5  1  0
  8  7  2  0
  9 10  1  0
 10 12  1  0
 10 11  2  0
 13 12  1  6
 13 14  1  0
 14  7  1  0
 15 13  1  0
 15 16  2  0
 17 15  1  0
 18 17  1  0
 18 19  1  1
 20 19  1  0
 20 21  2  0
 22 21  1  0
 23 22  1  0
 24 23  2  0
 25 24  1  0
 26 25  2  0
 26 27  1  0
 27 28  2  0
 28 23  1  0
 28 20  1  0
 29 18  1  0
 30 29  1  0
 31 29  2  0
M  END
$$$$
