MNW.pdb
     RDKit          3D

 31 32  0  0  1  0  0  0  0  0999 V2000
    6.7096  -11.8719   18.7007 C   0  0  0  0  0  0  0  0  0  0  0  0
    7.3370  -12.9925   19.9704 S   0  0  0  0  0  0  0  0  0  0  0  0
    8.2077  -14.3981   19.2817 C   0  0  0  0  0  0  0  0  0  0  0  0
    8.6241  -15.3600   20.3832 C   0  0  0  0  0  0  0  0  0  0  0  0
    9.2779  -16.6081   19.7778 C   0  0  2  0  0  0  0  0  0  0  0  0
    8.2584  -17.2264   18.9561 N   0  0  0  0  0  0  0  0  0  0  0  0
    9.6064  -17.5052   20.9157 C   0  0  0  0  0  0  0  0  0  0  0  0
    9.4594  -18.7655   20.8294 O   0  0  0  0  0  0  0  0  0  0  0  0
   13.0365  -19.4649   21.3434 N   0  0  0  0  0  0  0  0  0  0  0  0
   12.9825  -18.1213   20.9071 C   0  0  0  0  0  0  0  0  0  0  0  0
   13.3821  -17.9537   19.6828 O   0  0  0  0  0  0  0  0  0  0  0  0
   12.5353  -16.9607   21.6846 C   0  0  0  0  0  0  0  0  0  0  0  0
   11.4350  -17.3353   22.6319 C   0  0  2  0  0  0  0  0  0  0  0  0
   10.1067  -16.9953   22.1697 N   0  0  0  0  0  0  0  0  0  0  0  0
   11.7254  -16.7651   23.9710 C   0  0  0  0  0  0  0  0  0  0  0  0
   12.4966  -15.7734   24.1241 O   0  0  0  0  0  0  0  0  0  0  0  0
   11.1642  -17.2858   25.1891 N   0  0  0  0  0  0  0  0  0  0  0  0
    9.9891  -16.6831   25.7826 C   0  0  1  0  0  0  0  0  0  0  0  0
    9.0688  -16.1220   24.6963 C   0  0  0  0  0  0  0  0  0  0  0  0
    7.8781  -15.4852   25.2934 C   0  0  0  0  0  0  0  0  0  0  0  0
    6.6075  -15.9965   25.4936 C   0  0  0  0  0  0  0  0  0  0  0  0
    5.8081  -15.0805   26.0715 N   0  0  0  0  0  0  0  0  0  0  0  0
    6.5500  -13.9756   26.2490 C   0  0  0  0  0  0  0  0  0  0  0  0
    6.2186  -12.7437   26.7995 C   0  0  0  0  0  0  0  0  0  0  0  0
    7.1815  -11.7388   26.8731 C   0  0  0  0  0  0  0  0  0  0  0  0
    8.4522  -11.9790   26.3985 C   0  0  0  0  0  0  0  0  0  0  0  0
    8.7785  -13.2199   25.8461 C   0  0  0  0  0  0  0  0  0  0  0  0
    7.8264  -14.1893   25.7822 C   0  0  0  0  0  0  0  0  0  0  0  0
    9.2414  -17.6464   26.6367 C   0  0  0  0  0  0  0  0  0  0  0  0
    9.1871  -19.0037   26.3194 O   0  0  0  0  0  0  0  0  0  0  0  0
    8.6430  -17.2477   27.6643 O   0  0  0  0  0  0  0  0  0  0  0  0
  2  1  1  0
  3  2  1  0
  4  5  1  0
  4  3  1  0
  5  6  1  6
  7  5  1  0
  8  7  2  0
  9 10  1  0
 10 12  1  0
 10 11  2  0
 13 12  1  6
 13 14  1  0
 14  7  1  0
 15 13  1  0
 15 16  2  0
 17 15  1  0
 18 17  1  0
 18 19  1  6
 20 19  1  0
 20 21  2  0
 22 21  1  0
 23 22  1  0
 24 23  2  0
 25 24  1  0
 26 25  2  0
 26 27  1  0
 27 28  2  0
 28 23  1  0
 28 20  1  0
 29 18  1  0
 30 29  1  0
 31 29  2  0
M  END
$$$$
