MNW.pdb
     RDKit          3D

 31 32  0  0  1  0  0  0  0  0999 V2000
    7.5008  -12.0209   21.5924 C   0  0  0  0  0  0  0  0  0  0  0  0
    6.4733  -13.2560   20.7675 S   0  0  0  0  0  0  0  0  0  0  0  0
    7.4366  -14.5699   20.0232 C   0  0  0  0  0  0  0  0  0  0  0  0
    8.0046  -15.4876   21.0942 C   0  0  0  0  0  0  0  0  0  0  0  0
    8.8077  -16.6230   20.4478 C   0  0  2  0  0  0  0  0  0  0  0  0
    7.8726  -17.3323   19.5997 N   0  0  0  0  0  0  0  0  0  0  0  0
    9.2441  -17.5130   21.5545 C   0  0  0  0  0  0  0  0  0  0  0  0
    9.2687  -18.7772   21.4174 O   0  0  0  0  0  0  0  0  0  0  0  0
   12.3579  -18.9437   21.5471 N   0  0  0  0  0  0  0  0  0  0  0  0
   12.6245  -17.5599   21.4349 C   0  0  0  0  0  0  0  0  0  0  0  0
   13.5246  -17.2724   20.5439 O   0  0  0  0  0  0  0  0  0  0  0  0
   12.0000  -16.4781   22.2038 C   0  0  0  0  0  0  0  0  0  0  0  0
   11.0518  -17.0214   23.2304 C   0  0  2  0  0  0  0  0  0  0  0  0
    9.6604  -16.9917   22.8342 N   0  0  0  0  0  0  0  0  0  0  0  0
   11.2809  -16.3307   24.5239 C   0  0  0  0  0  0  0  0  0  0  0  0
   12.4403  -16.1876   25.0109 O   0  0  0  0  0  0  0  0  0  0  0  0
   10.2195  -15.7764   25.3214 N   0  0  0  0  0  0  0  0  0  0  0  0
   10.1205  -16.0725   26.7352 C   0  0  1  0  0  0  0  0  0  0  0  0
    8.6839  -16.4497   27.1036 C   0  0  0  0  0  0  0  0  0  0  0  0
    7.7152  -15.6215   26.3581 C   0  0  0  0  0  0  0  0  0  0  0  0
    6.6627  -16.0059   25.5455 C   0  0  0  0  0  0  0  0  0  0  0  0
    6.0218  -14.9305   25.0508 N   0  0  0  0  0  0  0  0  0  0  0  0
    6.6504  -13.8477   25.5359 C   0  0  0  0  0  0  0  0  0  0  0  0
    6.3997  -12.4950   25.3420 C   0  0  0  0  0  0  0  0  0  0  0  0
    7.2081  -11.5466   25.9659 C   0  0  0  0  0  0  0  0  0  0  0  0
    8.2477  -11.9619   26.7685 C   0  0  0  0  0  0  0  0  0  0  0  0
    8.4943  -13.3236   26.9590 C   0  0  0  0  0  0  0  0  0  0  0  0
    7.6953  -14.2357   26.3425 C   0  0  0  0  0  0  0  0  0  0  0  0
   11.0532  -17.1592   27.1423 C   0  0  0  0  0  0  0  0  0  0  0  0
   10.7556  -18.4990   26.8933 O   0  0  0  0  0  0  0  0  0  0  0  0
   12.1310  -16.8832   27.7212 O   0  0  0  0  0  0  0  0  0  0  0  0
  2  1  1  0
  3  2  1  0
  4  5  1  0
  4  3  1  0
  5  6  1  6
  7  5  1  0
  8  7  2  0
  9 10  1  0
 10 12  1  0
 10 11  2  0
 13 12  1  6
 13 14  1  0
 14  7  1  0
 15 13  1  0
 15 16  2  0
 17 15  1  0
 18 17  1  0
 18 19  1  6
 20 19  1  0
 20 21  2  0
 22 21  1  0
 23 22  1  0
 24 23  2  0
 25 24  1  0
 26 25  2  0
 26 27  1  0
 27 28  2  0
 28 23  1  0
 28 20  1  0
 29 18  1  0
 30 29  1  0
 31 29  2  0
M  END
$$$$
