MNW.pdb
     RDKit          3D

 31 32  0  0  1  0  0  0  0  0999 V2000
    8.1812  -11.7798   21.0393 C   0  0  0  0  0  0  0  0  0  0  0  0
    7.5543  -12.6335   19.5765 S   0  0  0  0  0  0  0  0  0  0  0  0
    8.3177  -14.2352   19.3316 C   0  0  0  0  0  0  0  0  0  0  0  0
    8.3167  -15.0306   20.6275 C   0  0  0  0  0  0  0  0  0  0  0  0
    9.0820  -16.3466   20.4424 C   0  0  2  0  0  0  0  0  0  0  0  0
    8.4194  -17.0369   19.3554 N   0  0  0  0  0  0  0  0  0  0  0  0
    8.9032  -17.1180   21.6994 C   0  0  0  0  0  0  0  0  0  0  0  0
    8.2140  -18.1865   21.7286 O   0  0  0  0  0  0  0  0  0  0  0  0
   14.3765  -17.1182   23.0172 N   0  0  0  0  0  0  0  0  0  0  0  0
   13.1101  -17.7283   22.8669 C   0  0  0  0  0  0  0  0  0  0  0  0
   13.0912  -18.9819   23.2057 O   0  0  0  0  0  0  0  0  0  0  0  0
   11.8791  -17.0936   22.3839 C   0  0  0  0  0  0  0  0  0  0  0  0
   10.7681  -17.2393   23.3802 C   0  0  2  0  0  0  0  0  0  0  0  0
    9.4993  -16.6971   22.9445 N   0  0  0  0  0  0  0  0  0  0  0  0
   11.2007  -16.6753   24.6831 C   0  0  0  0  0  0  0  0  0  0  0  0
   12.3351  -16.9334   25.1815 O   0  0  0  0  0  0  0  0  0  0  0  0
   10.3778  -15.8026   25.4775 N   0  0  0  0  0  0  0  0  0  0  0  0
   10.1281  -16.0861   26.8752 C   0  0  1  0  0  0  0  0  0  0  0  0
    8.7448  -16.7154   27.0549 C   0  0  0  0  0  0  0  0  0  0  0  0
    7.6981  -15.8645   26.4545 C   0  0  0  0  0  0  0  0  0  0  0  0
    6.6278  -16.2134   25.6492 C   0  0  0  0  0  0  0  0  0  0  0  0
    5.9076  -15.1271   25.3124 N   0  0  0  0  0  0  0  0  0  0  0  0
    6.5022  -14.0727   25.8932 C   0  0  0  0  0  0  0  0  0  0  0  0
    6.1717  -12.7234   25.8704 C   0  0  0  0  0  0  0  0  0  0  0  0
    6.9597  -11.8076   26.5654 C   0  0  0  0  0  0  0  0  0  0  0  0
    8.0584  -12.2516   27.2676 C   0  0  0  0  0  0  0  0  0  0  0  0
    8.3850  -13.6096   27.2862 C   0  0  0  0  0  0  0  0  0  0  0  0
    7.6050  -14.4896   26.6024 C   0  0  0  0  0  0  0  0  0  0  0  0
   11.1717  -16.9740   27.4575 C   0  0  0  0  0  0  0  0  0  0  0  0
   11.2526  -17.1897   28.8333 O   0  0  0  0  0  0  0  0  0  0  0  0
   12.0020  -17.5468   26.7122 O   0  0  0  0  0  0  0  0  0  0  0  0
  2  1  1  0
  3  2  1  0
  4  5  1  0
  4  3  1  0
  5  6  1  6
  7  5  1  0
  8  7  2  0
  9 10  1  0
 10 12  1  0
 10 11  2  0
 13 12  1  6
 13 14  1  0
 14  7  1  0
 15 13  1  0
 15 16  2  0
 17 15  1  0
 18 17  1  0
 18 19  1  6
 20 19  1  0
 20 21  2  0
 22 21  1  0
 23 22  1  0
 24 23  2  0
 25 24  1  0
 26 25  2  0
 26 27  1  0
 27 28  2  0
 28 23  1  0
 28 20  1  0
 29 18  1  0
 30 29  1  0
 31 29  2  0
M  END
$$$$
