MNW.pdb
     RDKit          3D

 31 32  0  0  1  0  0  0  0  0999 V2000
    6.6199  -11.6632   17.6768 C   0  0  0  0  0  0  0  0  0  0  0  0
    6.5989  -12.7939   19.0849 S   0  0  0  0  0  0  0  0  0  0  0  0
    8.2416  -13.2995   19.5889 C   0  0  0  0  0  0  0  0  0  0  0  0
    8.1679  -14.2432   20.7789 C   0  0  0  0  0  0  0  0  0  0  0  0
    9.5718  -14.4982   21.3409 C   0  0  2  0  0  0  0  0  0  0  0  0
   10.3661  -14.9574   20.2205 N   0  0  0  0  0  0  0  0  0  0  0  0
    9.4352  -15.5961   22.3325 C   0  0  0  0  0  0  0  0  0  0  0  0
    8.4592  -15.6354   23.1470 O   0  0  0  0  0  0  0  0  0  0  0  0
   11.8793  -19.4219   20.8727 N   0  0  0  0  0  0  0  0  0  0  0  0
   10.9835  -19.4399   21.9662 C   0  0  0  0  0  0  0  0  0  0  0  0
    9.8698  -20.0603   21.7184 O   0  0  0  0  0  0  0  0  0  0  0  0
   11.1983  -18.8451   23.2897 C   0  0  0  0  0  0  0  0  0  0  0  0
   10.3269  -17.6414   23.4899 C   0  0  2  0  0  0  0  0  0  0  0  0
   10.3971  -16.6683   22.4214 N   0  0  0  0  0  0  0  0  0  0  0  0
   10.6179  -17.0403   24.8153 C   0  0  0  0  0  0  0  0  0  0  0  0
   11.6943  -16.4159   25.0461 O   0  0  0  0  0  0  0  0  0  0  0  0
    9.7148  -17.1180   25.9325 N   0  0  0  0  0  0  0  0  0  0  0  0
   10.1509  -16.7612   27.2662 C   0  0  1  0  0  0  0  0  0  0  0  0
    9.0293  -16.0456   28.0225 C   0  0  0  0  0  0  0  0  0  0  0  0
    7.9934  -15.5590   27.0897 C   0  0  0  0  0  0  0  0  0  0  0  0
    7.0957  -16.2716   26.3138 C   0  0  0  0  0  0  0  0  0  0  0  0
    6.3170  -15.4402   25.5966 N   0  0  0  0  0  0  0  0  0  0  0  0
    6.7019  -14.1902   25.9003 C   0  0  0  0  0  0  0  0  0  0  0  0
    6.2321  -12.9645   25.4452 C   0  0  0  0  0  0  0  0  0  0  0  0
    6.8059  -11.7860   25.9189 C   0  0  0  0  0  0  0  0  0  0  0  0
    7.8336  -11.8504   26.8338 C   0  0  0  0  0  0  0  0  0  0  0  0
    8.3012  -13.0862   27.2871 C   0  0  0  0  0  0  0  0  0  0  0  0
    7.7296  -14.2264   26.8144 C   0  0  0  0  0  0  0  0  0  0  0  0
   10.6089  -17.9492   28.0379 C   0  0  0  0  0  0  0  0  0  0  0  0
   10.4381  -19.2424   27.5439 O   0  0  0  0  0  0  0  0  0  0  0  0
   11.1603  -17.8032   29.1548 O   0  0  0  0  0  0  0  0  0  0  0  0
  2  1  1  0
  3  2  1  0
  4  5  1  0
  4  3  1  0
  5  6  1  6
  7  5  1  0
  8  7  2  0
  9 10  1  0
 10 12  1  0
 10 11  2  0
 13 12  1  6
 13 14  1  0
 14  7  1  0
 15 13  1  0
 15 16  2  0
 17 15  1  0
 18 17  1  0
 18 19  1  1
 20 19  1  0
 20 21  2  0
 22 21  1  0
 23 22  1  0
 24 23  2  0
 25 24  1  0
 26 25  2  0
 26 27  1  0
 27 28  2  0
 28 23  1  0
 28 20  1  0
 29 18  1  0
 30 29  1  0
 31 29  2  0
M  END
$$$$
