TNL.pdb
     RDKit          3D

 24 23  0  0  1  0  0  0  0  0999 V2000
    8.7274  -12.4090   20.6798 C   0  0  0  0  0  0  0  0  0  0  0  0
    7.9102  -13.1553   19.6760 C   0  0  1  0  0  0  0  0  0  0  0  0
    8.1488  -12.5220   18.4300 O   0  0  0  0  0  0  0  0  0  0  0  0
    8.2978  -14.6100   19.5071 C   0  0  2  0  0  0  0  0  0  0  0  0
    7.3703  -15.1818   18.5243 N   0  0  0  0  0  0  0  0  0  0  0  0
    8.1704  -15.4024   20.7470 C   0  0  0  0  0  0  0  0  0  0  0  0
    7.0231  -15.7720   21.1704 O   0  0  0  0  0  0  0  0  0  0  0  0
   11.0056  -18.9990   20.7634 N   0  0  0  0  0  0  0  0  0  0  0  0
   10.0883  -18.7218   21.8100 C   0  0  0  0  0  0  0  0  0  0  0  0
    9.0846  -19.4540   21.9606 O   0  0  0  0  0  0  0  0  0  0  0  0
   10.3158  -17.5914   22.7022 C   0  0  0  0  0  0  0  0  0  0  0  0
    9.1937  -16.5785   22.7176 C   0  0  2  0  0  0  0  0  0  0  0  0
    9.3021  -15.7793   21.5016 N   0  0  0  0  0  0  0  0  0  0  0  0
    9.3590  -15.6386   23.8842 C   0  0  0  0  0  0  0  0  0  0  0  0
   10.3524  -14.8836   24.0139 O   0  0  0  0  0  0  0  0  0  0  0  0
    5.5150  -12.5090   26.1094 C   0  0  0  0  0  0  0  0  0  0  0  0
    6.8936  -13.0439   25.5635 C   0  0  1  0  0  0  0  0  0  0  0  0
    7.8143  -11.8312   25.5552 C   0  0  0  0  0  0  0  0  0  0  0  0
    7.3935  -14.0694   26.5122 C   0  0  0  0  0  0  0  0  0  0  0  0
    8.6194  -14.7791   26.1484 C   0  0  2  0  0  0  0  0  0  0  0  0
    8.3769  -15.5676   24.9052 N   0  0  0  0  0  0  0  0  0  0  0  0
    9.2858  -15.6673   27.0671 C   0  0  0  0  0  0  0  0  0  0  0  0
    9.3148  -17.0586   26.8240 O   0  0  0  0  0  0  0  0  0  0  0  0
    9.8671  -15.3097   28.1062 O   0  0  0  0  0  0  0  0  0  0  0  0
  2  1  1  1
  2  3  1  0
  4  2  1  0
  4  5  1  6
  6  4  1  0
  6  7  2  0
  9 11  1  0
  9  8  1  0
 10  9  2  0
 12 11  1  6
 12 13  1  0
 12 14  1  0
 13  6  1  0
 14 15  2  0
 14 21  1  0
 17 16  1  1
 18 17  1  0
 19 17  1  0
 20 19  1  1
 21 20  1  0
 22 23  1  0
 22 20  1  0
 24 22  2  0
M  END
$$$$
