TNL.pdb
     RDKit          3D

 24 23  0  0  1  0  0  0  0  0999 V2000
    8.0596  -12.7834   20.2740 C   0  0  0  0  0  0  0  0  0  0  0  0
    7.7826  -13.8029   19.2176 C   0  0  1  0  0  0  0  0  0  0  0  0
    8.5251  -13.3975   18.0797 O   0  0  0  0  0  0  0  0  0  0  0  0
    8.2425  -15.2048   19.5616 C   0  0  2  0  0  0  0  0  0  0  0  0
    7.7973  -16.0748   18.4670 N   0  0  0  0  0  0  0  0  0  0  0  0
    7.6527  -15.7295   20.8099 C   0  0  0  0  0  0  0  0  0  0  0  0
    6.6475  -16.5173   20.7762 O   0  0  0  0  0  0  0  0  0  0  0  0
    5.6940  -18.2661   23.4352 N   0  0  0  0  0  0  0  0  0  0  0  0
    6.9282  -18.3346   22.7385 C   0  0  0  0  0  0  0  0  0  0  0  0
    7.0400  -19.1009   21.7554 O   0  0  0  0  0  0  0  0  0  0  0  0
    8.0568  -17.5171   23.1669 C   0  0  0  0  0  0  0  0  0  0  0  0
    7.7400  -16.0451   23.3012 C   0  0  2  0  0  0  0  0  0  0  0  0
    8.1753  -15.3848   22.0750 N   0  0  0  0  0  0  0  0  0  0  0  0
    8.5317  -15.4452   24.4349 C   0  0  0  0  0  0  0  0  0  0  0  0
    9.7842  -15.3754   24.4275 O   0  0  0  0  0  0  0  0  0  0  0  0
    5.9279  -11.6211   27.3797 C   0  0  0  0  0  0  0  0  0  0  0  0
    6.8682  -12.4727   26.4442 C   0  0  1  0  0  0  0  0  0  0  0  0
    7.6423  -11.4503   25.6233 C   0  0  0  0  0  0  0  0  0  0  0  0
    7.7899  -13.2501   27.3089 C   0  0  0  0  0  0  0  0  0  0  0  0
    8.6513  -14.2354   26.6562 C   0  0  2  0  0  0  0  0  0  0  0  0
    7.8790  -14.9238   25.5812 N   0  0  0  0  0  0  0  0  0  0  0  0
    9.3212  -15.2721   27.4001 C   0  0  0  0  0  0  0  0  0  0  0  0
   10.3474  -14.9478   28.3152 O   0  0  0  0  0  0  0  0  0  0  0  0
    9.0711  -16.4866   27.3097 O   0  0  0  0  0  0  0  0  0  0  0  0
  2  1  1  1
  2  3  1  0
  4  2  1  0
  4  5  1  6
  6  4  1  0
  6  7  2  0
  9 11  1  0
  9  8  1  0
 10  9  2  0
 12 11  1  6
 12 13  1  0
 12 14  1  0
 13  6  1  0
 14 15  2  0
 14 21  1  0
 17 16  1  1
 18 17  1  0
 19 17  1  0
 20 19  1  1
 21 20  1  0
 22 23  1  0
 22 20  1  0
 24 22  2  0
M  END
$$$$
