TNL.pdb
     RDKit          3D

 24 23  0  0  1  0  0  0  0  0999 V2000
    8.1328  -12.8038   21.4515 C   0  0  0  0  0  0  0  0  0  0  0  0
    7.6931  -13.6106   20.2734 C   0  0  1  0  0  0  0  0  0  0  0  0
    7.7971  -12.7508   19.1508 O   0  0  0  0  0  0  0  0  0  0  0  0
    8.5600  -14.8178   19.9800 C   0  0  2  0  0  0  0  0  0  0  0  0
    8.1136  -15.3534   18.6888 N   0  0  0  0  0  0  0  0  0  0  0  0
    8.4231  -15.8989   20.9770 C   0  0  0  0  0  0  0  0  0  0  0  0
    8.0390  -17.0657   20.6262 O   0  0  0  0  0  0  0  0  0  0  0  0
   13.0979  -17.5541   22.3836 N   0  0  0  0  0  0  0  0  0  0  0  0
   11.8029  -17.2671   21.8797 C   0  0  0  0  0  0  0  0  0  0  0  0
   11.2919  -18.0243   21.0243 O   0  0  0  0  0  0  0  0  0  0  0  0
   11.0747  -16.0975   22.3566 C   0  0  0  0  0  0  0  0  0  0  0  0
    9.7638  -16.4189   23.0376 C   0  0  2  0  0  0  0  0  0  0  0  0
    8.7120  -15.6849   22.3420 N   0  0  0  0  0  0  0  0  0  0  0  0
    9.7840  -15.9254   24.4616 C   0  0  0  0  0  0  0  0  0  0  0  0
   10.6461  -16.2915   25.2961 O   0  0  0  0  0  0  0  0  0  0  0  0
    5.5436  -12.5091   25.9962 C   0  0  0  0  0  0  0  0  0  0  0  0
    6.9908  -12.9951   25.6039 C   0  0  1  0  0  0  0  0  0  0  0  0
    7.8600  -11.7467   25.6705 C   0  0  0  0  0  0  0  0  0  0  0  0
    7.4290  -13.9879   26.6157 C   0  0  0  0  0  0  0  0  0  0  0  0
    8.6982  -14.6740   26.3767 C   0  0  2  0  0  0  0  0  0  0  0  0
    8.8081  -15.0070   24.9264 N   0  0  0  0  0  0  0  0  0  0  0  0
    9.0646  -15.8687   27.0947 C   0  0  0  0  0  0  0  0  0  0  0  0
    9.1383  -17.1113   26.4267 O   0  0  0  0  0  0  0  0  0  0  0  0
    9.3358  -15.9142   28.3071 O   0  0  0  0  0  0  0  0  0  0  0  0
  2  1  1  1
  2  3  1  0
  4  2  1  0
  4  5  1  6
  6  4  1  0
  6  7  2  0
  9 11  1  0
  9  8  1  0
 10  9  2  0
 12 11  1  6
 12 13  1  0
 12 14  1  0
 13  6  1  0
 14 15  2  0
 14 21  1  0
 17 16  1  1
 18 17  1  0
 19 17  1  0
 20 19  1  6
 21 20  1  0
 22 23  1  0
 22 20  1  0
 24 22  2  0
M  END
$$$$
