TNL.pdb
     RDKit          3D

 24 23  0  0  1  0  0  0  0  0999 V2000
    8.2968  -12.3732   20.2159 C   0  0  0  0  0  0  0  0  0  0  0  0
    8.1529  -13.1382   18.9406 C   0  0  1  0  0  0  0  0  0  0  0  0
    8.6960  -12.3105   17.9255 O   0  0  0  0  0  0  0  0  0  0  0  0
    8.9239  -14.4416   18.8994 C   0  0  2  0  0  0  0  0  0  0  0  0
    8.6502  -15.0520   17.5935 N   0  0  0  0  0  0  0  0  0  0  0  0
    8.5047  -15.4080   19.9347 C   0  0  0  0  0  0  0  0  0  0  0  0
    7.8881  -16.4803   19.6152 O   0  0  0  0  0  0  0  0  0  0  0  0
   10.2200  -19.3696   23.2190 N   0  0  0  0  0  0  0  0  0  0  0  0
    9.1159  -18.5828   22.7999 C   0  0  0  0  0  0  0  0  0  0  0  0
    7.9634  -18.8828   23.1842 O   0  0  0  0  0  0  0  0  0  0  0  0
    9.3255  -17.4335   21.9277 C   0  0  0  0  0  0  0  0  0  0  0  0
    8.5316  -16.2073   22.3167 C   0  0  2  0  0  0  0  0  0  0  0  0
    8.7702  -15.1854   21.3030 N   0  0  0  0  0  0  0  0  0  0  0  0
    9.0328  -15.6590   23.6282 C   0  0  0  0  0  0  0  0  0  0  0  0
   10.2454  -15.4252   23.8486 O   0  0  0  0  0  0  0  0  0  0  0  0
    6.0176  -12.0689   26.2993 C   0  0  0  0  0  0  0  0  0  0  0  0
    7.1614  -12.8727   25.5713 C   0  0  1  0  0  0  0  0  0  0  0  0
    8.2314  -11.8378   25.2509 C   0  0  0  0  0  0  0  0  0  0  0  0
    7.6851  -13.8842   26.5222 C   0  0  0  0  0  0  0  0  0  0  0  0
    8.6326  -14.8685   26.0003 C   0  0  2  0  0  0  0  0  0  0  0  0
    8.1347  -15.3790   24.6897 N   0  0  0  0  0  0  0  0  0  0  0  0
    9.0242  -16.0268   26.7631 C   0  0  0  0  0  0  0  0  0  0  0  0
    9.7909  -15.8829   27.9409 O   0  0  0  0  0  0  0  0  0  0  0  0
    8.7383  -17.2007   26.4701 O   0  0  0  0  0  0  0  0  0  0  0  0
  2  1  1  1
  2  3  1  0
  4  2  1  0
  4  5  1  6
  6  4  1  0
  6  7  2  0
  9 11  1  0
  9  8  1  0
 10  9  2  0
 12 11  1  6
 12 13  1  0
 12 14  1  0
 13  6  1  0
 14 15  2  0
 14 21  1  0
 17 16  1  1
 18 17  1  0
 19 17  1  0
 20 19  1  1
 21 20  1  0
 22 23  1  0
 22 20  1  0
 24 22  2  0
M  END
$$$$
