TNL.pdb
     RDKit          3D

 24 23  0  0  1  0  0  0  0  0999 V2000
    7.8518  -12.4622   17.7187 C   0  0  0  0  0  0  0  0  0  0  0  0
    7.7349  -13.6237   18.6511 C   0  0  1  0  0  0  0  0  0  0  0  0
    8.5784  -14.6340   18.1238 O   0  0  0  0  0  0  0  0  0  0  0  0
    8.2142  -13.3476   20.0615 C   0  0  2  0  0  0  0  0  0  0  0  0
    9.6476  -13.0479   19.9683 N   0  0  0  0  0  0  0  0  0  0  0  0
    8.0628  -14.5005   20.9723 C   0  0  0  0  0  0  0  0  0  0  0  0
    6.9134  -15.0138   21.1902 O   0  0  0  0  0  0  0  0  0  0  0  0
   10.5084  -18.1789   19.9219 N   0  0  0  0  0  0  0  0  0  0  0  0
    9.7014  -18.1011   21.0864 C   0  0  0  0  0  0  0  0  0  0  0  0
    8.6606  -18.7917   21.1631 O   0  0  0  0  0  0  0  0  0  0  0  0
   10.0843  -17.2219   22.1846 C   0  0  0  0  0  0  0  0  0  0  0  0
    9.0366  -16.1956   22.5510 C   0  0  2  0  0  0  0  0  0  0  0  0
    9.1736  -15.0741   21.6276 N   0  0  0  0  0  0  0  0  0  0  0  0
    9.2932  -15.6642   23.9379 C   0  0  0  0  0  0  0  0  0  0  0  0
   10.2894  -14.9566   24.2216 O   0  0  0  0  0  0  0  0  0  0  0  0
    6.0925  -12.6482   26.6448 C   0  0  0  0  0  0  0  0  0  0  0  0
    7.4346  -13.3044   26.1422 C   0  0  1  0  0  0  0  0  0  0  0  0
    8.5323  -12.3399   26.5703 C   0  0  0  0  0  0  0  0  0  0  0  0
    7.5912  -14.6090   26.8314 C   0  0  0  0  0  0  0  0  0  0  0  0
    8.6832  -15.4751   26.3883 C   0  0  2  0  0  0  0  0  0  0  0  0
    8.3996  -15.9485   25.0021 N   0  0  0  0  0  0  0  0  0  0  0  0
    9.0845  -16.6382   27.1387 C   0  0  0  0  0  0  0  0  0  0  0  0
    8.9676  -17.9287   26.5760 O   0  0  0  0  0  0  0  0  0  0  0  0
    9.5469  -16.6150   28.2925 O   0  0  0  0  0  0  0  0  0  0  0  0
  2  1  1  6
  2  3  1  0
  4  2  1  0
  4  5  1  6
  6  4  1  0
  6  7  2  0
  9 11  1  0
  9  8  1  0
 10  9  2  0
 12 11  1  6
 12 13  1  0
 12 14  1  0
 13  6  1  0
 14 15  2  0
 14 21  1  0
 17 16  1  1
 18 17  1  0
 19 17  1  0
 20 19  1  1
 21 20  1  0
 22 23  1  0
 22 20  1  0
 24 22  2  0
M  END
$$$$
