NMC.pdb
     RDKit          3D

 23 22  0  0  1  0  0  0  0  0999 V2000
   27.5911  -10.1437  -21.7357 N   0  0  0  0  0  0  0  0  0  0  0  0
   26.8351  -10.6871  -20.6739 C   0  0  0  0  0  0  0  0  0  0  0  0
   27.0739  -11.9076  -20.3832 O   0  0  0  0  0  0  0  0  0  0  0  0
   25.8159   -9.9118  -19.9205 C   0  0  0  0  0  0  0  0  0  0  0  0
   24.4716  -10.5828  -20.0188 C   0  0  2  0  0  0  0  0  0  0  0  0
   24.1061  -10.6654  -21.4205 N   0  0  0  0  0  0  0  0  0  0  0  0
   23.4135   -9.8845  -19.2821 C   0  0  0  0  0  0  0  0  0  0  0  0
   22.8987   -8.8082  -19.7470 O   0  0  0  0  0  0  0  0  0  0  0  0
   17.5775  -11.2866  -14.2276 C   0  0  0  0  0  0  0  0  0  0  0  0
   18.9952  -11.7169  -15.2488 S   0  0  0  0  0  0  0  0  0  0  0  0
   19.8672  -10.2109  -15.8272 C   0  0  0  0  0  0  0  0  0  0  0  0
   20.9872  -10.6728  -16.6864 C   0  0  0  0  0  0  0  0  0  0  0  0
   21.8161   -9.6038  -17.3249 C   0  0  2  0  0  0  0  0  0  0  0  0
   22.8754  -10.3060  -18.0394 N   0  0  0  0  0  0  0  0  0  0  0  0
   22.3344   -8.5771  -16.4194 C   0  0  0  0  0  0  0  0  0  0  0  0
   23.4261   -8.8008  -15.8389 O   0  0  0  0  0  0  0  0  0  0  0  0
   21.6698   -7.3413  -16.1615 N   0  0  0  0  0  0  0  0  0  0  0  0
   22.2375   -6.4585  -15.1780 C   0  0  1  0  0  0  0  0  0  0  0  0
   22.9753   -5.3432  -15.8836 C   0  0  0  0  0  0  0  0  0  0  0  0
   23.5009   -4.1620  -14.5845 S   0  0  0  0  0  0  0  0  0  0  0  0
   21.1753   -5.8030  -14.3478 C   0  0  0  0  0  0  0  0  0  0  0  0
   21.5742   -5.1990  -13.1664 O   0  0  0  0  0  0  0  0  0  0  0  0
   19.9765   -5.7740  -14.6591 O   0  0  0  0  0  0  0  0  0  0  0  0
  1  2  1  0
  2  3  2  0
  4  5  1  0
  4  2  1  0
  5  6  1  6
  7  5  1  0
  8  7  2  0
  9 10  1  0
 11 10  1  0
 11 12  1  0
 13 12  1  1
 13 15  1  0
 13 14  1  0
 14  7  1  0
 15 17  1  0
 16 15  2  0
 17 18  1  0
 18 21  1  0
 18 19  1  6
 20 19  1  0
 21 23  2  0
 21 22  1  0
M  END
$$$$
