NMC.pdb
     RDKit          3D

 23 22  0  0  1  0  0  0  0  0999 V2000
   18.2319  -13.4534  -18.9828 N   0  0  0  0  0  0  0  0  0  0  0  0
   19.0915  -13.7851  -17.9126 C   0  0  0  0  0  0  0  0  0  0  0  0
   19.0479  -14.9977  -17.5139 O   0  0  0  0  0  0  0  0  0  0  0  0
   20.0034  -12.8053  -17.2676 C   0  0  0  0  0  0  0  0  0  0  0  0
   19.8841  -11.4619  -17.9369 C   0  0  2  0  0  0  0  0  0  0  0  0
   20.5761  -11.5253  -19.2106 N   0  0  0  0  0  0  0  0  0  0  0  0
   20.4342  -10.3603  -17.1407 C   0  0  0  0  0  0  0  0  0  0  0  0
   19.9837  -10.1178  -15.9670 O   0  0  0  0  0  0  0  0  0  0  0  0
   25.9406   -9.5990  -13.7890 C   0  0  0  0  0  0  0  0  0  0  0  0
   24.8698   -9.7829  -15.2234 S   0  0  0  0  0  0  0  0  0  0  0  0
   24.4040   -8.1464  -15.9074 C   0  0  0  0  0  0  0  0  0  0  0  0
   23.4951   -8.4084  -17.0525 C   0  0  0  0  0  0  0  0  0  0  0  0
   22.0310   -8.4225  -16.7458 C   0  0  2  0  0  0  0  0  0  0  0  0
   21.4711   -9.4908  -17.5651 N   0  0  0  0  0  0  0  0  0  0  0  0
   21.3322   -7.1494  -16.9287 C   0  0  0  0  0  0  0  0  0  0  0  0
   21.1051   -6.7659  -18.1036 O   0  0  0  0  0  0  0  0  0  0  0  0
   20.8969   -6.3238  -15.8497 N   0  0  0  0  0  0  0  0  0  0  0  0
   20.2908   -5.0583  -16.1659 C   0  0  1  0  0  0  0  0  0  0  0  0
   19.2299   -4.7479  -15.1342 C   0  0  0  0  0  0  0  0  0  0  0  0
   18.5722   -3.0875  -15.5457 S   0  0  0  0  0  0  0  0  0  0  0  0
   21.2856   -3.9391  -16.0985 C   0  0  0  0  0  0  0  0  0  0  0  0
   21.3685   -3.0952  -17.1942 O   0  0  0  0  0  0  0  0  0  0  0  0
   22.0269   -3.7326  -15.1275 O   0  0  0  0  0  0  0  0  0  0  0  0
  1  2  1  0
  2  3  2  0
  4  5  1  0
  4  2  1  0
  5  6  1  6
  7  5  1  0
  8  7  2  0
  9 10  1  0
 11 10  1  0
 11 12  1  0
 13 12  1  6
 13 15  1  0
 13 14  1  0
 14  7  1  0
 15 17  1  0
 16 15  2  0
 17 18  1  0
 18 21  1  0
 18 19  1  1
 20 19  1  0
 21 23  2  0
 21 22  1  0
M  END
$$$$
