NMC.pdb
     RDKit          3D

 23 22  0  0  1  0  0  0  0  0999 V2000
   19.7666  -18.0445  -16.2670 N   0  0  0  0  0  0  0  0  0  0  0  0
   20.5449  -17.0292  -16.8653 C   0  0  0  0  0  0  0  0  0  0  0  0
   20.6531  -17.0820  -18.1367 O   0  0  0  0  0  0  0  0  0  0  0  0
   21.2106  -15.9507  -16.0899 C   0  0  0  0  0  0  0  0  0  0  0  0
   21.2253  -14.6706  -16.8826 C   0  0  2  0  0  0  0  0  0  0  0  0
   22.0891  -14.8583  -18.0332 N   0  0  0  0  0  0  0  0  0  0  0  0
   21.6876  -13.5110  -16.1134 C   0  0  0  0  0  0  0  0  0  0  0  0
   21.0078  -13.0771  -15.1190 O   0  0  0  0  0  0  0  0  0  0  0  0
   27.6789  -12.3318  -15.2510 C   0  0  0  0  0  0  0  0  0  0  0  0
   27.2346  -10.5916  -15.3606 S   0  0  0  0  0  0  0  0  0  0  0  0
   25.4303  -10.3602  -15.1280 C   0  0  0  0  0  0  0  0  0  0  0  0
   24.7687  -11.5397  -15.7423 C   0  0  0  0  0  0  0  0  0  0  0  0
   23.2756  -11.5791  -15.6590 C   0  0  2  0  0  0  0  0  0  0  0  0
   22.8766  -12.7841  -16.3763 N   0  0  0  0  0  0  0  0  0  0  0  0
   22.5816  -10.3834  -16.1399 C   0  0  0  0  0  0  0  0  0  0  0  0
   22.5696  -10.1674  -17.3778 O   0  0  0  0  0  0  0  0  0  0  0  0
   21.9208   -9.4538  -15.2828 N   0  0  0  0  0  0  0  0  0  0  0  0
   21.3779   -8.2580  -15.8696 C   0  0  1  0  0  0  0  0  0  0  0  0
   19.8685   -8.3474  -15.8645 C   0  0  0  0  0  0  0  0  0  0  0  0
   19.2476   -6.7157  -16.4216 S   0  0  0  0  0  0  0  0  0  0  0  0
   21.7315   -7.0417  -15.0680 C   0  0  0  0  0  0  0  0  0  0  0  0
   21.8913   -5.8505  -15.7572 O   0  0  0  0  0  0  0  0  0  0  0  0
   21.8860   -7.0466  -13.8387 O   0  0  0  0  0  0  0  0  0  0  0  0
  1  2  1  0
  2  3  2  0
  4  5  1  0
  4  2  1  0
  5  6  1  6
  7  5  1  0
  8  7  2  0
  9 10  1  0
 11 10  1  0
 11 12  1  0
 13 12  1  6
 13 15  1  0
 13 14  1  0
 14  7  1  0
 15 17  1  0
 16 15  2  0
 17 18  1  0
 18 21  1  0
 18 19  1  1
 20 19  1  0
 21 23  2  0
 21 22  1  0
M  END
$$$$
