NMC.pdb
     RDKit          3D

 23 22  0  0  1  0  0  0  0  0999 V2000
   29.8069  -25.1214  -20.2030 N   0  0  0  0  0  0  0  0  0  0  0  0
   30.7390  -24.7388  -19.2135 C   0  0  0  0  0  0  0  0  0  0  0  0
   31.9664  -24.7485  -19.5662 O   0  0  0  0  0  0  0  0  0  0  0  0
   30.3472  -24.3433  -17.8359 C   0  0  0  0  0  0  0  0  0  0  0  0
   28.8478  -24.3435  -17.6992 C   0  0  2  0  0  0  0  0  0  0  0  0
   28.4670  -23.2181  -16.8663 N   0  0  0  0  0  0  0  0  0  0  0  0
   28.3131  -25.5792  -17.1184 C   0  0  0  0  0  0  0  0  0  0  0  0
   28.9570  -26.1987  -16.2015 O   0  0  0  0  0  0  0  0  0  0  0  0
   22.2822  -26.9501  -18.0660 C   0  0  0  0  0  0  0  0  0  0  0  0
   22.5333  -28.0226  -16.6432 S   0  0  0  0  0  0  0  0  0  0  0  0
   24.3054  -28.4541  -16.4527 C   0  0  0  0  0  0  0  0  0  0  0  0
   25.0815  -27.3007  -16.9757 C   0  0  0  0  0  0  0  0  0  0  0  0
   26.5710  -27.4176  -16.9033 C   0  0  2  0  0  0  0  0  0  0  0  0
   27.0880  -26.1880  -17.4922 N   0  0  0  0  0  0  0  0  0  0  0  0
   27.1437  -28.6176  -17.5153 C   0  0  0  0  0  0  0  0  0  0  0  0
   27.3350  -28.6111  -18.7573 O   0  0  0  0  0  0  0  0  0  0  0  0
   27.4951  -29.7893  -16.7812 N   0  0  0  0  0  0  0  0  0  0  0  0
   28.0439  -30.9042  -17.5055 C   0  0  1  0  0  0  0  0  0  0  0  0
   29.3061  -31.3684  -16.8143 C   0  0  0  0  0  0  0  0  0  0  0  0
   30.6823  -30.3939  -17.5322 S   0  0  0  0  0  0  0  0  0  0  0  0
   27.1079  -32.0751  -17.5061 C   0  0  0  0  0  0  0  0  0  0  0  0
   27.5109  -33.2108  -18.1897 O   0  0  0  0  0  0  0  0  0  0  0  0
   26.0084  -32.0796  -16.9350 O   0  0  0  0  0  0  0  0  0  0  0  0
  1  2  1  0
  2  3  2  0
  4  5  1  0
  4  2  1  0
  5  6  1  1
  7  5  1  0
  8  7  2  0
  9 10  1  0
 11 10  1  0
 11 12  1  0
 13 12  1  6
 13 15  1  0
 13 14  1  0
 14  7  1  0
 15 17  1  0
 16 15  2  0
 17 18  1  0
 18 21  1  0
 18 19  1  1
 20 19  1  0
 21 23  2  0
 21 22  1  0
M  END
$$$$
