LQA.pdb
     RDKit          3D

 23 22  0  0  1  0  0  0  0  0999 V2000
    6.3459  -12.0993   24.2828 C   0  0  0  0  0  0  0  0  0  0  0  0
    5.8717  -12.6325   25.6176 C   0  0  2  0  0  0  0  0  0  0  0  0
    5.8556  -11.5004   26.5902 C   0  0  0  0  0  0  0  0  0  0  0  0
    6.6924  -13.8181   26.0640 C   0  0  0  0  0  0  0  0  0  0  0  0
    6.6288  -14.9249   25.0474 C   0  0  2  0  0  0  0  0  0  0  0  0
    5.4271  -15.6890   25.3105 N   0  0  0  0  0  0  0  0  0  0  0  0
    7.7860  -15.8049   25.1553 C   0  0  0  0  0  0  0  0  0  0  0  0
    7.7581  -16.7861   25.9366 O   0  0  0  0  0  0  0  0  0  0  0  0
   14.2428  -17.3022   21.8941 N   0  0  0  0  0  0  0  0  0  0  0  0
   12.8341  -17.2703   21.9949 C   0  0  0  0  0  0  0  0  0  0  0  0
   12.1880  -17.1498   20.9121 O   0  0  0  0  0  0  0  0  0  0  0  0
   12.1599  -17.3747   23.3205 C   0  0  0  0  0  0  0  0  0  0  0  0
   10.9815  -16.4317   23.2969 C   0  0  0  0  0  0  0  0  0  0  0  0
   10.1178  -16.5371   24.5106 C   0  0  2  0  0  0  0  0  0  0  0  0
    8.9967  -15.6290   24.4107 N   0  0  0  0  0  0  0  0  0  0  0  0
   10.8026  -16.3408   25.7804 C   0  0  0  0  0  0  0  0  0  0  0  0
   11.7733  -17.0889   26.0495 O   0  0  0  0  0  0  0  0  0  0  0  0
   10.3517  -14.3072   28.9687 C   0  0  0  0  0  0  0  0  0  0  0  0
   11.0552  -15.2524   28.0471 C   0  0  2  0  0  0  0  0  0  0  0  0
   10.4598  -15.3629   26.7498 N   0  0  0  0  0  0  0  0  0  0  0  0
   11.0988  -16.5946   28.6564 C   0  0  0  0  0  0  0  0  0  0  0  0
   11.7154  -16.8283   29.8789 O   0  0  0  0  0  0  0  0  0  0  0  0
   10.5719  -17.5805   28.0792 O   0  0  0  0  0  0  0  0  0  0  0  0
  2  1  1  6
  3  2  1  0
  4  2  1  0
  5  4  1  0
  5  6  1  1
  7  5  1  0
  8  7  2  0
  9 10  1  0
 10 12  1  0
 11 10  2  0
 12 13  1  0
 14 13  1  6
 14 16  1  0
 14 15  1  0
 15  7  1  0
 16 17  2  0
 19 18  1  1
 20 19  1  0
 20 16  1  0
 21 19  1  0
 22 21  1  0
 23 21  2  0
M  END
$$$$
