LQA.pdb
     RDKit          3D

 23 22  0  0  1  0  0  0  0  0999 V2000
    6.5746  -12.0349   24.4767 C   0  0  0  0  0  0  0  0  0  0  0  0
    5.9085  -12.8778   25.5428 C   0  0  2  0  0  0  0  0  0  0  0  0
    5.5696  -11.9886   26.6928 C   0  0  0  0  0  0  0  0  0  0  0  0
    6.7542  -14.0717   25.9141 C   0  0  0  0  0  0  0  0  0  0  0  0
    6.8366  -15.0444   24.7697 C   0  0  2  0  0  0  0  0  0  0  0  0
    5.6642  -15.8919   24.8336 N   0  0  0  0  0  0  0  0  0  0  0  0
    8.0306  -15.8746   24.8705 C   0  0  0  0  0  0  0  0  0  0  0  0
    8.0464  -16.8603   25.6465 O   0  0  0  0  0  0  0  0  0  0  0  0
   11.1702  -18.8709   21.9634 N   0  0  0  0  0  0  0  0  0  0  0  0
   12.2025  -18.5770   22.8820 C   0  0  0  0  0  0  0  0  0  0  0  0
   12.7972  -19.5650   23.4060 O   0  0  0  0  0  0  0  0  0  0  0  0
   12.5593  -17.1661   23.2053 C   0  0  0  0  0  0  0  0  0  0  0  0
   11.2950  -16.3494   23.0922 C   0  0  0  0  0  0  0  0  0  0  0  0
   10.4324  -16.4268   24.3088 C   0  0  2  0  0  0  0  0  0  0  0  0
    9.2310  -15.6430   24.1245 N   0  0  0  0  0  0  0  0  0  0  0  0
   11.0819  -16.0516   25.5568 C   0  0  0  0  0  0  0  0  0  0  0  0
   12.2751  -15.6666   25.5087 O   0  0  0  0  0  0  0  0  0  0  0  0
   10.4759  -14.4851   28.7046 C   0  0  0  0  0  0  0  0  0  0  0  0
   11.1019  -15.6788   28.0561 C   0  0  2  0  0  0  0  0  0  0  0  0
   10.4710  -16.0856   26.8370 N   0  0  0  0  0  0  0  0  0  0  0  0
   11.0823  -16.8167   28.9940 C   0  0  0  0  0  0  0  0  0  0  0  0
   10.5087  -18.0366   28.6593 O   0  0  0  0  0  0  0  0  0  0  0  0
   11.5912  -16.7145   30.1399 O   0  0  0  0  0  0  0  0  0  0  0  0
  2  1  1  6
  3  2  1  0
  4  2  1  0
  5  4  1  0
  5  6  1  1
  7  5  1  0
  8  7  2  0
  9 10  1  0
 10 12  1  0
 11 10  2  0
 12 13  1  0
 14 13  1  6
 14 16  1  0
 14 15  1  0
 15  7  1  0
 16 17  2  0
 19 18  1  1
 20 19  1  0
 20 16  1  0
 21 19  1  0
 22 21  1  0
 23 21  2  0
M  END
$$$$
