LQA.pdb
     RDKit          3D

 23 22  0  0  1  0  0  0  0  0999 V2000
    8.3702  -13.0436   18.8441 C   0  0  0  0  0  0  0  0  0  0  0  0
    7.5818  -13.4795   20.0604 C   0  0  2  0  0  0  0  0  0  0  0  0
    7.2717  -12.2657   20.8718 C   0  0  0  0  0  0  0  0  0  0  0  0
    8.2979  -14.5665   20.8247 C   0  0  0  0  0  0  0  0  0  0  0  0
    8.6032  -15.7362   19.9296 C   0  0  2  0  0  0  0  0  0  0  0  0
    7.3428  -16.3583   19.5813 N   0  0  0  0  0  0  0  0  0  0  0  0
    9.4446  -16.7131   20.6101 C   0  0  0  0  0  0  0  0  0  0  0  0
    8.9254  -17.5767   21.3576 O   0  0  0  0  0  0  0  0  0  0  0  0
   14.8938  -18.9221   18.6779 N   0  0  0  0  0  0  0  0  0  0  0  0
   14.9555  -19.2851   20.0417 C   0  0  0  0  0  0  0  0  0  0  0  0
   16.0635  -19.7315   20.4630 O   0  0  0  0  0  0  0  0  0  0  0  0
   13.7634  -19.1422   20.9256 C   0  0  0  0  0  0  0  0  0  0  0  0
   12.9465  -17.9916   20.3897 C   0  0  0  0  0  0  0  0  0  0  0  0
   11.6792  -17.7654   21.1467 C   0  0  2  0  0  0  0  0  0  0  0  0
   10.8704  -16.7647   20.4863 N   0  0  0  0  0  0  0  0  0  0  0  0
   11.8468  -17.4191   22.5510 C   0  0  0  0  0  0  0  0  0  0  0  0
   12.4997  -16.3846   22.8299 O   0  0  0  0  0  0  0  0  0  0  0  0
   10.3066  -17.9712   25.8719 C   0  0  0  0  0  0  0  0  0  0  0  0
   11.5309  -17.8406   25.0225 C   0  0  2  0  0  0  0  0  0  0  0  0
   11.3273  -18.1623   23.6424 N   0  0  0  0  0  0  0  0  0  0  0  0
   12.5947  -18.7133   25.5531 C   0  0  0  0  0  0  0  0  0  0  0  0
   13.1770  -19.7140   24.7857 O   0  0  0  0  0  0  0  0  0  0  0  0
   13.0117  -18.5751   26.7320 O   0  0  0  0  0  0  0  0  0  0  0  0
  2  1  1  6
  3  2  1  0
  4  2  1  0
  5  4  1  0
  5  6  1  1
  7  5  1  0
  8  7  2  0
  9 10  1  0
 10 12  1  0
 11 10  2  0
 12 13  1  0
 14 13  1  6
 14 16  1  0
 14 15  1  0
 15  7  1  0
 16 17  2  0
 19 18  1  1
 20 19  1  0
 20 16  1  0
 21 19  1  0
 22 21  1  0
 23 21  2  0
M  END
$$$$
