LQA.pdb
     RDKit          3D

 23 22  0  0  1  0  0  0  0  0999 V2000
    6.4797  -12.1230   24.3810 C   0  0  0  0  0  0  0  0  0  0  0  0
    5.9648  -12.8647   25.5958 C   0  0  2  0  0  0  0  0  0  0  0  0
    5.7449  -11.8708   26.6874 C   0  0  0  0  0  0  0  0  0  0  0  0
    6.8760  -14.0068   25.9752 C   0  0  0  0  0  0  0  0  0  0  0  0
    6.9403  -15.0277   24.8725 C   0  0  2  0  0  0  0  0  0  0  0  0
    5.7904  -15.8961   25.0159 N   0  0  0  0  0  0  0  0  0  0  0  0
    8.1557  -15.8272   24.9667 C   0  0  0  0  0  0  0  0  0  0  0  0
    8.1733  -16.8620   25.6757 O   0  0  0  0  0  0  0  0  0  0  0  0
   11.7362  -17.6168   21.0832 N   0  0  0  0  0  0  0  0  0  0  0  0
   12.7560  -17.7315   22.0541 C   0  0  0  0  0  0  0  0  0  0  0  0
   13.6653  -18.5836   21.8275 O   0  0  0  0  0  0  0  0  0  0  0  0
   12.7444  -16.8816   23.2790 C   0  0  0  0  0  0  0  0  0  0  0  0
   11.4795  -16.0589   23.2388 C   0  0  0  0  0  0  0  0  0  0  0  0
   10.5649  -16.3275   24.3885 C   0  0  2  0  0  0  0  0  0  0  0  0
    9.3759  -15.5105   24.2870 N   0  0  0  0  0  0  0  0  0  0  0  0
   11.1616  -16.1720   25.7075 C   0  0  0  0  0  0  0  0  0  0  0  0
   12.2219  -16.7963   25.9530 O   0  0  0  0  0  0  0  0  0  0  0  0
   10.6982  -14.0515   28.8290 C   0  0  0  0  0  0  0  0  0  0  0  0
   11.2380  -15.2018   28.0396 C   0  0  2  0  0  0  0  0  0  0  0  0
   10.6379  -15.3643   26.7500 N   0  0  0  0  0  0  0  0  0  0  0  0
   11.0545  -16.4516   28.8007 C   0  0  0  0  0  0  0  0  0  0  0  0
   10.3576  -17.5346   28.2804 O   0  0  0  0  0  0  0  0  0  0  0  0
   11.5302  -16.5751   29.9587 O   0  0  0  0  0  0  0  0  0  0  0  0
  2  1  1  6
  3  2  1  0
  4  2  1  0
  5  4  1  0
  5  6  1  1
  7  5  1  0
  8  7  2  0
  9 10  1  0
 10 12  1  0
 11 10  2  0
 12 13  1  0
 14 13  1  6
 14 16  1  0
 14 15  1  0
 15  7  1  0
 16 17  2  0
 19 18  1  1
 20 19  1  0
 20 16  1  0
 21 19  1  0
 22 21  1  0
 23 21  2  0
M  END
$$$$
