LQA.pdb
     RDKit          3D

 23 22  0  0  1  0  0  0  0  0999 V2000
    9.5025  -13.2275   19.1563 C   0  0  0  0  0  0  0  0  0  0  0  0
    8.0294  -13.4488   19.4246 C   0  0  2  0  0  0  0  0  0  0  0  0
    7.3071  -12.1773   19.1253 C   0  0  0  0  0  0  0  0  0  0  0  0
    7.7935  -13.9794   20.8179 C   0  0  0  0  0  0  0  0  0  0  0  0
    8.4647  -15.3128   21.0024 C   0  0  2  0  0  0  0  0  0  0  0  0
    7.7822  -16.2650   20.1513 N   0  0  0  0  0  0  0  0  0  0  0  0
    8.3733  -15.7602   22.3868 C   0  0  0  0  0  0  0  0  0  0  0  0
    7.2500  -15.9483   22.9131 O   0  0  0  0  0  0  0  0  0  0  0  0
   12.9002  -19.0910   23.4348 N   0  0  0  0  0  0  0  0  0  0  0  0
   12.4305  -18.7048   24.7098 C   0  0  0  0  0  0  0  0  0  0  0  0
   12.6611  -19.5013   25.6673 O   0  0  0  0  0  0  0  0  0  0  0  0
   11.7011  -17.4183   24.8984 C   0  0  0  0  0  0  0  0  0  0  0  0
   10.2274  -17.7183   24.7696 C   0  0  0  0  0  0  0  0  0  0  0  0
    9.3912  -16.4956   24.5804 C   0  0  2  0  0  0  0  0  0  0  0  0
    9.5087  -16.0107   23.2230 N   0  0  0  0  0  0  0  0  0  0  0  0
    9.6523  -15.4123   25.5176 C   0  0  0  0  0  0  0  0  0  0  0  0
    9.6242  -14.2357   25.0826 O   0  0  0  0  0  0  0  0  0  0  0  0
    8.9474  -13.6070   27.9837 C   0  0  0  0  0  0  0  0  0  0  0  0
   10.1317  -14.5074   27.8279 C   0  0  2  0  0  0  0  0  0  0  0  0
    9.9392  -15.5782   26.8973 N   0  0  0  0  0  0  0  0  0  0  0  0
   10.4876  -15.0852   29.1372 C   0  0  0  0  0  0  0  0  0  0  0  0
   10.5617  -16.4573   29.3405 O   0  0  0  0  0  0  0  0  0  0  0  0
   10.7379  -14.3427   30.1213 O   0  0  0  0  0  0  0  0  0  0  0  0
  2  1  1  1
  3  2  1  0
  4  2  1  0
  5  4  1  0
  5  6  1  6
  7  5  1  0
  8  7  2  0
  9 10  1  0
 10 12  1  0
 11 10  2  0
 12 13  1  0
 14 13  1  1
 14 16  1  0
 14 15  1  0
 15  7  1  0
 16 17  2  0
 19 18  1  1
 20 19  1  0
 20 16  1  0
 21 19  1  0
 22 21  1  0
 23 21  2  0
M  END
$$$$
