LQA.pdb
     RDKit          3D

 23 22  0  0  1  0  0  0  0  0999 V2000
    8.0943  -12.1650   18.8340 C   0  0  0  0  0  0  0  0  0  0  0  0
    7.6479  -13.4807   19.4344 C   0  0  2  0  0  0  0  0  0  0  0  0
    6.8463  -13.1840   20.6581 C   0  0  0  0  0  0  0  0  0  0  0  0
    8.8163  -14.4065   19.6714 C   0  0  0  0  0  0  0  0  0  0  0  0
    9.5933  -14.6216   18.4016 C   0  0  2  0  0  0  0  0  0  0  0  0
    8.8319  -15.5345   17.5747 N   0  0  0  0  0  0  0  0  0  0  0  0
   10.9000  -15.2060   18.6776 C   0  0  0  0  0  0  0  0  0  0  0  0
   11.0210  -16.4498   18.7881 O   0  0  0  0  0  0  0  0  0  0  0  0
   15.4789  -14.9632   16.4111 N   0  0  0  0  0  0  0  0  0  0  0  0
   16.3039  -15.1605   17.5408 C   0  0  0  0  0  0  0  0  0  0  0  0
   17.4222  -15.7198   17.3389 O   0  0  0  0  0  0  0  0  0  0  0  0
   15.8614  -14.7243   18.8960 C   0  0  0  0  0  0  0  0  0  0  0  0
   14.4895  -14.1140   18.7421 C   0  0  0  0  0  0  0  0  0  0  0  0
   13.3843  -15.0462   19.1158 C   0  0  2  0  0  0  0  0  0  0  0  0
   12.1003  -14.4413   18.8381 N   0  0  0  0  0  0  0  0  0  0  0  0
   13.4168  -15.5311   20.4884 C   0  0  0  0  0  0  0  0  0  0  0  0
   13.2745  -14.6952   21.4132 O   0  0  0  0  0  0  0  0  0  0  0  0
   13.3988  -18.8403   22.3504 C   0  0  0  0  0  0  0  0  0  0  0  0
   13.5896  -17.3623   22.2212 C   0  0  2  0  0  0  0  0  0  0  0  0
   13.5981  -16.8853   20.8714 N   0  0  0  0  0  0  0  0  0  0  0  0
   14.8585  -16.9709   22.8625 C   0  0  0  0  0  0  0  0  0  0  0  0
   15.8883  -16.3692   22.1505 O   0  0  0  0  0  0  0  0  0  0  0  0
   15.0482  -17.1731   24.0896 O   0  0  0  0  0  0  0  0  0  0  0  0
  2  1  1  1
  3  2  1  0
  4  2  1  0
  5  4  1  0
  5  6  1  6
  7  5  1  0
  8  7  2  0
  9 10  1  0
 10 12  1  0
 11 10  2  0
 12 13  1  0
 14 13  1  1
 14 16  1  0
 14 15  1  0
 15  7  1  0
 16 17  2  0
 19 18  1  6
 20 19  1  0
 20 16  1  0
 21 19  1  0
 22 21  1  0
 23 21  2  0
M  END
$$$$
