LQA.pdb
     RDKit          3D

 23 22  0  0  1  0  0  0  0  0999 V2000
    5.5057  -12.6800   26.0449 C   0  0  0  0  0  0  0  0  0  0  0  0
    6.9106  -12.9491   25.5502 C   0  0  2  0  0  0  0  0  0  0  0  0
    7.6820  -11.6736   25.6274 C   0  0  0  0  0  0  0  0  0  0  0  0
    6.9039  -13.5844   24.1810 C   0  0  0  0  0  0  0  0  0  0  0  0
    6.7366  -15.0756   24.2850 C   0  0  2  0  0  0  0  0  0  0  0  0
    5.6250  -15.3276   25.1783 N   0  0  0  0  0  0  0  0  0  0  0  0
    7.9356  -15.7024   24.8279 C   0  0  0  0  0  0  0  0  0  0  0  0
    7.9362  -16.1449   26.0019 O   0  0  0  0  0  0  0  0  0  0  0  0
   12.8541  -18.4363   21.2682 N   0  0  0  0  0  0  0  0  0  0  0  0
   11.6521  -17.6941   21.2642 C   0  0  0  0  0  0  0  0  0  0  0  0
   11.4296  -16.9755   20.2451 O   0  0  0  0  0  0  0  0  0  0  0  0
   10.7048  -17.7667   22.4131 C   0  0  0  0  0  0  0  0  0  0  0  0
   11.2598  -16.8844   23.5049 C   0  0  0  0  0  0  0  0  0  0  0  0
   10.2812  -16.6164   24.6007 C   0  0  2  0  0  0  0  0  0  0  0  0
    9.1577  -15.8575   24.0974 N   0  0  0  0  0  0  0  0  0  0  0  0
   10.8314  -15.9636   25.7802 C   0  0  0  0  0  0  0  0  0  0  0  0
   11.6024  -14.9886   25.6096 O   0  0  0  0  0  0  0  0  0  0  0  0
   10.3270  -14.5852   28.8257 C   0  0  0  0  0  0  0  0  0  0  0  0
   11.1350  -15.7181   28.2769 C   0  0  2  0  0  0  0  0  0  0  0  0
   10.5652  -16.3426   27.1214 N   0  0  0  0  0  0  0  0  0  0  0  0
   11.3173  -16.7446   29.3199 C   0  0  0  0  0  0  0  0  0  0  0  0
   10.9452  -18.0683   29.1230 O   0  0  0  0  0  0  0  0  0  0  0  0
   11.8219  -16.4476   30.4334 O   0  0  0  0  0  0  0  0  0  0  0  0
  2  1  1  6
  3  2  1  0
  4  2  1  0
  5  4  1  0
  5  6  1  1
  7  5  1  0
  8  7  2  0
  9 10  1  0
 10 12  1  0
 11 10  2  0
 12 13  1  0
 14 13  1  6
 14 16  1  0
 14 15  1  0
 15  7  1  0
 16 17  2  0
 19 18  1  1
 20 19  1  0
 20 16  1  0
 21 19  1  0
 22 21  1  0
 23 21  2  0
M  END
$$$$
