LQA.pdb
     RDKit          3D

 23 22  0  0  1  0  0  0  0  0999 V2000
    8.9352  -12.6942   18.5259 C   0  0  0  0  0  0  0  0  0  0  0  0
    7.7927  -13.3537   19.2679 C   0  0  2  0  0  0  0  0  0  0  0  0
    7.0377  -12.2915   19.9958 C   0  0  0  0  0  0  0  0  0  0  0  0
    8.2798  -14.4785   20.1488 C   0  0  0  0  0  0  0  0  0  0  0  0
    9.0491  -15.4911   19.3455 C   0  0  2  0  0  0  0  0  0  0  0  0
    8.1004  -16.1923   18.5056 N   0  0  0  0  0  0  0  0  0  0  0  0
    9.7181  -16.4523   20.2137 C   0  0  0  0  0  0  0  0  0  0  0  0
    9.0607  -17.3742   20.7539 O   0  0  0  0  0  0  0  0  0  0  0  0
   15.5088  -18.3626   19.8260 N   0  0  0  0  0  0  0  0  0  0  0  0
   15.1204  -19.0770   20.9812 C   0  0  0  0  0  0  0  0  0  0  0  0
   15.9641  -19.8934   21.4566 O   0  0  0  0  0  0  0  0  0  0  0  0
   13.7785  -18.8658   21.5956 C   0  0  0  0  0  0  0  0  0  0  0  0
   13.1161  -17.7377   20.8427 C   0  0  0  0  0  0  0  0  0  0  0  0
   11.7601  -17.3956   21.3666 C   0  0  2  0  0  0  0  0  0  0  0  0
   11.1194  -16.4240   20.5081 N   0  0  0  0  0  0  0  0  0  0  0  0
   11.7245  -16.9360   22.7477 C   0  0  0  0  0  0  0  0  0  0  0  0
   12.5405  -16.0486   23.0957 O   0  0  0  0  0  0  0  0  0  0  0  0
    9.4423  -16.9499   25.7183 C   0  0  0  0  0  0  0  0  0  0  0  0
   10.8049  -16.9592   25.1014 C   0  0  2  0  0  0  0  0  0  0  0  0
   10.8340  -17.4133   23.7440 N   0  0  0  0  0  0  0  0  0  0  0  0
   11.7017  -17.8159   25.8993 C   0  0  0  0  0  0  0  0  0  0  0  0
   12.3312  -18.9291   25.3571 O   0  0  0  0  0  0  0  0  0  0  0  0
   11.9260  -17.5603   27.1105 O   0  0  0  0  0  0  0  0  0  0  0  0
  2  1  1  1
  3  2  1  0
  4  2  1  0
  5  4  1  0
  5  6  1  6
  7  5  1  0
  8  7  2  0
  9 10  1  0
 10 12  1  0
 11 10  2  0
 12 13  1  0
 14 13  1  6
 14 16  1  0
 14 15  1  0
 15  7  1  0
 16 17  2  0
 19 18  1  1
 20 19  1  0
 20 16  1  0
 21 19  1  0
 22 21  1  0
 23 21  2  0
M  END
$$$$
