LQA.pdb
     RDKit          3D

 23 22  0  0  1  0  0  0  0  0999 V2000
    9.2382  -13.8080   19.4655 C   0  0  0  0  0  0  0  0  0  0  0  0
    7.7341  -13.6496   19.4063 C   0  0  2  0  0  0  0  0  0  0  0  0
    7.4314  -12.2589   18.9564 C   0  0  0  0  0  0  0  0  0  0  0  0
    7.0849  -14.0302   20.7148 C   0  0  0  0  0  0  0  0  0  0  0  0
    7.4164  -15.4506   21.0821 C   0  0  2  0  0  0  0  0  0  0  0  0
    6.5976  -16.3156   20.2584 N   0  0  0  0  0  0  0  0  0  0  0  0
    7.1232  -15.7125   22.4860 C   0  0  0  0  0  0  0  0  0  0  0  0
    5.9766  -15.4842   22.9412 O   0  0  0  0  0  0  0  0  0  0  0  0
    7.7364  -20.4813   25.7251 N   0  0  0  0  0  0  0  0  0  0  0  0
    7.3536  -19.6175   26.7752 C   0  0  0  0  0  0  0  0  0  0  0  0
    6.9723  -20.1642   27.8523 O   0  0  0  0  0  0  0  0  0  0  0  0
    7.4031  -18.1373   26.6041 C   0  0  0  0  0  0  0  0  0  0  0  0
    7.7701  -17.8669   25.1652 C   0  0  0  0  0  0  0  0  0  0  0  0
    7.7827  -16.4132   24.8232 C   0  0  2  0  0  0  0  0  0  0  0  0
    8.0785  -16.2291   23.4196 N   0  0  0  0  0  0  0  0  0  0  0  0
    8.6752  -15.5923   25.6292 C   0  0  0  0  0  0  0  0  0  0  0  0
    9.9097  -15.6887   25.4267 O   0  0  0  0  0  0  0  0  0  0  0  0
    8.5006  -12.8353   28.2421 C   0  0  0  0  0  0  0  0  0  0  0  0
    9.1431  -13.9703   27.5097 C   0  0  2  0  0  0  0  0  0  0  0  0
    8.2604  -14.6822   26.6357 N   0  0  0  0  0  0  0  0  0  0  0  0
    9.7099  -14.9255   28.4798 C   0  0  0  0  0  0  0  0  0  0  0  0
   10.7172  -14.5646   29.3655 O   0  0  0  0  0  0  0  0  0  0  0  0
    9.2924  -16.1109   28.5343 O   0  0  0  0  0  0  0  0  0  0  0  0
  2  1  1  1
  3  2  1  0
  4  2  1  0
  5  4  1  0
  5  6  1  6
  7  5  1  0
  8  7  2  0
  9 10  1  0
 10 12  1  0
 11 10  2  0
 12 13  1  0
 14 13  1  1
 14 16  1  0
 14 15  1  0
 15  7  1  0
 16 17  2  0
 19 18  1  1
 20 19  1  0
 20 16  1  0
 21 19  1  0
 22 21  1  0
 23 21  2  0
M  END
$$$$
