KVF.pdb
     RDKit          3D

 28 28  0  0  1  0  0  0  0  0999 V2000
   19.5806  -16.4903  -19.0597 N   0  0  0  0  0  0  0  0  0  0  0  0
   19.1634  -15.3353  -18.3481 C   0  0  1  0  0  0  0  0  0  0  0  0
   19.0252  -15.5141  -16.8661 C   0  0  0  0  0  0  0  0  0  0  0  0
   18.0945  -16.5730  -16.4108 C   0  0  0  0  0  0  0  0  0  0  0  0
   18.7108  -17.8482  -15.9496 C   0  0  0  0  0  0  0  0  0  0  0  0
   17.6937  -18.7716  -15.3132 C   0  0  0  0  0  0  0  0  0  0  0  0
   17.0692  -18.1774  -14.1509 N   0  0  0  0  0  0  0  0  0  0  0  0
   19.8976  -14.0823  -18.6871 C   0  0  0  0  0  0  0  0  0  0  0  0
   21.0799  -14.1435  -19.1638 O   0  0  0  0  0  0  0  0  0  0  0  0
   20.2725   -9.7236  -20.5815 C   0  0  0  0  0  0  0  0  0  0  0  0
   19.5865  -11.0552  -20.2772 C   0  0  1  0  0  0  0  0  0  0  0  0
   19.8581  -11.9663  -21.4406 C   0  0  0  0  0  0  0  0  0  0  0  0
   20.0953  -11.5937  -18.9770 C   0  0  2  0  0  0  0  0  0  0  0  0
   19.3918  -12.7803  -18.5234 N   0  0  0  0  0  0  0  0  0  0  0  0
   20.0049  -10.5060  -17.9469 C   0  0  0  0  0  0  0  0  0  0  0  0
   18.8900  -10.1068  -17.5286 O   0  0  0  0  0  0  0  0  0  0  0  0
   21.1614   -9.8859  -17.4039 N   0  0  0  0  0  0  0  0  0  0  0  0
   21.0606   -8.8576  -16.3618 C   0  0  1  0  0  0  0  0  0  0  0  0
   22.4129   -8.6889  -15.6741 C   0  0  0  0  0  0  0  0  0  0  0  0
   22.3150   -7.6840  -14.5794 C   0  0  0  0  0  0  0  0  0  0  0  0
   22.5223   -6.3509  -14.8390 C   0  0  0  0  0  0  0  0  0  0  0  0
   22.4298   -5.4075  -13.8257 C   0  0  0  0  0  0  0  0  0  0  0  0
   22.1266   -5.8017  -12.5392 C   0  0  0  0  0  0  0  0  0  0  0  0
   21.9145   -7.1548  -12.2660 C   0  0  0  0  0  0  0  0  0  0  0  0
   22.0120   -8.0762  -13.2916 C   0  0  0  0  0  0  0  0  0  0  0  0
   20.5715   -7.5837  -16.9076 C   0  0  0  0  0  0  0  0  0  0  0  0
   21.0257   -7.1523  -17.9936 O   0  0  0  0  0  0  0  0  0  0  0  0
   19.6119   -6.8325  -16.2547 O   0  0  0  0  0  0  0  0  0  0  0  0
  2  1  1  1
  2  3  1  0
  4  3  1  0
  4  5  1  0
  6  5  1  0
  6  7  1  0
  8  2  1  0
  9  8  2  0
 11 10  1  6
 11 12  1  0
 11 13  1  0
 13 14  1  1
 14  8  1  0
 15 13  1  0
 15 16  2  0
 17 15  1  0
 18 17  1  0
 18 19  1  6
 20 19  1  0
 20 21  2  0
 22 21  1  0
 23 22  2  0
 24 25  2  0
 24 23  1  0
 25 20  1  0
 26 18  1  0
 27 26  2  0
 28 26  1  0
M  END
$$$$
