KVF.pdb
     RDKit          3D

 28 28  0  0  1  0  0  0  0  0999 V2000
   23.2782  -19.6889  -15.9442 N   0  0  0  0  0  0  0  0  0  0  0  0
   23.3010  -19.9594  -14.5511 C   0  0  1  0  0  0  0  0  0  0  0  0
   22.1278  -20.7353  -14.0325 C   0  0  0  0  0  0  0  0  0  0  0  0
   20.8113  -20.0578  -14.0831 C   0  0  0  0  0  0  0  0  0  0  0  0
   20.6271  -19.0392  -15.1541 C   0  0  0  0  0  0  0  0  0  0  0  0
   19.3292  -19.2377  -15.9079 C   0  0  0  0  0  0  0  0  0  0  0  0
   18.1934  -18.7008  -15.1898 N   0  0  0  0  0  0  0  0  0  0  0  0
   24.5915  -20.4959  -14.0306 C   0  0  0  0  0  0  0  0  0  0  0  0
   25.3953  -21.1007  -14.8160 O   0  0  0  0  0  0  0  0  0  0  0  0
   28.8175  -20.4161  -12.5711 C   0  0  0  0  0  0  0  0  0  0  0  0
   27.4334  -19.9584  -13.0307 C   0  0  1  0  0  0  0  0  0  0  0  0
   27.3696  -20.1732  -14.5164 C   0  0  0  0  0  0  0  0  0  0  0  0
   26.3824  -20.7154  -12.2813 C   0  0  2  0  0  0  0  0  0  0  0  0
   25.0281  -20.3975  -12.6974 N   0  0  0  0  0  0  0  0  0  0  0  0
   26.5573  -20.4423  -10.8160 C   0  0  0  0  0  0  0  0  0  0  0  0
   26.4271  -19.2801  -10.3579 O   0  0  0  0  0  0  0  0  0  0  0  0
   26.8737  -21.4724   -9.8910 N   0  0  0  0  0  0  0  0  0  0  0  0
   26.9196  -21.2165   -8.4467 C   0  0  1  0  0  0  0  0  0  0  0  0
   27.8358  -20.0287   -8.1643 C   0  0  0  0  0  0  0  0  0  0  0  0
   28.0188  -19.8538   -6.6967 C   0  0  0  0  0  0  0  0  0  0  0  0
   29.0522  -19.0897   -6.2112 C   0  0  0  0  0  0  0  0  0  0  0  0
   29.2281  -18.9187   -4.8455 C   0  0  0  0  0  0  0  0  0  0  0  0
   28.3611  -19.5183   -3.9560 C   0  0  0  0  0  0  0  0  0  0  0  0
   27.3079  -20.2971   -4.4405 C   0  0  0  0  0  0  0  0  0  0  0  0
   27.1528  -20.4530   -5.8051 C   0  0  0  0  0  0  0  0  0  0  0  0
   25.5745  -21.0022   -7.8947 C   0  0  0  0  0  0  0  0  0  0  0  0
   24.9038  -20.0042   -8.2494 O   0  0  0  0  0  0  0  0  0  0  0  0
   25.0138  -21.8775   -6.9830 O   0  0  0  0  0  0  0  0  0  0  0  0
  2  1  1  6
  2  3  1  0
  4  3  1  0
  4  5  1  0
  6  5  1  0
  6  7  1  0
  8  2  1  0
  9  8  2  0
 11 10  1  1
 11 12  1  0
 11 13  1  0
 13 14  1  6
 14  8  1  0
 15 13  1  0
 15 16  2  0
 17 15  1  0
 18 17  1  0
 18 19  1  6
 20 19  1  0
 20 21  2  0
 22 21  1  0
 23 22  2  0
 24 25  2  0
 24 23  1  0
 25 20  1  0
 26 18  1  0
 27 26  2  0
 28 26  1  0
M  END
$$$$
