KVF.pdb
     RDKit          3D

 28 28  0  0  1  0  0  0  0  0999 V2000
   25.3662  -15.9734  -20.1620 N   0  0  0  0  0  0  0  0  0  0  0  0
   25.7668  -14.9360  -19.2800 C   0  0  1  0  0  0  0  0  0  0  0  0
   26.6910  -15.3574  -18.1774 C   0  0  0  0  0  0  0  0  0  0  0  0
   26.3232  -16.5880  -17.4390 C   0  0  0  0  0  0  0  0  0  0  0  0
   27.0923  -17.8194  -17.7718 C   0  0  0  0  0  0  0  0  0  0  0  0
   27.3515  -18.6735  -16.5489 C   0  0  0  0  0  0  0  0  0  0  0  0
   26.2858  -18.5703  -15.5753 N   0  0  0  0  0  0  0  0  0  0  0  0
   26.2334  -13.6847  -19.9437 C   0  0  0  0  0  0  0  0  0  0  0  0
   27.2812  -13.7002  -20.6721 O   0  0  0  0  0  0  0  0  0  0  0  0
   25.4959   -9.4967  -22.2330 C   0  0  0  0  0  0  0  0  0  0  0  0
   25.0277  -10.8107  -21.6080 C   0  0  1  0  0  0  0  0  0  0  0  0
   24.8397  -11.7902  -22.7317 C   0  0  0  0  0  0  0  0  0  0  0  0
   26.0283  -11.2654  -20.5926 C   0  0  2  0  0  0  0  0  0  0  0  0
   25.6036  -12.4317  -19.8388 N   0  0  0  0  0  0  0  0  0  0  0  0
   26.3160  -10.1201  -19.6664 C   0  0  0  0  0  0  0  0  0  0  0  0
   25.4013   -9.6037  -18.9779 O   0  0  0  0  0  0  0  0  0  0  0  0
   27.6196   -9.5743  -19.5269 N   0  0  0  0  0  0  0  0  0  0  0  0
   27.8930   -8.4737  -18.5956 C   0  0  1  0  0  0  0  0  0  0  0  0
   28.9199   -8.9214  -17.5586 C   0  0  0  0  0  0  0  0  0  0  0  0
   28.4303  -10.1256  -16.8319 C   0  0  0  0  0  0  0  0  0  0  0  0
   29.0342  -11.3450  -17.0213 C   0  0  0  0  0  0  0  0  0  0  0  0
   28.5867  -12.4714  -16.3459 C   0  0  0  0  0  0  0  0  0  0  0  0
   27.5239  -12.3772  -15.4718 C   0  0  0  0  0  0  0  0  0  0  0  0
   26.9037  -11.1417  -15.2733 C   0  0  0  0  0  0  0  0  0  0  0  0
   27.3671  -10.0336  -15.9572 C   0  0  0  0  0  0  0  0  0  0  0  0
   28.3358   -7.2652  -19.3050 C   0  0  0  0  0  0  0  0  0  0  0  0
   28.5943   -7.3180  -20.5306 O   0  0  0  0  0  0  0  0  0  0  0  0
   28.4794   -6.0522  -18.6572 O   0  0  0  0  0  0  0  0  0  0  0  0
  2  1  1  6
  2  3  1  0
  4  3  1  0
  4  5  1  0
  6  5  1  0
  6  7  1  0
  8  2  1  0
  9  8  2  0
 11 10  1  6
 11 12  1  0
 11 13  1  0
 13 14  1  1
 14  8  1  0
 15 13  1  0
 15 16  2  0
 17 15  1  0
 18 17  1  0
 18 19  1  1
 20 19  1  0
 20 21  2  0
 22 21  1  0
 23 22  2  0
 24 25  2  0
 24 23  1  0
 25 20  1  0
 26 18  1  0
 27 26  2  0
 28 26  1  0
M  END
$$$$
