KVF.pdb
     RDKit          3D

 28 28  0  0  1  0  0  0  0  0999 V2000
   28.0666  -22.1494  -16.1898 N   0  0  0  0  0  0  0  0  0  0  0  0
   27.4192  -21.0141  -15.6363 C   0  0  1  0  0  0  0  0  0  0  0  0
   26.8428  -20.0576  -16.6363 C   0  0  0  0  0  0  0  0  0  0  0  0
   27.7597  -19.5736  -17.6945 C   0  0  0  0  0  0  0  0  0  0  0  0
   27.7842  -20.3542  -18.9628 C   0  0  0  0  0  0  0  0  0  0  0  0
   28.6997  -19.7303  -19.9947 C   0  0  0  0  0  0  0  0  0  0  0  0
   29.0088  -18.3505  -19.6869 N   0  0  0  0  0  0  0  0  0  0  0  0
   26.4577  -21.3072  -14.5346 C   0  0  0  0  0  0  0  0  0  0  0  0
   25.7185  -22.3460  -14.5910 O   0  0  0  0  0  0  0  0  0  0  0  0
   25.1219  -21.1650   -9.8370 C   0  0  0  0  0  0  0  0  0  0  0  0
   26.0284  -20.6086  -10.9348 C   0  0  1  0  0  0  0  0  0  0  0  0
   27.3850  -21.2243  -10.7396 C   0  0  0  0  0  0  0  0  0  0  0  0
   25.4332  -20.9094  -12.2744 C   0  0  2  0  0  0  0  0  0  0  0  0
   26.2765  -20.5131  -13.3881 N   0  0  0  0  0  0  0  0  0  0  0  0
   24.0977  -20.2304  -12.3618 C   0  0  0  0  0  0  0  0  0  0  0  0
   23.9495  -19.0483  -11.9642 O   0  0  0  0  0  0  0  0  0  0  0  0
   22.9541  -20.8847  -12.8917 N   0  0  0  0  0  0  0  0  0  0  0  0
   21.6720  -20.1860  -13.0385 C   0  0  1  0  0  0  0  0  0  0  0  0
   21.7198  -19.2769  -14.2638 C   0  0  0  0  0  0  0  0  0  0  0  0
   21.9815  -20.0772  -15.4922 C   0  0  0  0  0  0  0  0  0  0  0  0
   23.2593  -20.2025  -15.9810 C   0  0  0  0  0  0  0  0  0  0  0  0
   23.5126  -20.9490  -17.1229 C   0  0  0  0  0  0  0  0  0  0  0  0
   22.4768  -21.5768  -17.7827 C   0  0  0  0  0  0  0  0  0  0  0  0
   21.1745  -21.4546  -17.2932 C   0  0  0  0  0  0  0  0  0  0  0  0
   20.9467  -20.7059  -16.1540 C   0  0  0  0  0  0  0  0  0  0  0  0
   20.5490  -21.1312  -13.1128 C   0  0  0  0  0  0  0  0  0  0  0  0
   20.7712  -22.3607  -13.2160 O   0  0  0  0  0  0  0  0  0  0  0  0
   19.2345  -20.7046  -13.0718 O   0  0  0  0  0  0  0  0  0  0  0  0
  2  1  1  6
  2  3  1  0
  4  3  1  0
  4  5  1  0
  6  5  1  0
  6  7  1  0
  8  2  1  0
  9  8  2  0
 11 10  1  1
 11 12  1  0
 11 13  1  0
 13 14  1  6
 14  8  1  0
 15 13  1  0
 15 16  2  0
 17 15  1  0
 18 17  1  0
 18 19  1  6
 20 19  1  0
 20 21  2  0
 22 21  1  0
 23 22  2  0
 24 25  2  0
 24 23  1  0
 25 20  1  0
 26 18  1  0
 27 26  2  0
 28 26  1  0
M  END
$$$$
