KVF.pdb
     RDKit          3D

 28 28  0  0  1  0  0  0  0  0999 V2000
   26.5940  -19.4118  -16.1954 N   0  0  0  0  0  0  0  0  0  0  0  0
   27.0057  -20.1838  -15.0779 C   0  0  1  0  0  0  0  0  0  0  0  0
   28.4879  -20.2623  -14.8676 C   0  0  0  0  0  0  0  0  0  0  0  0
   29.2219  -21.2521  -15.6899 C   0  0  0  0  0  0  0  0  0  0  0  0
   28.3988  -22.2752  -16.3931 C   0  0  0  0  0  0  0  0  0  0  0  0
   29.2531  -23.2487  -17.1771 C   0  0  0  0  0  0  0  0  0  0  0  0
   30.0648  -22.5830  -18.1731 N   0  0  0  0  0  0  0  0  0  0  0  0
   26.2821  -19.8943  -13.8064 C   0  0  0  0  0  0  0  0  0  0  0  0
   26.1486  -18.6895  -13.4072 O   0  0  0  0  0  0  0  0  0  0  0  0
   22.9653  -20.8529  -10.3474 C   0  0  0  0  0  0  0  0  0  0  0  0
   23.6280  -21.1999  -11.6803 C   0  0  1  0  0  0  0  0  0  0  0  0
   22.6833  -20.7698  -12.7667 C   0  0  0  0  0  0  0  0  0  0  0  0
   24.9637  -20.5305  -11.7635 C   0  0  2  0  0  0  0  0  0  0  0  0
   25.7080  -20.8639  -12.9650 N   0  0  0  0  0  0  0  0  0  0  0  0
   25.7530  -20.8965  -10.5406 C   0  0  0  0  0  0  0  0  0  0  0  0
   26.1455  -22.0753  -10.3569 O   0  0  0  0  0  0  0  0  0  0  0  0
   26.0888  -19.9388   -9.5472 N   0  0  0  0  0  0  0  0  0  0  0  0
   26.7417  -20.3332   -8.2936 C   0  0  1  0  0  0  0  0  0  0  0  0
   27.5829  -19.1740   -7.7657 C   0  0  0  0  0  0  0  0  0  0  0  0
   28.1283  -19.5015   -6.4191 C   0  0  0  0  0  0  0  0  0  0  0  0
   29.0776  -20.4840   -6.2739 C   0  0  0  0  0  0  0  0  0  0  0  0
   29.5936  -20.7933   -5.0235 C   0  0  0  0  0  0  0  0  0  0  0  0
   29.1555  -20.1128   -3.9068 C   0  0  0  0  0  0  0  0  0  0  0  0
   28.1905  -19.1127   -4.0449 C   0  0  0  0  0  0  0  0  0  0  0  0
   27.6912  -18.8221   -5.3005 C   0  0  0  0  0  0  0  0  0  0  0  0
   25.7624  -20.7861   -7.2956 C   0  0  0  0  0  0  0  0  0  0  0  0
   24.6183  -20.2744   -7.2640 O   0  0  0  0  0  0  0  0  0  0  0  0
   26.0639  -21.7730   -6.3755 O   0  0  0  0  0  0  0  0  0  0  0  0
  2  1  1  6
  2  3  1  0
  4  3  1  0
  4  5  1  0
  6  5  1  0
  6  7  1  0
  8  2  1  0
  9  8  2  0
 11 10  1  1
 11 12  1  0
 11 13  1  0
 13 14  1  6
 14  8  1  0
 15 13  1  0
 15 16  2  0
 17 15  1  0
 18 17  1  0
 18 19  1  1
 20 19  1  0
 20 21  2  0
 22 21  1  0
 23 22  2  0
 24 25  2  0
 24 23  1  0
 25 20  1  0
 26 18  1  0
 27 26  2  0
 28 26  1  0
M  END
$$$$
