KVF.pdb
     RDKit          3D

 28 28  0  0  1  0  0  0  0  0999 V2000
   25.6239  -19.5337  -16.4067 N   0  0  0  0  0  0  0  0  0  0  0  0
   26.5037  -19.6336  -15.2974 C   0  0  1  0  0  0  0  0  0  0  0  0
   27.8010  -18.8967  -15.4435 C   0  0  0  0  0  0  0  0  0  0  0  0
   28.9372  -19.6618  -16.0077 C   0  0  0  0  0  0  0  0  0  0  0  0
   28.6226  -21.0058  -16.5675 C   0  0  0  0  0  0  0  0  0  0  0  0
   29.8344  -21.6520  -17.2049 C   0  0  0  0  0  0  0  0  0  0  0  0
   29.5393  -22.9688  -17.7273 N   0  0  0  0  0  0  0  0  0  0  0  0
   25.8762  -19.3886  -13.9669 C   0  0  0  0  0  0  0  0  0  0  0  0
   25.3265  -18.2643  -13.7169 O   0  0  0  0  0  0  0  0  0  0  0  0
   22.8650  -20.2801  -12.7845 C   0  0  0  0  0  0  0  0  0  0  0  0
   23.7596  -20.8118  -11.6649 C   0  0  1  0  0  0  0  0  0  0  0  0
   23.8899  -22.2943  -11.8720 C   0  0  0  0  0  0  0  0  0  0  0  0
   25.0735  -20.0963  -11.6929 C   0  0  2  0  0  0  0  0  0  0  0  0
   25.8308  -20.3175  -12.9120 N   0  0  0  0  0  0  0  0  0  0  0  0
   25.8712  -20.5254  -10.4963 C   0  0  0  0  0  0  0  0  0  0  0  0
   26.3507  -21.6840  -10.4242 O   0  0  0  0  0  0  0  0  0  0  0  0
   26.1182  -19.6522   -9.4039 N   0  0  0  0  0  0  0  0  0  0  0  0
   26.8352  -20.1073   -8.2072 C   0  0  1  0  0  0  0  0  0  0  0  0
   27.4759  -18.9119   -7.5066 C   0  0  0  0  0  0  0  0  0  0  0  0
   28.1665  -19.3505   -6.2621 C   0  0  0  0  0  0  0  0  0  0  0  0
   29.2616  -20.1774   -6.3294 C   0  0  0  0  0  0  0  0  0  0  0  0
   29.9130  -20.5882   -5.1752 C   0  0  0  0  0  0  0  0  0  0  0  0
   29.4643  -20.1675   -3.9407 C   0  0  0  0  0  0  0  0  0  0  0  0
   28.3516  -19.3272   -3.8627 C   0  0  0  0  0  0  0  0  0  0  0  0
   27.7191  -18.9311   -5.0261 C   0  0  0  0  0  0  0  0  0  0  0  0
   25.9509  -20.8525   -7.3002 C   0  0  0  0  0  0  0  0  0  0  0  0
   24.7305  -20.5710   -7.2444 O   0  0  0  0  0  0  0  0  0  0  0  0
   26.4258  -21.8699   -6.4934 O   0  0  0  0  0  0  0  0  0  0  0  0
  2  1  1  6
  2  3  1  0
  4  3  1  0
  4  5  1  0
  6  5  1  0
  6  7  1  0
  8  2  1  0
  9  8  2  0
 11 10  1  6
 11 12  1  0
 11 13  1  0
 13 14  1  6
 14  8  1  0
 15 13  1  0
 15 16  2  0
 17 15  1  0
 18 17  1  0
 18 19  1  1
 20 19  1  0
 20 21  2  0
 22 21  1  0
 23 22  2  0
 24 25  2  0
 24 23  1  0
 25 20  1  0
 26 18  1  0
 27 26  2  0
 28 26  1  0
M  END
$$$$
