KVF.pdb
     RDKit          3D

 28 28  0  0  1  0  0  0  0  0999 V2000
   22.8226  -14.8427  -17.8518 N   0  0  0  0  0  0  0  0  0  0  0  0
   22.5475  -13.4689  -18.0786 C   0  0  1  0  0  0  0  0  0  0  0  0
   21.1322  -13.1562  -18.4614 C   0  0  0  0  0  0  0  0  0  0  0  0
   20.5904  -13.8747  -19.6382 C   0  0  0  0  0  0  0  0  0  0  0  0
   19.1662  -13.6082  -19.9838 C   0  0  0  0  0  0  0  0  0  0  0  0
   18.7043  -14.4378  -21.1630 C   0  0  0  0  0  0  0  0  0  0  0  0
   17.2909  -14.2728  -21.4262 N   0  0  0  0  0  0  0  0  0  0  0  0
   23.0536  -12.5393  -17.0280 C   0  0  0  0  0  0  0  0  0  0  0  0
   22.9494  -12.8511  -15.7949 O   0  0  0  0  0  0  0  0  0  0  0  0
   25.8773   -9.1281  -15.0905 C   0  0  0  0  0  0  0  0  0  0  0  0
   25.5405  -10.0746  -16.2425 C   0  0  1  0  0  0  0  0  0  0  0  0
   26.4120  -11.2883  -16.0841 C   0  0  0  0  0  0  0  0  0  0  0  0
   24.0786  -10.3928  -16.2166 C   0  0  2  0  0  0  0  0  0  0  0  0
   23.6605  -11.2949  -17.2749 N   0  0  0  0  0  0  0  0  0  0  0  0
   23.3128   -9.1045  -16.2942 C   0  0  0  0  0  0  0  0  0  0  0  0
   23.1506   -8.5174  -17.3926 O   0  0  0  0  0  0  0  0  0  0  0  0
   22.7428   -8.4973  -15.1439 N   0  0  0  0  0  0  0  0  0  0  0  0
   21.9424   -7.2714  -15.2426 C   0  0  1  0  0  0  0  0  0  0  0  0
   20.5302   -7.5370  -14.7275 C   0  0  0  0  0  0  0  0  0  0  0  0
   19.7401   -8.2839  -15.7453 C   0  0  0  0  0  0  0  0  0  0  0  0
   19.6335   -9.6518  -15.6759 C   0  0  0  0  0  0  0  0  0  0  0  0
   18.8967  -10.3552  -16.6180 C   0  0  0  0  0  0  0  0  0  0  0  0
   18.2597   -9.6833  -17.6402 C   0  0  0  0  0  0  0  0  0  0  0  0
   18.3628   -8.2927  -17.7188 C   0  0  0  0  0  0  0  0  0  0  0  0
   19.1022   -7.6136  -16.7689 C   0  0  0  0  0  0  0  0  0  0  0  0
   22.5758   -6.1554  -14.5262 C   0  0  0  0  0  0  0  0  0  0  0  0
   23.5650   -6.3677  -13.7858 O   0  0  0  0  0  0  0  0  0  0  0  0
   22.1114   -4.8584  -14.6425 O   0  0  0  0  0  0  0  0  0  0  0  0
  2  1  1  1
  2  3  1  0
  4  3  1  0
  4  5  1  0
  6  5  1  0
  6  7  1  0
  8  2  1  0
  9  8  2  0
 11 10  1  1
 11 12  1  0
 11 13  1  0
 13 14  1  6
 14  8  1  0
 15 13  1  0
 15 16  2  0
 17 15  1  0
 18 17  1  0
 18 19  1  1
 20 19  1  0
 20 21  2  0
 22 21  1  0
 23 22  2  0
 24 25  2  0
 24 23  1  0
 25 20  1  0
 26 18  1  0
 27 26  2  0
 28 26  1  0
M  END
$$$$
