KVF.pdb
     RDKit          3D

 28 28  0  0  1  0  0  0  0  0999 V2000
   21.4489  -21.3390  -13.7356 N   0  0  0  0  0  0  0  0  0  0  0  0
   22.2921  -20.3635  -13.1424 C   0  0  1  0  0  0  0  0  0  0  0  0
   21.5801  -19.2499  -12.4349 C   0  0  0  0  0  0  0  0  0  0  0  0
   20.8660  -18.2725  -13.2890 C   0  0  0  0  0  0  0  0  0  0  0  0
   21.6210  -17.7268  -14.4512 C   0  0  0  0  0  0  0  0  0  0  0  0
   20.8121  -16.7066  -15.2240 C   0  0  0  0  0  0  0  0  0  0  0  0
   19.4852  -17.1891  -15.5411 N   0  0  0  0  0  0  0  0  0  0  0  0
   23.4146  -20.9082  -12.3255 C   0  0  0  0  0  0  0  0  0  0  0  0
   23.1687  -21.6356  -11.3061 O   0  0  0  0  0  0  0  0  0  0  0  0
   27.6378  -20.0740  -12.9769 C   0  0  0  0  0  0  0  0  0  0  0  0
   27.1287  -21.4415  -12.5218 C   0  0  1  0  0  0  0  0  0  0  0  0
   28.2145  -22.0601  -11.6876 C   0  0  0  0  0  0  0  0  0  0  0  0
   25.8404  -21.2733  -11.7794 C   0  0  2  0  0  0  0  0  0  0  0  0
   24.7799  -20.6869  -12.5795 N   0  0  0  0  0  0  0  0  0  0  0  0
   26.1020  -20.4351  -10.5623 C   0  0  0  0  0  0  0  0  0  0  0  0
   26.0961  -19.1810  -10.6310 O   0  0  0  0  0  0  0  0  0  0  0  0
   26.3645  -21.0138   -9.2922 N   0  0  0  0  0  0  0  0  0  0  0  0
   27.1216  -20.2911   -8.2636 C   0  0  1  0  0  0  0  0  0  0  0  0
   26.5481  -20.6093   -6.8852 C   0  0  0  0  0  0  0  0  0  0  0  0
   27.3607  -19.9542   -5.8229 C   0  0  0  0  0  0  0  0  0  0  0  0
   28.1495  -20.7072   -4.9874 C   0  0  0  0  0  0  0  0  0  0  0  0
   28.9123  -20.1048   -3.9972 C   0  0  0  0  0  0  0  0  0  0  0  0
   28.8858  -18.7347   -3.8410 C   0  0  0  0  0  0  0  0  0  0  0  0
   28.0864  -17.9612   -4.6856 C   0  0  0  0  0  0  0  0  0  0  0  0
   27.3353  -18.5836   -5.6648 C   0  0  0  0  0  0  0  0  0  0  0  0
   28.5566  -20.6002   -8.3342 C   0  0  0  0  0  0  0  0  0  0  0  0
   28.9336  -21.7638   -8.6092 O   0  0  0  0  0  0  0  0  0  0  0  0
   29.5211  -19.6366   -8.1045 O   0  0  0  0  0  0  0  0  0  0  0  0
  2  1  1  1
  2  3  1  0
  4  3  1  0
  4  5  1  0
  6  5  1  0
  6  7  1  0
  8  2  1  0
  9  8  2  0
 11 10  1  1
 11 12  1  0
 11 13  1  0
 13 14  1  6
 14  8  1  0
 15 13  1  0
 15 16  2  0
 17 15  1  0
 18 17  1  0
 18 19  1  1
 20 19  1  0
 20 21  2  0
 22 21  1  0
 23 22  2  0
 24 25  2  0
 24 23  1  0
 25 20  1  0
 26 18  1  0
 27 26  2  0
 28 26  1  0
M  END
$$$$
