KVF.pdb
     RDKit          3D

 28 28  0  0  1  0  0  0  0  0999 V2000
   26.3350  -21.8895  -16.4187 N   0  0  0  0  0  0  0  0  0  0  0  0
   27.3312  -21.5135  -15.4802 C   0  0  1  0  0  0  0  0  0  0  0  0
   28.4981  -20.7668  -16.0529 C   0  0  0  0  0  0  0  0  0  0  0  0
   29.2339  -21.4315  -17.1536 C   0  0  0  0  0  0  0  0  0  0  0  0
   29.9351  -22.7012  -16.8147 C   0  0  0  0  0  0  0  0  0  0  0  0
   30.6484  -23.2919  -18.0124 C   0  0  0  0  0  0  0  0  0  0  0  0
   31.4900  -24.4116  -17.6489 N   0  0  0  0  0  0  0  0  0  0  0  0
   26.8193  -20.8686  -14.2368 C   0  0  0  0  0  0  0  0  0  0  0  0
   26.9882  -19.6175  -14.0497 O   0  0  0  0  0  0  0  0  0  0  0  0
   23.2605  -20.4503  -10.9854 C   0  0  0  0  0  0  0  0  0  0  0  0
   23.9400  -21.1904  -12.1373 C   0  0  1  0  0  0  0  0  0  0  0  0
   23.2151  -20.8059  -13.3960 C   0  0  0  0  0  0  0  0  0  0  0  0
   25.3948  -20.8413  -12.1664 C   0  0  2  0  0  0  0  0  0  0  0  0
   26.1393  -21.5355  -13.2021 N   0  0  0  0  0  0  0  0  0  0  0  0
   25.9789  -21.1357  -10.8157 C   0  0  0  0  0  0  0  0  0  0  0  0
   26.1138  -22.3191  -10.4168 O   0  0  0  0  0  0  0  0  0  0  0  0
   26.4011  -20.1031   -9.9370 N   0  0  0  0  0  0  0  0  0  0  0  0
   26.9252  -20.4028   -8.5995 C   0  0  1  0  0  0  0  0  0  0  0  0
   27.9427  -19.3387   -8.1962 C   0  0  0  0  0  0  0  0  0  0  0  0
   28.3776  -19.5464   -6.7870 C   0  0  0  0  0  0  0  0  0  0  0  0
   27.8039  -18.8242   -5.7689 C   0  0  0  0  0  0  0  0  0  0  0  0
   28.2007  -19.0137   -4.4529 C   0  0  0  0  0  0  0  0  0  0  0  0
   29.1817  -19.9353   -4.1521 C   0  0  0  0  0  0  0  0  0  0  0  0
   29.7708  -20.6737   -5.1808 C   0  0  0  0  0  0  0  0  0  0  0  0
   29.3591  -20.4677   -6.4840 C   0  0  0  0  0  0  0  0  0  0  0  0
   25.8442  -20.5164   -7.6104 C   0  0  0  0  0  0  0  0  0  0  0  0
   25.8695  -21.4354   -6.7580 O   0  0  0  0  0  0  0  0  0  0  0  0
   24.7830  -19.6305   -7.5867 O   0  0  0  0  0  0  0  0  0  0  0  0
  2  1  1  6
  2  3  1  0
  4  3  1  0
  4  5  1  0
  6  5  1  0
  6  7  1  0
  8  2  1  0
  9  8  2  0
 11 10  1  1
 11 12  1  0
 11 13  1  0
 13 14  1  6
 14  8  1  0
 15 13  1  0
 15 16  2  0
 17 15  1  0
 18 17  1  0
 18 19  1  1
 20 19  1  0
 20 21  2  0
 22 21  1  0
 23 22  2  0
 24 25  2  0
 24 23  1  0
 25 20  1  0
 26 18  1  0
 27 26  2  0
 28 26  1  0
M  END
$$$$
