GEF.pdb
     RDKit          3D

 25 25  0  0  1  0  0  0  0  0999 V2000
   26.5006  -22.3349  -16.5323 N   0  0  0  0  0  0  0  0  0  0  0  0
   27.2434  -22.7179  -15.3545 C   0  0  0  0  0  0  0  0  0  0  0  0
   27.0331  -21.7139  -14.2467 C   0  0  0  0  0  0  0  0  0  0  0  0
   27.7661  -20.6948  -14.2105 O   0  0  0  0  0  0  0  0  0  0  0  0
   26.0276  -21.9330  -13.2795 N   0  0  0  0  0  0  0  0  0  0  0  0
   25.5850  -21.0338  -12.2678 C   0  0  1  0  0  0  0  0  0  0  0  0
   24.0839  -20.7429  -12.2889 C   0  0  0  0  0  0  0  0  0  0  0  0
   23.6058  -19.9857  -13.4719 C   0  0  0  0  0  0  0  0  0  0  0  0
   22.1579  -19.6000  -13.3665 C   0  0  0  0  0  0  0  0  0  0  0  0
   21.4213  -19.8409  -12.4001 O   0  0  0  0  0  0  0  0  0  0  0  0
   26.0083  -21.3230  -10.9027 C   0  0  0  0  0  0  0  0  0  0  0  0
   25.7632  -22.4431  -10.3856 O   0  0  0  0  0  0  0  0  0  0  0  0
   21.6354  -18.9148  -14.4689 O   0  0  0  0  0  0  0  0  0  0  0  0
   26.7089  -20.3980  -10.0684 N   0  0  0  0  0  0  0  0  0  0  0  0
   27.0260  -20.6990   -8.6688 C   0  0  1  0  0  0  0  0  0  0  0  0
   27.8699  -19.5547   -8.1753 C   0  0  0  0  0  0  0  0  0  0  0  0
   28.2604  -19.6328   -6.7613 C   0  0  0  0  0  0  0  0  0  0  0  0
   29.2001  -20.5403   -6.3149 C   0  0  0  0  0  0  0  0  0  0  0  0
   29.5197  -20.5412   -4.9685 C   0  0  0  0  0  0  0  0  0  0  0  0
   28.9249  -19.6654   -4.0816 C   0  0  0  0  0  0  0  0  0  0  0  0
   27.9911  -18.7634   -4.5253 C   0  0  0  0  0  0  0  0  0  0  0  0
   27.6648  -18.7568   -5.8785 C   0  0  0  0  0  0  0  0  0  0  0  0
   25.7878  -20.7473   -7.8637 C   0  0  0  0  0  0  0  0  0  0  0  0
   25.7105  -21.6640   -6.8267 O   0  0  0  0  0  0  0  0  0  0  0  0
   24.7941  -20.0071   -8.0592 O   0  0  0  0  0  0  0  0  0  0  0  0
  1  2  1  0
  3  2  1  0
  3  4  2  0
  5  3  1  0
  6  5  1  0
  6 11  1  0
  6  7  1  1
  8  7  1  0
  9  8  1  0
 10  9  2  0
 11 14  1  0
 11 12  2  0
 13  9  1  0
 14 15  1  0
 15 16  1  1
 17 16  1  0
 18 17  2  0
 19 20  2  0
 19 18  1  0
 20 21  1  0
 21 22  2  0
 22 17  1  0
 23 15  1  0
 23 24  1  0
 25 23  2  0
M  END
$$$$
