GEF.pdb
     RDKit          3D

 25 25  0  0  1  0  0  0  0  0999 V2000
   23.3109  -35.3406    1.4801 N   0  0  0  0  0  0  0  0  0  0  0  0
   24.6163  -35.9524    1.5659 C   0  0  0  0  0  0  0  0  0  0  0  0
   25.3400  -35.4832    2.8051 C   0  0  0  0  0  0  0  0  0  0  0  0
   25.0591  -34.3528    3.2747 O   0  0  0  0  0  0  0  0  0  0  0  0
   26.3101  -36.3122    3.4102 N   0  0  0  0  0  0  0  0  0  0  0  0
   27.2029  -35.9752    4.4673 C   0  0  1  0  0  0  0  0  0  0  0  0
   27.8429  -37.1758    5.1652 C   0  0  0  0  0  0  0  0  0  0  0  0
   28.4896  -38.1587    4.2612 C   0  0  0  0  0  0  0  0  0  0  0  0
   29.1062  -39.3100    5.0031 C   0  0  0  0  0  0  0  0  0  0  0  0
   28.4785  -40.2206    5.5612 O   0  0  0  0  0  0  0  0  0  0  0  0
   28.2261  -34.9799    4.1690 C   0  0  0  0  0  0  0  0  0  0  0  0
   28.8784  -35.0418    3.0954 O   0  0  0  0  0  0  0  0  0  0  0  0
   30.5047  -39.3197    5.0452 O   0  0  0  0  0  0  0  0  0  0  0  0
   28.5628  -33.8933    5.0341 N   0  0  0  0  0  0  0  0  0  0  0  0
   29.5998  -32.9162    4.6879 C   0  0  1  0  0  0  0  0  0  0  0  0
   29.0111  -31.5612    4.9756 C   0  0  0  0  0  0  0  0  0  0  0  0
   27.8334  -31.2099    4.1709 C   0  0  0  0  0  0  0  0  0  0  0  0
   27.8308  -31.3265    2.7953 C   0  0  0  0  0  0  0  0  0  0  0  0
   26.6764  -30.9851    2.1127 C   0  0  0  0  0  0  0  0  0  0  0  0
   25.5488  -30.5384    2.7733 C   0  0  0  0  0  0  0  0  0  0  0  0
   25.5514  -30.4227    4.1405 C   0  0  0  0  0  0  0  0  0  0  0  0
   26.7092  -30.7644    4.8336 C   0  0  0  0  0  0  0  0  0  0  0  0
   30.7855  -33.1028    5.5498 C   0  0  0  0  0  0  0  0  0  0  0  0
   31.9217  -32.3559    5.2796 O   0  0  0  0  0  0  0  0  0  0  0  0
   30.8313  -33.8995    6.5177 O   0  0  0  0  0  0  0  0  0  0  0  0
  1  2  1  0
  3  2  1  0
  3  4  2  0
  5  3  1  0
  6  5  1  0
  6 11  1  0
  6  7  1  6
  8  7  1  0
  9  8  1  0
 10  9  2  0
 11 14  1  0
 11 12  2  0
 13  9  1  0
 14 15  1  0
 15 16  1  1
 17 16  1  0
 18 17  2  0
 19 20  2  0
 19 18  1  0
 20 21  1  0
 21 22  2  0
 22 17  1  0
 23 15  1  0
 23 24  1  0
 25 23  2  0
M  END
$$$$
