GEF.pdb
     RDKit          3D

 25 25  0  0  1  0  0  0  0  0999 V2000
   23.9065  -24.4415  -14.7529 N   0  0  0  0  0  0  0  0  0  0  0  0
   23.5908  -23.3139  -13.9077 C   0  0  0  0  0  0  0  0  0  0  0  0
   24.8197  -22.8507  -13.1628 C   0  0  0  0  0  0  0  0  0  0  0  0
   25.5178  -23.7051  -12.5629 O   0  0  0  0  0  0  0  0  0  0  0  0
   25.1616  -21.4805  -13.1519 N   0  0  0  0  0  0  0  0  0  0  0  0
   26.2296  -20.8575  -12.4454 C   0  0  1  0  0  0  0  0  0  0  0  0
   26.5653  -19.4431  -12.9196 C   0  0  0  0  0  0  0  0  0  0  0  0
   26.9094  -19.3263  -14.3581 C   0  0  0  0  0  0  0  0  0  0  0  0
   27.9098  -20.3559  -14.8001 C   0  0  0  0  0  0  0  0  0  0  0  0
   29.0265  -20.5326  -14.2939 O   0  0  0  0  0  0  0  0  0  0  0  0
   26.1539  -20.8805  -10.9893 C   0  0  0  0  0  0  0  0  0  0  0  0
   25.0376  -20.8452  -10.4108 O   0  0  0  0  0  0  0  0  0  0  0  0
   27.5116  -21.1610  -15.8729 O   0  0  0  0  0  0  0  0  0  0  0  0
   27.2934  -20.9423  -10.1288 N   0  0  0  0  0  0  0  0  0  0  0  0
   27.1658  -20.9414   -8.6681 C   0  0  1  0  0  0  0  0  0  0  0  0
   28.4877  -20.4609   -8.1326 C   0  0  0  0  0  0  0  0  0  0  0  0
   28.5070  -20.1652   -6.6938 C   0  0  0  0  0  0  0  0  0  0  0  0
   28.1008  -18.9432   -6.1965 C   0  0  0  0  0  0  0  0  0  0  0  0
   28.1393  -18.7495   -4.8268 C   0  0  0  0  0  0  0  0  0  0  0  0
   28.5692  -19.7405   -3.9663 C   0  0  0  0  0  0  0  0  0  0  0  0
   28.9728  -20.9552   -4.4606 C   0  0  0  0  0  0  0  0  0  0  0  0
   28.9366  -21.1570   -5.8375 C   0  0  0  0  0  0  0  0  0  0  0  0
   26.1174  -19.9886   -8.2477 C   0  0  0  0  0  0  0  0  0  0  0  0
   26.0962  -18.7314   -8.8313 O   0  0  0  0  0  0  0  0  0  0  0  0
   25.2384  -20.2454   -7.3903 O   0  0  0  0  0  0  0  0  0  0  0  0
  1  2  1  0
  3  2  1  0
  3  4  2  0
  5  3  1  0
  6  5  1  0
  6 11  1  0
  6  7  1  6
  8  7  1  0
  9  8  1  0
 10  9  2  0
 11 14  1  0
 11 12  2  0
 13  9  1  0
 14 15  1  0
 15 16  1  1
 17 16  1  0
 18 17  2  0
 19 20  2  0
 19 18  1  0
 20 21  1  0
 21 22  2  0
 22 17  1  0
 23 15  1  0
 23 24  1  0
 25 23  2  0
M  END
$$$$
