GEF.pdb
     RDKit          3D

 25 25  0  0  1  0  0  0  0  0999 V2000
   28.5243  -20.4951  -15.3382 N   0  0  0  0  0  0  0  0  0  0  0  0
   27.3748  -21.2157  -14.8433 C   0  0  0  0  0  0  0  0  0  0  0  0
   26.8595  -20.5819  -13.5734 C   0  0  0  0  0  0  0  0  0  0  0  0
   27.4805  -19.6005  -13.0954 O   0  0  0  0  0  0  0  0  0  0  0  0
   25.7012  -21.0958  -12.9499 N   0  0  0  0  0  0  0  0  0  0  0  0
   25.1083  -20.6644  -11.7291 C   0  0  1  0  0  0  0  0  0  0  0  0
   23.6122  -20.9579  -11.6110 C   0  0  0  0  0  0  0  0  0  0  0  0
   22.7535  -20.2586  -12.5985 C   0  0  0  0  0  0  0  0  0  0  0  0
   21.2921  -20.5428  -12.3995 C   0  0  0  0  0  0  0  0  0  0  0  0
   20.7044  -21.5670  -12.7738 O   0  0  0  0  0  0  0  0  0  0  0  0
   25.7829  -21.0580  -10.4976 C   0  0  0  0  0  0  0  0  0  0  0  0
   26.0206  -22.2707  -10.2634 O   0  0  0  0  0  0  0  0  0  0  0  0
   20.5700  -19.5464  -11.7336 O   0  0  0  0  0  0  0  0  0  0  0  0
   26.2144  -20.1389   -9.4917 N   0  0  0  0  0  0  0  0  0  0  0  0
   26.8136  -20.5899   -8.2318 C   0  0  1  0  0  0  0  0  0  0  0  0
   27.5391  -19.3999   -7.6637 C   0  0  0  0  0  0  0  0  0  0  0  0
   28.1635  -19.6185   -6.3521 C   0  0  0  0  0  0  0  0  0  0  0  0
   29.0537  -20.6506   -6.1329 C   0  0  0  0  0  0  0  0  0  0  0  0
   29.6060  -20.7803   -4.8707 C   0  0  0  0  0  0  0  0  0  0  0  0
   29.2868  -19.9102   -3.8467 C   0  0  0  0  0  0  0  0  0  0  0  0
   28.4020  -18.8843   -4.0647 C   0  0  0  0  0  0  0  0  0  0  0  0
   27.8427  -18.7478   -5.3321 C   0  0  0  0  0  0  0  0  0  0  0  0
   25.7578  -20.9918   -7.2792 C   0  0  0  0  0  0  0  0  0  0  0  0
   26.0908  -21.8646   -6.2550 O   0  0  0  0  0  0  0  0  0  0  0  0
   24.5704  -20.5915   -7.3376 O   0  0  0  0  0  0  0  0  0  0  0  0
  1  2  1  0
  3  2  1  0
  3  4  2  0
  5  3  1  0
  6  5  1  0
  6 11  1  0
  6  7  1  1
  8  7  1  0
  9  8  1  0
 10  9  2  0
 11 14  1  0
 11 12  2  0
 13  9  1  0
 14 15  1  0
 15 16  1  1
 17 16  1  0
 18 17  2  0
 19 20  2  0
 19 18  1  0
 20 21  1  0
 21 22  2  0
 22 17  1  0
 23 15  1  0
 23 24  1  0
 25 23  2  0
M  END
$$$$
