GEF.pdb
     RDKit          3D

 25 25  0  0  1  0  0  0  0  0999 V2000
   28.6131  -18.4426  -15.1239 N   0  0  0  0  0  0  0  0  0  0  0  0
   27.6715  -19.5303  -14.9977 C   0  0  0  0  0  0  0  0  0  0  0  0
   26.8658  -19.3880  -13.7287 C   0  0  0  0  0  0  0  0  0  0  0  0
   26.6641  -18.2367  -13.2695 O   0  0  0  0  0  0  0  0  0  0  0  0
   26.3574  -20.5377  -13.0850 N   0  0  0  0  0  0  0  0  0  0  0  0
   25.5290  -20.5902  -11.9278 C   0  0  1  0  0  0  0  0  0  0  0  0
   24.2525  -21.4147  -12.0973 C   0  0  0  0  0  0  0  0  0  0  0  0
   23.3382  -20.9469  -13.1682 C   0  0  0  0  0  0  0  0  0  0  0  0
   22.2632  -20.0327  -12.6538 C   0  0  0  0  0  0  0  0  0  0  0  0
   21.4137  -20.3335  -11.8039 O   0  0  0  0  0  0  0  0  0  0  0  0
   26.1788  -20.9467  -10.6720 C   0  0  0  0  0  0  0  0  0  0  0  0
   26.8384  -22.0136  -10.5788 O   0  0  0  0  0  0  0  0  0  0  0  0
   22.2532  -18.7458  -13.2030 O   0  0  0  0  0  0  0  0  0  0  0  0
   26.1251  -20.1488   -9.4875 N   0  0  0  0  0  0  0  0  0  0  0  0
   26.7801  -20.5606   -8.2420 C   0  0  1  0  0  0  0  0  0  0  0  0
   27.1940  -19.2913   -7.5471 C   0  0  0  0  0  0  0  0  0  0  0  0
   27.8392  -19.4780   -6.2406 C   0  0  0  0  0  0  0  0  0  0  0  0
   27.1054  -19.6777   -5.0886 C   0  0  0  0  0  0  0  0  0  0  0  0
   27.7910  -19.8565   -3.8998 C   0  0  0  0  0  0  0  0  0  0  0  0
   29.1711  -19.8386   -3.8491 C   0  0  0  0  0  0  0  0  0  0  0  0
   29.9003  -19.6402   -4.9943 C   0  0  0  0  0  0  0  0  0  0  0  0
   29.2173  -19.4598   -6.1937 C   0  0  0  0  0  0  0  0  0  0  0  0
   25.8226  -21.2773   -7.3742 C   0  0  0  0  0  0  0  0  0  0  0  0
   26.3234  -22.0732   -6.3556 O   0  0  0  0  0  0  0  0  0  0  0  0
   24.5763  -21.2121   -7.5003 O   0  0  0  0  0  0  0  0  0  0  0  0
  1  2  1  0
  3  2  1  0
  3  4  2  0
  5  3  1  0
  6  5  1  0
  6 11  1  0
  6  7  1  6
  8  7  1  0
  9  8  1  0
 10  9  2  0
 11 14  1  0
 11 12  2  0
 13  9  1  0
 14 15  1  0
 15 16  1  1
 17 16  1  0
 18 17  2  0
 19 20  2  0
 19 18  1  0
 20 21  1  0
 21 22  2  0
 22 17  1  0
 23 15  1  0
 23 24  1  0
 25 23  2  0
M  END
$$$$
