GEF.pdb
     RDKit          3D

 25 25  0  0  1  0  0  0  0  0999 V2000
   28.2061  -19.2128  -15.9367 N   0  0  0  0  0  0  0  0  0  0  0  0
   27.8113  -20.3479  -15.1359 C   0  0  0  0  0  0  0  0  0  0  0  0
   27.0539  -19.8937  -13.9113 C   0  0  0  0  0  0  0  0  0  0  0  0
   26.9794  -18.6632  -13.6715 O   0  0  0  0  0  0  0  0  0  0  0  0
   26.4481  -20.8476  -13.0641 N   0  0  0  0  0  0  0  0  0  0  0  0
   25.6481  -20.6019  -11.9119 C   0  0  1  0  0  0  0  0  0  0  0  0
   24.2056  -21.0966  -12.0230 C   0  0  0  0  0  0  0  0  0  0  0  0
   23.3972  -20.4475  -13.0844 C   0  0  0  0  0  0  0  0  0  0  0  0
   21.9402  -20.8031  -13.0022 C   0  0  0  0  0  0  0  0  0  0  0  0
   21.4289  -21.8371  -13.4540 O   0  0  0  0  0  0  0  0  0  0  0  0
   26.2069  -21.0069  -10.6273 C   0  0  0  0  0  0  0  0  0  0  0  0
   26.5535  -22.2004  -10.4335 O   0  0  0  0  0  0  0  0  0  0  0  0
   21.1270  -19.8658  -12.3558 O   0  0  0  0  0  0  0  0  0  0  0  0
   26.4011  -20.1206   -9.5231 N   0  0  0  0  0  0  0  0  0  0  0  0
   26.9530  -20.5802   -8.2447 C   0  0  1  0  0  0  0  0  0  0  0  0
   27.5708  -19.3706   -7.5964 C   0  0  0  0  0  0  0  0  0  0  0  0
   28.1103  -19.5934   -6.2483 C   0  0  0  0  0  0  0  0  0  0  0  0
   27.5643  -18.9844   -5.1362 C   0  0  0  0  0  0  0  0  0  0  0  0
   28.1252  -19.2564   -3.9007 C   0  0  0  0  0  0  0  0  0  0  0  0
   29.2016  -20.1110   -3.7654 C   0  0  0  0  0  0  0  0  0  0  0  0
   29.7442  -20.7163   -4.8708 C   0  0  0  0  0  0  0  0  0  0  0  0
   29.1849  -20.4474   -6.1169 C   0  0  0  0  0  0  0  0  0  0  0  0
   25.8704  -21.0772   -7.3704 C   0  0  0  0  0  0  0  0  0  0  0  0
   26.2093  -21.8811   -6.2929 O   0  0  0  0  0  0  0  0  0  0  0  0
   24.6552  -20.8172   -7.5409 O   0  0  0  0  0  0  0  0  0  0  0  0
  1  2  1  0
  3  2  1  0
  3  4  2  0
  5  3  1  0
  6  5  1  0
  6 11  1  0
  6  7  1  6
  8  7  1  0
  9  8  1  0
 10  9  2  0
 11 14  1  0
 11 12  2  0
 13  9  1  0
 14 15  1  0
 15 16  1  1
 17 16  1  0
 18 17  2  0
 19 20  2  0
 19 18  1  0
 20 21  1  0
 21 22  2  0
 22 17  1  0
 23 15  1  0
 23 24  1  0
 25 23  2  0
M  END
$$$$
