RDS.pdb
     RDKit          3D

 26 25  0  0  1  0  0  0  0  0999 V2000
   22.3500  -18.5540  -17.2915 N   0  0  0  0  0  0  0  0  0  0  0  0
   22.1522  -17.2262  -17.7818 C   0  0  0  0  0  0  0  0  0  0  0  0
   20.9372  -16.7888  -17.9844 N   0  0  0  0  0  0  0  0  0  0  0  0
   23.2840  -16.4079  -18.0399 N   0  0  0  0  0  0  0  0  0  0  0  0
   24.6096  -16.8699  -17.8008 C   0  0  0  0  0  0  0  0  0  0  0  0
   24.7888  -17.5854  -16.4979 C   0  0  0  0  0  0  0  0  0  0  0  0
   25.9699  -17.1647  -15.7009 C   0  0  0  0  0  0  0  0  0  0  0  0
   26.8487  -18.3135  -15.2766 C   0  0  2  0  0  0  0  0  0  0  0  0
   26.5537  -19.5233  -16.0138 N   0  0  0  0  0  0  0  0  0  0  0  0
   26.7006  -18.6389  -13.8417 C   0  0  0  0  0  0  0  0  0  0  0  0
   26.9814  -17.7321  -13.0183 O   0  0  0  0  0  0  0  0  0  0  0  0
   20.8085  -15.8349  -18.3765 N   0  0  0  0  0  0  0  0  0  0  0  0
   26.2665  -19.8961  -13.3480 C   0  0  1  0  0  0  0  0  0  0  0  0
   26.2848  -20.2070  -11.9546 C   0  0  0  0  0  0  0  0  0  0  0  0
   25.0292  -20.8800  -11.4720 C   0  0  0  0  0  0  0  0  0  0  0  0
   24.9933  -21.1008  -10.0254 O   0  0  0  0  0  0  0  0  0  0  0  0
   25.2655  -22.2245   -9.5388 C   0  0  0  0  0  0  0  0  0  0  0  0
   27.4427  -21.0719  -11.5801 O   0  0  0  0  0  0  0  0  0  0  0  0
   27.4070  -22.2717  -11.9467 O   0  0  0  0  0  0  0  0  0  0  0  0
   24.6581  -20.0751   -9.1585 O   0  0  0  0  0  0  0  0  0  0  0  0
   31.5483  -21.5601  -11.3373 C   0  0  0  0  0  0  0  0  0  0  0  0
   30.8825  -20.8973  -10.3045 C   0  0  2  0  0  0  0  0  0  0  0  0
   29.4931  -21.4692  -10.1620 N   0  0  0  0  0  0  0  0  0  0  0  0
   28.5597  -20.6087  -10.8429 C   0  0  0  0  0  0  0  0  0  0  0  0
   29.1974  -21.6120   -8.7247 O   0  0  0  0  0  0  0  0  0  0  0  0
   30.0072  -22.4298   -7.9599 O   0  0  0  0  0  0  0  0  0  0  0  0
  2  1  1  0
  3  2  2  0
  4  2  1  0
  5  4  1  0
  6  5  1  0
  6  7  1  0
  8  7  1  0
  8  9  1  6
 10  8  1  0
 10 12  1  0
 11 10  2  0
 12 13  1  0
 13 14  1  1
 15 16  2  0
 15 14  1  0
 17 18  2  0
 17 13  1  0
 19 15  1  0
 21 20  1  0
 22 21  1  6
 22 23  1  0
 23 17  1  0
 24 22  1  0
 24 25  1  0
 26 24  2  0
M  END
$$$$
