RDS.pdb
     RDKit          3D

 26 25  0  0  1  0  0  0  0  0999 V2000
   15.6636   -7.4438   -7.7550 N   0  0  0  0  0  0  0  0  0  0  0  0
   14.4399   -6.8484   -7.3183 C   0  0  0  0  0  0  0  0  0  0  0  0
   14.4631   -5.6715   -6.7500 N   0  0  0  0  0  0  0  0  0  0  0  0
   13.2208   -7.5511   -7.5110 N   0  0  0  0  0  0  0  0  0  0  0  0
   13.1848   -8.8220   -8.1526 C   0  0  0  0  0  0  0  0  0  0  0  0
   13.0733   -8.7579   -9.6443 C   0  0  0  0  0  0  0  0  0  0  0  0
   14.3331   -8.4301  -10.3605 C   0  0  0  0  0  0  0  0  0  0  0  0
   14.1703   -8.3503  -11.8569 C   0  0  2  0  0  0  0  0  0  0  0  0
   14.0683   -9.6607  -12.4622 N   0  0  0  0  0  0  0  0  0  0  0  0
   15.3026   -7.6618  -12.5130 C   0  0  0  0  0  0  0  0  0  0  0  0
   16.0533   -8.3610  -13.2388 O   0  0  0  0  0  0  0  0  0  0  0  0
   13.5733   -5.2726   -6.3905 N   0  0  0  0  0  0  0  0  0  0  0  0
   15.5865   -6.2789  -12.3730 C   0  0  2  0  0  0  0  0  0  0  0  0
   16.6280   -5.6433  -13.1145 C   0  0  0  0  0  0  0  0  0  0  0  0
   16.3519   -4.1968  -13.4207 C   0  0  0  0  0  0  0  0  0  0  0  0
   17.3562   -3.5707  -14.2821 O   0  0  0  0  0  0  0  0  0  0  0  0
   18.3000   -4.2422  -14.7636 C   0  0  0  0  0  0  0  0  0  0  0  0
   17.9486   -5.7224  -12.4225 O   0  0  0  0  0  0  0  0  0  0  0  0
   18.0036   -5.3086  -11.2389 O   0  0  0  0  0  0  0  0  0  0  0  0
   17.2894   -2.2221  -14.5868 O   0  0  0  0  0  0  0  0  0  0  0  0
   21.1464   -7.7901  -14.0988 C   0  0  0  0  0  0  0  0  0  0  0  0
   20.9832   -7.7176  -12.7141 C   0  0  1  0  0  0  0  0  0  0  0  0
   20.3851   -6.3795  -12.3540 N   0  0  0  0  0  0  0  0  0  0  0  0
   19.1214   -6.2336  -13.0299 C   0  0  0  0  0  0  0  0  0  0  0  0
   21.3533   -5.3282  -12.7158 O   0  0  0  0  0  0  0  0  0  0  0  0
   22.5738   -5.3005  -12.0684 O   0  0  0  0  0  0  0  0  0  0  0  0
  2  1  1  0
  3  2  2  0
  4  2  1  0
  5  4  1  0
  6  5  1  0
  6  7  1  0
  8  7  1  0
  8  9  1  6
 10  8  1  0
 10 12  1  0
 11 10  2  0
 12 13  1  0
 13 14  1  6
 15 16  2  0
 15 14  1  0
 17 18  2  0
 17 13  1  0
 19 15  1  0
 21 20  1  0
 22 21  1  1
 22 23  1  0
 23 17  1  0
 24 22  1  0
 24 25  1  0
 26 24  2  0
M  END
$$$$
