RDS.pdb
     RDKit          3D

 26 25  0  0  1  0  0  0  0  0999 V2000
   27.8082  -21.3741  -10.1407 N   0  0  0  0  0  0  0  0  0  0  0  0
   28.0123  -21.5867  -11.5392 C   0  0  0  0  0  0  0  0  0  0  0  0
   28.9919  -20.9717  -12.1479 N   0  0  0  0  0  0  0  0  0  0  0  0
   27.1426  -22.4640  -12.2400 N   0  0  0  0  0  0  0  0  0  0  0  0
   26.3091  -22.0015  -13.2980 C   0  0  0  0  0  0  0  0  0  0  0  0
   25.7143  -20.6467  -13.0686 C   0  0  0  0  0  0  0  0  0  0  0  0
   24.2391  -20.6234  -12.8944 C   0  0  0  0  0  0  0  0  0  0  0  0
   23.4872  -21.2200  -14.0568 C   0  0  2  0  0  0  0  0  0  0  0  0
   23.9013  -20.6499  -15.3207 N   0  0  0  0  0  0  0  0  0  0  0  0
   22.0267  -21.0138  -13.9513 C   0  0  0  0  0  0  0  0  0  0  0  0
   21.4929  -21.2654  -12.8419 O   0  0  0  0  0  0  0  0  0  0  0  0
   29.0961  -21.0923  -13.1750 N   0  0  0  0  0  0  0  0  0  0  0  0
   21.2056  -20.5554  -15.0135 C   0  0  1  0  0  0  0  0  0  0  0  0
   19.8016  -20.3543  -14.8495 C   0  0  0  0  0  0  0  0  0  0  0  0
   19.2108  -19.3958  -15.8468 C   0  0  0  0  0  0  0  0  0  0  0  0
   19.6398  -18.0085  -15.6621 O   0  0  0  0  0  0  0  0  0  0  0  0
   19.5007  -17.4336  -14.5559 C   0  0  0  0  0  0  0  0  0  0  0  0
   19.0314  -21.6309  -14.9272 O   0  0  0  0  0  0  0  0  0  0  0  0
   19.3998  -22.4742  -15.7805 O   0  0  0  0  0  0  0  0  0  0  0  0
   20.2098  -17.2967  -16.7035 O   0  0  0  0  0  0  0  0  0  0  0  0
   17.3005  -23.3459  -11.8102 C   0  0  0  0  0  0  0  0  0  0  0  0
   17.5423  -24.0319  -13.0020 C   0  0  1  0  0  0  0  0  0  0  0  0
   17.1642  -23.1507  -14.1675 N   0  0  0  0  0  0  0  0  0  0  0  0
   17.9233  -21.9284  -14.0969 C   0  0  0  0  0  0  0  0  0  0  0  0
   15.7081  -22.9244  -14.1224 O   0  0  0  0  0  0  0  0  0  0  0  0
   14.8648  -24.0136  -14.2326 O   0  0  0  0  0  0  0  0  0  0  0  0
  2  1  1  0
  3  2  2  0
  4  2  1  0
  5  4  1  0
  6  5  1  0
  6  7  1  0
  8  7  1  0
  8  9  1  6
 10  8  1  0
 10 12  1  0
 11 10  2  0
 12 13  1  0
 13 14  1  1
 15 16  2  0
 15 14  1  0
 17 18  2  0
 17 13  1  0
 19 15  1  0
 21 20  1  0
 22 21  1  6
 22 23  1  0
 23 17  1  0
 24 22  1  0
 24 25  1  0
 26 24  2  0
M  END
$$$$
