RDS.pdb
     RDKit          3D

 26 25  0  0  1  0  0  0  0  0999 V2000
   22.6534  -17.3021  -15.2612 N   0  0  0  0  0  0  0  0  0  0  0  0
   23.8452  -17.6088  -15.9880 C   0  0  0  0  0  0  0  0  0  0  0  0
   23.9025  -18.7047  -16.6981 N   0  0  0  0  0  0  0  0  0  0  0  0
   24.9458  -16.7135  -15.9221 N   0  0  0  0  0  0  0  0  0  0  0  0
   24.8445  -15.4524  -15.2684 C   0  0  0  0  0  0  0  0  0  0  0  0
   23.9349  -14.4760  -15.9474 C   0  0  0  0  0  0  0  0  0  0  0  0
   23.8216  -13.1502  -15.2867 C   0  0  0  0  0  0  0  0  0  0  0  0
   22.9814  -12.1643  -16.0576 C   0  0  2  0  0  0  0  0  0  0  0  0
   23.0879  -12.3621  -17.4872 N   0  0  0  0  0  0  0  0  0  0  0  0
   23.3658  -10.7619  -15.7889 C   0  0  0  0  0  0  0  0  0  0  0  0
   23.2341  -10.3494  -14.6092 O   0  0  0  0  0  0  0  0  0  0  0  0
   24.7383  -18.8716  -17.2929 N   0  0  0  0  0  0  0  0  0  0  0  0
   23.8668   -9.8686  -16.7705 C   0  0  1  0  0  0  0  0  0  0  0  0
   24.1692   -8.5065  -16.4674 C   0  0  0  0  0  0  0  0  0  0  0  0
   25.1814   -7.8940  -17.3963 C   0  0  0  0  0  0  0  0  0  0  0  0
   25.5853   -6.5377  -17.0222 O   0  0  0  0  0  0  0  0  0  0  0  0
   25.1140   -5.9847  -15.9996 C   0  0  0  0  0  0  0  0  0  0  0  0
   22.9543   -7.6389  -16.4754 O   0  0  0  0  0  0  0  0  0  0  0  0
   22.4666   -7.3418  -17.5930 O   0  0  0  0  0  0  0  0  0  0  0  0
   26.4974   -5.8317  -17.7874 O   0  0  0  0  0  0  0  0  0  0  0  0
   19.7490   -8.0534  -14.7750 C   0  0  0  0  0  0  0  0  0  0  0  0
   20.1646   -6.7935  -14.3397 C   0  0  2  0  0  0  0  0  0  0  0  0
   21.2035   -6.2564  -15.2937 N   0  0  0  0  0  0  0  0  0  0  0  0
   22.3379   -7.1442  -15.3001 C   0  0  0  0  0  0  0  0  0  0  0  0
   21.5506   -4.8860  -14.8749 O   0  0  0  0  0  0  0  0  0  0  0  0
   20.5523   -3.9313  -14.8395 O   0  0  0  0  0  0  0  0  0  0  0  0
  2  1  1  0
  3  2  2  0
  4  2  1  0
  5  4  1  0
  6  5  1  0
  6  7  1  0
  8  7  1  0
  8  9  1  6
 10  8  1  0
 10 12  1  0
 11 10  2  0
 12 13  1  0
 13 14  1  1
 15 16  2  0
 15 14  1  0
 17 18  2  0
 17 13  1  0
 19 15  1  0
 21 20  1  0
 22 21  1  6
 22 23  1  0
 23 17  1  0
 24 22  1  0
 24 25  1  0
 26 24  2  0
M  END
$$$$
