RDS.pdb
     RDKit          3D

 26 25  0  0  1  0  0  0  0  0999 V2000
   22.2983  -21.4327   -7.5912 N   0  0  0  0  0  0  0  0  0  0  0  0
   20.9501  -21.5738   -8.0442 C   0  0  0  0  0  0  0  0  0  0  0  0
   20.0927  -22.2402   -7.3167 N   0  0  0  0  0  0  0  0  0  0  0  0
   20.5700  -20.9857   -9.2798 N   0  0  0  0  0  0  0  0  0  0  0  0
   21.4746  -20.1878  -10.0367 C   0  0  0  0  0  0  0  0  0  0  0  0
   22.6531  -20.9356  -10.5786 C   0  0  0  0  0  0  0  0  0  0  0  0
   23.6027  -20.1247  -11.3836 C   0  0  0  0  0  0  0  0  0  0  0  0
   24.7602  -20.9211  -11.9295 C   0  0  2  0  0  0  0  0  0  0  0  0
   25.6668  -21.3463  -10.8847 N   0  0  0  0  0  0  0  0  0  0  0  0
   25.5622  -20.1553  -12.9077 C   0  0  0  0  0  0  0  0  0  0  0  0
   26.3736  -19.3134  -12.4472 O   0  0  0  0  0  0  0  0  0  0  0  0
   19.1116  -22.3217   -7.6499 N   0  0  0  0  0  0  0  0  0  0  0  0
   25.4705  -20.3134  -14.3146 C   0  0  1  0  0  0  0  0  0  0  0  0
   26.2942  -19.5698  -15.2130 C   0  0  0  0  0  0  0  0  0  0  0  0
   26.7362  -20.3576  -16.4157 C   0  0  0  0  0  0  0  0  0  0  0  0
   27.4548  -21.5896  -16.0863 O   0  0  0  0  0  0  0  0  0  0  0  0
   28.4969  -21.5601  -15.3888 C   0  0  0  0  0  0  0  0  0  0  0  0
   25.6272  -18.3256  -15.6986 O   0  0  0  0  0  0  0  0  0  0  0  0
   24.5227  -18.0261  -15.1833 O   0  0  0  0  0  0  0  0  0  0  0  0
   27.0019  -22.8179  -16.5362 O   0  0  0  0  0  0  0  0  0  0  0  0
   26.8780  -14.9344  -15.5259 C   0  0  0  0  0  0  0  0  0  0  0  0
   25.5763  -15.3114  -15.8620 C   0  0  1  0  0  0  0  0  0  0  0  0
   25.6169  -16.2091  -17.0746 N   0  0  0  0  0  0  0  0  0  0  0  0
   26.1739  -17.4827  -16.6969 C   0  0  0  0  0  0  0  0  0  0  0  0
   26.3978  -15.5310  -18.1254 O   0  0  0  0  0  0  0  0  0  0  0  0
   25.9616  -14.3038  -18.5871 O   0  0  0  0  0  0  0  0  0  0  0  0
  2  1  1  0
  3  2  2  0
  4  2  1  0
  5  4  1  0
  6  5  1  0
  6  7  1  0
  8  7  1  0
  8  9  1  1
 10  8  1  0
 10 12  1  0
 11 10  2  0
 12 13  1  0
 13 14  1  1
 15 16  2  0
 15 14  1  0
 17 18  2  0
 17 13  1  0
 19 15  1  0
 21 20  1  0
 22 21  1  1
 22 23  1  0
 23 17  1  0
 24 22  1  0
 24 25  1  0
 26 24  2  0
M  END
$$$$
