RDS.pdb
     RDKit          3D

 26 25  0  0  1  0  0  0  0  0999 V2000
   11.5010  -13.7121  -10.6378 N   0  0  0  0  0  0  0  0  0  0  0  0
   11.4116  -12.9169  -11.8220 C   0  0  0  0  0  0  0  0  0  0  0  0
   10.4751  -12.0102  -11.9198 N   0  0  0  0  0  0  0  0  0  0  0  0
   12.3449  -13.1302  -12.8711 N   0  0  0  0  0  0  0  0  0  0  0  0
   12.3333  -12.3369  -14.0537 C   0  0  0  0  0  0  0  0  0  0  0  0
   13.2977  -12.7853  -15.1076 C   0  0  0  0  0  0  0  0  0  0  0  0
   14.6577  -12.1944  -15.0151 C   0  0  0  0  0  0  0  0  0  0  0  0
   15.5831  -12.6406  -16.1180 C   0  0  2  0  0  0  0  0  0  0  0  0
   15.6667  -14.0826  -16.2059 N   0  0  0  0  0  0  0  0  0  0  0  0
   16.9630  -12.1414  -15.9351 C   0  0  0  0  0  0  0  0  0  0  0  0
   17.6524  -12.6843  -15.0355 O   0  0  0  0  0  0  0  0  0  0  0  0
   10.3987  -11.4638  -12.8005 N   0  0  0  0  0  0  0  0  0  0  0  0
   17.5450  -11.1011  -16.7043 C   0  0  1  0  0  0  0  0  0  0  0  0
   18.8859  -10.6613  -16.4869 C   0  0  0  0  0  0  0  0  0  0  0  0
   19.7302  -10.6676  -17.7317 C   0  0  0  0  0  0  0  0  0  0  0  0
   21.1404  -10.3559  -17.4933 O   0  0  0  0  0  0  0  0  0  0  0  0
   21.5971  -10.2912  -16.3268 C   0  0  0  0  0  0  0  0  0  0  0  0
   18.9464   -9.2908  -15.8978 O   0  0  0  0  0  0  0  0  0  0  0  0
   18.1398   -8.4376  -16.3414 O   0  0  0  0  0  0  0  0  0  0  0  0
   22.0050  -10.1248  -18.5493 O   0  0  0  0  0  0  0  0  0  0  0  0
   20.1996   -8.1807  -12.0694 C   0  0  0  0  0  0  0  0  0  0  0  0
   20.8817   -7.6085  -13.1450 C   0  0  2  0  0  0  0  0  0  0  0  0
   19.9740   -7.5812  -14.3505 N   0  0  0  0  0  0  0  0  0  0  0  0
   19.8563   -8.9160  -14.8794 C   0  0  0  0  0  0  0  0  0  0  0  0
   20.5299   -6.6253  -15.3258 O   0  0  0  0  0  0  0  0  0  0  0  0
   20.6601   -5.3006  -14.9546 O   0  0  0  0  0  0  0  0  0  0  0  0
  2  1  1  0
  3  2  2  0
  4  2  1  0
  5  4  1  0
  6  5  1  0
  6  7  1  0
  8  7  1  0
  8  9  1  1
 10  8  1  0
 10 12  1  0
 11 10  2  0
 12 13  1  0
 13 14  1  6
 15 16  2  0
 15 14  1  0
 17 18  2  0
 17 13  1  0
 19 15  1  0
 21 20  1  0
 22 21  1  1
 22 23  1  0
 23 17  1  0
 24 22  1  0
 24 25  1  0
 26 24  2  0
M  END
$$$$
