RDS.pdb
     RDKit          3D

 26 25  0  0  1  0  0  0  0  0999 V2000
   18.0744  -16.0643  -15.5019 N   0  0  0  0  0  0  0  0  0  0  0  0
   19.4764  -16.2605  -15.6978 C   0  0  0  0  0  0  0  0  0  0  0  0
   20.1580  -16.9540  -14.8243 N   0  0  0  0  0  0  0  0  0  0  0  0
   20.1014  -15.6950  -16.8409 N   0  0  0  0  0  0  0  0  0  0  0  0
   20.4932  -14.3264  -16.8775 C   0  0  0  0  0  0  0  0  0  0  0  0
   19.3993  -13.3615  -16.5397 C   0  0  0  0  0  0  0  0  0  0  0  0
   19.7921  -11.9287  -16.5513 C   0  0  0  0  0  0  0  0  0  0  0  0
   19.4803  -11.2306  -17.8503 C   0  0  2  0  0  0  0  0  0  0  0  0
   20.2519  -11.7646  -18.9520 N   0  0  0  0  0  0  0  0  0  0  0  0
   19.7606   -9.7797  -17.7941 C   0  0  0  0  0  0  0  0  0  0  0  0
   20.8445   -9.3873  -18.2944 O   0  0  0  0  0  0  0  0  0  0  0  0
   21.1851  -17.0480  -14.9525 N   0  0  0  0  0  0  0  0  0  0  0  0
   18.8902   -8.8195  -17.2170 C   0  0  1  0  0  0  0  0  0  0  0  0
   19.2263   -7.4329  -17.1615 C   0  0  0  0  0  0  0  0  0  0  0  0
   18.0302   -6.5282  -17.0462 C   0  0  0  0  0  0  0  0  0  0  0  0
   17.0967   -6.6333  -18.1688 O   0  0  0  0  0  0  0  0  0  0  0  0
   17.4990   -6.5297  -19.3524 C   0  0  0  0  0  0  0  0  0  0  0  0
   20.1519   -7.1169  -16.0336 O   0  0  0  0  0  0  0  0  0  0  0  0
   19.9802   -7.7385  -14.9569 O   0  0  0  0  0  0  0  0  0  0  0  0
   15.7468   -6.8497  -17.9520 O   0  0  0  0  0  0  0  0  0  0  0  0
   24.4662   -5.3511  -14.7901 C   0  0  0  0  0  0  0  0  0  0  0  0
   23.4969   -5.5703  -15.7708 C   0  0  1  0  0  0  0  0  0  0  0  0
   22.2012   -5.9697  -15.1077 N   0  0  0  0  0  0  0  0  0  0  0  0
   21.1962   -6.1642  -16.1213 C   0  0  0  0  0  0  0  0  0  0  0  0
   21.8386   -4.9232  -14.1345 O   0  0  0  0  0  0  0  0  0  0  0  0
   22.2430   -5.0710  -12.8215 O   0  0  0  0  0  0  0  0  0  0  0  0
  2  1  1  0
  3  2  2  0
  4  2  1  0
  5  4  1  0
  6  5  1  0
  6  7  1  0
  8  7  1  0
  8  9  1  6
 10  8  1  0
 10 12  1  0
 11 10  2  0
 12 13  1  0
 13 14  1  6
 15 16  2  0
 15 14  1  0
 17 18  2  0
 17 13  1  0
 19 15  1  0
 21 20  1  0
 22 21  1  6
 22 23  1  0
 23 17  1  0
 24 22  1  0
 24 25  1  0
 26 24  2  0
M  END
$$$$
