RDS.pdb
     RDKit          3D

 26 25  0  0  1  0  0  0  0  0999 V2000
   30.3932  -21.4829   -9.2938 N   0  0  0  0  0  0  0  0  0  0  0  0
   30.9020  -22.0579  -10.4993 C   0  0  0  0  0  0  0  0  0  0  0  0
   31.8540  -22.9512  -10.4350 N   0  0  0  0  0  0  0  0  0  0  0  0
   30.3609  -21.6442  -11.7456 N   0  0  0  0  0  0  0  0  0  0  0  0
   29.2765  -20.7241  -11.8204 C   0  0  0  0  0  0  0  0  0  0  0  0
   27.9225  -21.3562  -11.7264 C   0  0  0  0  0  0  0  0  0  0  0  0
   26.7764  -20.4318  -11.9242 C   0  0  0  0  0  0  0  0  0  0  0  0
   25.4332  -21.0982  -11.7697 C   0  0  2  0  0  0  0  0  0  0  0  0
   25.5196  -22.5347  -11.9223 N   0  0  0  0  0  0  0  0  0  0  0  0
   24.4471  -20.6200  -12.7624 C   0  0  0  0  0  0  0  0  0  0  0  0
   24.2847  -19.3773  -12.8535 O   0  0  0  0  0  0  0  0  0  0  0  0
   32.2750  -23.2973  -11.3200 N   0  0  0  0  0  0  0  0  0  0  0  0
   23.6852  -21.4697  -13.6052 C   0  0  1  0  0  0  0  0  0  0  0  0
   22.7218  -20.9544  -14.5244 C   0  0  0  0  0  0  0  0  0  0  0  0
   22.5254  -21.8205  -15.7384 C   0  0  0  0  0  0  0  0  0  0  0  0
   21.5987  -21.2600  -16.7231 O   0  0  0  0  0  0  0  0  0  0  0  0
   20.8840  -22.0075  -17.4330 C   0  0  0  0  0  0  0  0  0  0  0  0
   21.3870  -20.7429  -13.8901 O   0  0  0  0  0  0  0  0  0  0  0  0
   20.9252  -21.6802  -13.1949 O   0  0  0  0  0  0  0  0  0  0  0  0
   21.4879  -19.8910  -16.8953 O   0  0  0  0  0  0  0  0  0  0  0  0
   19.4354  -17.2328  -12.5500 C   0  0  0  0  0  0  0  0  0  0  0  0
   18.9100  -17.9252  -13.6428 C   0  0  2  0  0  0  0  0  0  0  0  0
   19.2902  -19.3819  -13.5370 N   0  0  0  0  0  0  0  0  0  0  0  0
   20.6311  -19.5539  -14.0347 C   0  0  0  0  0  0  0  0  0  0  0  0
   18.2959  -20.1744  -14.2833 O   0  0  0  0  0  0  0  0  0  0  0  0
   18.5202  -20.4260  -15.6234 O   0  0  0  0  0  0  0  0  0  0  0  0
  2  1  1  0
  3  2  2  0
  4  2  1  0
  5  4  1  0
  6  5  1  0
  6  7  1  0
  8  7  1  0
  8  9  1  6
 10  8  1  0
 10 12  1  0
 11 10  2  0
 12 13  1  0
 13 14  1  6
 15 16  2  0
 15 14  1  0
 17 18  2  0
 17 13  1  0
 19 15  1  0
 21 20  1  0
 22 21  1  1
 22 23  1  0
 23 17  1  0
 24 22  1  0
 24 25  1  0
 26 24  2  0
M  END
$$$$
