HAT.pdb
     RDKit          3D

 23 23  0  0  1  0  0  0  0  0999 V2000
   10.8056  -15.8031   15.6847 N   0  0  0  0  0  0  0  0  0  0  0  0
    9.5118  -15.5678   16.2741 C   0  0  1  0  0  0  0  0  0  0  0  0
    8.8280  -16.8810   16.5027 C   0  0  0  0  0  0  0  0  0  0  0  0
    7.9544  -17.1454   15.3292 C   0  0  0  0  0  0  0  0  0  0  0  0
    7.7918  -16.3689   14.1832 C   0  0  0  0  0  0  0  0  0  0  0  0
    6.9039  -16.9658   13.3592 N   0  0  0  0  0  0  0  0  0  0  0  0
    6.5039  -18.0957   13.9551 C   0  0  0  0  0  0  0  0  0  0  0  0
    7.1250  -18.2049   15.1233 N   0  0  0  0  0  0  0  0  0  0  0  0
    9.6872  -14.7884   17.5272 C   0  0  0  0  0  0  0  0  0  0  0  0
   10.7213  -14.9077   18.2413 O   0  0  0  0  0  0  0  0  0  0  0  0
    7.8232  -11.9819   19.3001 C   0  0  0  0  0  0  0  0  0  0  0  0
    8.8561  -13.0654   19.1688 C   0  0  2  0  0  0  0  0  0  0  0  0
    8.7068  -13.8653   17.9968 N   0  0  0  0  0  0  0  0  0  0  0  0
    8.8633  -13.9171   20.4149 C   0  0  0  0  0  0  0  0  0  0  0  0
    9.1046  -13.4170   21.5336 O   0  0  0  0  0  0  0  0  0  0  0  0
    6.0494  -16.1325   21.4096 C   0  0  0  0  0  0  0  0  0  0  0  0
    7.2591  -17.0585   21.4032 C   0  0  1  0  0  0  0  0  0  0  0  0
    7.1469  -17.7545   20.1686 O   0  0  0  0  0  0  0  0  0  0  0  0
    8.4916  -16.2361   21.3914 C   0  0  2  0  0  0  0  0  0  0  0  0
    8.5948  -15.2995   20.3256 N   0  0  0  0  0  0  0  0  0  0  0  0
    9.6928  -17.1042   21.5819 C   0  0  0  0  0  0  0  0  0  0  0  0
   10.7122  -16.9966   20.8529 O   0  0  0  0  0  0  0  0  0  0  0  0
    9.7584  -18.0765   22.5618 O   0  0  0  0  0  0  0  0  0  0  0  0
  2  1  1  1
  2  3  1  0
  3  4  1  0
  4  8  1  0
  4  5  2  0
  5  6  1  0
  7  6  1  0
  8  7  2  0
  9  2  1  0
  9 13  1  0
 10  9  2  0
 12 11  1  1
 12 13  1  0
 12 14  1  0
 14 20  1  0
 15 14  2  0
 17 18  1  0
 17 16  1  6
 19 17  1  0
 19 20  1  6
 21 19  1  0
 21 23  1  0
 22 21  2  0
M  END
$$$$
