HAT.pdb
     RDKit          3D

 23 23  0  0  1  0  0  0  0  0999 V2000
    9.8801  -16.0607   21.1003 N   0  0  0  0  0  0  0  0  0  0  0  0
    9.0219  -15.1974   21.8716 C   0  0  1  0  0  0  0  0  0  0  0  0
    7.6096  -15.3549   21.3974 C   0  0  0  0  0  0  0  0  0  0  0  0
    7.4834  -14.6294   20.1059 C   0  0  0  0  0  0  0  0  0  0  0  0
    8.4869  -14.0076   19.3649 C   0  0  0  0  0  0  0  0  0  0  0  0
    7.9505  -13.4638   18.2512 N   0  0  0  0  0  0  0  0  0  0  0  0
    6.6381  -13.7263   18.2715 C   0  0  0  0  0  0  0  0  0  0  0  0
    6.3582  -14.4173   19.3699 N   0  0  0  0  0  0  0  0  0  0  0  0
    9.1809  -15.5220   23.3130 C   0  0  0  0  0  0  0  0  0  0  0  0
    9.8007  -16.5536   23.6945 O   0  0  0  0  0  0  0  0  0  0  0  0
    8.1492  -13.9329   26.6254 C   0  0  0  0  0  0  0  0  0  0  0  0
    8.7928  -14.9625   25.7402 C   0  0  2  0  0  0  0  0  0  0  0  0
    8.6480  -14.6958   24.3460 N   0  0  0  0  0  0  0  0  0  0  0  0
    8.2718  -16.3349   26.0913 C   0  0  0  0  0  0  0  0  0  0  0  0
    7.0827  -16.6466   25.8704 O   0  0  0  0  0  0  0  0  0  0  0  0
    8.3522  -20.9510   26.5914 C   0  0  0  0  0  0  0  0  0  0  0  0
    9.0160  -19.6720   26.0970 C   0  0  1  0  0  0  0  0  0  0  0  0
    8.2932  -19.3495   24.9160 O   0  0  0  0  0  0  0  0  0  0  0  0
    8.8093  -18.6051   27.1043 C   0  0  2  0  0  0  0  0  0  0  0  0
    9.1323  -17.2870   26.6779 N   0  0  0  0  0  0  0  0  0  0  0  0
    9.4115  -19.0066   28.4117 C   0  0  0  0  0  0  0  0  0  0  0  0
   10.3646  -18.3682   28.9276 O   0  0  0  0  0  0  0  0  0  0  0  0
    8.9653  -20.0994   29.1303 O   0  0  0  0  0  0  0  0  0  0  0  0
  2  1  1  6
  2  3  1  0
  3  4  1  0
  4  8  1  0
  4  5  2  0
  5  6  1  0
  7  6  1  0
  8  7  2  0
  9  2  1  0
  9 13  1  0
 10  9  2  0
 12 11  1  1
 12 13  1  0
 12 14  1  0
 14 20  1  0
 15 14  2  0
 17 18  1  0
 17 16  1  1
 19 17  1  0
 19 20  1  6
 21 19  1  0
 21 23  1  0
 22 21  2  0
M  END
$$$$
