HAT.pdb
     RDKit          3D

 23 23  0  0  1  0  0  0  0  0999 V2000
    7.5395  -16.8212   19.7255 N   0  0  0  0  0  0  0  0  0  0  0  0
    7.9144  -15.6697   20.5066 C   0  0  1  0  0  0  0  0  0  0  0  0
    7.0525  -14.5079   20.1171 C   0  0  0  0  0  0  0  0  0  0  0  0
    7.4553  -14.0852   18.7499 C   0  0  0  0  0  0  0  0  0  0  0  0
    8.3888  -13.1157   18.3874 C   0  0  0  0  0  0  0  0  0  0  0  0
    8.4569  -13.0401   17.0408 N   0  0  0  0  0  0  0  0  0  0  0  0
    7.5925  -13.9348   16.5468 C   0  0  0  0  0  0  0  0  0  0  0  0
    6.9971  -14.5559   17.5578 N   0  0  0  0  0  0  0  0  0  0  0  0
    7.8012  -16.0077   21.9492 C   0  0  0  0  0  0  0  0  0  0  0  0
    6.6835  -16.2378   22.4891 O   0  0  0  0  0  0  0  0  0  0  0  0
    9.7353  -17.5573   24.6075 C   0  0  0  0  0  0  0  0  0  0  0  0
    8.8711  -16.3981   24.1981 C   0  0  2  0  0  0  0  0  0  0  0  0
    8.9381  -16.0924   22.8061 N   0  0  0  0  0  0  0  0  0  0  0  0
    9.2049  -15.1906   25.0398 C   0  0  0  0  0  0  0  0  0  0  0  0
   10.1979  -14.4797   24.7782 O   0  0  0  0  0  0  0  0  0  0  0  0
    7.0272  -12.3062   25.7707 C   0  0  0  0  0  0  0  0  0  0  0  0
    7.3689  -12.8563   27.1496 C   0  0  1  0  0  0  0  0  0  0  0  0
    6.2258  -13.6250   27.5009 O   0  0  0  0  0  0  0  0  0  0  0  0
    8.5434  -13.7518   27.0302 C   0  0  2  0  0  0  0  0  0  0  0  0
    8.3897  -14.8510   26.1404 N   0  0  0  0  0  0  0  0  0  0  0  0
    9.0588  -14.1100   28.3863 C   0  0  0  0  0  0  0  0  0  0  0  0
    9.2266  -15.3059   28.7383 O   0  0  0  0  0  0  0  0  0  0  0  0
    9.3781  -13.1570   29.3349 O   0  0  0  0  0  0  0  0  0  0  0  0
  2  1  1  6
  2  3  1  0
  3  4  1  0
  4  8  1  0
  4  5  2  0
  5  6  1  0
  7  6  1  0
  8  7  2  0
  9  2  1  0
  9 13  1  0
 10  9  2  0
 12 11  1  6
 12 13  1  0
 12 14  1  0
 14 20  1  0
 15 14  2  0
 17 18  1  0
 17 16  1  6
 19 17  1  0
 19 20  1  1
 21 19  1  0
 21 23  1  0
 22 21  2  0
M  END
$$$$
