HAT.pdb
     RDKit          3D

 23 23  0  0  1  0  0  0  0  0999 V2000
   11.6109  -14.1846   18.3966 N   0  0  0  0  0  0  0  0  0  0  0  0
   12.3064  -15.0946   19.2712 C   0  0  1  0  0  0  0  0  0  0  0  0
   13.4567  -14.3802   19.9121 C   0  0  0  0  0  0  0  0  0  0  0  0
   14.5704  -14.3437   18.9279 C   0  0  0  0  0  0  0  0  0  0  0  0
   14.5528  -14.7385   17.5913 C   0  0  0  0  0  0  0  0  0  0  0  0
   15.7741  -14.5418   17.0495 N   0  0  0  0  0  0  0  0  0  0  0  0
   16.5587  -14.0344   18.0080 C   0  0  0  0  0  0  0  0  0  0  0  0
   15.8478  -13.9158   19.1229 N   0  0  0  0  0  0  0  0  0  0  0  0
   11.3448  -15.6378   20.2655 C   0  0  0  0  0  0  0  0  0  0  0  0
   10.4062  -14.9337   20.7313 O   0  0  0  0  0  0  0  0  0  0  0  0
   10.4715  -19.0740   21.6018 C   0  0  0  0  0  0  0  0  0  0  0  0
   10.4559  -17.5715   21.6165 C   0  0  2  0  0  0  0  0  0  0  0  0
   11.4218  -16.9764   20.7512 N   0  0  0  0  0  0  0  0  0  0  0  0
   10.6103  -17.0734   23.0329 C   0  0  0  0  0  0  0  0  0  0  0  0
   11.7311  -16.7569   23.4841 O   0  0  0  0  0  0  0  0  0  0  0  0
    8.1689  -14.5058   24.6430 C   0  0  0  0  0  0  0  0  0  0  0  0
    8.2545  -15.6993   25.5860 C   0  0  1  0  0  0  0  0  0  0  0  0
    7.0698  -16.4352   25.3102 O   0  0  0  0  0  0  0  0  0  0  0  0
    9.4350  -16.5160   25.2186 C   0  0  2  0  0  0  0  0  0  0  0  0
    9.4784  -16.9599   23.8678 N   0  0  0  0  0  0  0  0  0  0  0  0
    9.6596  -17.5855   26.2378 C   0  0  0  0  0  0  0  0  0  0  0  0
    9.7163  -18.8019   25.9224 O   0  0  0  0  0  0  0  0  0  0  0  0
    9.8143  -17.3087   27.5829 O   0  0  0  0  0  0  0  0  0  0  0  0
  2  1  1  6
  2  3  1  0
  3  4  1  0
  4  8  1  0
  4  5  2  0
  5  6  1  0
  7  6  1  0
  8  7  2  0
  9  2  1  0
  9 13  1  0
 10  9  2  0
 12 11  1  1
 12 13  1  0
 12 14  1  0
 14 20  1  0
 15 14  2  0
 17 18  1  0
 17 16  1  6
 19 17  1  0
 19 20  1  6
 21 19  1  0
 21 23  1  0
 22 21  2  0
M  END
$$$$
