IFY.pdb
     RDKit          3D

 32 33  0  0  1  0  0  0  0  0999 V2000
   16.3528  -13.7777  -19.7906 C   0  0  0  0  0  0  0  0  0  0  0  0
   17.6969  -13.6082  -19.1542 C   0  0  0  0  0  0  0  0  0  0  0  0
   17.6628  -12.5301  -18.0562 C   0  0  2  0  0  0  0  0  0  0  0  0
   17.3228  -11.2493  -18.7845 C   0  0  0  0  0  0  0  0  0  0  0  0
   19.0709  -12.4689  -17.4955 C   0  0  2  0  0  0  0  0  0  0  0  0
   19.3823  -13.8021  -16.9340 N   0  0  0  0  0  0  0  0  0  0  0  0
   19.2366  -11.4848  -16.4047 C   0  0  0  0  0  0  0  0  0  0  0  0
   18.6082  -11.6666  -15.2960 O   0  0  0  0  0  0  0  0  0  0  0  0
   20.0435  -10.3332  -16.4658 N   0  0  0  0  0  0  0  0  0  0  0  0
   20.1457   -9.4220  -15.2800 C   0  0  1  0  0  0  0  0  0  0  0  0
   21.5447   -8.8796  -15.2511 C   0  0  0  0  0  0  0  0  0  0  0  0
   21.8202   -7.7735  -14.3432 C   0  0  0  0  0  0  0  0  0  0  0  0
   21.8556   -7.9004  -12.9796 C   0  0  0  0  0  0  0  0  0  0  0  0
   22.1095   -6.8038  -12.1481 C   0  0  0  0  0  0  0  0  0  0  0  0
   22.3297   -5.5725  -12.6902 C   0  0  0  0  0  0  0  0  0  0  0  0
   22.2969   -5.4324  -14.0663 C   0  0  0  0  0  0  0  0  0  0  0  0
   22.0483   -6.5070  -14.8692 C   0  0  0  0  0  0  0  0  0  0  0  0
   19.1681   -8.3503  -15.5253 C   0  0  0  0  0  0  0  0  0  0  0  0
   19.0330   -7.9621  -16.7442 O   0  0  0  0  0  0  0  0  0  0  0  0
   16.5924   -6.5035   -8.7556 O   0  0  0  0  0  0  0  0  0  0  0  0
   16.4645   -6.5916  -10.1399 C   0  0  0  0  0  0  0  0  0  0  0  0
   16.4986   -7.8051  -10.7819 C   0  0  0  0  0  0  0  0  0  0  0  0
   16.3699   -7.8586  -12.1457 C   0  0  0  0  0  0  0  0  0  0  0  0
   16.2014   -6.7311  -12.9511 C   0  0  0  0  0  0  0  0  0  0  0  0
   16.0927   -6.8362  -14.4191 C   0  0  0  0  0  0  0  0  0  0  0  0
   17.4847   -6.6285  -15.0189 C   0  0  2  0  0  0  0  0  0  0  0  0
   18.3559   -7.7037  -14.5860 N   0  0  0  0  0  0  0  0  0  0  0  0
   18.0519   -5.3483  -14.6277 C   0  0  0  0  0  0  0  0  0  0  0  0
   19.1809   -5.2790  -13.8481 O   0  0  0  0  0  0  0  0  0  0  0  0
   16.1695   -5.5078  -12.2790 C   0  0  0  0  0  0  0  0  0  0  0  0
   16.2994   -5.4649  -10.9113 C   0  0  0  0  0  0  0  0  0  0  0  0
   17.5371   -4.2604  -14.9815 O   0  0  0  0  0  0  0  0  0  0  0  0
  1  2  1  0
  3  5  1  0
  3  2  1  0
  3  4  1  6
  5  7  1  0
  5  6  1  1
  7  8  2  0
  9 10  1  0
  9  7  1  0
 11 12  1  0
 10 11  1  6
 12 17  2  0
 13 14  2  0
 13 12  1  0
 14 15  1  0
 15 16  2  0
 17 16  1  0
 18 19  2  0
 18 10  1  0
 20 21  1  0
 21 31  2  0
 21 22  1  0
 22 23  2  0
 23 24  1  0
 24 25  1  0
 26 25  1  1
 26 27  1  0
 26 28  1  0
 27 18  1  0
 28 32  2  0
 28 29  1  0
 30 24  2  0
 31 30  1  0
M  END
$$$$
