IFY.pdb
     RDKit          3D

 32 33  0  0  1  0  0  0  0  0999 V2000
   24.1345  -20.5035  -15.9910 C   0  0  0  0  0  0  0  0  0  0  0  0
   25.5006  -20.3556  -15.3974 C   0  0  0  0  0  0  0  0  0  0  0  0
   25.5016  -20.7184  -13.9016 C   0  0  2  0  0  0  0  0  0  0  0  0
   24.5229  -19.7536  -13.2707 C   0  0  0  0  0  0  0  0  0  0  0  0
   26.9115  -20.4459  -13.4128 C   0  0  2  0  0  0  0  0  0  0  0  0
   27.8296  -21.2741  -14.2257 N   0  0  0  0  0  0  0  0  0  0  0  0
   27.1326  -20.8083  -11.9967 C   0  0  0  0  0  0  0  0  0  0  0  0
   27.1951  -22.0521  -11.6706 O   0  0  0  0  0  0  0  0  0  0  0  0
   27.2881  -19.8928  -10.9391 N   0  0  0  0  0  0  0  0  0  0  0  0
   27.4905  -20.3877   -9.5387 C   0  0  1  0  0  0  0  0  0  0  0  0
   28.3065  -19.3581   -8.8133 C   0  0  0  0  0  0  0  0  0  0  0  0
   28.4799  -19.5256   -7.3760 C   0  0  0  0  0  0  0  0  0  0  0  0
   27.9040  -18.7069   -6.4407 C   0  0  0  0  0  0  0  0  0  0  0  0
   28.1132  -18.8993   -5.0704 C   0  0  0  0  0  0  0  0  0  0  0  0
   28.9053  -19.9209   -4.6376 C   0  0  0  0  0  0  0  0  0  0  0  0
   29.4917  -20.7546   -5.5732 C   0  0  0  0  0  0  0  0  0  0  0  0
   29.2825  -20.5593   -6.9071 C   0  0  0  0  0  0  0  0  0  0  0  0
   26.1409  -20.4944   -8.9630 C   0  0  0  0  0  0  0  0  0  0  0  0
   25.4093  -19.4375   -9.0109 O   0  0  0  0  0  0  0  0  0  0  0  0
   22.2617  -22.1900   -1.6472 O   0  0  0  0  0  0  0  0  0  0  0  0
   22.8160  -21.7521   -2.8478 C   0  0  0  0  0  0  0  0  0  0  0  0
   24.0603  -21.1724   -2.8876 C   0  0  0  0  0  0  0  0  0  0  0  0
   24.5783  -20.7517   -4.0851 C   0  0  0  0  0  0  0  0  0  0  0  0
   23.9083  -20.8756   -5.3033 C   0  0  0  0  0  0  0  0  0  0  0  0
   24.4960  -20.3844   -6.5648 C   0  0  0  0  0  0  0  0  0  0  0  0
   24.3135  -21.4656   -7.6318 C   0  0  2  0  0  0  0  0  0  0  0  0
   25.5505  -21.6182   -8.3727 N   0  0  0  0  0  0  0  0  0  0  0  0
   23.2302  -21.1404   -8.5451 C   0  0  0  0  0  0  0  0  0  0  0  0
   23.1751  -19.9224   -9.1782 O   0  0  0  0  0  0  0  0  0  0  0  0
   22.6453  -21.4673   -5.2409 C   0  0  0  0  0  0  0  0  0  0  0  0
   22.1349  -21.8857   -4.0352 C   0  0  0  0  0  0  0  0  0  0  0  0
   22.3055  -21.9517   -8.7909 O   0  0  0  0  0  0  0  0  0  0  0  0
  1  2  1  0
  3  5  1  0
  3  2  1  0
  3  4  1  1
  5  7  1  0
  5  6  1  6
  7  8  2  0
  9 10  1  0
  9  7  1  0
 11 12  1  0
 10 11  1  1
 12 17  2  0
 13 14  2  0
 13 12  1  0
 14 15  1  0
 15 16  2  0
 17 16  1  0
 18 19  2  0
 18 10  1  0
 20 21  1  0
 21 31  2  0
 21 22  1  0
 22 23  2  0
 23 24  1  0
 24 25  1  0
 26 25  1  1
 26 27  1  0
 26 28  1  0
 27 18  1  0
 28 32  2  0
 28 29  1  0
 30 24  2  0
 31 30  1  0
M  END
$$$$
