IFY.pdb
     RDKit          3D

 32 33  0  0  1  0  0  0  0  0999 V2000
   25.9149  -18.9993  -20.6134 C   0  0  0  0  0  0  0  0  0  0  0  0
   26.9290  -19.2829  -19.5497 C   0  0  0  0  0  0  0  0  0  0  0  0
   26.2966  -20.0260  -18.3594 C   0  0  2  0  0  0  0  0  0  0  0  0
   25.2108  -19.0996  -17.8599 C   0  0  0  0  0  0  0  0  0  0  0  0
   27.3993  -20.1631  -17.3268 C   0  0  2  0  0  0  0  0  0  0  0  0
   28.3950  -21.1157  -17.8663 N   0  0  0  0  0  0  0  0  0  0  0  0
   26.9380  -20.7001  -16.0289 C   0  0  0  0  0  0  0  0  0  0  0  0
   26.6437  -21.9500  -15.9368 O   0  0  0  0  0  0  0  0  0  0  0  0
   26.7877  -19.9503  -14.8473 N   0  0  0  0  0  0  0  0  0  0  0  0
   26.2230  -20.5915  -13.6157 C   0  0  1  0  0  0  0  0  0  0  0  0
   26.9576  -20.0223  -12.4373 C   0  0  0  0  0  0  0  0  0  0  0  0
   26.4532  -20.3446  -11.1087 C   0  0  0  0  0  0  0  0  0  0  0  0
   25.5268  -19.5860  -10.4429 C   0  0  0  0  0  0  0  0  0  0  0  0
   25.0844  -19.9289   -9.1602 C   0  0  0  0  0  0  0  0  0  0  0  0
   25.5755  -21.0409   -8.5433 C   0  0  0  0  0  0  0  0  0  0  0  0
   26.5111  -21.8150   -9.2063 C   0  0  0  0  0  0  0  0  0  0  0  0
   26.9369  -21.4730  -10.4565 C   0  0  0  0  0  0  0  0  0  0  0  0
   24.8034  -20.2061  -13.5903 C   0  0  0  0  0  0  0  0  0  0  0  0
   24.5413  -18.9613  -13.7816 O   0  0  0  0  0  0  0  0  0  0  0  0
   21.6655  -24.4250  -18.1466 O   0  0  0  0  0  0  0  0  0  0  0  0
   21.7324  -23.3234  -17.2967 C   0  0  0  0  0  0  0  0  0  0  0  0
   22.8189  -22.4835  -17.3045 C   0  0  0  0  0  0  0  0  0  0  0  0
   22.8549  -21.4076  -16.4558 C   0  0  0  0  0  0  0  0  0  0  0  0
   21.8328  -21.0974  -15.5571 C   0  0  0  0  0  0  0  0  0  0  0  0
   21.9276  -19.9419  -14.6440 C   0  0  0  0  0  0  0  0  0  0  0  0
   22.3757  -20.4503  -13.2724 C   0  0  2  0  0  0  0  0  0  0  0  0
   23.6958  -21.0385  -13.3896 N   0  0  0  0  0  0  0  0  0  0  0  0
   21.4468  -21.4305  -12.7339 C   0  0  0  0  0  0  0  0  0  0  0  0
   20.1270  -21.1160  -12.5179 O   0  0  0  0  0  0  0  0  0  0  0  0
   20.7379  -21.9635  -15.5650 C   0  0  0  0  0  0  0  0  0  0  0  0
   20.7115  -23.0395  -16.4199 C   0  0  0  0  0  0  0  0  0  0  0  0
   21.8086  -22.5962  -12.4443 O   0  0  0  0  0  0  0  0  0  0  0  0
  1  2  1  0
  3  5  1  0
  3  2  1  0
  3  4  1  1
  5  7  1  0
  5  6  1  6
  7  8  2  0
  9 10  1  0
  9  7  1  0
 11 12  1  0
 10 11  1  1
 12 17  2  0
 13 14  2  0
 13 12  1  0
 14 15  1  0
 15 16  2  0
 17 16  1  0
 18 19  2  0
 18 10  1  0
 20 21  1  0
 21 31  2  0
 21 22  1  0
 22 23  2  0
 23 24  1  0
 24 25  1  0
 26 25  1  6
 26 27  1  0
 26 28  1  0
 27 18  1  0
 28 32  2  0
 28 29  1  0
 30 24  2  0
 31 30  1  0
M  END
$$$$
