IFY.pdb
     RDKit          3D

 32 33  0  0  1  0  0  0  0  0999 V2000
   26.3814  -20.2106  -18.9709 C   0  0  0  0  0  0  0  0  0  0  0  0
   27.1253  -20.5787  -17.7253 C   0  0  0  0  0  0  0  0  0  0  0  0
   26.1594  -20.8550  -16.5592 C   0  0  2  0  0  0  0  0  0  0  0  0
   25.3812  -19.5695  -16.3910 C   0  0  0  0  0  0  0  0  0  0  0  0
   27.0375  -21.1108  -15.3491 C   0  0  2  0  0  0  0  0  0  0  0  0
   27.7717  -22.3722  -15.5935 N   0  0  0  0  0  0  0  0  0  0  0  0
   26.2827  -21.2806  -14.0893 C   0  0  0  0  0  0  0  0  0  0  0  0
   25.7068  -22.4070  -13.8507 O   0  0  0  0  0  0  0  0  0  0  0  0
   26.1316  -20.2965  -13.0944 N   0  0  0  0  0  0  0  0  0  0  0  0
   25.3158  -20.5831  -11.8699 C   0  0  1  0  0  0  0  0  0  0  0  0
   25.8481  -19.7188  -10.7646 C   0  0  0  0  0  0  0  0  0  0  0  0
   26.9112  -20.2674   -9.9324 C   0  0  0  0  0  0  0  0  0  0  0  0
   26.8851  -20.2585   -8.5627 C   0  0  0  0  0  0  0  0  0  0  0  0
   27.9387  -20.7843   -7.8064 C   0  0  0  0  0  0  0  0  0  0  0  0
   29.0246  -21.3227   -8.4304 C   0  0  0  0  0  0  0  0  0  0  0  0
   29.0617  -21.3377   -9.8134 C   0  0  0  0  0  0  0  0  0  0  0  0
   28.0301  -20.8226  -10.5426 C   0  0  0  0  0  0  0  0  0  0  0  0
   23.9382  -20.2043  -12.2207 C   0  0  0  0  0  0  0  0  0  0  0  0
   23.7951  -19.1294  -12.9126 O   0  0  0  0  0  0  0  0  0  0  0  0
   19.0095  -23.4925  -18.1646 O   0  0  0  0  0  0  0  0  0  0  0  0
   19.8959  -23.1701  -17.1395 C   0  0  0  0  0  0  0  0  0  0  0  0
   20.2473  -24.0935  -16.1858 C   0  0  0  0  0  0  0  0  0  0  0  0
   21.1223  -23.7454  -15.1896 C   0  0  0  0  0  0  0  0  0  0  0  0
   21.6982  -22.4791  -15.0742 C   0  0  0  0  0  0  0  0  0  0  0  0
   22.6161  -22.1427  -13.9686 C   0  0  0  0  0  0  0  0  0  0  0  0
   21.8537  -21.2851  -12.9566 C   0  0  2  0  0  0  0  0  0  0  0  0
   22.7571  -20.8824  -11.8964 N   0  0  0  0  0  0  0  0  0  0  0  0
   20.7212  -22.0009  -12.3923 C   0  0  0  0  0  0  0  0  0  0  0  0
   19.5197  -22.0671  -13.0552 O   0  0  0  0  0  0  0  0  0  0  0  0
   21.3279  -21.5555  -16.0534 C   0  0  0  0  0  0  0  0  0  0  0  0
   20.4498  -21.9145  -17.0481 C   0  0  0  0  0  0  0  0  0  0  0  0
   20.7920  -22.5831  -11.2833 O   0  0  0  0  0  0  0  0  0  0  0  0
  1  2  1  0
  3  5  1  0
  3  2  1  0
  3  4  1  1
  5  7  1  0
  5  6  1  6
  7  8  2  0
  9 10  1  0
  9  7  1  0
 11 12  1  0
 10 11  1  1
 12 17  2  0
 13 14  2  0
 13 12  1  0
 14 15  1  0
 15 16  2  0
 17 16  1  0
 18 19  2  0
 18 10  1  0
 20 21  1  0
 21 31  2  0
 21 22  1  0
 22 23  2  0
 23 24  1  0
 24 25  1  0
 26 25  1  6
 26 27  1  0
 26 28  1  0
 27 18  1  0
 28 32  2  0
 28 29  1  0
 30 24  2  0
 31 30  1  0
M  END
$$$$
