IFY.pdb
     RDKit          3D

 32 33  0  0  1  0  0  0  0  0999 V2000
   25.5938  -13.5612  -15.6238 C   0  0  0  0  0  0  0  0  0  0  0  0
   24.3158  -13.1226  -16.2678 C   0  0  0  0  0  0  0  0  0  0  0  0
   24.2212  -11.5877  -16.3324 C   0  0  2  0  0  0  0  0  0  0  0  0
   24.1265  -11.1466  -14.8892 C   0  0  0  0  0  0  0  0  0  0  0  0
   22.9306  -11.2854  -17.0698 C   0  0  2  0  0  0  0  0  0  0  0  0
   23.0561  -11.8503  -18.4318 N   0  0  0  0  0  0  0  0  0  0  0  0
   22.6526   -9.8411  -17.2187 C   0  0  0  0  0  0  0  0  0  0  0  0
   23.6189   -9.0444  -17.5167 O   0  0  0  0  0  0  0  0  0  0  0  0
   21.3911   -9.2367  -17.0625 N   0  0  0  0  0  0  0  0  0  0  0  0
   21.2367   -7.7576  -17.2506 C   0  0  1  0  0  0  0  0  0  0  0  0
   20.2592   -7.5481  -18.3699 C   0  0  0  0  0  0  0  0  0  0  0  0
   20.7459   -7.7258  -19.7319 C   0  0  0  0  0  0  0  0  0  0  0  0
   20.6448   -8.9015  -20.4277 C   0  0  0  0  0  0  0  0  0  0  0  0
   21.1420   -9.0274  -21.7298 C   0  0  0  0  0  0  0  0  0  0  0  0
   21.7438   -7.9652  -22.3364 C   0  0  0  0  0  0  0  0  0  0  0  0
   21.8512   -6.7725  -21.6436 C   0  0  0  0  0  0  0  0  0  0  0  0
   21.3638   -6.6589  -20.3744 C   0  0  0  0  0  0  0  0  0  0  0  0
   20.6976   -7.2560  -15.9770 C   0  0  0  0  0  0  0  0  0  0  0  0
   19.7990   -7.9791  -15.4074 O   0  0  0  0  0  0  0  0  0  0  0  0
   18.3251   -3.3119   -8.5655 O   0  0  0  0  0  0  0  0  0  0  0  0
   19.0440   -3.7740   -9.6655 C   0  0  0  0  0  0  0  0  0  0  0  0
   19.4588   -5.0806   -9.7467 C   0  0  0  0  0  0  0  0  0  0  0  0
   20.1647   -5.5049  -10.8426 C   0  0  0  0  0  0  0  0  0  0  0  0
   20.5010   -4.6757  -11.9139 C   0  0  0  0  0  0  0  0  0  0  0  0
   21.2852   -5.1715  -13.0616 C   0  0  0  0  0  0  0  0  0  0  0  0
   20.3098   -5.6867  -14.1218 C   0  0  2  0  0  0  0  0  0  0  0  0
   21.0535   -6.0822  -15.3020 N   0  0  0  0  0  0  0  0  0  0  0  0
   19.3229   -4.6801  -14.4769 C   0  0  0  0  0  0  0  0  0  0  0  0
   19.6351   -3.6464  -15.3262 O   0  0  0  0  0  0  0  0  0  0  0  0
   20.0702   -3.3517  -11.8116 C   0  0  0  0  0  0  0  0  0  0  0  0
   19.3630   -2.9363  -10.7086 C   0  0  0  0  0  0  0  0  0  0  0  0
   18.1530   -4.7115  -14.0249 O   0  0  0  0  0  0  0  0  0  0  0  0
  1  2  1  0
  3  5  1  0
  3  2  1  0
  3  4  1  1
  5  7  1  0
  5  6  1  6
  7  8  2  0
  9 10  1  0
  9  7  1  0
 11 12  1  0
 10 11  1  6
 12 17  2  0
 13 14  2  0
 13 12  1  0
 14 15  1  0
 15 16  2  0
 17 16  1  0
 18 19  2  0
 18 10  1  0
 20 21  1  0
 21 31  2  0
 21 22  1  0
 22 23  2  0
 23 24  1  0
 24 25  1  0
 26 25  1  1
 26 27  1  0
 26 28  1  0
 27 18  1  0
 28 32  2  0
 28 29  1  0
 30 24  2  0
 31 30  1  0
M  END
$$$$
