IFY.pdb
     RDKit          3D

 32 33  0  0  1  0  0  0  0  0999 V2000
   25.8398  -17.6193  -15.7755 C   0  0  0  0  0  0  0  0  0  0  0  0
   26.4946  -18.9075  -15.3854 C   0  0  0  0  0  0  0  0  0  0  0  0
   27.6848  -18.6650  -14.4401 C   0  0  2  0  0  0  0  0  0  0  0  0
   28.6980  -17.9201  -15.2799 C   0  0  0  0  0  0  0  0  0  0  0  0
   28.2045  -20.0414  -14.0711 C   0  0  2  0  0  0  0  0  0  0  0  0
   28.4555  -20.7728  -15.3327 N   0  0  0  0  0  0  0  0  0  0  0  0
   27.2502  -20.8473  -13.2802 C   0  0  0  0  0  0  0  0  0  0  0  0
   26.3433  -21.5246  -13.8933 O   0  0  0  0  0  0  0  0  0  0  0  0
   27.2411  -20.9483  -11.8764 N   0  0  0  0  0  0  0  0  0  0  0  0
   26.2153  -21.7985  -11.1895 C   0  0  1  0  0  0  0  0  0  0  0  0
   26.7884  -22.2095   -9.8649 C   0  0  0  0  0  0  0  0  0  0  0  0
   26.8271  -21.2078   -8.8071 C   0  0  0  0  0  0  0  0  0  0  0  0
   25.7245  -20.8063   -8.1002 C   0  0  0  0  0  0  0  0  0  0  0  0
   25.8099  -19.8282   -7.1028 C   0  0  0  0  0  0  0  0  0  0  0  0
   27.0105  -19.2509   -6.8139 C   0  0  0  0  0  0  0  0  0  0  0  0
   28.1311  -19.6489   -7.5211 C   0  0  0  0  0  0  0  0  0  0  0  0
   28.0385  -20.6030   -8.4919 C   0  0  0  0  0  0  0  0  0  0  0  0
   25.0425  -20.9284  -11.0112 C   0  0  0  0  0  0  0  0  0  0  0  0
   25.2720  -19.7277  -10.6108 O   0  0  0  0  0  0  0  0  0  0  0  0
   21.3963  -20.6834  -17.1025 O   0  0  0  0  0  0  0  0  0  0  0  0
   21.7553  -20.2826  -15.8177 C   0  0  0  0  0  0  0  0  0  0  0  0
   23.0428  -20.4251  -15.3615 C   0  0  0  0  0  0  0  0  0  0  0  0
   23.3648  -20.0209  -14.0917 C   0  0  0  0  0  0  0  0  0  0  0  0
   22.4468  -19.4576  -13.2038 C   0  0  0  0  0  0  0  0  0  0  0  0
   22.8345  -19.0608  -11.8362 C   0  0  0  0  0  0  0  0  0  0  0  0
   22.6718  -20.2755  -10.9203 C   0  0  2  0  0  0  0  0  0  0  0  0
   23.6984  -21.2502  -11.2341 N   0  0  0  0  0  0  0  0  0  0  0  0
   21.3582  -20.8819  -11.0619 C   0  0  0  0  0  0  0  0  0  0  0  0
   21.2167  -22.1828  -11.4803 O   0  0  0  0  0  0  0  0  0  0  0  0
   21.1441  -19.3218  -13.6869 C   0  0  0  0  0  0  0  0  0  0  0  0
   20.8315  -19.7301  -14.9616 C   0  0  0  0  0  0  0  0  0  0  0  0
   20.3055  -20.2472  -10.8113 O   0  0  0  0  0  0  0  0  0  0  0  0
  1  2  1  0
  3  5  1  0
  3  2  1  0
  3  4  1  6
  5  7  1  0
  5  6  1  6
  7  8  2  0
  9 10  1  0
  9  7  1  0
 11 12  1  0
 10 11  1  1
 12 17  2  0
 13 14  2  0
 13 12  1  0
 14 15  1  0
 15 16  2  0
 17 16  1  0
 18 19  2  0
 18 10  1  0
 20 21  1  0
 21 31  2  0
 21 22  1  0
 22 23  2  0
 23 24  1  0
 24 25  1  0
 26 25  1  6
 26 27  1  0
 26 28  1  0
 27 18  1  0
 28 32  2  0
 28 29  1  0
 30 24  2  0
 31 30  1  0
M  END
$$$$
