IQP.pdb
     RDKit          3D

 25 25  0  0  1  0  0  0  0  0999 V2000
    8.0758  -12.4736   18.3142 C   0  0  0  0  0  0  0  0  0  0  0  0
    8.1689  -13.9593   18.7278 C   0  0  0  0  0  0  0  0  0  0  0  0
    7.7728  -14.0066   20.1610 C   0  0  2  0  0  0  0  0  0  0  0  0
    8.5682  -13.0540   21.0271 C   0  0  0  0  0  0  0  0  0  0  0  0
    7.7170  -15.3949   20.6889 C   0  0  2  0  0  0  0  0  0  0  0  0
    6.8228  -16.1476   19.7775 N   0  0  0  0  0  0  0  0  0  0  0  0
    7.1309  -15.4930   22.0806 C   0  0  0  0  0  0  0  0  0  0  0  0
    5.9399  -15.1325   22.2090 O   0  0  0  0  0  0  0  0  0  0  0  0
    7.4254  -20.2474   24.9035 N   0  0  0  0  0  0  0  0  0  0  0  0
    6.2244  -19.6048   24.5256 C   0  0  0  0  0  0  0  0  0  0  0  0
    5.1960  -20.2340   24.1811 O   0  0  0  0  0  0  0  0  0  0  0  0
    6.1637  -18.1050   24.5323 C   0  0  0  0  0  0  0  0  0  0  0  0
    7.4832  -17.5167   24.9588 C   0  0  0  0  0  0  0  0  0  0  0  0
    7.5158  -16.0610   24.5486 C   0  0  2  0  0  0  0  0  0  0  0  0
    7.8832  -15.9681   23.1595 N   0  0  0  0  0  0  0  0  0  0  0  0
    8.4072  -15.2444   25.3683 C   0  0  0  0  0  0  0  0  0  0  0  0
    9.6604  -15.3391   25.1101 O   0  0  0  0  0  0  0  0  0  0  0  0
    7.9970  -14.3599   26.4225 N   0  0  0  0  0  0  0  0  0  0  0  0
    6.6591  -14.1549   26.8665 C   0  0  0  0  0  0  0  0  0  0  0  0
    6.6804  -12.6914   27.3071 C   0  0  0  0  0  0  0  0  0  0  0  0
    8.0829  -12.4253   27.7363 C   0  0  0  0  0  0  0  0  0  0  0  0
    8.8848  -13.5699   27.2062 C   0  0  1  0  0  0  0  0  0  0  0  0
    9.4915  -14.3787   28.3268 C   0  0  0  0  0  0  0  0  0  0  0  0
   10.3920  -13.8489   29.0249 O   0  0  0  0  0  0  0  0  0  0  0  0
    9.0722  -15.6612   28.5796 O   0  0  0  0  0  0  0  0  0  0  0  0
  1  2  1  0
  3  2  1  0
  3  5  1  0
  3  4  1  1
  5  7  1  0
  5  6  1  6
  7  8  2  0
  9 10  1  0
 10 12  1  0
 11 10  2  0
 12 13  1  0
 14 13  1  1
 14 16  1  0
 15 14  1  0
 15  7  1  0
 16 18  1  0
 17 16  2  0
 18 19  1  0
 18 22  1  0
 20 21  1  0
 20 19  1  0
 21 22  1  0
 22 23  1  1
 23 25  1  0
 24 23  2  0
M  END
$$$$
