IQP.pdb
     RDKit          3D

 25 25  0  0  1  0  0  0  0  0999 V2000
    8.2555  -12.6594   18.1516 C   0  0  0  0  0  0  0  0  0  0  0  0
    8.3727  -14.1250   18.6261 C   0  0  0  0  0  0  0  0  0  0  0  0
    7.8828  -14.1366   20.0307 C   0  0  2  0  0  0  0  0  0  0  0  0
    8.5680  -13.1092   20.9055 C   0  0  0  0  0  0  0  0  0  0  0  0
    7.8616  -15.5038   20.6133 C   0  0  2  0  0  0  0  0  0  0  0  0
    7.0943  -16.3451   19.6644 N   0  0  0  0  0  0  0  0  0  0  0  0
    7.1641  -15.5828   21.9539 C   0  0  0  0  0  0  0  0  0  0  0  0
    5.9520  -15.2737   21.9691 O   0  0  0  0  0  0  0  0  0  0  0  0
    7.1838  -19.9431   25.8891 N   0  0  0  0  0  0  0  0  0  0  0  0
    6.4721  -19.6252   24.7098 C   0  0  0  0  0  0  0  0  0  0  0  0
    5.7807  -20.4647   24.0859 O   0  0  0  0  0  0  0  0  0  0  0  0
    6.5383  -18.2261   24.1702 C   0  0  0  0  0  0  0  0  0  0  0  0
    7.4073  -17.3561   25.0403 C   0  0  0  0  0  0  0  0  0  0  0  0
    7.3982  -15.9518   24.4780 C   0  0  2  0  0  0  0  0  0  0  0  0
    7.8419  -15.9868   23.1085 N   0  0  0  0  0  0  0  0  0  0  0  0
    8.2023  -15.0092   25.2513 C   0  0  0  0  0  0  0  0  0  0  0  0
    9.4568  -14.9811   24.9835 O   0  0  0  0  0  0  0  0  0  0  0  0
    7.7067  -14.1275   26.2705 N   0  0  0  0  0  0  0  0  0  0  0  0
    6.3445  -13.9886   26.6635 C   0  0  0  0  0  0  0  0  0  0  0  0
    6.2692  -12.5175   27.0714 C   0  0  0  0  0  0  0  0  0  0  0  0
    7.6387  -12.1644   27.5425 C   0  0  0  0  0  0  0  0  0  0  0  0
    8.5210  -13.2730   27.0662 C   0  0  1  0  0  0  0  0  0  0  0  0
    9.1312  -14.0232   28.2250 C   0  0  0  0  0  0  0  0  0  0  0  0
    9.9677  -13.4260   28.9480 O   0  0  0  0  0  0  0  0  0  0  0  0
    8.7832  -15.3254   28.4853 O   0  0  0  0  0  0  0  0  0  0  0  0
  1  2  1  0
  3  2  1  0
  3  5  1  0
  3  4  1  1
  5  7  1  0
  5  6  1  6
  7  8  2  0
  9 10  1  0
 10 12  1  0
 11 10  2  0
 12 13  1  0
 14 13  1  1
 14 16  1  0
 15 14  1  0
 15  7  1  0
 16 18  1  0
 17 16  2  0
 18 19  1  0
 18 22  1  0
 20 21  1  0
 20 19  1  0
 21 22  1  0
 22 23  1  1
 23 25  1  0
 24 23  2  0
M  END
$$$$
