IQP.pdb
     RDKit          3D

 25 25  0  0  1  0  0  0  0  0999 V2000
    5.1495  -11.7788   27.1996 C   0  0  0  0  0  0  0  0  0  0  0  0
    6.3172  -12.6047   27.7838 C   0  0  0  0  0  0  0  0  0  0  0  0
    7.3324  -12.6942   26.7001 C   0  0  2  0  0  0  0  0  0  0  0  0
    7.4547  -11.4177   25.8962 C   0  0  0  0  0  0  0  0  0  0  0  0
    7.1688  -13.9150   25.8683 C   0  0  2  0  0  0  0  0  0  0  0  0
    7.0817  -15.0515   26.8158 N   0  0  0  0  0  0  0  0  0  0  0  0
    8.3381  -14.1835   24.9461 C   0  0  0  0  0  0  0  0  0  0  0  0
    9.3652  -13.4949   25.1355 O   0  0  0  0  0  0  0  0  0  0  0  0
   11.5921  -18.7425   22.9826 N   0  0  0  0  0  0  0  0  0  0  0  0
   11.7404  -17.8894   21.8653 C   0  0  0  0  0  0  0  0  0  0  0  0
   12.5647  -18.1095   20.9466 O   0  0  0  0  0  0  0  0  0  0  0  0
   10.8803  -16.6636   21.7618 C   0  0  0  0  0  0  0  0  0  0  0  0
    9.9509  -16.5590   22.9426 C   0  0  0  0  0  0  0  0  0  0  0  0
    9.1044  -15.3159   22.7799 C   0  0  2  0  0  0  0  0  0  0  0  0
    8.2702  -15.1551   23.9425 N   0  0  0  0  0  0  0  0  0  0  0  0
    8.2929  -15.3183   21.5655 C   0  0  0  0  0  0  0  0  0  0  0  0
    7.3012  -16.1323   21.5478 O   0  0  0  0  0  0  0  0  0  0  0  0
    8.5153  -14.4955   20.4100 N   0  0  0  0  0  0  0  0  0  0  0  0
    9.5353  -13.5108   20.2706 C   0  0  0  0  0  0  0  0  0  0  0  0
    8.8692  -12.4744   19.3658 C   0  0  0  0  0  0  0  0  0  0  0  0
    7.8937  -13.2382   18.5368 C   0  0  0  0  0  0  0  0  0  0  0  0
    7.7547  -14.5660   19.2088 C   0  0  1  0  0  0  0  0  0  0  0  0
    8.2412  -15.6835   18.3187 C   0  0  0  0  0  0  0  0  0  0  0  0
    9.3628  -16.1950   18.5626 O   0  0  0  0  0  0  0  0  0  0  0  0
    7.4799  -16.1323   17.2681 O   0  0  0  0  0  0  0  0  0  0  0  0
  1  2  1  0
  3  2  1  0
  3  5  1  0
  3  4  1  6
  5  7  1  0
  5  6  1  1
  7  8  2  0
  9 10  1  0
 10 12  1  0
 11 10  2  0
 12 13  1  0
 14 13  1  1
 14 16  1  0
 15 14  1  0
 15  7  1  0
 16 18  1  0
 17 16  2  0
 18 19  1  0
 18 22  1  0
 20 21  1  0
 20 19  1  0
 21 22  1  0
 22 23  1  6
 23 25  1  0
 24 23  2  0
M  END
$$$$
