IQP.pdb
     RDKit          3D

 25 25  0  0  1  0  0  0  0  0999 V2000
    8.0799  -12.4382   18.4574 C   0  0  0  0  0  0  0  0  0  0  0  0
    8.1861  -13.9421   18.7951 C   0  0  0  0  0  0  0  0  0  0  0  0
    7.7317  -14.0739   20.2054 C   0  0  2  0  0  0  0  0  0  0  0  0
    8.4768  -13.1614   21.1555 C   0  0  0  0  0  0  0  0  0  0  0  0
    7.6741  -15.4899   20.6533 C   0  0  2  0  0  0  0  0  0  0  0  0
    6.7736  -16.1867   19.7044 N   0  0  0  0  0  0  0  0  0  0  0  0
    7.0940  -15.6659   22.0398 C   0  0  0  0  0  0  0  0  0  0  0  0
    5.8532  -15.5441   22.1429 O   0  0  0  0  0  0  0  0  0  0  0  0
    7.3987  -20.1981   25.7036 N   0  0  0  0  0  0  0  0  0  0  0  0
    6.9698  -19.2297   26.6397 C   0  0  0  0  0  0  0  0  0  0  0  0
    6.5853  -19.5254   27.7959 O   0  0  0  0  0  0  0  0  0  0  0  0
    6.9694  -17.7813   26.2458 C   0  0  0  0  0  0  0  0  0  0  0  0
    7.4242  -17.6131   24.8196 C   0  0  0  0  0  0  0  0  0  0  0  0
    7.5311  -16.1342   24.5201 C   0  0  2  0  0  0  0  0  0  0  0  0
    7.9056  -15.9558   23.1412 N   0  0  0  0  0  0  0  0  0  0  0  0
    8.4610  -15.4276   25.3972 C   0  0  0  0  0  0  0  0  0  0  0  0
    9.7055  -15.6969   25.2389 O   0  0  0  0  0  0  0  0  0  0  0  0
    8.0968  -14.4725   26.4056 N   0  0  0  0  0  0  0  0  0  0  0  0
    6.7685  -14.1100   26.7707 C   0  0  0  0  0  0  0  0  0  0  0  0
    6.9281  -12.6449   27.1762 C   0  0  0  0  0  0  0  0  0  0  0  0
    8.3273  -12.5200   27.6748 C   0  0  0  0  0  0  0  0  0  0  0  0
    9.0246  -13.7604   27.2172 C   0  0  1  0  0  0  0  0  0  0  0  0
    9.4798  -14.5962   28.3886 C   0  0  0  0  0  0  0  0  0  0  0  0
    8.8850  -15.6796   28.6153 O   0  0  0  0  0  0  0  0  0  0  0  0
   10.5175  -14.1858   29.1883 O   0  0  0  0  0  0  0  0  0  0  0  0
  1  2  1  0
  3  2  1  0
  3  5  1  0
  3  4  1  1
  5  7  1  0
  5  6  1  6
  7  8  2  0
  9 10  1  0
 10 12  1  0
 11 10  2  0
 12 13  1  0
 14 13  1  1
 14 16  1  0
 15 14  1  0
 15  7  1  0
 16 18  1  0
 17 16  2  0
 18 19  1  0
 18 22  1  0
 20 21  1  0
 20 19  1  0
 21 22  1  0
 22 23  1  1
 23 25  1  0
 24 23  2  0
M  END
$$$$
