IQP.pdb
     RDKit          3D

 25 25  0  0  1  0  0  0  0  0999 V2000
    5.7917  -10.4662   26.2482 C   0  0  0  0  0  0  0  0  0  0  0  0
    5.2989  -11.8033   25.6513 C   0  0  0  0  0  0  0  0  0  0  0  0
    6.4522  -12.7383   25.7447 C   0  0  2  0  0  0  0  0  0  0  0  0
    7.7136  -12.1877   25.1152 C   0  0  0  0  0  0  0  0  0  0  0  0
    6.1068  -14.1124   25.2956 C   0  0  2  0  0  0  0  0  0  0  0  0
    4.8440  -14.4671   25.9859 N   0  0  0  0  0  0  0  0  0  0  0  0
    7.1376  -15.1532   25.6752 C   0  0  0  0  0  0  0  0  0  0  0  0
    7.3392  -15.3156   26.8992 O   0  0  0  0  0  0  0  0  0  0  0  0
    9.5277  -19.3248   21.4975 N   0  0  0  0  0  0  0  0  0  0  0  0
   10.4921  -19.3543   22.5304 C   0  0  0  0  0  0  0  0  0  0  0  0
   11.5491  -20.0245   22.4547 O   0  0  0  0  0  0  0  0  0  0  0  0
   10.2534  -18.5534   23.7773 C   0  0  0  0  0  0  0  0  0  0  0  0
    9.1064  -17.5954   23.5881 C   0  0  0  0  0  0  0  0  0  0  0  0
    8.9041  -16.8270   24.8754 C   0  0  2  0  0  0  0  0  0  0  0  0
    7.8196  -15.8951   24.7056 N   0  0  0  0  0  0  0  0  0  0  0  0
   10.1050  -16.1347   25.3357 C   0  0  0  0  0  0  0  0  0  0  0  0
   10.6707  -15.3558   24.4874 O   0  0  0  0  0  0  0  0  0  0  0  0
   10.6915  -16.2564   26.6406 N   0  0  0  0  0  0  0  0  0  0  0  0
   10.1773  -17.0345   27.7173 C   0  0  0  0  0  0  0  0  0  0  0  0
   10.6066  -16.2254   28.9410 C   0  0  0  0  0  0  0  0  0  0  0  0
   11.8535  -15.5177   28.5328 C   0  0  0  0  0  0  0  0  0  0  0  0
   11.9048  -15.6300   27.0432 C   0  0  1  0  0  0  0  0  0  0  0  0
   13.1059  -16.4266   26.5954 C   0  0  0  0  0  0  0  0  0  0  0  0
   12.9318  -17.6191   26.2395 O   0  0  0  0  0  0  0  0  0  0  0  0
   14.3586  -15.8653   26.5762 O   0  0  0  0  0  0  0  0  0  0  0  0
  1  2  1  0
  3  2  1  0
  3  5  1  0
  3  4  1  6
  5  7  1  0
  5  6  1  1
  7  8  2  0
  9 10  1  0
 10 12  1  0
 11 10  2  0
 12 13  1  0
 14 13  1  6
 14 16  1  0
 15 14  1  0
 15  7  1  0
 16 18  1  0
 17 16  2  0
 18 19  1  0
 18 22  1  0
 20 21  1  0
 20 19  1  0
 21 22  1  0
 22 23  1  1
 23 25  1  0
 24 23  2  0
M  END
$$$$
