CCW.pdb
     RDKit          3D

 27 28  0  0  1  0  0  0  0  0999 V2000
   27.4319  -22.6518  -17.5085 N   0  0  0  0  0  0  0  0  0  0  0  0
   28.7428  -22.1074  -17.1152 C   0  0  1  0  0  0  0  0  0  0  0  0
   29.3328  -21.4304  -18.3214 C   0  0  0  0  0  0  0  0  0  0  0  0
   29.9280  -22.7234  -19.4501 S   0  0  0  0  0  0  0  0  0  0  0  0
   28.5937  -21.2529  -15.9513 C   0  0  0  0  0  0  0  0  0  0  0  0
   29.6377  -20.6961  -15.4772 O   0  0  0  0  0  0  0  0  0  0  0  0
   27.3420  -20.9802  -15.2794 N   0  0  0  0  0  0  0  0  0  0  0  0
   27.3842  -20.1734  -14.0791 C   0  0  1  0  0  0  0  0  0  0  0  0
   26.7704  -18.8255  -14.4656 C   0  0  0  0  0  0  0  0  0  0  0  0
   26.5885  -17.8471  -12.9498 S   0  0  0  0  0  0  0  0  0  0  0  0
   26.7003  -20.7758  -12.9346 C   0  0  0  0  0  0  0  0  0  0  0  0
   25.5007  -21.1919  -13.0414 O   0  0  0  0  0  0  0  0  0  0  0  0
   27.2813  -20.9487  -11.6558 N   0  0  0  0  0  0  0  0  0  0  0  0
   26.5443  -21.4929  -10.4931 C   0  0  1  0  0  0  0  0  0  0  0  0
   27.6314  -21.5596   -9.4241 C   0  0  0  0  0  0  0  0  0  0  0  0
   27.5536  -20.5263   -8.4006 C   0  0  0  0  0  0  0  0  0  0  0  0
   26.7536  -19.4537   -8.1915 C   0  0  0  0  0  0  0  0  0  0  0  0
   27.1207  -18.8372   -7.0562 N   0  0  0  0  0  0  0  0  0  0  0  0
   28.1435  -19.4791   -6.5122 C   0  0  0  0  0  0  0  0  0  0  0  0
   28.8689  -19.2514   -5.3490 C   0  0  0  0  0  0  0  0  0  0  0  0
   29.9132  -20.0736   -4.9594 C   0  0  0  0  0  0  0  0  0  0  0  0
   30.2125  -21.1431   -5.7790 C   0  0  0  0  0  0  0  0  0  0  0  0
   29.4886  -21.3663   -6.9369 C   0  0  0  0  0  0  0  0  0  0  0  0
   28.4475  -20.5350   -7.3136 C   0  0  0  0  0  0  0  0  0  0  0  0
   25.4223  -20.6334  -10.1617 C   0  0  0  0  0  0  0  0  0  0  0  0
   24.4832  -21.1218   -9.4402 O   0  0  0  0  0  0  0  0  0  0  0  0
   25.2807  -19.3488  -10.5519 O   0  0  0  0  0  0  0  0  0  0  0  0
  2  1  1  6
  2  5  1  0
  2  3  1  0
  3  4  1  0
  5  6  2  0
  7  8  1  0
  7  5  1  0
  8  9  1  6
 10  9  1  0
 11 12  2  0
 11  8  1  0
 13 11  1  0
 14 25  1  0
 14 13  1  0
 14 15  1  1
 16 15  1  0
 17 16  2  0
 18 17  1  0
 19 18  1  0
 19 24  2  0
 20 19  1  0
 21 20  2  0
 21 22  1  0
 22 23  2  0
 23 24  1  0
 24 16  1  0
 25 27  1  0
 26 25  2  0
M  END
$$$$
