CCW.pdb
     RDKit          3D

 27 28  0  0  1  0  0  0  0  0999 V2000
   25.2205  -17.5183  -15.7144 N   0  0  0  0  0  0  0  0  0  0  0  0
   26.2963  -18.1383  -14.9222 C   0  0  1  0  0  0  0  0  0  0  0  0
   27.2437  -17.0455  -14.5107 C   0  0  0  0  0  0  0  0  0  0  0  0
   28.1117  -16.4712  -15.9996 S   0  0  0  0  0  0  0  0  0  0  0  0
   25.7264  -18.8943  -13.8219 C   0  0  0  0  0  0  0  0  0  0  0  0
   24.7056  -18.4142  -13.2283 O   0  0  0  0  0  0  0  0  0  0  0  0
   26.2297  -20.1621  -13.3400 N   0  0  0  0  0  0  0  0  0  0  0  0
   25.6225  -20.7191  -12.1508 C   0  0  1  0  0  0  0  0  0  0  0  0
   25.2501  -22.1590  -12.5130 C   0  0  0  0  0  0  0  0  0  0  0  0
   23.8862  -22.0927  -13.7061 S   0  0  0  0  0  0  0  0  0  0  0  0
   26.4764  -20.6588  -10.9644 C   0  0  0  0  0  0  0  0  0  0  0  0
   27.7394  -20.7927  -11.0668 O   0  0  0  0  0  0  0  0  0  0  0  0
   26.0021  -20.4524   -9.6470 N   0  0  0  0  0  0  0  0  0  0  0  0
   26.8625  -20.5521   -8.4466 C   0  0  1  0  0  0  0  0  0  0  0  0
   26.7182  -19.1636   -7.8298 C   0  0  0  0  0  0  0  0  0  0  0  0
   27.7718  -18.7919   -6.8953 C   0  0  0  0  0  0  0  0  0  0  0  0
   28.9054  -18.0562   -6.9844 C   0  0  0  0  0  0  0  0  0  0  0  0
   29.5116  -18.0229   -5.7864 N   0  0  0  0  0  0  0  0  0  0  0  0
   28.8033  -18.7189   -4.9101 C   0  0  0  0  0  0  0  0  0  0  0  0
   28.9952  -18.9771   -3.5582 C   0  0  0  0  0  0  0  0  0  0  0  0
   28.1028  -19.7365   -2.8195 C   0  0  0  0  0  0  0  0  0  0  0  0
   26.9999  -20.2350   -3.4829 C   0  0  0  0  0  0  0  0  0  0  0  0
   26.8126  -19.9765   -4.8293 C   0  0  0  0  0  0  0  0  0  0  0  0
   27.7138  -19.2161   -5.5547 C   0  0  0  0  0  0  0  0  0  0  0  0
   26.4156  -21.6408   -7.5966 C   0  0  0  0  0  0  0  0  0  0  0  0
   27.2775  -22.1976   -6.8296 O   0  0  0  0  0  0  0  0  0  0  0  0
   25.1559  -22.1231   -7.5428 O   0  0  0  0  0  0  0  0  0  0  0  0
  2  1  1  1
  2  5  1  0
  2  3  1  0
  3  4  1  0
  5  6  2  0
  7  8  1  0
  7  5  1  0
  8  9  1  6
 10  9  1  0
 11 12  2  0
 11  8  1  0
 13 11  1  0
 14 25  1  0
 14 13  1  0
 14 15  1  1
 16 15  1  0
 17 16  2  0
 18 17  1  0
 19 18  1  0
 19 24  2  0
 20 19  1  0
 21 20  2  0
 21 22  1  0
 22 23  2  0
 23 24  1  0
 24 16  1  0
 25 27  1  0
 26 25  2  0
M  END
$$$$
