CCW.pdb
     RDKit          3D

 27 28  0  0  1  0  0  0  0  0999 V2000
   28.1339  -21.1281  -16.0715 N   0  0  0  0  0  0  0  0  0  0  0  0
   28.0586  -20.3044  -14.8529 C   0  0  1  0  0  0  0  0  0  0  0  0
   27.7622  -18.8926  -15.2777 C   0  0  0  0  0  0  0  0  0  0  0  0
   26.1969  -18.9056  -16.1996 S   0  0  0  0  0  0  0  0  0  0  0  0
   27.0952  -20.8756  -13.9294 C   0  0  0  0  0  0  0  0  0  0  0  0
   26.2656  -21.7319  -14.3804 O   0  0  0  0  0  0  0  0  0  0  0  0
   27.0004  -20.5473  -12.5238 N   0  0  0  0  0  0  0  0  0  0  0  0
   25.8311  -21.0027  -11.8036 C   0  0  1  0  0  0  0  0  0  0  0  0
   26.0819  -20.6403  -10.3377 C   0  0  0  0  0  0  0  0  0  0  0  0
   24.5548  -20.9730   -9.4181 S   0  0  0  0  0  0  0  0  0  0  0  0
   24.5738  -20.4403  -12.2969 C   0  0  0  0  0  0  0  0  0  0  0  0
   24.4591  -19.1876  -12.4999 O   0  0  0  0  0  0  0  0  0  0  0  0
   23.4159  -21.2011  -12.5856 N   0  0  0  0  0  0  0  0  0  0  0  0
   22.1411  -20.6029  -13.0418 C   0  0  1  0  0  0  0  0  0  0  0  0
   22.3370  -20.5398  -14.5540 C   0  0  0  0  0  0  0  0  0  0  0  0
   21.1971  -20.0280  -15.3024 C   0  0  0  0  0  0  0  0  0  0  0  0
   20.4331  -18.9123  -15.2257 C   0  0  0  0  0  0  0  0  0  0  0  0
   19.5047  -18.9392  -16.1959 N   0  0  0  0  0  0  0  0  0  0  0  0
   19.6399  -20.0463  -16.9102 C   0  0  0  0  0  0  0  0  0  0  0  0
   18.9438  -20.5306  -18.0112 C   0  0  0  0  0  0  0  0  0  0  0  0
   19.2702  -21.7318  -18.6187 C   0  0  0  0  0  0  0  0  0  0  0  0
   20.3266  -22.4415  -18.0844 C   0  0  0  0  0  0  0  0  0  0  0  0
   21.0169  -21.9565  -16.9876 C   0  0  0  0  0  0  0  0  0  0  0  0
   20.6785  -20.7541  -16.3906 C   0  0  0  0  0  0  0  0  0  0  0  0
   21.0202  -21.4185  -12.6108 C   0  0  0  0  0  0  0  0  0  0  0  0
   21.2454  -22.6465  -12.3234 O   0  0  0  0  0  0  0  0  0  0  0  0
   19.7461  -20.9908  -12.4844 O   0  0  0  0  0  0  0  0  0  0  0  0
  2  1  1  6
  2  5  1  0
  2  3  1  0
  3  4  1  0
  5  6  2  0
  7  8  1  0
  7  5  1  0
  8  9  1  1
 10  9  1  0
 11 12  2  0
 11  8  1  0
 13 11  1  0
 14 25  1  0
 14 13  1  0
 14 15  1  6
 16 15  1  0
 17 16  2  0
 18 17  1  0
 19 18  1  0
 19 24  2  0
 20 19  1  0
 21 20  2  0
 21 22  1  0
 22 23  2  0
 23 24  1  0
 24 16  1  0
 25 27  1  0
 26 25  2  0
M  END
$$$$
