CCW.pdb
     RDKit          3D

 27 28  0  0  1  0  0  0  0  0999 V2000
   27.7240  -17.1541  -17.7080 N   0  0  0  0  0  0  0  0  0  0  0  0
   27.8853  -17.5786  -16.3069 C   0  0  1  0  0  0  0  0  0  0  0  0
   27.4441  -16.4367  -15.4336 C   0  0  0  0  0  0  0  0  0  0  0  0
   28.6813  -15.1143  -15.5791 S   0  0  0  0  0  0  0  0  0  0  0  0
   27.1742  -18.8242  -16.0832 C   0  0  0  0  0  0  0  0  0  0  0  0
   25.9808  -18.9213  -16.5204 O   0  0  0  0  0  0  0  0  0  0  0  0
   27.7172  -19.9757  -15.3965 N   0  0  0  0  0  0  0  0  0  0  0  0
   26.8249  -21.0831  -15.1300 C   0  0  1  0  0  0  0  0  0  0  0  0
   27.5570  -22.3322  -15.6268 C   0  0  0  0  0  0  0  0  0  0  0  0
   26.5240  -23.7699  -15.2343 S   0  0  0  0  0  0  0  0  0  0  0  0
   26.4316  -21.2039  -13.7261 C   0  0  0  0  0  0  0  0  0  0  0  0
   27.2715  -21.5874  -12.8479 O   0  0  0  0  0  0  0  0  0  0  0  0
   25.1376  -20.9163  -13.2302 N   0  0  0  0  0  0  0  0  0  0  0  0
   24.7150  -21.2044  -11.8410 C   0  0  1  0  0  0  0  0  0  0  0  0
   25.5348  -20.1976  -11.0389 C   0  0  0  0  0  0  0  0  0  0  0  0
   26.8167  -20.6921  -10.5557 C   0  0  0  0  0  0  0  0  0  0  0  0
   27.8759  -21.3091  -11.1317 C   0  0  0  0  0  0  0  0  0  0  0  0
   28.8216  -21.5318  -10.2044 N   0  0  0  0  0  0  0  0  0  0  0  0
   28.4103  -21.0753   -9.0312 C   0  0  0  0  0  0  0  0  0  0  0  0
   29.0144  -21.0559   -7.7798 C   0  0  0  0  0  0  0  0  0  0  0  0
   28.3931  -20.5063   -6.6705 C   0  0  0  0  0  0  0  0  0  0  0  0
   27.1345  -19.9705   -6.8542 C   0  0  0  0  0  0  0  0  0  0  0  0
   26.5358  -19.9922   -8.1015 C   0  0  0  0  0  0  0  0  0  0  0  0
   27.1692  -20.5458   -9.2011 C   0  0  0  0  0  0  0  0  0  0  0  0
   23.2771  -21.0535  -11.7113 C   0  0  0  0  0  0  0  0  0  0  0  0
   22.7565  -21.2253  -10.5534 O   0  0  0  0  0  0  0  0  0  0  0  0
   22.4305  -20.7438  -12.7161 O   0  0  0  0  0  0  0  0  0  0  0  0
  2  1  1  6
  2  5  1  0
  2  3  1  0
  3  4  1  0
  5  6  2  0
  7  8  1  0
  7  5  1  0
  8  9  1  1
 10  9  1  0
 11 12  2  0
 11  8  1  0
 13 11  1  0
 14 25  1  0
 14 13  1  0
 14 15  1  1
 16 15  1  0
 17 16  2  0
 18 17  1  0
 19 18  1  0
 19 24  2  0
 20 19  1  0
 21 20  2  0
 21 22  1  0
 22 23  2  0
 23 24  1  0
 24 16  1  0
 25 27  1  0
 26 25  2  0
M  END
$$$$
