CCW.pdb
     RDKit          3D

 27 28  0  0  1  0  0  0  0  0999 V2000
   30.4232  -24.8366  -17.2875 N   0  0  0  0  0  0  0  0  0  0  0  0
   30.6376  -23.5320  -17.9368 C   0  0  1  0  0  0  0  0  0  0  0  0
   31.0207  -23.7950  -19.3670 C   0  0  0  0  0  0  0  0  0  0  0  0
   32.6027  -24.6880  -19.3643 S   0  0  0  0  0  0  0  0  0  0  0  0
   29.4627  -22.6966  -17.7665 C   0  0  0  0  0  0  0  0  0  0  0  0
   29.4194  -21.5865  -18.3914 O   0  0  0  0  0  0  0  0  0  0  0  0
   28.3256  -23.0267  -16.9356 N   0  0  0  0  0  0  0  0  0  0  0  0
   27.2244  -22.0889  -16.8983 C   0  0  1  0  0  0  0  0  0  0  0  0
   26.6555  -22.0635  -18.3192 C   0  0  0  0  0  0  0  0  0  0  0  0
   25.1403  -21.0677  -18.2890 S   0  0  0  0  0  0  0  0  0  0  0  0
   26.1998  -22.4156  -15.9065 C   0  0  0  0  0  0  0  0  0  0  0  0
   25.7099  -23.5902  -15.8429 O   0  0  0  0  0  0  0  0  0  0  0  0
   25.6792  -21.4989  -14.9623 N   0  0  0  0  0  0  0  0  0  0  0  0
   24.6537  -21.8589  -13.9573 C   0  0  1  0  0  0  0  0  0  0  0  0
   24.5977  -20.6047  -13.0896 C   0  0  0  0  0  0  0  0  0  0  0  0
   23.9671  -19.4503  -13.7150 C   0  0  0  0  0  0  0  0  0  0  0  0
   22.6916  -19.0095  -13.8291 C   0  0  0  0  0  0  0  0  0  0  0  0
   22.6783  -17.8518  -14.5097 N   0  0  0  0  0  0  0  0  0  0  0  0
   23.9154  -17.5194  -14.8461 C   0  0  0  0  0  0  0  0  0  0  0  0
   24.4274  -16.4272  -15.5362 C   0  0  0  0  0  0  0  0  0  0  0  0
   25.7840  -16.2735  -15.7693 C   0  0  0  0  0  0  0  0  0  0  0  0
   26.6221  -17.2573  -15.2849 C   0  0  0  0  0  0  0  0  0  0  0  0
   26.1086  -18.3438  -14.5989 C   0  0  0  0  0  0  0  0  0  0  0  0
   24.7497  -18.4841  -14.3741 C   0  0  0  0  0  0  0  0  0  0  0  0
   23.4036  -22.1968  -14.6132 C   0  0  0  0  0  0  0  0  0  0  0  0
   22.4678  -22.7030  -13.8997 O   0  0  0  0  0  0  0  0  0  0  0  0
   23.1377  -22.0216  -15.9251 O   0  0  0  0  0  0  0  0  0  0  0  0
  2  1  1  6
  2  5  1  0
  2  3  1  0
  3  4  1  0
  5  6  2  0
  7  8  1  0
  7  5  1  0
  8  9  1  6
 10  9  1  0
 11 12  2  0
 11  8  1  0
 13 11  1  0
 14 25  1  0
 14 13  1  0
 14 15  1  1
 16 15  1  0
 17 16  2  0
 18 17  1  0
 19 18  1  0
 19 24  2  0
 20 19  1  0
 21 20  2  0
 21 22  1  0
 22 23  2  0
 23 24  1  0
 24 16  1  0
 25 27  1  0
 26 25  2  0
M  END
$$$$
