WYR.pdb
     RDKit          3D

 38 40  0  0  1  0  0  0  0  0999 V2000
    8.5332  -16.9772   22.0154 N   0  0  0  0  0  0  0  0  0  0  0  0
    9.4938  -16.1052   22.6316 C   0  0  1  0  0  0  0  0  0  0  0  0
    8.8567  -14.8440   23.1082 C   0  0  0  0  0  0  0  0  0  0  0  0
    7.9674  -14.1778   22.1594 C   0  0  0  0  0  0  0  0  0  0  0  0
    6.6000  -13.9448   22.3009 C   0  0  0  0  0  0  0  0  0  0  0  0
    6.2019  -13.3132   21.1950 N   0  0  0  0  0  0  0  0  0  0  0  0
    7.2519  -13.1358   20.3604 C   0  0  0  0  0  0  0  0  0  0  0  0
    7.3899  -12.5471   19.1038 C   0  0  0  0  0  0  0  0  0  0  0  0
    8.6058  -12.4934   18.4503 C   0  0  0  0  0  0  0  0  0  0  0  0
    9.7344  -13.0297   19.0327 C   0  0  0  0  0  0  0  0  0  0  0  0
    9.5919  -13.6104   20.2749 C   0  0  0  0  0  0  0  0  0  0  0  0
    8.3825  -13.6734   20.9451 C   0  0  0  0  0  0  0  0  0  0  0  0
   10.3780  -16.7578   23.6058 C   0  0  0  0  0  0  0  0  0  0  0  0
   11.0962  -16.0264   24.3321 O   0  0  0  0  0  0  0  0  0  0  0  0
    7.1215  -19.2474   29.1758 O   0  0  0  0  0  0  0  0  0  0  0  0
    8.1048  -19.4483   28.1966 C   0  0  0  0  0  0  0  0  0  0  0  0
    7.7516  -19.7012   26.8926 C   0  0  0  0  0  0  0  0  0  0  0  0
    8.6897  -19.9033   25.9062 C   0  0  0  0  0  0  0  0  0  0  0  0
   10.0508  -19.8550   26.2142 C   0  0  0  0  0  0  0  0  0  0  0  0
   11.0887  -20.0658   25.1779 C   0  0  0  0  0  0  0  0  0  0  0  0
   11.5304  -18.7530   24.6225 C   0  0  2  0  0  0  0  0  0  0  0  0
   10.4781  -18.1619   23.7829 N   0  0  0  0  0  0  0  0  0  0  0  0
   12.7475  -18.8249   23.7711 C   0  0  0  0  0  0  0  0  0  0  0  0
   12.8894  -19.6398   22.8329 O   0  0  0  0  0  0  0  0  0  0  0  0
   10.3980  -19.6042   27.5066 C   0  0  0  0  0  0  0  0  0  0  0  0
    9.4450  -19.4022   28.4910 C   0  0  0  0  0  0  0  0  0  0  0  0
   16.8055  -13.7477   18.6591 N   0  0  0  0  0  0  0  0  0  0  0  0
   15.5140  -14.2607   18.9286 C   0  0  0  0  0  0  0  0  0  0  0  0
   14.5566  -14.2048   18.0527 N   0  0  0  0  0  0  0  0  0  0  0  0
   15.2597  -14.8531   20.1974 N   0  0  0  0  0  0  0  0  0  0  0  0
   16.4225  -15.0066   21.0886 C   0  0  0  0  0  0  0  0  0  0  0  0
   16.3899  -16.3747   21.6708 C   0  0  0  0  0  0  0  0  0  0  0  0
   15.1658  -16.6391   22.4478 C   0  0  0  0  0  0  0  0  0  0  0  0
   15.0431  -17.9413   23.1583 C   0  0  2  0  0  0  0  0  0  0  0  0
   13.8430  -17.9164   24.0083 N   0  0  0  0  0  0  0  0  0  0  0  0
   16.2018  -18.4156   23.9008 C   0  0  0  0  0  0  0  0  0  0  0  0
   16.1899  -18.5728   25.1445 O   0  0  0  0  0  0  0  0  0  0  0  0
   17.3879  -18.7183   23.2473 O   0  0  0  0  0  0  0  0  0  0  0  0
  2  1  1  1
  2  3  1  0
  3  4  1  0
  4  5  2  0
  4 12  1  0
  5  6  1  0
  6  7  1  0
  7  8  2  0
  9  8  1  0
 10  9  2  0
 11 12  2  0
 11 10  1  0
 12  7  1  0
 13 22  1  0
 13  2  1  0
 14 13  2  0
 16 15  1  0
 17 16  2  0
 18 17  1  0
 19 18  2  0
 19 25  1  0
 21 20  1  6
 20 19  1  0
 21 23  1  0
 21 22  1  0
 23 35  1  0
 24 23  2  0
 25 26  2  0
 26 16  1  0
 27 28  1  0
 28 29  2  0
 30 28  1  0
 31 30  1  0
 32 31  1  0
 34 33  1  1
 33 32  1  0
 34 35  1  0
 36 34  1  0
 37 36  2  0
 38 36  1  0
M  END
$$$$
