WYR.pdb
     RDKit          3D

 38 40  0  0  1  0  0  0  0  0999 V2000
   10.1011  -14.7207   20.1478 N   0  0  0  0  0  0  0  0  0  0  0  0
    9.9737  -15.8214   21.0616 C   0  0  1  0  0  0  0  0  0  0  0  0
   10.5821  -17.0638   20.5050 C   0  0  0  0  0  0  0  0  0  0  0  0
    9.9320  -17.6199   19.3206 C   0  0  0  0  0  0  0  0  0  0  0  0
   10.4244  -17.6420   18.0162 C   0  0  0  0  0  0  0  0  0  0  0  0
    9.4980  -18.2421   17.2664 N   0  0  0  0  0  0  0  0  0  0  0  0
    8.4429  -18.6004   18.0339 C   0  0  0  0  0  0  0  0  0  0  0  0
    7.2348  -19.2427   17.7644 C   0  0  0  0  0  0  0  0  0  0  0  0
    6.3050  -19.4976   18.7538 C   0  0  0  0  0  0  0  0  0  0  0  0
    6.5506  -19.1172   20.0559 C   0  0  0  0  0  0  0  0  0  0  0  0
    7.7464  -18.4826   20.3162 C   0  0  0  0  0  0  0  0  0  0  0  0
    8.6901  -18.2188   19.3387 C   0  0  0  0  0  0  0  0  0  0  0  0
   10.3517  -15.5148   22.4472 C   0  0  0  0  0  0  0  0  0  0  0  0
   11.5180  -15.1004   22.6618 O   0  0  0  0  0  0  0  0  0  0  0  0
   10.5189  -14.6535   31.2210 O   0  0  0  0  0  0  0  0  0  0  0  0
   10.0922  -14.7466   29.8886 C   0  0  0  0  0  0  0  0  0  0  0  0
   10.1727  -13.6598   29.0511 C   0  0  0  0  0  0  0  0  0  0  0  0
    9.7631  -13.7154   27.7385 C   0  0  0  0  0  0  0  0  0  0  0  0
    9.2453  -14.9025   27.2164 C   0  0  0  0  0  0  0  0  0  0  0  0
    8.7964  -14.9997   25.8076 C   0  0  0  0  0  0  0  0  0  0  0  0
    9.9476  -15.3576   24.9280 C   0  0  2  0  0  0  0  0  0  0  0  0
    9.4879  -15.6561   23.5638 N   0  0  0  0  0  0  0  0  0  0  0  0
   10.7152  -16.5497   25.3762 C   0  0  0  0  0  0  0  0  0  0  0  0
   11.3551  -16.5981   26.4497 O   0  0  0  0  0  0  0  0  0  0  0  0
    9.1668  -15.9776   28.0481 C   0  0  0  0  0  0  0  0  0  0  0  0
    9.5822  -15.9099   29.3676 C   0  0  0  0  0  0  0  0  0  0  0  0
   10.0984  -21.9609   19.3798 N   0  0  0  0  0  0  0  0  0  0  0  0
   11.0001  -20.9038   19.1092 C   0  0  0  0  0  0  0  0  0  0  0  0
   11.3961  -20.6312   17.9026 N   0  0  0  0  0  0  0  0  0  0  0  0
   11.4862  -20.1194   20.1926 N   0  0  0  0  0  0  0  0  0  0  0  0
   10.9986  -20.4879   21.5329 C   0  0  0  0  0  0  0  0  0  0  0  0
   11.5273  -19.5014   22.5121 C   0  0  0  0  0  0  0  0  0  0  0  0
   11.4127  -19.9600   23.9080 C   0  0  0  0  0  0  0  0  0  0  0  0
   11.4557  -18.9440   24.9950 C   0  0  2  0  0  0  0  0  0  0  0  0
   10.7412  -17.7360   24.5552 N   0  0  0  0  0  0  0  0  0  0  0  0
   12.7576  -18.6091   25.5532 C   0  0  0  0  0  0  0  0  0  0  0  0
   13.2001  -17.4364   25.5809 O   0  0  0  0  0  0  0  0  0  0  0  0
   13.5755  -19.5949   26.0872 O   0  0  0  0  0  0  0  0  0  0  0  0
  2  1  1  6
  2  3  1  0
  3  4  1  0
  4  5  2  0
  4 12  1  0
  5  6  1  0
  6  7  1  0
  7  8  2  0
  9  8  1  0
 10  9  2  0
 11 12  2  0
 11 10  1  0
 12  7  1  0
 13 22  1  0
 13  2  1  0
 14 13  2  0
 16 15  1  0
 17 16  2  0
 18 17  1  0
 19 18  2  0
 19 25  1  0
 21 20  1  1
 20 19  1  0
 21 23  1  0
 21 22  1  0
 23 35  1  0
 24 23  2  0
 25 26  2  0
 26 16  1  0
 27 28  1  0
 28 29  2  0
 30 28  1  0
 31 30  1  0
 32 31  1  0
 34 33  1  6
 33 32  1  0
 34 35  1  0
 36 34  1  0
 37 36  2  0
 38 36  1  0
M  END
$$$$
