WYR.pdb
     RDKit          3D

 38 40  0  0  1  0  0  0  0  0999 V2000
    6.1522  -18.0034   23.6163 N   0  0  0  0  0  0  0  0  0  0  0  0
    6.8621  -16.7838   23.8834 C   0  0  1  0  0  0  0  0  0  0  0  0
    7.0434  -16.5694   25.3479 C   0  0  0  0  0  0  0  0  0  0  0  0
    6.5246  -15.3113   25.8798 C   0  0  0  0  0  0  0  0  0  0  0  0
    5.2000  -15.0050   26.1892 C   0  0  0  0  0  0  0  0  0  0  0  0
    5.1917  -13.7493   26.6403 N   0  0  0  0  0  0  0  0  0  0  0  0
    6.4477  -13.2462   26.6307 C   0  0  0  0  0  0  0  0  0  0  0  0
    6.9902  -12.0134   26.9919 C   0  0  0  0  0  0  0  0  0  0  0  0
    8.3417  -11.7488   26.8843 C   0  0  0  0  0  0  0  0  0  0  0  0
    9.2049  -12.7126   26.4086 C   0  0  0  0  0  0  0  0  0  0  0  0
    8.6630  -13.9293   26.0528 C   0  0  0  0  0  0  0  0  0  0  0  0
    7.3120  -14.2130   26.1538 C   0  0  0  0  0  0  0  0  0  0  0  0
    8.0730  -16.5897   23.0755 C   0  0  0  0  0  0  0  0  0  0  0  0
    8.7809  -17.5965   22.8236 O   0  0  0  0  0  0  0  0  0  0  0  0
    6.4754  -13.8677   16.5163 O   0  0  0  0  0  0  0  0  0  0  0  0
    7.3053  -13.8787   17.6465 C   0  0  0  0  0  0  0  0  0  0  0  0
    7.1090  -12.9788   18.6667 C   0  0  0  0  0  0  0  0  0  0  0  0
    7.9040  -12.9609   19.7899 C   0  0  0  0  0  0  0  0  0  0  0  0
    8.9506  -13.8760   19.9213 C   0  0  0  0  0  0  0  0  0  0  0  0
    9.8256  -13.8873   21.1171 C   0  0  0  0  0  0  0  0  0  0  0  0
    9.7494  -15.2153   21.7936 C   0  0  2  0  0  0  0  0  0  0  0  0
    8.5003  -15.3393   22.5591 N   0  0  0  0  0  0  0  0  0  0  0  0
   10.8523  -15.4783   22.7557 C   0  0  0  0  0  0  0  0  0  0  0  0
   10.8673  -15.0427   23.9281 O   0  0  0  0  0  0  0  0  0  0  0  0
    9.1428  -14.7663   18.9093 C   0  0  0  0  0  0  0  0  0  0  0  0
    8.3361  -14.7750   17.7836 C   0  0  0  0  0  0  0  0  0  0  0  0
   11.9521  -21.2795   27.5481 N   0  0  0  0  0  0  0  0  0  0  0  0
   11.2706  -21.5838   26.3453 C   0  0  0  0  0  0  0  0  0  0  0  0
   10.7265  -22.7451   26.1395 N   0  0  0  0  0  0  0  0  0  0  0  0
   11.1817  -20.5870   25.3335 N   0  0  0  0  0  0  0  0  0  0  0  0
   11.9409  -19.3475   25.5727 C   0  0  0  0  0  0  0  0  0  0  0  0
   11.6638  -18.4048   24.4565 C   0  0  0  0  0  0  0  0  0  0  0  0
   12.4501  -17.1615   24.5463 C   0  0  0  0  0  0  0  0  0  0  0  0
   13.0533  -16.6114   23.3016 C   0  0  2  0  0  0  0  0  0  0  0  0
   11.9809  -16.2807   22.3507 N   0  0  0  0  0  0  0  0  0  0  0  0
   14.1016  -17.3906   22.6593 C   0  0  0  0  0  0  0  0  0  0  0  0
   15.1688  -17.6977   23.2411 O   0  0  0  0  0  0  0  0  0  0  0  0
   13.9570  -17.8325   21.3518 O   0  0  0  0  0  0  0  0  0  0  0  0
  2  1  1  1
  2  3  1  0
  3  4  1  0
  4  5  2  0
  4 12  1  0
  5  6  1  0
  6  7  1  0
  7  8  2  0
  9  8  1  0
 10  9  2  0
 11 12  2  0
 11 10  1  0
 12  7  1  0
 13 22  1  0
 13  2  1  0
 14 13  2  0
 16 15  1  0
 17 16  2  0
 18 17  1  0
 19 18  2  0
 19 25  1  0
 21 20  1  1
 20 19  1  0
 21 23  1  0
 21 22  1  0
 23 35  1  0
 24 23  2  0
 25 26  2  0
 26 16  1  0
 27 28  1  0
 28 29  2  0
 30 28  1  0
 31 30  1  0
 32 31  1  0
 34 33  1  1
 33 32  1  0
 34 35  1  0
 36 34  1  0
 37 36  2  0
 38 36  1  0
M  END
$$$$
