WYR.pdb
     RDKit          3D

 38 40  0  0  1  0  0  0  0  0999 V2000
    6.3558  -17.5939   23.6906 N   0  0  0  0  0  0  0  0  0  0  0  0
    7.1500  -16.3972   23.6793 C   0  0  1  0  0  0  0  0  0  0  0  0
    7.6066  -16.0343   25.0516 C   0  0  0  0  0  0  0  0  0  0  0  0
    6.7679  -15.0807   25.7741 C   0  0  0  0  0  0  0  0  0  0  0  0
    5.6532  -15.3617   26.5632 C   0  0  0  0  0  0  0  0  0  0  0  0
    5.2021  -14.1921   27.0205 N   0  0  0  0  0  0  0  0  0  0  0  0
    5.9779  -13.1846   26.5583 C   0  0  0  0  0  0  0  0  0  0  0  0
    5.9538  -11.8005   26.7266 C   0  0  0  0  0  0  0  0  0  0  0  0
    6.8873  -10.9745   26.1310 C   0  0  0  0  0  0  0  0  0  0  0  0
    7.8843  -11.5054   25.3407 C   0  0  0  0  0  0  0  0  0  0  0  0
    7.9030  -12.8742   25.1778 C   0  0  0  0  0  0  0  0  0  0  0  0
    6.9768  -13.7178   25.7665 C   0  0  0  0  0  0  0  0  0  0  0  0
    8.1977  -16.3664   22.6506 C   0  0  0  0  0  0  0  0  0  0  0  0
    8.7835  -17.4426   22.3738 O   0  0  0  0  0  0  0  0  0  0  0  0
    6.4526  -13.8641   15.9194 O   0  0  0  0  0  0  0  0  0  0  0  0
    7.3201  -13.8742   17.0210 C   0  0  0  0  0  0  0  0  0  0  0  0
    7.0411  -13.1228   18.1375 C   0  0  0  0  0  0  0  0  0  0  0  0
    7.8699  -13.1087   19.2360 C   0  0  0  0  0  0  0  0  0  0  0  0
    9.0380  -13.8737   19.2415 C   0  0  0  0  0  0  0  0  0  0  0  0
    9.9528  -13.8846   20.4071 C   0  0  0  0  0  0  0  0  0  0  0  0
    9.8271  -15.1764   21.1434 C   0  0  2  0  0  0  0  0  0  0  0  0
    8.5958  -15.2008   21.9465 N   0  0  0  0  0  0  0  0  0  0  0  0
   10.9420  -15.4564   22.0867 C   0  0  0  0  0  0  0  0  0  0  0  0
   10.9158  -15.1528   23.2998 O   0  0  0  0  0  0  0  0  0  0  0  0
    9.3120  -14.6172   18.1343 C   0  0  0  0  0  0  0  0  0  0  0  0
    8.4703  -14.6236   17.0344 C   0  0  0  0  0  0  0  0  0  0  0  0
   10.2627  -21.9092   24.5162 N   0  0  0  0  0  0  0  0  0  0  0  0
   10.5513  -21.2116   25.7137 C   0  0  0  0  0  0  0  0  0  0  0  0
    9.7541  -21.2479   26.7385 N   0  0  0  0  0  0  0  0  0  0  0  0
   11.7496  -20.4481   25.7937 N   0  0  0  0  0  0  0  0  0  0  0  0
   12.2985  -19.9629   24.5157 C   0  0  0  0  0  0  0  0  0  0  0  0
   11.9760  -18.5171   24.3852 C   0  0  0  0  0  0  0  0  0  0  0  0
   11.8468  -18.0818   22.9831 C   0  0  0  0  0  0  0  0  0  0  0  0
   12.8341  -17.1041   22.4494 C   0  0  2  0  0  0  0  0  0  0  0  0
   12.1332  -16.1182   21.6126 N   0  0  0  0  0  0  0  0  0  0  0  0
   14.0051  -17.6337   21.7660 C   0  0  0  0  0  0  0  0  0  0  0  0
   14.1561  -17.5558   20.5239 O   0  0  0  0  0  0  0  0  0  0  0  0
   15.0200  -18.2577   22.4777 O   0  0  0  0  0  0  0  0  0  0  0  0
  2  1  1  1
  2  3  1  0
  3  4  1  0
  4  5  2  0
  4 12  1  0
  5  6  1  0
  6  7  1  0
  7  8  2  0
  9  8  1  0
 10  9  2  0
 11 12  2  0
 11 10  1  0
 12  7  1  0
 13 22  1  0
 13  2  1  0
 14 13  2  0
 16 15  1  0
 17 16  2  0
 18 17  1  0
 19 18  2  0
 19 25  1  0
 21 20  1  1
 20 19  1  0
 21 23  1  0
 21 22  1  0
 23 35  1  0
 24 23  2  0
 25 26  2  0
 26 16  1  0
 27 28  1  0
 28 29  2  0
 30 28  1  0
 31 30  1  0
 32 31  1  0
 34 33  1  6
 33 32  1  0
 34 35  1  0
 36 34  1  0
 37 36  2  0
 38 36  1  0
M  END
$$$$
