WYR.pdb
     RDKit          3D

 38 40  0  0  1  0  0  0  0  0999 V2000
    9.1301  -16.3056   21.2796 N   0  0  0  0  0  0  0  0  0  0  0  0
    8.7663  -15.0597   21.8947 C   0  0  1  0  0  0  0  0  0  0  0  0
    7.3527  -14.6952   21.5908 C   0  0  0  0  0  0  0  0  0  0  0  0
    6.9993  -14.6275   20.1747 C   0  0  0  0  0  0  0  0  0  0  0  0
    6.2282  -15.5355   19.4501 C   0  0  0  0  0  0  0  0  0  0  0  0
    6.1696  -15.0765   18.1986 N   0  0  0  0  0  0  0  0  0  0  0  0
    6.8672  -13.9217   18.0966 C   0  0  0  0  0  0  0  0  0  0  0  0
    7.1236  -13.0457   17.0422 C   0  0  0  0  0  0  0  0  0  0  0  0
    7.8845  -11.9046   17.2075 C   0  0  0  0  0  0  0  0  0  0  0  0
    8.4201  -11.5963   18.4397 C   0  0  0  0  0  0  0  0  0  0  0  0
    8.1635  -12.4660   19.4781 C   0  0  0  0  0  0  0  0  0  0  0  0
    7.4034  -13.6136   19.3321 C   0  0  0  0  0  0  0  0  0  0  0  0
    9.1454  -14.9403   23.3085 C   0  0  0  0  0  0  0  0  0  0  0  0
    9.0971  -13.8018   23.8374 O   0  0  0  0  0  0  0  0  0  0  0  0
   11.6362  -15.4286   31.6194 O   0  0  0  0  0  0  0  0  0  0  0  0
   11.0369  -15.6163   30.3658 C   0  0  0  0  0  0  0  0  0  0  0  0
   10.5830  -14.5411   29.6398 C   0  0  0  0  0  0  0  0  0  0  0  0
    9.9900  -14.6884   28.4067 C   0  0  0  0  0  0  0  0  0  0  0  0
    9.8324  -15.9607   27.8532 C   0  0  0  0  0  0  0  0  0  0  0  0
    9.2005  -16.1571   26.5275 C   0  0  0  0  0  0  0  0  0  0  0  0
   10.1639  -15.8023   25.4444 C   0  0  2  0  0  0  0  0  0  0  0  0
    9.5649  -16.0255   24.1204 N   0  0  0  0  0  0  0  0  0  0  0  0
   11.4268  -16.5872   25.4649 C   0  0  0  0  0  0  0  0  0  0  0  0
   12.0349  -16.8936   26.5141 O   0  0  0  0  0  0  0  0  0  0  0  0
   10.2829  -17.0240   28.5743 C   0  0  0  0  0  0  0  0  0  0  0  0
   10.8784  -16.8637   29.8145 C   0  0  0  0  0  0  0  0  0  0  0  0
   13.4004  -16.8664   17.7398 N   0  0  0  0  0  0  0  0  0  0  0  0
   13.9673  -15.7098   18.3269 C   0  0  0  0  0  0  0  0  0  0  0  0
   14.4349  -14.7340   17.6084 N   0  0  0  0  0  0  0  0  0  0  0  0
   14.0266  -15.6168   19.7458 N   0  0  0  0  0  0  0  0  0  0  0  0
   13.9528  -16.8889   20.4849 C   0  0  0  0  0  0  0  0  0  0  0  0
   13.9345  -16.5853   21.9406 C   0  0  0  0  0  0  0  0  0  0  0  0
   13.7856  -17.7899   22.7765 C   0  0  0  0  0  0  0  0  0  0  0  0
   13.3594  -17.6230   24.1929 C   0  0  2  0  0  0  0  0  0  0  0  0
   12.0088  -17.0414   24.2254 N   0  0  0  0  0  0  0  0  0  0  0  0
   14.2590  -16.9098   25.0877 C   0  0  0  0  0  0  0  0  0  0  0  0
   14.1222  -15.6926   25.3551 O   0  0  0  0  0  0  0  0  0  0  0  0
   15.3240  -17.5630   25.6917 O   0  0  0  0  0  0  0  0  0  0  0  0
  2  1  1  1
  2  3  1  0
  3  4  1  0
  4  5  2  0
  4 12  1  0
  5  6  1  0
  6  7  1  0
  7  8  2  0
  9  8  1  0
 10  9  2  0
 11 12  2  0
 11 10  1  0
 12  7  1  0
 13 22  1  0
 13  2  1  0
 14 13  2  0
 16 15  1  0
 17 16  2  0
 18 17  1  0
 19 18  2  0
 19 25  1  0
 21 20  1  1
 20 19  1  0
 21 23  1  0
 21 22  1  0
 23 35  1  0
 24 23  2  0
 25 26  2  0
 26 16  1  0
 27 28  1  0
 28 29  2  0
 30 28  1  0
 31 30  1  0
 32 31  1  0
 34 33  1  6
 33 32  1  0
 34 35  1  0
 36 34  1  0
 37 36  2  0
 38 36  1  0
M  END
$$$$
