WYR.pdb
     RDKit          3D

 38 40  0  0  1  0  0  0  0  0999 V2000
   10.3503  -13.8447   20.4167 N   0  0  0  0  0  0  0  0  0  0  0  0
    9.4540  -14.7237   21.1145 C   0  0  1  0  0  0  0  0  0  0  0  0
    9.0819  -15.8991   20.2757 C   0  0  0  0  0  0  0  0  0  0  0  0
    8.2421  -15.6164   19.1140 C   0  0  0  0  0  0  0  0  0  0  0  0
    7.6647  -16.5387   18.2420 C   0  0  0  0  0  0  0  0  0  0  0  0
    6.9882  -15.8352   17.3322 N   0  0  0  0  0  0  0  0  0  0  0  0
    7.1101  -14.5120   17.5865 C   0  0  0  0  0  0  0  0  0  0  0  0
    6.6161  -13.3659   16.9642 C   0  0  0  0  0  0  0  0  0  0  0  0
    6.8941  -12.0984   17.4380 C   0  0  0  0  0  0  0  0  0  0  0  0
    7.6808  -11.9297   18.5574 C   0  0  0  0  0  0  0  0  0  0  0  0
    8.1665  -13.0662   19.1682 C   0  0  0  0  0  0  0  0  0  0  0  0
    7.8987  -14.3440   18.7086 C   0  0  0  0  0  0  0  0  0  0  0  0
    9.8590  -15.0479   22.4884 C   0  0  0  0  0  0  0  0  0  0  0  0
   11.0009  -15.5408   22.6653 O   0  0  0  0  0  0  0  0  0  0  0  0
   10.5671  -15.8256   31.2244 O   0  0  0  0  0  0  0  0  0  0  0  0
   10.0876  -15.5213   29.9424 C   0  0  0  0  0  0  0  0  0  0  0  0
    9.2886  -16.4113   29.2652 C   0  0  0  0  0  0  0  0  0  0  0  0
    8.8007  -16.1457   28.0062 C   0  0  0  0  0  0  0  0  0  0  0  0
    9.1129  -14.9402   27.3744 C   0  0  0  0  0  0  0  0  0  0  0  0
    8.6040  -14.6195   26.0203 C   0  0  0  0  0  0  0  0  0  0  0  0
    9.5389  -15.1485   24.9843 C   0  0  2  0  0  0  0  0  0  0  0  0
    9.0463  -14.8431   23.6331 N   0  0  0  0  0  0  0  0  0  0  0  0
    9.7355  -16.6218   25.0299 C   0  0  0  0  0  0  0  0  0  0  0  0
    8.8491  -17.4487   24.7222 O   0  0  0  0  0  0  0  0  0  0  0  0
    9.9045  -14.0603   28.0473 C   0  0  0  0  0  0  0  0  0  0  0  0
   10.3897  -14.3384   29.3144 C   0  0  0  0  0  0  0  0  0  0  0  0
   15.8146  -21.5370   21.8335 N   0  0  0  0  0  0  0  0  0  0  0  0
   15.2072  -22.4933   22.6822 C   0  0  0  0  0  0  0  0  0  0  0  0
   15.5137  -23.7542   22.6259 N   0  0  0  0  0  0  0  0  0  0  0  0
   14.2317  -22.0579   23.6226 N   0  0  0  0  0  0  0  0  0  0  0  0
   13.8230  -20.6457   23.5295 C   0  0  0  0  0  0  0  0  0  0  0  0
   12.8029  -20.3824   24.5790 C   0  0  0  0  0  0  0  0  0  0  0  0
   12.3070  -18.9946   24.5624 C   0  0  0  0  0  0  0  0  0  0  0  0
   11.2246  -18.6160   25.5115 C   0  0  2  0  0  0  0  0  0  0  0  0
   11.0080  -17.1629   25.4420 N   0  0  0  0  0  0  0  0  0  0  0  0
   11.3519  -19.0617   26.8913 C   0  0  0  0  0  0  0  0  0  0  0  0
   11.4405  -20.2721   27.2056 O   0  0  0  0  0  0  0  0  0  0  0  0
   11.3808  -18.1453   27.9331 O   0  0  0  0  0  0  0  0  0  0  0  0
  2  1  1  6
  2  3  1  0
  3  4  1  0
  4  5  2  0
  4 12  1  0
  5  6  1  0
  6  7  1  0
  7  8  2  0
  9  8  1  0
 10  9  2  0
 11 12  2  0
 11 10  1  0
 12  7  1  0
 13 22  1  0
 13  2  1  0
 14 13  2  0
 16 15  1  0
 17 16  2  0
 18 17  1  0
 19 18  2  0
 19 25  1  0
 21 20  1  1
 20 19  1  0
 21 23  1  0
 21 22  1  0
 23 35  1  0
 24 23  2  0
 25 26  2  0
 26 16  1  0
 27 28  1  0
 28 29  2  0
 30 28  1  0
 31 30  1  0
 32 31  1  0
 34 33  1  6
 33 32  1  0
 34 35  1  0
 36 34  1  0
 37 36  2  0
 38 36  1  0
M  END
$$$$
