WYR.pdb
     RDKit          3D

 38 40  0  0  1  0  0  0  0  0999 V2000
    9.7650  -17.3047   20.6629 N   0  0  0  0  0  0  0  0  0  0  0  0
    9.3967  -16.3242   21.6456 C   0  0  1  0  0  0  0  0  0  0  0  0
    7.9590  -15.9470   21.5256 C   0  0  0  0  0  0  0  0  0  0  0  0
    7.6491  -14.5334   21.7260 C   0  0  0  0  0  0  0  0  0  0  0  0
    7.7608  -13.5018   20.7945 C   0  0  0  0  0  0  0  0  0  0  0  0
    7.3750  -12.3836   21.4120 N   0  0  0  0  0  0  0  0  0  0  0  0
    7.0250  -12.6583   22.6898 C   0  0  0  0  0  0  0  0  0  0  0  0
    6.5591  -11.8762   23.7462 C   0  0  0  0  0  0  0  0  0  0  0  0
    6.2659  -12.4168   24.9832 C   0  0  0  0  0  0  0  0  0  0  0  0
    6.4290  -13.7667   25.2103 C   0  0  0  0  0  0  0  0  0  0  0  0
    6.8899  -14.5348   24.1624 C   0  0  0  0  0  0  0  0  0  0  0  0
    7.1886  -14.0115   22.9163 C   0  0  0  0  0  0  0  0  0  0  0  0
    9.8449  -16.6263   23.0111 C   0  0  0  0  0  0  0  0  0  0  0  0
    9.8034  -17.8221   23.3938 O   0  0  0  0  0  0  0  0  0  0  0  0
   11.0894  -16.2217   31.6705 O   0  0  0  0  0  0  0  0  0  0  0  0
   10.9419  -15.8722   30.3206 C   0  0  0  0  0  0  0  0  0  0  0  0
   10.1062  -14.8453   29.9516 C   0  0  0  0  0  0  0  0  0  0  0  0
    9.9373  -14.4756   28.6368 C   0  0  0  0  0  0  0  0  0  0  0  0
   10.6256  -15.1499   27.6261 C   0  0  0  0  0  0  0  0  0  0  0  0
   10.4698  -14.7782   26.2002 C   0  0  0  0  0  0  0  0  0  0  0  0
   10.5603  -15.9955   25.3419 C   0  0  2  0  0  0  0  0  0  0  0  0
   10.3219  -15.6573   23.9311 N   0  0  0  0  0  0  0  0  0  0  0  0
    9.5811  -17.0614   25.6831 C   0  0  0  0  0  0  0  0  0  0  0  0
    8.4133  -17.0979   25.2366 O   0  0  0  0  0  0  0  0  0  0  0  0
   11.4528  -16.1667   27.9943 C   0  0  0  0  0  0  0  0  0  0  0  0
   11.6151  -16.5298   29.3210 C   0  0  0  0  0  0  0  0  0  0  0  0
    5.3857  -21.0708   21.9286 N   0  0  0  0  0  0  0  0  0  0  0  0
    5.1498  -20.1998   23.0193 C   0  0  0  0  0  0  0  0  0  0  0  0
    4.1645  -19.3536   23.0214 N   0  0  0  0  0  0  0  0  0  0  0  0
    6.0198  -20.2543   24.1442 N   0  0  0  0  0  0  0  0  0  0  0  0
    7.1558  -21.1868   24.0437 C   0  0  0  0  0  0  0  0  0  0  0  0
    7.9638  -21.0775   25.2873 C   0  0  0  0  0  0  0  0  0  0  0  0
    8.7048  -19.8070   25.3808 C   0  0  0  0  0  0  0  0  0  0  0  0
    9.1222  -19.3258   26.7261 C   0  0  2  0  0  0  0  0  0  0  0  0
    9.9663  -18.1313   26.5712 N   0  0  0  0  0  0  0  0  0  0  0  0
    9.7387  -20.2903   27.6254 C   0  0  0  0  0  0  0  0  0  0  0  0
    9.0698  -21.0310   28.3841 O   0  0  0  0  0  0  0  0  0  0  0  0
   11.1184  -20.4298   27.6783 O   0  0  0  0  0  0  0  0  0  0  0  0
  2  1  1  6
  2  3  1  0
  3  4  1  0
  4  5  2  0
  4 12  1  0
  5  6  1  0
  6  7  1  0
  7  8  2  0
  9  8  1  0
 10  9  2  0
 11 12  2  0
 11 10  1  0
 12  7  1  0
 13 22  1  0
 13  2  1  0
 14 13  2  0
 16 15  1  0
 17 16  2  0
 18 17  1  0
 19 18  2  0
 19 25  1  0
 21 20  1  1
 20 19  1  0
 21 23  1  0
 21 22  1  0
 23 35  1  0
 24 23  2  0
 25 26  2  0
 26 16  1  0
 27 28  1  0
 28 29  2  0
 30 28  1  0
 31 30  1  0
 32 31  1  0
 34 33  1  6
 33 32  1  0
 34 35  1  0
 36 34  1  0
 37 36  2  0
 38 36  1  0
M  END
$$$$
