WYR.pdb
     RDKit          3D

 38 40  0  0  1  0  0  0  0  0999 V2000
    7.1587  -18.4019   26.1759 N   0  0  0  0  0  0  0  0  0  0  0  0
    7.6725  -17.0854   25.9195 C   0  0  1  0  0  0  0  0  0  0  0  0
    8.9023  -16.8163   26.7186 C   0  0  0  0  0  0  0  0  0  0  0  0
    8.8476  -15.6578   27.6073 C   0  0  0  0  0  0  0  0  0  0  0  0
    9.3820  -15.5492   28.8906 C   0  0  0  0  0  0  0  0  0  0  0  0
    9.0919  -14.3211   29.3244 N   0  0  0  0  0  0  0  0  0  0  0  0
    8.3992  -13.6478   28.3772 C   0  0  0  0  0  0  0  0  0  0  0  0
    7.8636  -12.3618   28.3128 C   0  0  0  0  0  0  0  0  0  0  0  0
    7.1844  -11.9070   27.1992 C   0  0  0  0  0  0  0  0  0  0  0  0
    7.0147  -12.7260   26.1034 C   0  0  0  0  0  0  0  0  0  0  0  0
    7.5462  -13.9962   26.1729 C   0  0  0  0  0  0  0  0  0  0  0  0
    8.2298  -14.4695   27.2794 C   0  0  0  0  0  0  0  0  0  0  0  0
    7.7691  -16.7311   24.4976 C   0  0  0  0  0  0  0  0  0  0  0  0
    7.9487  -17.6590   23.6700 O   0  0  0  0  0  0  0  0  0  0  0  0
    8.2968  -12.6856   16.7069 O   0  0  0  0  0  0  0  0  0  0  0  0
    8.1154  -12.9320   18.0752 C   0  0  0  0  0  0  0  0  0  0  0  0
    7.0708  -13.7106   18.5130 C   0  0  0  0  0  0  0  0  0  0  0  0
    6.8627  -13.9729   19.8478 C   0  0  0  0  0  0  0  0  0  0  0  0
    7.7264  -13.4426   20.8084 C   0  0  0  0  0  0  0  0  0  0  0  0
    7.5343  -13.7054   22.2539 C   0  0  0  0  0  0  0  0  0  0  0  0
    7.9081  -15.1149   22.5712 C   0  0  2  0  0  0  0  0  0  0  0  0
    7.6743  -15.4086   23.9927 N   0  0  0  0  0  0  0  0  0  0  0  0
    9.3341  -15.4455   22.3094 C   0  0  0  0  0  0  0  0  0  0  0  0
   10.2467  -15.2911   23.1508 O   0  0  0  0  0  0  0  0  0  0  0  0
    8.7604  -12.6717   20.3721 C   0  0  0  0  0  0  0  0  0  0  0  0
    8.9601  -12.4146   19.0259 C   0  0  0  0  0  0  0  0  0  0  0  0
   11.3056  -15.3579   13.5881 N   0  0  0  0  0  0  0  0  0  0  0  0
   11.2674  -16.3127   14.6324 C   0  0  0  0  0  0  0  0  0  0  0  0
   11.3605  -17.5874   14.4010 N   0  0  0  0  0  0  0  0  0  0  0  0
   11.1212  -15.8601   15.9738 N   0  0  0  0  0  0  0  0  0  0  0  0
   10.7400  -16.8795   16.9666 C   0  0  0  0  0  0  0  0  0  0  0  0
   10.5650  -16.2099   18.2829 C   0  0  0  0  0  0  0  0  0  0  0  0
   11.2095  -16.9404   19.3888 C   0  0  0  0  0  0  0  0  0  0  0  0
   11.1141  -16.3765   20.7630 C   0  0  2  0  0  0  0  0  0  0  0  0
    9.7223  -15.9808   21.0270 N   0  0  0  0  0  0  0  0  0  0  0  0
   12.0388  -15.3104   21.1197 C   0  0  0  0  0  0  0  0  0  0  0  0
   11.6559  -14.1542   21.4166 O   0  0  0  0  0  0  0  0  0  0  0  0
   13.4076  -15.5376   21.1454 O   0  0  0  0  0  0  0  0  0  0  0  0
  2  1  1  6
  2  3  1  0
  3  4  1  0
  4  5  2  0
  4 12  1  0
  5  6  1  0
  6  7  1  0
  7  8  2  0
  9  8  1  0
 10  9  2  0
 11 12  2  0
 11 10  1  0
 12  7  1  0
 13 22  1  0
 13  2  1  0
 14 13  2  0
 16 15  1  0
 17 16  2  0
 18 17  1  0
 19 18  2  0
 19 25  1  0
 21 20  1  1
 20 19  1  0
 21 23  1  0
 21 22  1  0
 23 35  1  0
 24 23  2  0
 25 26  2  0
 26 16  1  0
 27 28  1  0
 28 29  2  0
 30 28  1  0
 31 30  1  0
 32 31  1  0
 34 33  1  6
 33 32  1  0
 34 35  1  0
 36 34  1  0
 37 36  2  0
 38 36  1  0
M  END
$$$$
