ADK.pdb
     RDKit          3D

 23 22  0  0  1  0  0  0  0  0999 V2000
    5.3647  -20.1805   21.4425 C   0  0  0  0  0  0  0  0  0  0  0  0
    5.2254  -19.0963   20.3988 C   0  0  2  0  0  0  0  0  0  0  0  0
    5.1173  -19.7200   19.1012 N   0  0  0  0  0  0  0  0  0  0  0  0
    6.4098  -18.1831   20.4610 C   0  0  0  0  0  0  0  0  0  0  0  0
    7.5690  -18.6401   20.5277 O   0  0  0  0  0  0  0  0  0  0  0  0
    6.2536  -16.7676   20.4457 N   0  0  0  0  0  0  0  0  0  0  0  0
    7.3443  -15.8294   20.5944 C   0  0  1  0  0  0  0  0  0  0  0  0
    6.9702  -14.4237   20.2850 C   0  0  0  0  0  0  0  0  0  0  0  0
    8.1386  -13.6437   19.8265 C   0  0  0  0  0  0  0  0  0  0  0  0
    9.3290  -14.0498   19.8502 O   0  0  0  0  0  0  0  0  0  0  0  0
    7.9878  -15.9823   21.9449 C   0  0  0  0  0  0  0  0  0  0  0  0
    7.3724  -15.6265   22.9598 O   0  0  0  0  0  0  0  0  0  0  0  0
    7.9303  -12.3622   19.3286 O   0  0  0  0  0  0  0  0  0  0  0  0
    9.2951  -16.5355   22.0038 N   0  0  0  0  0  0  0  0  0  0  0  0
   10.0054  -16.6643   23.2590 C   0  0  1  0  0  0  0  0  0  0  0  0
   10.2395  -18.1116   23.6243 C   0  0  0  0  0  0  0  0  0  0  0  0
   10.9881  -18.2545   24.9224 C   0  0  0  0  0  0  0  0  0  0  0  0
   11.2615  -19.6961   25.2490 C   0  0  0  0  0  0  0  0  0  0  0  0
   12.0340  -19.8743   26.5398 C   0  0  0  0  0  0  0  0  0  0  0  0
   12.3914  -21.2901   26.7246 N   0  0  0  0  0  0  0  0  0  0  0  0
   11.2764  -15.8925   23.2465 C   0  0  0  0  0  0  0  0  0  0  0  0
   11.8414  -15.5920   24.3279 O   0  0  0  0  0  0  0  0  0  0  0  0
   11.8947  -15.4713   22.0759 O   0  0  0  0  0  0  0  0  0  0  0  0
  2  1  1  1
  2  3  1  0
  4  6  1  0
  4  2  1  0
  5  4  2  0
  7 11  1  0
  7  6  1  0
  7  8  1  1
  9 10  2  0
  9  8  1  0
 11 14  1  0
 12 11  2  0
 13  9  1  0
 14 15  1  0
 15 21  1  0
 15 16  1  6
 17 16  1  0
 18 19  1  0
 18 17  1  0
 20 19  1  0
 21 23  1  0
 22 21  2  0
M  END
$$$$
