ADK.pdb
     RDKit          3D

 23 22  0  0  1  0  0  0  0  0999 V2000
    6.4170  -20.4731   18.0176 C   0  0  0  0  0  0  0  0  0  0  0  0
    6.6035  -19.3839   19.0487 C   0  0  2  0  0  0  0  0  0  0  0  0
    5.9465  -18.1881   18.5765 N   0  0  0  0  0  0  0  0  0  0  0  0
    8.0646  -19.1448   19.2692 C   0  0  0  0  0  0  0  0  0  0  0  0
    8.8142  -20.0657   19.6530 O   0  0  0  0  0  0  0  0  0  0  0  0
    8.6456  -17.8634   19.0487 N   0  0  0  0  0  0  0  0  0  0  0  0
   10.0438  -17.5595   19.2601 C   0  0  1  0  0  0  0  0  0  0  0  0
   10.6186  -16.6465   18.2365 C   0  0  0  0  0  0  0  0  0  0  0  0
   10.7557  -17.3212   16.9290 C   0  0  0  0  0  0  0  0  0  0  0  0
   11.2389  -18.4702   16.7594 O   0  0  0  0  0  0  0  0  0  0  0  0
   10.2699  -17.0806   20.6676 C   0  0  0  0  0  0  0  0  0  0  0  0
    9.3911  -16.4180   21.2371 O   0  0  0  0  0  0  0  0  0  0  0  0
   10.3258  -16.6544   15.7869 O   0  0  0  0  0  0  0  0  0  0  0  0
   11.5003  -17.4106   21.2965 N   0  0  0  0  0  0  0  0  0  0  0  0
   11.7792  -17.0204   22.6628 C   0  0  1  0  0  0  0  0  0  0  0  0
   11.2701  -18.0425   23.6523 C   0  0  0  0  0  0  0  0  0  0  0  0
   11.5762  -17.6558   25.0746 C   0  0  0  0  0  0  0  0  0  0  0  0
   11.0679  -18.6808   26.0495 C   0  0  0  0  0  0  0  0  0  0  0  0
   11.4071  -18.3487   27.4880 C   0  0  0  0  0  0  0  0  0  0  0  0
   10.9802  -19.4432   28.3746 N   0  0  0  0  0  0  0  0  0  0  0  0
   13.2255  -16.7398   22.8639 C   0  0  0  0  0  0  0  0  0  0  0  0
   13.6458  -16.3761   23.9910 O   0  0  0  0  0  0  0  0  0  0  0  0
   14.1679  -16.8590   21.8502 O   0  0  0  0  0  0  0  0  0  0  0  0
  2  1  1  6
  2  3  1  0
  4  6  1  0
  4  2  1  0
  5  4  2  0
  7 11  1  0
  7  6  1  0
  7  8  1  6
  9 10  2  0
  9  8  1  0
 11 14  1  0
 12 11  2  0
 13  9  1  0
 14 15  1  0
 15 21  1  0
 15 16  1  1
 17 16  1  0
 18 19  1  0
 18 17  1  0
 20 19  1  0
 21 23  1  0
 22 21  2  0
M  END
$$$$
