ADK.pdb
     RDKit          3D

 23 22  0  0  1  0  0  0  0  0999 V2000
   11.2563  -18.9320   21.9059 C   0  0  0  0  0  0  0  0  0  0  0  0
    9.9560  -18.7324   22.6499 C   0  0  2  0  0  0  0  0  0  0  0  0
    8.8696  -19.1471   21.7940 N   0  0  0  0  0  0  0  0  0  0  0  0
    9.8156  -17.2943   23.0406 C   0  0  0  0  0  0  0  0  0  0  0  0
   10.6972  -16.7242   23.7151 O   0  0  0  0  0  0  0  0  0  0  0  0
    8.6758  -16.5317   22.6565 N   0  0  0  0  0  0  0  0  0  0  0  0
    8.4656  -15.1477   23.0204 C   0  0  1  0  0  0  0  0  0  0  0  0
    7.5744  -14.4121   22.0843 C   0  0  0  0  0  0  0  0  0  0  0  0
    8.0164  -14.5706   20.6831 C   0  0  0  0  0  0  0  0  0  0  0  0
    9.1978  -14.4157   20.2794 O   0  0  0  0  0  0  0  0  0  0  0  0
    8.0257  -15.0430   24.4546 C   0  0  0  0  0  0  0  0  0  0  0  0
    7.0367  -15.6828   24.8395 O   0  0  0  0  0  0  0  0  0  0  0  0
    7.0728  -14.9156   19.7218 O   0  0  0  0  0  0  0  0  0  0  0  0
    8.7715  -14.2017   25.3229 N   0  0  0  0  0  0  0  0  0  0  0  0
    8.4199  -14.0557   26.7200 C   0  0  1  0  0  0  0  0  0  0  0  0
    9.5840  -14.3786   27.6274 C   0  0  0  0  0  0  0  0  0  0  0  0
    9.8416  -15.8593   27.7136 C   0  0  0  0  0  0  0  0  0  0  0  0
   11.0147  -16.1671   28.6017 C   0  0  0  0  0  0  0  0  0  0  0  0
   11.2872  -17.6518   28.7287 C   0  0  0  0  0  0  0  0  0  0  0  0
   12.5434  -17.8751   29.4626 N   0  0  0  0  0  0  0  0  0  0  0  0
    7.8659  -12.7051   27.0032 C   0  0  0  0  0  0  0  0  0  0  0  0
    8.1109  -11.7482   26.2264 O   0  0  0  0  0  0  0  0  0  0  0  0
    7.0699  -12.4298   28.1080 O   0  0  0  0  0  0  0  0  0  0  0  0
  2  1  1  6
  2  3  1  0
  4  6  1  0
  4  2  1  0
  5  4  2  0
  7 11  1  0
  7  6  1  0
  7  8  1  6
  9 10  2  0
  9  8  1  0
 11 14  1  0
 12 11  2  0
 13  9  1  0
 14 15  1  0
 15 21  1  0
 15 16  1  1
 17 16  1  0
 18 19  1  0
 18 17  1  0
 20 19  1  0
 21 23  1  0
 22 21  2  0
M  END
$$$$
