ADK.pdb
     RDKit          3D

 23 22  0  0  1  0  0  0  0  0999 V2000
    8.5519  -12.5388   19.2729 C   0  0  0  0  0  0  0  0  0  0  0  0
    8.3701  -13.9891   18.8883 C   0  0  2  0  0  0  0  0  0  0  0  0
    7.0485  -14.1533   18.3305 N   0  0  0  0  0  0  0  0  0  0  0  0
    8.5580  -14.8565   20.0937 C   0  0  0  0  0  0  0  0  0  0  0  0
    7.5941  -15.1476   20.8307 O   0  0  0  0  0  0  0  0  0  0  0  0
    9.8384  -15.3766   20.4379 N   0  0  0  0  0  0  0  0  0  0  0  0
   10.0805  -16.2622   21.5555 C   0  0  1  0  0  0  0  0  0  0  0  0
   11.2485  -17.1624   21.3628 C   0  0  0  0  0  0  0  0  0  0  0  0
   11.0529  -18.0582   20.2040 C   0  0  0  0  0  0  0  0  0  0  0  0
   11.7018  -17.9950   19.1281 O   0  0  0  0  0  0  0  0  0  0  0  0
   10.1459  -15.4817   22.8392 C   0  0  0  0  0  0  0  0  0  0  0  0
   10.4952  -14.2930   22.8155 O   0  0  0  0  0  0  0  0  0  0  0  0
   10.0839  -19.0521   20.2863 O   0  0  0  0  0  0  0  0  0  0  0  0
    9.8007  -16.1484   24.0453 N   0  0  0  0  0  0  0  0  0  0  0  0
    9.4639  -15.4124   25.2459 C   0  0  1  0  0  0  0  0  0  0  0  0
    8.2724  -14.5080   25.0328 C   0  0  0  0  0  0  0  0  0  0  0  0
    7.9396  -13.7094   26.2648 C   0  0  0  0  0  0  0  0  0  0  0  0
    6.7226  -12.8518   26.0574 C   0  0  0  0  0  0  0  0  0  0  0  0
    6.4248  -11.9516   27.2388 C   0  0  0  0  0  0  0  0  0  0  0  0
    5.1941  -11.1829   26.9922 N   0  0  0  0  0  0  0  0  0  0  0  0
    9.2568  -16.3238   26.4025 C   0  0  0  0  0  0  0  0  0  0  0  0
    8.7242  -17.4489   26.2304 O   0  0  0  0  0  0  0  0  0  0  0  0
    9.6281  -15.9960   27.7005 O   0  0  0  0  0  0  0  0  0  0  0  0
  2  1  1  1
  2  3  1  0
  4  6  1  0
  4  2  1  0
  5  4  2  0
  7 11  1  0
  7  6  1  0
  7  8  1  6
  9 10  2  0
  9  8  1  0
 11 14  1  0
 12 11  2  0
 13  9  1  0
 14 15  1  0
 15 21  1  0
 15 16  1  6
 17 16  1  0
 18 19  1  0
 18 17  1  0
 20 19  1  0
 21 23  1  0
 22 21  2  0
M  END
$$$$
