ADK.pdb
     RDKit          3D

 23 22  0  0  1  0  0  0  0  0999 V2000
   10.9057  -24.0688   17.5404 C   0  0  0  0  0  0  0  0  0  0  0  0
   10.2819  -23.7125   18.8701 C   0  0  2  0  0  0  0  0  0  0  0  0
    8.9054  -23.3391   18.6456 N   0  0  0  0  0  0  0  0  0  0  0  0
   11.0483  -22.5921   19.5010 C   0  0  0  0  0  0  0  0  0  0  0  0
   12.0682  -22.8176   20.1838 O   0  0  0  0  0  0  0  0  0  0  0  0
   10.6407  -21.2367   19.3433 N   0  0  0  0  0  0  0  0  0  0  0  0
   11.3461  -20.1067   19.9065 C   0  0  1  0  0  0  0  0  0  0  0  0
   11.1691  -18.8470   19.1362 C   0  0  0  0  0  0  0  0  0  0  0  0
   11.9522  -18.8672   17.8832 C   0  0  0  0  0  0  0  0  0  0  0  0
   13.1073  -19.3512   17.7643 O   0  0  0  0  0  0  0  0  0  0  0  0
   11.0141  -19.9546   21.3653 C   0  0  0  0  0  0  0  0  0  0  0  0
    9.8969  -19.5341   21.6980 O   0  0  0  0  0  0  0  0  0  0  0  0
   11.3904  -18.3146   16.7374 O   0  0  0  0  0  0  0  0  0  0  0  0
   12.0093  -20.3031   22.3173 N   0  0  0  0  0  0  0  0  0  0  0  0
   11.6972  -20.4279   23.7258 C   0  0  1  0  0  0  0  0  0  0  0  0
   10.8994  -21.6783   24.0141 C   0  0  0  0  0  0  0  0  0  0  0  0
   10.6164  -21.8438   25.4834 C   0  0  0  0  0  0  0  0  0  0  0  0
    9.8577  -23.1111   25.7625 C   0  0  0  0  0  0  0  0  0  0  0  0
    9.6309  -23.3516   27.2408 C   0  0  0  0  0  0  0  0  0  0  0  0
    9.0087  -24.6690   27.4499 N   0  0  0  0  0  0  0  0  0  0  0  0
   12.9240  -20.3585   24.5631 C   0  0  0  0  0  0  0  0  0  0  0  0
   14.0155  -20.7949   24.1187 O   0  0  0  0  0  0  0  0  0  0  0  0
   12.9361  -19.8243   25.8454 O   0  0  0  0  0  0  0  0  0  0  0  0
  2  1  1  6
  2  3  1  0
  4  6  1  0
  4  2  1  0
  5  4  2  0
  7 11  1  0
  7  6  1  0
  7  8  1  6
  9 10  2  0
  9  8  1  0
 11 14  1  0
 12 11  2  0
 13  9  1  0
 14 15  1  0
 15 21  1  0
 15 16  1  6
 17 16  1  0
 18 19  1  0
 18 17  1  0
 20 19  1  0
 21 23  1  0
 22 21  2  0
M  END
$$$$
