ADK.pdb
     RDKit          3D

 23 22  0  0  1  0  0  0  0  0999 V2000
    6.9191  -13.1087   19.1195 C   0  0  0  0  0  0  0  0  0  0  0  0
    8.4074  -13.3623   19.1886 C   0  0  2  0  0  0  0  0  0  0  0  0
    8.8665  -13.7575   17.8779 N   0  0  0  0  0  0  0  0  0  0  0  0
    8.6898  -14.4268   20.2023 C   0  0  0  0  0  0  0  0  0  0  0  0
    8.2622  -14.3292   21.3706 O   0  0  0  0  0  0  0  0  0  0  0  0
    9.4526  -15.5821   19.8683 N   0  0  0  0  0  0  0  0  0  0  0  0
    9.6415  -16.7125   20.7507 C   0  0  1  0  0  0  0  0  0  0  0  0
   10.1109  -17.9410   20.0565 C   0  0  0  0  0  0  0  0  0  0  0  0
    9.1240  -18.4073   19.0603 C   0  0  0  0  0  0  0  0  0  0  0  0
    7.9609  -18.8034   19.3305 O   0  0  0  0  0  0  0  0  0  0  0  0
   10.5099  -16.3286   21.9169 C   0  0  0  0  0  0  0  0  0  0  0  0
   11.5542  -15.6918   21.7186 O   0  0  0  0  0  0  0  0  0  0  0  0
    9.4867  -18.4184   17.7179 O   0  0  0  0  0  0  0  0  0  0  0  0
   10.0928  -16.7184   23.2178 N   0  0  0  0  0  0  0  0  0  0  0  0
   10.8351  -16.3277   24.3981 C   0  0  1  0  0  0  0  0  0  0  0  0
    9.9246  -15.8065   25.4855 C   0  0  0  0  0  0  0  0  0  0  0  0
   10.6897  -15.3849   26.7115 C   0  0  0  0  0  0  0  0  0  0  0  0
    9.7807  -14.8106   27.7619 C   0  0  0  0  0  0  0  0  0  0  0  0
   10.5318  -14.2495   28.9518 C   0  0  0  0  0  0  0  0  0  0  0  0
    9.5977  -13.5756   29.8682 N   0  0  0  0  0  0  0  0  0  0  0  0
   11.6950  -17.4360   24.8914 C   0  0  0  0  0  0  0  0  0  0  0  0
   11.3018  -18.6262   24.8017 O   0  0  0  0  0  0  0  0  0  0  0  0
   12.9442  -17.2282   25.4627 O   0  0  0  0  0  0  0  0  0  0  0  0
  2  1  1  6
  2  3  1  0
  4  6  1  0
  4  2  1  0
  5  4  2  0
  7 11  1  0
  7  6  1  0
  7  8  1  6
  9 10  2  0
  9  8  1  0
 11 14  1  0
 12 11  2  0
 13  9  1  0
 14 15  1  0
 15 21  1  0
 15 16  1  1
 17 16  1  0
 18 19  1  0
 18 17  1  0
 20 19  1  0
 21 23  1  0
 22 21  2  0
M  END
$$$$
