ADK.pdb
     RDKit          3D

 23 22  0  0  1  0  0  0  0  0999 V2000
    6.6785  -18.5014   16.6624 C   0  0  0  0  0  0  0  0  0  0  0  0
    6.9564  -17.8457   17.9954 C   0  0  2  0  0  0  0  0  0  0  0  0
    7.0009  -16.4155   17.8025 N   0  0  0  0  0  0  0  0  0  0  0  0
    8.2511  -18.3558   18.5467 C   0  0  0  0  0  0  0  0  0  0  0  0
    8.4193  -19.5725   18.7668 O   0  0  0  0  0  0  0  0  0  0  0  0
    9.3302  -17.4728   18.8369 N   0  0  0  0  0  0  0  0  0  0  0  0
   10.5795  -17.8880   19.4359 C   0  0  1  0  0  0  0  0  0  0  0  0
   11.7745  -17.5627   18.6125 C   0  0  0  0  0  0  0  0  0  0  0  0
   12.9896  -18.2125   19.1464 C   0  0  0  0  0  0  0  0  0  0  0  0
   13.0100  -19.0147   20.1151 O   0  0  0  0  0  0  0  0  0  0  0  0
   10.6810  -17.3763   20.8463 C   0  0  0  0  0  0  0  0  0  0  0  0
   10.8906  -16.1716   21.0466 O   0  0  0  0  0  0  0  0  0  0  0  0
   14.2132  -17.9299   18.5492 O   0  0  0  0  0  0  0  0  0  0  0  0
   10.5317  -18.3085   21.9079 N   0  0  0  0  0  0  0  0  0  0  0  0
   10.7969  -17.9375   23.2822 C   0  0  1  0  0  0  0  0  0  0  0  0
   10.8602  -19.1463   24.1866 C   0  0  0  0  0  0  0  0  0  0  0  0
   10.8519  -18.7656   25.6430 C   0  0  0  0  0  0  0  0  0  0  0  0
   11.0411  -19.9640   26.5304 C   0  0  0  0  0  0  0  0  0  0  0  0
   10.8746  -19.6433   28.0015 C   0  0  0  0  0  0  0  0  0  0  0  0
   11.0692  -20.8578   28.8098 N   0  0  0  0  0  0  0  0  0  0  0  0
   12.0257  -17.1077   23.3943 C   0  0  0  0  0  0  0  0  0  0  0  0
   11.9772  -15.9823   23.9513 O   0  0  0  0  0  0  0  0  0  0  0  0
   13.2609  -17.5142   22.9054 O   0  0  0  0  0  0  0  0  0  0  0  0
  2  1  1  6
  2  3  1  0
  4  6  1  0
  4  2  1  0
  5  4  2  0
  7 11  1  0
  7  6  1  0
  7  8  1  6
  9 10  2  0
  9  8  1  0
 11 14  1  0
 12 11  2  0
 13  9  1  0
 14 15  1  0
 15 21  1  0
 15 16  1  1
 17 16  1  0
 18 19  1  0
 18 17  1  0
 20 19  1  0
 21 23  1  0
 22 21  2  0
M  END
$$$$
