ADK.pdb
     RDKit          3D

 23 22  0  0  1  0  0  0  0  0999 V2000
    8.4533  -12.7624   19.4540 C   0  0  0  0  0  0  0  0  0  0  0  0
    8.4839  -14.2129   19.0304 C   0  0  2  0  0  0  0  0  0  0  0  0
    7.2119  -14.5429   18.4322 N   0  0  0  0  0  0  0  0  0  0  0  0
    8.7610  -15.0785   20.2197 C   0  0  0  0  0  0  0  0  0  0  0  0
    7.8576  -15.3574   21.0342 O   0  0  0  0  0  0  0  0  0  0  0  0
   10.0599  -15.6108   20.4601 N   0  0  0  0  0  0  0  0  0  0  0  0
   10.3808  -16.5056   21.5502 C   0  0  1  0  0  0  0  0  0  0  0  0
   11.6016  -17.3215   21.3144 C   0  0  0  0  0  0  0  0  0  0  0  0
   11.3612  -18.3707   20.3020 C   0  0  0  0  0  0  0  0  0  0  0  0
   11.8971  -18.4093   19.1645 O   0  0  0  0  0  0  0  0  0  0  0  0
   10.4190  -15.7542   22.8523 C   0  0  0  0  0  0  0  0  0  0  0  0
   11.3624  -14.9861   23.0880 O   0  0  0  0  0  0  0  0  0  0  0  0
   10.4796  -19.4018   20.6076 O   0  0  0  0  0  0  0  0  0  0  0  0
    9.3573  -15.9590   23.7737 N   0  0  0  0  0  0  0  0  0  0  0  0
    9.2345  -15.1600   24.9750 C   0  0  1  0  0  0  0  0  0  0  0  0
    7.9584  -14.3510   24.9818 C   0  0  0  0  0  0  0  0  0  0  0  0
    7.8592  -13.4592   26.1906 C   0  0  0  0  0  0  0  0  0  0  0  0
    6.5851  -12.6616   26.1879 C   0  0  0  0  0  0  0  0  0  0  0  0
    6.4857  -11.7013   27.3552 C   0  0  0  0  0  0  0  0  0  0  0  0
    5.1694  -11.0427   27.3585 N   0  0  0  0  0  0  0  0  0  0  0  0
    9.3571  -15.9956   26.1990 C   0  0  0  0  0  0  0  0  0  0  0  0
    9.2956  -15.4616   27.3349 O   0  0  0  0  0  0  0  0  0  0  0  0
    9.5409  -17.3720   26.1606 O   0  0  0  0  0  0  0  0  0  0  0  0
  2  1  1  1
  2  3  1  0
  4  6  1  0
  4  2  1  0
  5  4  2  0
  7 11  1  0
  7  6  1  0
  7  8  1  6
  9 10  2  0
  9  8  1  0
 11 14  1  0
 12 11  2  0
 13  9  1  0
 14 15  1  0
 15 21  1  0
 15 16  1  6
 17 16  1  0
 18 19  1  0
 18 17  1  0
 20 19  1  0
 21 23  1  0
 22 21  2  0
M  END
$$$$
