NIG.pdb
     RDKit          3D

 21 20  0  0  1  0  0  0  0  0999 V2000
    7.4828  -20.2722   17.2397 N   0  0  0  0  0  0  0  0  0  0  0  0
    7.6181  -20.3384   18.6458 C   0  0  0  0  0  0  0  0  0  0  0  0
    7.1651  -21.3194   19.2877 O   0  0  0  0  0  0  0  0  0  0  0  0
    8.2902  -19.2619   19.3797 C   0  0  0  0  0  0  0  0  0  0  0  0
    8.7013  -18.1153   18.5111 C   0  0  2  0  0  0  0  0  0  0  0  0
    9.6439  -18.4480   17.4993 N   0  0  0  0  0  0  0  0  0  0  0  0
    9.2760  -17.0596   19.4344 C   0  0  0  0  0  0  0  0  0  0  0  0
   10.5214  -17.0906   19.4901 O   0  0  0  0  0  0  0  0  0  0  0  0
    6.7125  -12.2258   19.8103 C   0  0  0  0  0  0  0  0  0  0  0  0
    7.8412  -13.2700   19.7938 C   0  0  0  0  0  0  0  0  0  0  0  0
    7.9219  -13.9962   21.1226 C   0  0  2  0  0  0  0  0  0  0  0  0
    8.3100  -13.0038   22.1934 C   0  0  0  0  0  0  0  0  0  0  0  0
    8.8654  -15.1530   21.1000 C   0  0  2  0  0  0  0  0  0  0  0  0
    8.4673  -16.1694   20.1284 N   0  0  0  0  0  0  0  0  0  0  0  0
    9.1879  -15.7547   22.3808 C   0  0  0  0  0  0  0  0  0  0  0  0
    8.3112  -16.5671   22.8845 O   0  0  0  0  0  0  0  0  0  0  0  0
   10.3413  -15.5876   23.1752 N   0  0  0  0  0  0  0  0  0  0  0  0
   10.4620  -16.3376   24.4281 C   0  0  0  0  0  0  0  0  0  0  0  0
   11.7401  -17.0788   24.4749 C   0  0  0  0  0  0  0  0  0  0  0  0
   12.6078  -17.0748   25.5478 O   0  0  0  0  0  0  0  0  0  0  0  0
   12.0490  -17.7557   23.4645 O   0  0  0  0  0  0  0  0  0  0  0  0
  2  3  2  0
  2  1  1  0
  4  2  1  0
  5  4  1  0
  5  6  1  6
  7 14  1  0
  7  5  1  0
  8  7  2  0
  9 10  1  0
 10 11  1  0
 11 12  1  1
 11 13  1  0
 13 14  1  6
 15 13  1  0
 15 17  1  0
 16 15  2  0
 18 17  1  0
 18 19  1  0
 19 20  1  0
 21 19  2  0
M  END
$$$$
