NIG.pdb
     RDKit          3D

 21 20  0  0  1  0  0  0  0  0999 V2000
    7.1483  -12.6289   18.5830 N   0  0  0  0  0  0  0  0  0  0  0  0
    7.8009  -13.7486   19.1487 C   0  0  0  0  0  0  0  0  0  0  0  0
    7.8850  -14.8299   18.5135 O   0  0  0  0  0  0  0  0  0  0  0  0
    8.3915  -13.6670   20.4880 C   0  0  0  0  0  0  0  0  0  0  0  0
    8.0752  -14.8473   21.3513 C   0  0  2  0  0  0  0  0  0  0  0  0
    6.6881  -15.1385   21.4700 N   0  0  0  0  0  0  0  0  0  0  0  0
    8.6666  -14.5540   22.7157 C   0  0  0  0  0  0  0  0  0  0  0  0
    9.8660  -14.2172   22.6617 O   0  0  0  0  0  0  0  0  0  0  0  0
    5.6349  -11.7447   26.0931 C   0  0  0  0  0  0  0  0  0  0  0  0
    6.8368  -12.3577   25.3552 C   0  0  0  0  0  0  0  0  0  0  0  0
    7.2738  -13.6494   26.0185 C   0  0  2  0  0  0  0  0  0  0  0  0
    7.7399  -13.3390   27.4216 C   0  0  0  0  0  0  0  0  0  0  0  0
    8.3324  -14.3709   25.2520 C   0  0  2  0  0  0  0  0  0  0  0  0
    7.9186  -14.6605   23.8807 N   0  0  0  0  0  0  0  0  0  0  0  0
    8.9056  -15.5459   25.8823 C   0  0  0  0  0  0  0  0  0  0  0  0
    9.3737  -15.3980   27.0828 O   0  0  0  0  0  0  0  0  0  0  0  0
    9.0276  -16.8560   25.3741 N   0  0  0  0  0  0  0  0  0  0  0  0
    9.4988  -17.9253   26.2580 C   0  0  0  0  0  0  0  0  0  0  0  0
   10.9673  -18.0704   26.1694 C   0  0  0  0  0  0  0  0  0  0  0  0
   11.7881  -17.2654   25.4064 O   0  0  0  0  0  0  0  0  0  0  0  0
   11.4948  -18.9921   26.8377 O   0  0  0  0  0  0  0  0  0  0  0  0
  2  3  2  0
  2  1  1  0
  4  2  1  0
  5  4  1  0
  5  6  1  1
  7 14  1  0
  7  5  1  0
  8  7  2  0
  9 10  1  0
 10 11  1  0
 11 12  1  1
 11 13  1  0
 13 14  1  6
 15 13  1  0
 15 17  1  0
 16 15  2  0
 18 17  1  0
 18 19  1  0
 19 20  1  0
 21 19  2  0
M  END
$$$$
