NIG.pdb
     RDKit          3D

 21 20  0  0  1  0  0  0  0  0999 V2000
    7.9441  -18.3604   19.7517 N   0  0  0  0  0  0  0  0  0  0  0  0
    7.1036  -17.4920   20.4859 C   0  0  0  0  0  0  0  0  0  0  0  0
    5.9431  -17.2292   20.0809 O   0  0  0  0  0  0  0  0  0  0  0  0
    7.5723  -16.8826   21.7341 C   0  0  0  0  0  0  0  0  0  0  0  0
    7.9413  -15.4398   21.5905 C   0  0  2  0  0  0  0  0  0  0  0  0
    8.8325  -15.1611   20.5177 N   0  0  0  0  0  0  0  0  0  0  0  0
    8.5619  -15.0206   22.9083 C   0  0  0  0  0  0  0  0  0  0  0  0
    9.8056  -14.9466   22.8563 O   0  0  0  0  0  0  0  0  0  0  0  0
    5.6377  -11.4645   25.7192 C   0  0  0  0  0  0  0  0  0  0  0  0
    6.8901  -12.1675   25.1693 C   0  0  0  0  0  0  0  0  0  0  0  0
    7.2222  -13.3970   25.9924 C   0  0  2  0  0  0  0  0  0  0  0  0
    7.6904  -12.9528   27.3582 C   0  0  0  0  0  0  0  0  0  0  0  0
    8.2356  -14.2794   25.3418 C   0  0  2  0  0  0  0  0  0  0  0  0
    7.7923  -14.7554   24.0332 N   0  0  0  0  0  0  0  0  0  0  0  0
    8.7585  -15.3706   26.1434 C   0  0  0  0  0  0  0  0  0  0  0  0
    9.2736  -15.0599   27.2923 O   0  0  0  0  0  0  0  0  0  0  0  0
    8.7859  -16.7509   25.8544 N   0  0  0  0  0  0  0  0  0  0  0  0
    9.2458  -17.6881   26.8824 C   0  0  0  0  0  0  0  0  0  0  0  0
   10.7152  -17.8426   26.8319 C   0  0  0  0  0  0  0  0  0  0  0  0
   11.4453  -18.6570   27.6731 O   0  0  0  0  0  0  0  0  0  0  0  0
   11.3325  -17.1835   25.9607 O   0  0  0  0  0  0  0  0  0  0  0  0
  2  3  2  0
  2  1  1  0
  4  2  1  0
  5  4  1  0
  5  6  1  6
  7 14  1  0
  7  5  1  0
  8  7  2  0
  9 10  1  0
 10 11  1  0
 11 12  1  1
 11 13  1  0
 13 14  1  6
 15 13  1  0
 15 17  1  0
 16 15  2  0
 18 17  1  0
 18 19  1  0
 19 20  1  0
 21 19  2  0
M  END
$$$$
