NIG.pdb
     RDKit          3D

 21 20  0  0  1  0  0  0  0  0999 V2000
    7.8960  -18.1981   19.1645 N   0  0  0  0  0  0  0  0  0  0  0  0
    7.2006  -17.6244   20.2539 C   0  0  0  0  0  0  0  0  0  0  0  0
    5.9441  -17.6001   20.2709 O   0  0  0  0  0  0  0  0  0  0  0  0
    7.9348  -17.0472   21.3840 C   0  0  0  0  0  0  0  0  0  0  0  0
    7.7917  -15.5618   21.4909 C   0  0  2  0  0  0  0  0  0  0  0  0
    8.2743  -14.8386   20.3653 N   0  0  0  0  0  0  0  0  0  0  0  0
    8.5415  -15.1456   22.7406 C   0  0  0  0  0  0  0  0  0  0  0  0
    9.7482  -14.9146   22.5274 O   0  0  0  0  0  0  0  0  0  0  0  0
    6.0845  -11.8410   25.9880 C   0  0  0  0  0  0  0  0  0  0  0  0
    7.2695  -12.5465   25.3075 C   0  0  0  0  0  0  0  0  0  0  0  0
    7.6618  -13.7967   26.0707 C   0  0  2  0  0  0  0  0  0  0  0  0
    8.3614  -13.3859   27.3450 C   0  0  0  0  0  0  0  0  0  0  0  0
    8.5127  -14.7267   25.2708 C   0  0  2  0  0  0  0  0  0  0  0  0
    7.9149  -15.0437   23.9756 N   0  0  0  0  0  0  0  0  0  0  0  0
    8.9703  -15.9297   25.9417 C   0  0  0  0  0  0  0  0  0  0  0  0
    8.0596  -16.7698   26.3252 O   0  0  0  0  0  0  0  0  0  0  0  0
   10.2883  -16.3328   26.2412 N   0  0  0  0  0  0  0  0  0  0  0  0
   10.5192  -17.6690   26.7962 C   0  0  0  0  0  0  0  0  0  0  0  0
   10.6389  -17.6121   28.2686 C   0  0  0  0  0  0  0  0  0  0  0  0
   10.4306  -16.4784   29.0270 O   0  0  0  0  0  0  0  0  0  0  0  0
   10.9521  -18.6730   28.8609 O   0  0  0  0  0  0  0  0  0  0  0  0
  2  3  2  0
  2  1  1  0
  4  2  1  0
  5  4  1  0
  5  6  1  6
  7 14  1  0
  7  5  1  0
  8  7  2  0
  9 10  1  0
 10 11  1  0
 11 12  1  1
 11 13  1  0
 13 14  1  6
 15 13  1  0
 15 17  1  0
 16 15  2  0
 18 17  1  0
 18 19  1  0
 19 20  1  0
 21 19  2  0
M  END
$$$$
