AQG.pdb
     RDKit          3D

 19 18  0  0  1  0  0  0  0  0999 V2000
   19.7338  -13.1105  -18.1571 C   0  0  0  0  0  0  0  0  0  0  0  0
   20.2950  -12.5327  -16.8760 C   0  0  2  0  0  0  0  0  0  0  0  0
   19.6099  -13.0431  -15.7173 N   0  0  0  0  0  0  0  0  0  0  0  0
   20.3003  -11.0388  -16.9017 C   0  0  0  0  0  0  0  0  0  0  0  0
   20.8970  -10.3993  -17.8050 O   0  0  0  0  0  0  0  0  0  0  0  0
   15.5622   -7.3823  -15.7249 N   0  0  0  0  0  0  0  0  0  0  0  0
   16.1280   -7.5575  -17.0067 C   0  0  0  0  0  0  0  0  0  0  0  0
   15.4298   -7.2919  -18.0118 O   0  0  0  0  0  0  0  0  0  0  0  0
   17.5102   -8.0415  -17.2056 C   0  0  0  0  0  0  0  0  0  0  0  0
   18.1387   -8.3248  -15.8814 C   0  0  0  0  0  0  0  0  0  0  0  0
   19.5651   -8.8245  -16.0112 C   0  0  2  0  0  0  0  0  0  0  0  0
   19.6331  -10.2665  -15.9093 N   0  0  0  0  0  0  0  0  0  0  0  0
   20.3288   -8.2497  -14.8849 C   0  0  0  0  0  0  0  0  0  0  0  0
   20.4972   -8.9345  -13.8504 O   0  0  0  0  0  0  0  0  0  0  0  0
   20.8738   -6.9286  -14.9639 N   0  0  0  0  0  0  0  0  0  0  0  0
   21.6728   -6.4539  -13.8511 C   0  0  0  0  0  0  0  0  0  0  0  0
   22.2224   -5.1068  -14.1034 C   0  0  0  0  0  0  0  0  0  0  0  0
   22.8548   -4.5246  -13.1916 O   0  0  0  0  0  0  0  0  0  0  0  0
   22.0205   -4.5300  -15.3422 O   0  0  0  0  0  0  0  0  0  0  0  0
  2  3  1  0
  2  1  1  6
  4  2  1  0
  5  4  2  0
  6  7  1  0
  7  8  2  0
  7  9  1  0
  9 10  1  0
 11 10  1  1
 11 13  1  0
 11 12  1  0
 12  4  1  0
 13 15  1  0
 14 13  2  0
 15 16  1  0
 17 19  1  0
 17 16  1  0
 18 17  2  0
M  END
$$$$
