AQG.pdb
     RDKit          3D

 19 18  0  0  1  0  0  0  0  0999 V2000
   15.9102   -6.6477   -9.3073 C   0  0  0  0  0  0  0  0  0  0  0  0
   15.9311   -7.8379  -10.2417 C   0  0  2  0  0  0  0  0  0  0  0  0
   15.4409   -9.0285   -9.5978 N   0  0  0  0  0  0  0  0  0  0  0  0
   17.2861   -8.0483  -10.8351 C   0  0  0  0  0  0  0  0  0  0  0  0
   18.2115   -8.5951  -10.1828 O   0  0  0  0  0  0  0  0  0  0  0  0
   17.9376  -10.4588  -15.9860 N   0  0  0  0  0  0  0  0  0  0  0  0
   19.2872  -10.3955  -15.5756 C   0  0  0  0  0  0  0  0  0  0  0  0
   20.0815  -11.2705  -15.9898 O   0  0  0  0  0  0  0  0  0  0  0  0
   19.7957   -9.3375  -14.6776 C   0  0  0  0  0  0  0  0  0  0  0  0
   18.6596   -8.4948  -14.2005 C   0  0  0  0  0  0  0  0  0  0  0  0
   18.8559   -8.0084  -12.7770 C   0  0  2  0  0  0  0  0  0  0  0  0
   17.5974   -7.6421  -12.1635 N   0  0  0  0  0  0  0  0  0  0  0  0
   19.7005   -6.7984  -12.8461 C   0  0  0  0  0  0  0  0  0  0  0  0
   19.1557   -5.6838  -13.0139 O   0  0  0  0  0  0  0  0  0  0  0  0
   21.1238   -6.8869  -12.7240 N   0  0  0  0  0  0  0  0  0  0  0  0
   21.8876   -5.6549  -12.7518 C   0  0  0  0  0  0  0  0  0  0  0  0
   22.1033   -5.1721  -14.1304 C   0  0  0  0  0  0  0  0  0  0  0  0
   21.6247   -5.8239  -15.0877 O   0  0  0  0  0  0  0  0  0  0  0  0
   22.8290   -4.0122  -14.3205 O   0  0  0  0  0  0  0  0  0  0  0  0
  2  3  1  0
  2  1  1  1
  4  2  1  0
  5  4  2  0
  6  7  1  0
  7  8  2  0
  7  9  1  0
  9 10  1  0
 11 10  1  6
 11 13  1  0
 11 12  1  0
 12  4  1  0
 13 15  1  0
 14 13  2  0
 15 16  1  0
 17 19  1  0
 17 16  1  0
 18 17  2  0
M  END
$$$$
