AQG.pdb
     RDKit          3D

 19 18  0  0  1  0  0  0  0  0999 V2000
   26.6697  -36.7379  -13.4664 C   0  0  0  0  0  0  0  0  0  0  0  0
   26.9039  -35.2805  -13.1327 C   0  0  2  0  0  0  0  0  0  0  0  0
   27.7879  -34.6533  -14.0800 N   0  0  0  0  0  0  0  0  0  0  0  0
   27.3850  -35.1076  -11.7289 C   0  0  0  0  0  0  0  0  0  0  0  0
   28.5978  -35.2476  -11.4279 O   0  0  0  0  0  0  0  0  0  0  0  0
   25.0003  -31.2920   -7.4102 N   0  0  0  0  0  0  0  0  0  0  0  0
   26.0724  -31.9188   -6.7381 C   0  0  0  0  0  0  0  0  0  0  0  0
   26.4206  -31.4751   -5.6200 O   0  0  0  0  0  0  0  0  0  0  0  0
   26.7967  -33.0761   -7.3038 C   0  0  0  0  0  0  0  0  0  0  0  0
   26.2401  -33.4087   -8.6485 C   0  0  0  0  0  0  0  0  0  0  0  0
   27.0002  -34.5311   -9.3296 C   0  0  2  0  0  0  0  0  0  0  0  0
   26.4991  -34.7768  -10.6648 N   0  0  0  0  0  0  0  0  0  0  0  0
   26.7807  -35.7515   -8.5267 C   0  0  0  0  0  0  0  0  0  0  0  0
   25.7863  -36.4715   -8.7718 O   0  0  0  0  0  0  0  0  0  0  0  0
   27.6862  -36.1161   -7.4800 N   0  0  0  0  0  0  0  0  0  0  0  0
   27.4046  -37.3212   -6.7249 C   0  0  0  0  0  0  0  0  0  0  0  0
   28.4476  -37.5950   -5.7161 C   0  0  0  0  0  0  0  0  0  0  0  0
   29.3854  -36.7768   -5.5697 O   0  0  0  0  0  0  0  0  0  0  0  0
   28.3549  -38.7495   -4.9634 O   0  0  0  0  0  0  0  0  0  0  0  0
  2  3  1  0
  2  1  1  6
  4  2  1  0
  5  4  2  0
  6  7  1  0
  7  8  2  0
  7  9  1  0
  9 10  1  0
 11 10  1  1
 11 13  1  0
 11 12  1  0
 12  4  1  0
 13 15  1  0
 14 13  2  0
 15 16  1  0
 17 19  1  0
 17 16  1  0
 18 17  2  0
M  END
$$$$
