AQG.pdb
     RDKit          3D

 19 18  0  0  1  0  0  0  0  0999 V2000
   17.7024  -10.5306  -14.0070 C   0  0  0  0  0  0  0  0  0  0  0  0
   17.7979   -9.3940  -15.0016 C   0  0  2  0  0  0  0  0  0  0  0  0
   18.2363   -9.8531  -16.2936 N   0  0  0  0  0  0  0  0  0  0  0  0
   18.6566   -8.2842  -14.4885 C   0  0  0  0  0  0  0  0  0  0  0  0
   18.4926   -7.8046  -13.3378 O   0  0  0  0  0  0  0  0  0  0  0  0
   22.1380   -9.4385  -16.0339 N   0  0  0  0  0  0  0  0  0  0  0  0
   22.5676   -9.2717  -14.6992 C   0  0  0  0  0  0  0  0  0  0  0  0
   23.0332  -10.2623  -14.0908 O   0  0  0  0  0  0  0  0  0  0  0  0
   22.4883   -7.9745  -13.9954 C   0  0  0  0  0  0  0  0  0  0  0  0
   21.9938   -6.9236  -14.9332 C   0  0  0  0  0  0  0  0  0  0  0  0
   20.5147   -6.6370  -14.7556 C   0  0  2  0  0  0  0  0  0  0  0  0
   19.6998   -7.7155  -15.2726 N   0  0  0  0  0  0  0  0  0  0  0  0
   20.2130   -5.4204  -15.5372 C   0  0  0  0  0  0  0  0  0  0  0  0
   19.9210   -5.5318  -16.7496 O   0  0  0  0  0  0  0  0  0  0  0  0
   20.2509   -4.1261  -14.9275 N   0  0  0  0  0  0  0  0  0  0  0  0
   19.9144   -2.9776  -15.7458 C   0  0  0  0  0  0  0  0  0  0  0  0
   19.8945   -1.7282  -14.9591 C   0  0  0  0  0  0  0  0  0  0  0  0
   18.9599   -1.5323  -14.1475 O   0  0  0  0  0  0  0  0  0  0  0  0
   20.9115   -0.8120  -15.1444 O   0  0  0  0  0  0  0  0  0  0  0  0
  2  3  1  0
  2  1  1  1
  4  2  1  0
  5  4  2  0
  6  7  1  0
  7  8  2  0
  7  9  1  0
  9 10  1  0
 11 10  1  6
 11 13  1  0
 11 12  1  0
 12  4  1  0
 13 15  1  0
 14 13  2  0
 15 16  1  0
 17 19  1  0
 17 16  1  0
 18 17  2  0
M  END
$$$$
