AQG.pdb
     RDKit          3D

 19 18  0  0  1  0  0  0  0  0999 V2000
   18.7101   -9.9077  -16.6180 C   0  0  0  0  0  0  0  0  0  0  0  0
   19.9007  -10.8418  -16.6230 C   0  0  2  0  0  0  0  0  0  0  0  0
   19.5735  -12.1238  -16.0557 N   0  0  0  0  0  0  0  0  0  0  0  0
   21.0858  -10.2267  -15.9525 C   0  0  0  0  0  0  0  0  0  0  0  0
   21.2252  -10.2606  -14.7033 O   0  0  0  0  0  0  0  0  0  0  0  0
   26.7826   -9.8466  -15.2665 N   0  0  0  0  0  0  0  0  0  0  0  0
   26.1026  -10.9243  -15.8747 C   0  0  0  0  0  0  0  0  0  0  0  0
   26.5291  -12.0863  -15.6848 O   0  0  0  0  0  0  0  0  0  0  0  0
   24.9091  -10.7322  -16.7249 C   0  0  0  0  0  0  0  0  0  0  0  0
   24.5457   -9.2847  -16.7609 C   0  0  0  0  0  0  0  0  0  0  0  0
   23.2555   -8.9917  -16.0186 C   0  0  2  0  0  0  0  0  0  0  0  0
   22.1134   -9.5738  -16.6903 N   0  0  0  0  0  0  0  0  0  0  0  0
   23.0838   -7.5246  -16.0123 C   0  0  0  0  0  0  0  0  0  0  0  0
   22.7108   -6.9502  -17.0604 O   0  0  0  0  0  0  0  0  0  0  0  0
   23.3374   -6.7593  -14.8297 N   0  0  0  0  0  0  0  0  0  0  0  0
   23.0030   -5.3488  -14.8465 C   0  0  0  0  0  0  0  0  0  0  0  0
   21.7708   -5.0662  -14.0834 C   0  0  0  0  0  0  0  0  0  0  0  0
   21.1021   -6.0228  -13.6270 O   0  0  0  0  0  0  0  0  0  0  0  0
   21.3938   -3.7505  -13.8967 O   0  0  0  0  0  0  0  0  0  0  0  0
  2  3  1  0
  2  1  1  1
  4  2  1  0
  5  4  2  0
  6  7  1  0
  7  8  2  0
  7  9  1  0
  9 10  1  0
 11 10  1  6
 11 13  1  0
 11 12  1  0
 12  4  1  0
 13 15  1  0
 14 13  2  0
 15 16  1  0
 17 19  1  0
 17 16  1  0
 18 17  2  0
M  END
$$$$
