AQG.pdb
     RDKit          3D

 19 18  0  0  1  0  0  0  0  0999 V2000
   21.7787  -17.4163  -18.8618 C   0  0  0  0  0  0  0  0  0  0  0  0
   21.4983  -15.9944  -18.4263 C   0  0  2  0  0  0  0  0  0  0  0  0
   22.6281  -15.4124  -17.7502 N   0  0  0  0  0  0  0  0  0  0  0  0
   20.2551  -15.9061  -17.6022 C   0  0  0  0  0  0  0  0  0  0  0  0
   19.1413  -16.2787  -18.0510 O   0  0  0  0  0  0  0  0  0  0  0  0
   19.2436  -17.2436  -11.7177 N   0  0  0  0  0  0  0  0  0  0  0  0
   19.0283  -18.0285  -12.8716 C   0  0  0  0  0  0  0  0  0  0  0  0
   18.8627  -19.2623  -12.7352 O   0  0  0  0  0  0  0  0  0  0  0  0
   18.9912  -17.4494  -14.2308 C   0  0  0  0  0  0  0  0  0  0  0  0
   19.1816  -15.9708  -14.1522 C   0  0  0  0  0  0  0  0  0  0  0  0
   19.0460  -15.2958  -15.5040 C   0  0  2  0  0  0  0  0  0  0  0  0
   20.2680  -15.3977  -16.2726 N   0  0  0  0  0  0  0  0  0  0  0  0
   18.7844  -13.8646  -15.2483 C   0  0  0  0  0  0  0  0  0  0  0  0
   17.8280  -13.5429  -14.5072 O   0  0  0  0  0  0  0  0  0  0  0  0
   19.6066  -12.8502  -15.8345 N   0  0  0  0  0  0  0  0  0  0  0  0
   19.3491  -11.4705  -15.4712 C   0  0  0  0  0  0  0  0  0  0  0  0
   18.5933  -10.7571  -16.5201 C   0  0  0  0  0  0  0  0  0  0  0  0
   18.1896  -11.3931  -17.5215 O   0  0  0  0  0  0  0  0  0  0  0  0
   18.3549   -9.4057  -16.3622 O   0  0  0  0  0  0  0  0  0  0  0  0
  2  3  1  0
  2  1  1  1
  4  2  1  0
  5  4  2  0
  6  7  1  0
  7  8  2  0
  7  9  1  0
  9 10  1  0
 11 10  1  1
 11 13  1  0
 11 12  1  0
 12  4  1  0
 13 15  1  0
 14 13  2  0
 15 16  1  0
 17 19  1  0
 17 16  1  0
 18 17  2  0
M  END
$$$$
