AQG.pdb
     RDKit          3D

 19 18  0  0  1  0  0  0  0  0999 V2000
   26.1483  -18.7357  -18.1521 C   0  0  0  0  0  0  0  0  0  0  0  0
   26.8338  -19.4336  -16.9975 C   0  0  2  0  0  0  0  0  0  0  0  0
   27.5162  -20.6264  -17.4264 N   0  0  0  0  0  0  0  0  0  0  0  0
   25.8825  -19.7125  -15.8797 C   0  0  0  0  0  0  0  0  0  0  0  0
   25.1035  -18.8271  -15.4434 O   0  0  0  0  0  0  0  0  0  0  0  0
   21.5888  -21.5608  -15.0177 N   0  0  0  0  0  0  0  0  0  0  0  0
   21.7728  -22.0884  -13.7209 C   0  0  0  0  0  0  0  0  0  0  0  0
   20.8053  -22.0763  -12.9257 O   0  0  0  0  0  0  0  0  0  0  0  0
   23.0614  -22.6530  -13.2684 C   0  0  0  0  0  0  0  0  0  0  0  0
   24.0905  -22.4739  -14.3350 C   0  0  0  0  0  0  0  0  0  0  0  0
   24.9199  -21.2193  -14.1362 C   0  0  2  0  0  0  0  0  0  0  0  0
   25.8096  -20.9891  -15.2541 N   0  0  0  0  0  0  0  0  0  0  0  0
   25.7460  -21.4336  -12.9305 C   0  0  0  0  0  0  0  0  0  0  0  0
   26.9924  -21.4681  -13.0441 O   0  0  0  0  0  0  0  0  0  0  0  0
   25.1409  -21.6007  -11.6443 N   0  0  0  0  0  0  0  0  0  0  0  0
   25.9910  -21.5043  -10.4739 C   0  0  0  0  0  0  0  0  0  0  0  0
   25.5388  -20.4440   -9.5510 C   0  0  0  0  0  0  0  0  0  0  0  0
   24.5331  -19.7598   -9.8527 O   0  0  0  0  0  0  0  0  0  0  0  0
   26.2424  -20.2402   -8.3799 O   0  0  0  0  0  0  0  0  0  0  0  0
  2  3  1  0
  2  1  1  6
  4  2  1  0
  5  4  2  0
  6  7  1  0
  7  8  2  0
  7  9  1  0
  9 10  1  0
 11 10  1  6
 11 13  1  0
 11 12  1  0
 12  4  1  0
 13 15  1  0
 14 13  2  0
 15 16  1  0
 17 19  1  0
 17 16  1  0
 18 17  2  0
M  END
$$$$
