AQG.pdb
     RDKit          3D

 19 18  0  0  1  0  0  0  0  0999 V2000
   17.4617  -10.3464  -17.7149 C   0  0  0  0  0  0  0  0  0  0  0  0
   18.7251  -11.1784  -17.6721 C   0  0  2  0  0  0  0  0  0  0  0  0
   18.4420  -12.5615  -17.3908 N   0  0  0  0  0  0  0  0  0  0  0  0
   19.7246  -10.6130  -16.7162 C   0  0  0  0  0  0  0  0  0  0  0  0
   19.5094  -10.5901  -15.4776 O   0  0  0  0  0  0  0  0  0  0  0  0
   25.7083  -11.5224  -16.4976 N   0  0  0  0  0  0  0  0  0  0  0  0
   25.5710  -10.4496  -15.5898 C   0  0  0  0  0  0  0  0  0  0  0  0
   26.5660  -10.1079  -14.9104 O   0  0  0  0  0  0  0  0  0  0  0  0
   24.2999   -9.7170  -15.4122 C   0  0  0  0  0  0  0  0  0  0  0  0
   23.2790  -10.2438  -16.3655 C   0  0  0  0  0  0  0  0  0  0  0  0
   21.9326   -9.5624  -16.2088 C   0  0  2  0  0  0  0  0  0  0  0  0
   20.9661  -10.0736  -17.1569 N   0  0  0  0  0  0  0  0  0  0  0  0
   22.1383   -8.1277  -16.4937 C   0  0  0  0  0  0  0  0  0  0  0  0
   22.3054   -7.7595  -17.6787 O   0  0  0  0  0  0  0  0  0  0  0  0
   22.1485   -7.1620  -15.4374 N   0  0  0  0  0  0  0  0  0  0  0  0
   22.4234   -5.7804  -15.7802 C   0  0  0  0  0  0  0  0  0  0  0  0
   22.2751   -4.8844  -14.6159 C   0  0  0  0  0  0  0  0  0  0  0  0
   22.6022   -3.6798  -14.7266 O   0  0  0  0  0  0  0  0  0  0  0  0
   21.7783   -5.4061  -13.4372 O   0  0  0  0  0  0  0  0  0  0  0  0
  2  3  1  0
  2  1  1  1
  4  2  1  0
  5  4  2  0
  6  7  1  0
  7  8  2  0
  7  9  1  0
  9 10  1  0
 11 10  1  6
 11 13  1  0
 11 12  1  0
 12  4  1  0
 13 15  1  0
 14 13  2  0
 15 16  1  0
 17 19  1  0
 17 16  1  0
 18 17  2  0
M  END
$$$$
