NNI.pdb
     RDKit          3D

 25 24  0  0  1  0  0  0  0  0999 V2000
    8.4610  -13.0259   17.1802 N   0  0  0  0  0  0  0  0  0  0  0  0
    7.9383  -14.3184   16.9455 C   0  0  0  0  0  0  0  0  0  0  0  0
    7.9275  -14.7722   15.7839 O   0  0  0  0  0  0  0  0  0  0  0  0
    7.4112  -15.1261   18.0511 C   0  0  0  0  0  0  0  0  0  0  0  0
    7.9290  -14.5519   19.3650 C   0  0  2  0  0  0  0  0  0  0  0  0
    9.3691  -14.6003   19.3466 N   0  0  0  0  0  0  0  0  0  0  0  0
    7.3331  -15.3141   20.4636 C   0  0  0  0  0  0  0  0  0  0  0  0
    6.3149  -16.0249   20.2638 O   0  0  0  0  0  0  0  0  0  0  0  0
    5.6534  -18.8897   24.0082 N   0  0  0  0  0  0  0  0  0  0  0  0
    6.9032  -18.3330   23.7159 C   0  0  0  0  0  0  0  0  0  0  0  0
    7.8546  -18.5824   24.5107 O   0  0  0  0  0  0  0  0  0  0  0  0
    7.2305  -17.4731   22.5595 C   0  0  0  0  0  0  0  0  0  0  0  0
    7.2285  -16.0009   22.8859 C   0  0  2  0  0  0  0  0  0  0  0  0
    7.8524  -15.2986   21.7861 N   0  0  0  0  0  0  0  0  0  0  0  0
    8.0791  -15.8009   24.0974 C   0  0  0  0  0  0  0  0  0  0  0  0
    9.2839  -16.1053   24.0591 O   0  0  0  0  0  0  0  0  0  0  0  0
    6.2330  -11.4346   26.2404 C   0  0  0  0  0  0  0  0  0  0  0  0
    7.0674  -12.5368   25.6528 C   0  0  0  0  0  0  0  0  0  0  0  0
    7.6885  -13.3672   26.7423 C   0  0  2  0  0  0  0  0  0  0  0  0
    8.5456  -12.5046   27.6201 C   0  0  0  0  0  0  0  0  0  0  0  0
    8.4423  -14.5643   26.2036 C   0  0  2  0  0  0  0  0  0  0  0  0
    7.5612  -15.2707   25.3060 N   0  0  0  0  0  0  0  0  0  0  0  0
    8.8967  -15.4729   27.2661 C   0  0  0  0  0  0  0  0  0  0  0  0
    8.1880  -16.4668   27.5612 O   0  0  0  0  0  0  0  0  0  0  0  0
   10.0729  -15.3164   27.9851 O   0  0  0  0  0  0  0  0  0  0  0  0
  2  3  2  0
  2  1  1  0
  4  2  1  0
  5  4  1  0
  5  6  1  6
  7  5  1  0
  8  7  2  0
  9 10  1  0
 10 12  1  0
 11 10  2  0
 13 12  1  6
 13 14  1  0
 14  7  1  0
 15 22  1  0
 15 13  1  0
 16 15  2  0
 18 17  1  0
 19 21  1  0
 19 18  1  0
 19 20  1  6
 21 23  1  0
 21 22  1  6
 23 25  1  0
 24 23  2  0
M  END
$$$$
