NNI.pdb
     RDKit          3D

 25 24  0  0  1  0  0  0  0  0999 V2000
    7.6843  -12.3076   16.6833 N   0  0  0  0  0  0  0  0  0  0  0  0
    7.8460  -13.6969   16.8902 C   0  0  0  0  0  0  0  0  0  0  0  0
    8.4331  -14.3796   16.0273 O   0  0  0  0  0  0  0  0  0  0  0  0
    7.3316  -14.3388   18.1051 C   0  0  0  0  0  0  0  0  0  0  0  0
    8.2472  -13.9818   19.2707 C   0  0  2  0  0  0  0  0  0  0  0  0
    9.6135  -14.1381   18.8404 N   0  0  0  0  0  0  0  0  0  0  0  0
    7.8922  -14.8323   20.4081 C   0  0  0  0  0  0  0  0  0  0  0  0
    6.7132  -14.8473   20.8458 O   0  0  0  0  0  0  0  0  0  0  0  0
   10.0505  -19.3768   23.9546 N   0  0  0  0  0  0  0  0  0  0  0  0
    9.0499  -18.6593   23.2904 C   0  0  0  0  0  0  0  0  0  0  0  0
    7.8675  -18.7650   23.7262 O   0  0  0  0  0  0  0  0  0  0  0  0
    9.2343  -17.7795   22.1176 C   0  0  0  0  0  0  0  0  0  0  0  0
    8.4936  -16.4704   22.2261 C   0  0  2  0  0  0  0  0  0  0  0  0
    8.8304  -15.6694   21.0698 N   0  0  0  0  0  0  0  0  0  0  0  0
    8.9993  -15.7591   23.4383 C   0  0  0  0  0  0  0  0  0  0  0  0
   10.1611  -15.3164   23.4507 O   0  0  0  0  0  0  0  0  0  0  0  0
    6.2366  -11.9633   25.6407 C   0  0  0  0  0  0  0  0  0  0  0  0
    7.2849  -12.9074   25.1248 C   0  0  0  0  0  0  0  0  0  0  0  0
    7.7021  -13.8722   26.2008 C   0  0  2  0  0  0  0  0  0  0  0  0
    8.1471  -13.1207   27.4200 C   0  0  0  0  0  0  0  0  0  0  0  0
    8.7454  -14.8600   25.7240 C   0  0  2  0  0  0  0  0  0  0  0  0
    8.1973  -15.5654   24.5912 N   0  0  0  0  0  0  0  0  0  0  0  0
    9.1320  -15.8228   26.7653 C   0  0  0  0  0  0  0  0  0  0  0  0
    8.3954  -16.8175   26.9780 O   0  0  0  0  0  0  0  0  0  0  0  0
   10.2715  -15.7179   27.5496 O   0  0  0  0  0  0  0  0  0  0  0  0
  2  3  2  0
  2  1  1  0
  4  2  1  0
  5  4  1  0
  5  6  1  6
  7  5  1  0
  8  7  2  0
  9 10  1  0
 10 12  1  0
 11 10  2  0
 13 12  1  6
 13 14  1  0
 14  7  1  0
 15 22  1  0
 15 13  1  0
 16 15  2  0
 18 17  1  0
 19 21  1  0
 19 18  1  0
 19 20  1  1
 21 23  1  0
 21 22  1  6
 23 25  1  0
 24 23  2  0
M  END
$$$$
