NNI.pdb
     RDKit          3D

 25 24  0  0  1  0  0  0  0  0999 V2000
   10.0651  -16.6786   16.5579 N   0  0  0  0  0  0  0  0  0  0  0  0
    8.7261  -17.1271   16.6280 C   0  0  0  0  0  0  0  0  0  0  0  0
    8.1338  -17.4509   15.5794 O   0  0  0  0  0  0  0  0  0  0  0  0
    8.0311  -17.2141   17.9172 C   0  0  0  0  0  0  0  0  0  0  0  0
    8.9527  -16.6756   19.0057 C   0  0  2  0  0  0  0  0  0  0  0  0
   10.0661  -17.5794   19.1474 N   0  0  0  0  0  0  0  0  0  0  0  0
    8.1688  -16.5181   20.2319 C   0  0  0  0  0  0  0  0  0  0  0  0
    7.0863  -15.8779   20.2154 O   0  0  0  0  0  0  0  0  0  0  0  0
    7.5641  -20.4599   21.9632 N   0  0  0  0  0  0  0  0  0  0  0  0
    7.0349  -19.3710   22.6641 C   0  0  0  0  0  0  0  0  0  0  0  0
    5.7759  -19.2624   22.7117 O   0  0  0  0  0  0  0  0  0  0  0  0
    7.8048  -18.3214   23.3636 C   0  0  0  0  0  0  0  0  0  0  0  0
    7.7568  -16.9809   22.6745 C   0  0  2  0  0  0  0  0  0  0  0  0
    8.5703  -17.0625   21.4814 N   0  0  0  0  0  0  0  0  0  0  0  0
    8.3819  -15.9765   23.5864 C   0  0  0  0  0  0  0  0  0  0  0  0
    9.6198  -15.8667   23.6231 O   0  0  0  0  0  0  0  0  0  0  0  0
    6.9119  -10.8592   26.6182 C   0  0  0  0  0  0  0  0  0  0  0  0
    7.8988  -11.9737   26.4178 C   0  0  0  0  0  0  0  0  0  0  0  0
    7.2871  -13.0807   25.6037 C   0  0  2  0  0  0  0  0  0  0  0  0
    6.0650  -13.6102   26.2931 C   0  0  0  0  0  0  0  0  0  0  0  0
    8.2783  -14.1760   25.2731 C   0  0  2  0  0  0  0  0  0  0  0  0
    7.6102  -15.1314   24.4233 N   0  0  0  0  0  0  0  0  0  0  0  0
    8.7925  -14.8555   26.4710 C   0  0  0  0  0  0  0  0  0  0  0  0
    9.5641  -14.2314   27.2405 O   0  0  0  0  0  0  0  0  0  0  0  0
    8.4861  -16.1609   26.8272 O   0  0  0  0  0  0  0  0  0  0  0  0
  2  3  2  0
  2  1  1  0
  4  2  1  0
  5  4  1  0
  5  6  1  1
  7  5  1  0
  8  7  2  0
  9 10  1  0
 10 12  1  0
 11 10  2  0
 13 12  1  1
 13 14  1  0
 14  7  1  0
 15 22  1  0
 15 13  1  0
 16 15  2  0
 18 17  1  0
 19 21  1  0
 19 18  1  0
 19 20  1  1
 21 23  1  0
 21 22  1  6
 23 25  1  0
 24 23  2  0
M  END
$$$$
