NNI.pdb
     RDKit          3D

 25 24  0  0  1  0  0  0  0  0999 V2000
    8.5664  -12.8417   17.2288 N   0  0  0  0  0  0  0  0  0  0  0  0
    8.2731  -14.2101   17.0277 C   0  0  0  0  0  0  0  0  0  0  0  0
    7.8608  -14.5901   15.9138 O   0  0  0  0  0  0  0  0  0  0  0  0
    8.4488  -15.1818   18.1130 C   0  0  0  0  0  0  0  0  0  0  0  0
    7.5195  -14.8043   19.2611 C   0  0  2  0  0  0  0  0  0  0  0  0
    7.8033  -13.4456   19.6482 N   0  0  0  0  0  0  0  0  0  0  0  0
    7.7124  -15.7720   20.3425 C   0  0  0  0  0  0  0  0  0  0  0  0
    7.3335  -16.9631   20.2034 O   0  0  0  0  0  0  0  0  0  0  0  0
   10.9282  -15.5075   21.4951 N   0  0  0  0  0  0  0  0  0  0  0  0
   10.6637  -16.8564   21.7552 C   0  0  0  0  0  0  0  0  0  0  0  0
   11.5601  -17.6963   21.4549 O   0  0  0  0  0  0  0  0  0  0  0  0
    9.4297  -17.4081   22.3524 C   0  0  0  0  0  0  0  0  0  0  0  0
    8.4050  -16.3558   22.6940 C   0  0  2  0  0  0  0  0  0  0  0  0
    8.3216  -15.4356   21.5812 N   0  0  0  0  0  0  0  0  0  0  0  0
    8.9077  -15.5969   23.8783 C   0  0  0  0  0  0  0  0  0  0  0  0
   10.0826  -15.1904   23.8939 O   0  0  0  0  0  0  0  0  0  0  0  0
    5.7302  -12.0681   25.9659 C   0  0  0  0  0  0  0  0  0  0  0  0
    6.8552  -12.9178   25.4476 C   0  0  0  0  0  0  0  0  0  0  0  0
    7.5626  -13.6068   26.5823 C   0  0  2  0  0  0  0  0  0  0  0  0
    8.0993  -12.5904   27.5456 C   0  0  0  0  0  0  0  0  0  0  0  0
    8.6329  -14.5649   26.1047 C   0  0  2  0  0  0  0  0  0  0  0  0
    8.0882  -15.3173   25.0009 N   0  0  0  0  0  0  0  0  0  0  0  0
    9.0790  -15.4874   27.1587 C   0  0  0  0  0  0  0  0  0  0  0  0
    8.5281  -16.6117   27.2565 O   0  0  0  0  0  0  0  0  0  0  0  0
   10.0829  -15.2085   28.0748 O   0  0  0  0  0  0  0  0  0  0  0  0
  2  3  2  0
  2  1  1  0
  4  2  1  0
  5  4  1  0
  5  6  1  1
  7  5  1  0
  8  7  2  0
  9 10  1  0
 10 12  1  0
 11 10  2  0
 13 12  1  6
 13 14  1  0
 14  7  1  0
 15 22  1  0
 15 13  1  0
 16 15  2  0
 18 17  1  0
 19 21  1  0
 19 18  1  0
 19 20  1  1
 21 23  1  0
 21 22  1  6
 23 25  1  0
 24 23  2  0
M  END
$$$$
