NNI.pdb
     RDKit          3D

 25 24  0  0  1  0  0  0  0  0999 V2000
    9.2652  -12.9985   16.9709 N   0  0  0  0  0  0  0  0  0  0  0  0
    7.9986  -13.6267   16.9842 C   0  0  0  0  0  0  0  0  0  0  0  0
    7.3442  -13.7065   15.9256 O   0  0  0  0  0  0  0  0  0  0  0  0
    7.4505  -14.1826   18.2265 C   0  0  0  0  0  0  0  0  0  0  0  0
    8.4843  -14.0145   19.3342 C   0  0  2  0  0  0  0  0  0  0  0  0
    9.7316  -14.5767   18.8817 N   0  0  0  0  0  0  0  0  0  0  0  0
    7.9633  -14.6491   20.5461 C   0  0  0  0  0  0  0  0  0  0  0  0
    6.8435  -14.3112   21.0083 O   0  0  0  0  0  0  0  0  0  0  0  0
    8.0353  -18.0182   20.2483 N   0  0  0  0  0  0  0  0  0  0  0  0
    8.6436  -18.4075   21.4465 C   0  0  0  0  0  0  0  0  0  0  0  0
    9.1236  -19.5760   21.5058 O   0  0  0  0  0  0  0  0  0  0  0  0
    8.7850  -17.5840   22.6653 C   0  0  0  0  0  0  0  0  0  0  0  0
    8.2182  -16.1941   22.5205 C   0  0  2  0  0  0  0  0  0  0  0  0
    8.6699  -15.6570   21.2558 N   0  0  0  0  0  0  0  0  0  0  0  0
    8.7966  -15.3499   23.6086 C   0  0  0  0  0  0  0  0  0  0  0  0
    9.9812  -14.9797   23.5349 O   0  0  0  0  0  0  0  0  0  0  0  0
    5.9094  -12.3031   27.5445 C   0  0  0  0  0  0  0  0  0  0  0  0
    6.4267  -13.3702   26.6225 C   0  0  0  0  0  0  0  0  0  0  0  0
    7.7346  -12.9501   26.0099 C   0  0  2  0  0  0  0  0  0  0  0  0
    7.4855  -12.1346   24.7762 C   0  0  0  0  0  0  0  0  0  0  0  0
    8.6564  -14.1215   25.7461 C   0  0  2  0  0  0  0  0  0  0  0  0
    8.0391  -14.9479   24.7376 N   0  0  0  0  0  0  0  0  0  0  0  0
    8.9139  -14.9227   26.9514 C   0  0  0  0  0  0  0  0  0  0  0  0
    8.4318  -16.0799   27.0272 O   0  0  0  0  0  0  0  0  0  0  0  0
    9.6642  -14.4927   28.0362 O   0  0  0  0  0  0  0  0  0  0  0  0
  2  3  2  0
  2  1  1  0
  4  2  1  0
  5  4  1  0
  5  6  1  6
  7  5  1  0
  8  7  2  0
  9 10  1  0
 10 12  1  0
 11 10  2  0
 13 12  1  1
 13 14  1  0
 14  7  1  0
 15 22  1  0
 15 13  1  0
 16 15  2  0
 18 17  1  0
 19 21  1  0
 19 18  1  0
 19 20  1  6
 21 23  1  0
 21 22  1  6
 23 25  1  0
 24 23  2  0
M  END
$$$$
