NNI.pdb
     RDKit          3D

 25 24  0  0  1  0  0  0  0  0999 V2000
    8.6907  -17.6332   16.7359 N   0  0  0  0  0  0  0  0  0  0  0  0
    7.8108  -16.8300   17.4974 C   0  0  0  0  0  0  0  0  0  0  0  0
    7.1984  -15.8968   16.9413 O   0  0  0  0  0  0  0  0  0  0  0  0
    7.6133  -17.0839   18.9289 C   0  0  0  0  0  0  0  0  0  0  0  0
    8.4766  -16.1086   19.7211 C   0  0  2  0  0  0  0  0  0  0  0  0
    9.8467  -16.2728   19.3060 N   0  0  0  0  0  0  0  0  0  0  0  0
    8.2639  -16.3637   21.1468 C   0  0  0  0  0  0  0  0  0  0  0  0
    7.1134  -16.2635   21.6448 O   0  0  0  0  0  0  0  0  0  0  0  0
   10.3769  -20.1255   21.9890 N   0  0  0  0  0  0  0  0  0  0  0  0
    9.6695  -19.5250   23.0359 C   0  0  0  0  0  0  0  0  0  0  0  0
    8.6244  -20.1077   23.4451 O   0  0  0  0  0  0  0  0  0  0  0  0
   10.0217  -18.2644   23.7217 C   0  0  0  0  0  0  0  0  0  0  0  0
    9.0857  -17.1256   23.4039 C   0  0  2  0  0  0  0  0  0  0  0  0
    9.3137  -16.7294   22.0317 N   0  0  0  0  0  0  0  0  0  0  0  0
    9.4549  -15.9734   24.2800 C   0  0  0  0  0  0  0  0  0  0  0  0
   10.5789  -15.4536   24.1698 O   0  0  0  0  0  0  0  0  0  0  0  0
    5.9732  -12.1621   25.6697 C   0  0  0  0  0  0  0  0  0  0  0  0
    7.1861  -12.9580   25.2803 C   0  0  0  0  0  0  0  0  0  0  0  0
    7.8510  -13.5374   26.4988 C   0  0  2  0  0  0  0  0  0  0  0  0
    8.2241  -12.4403   27.4508 C   0  0  0  0  0  0  0  0  0  0  0  0
    9.0300  -14.4218   26.1532 C   0  0  2  0  0  0  0  0  0  0  0  0
    8.5634  -15.4411   25.2453 N   0  0  0  0  0  0  0  0  0  0  0  0
    9.6313  -15.0527   27.3370 C   0  0  0  0  0  0  0  0  0  0  0  0
    9.2196  -16.1824   27.6997 O   0  0  0  0  0  0  0  0  0  0  0  0
   10.6403  -14.4868   28.1028 O   0  0  0  0  0  0  0  0  0  0  0  0
  2  3  2  0
  2  1  1  0
  4  2  1  0
  5  4  1  0
  5  6  1  6
  7  5  1  0
  8  7  2  0
  9 10  1  0
 10 12  1  0
 11 10  2  0
 13 12  1  1
 13 14  1  0
 14  7  1  0
 15 22  1  0
 15 13  1  0
 16 15  2  0
 18 17  1  0
 19 21  1  0
 19 18  1  0
 19 20  1  1
 21 23  1  0
 21 22  1  6
 23 25  1  0
 24 23  2  0
M  END
$$$$
