NNI.pdb
     RDKit          3D

 25 24  0  0  1  0  0  0  0  0999 V2000
    7.9967  -12.2256   17.3595 N   0  0  0  0  0  0  0  0  0  0  0  0
    7.7024  -13.6031   17.4810 C   0  0  0  0  0  0  0  0  0  0  0  0
    7.7690  -14.3341   16.4728 O   0  0  0  0  0  0  0  0  0  0  0  0
    7.3211  -14.1769   18.7764 C   0  0  0  0  0  0  0  0  0  0  0  0
    8.5712  -14.3070   19.6393 C   0  0  2  0  0  0  0  0  0  0  0  0
    9.5479  -15.0777   18.9122 N   0  0  0  0  0  0  0  0  0  0  0  0
    8.1847  -14.9097   20.9162 C   0  0  0  0  0  0  0  0  0  0  0  0
    7.2440  -14.4183   21.5911 O   0  0  0  0  0  0  0  0  0  0  0  0
    7.5792  -19.6748   21.4930 N   0  0  0  0  0  0  0  0  0  0  0  0
    8.7387  -18.9055   21.6370 C   0  0  0  0  0  0  0  0  0  0  0  0
    9.5923  -18.9545   20.7052 O   0  0  0  0  0  0  0  0  0  0  0  0
    9.0734  -18.0304   22.7798 C   0  0  0  0  0  0  0  0  0  0  0  0
    8.4285  -16.6694   22.7034 C   0  0  2  0  0  0  0  0  0  0  0  0
    8.8297  -16.0542   21.4574 N   0  0  0  0  0  0  0  0  0  0  0  0
    8.9765  -15.8416   23.8195 C   0  0  0  0  0  0  0  0  0  0  0  0
   10.1641  -15.4749   23.7865 O   0  0  0  0  0  0  0  0  0  0  0  0
    6.0684  -11.9440   25.8174 C   0  0  0  0  0  0  0  0  0  0  0  0
    7.1530  -12.8525   25.3129 C   0  0  0  0  0  0  0  0  0  0  0  0
    7.7341  -13.6589   26.4418 C   0  0  2  0  0  0  0  0  0  0  0  0
    8.2572  -12.7449   27.5097 C   0  0  0  0  0  0  0  0  0  0  0  0
    8.7788  -14.6487   25.9724 C   0  0  2  0  0  0  0  0  0  0  0  0
    8.1866  -15.4514   24.9303 N   0  0  0  0  0  0  0  0  0  0  0  0
    9.2599  -15.5205   27.0539 C   0  0  0  0  0  0  0  0  0  0  0  0
    8.6829  -16.6181   27.2529 O   0  0  0  0  0  0  0  0  0  0  0  0
   10.3247  -15.2205   27.8912 O   0  0  0  0  0  0  0  0  0  0  0  0
  2  3  2  0
  2  1  1  0
  4  2  1  0
  5  4  1  0
  5  6  1  6
  7  5  1  0
  8  7  2  0
  9 10  1  0
 10 12  1  0
 11 10  2  0
 13 12  1  6
 13 14  1  0
 14  7  1  0
 15 22  1  0
 15 13  1  0
 16 15  2  0
 18 17  1  0
 19 21  1  0
 19 18  1  0
 19 20  1  1
 21 23  1  0
 21 22  1  6
 23 25  1  0
 24 23  2  0
M  END
$$$$
