NNI.pdb
     RDKit          3D

 25 24  0  0  1  0  0  0  0  0999 V2000
    4.9823  -19.6259   20.5785 N   0  0  0  0  0  0  0  0  0  0  0  0
    5.8355  -19.3762   19.4791 C   0  0  0  0  0  0  0  0  0  0  0  0
    5.6111  -19.9407   18.3900 O   0  0  0  0  0  0  0  0  0  0  0  0
    6.9768  -18.4632   19.6081 C   0  0  0  0  0  0  0  0  0  0  0  0
    7.0115  -17.9239   21.0336 C   0  0  2  0  0  0  0  0  0  0  0  0
    5.7247  -17.3493   21.3342 N   0  0  0  0  0  0  0  0  0  0  0  0
    8.1157  -16.9680   21.1341 C   0  0  0  0  0  0  0  0  0  0  0  0
    9.2955  -17.3339   20.8977 O   0  0  0  0  0  0  0  0  0  0  0  0
    6.9097  -13.1404   19.1736 N   0  0  0  0  0  0  0  0  0  0  0  0
    8.1755  -13.4784   19.6640 C   0  0  0  0  0  0  0  0  0  0  0  0
    9.0214  -13.9278   18.8384 O   0  0  0  0  0  0  0  0  0  0  0  0
    8.6321  -13.3628   21.0647 C   0  0  0  0  0  0  0  0  0  0  0  0
    9.0263  -14.6824   21.6790 C   0  0  2  0  0  0  0  0  0  0  0  0
    7.9289  -15.6064   21.4949 N   0  0  0  0  0  0  0  0  0  0  0  0
    9.2022  -14.4679   23.1468 C   0  0  0  0  0  0  0  0  0  0  0  0
   10.0879  -13.6955   23.5528 O   0  0  0  0  0  0  0  0  0  0  0  0
    6.0348  -12.2283   25.9404 C   0  0  0  0  0  0  0  0  0  0  0  0
    7.1873  -12.9573   25.3107 C   0  0  0  0  0  0  0  0  0  0  0  0
    7.5667  -14.1572   26.1347 C   0  0  2  0  0  0  0  0  0  0  0  0
    7.8822  -13.7367   27.5393 C   0  0  0  0  0  0  0  0  0  0  0  0
    8.6885  -14.9601   25.5113 C   0  0  2  0  0  0  0  0  0  0  0  0
    8.3890  -15.1181   24.1090 N   0  0  0  0  0  0  0  0  0  0  0  0
    8.8526  -16.2820   26.1331 C   0  0  0  0  0  0  0  0  0  0  0  0
    8.2437  -17.2649   25.6428 O   0  0  0  0  0  0  0  0  0  0  0  0
    9.6447  -16.5360   27.2435 O   0  0  0  0  0  0  0  0  0  0  0  0
  2  3  2  0
  2  1  1  0
  4  2  1  0
  5  4  1  0
  5  6  1  6
  7  5  1  0
  8  7  2  0
  9 10  1  0
 10 12  1  0
 11 10  2  0
 13 12  1  6
 13 14  1  0
 14  7  1  0
 15 22  1  0
 15 13  1  0
 16 15  2  0
 18 17  1  0
 19 21  1  0
 19 18  1  0
 19 20  1  1
 21 23  1  0
 21 22  1  6
 23 25  1  0
 24 23  2  0
M  END
$$$$
