WWP.pdb
     RDKit          3D

 36 40  0  0  1  0  0  0  0  0999 V2000
   24.5996  -19.4875  -13.5081 N   0  0  0  0  0  0  0  0  0  0  0  0
   24.5993  -20.3895  -12.3744 C   0  0  1  0  0  0  0  0  0  0  0  0
   24.5676  -21.7952  -12.9766 C   0  0  0  0  0  0  0  0  0  0  0  0
   23.2492  -21.9514  -13.6306 C   0  0  0  0  0  0  0  0  0  0  0  0
   23.0263  -22.2678  -14.9633 C   0  0  0  0  0  0  0  0  0  0  0  0
   21.7012  -22.3175  -15.1848 N   0  0  0  0  0  0  0  0  0  0  0  0
   21.0641  -22.0413  -14.0288 C   0  0  0  0  0  0  0  0  0  0  0  0
   19.7279  -21.9526  -13.6639 C   0  0  0  0  0  0  0  0  0  0  0  0
   19.3811  -21.6464  -12.3743 C   0  0  0  0  0  0  0  0  0  0  0  0
   20.3454  -21.4180  -11.4045 C   0  0  0  0  0  0  0  0  0  0  0  0
   21.6786  -21.4989  -11.7375 C   0  0  0  0  0  0  0  0  0  0  0  0
   22.0080  -21.8066  -13.0332 C   0  0  0  0  0  0  0  0  0  0  0  0
   25.7762  -20.2276  -11.5123 C   0  0  0  0  0  0  0  0  0  0  0  0
   26.8787  -19.9329  -12.0455 O   0  0  0  0  0  0  0  0  0  0  0  0
   25.6845  -20.3944  -10.1240 N   0  0  0  0  0  0  0  0  0  0  0  0
   26.8447  -20.1587   -9.2651 C   0  0  1  0  0  0  0  0  0  0  0  0
   26.3099  -19.7855   -7.9351 C   0  0  0  0  0  0  0  0  0  0  0  0
   27.2652  -19.2446   -6.9561 C   0  0  0  0  0  0  0  0  0  0  0  0
   27.7706  -17.9314   -6.9399 C   0  0  0  0  0  0  0  0  0  0  0  0
   28.6389  -17.8001   -5.9414 N   0  0  0  0  0  0  0  0  0  0  0  0
   28.7284  -18.9785   -5.2925 C   0  0  0  0  0  0  0  0  0  0  0  0
   29.4495  -19.3754   -4.2042 C   0  0  0  0  0  0  0  0  0  0  0  0
   29.3547  -20.6447   -3.7088 C   0  0  0  0  0  0  0  0  0  0  0  0
   28.5093  -21.5685   -4.3131 C   0  0  0  0  0  0  0  0  0  0  0  0
   27.7962  -21.1594   -5.3985 C   0  0  0  0  0  0  0  0  0  0  0  0
   27.8807  -19.8785   -5.9141 C   0  0  0  0  0  0  0  0  0  0  0  0
   27.7892  -21.2563   -9.3032 C   0  0  0  0  0  0  0  0  0  0  0  0
   27.2114  -22.4273   -9.4193 O   0  0  0  0  0  0  0  0  0  0  0  0
   29.1822  -21.2688   -9.2364 N   0  0  0  0  0  0  0  0  0  0  0  0
   30.1617  -20.2490   -9.0131 C   0  0  0  0  0  0  0  0  0  0  0  0
   31.1055  -20.5662  -10.1952 C   0  0  0  0  0  0  0  0  0  0  0  0
   31.3381  -22.0384   -9.9284 C   0  0  0  0  0  0  0  0  0  0  0  0
   30.0112  -22.5055   -9.4175 C   0  0  1  0  0  0  0  0  0  0  0  0
   30.2006  -23.1585   -8.1102 C   0  0  0  0  0  0  0  0  0  0  0  0
   30.8078  -24.3933   -8.0525 O   0  0  0  0  0  0  0  0  0  0  0  0
   29.8193  -22.6091   -7.0590 O   0  0  0  0  0  0  0  0  0  0  0  0
  2  3  1  0
  2  1  1  6
  4  5  2  0
  4  3  1  0
  6  5  1  0
  7 12  2  0
  7  6  1  0
  8  7  1  0
  9 10  1  0
  9  8  2  0
 10 11  2  0
 11 12  1  0
 12  4  1  0
 13  2  1  0
 14 13  2  0
 15 13  1  0
 16 15  1  0
 16 17  1  1
 18 17  1  0
 19 18  2  0
 20 19  1  0
 21 20  1  0
 21 26  2  0
 22 21  1  0
 23 22  2  0
 23 24  1  0
 24 25  2  0
 25 26  1  0
 26 18  1  0
 27 16  1  0
 27 29  1  0
 28 27  2  0
 29 30  1  0
 30 31  1  0
 32 31  1  0
 33 29  1  0
 33 32  1  0
 33 34  1  1
 35 34  1  0
 36 34  2  0
M  END
$$$$
