WWP.pdb
     RDKit          3D

 36 40  0  0  1  0  0  0  0  0999 V2000
   23.3375  -19.3466  -13.0774 N   0  0  0  0  0  0  0  0  0  0  0  0
   23.6993  -20.4477  -12.2083 C   0  0  1  0  0  0  0  0  0  0  0  0
   23.7930  -21.6702  -13.1228 C   0  0  0  0  0  0  0  0  0  0  0  0
   22.4840  -21.7991  -13.8010 C   0  0  0  0  0  0  0  0  0  0  0  0
   22.2462  -21.6556  -15.1607 C   0  0  0  0  0  0  0  0  0  0  0  0
   20.9357  -21.8404  -15.3969 N   0  0  0  0  0  0  0  0  0  0  0  0
   20.3225  -22.0997  -14.2242 C   0  0  0  0  0  0  0  0  0  0  0  0
   19.0091  -22.3665  -13.8634 C   0  0  0  0  0  0  0  0  0  0  0  0
   18.6843  -22.5977  -12.5527 C   0  0  0  0  0  0  0  0  0  0  0  0
   19.6487  -22.5722  -11.5569 C   0  0  0  0  0  0  0  0  0  0  0  0
   20.9596  -22.3100  -11.8850 C   0  0  0  0  0  0  0  0  0  0  0  0
   21.2672  -22.0810  -13.2022 C   0  0  0  0  0  0  0  0  0  0  0  0
   24.9716  -20.2321  -11.5087 C   0  0  0  0  0  0  0  0  0  0  0  0
   25.9461  -19.7680  -12.1581 O   0  0  0  0  0  0  0  0  0  0  0  0
   25.1084  -20.5325  -10.1468 N   0  0  0  0  0  0  0  0  0  0  0  0
   26.3690  -20.2803   -9.4493 C   0  0  1  0  0  0  0  0  0  0  0  0
   26.0389  -20.2003   -8.0075 C   0  0  0  0  0  0  0  0  0  0  0  0
   27.0116  -19.5271   -7.1333 C   0  0  0  0  0  0  0  0  0  0  0  0
   27.4627  -18.2015   -7.2729 C   0  0  0  0  0  0  0  0  0  0  0  0
   28.3664  -17.9368   -6.3341 N   0  0  0  0  0  0  0  0  0  0  0  0
   28.5319  -19.0384   -5.5746 C   0  0  0  0  0  0  0  0  0  0  0  0
   29.3142  -19.2949   -4.4866 C   0  0  0  0  0  0  0  0  0  0  0  0
   29.2930  -20.5094   -3.8619 C   0  0  0  0  0  0  0  0  0  0  0  0
   28.4616  -21.5207   -4.3303 C   0  0  0  0  0  0  0  0  0  0  0  0
   27.6868  -21.2515   -5.4171 C   0  0  0  0  0  0  0  0  0  0  0  0
   27.6964  -20.0279   -6.0624 C   0  0  0  0  0  0  0  0  0  0  0  0
   27.4052  -21.2183   -9.8295 C   0  0  0  0  0  0  0  0  0  0  0  0
   26.9523  -22.4332  -10.0234 O   0  0  0  0  0  0  0  0  0  0  0  0
   28.7760  -21.0424  -10.0172 N   0  0  0  0  0  0  0  0  0  0  0  0
   29.6395  -19.9045   -9.9256 C   0  0  0  0  0  0  0  0  0  0  0  0
   30.3796  -20.0614  -11.2733 C   0  0  0  0  0  0  0  0  0  0  0  0
   30.8465  -21.4942  -11.1254 C   0  0  0  0  0  0  0  0  0  0  0  0
   29.7098  -22.1499  -10.4058 C   0  0  1  0  0  0  0  0  0  0  0  0
   30.2222  -22.8025   -9.1880 C   0  0  0  0  0  0  0  0  0  0  0  0
   30.9454  -23.9692   -9.2991 O   0  0  0  0  0  0  0  0  0  0  0  0
   30.0100  -22.3133   -8.0620 O   0  0  0  0  0  0  0  0  0  0  0  0
  2  3  1  0
  2  1  1  6
  4  5  2  0
  4  3  1  0
  6  5  1  0
  7 12  2  0
  7  6  1  0
  8  7  1  0
  9 10  1  0
  9  8  2  0
 10 11  2  0
 11 12  1  0
 12  4  1  0
 13  2  1  0
 14 13  2  0
 15 13  1  0
 16 15  1  0
 16 17  1  1
 18 17  1  0
 19 18  2  0
 20 19  1  0
 21 20  1  0
 21 26  2  0
 22 21  1  0
 23 22  2  0
 23 24  1  0
 24 25  2  0
 25 26  1  0
 26 18  1  0
 27 16  1  0
 27 29  1  0
 28 27  2  0
 29 30  1  0
 30 31  1  0
 32 31  1  0
 33 29  1  0
 33 32  1  0
 33 34  1  1
 35 34  1  0
 36 34  2  0
M  END
$$$$
