WWP.pdb
     RDKit          3D

 36 40  0  0  1  0  0  0  0  0999 V2000
   26.9759  -17.4307  -20.1359 N   0  0  0  0  0  0  0  0  0  0  0  0
   25.9388  -17.7934  -19.1916 C   0  0  1  0  0  0  0  0  0  0  0  0
   24.8559  -18.4805  -20.0250 C   0  0  0  0  0  0  0  0  0  0  0  0
   23.9854  -17.4108  -20.5619 C   0  0  0  0  0  0  0  0  0  0  0  0
   24.2149  -16.6638  -21.7087 C   0  0  0  0  0  0  0  0  0  0  0  0
   23.2073  -15.7883  -21.8687 N   0  0  0  0  0  0  0  0  0  0  0  0
   22.3338  -15.9520  -20.8545 C   0  0  0  0  0  0  0  0  0  0  0  0
   21.1360  -15.3422  -20.5082 C   0  0  0  0  0  0  0  0  0  0  0  0
   20.4566  -15.7377  -19.3861 C   0  0  0  0  0  0  0  0  0  0  0  0
   20.9408  -16.7491  -18.5706 C   0  0  0  0  0  0  0  0  0  0  0  0
   22.1264  -17.3719  -18.8890 C   0  0  0  0  0  0  0  0  0  0  0  0
   22.7935  -16.9635  -20.0161 C   0  0  0  0  0  0  0  0  0  0  0  0
   26.4161  -18.6900  -18.1318 C   0  0  0  0  0  0  0  0  0  0  0  0
   27.2678  -19.5705  -18.4247 O   0  0  0  0  0  0  0  0  0  0  0  0
   25.9405  -18.5755  -16.8187 N   0  0  0  0  0  0  0  0  0  0  0  0
   26.3201  -19.5530  -15.7990 C   0  0  1  0  0  0  0  0  0  0  0  0
   26.5549  -18.7863  -14.5535 C   0  0  0  0  0  0  0  0  0  0  0  0
   26.8918  -19.5557  -13.3460 C   0  0  0  0  0  0  0  0  0  0  0  0
   28.1604  -20.0768  -13.0308 C   0  0  0  0  0  0  0  0  0  0  0  0
   28.0944  -20.7487  -11.8852 N   0  0  0  0  0  0  0  0  0  0  0  0
   26.8278  -20.6924  -11.4268 C   0  0  0  0  0  0  0  0  0  0  0  0
   26.2341  -21.1919  -10.3044 C   0  0  0  0  0  0  0  0  0  0  0  0
   24.9103  -20.9810  -10.0425 C   0  0  0  0  0  0  0  0  0  0  0  0
   24.1327  -20.2424  -10.9275 C   0  0  0  0  0  0  0  0  0  0  0  0
   24.7377  -19.7503  -12.0437 C   0  0  0  0  0  0  0  0  0  0  0  0
   26.0765  -19.9552  -12.3252 C   0  0  0  0  0  0  0  0  0  0  0  0
   25.3843  -20.6557  -15.7188 C   0  0  0  0  0  0  0  0  0  0  0  0
   24.1454  -20.2962  -15.9526 O   0  0  0  0  0  0  0  0  0  0  0  0
   25.5832  -22.0073  -15.4382 N   0  0  0  0  0  0  0  0  0  0  0  0
   26.7284  -22.7665  -15.0365 C   0  0  0  0  0  0  0  0  0  0  0  0
   26.6242  -23.9132  -16.0675 C   0  0  0  0  0  0  0  0  0  0  0  0
   25.1933  -24.3371  -15.8113 C   0  0  0  0  0  0  0  0  0  0  0  0
   24.5006  -23.0417  -15.5254 C   0  0  1  0  0  0  0  0  0  0  0  0
   23.8156  -23.1381  -14.2242 C   0  0  0  0  0  0  0  0  0  0  0  0
   24.3122  -22.4411  -13.1452 O   0  0  0  0  0  0  0  0  0  0  0  0
   22.7956  -23.8404  -14.0883 O   0  0  0  0  0  0  0  0  0  0  0  0
  2  3  1  0
  2  1  1  6
  4  5  2  0
  4  3  1  0
  6  5  1  0
  7 12  2  0
  7  6  1  0
  8  7  1  0
  9 10  1  0
  9  8  2  0
 10 11  2  0
 11 12  1  0
 12  4  1  0
 13  2  1  0
 14 13  2  0
 15 13  1  0
 16 15  1  0
 16 17  1  1
 18 17  1  0
 19 18  2  0
 20 19  1  0
 21 20  1  0
 21 26  2  0
 22 21  1  0
 23 22  2  0
 23 24  1  0
 24 25  2  0
 25 26  1  0
 26 18  1  0
 27 16  1  0
 27 29  1  0
 28 27  2  0
 29 30  1  0
 30 31  1  0
 32 31  1  0
 33 29  1  0
 33 32  1  0
 33 34  1  1
 35 34  1  0
 36 34  2  0
M  END
$$$$
