WWP.pdb
     RDKit          3D

 36 40  0  0  1  0  0  0  0  0999 V2000
   25.4915  -17.5629  -18.3886 N   0  0  0  0  0  0  0  0  0  0  0  0
   25.2142  -17.3736  -16.9793 C   0  0  1  0  0  0  0  0  0  0  0  0
   23.7005  -17.1733  -16.8889 C   0  0  0  0  0  0  0  0  0  0  0  0
   23.4248  -15.7871  -17.3279 C   0  0  0  0  0  0  0  0  0  0  0  0
   22.9017  -15.4033  -18.5546 C   0  0  0  0  0  0  0  0  0  0  0  0
   22.7985  -14.0632  -18.5855 N   0  0  0  0  0  0  0  0  0  0  0  0
   23.2415  -13.5733  -17.4098 C   0  0  0  0  0  0  0  0  0  0  0  0
   23.3660  -12.2940  -16.8860 C   0  0  0  0  0  0  0  0  0  0  0  0
   23.8638  -12.1081  -15.6233 C   0  0  0  0  0  0  0  0  0  0  0  0
   24.2546  -13.1821  -14.8383 C   0  0  0  0  0  0  0  0  0  0  0  0
   24.1428  -14.4624  -15.3316 C   0  0  0  0  0  0  0  0  0  0  0  0
   23.6422  -14.6303  -16.5978 C   0  0  0  0  0  0  0  0  0  0  0  0
   25.6307  -18.5141  -16.1545 C   0  0  0  0  0  0  0  0  0  0  0  0
   25.4338  -19.6788  -16.5920 O   0  0  0  0  0  0  0  0  0  0  0  0
   26.2361  -18.3210  -14.9056 N   0  0  0  0  0  0  0  0  0  0  0  0
   26.5089  -19.4560  -14.0244 C   0  0  1  0  0  0  0  0  0  0  0  0
   27.5472  -19.0027  -13.0701 C   0  0  0  0  0  0  0  0  0  0  0  0
   28.0633  -19.9981  -12.1180 C   0  0  0  0  0  0  0  0  0  0  0  0
   29.0573  -20.9567  -12.3890 C   0  0  0  0  0  0  0  0  0  0  0  0
   29.2492  -21.7161  -11.3144 N   0  0  0  0  0  0  0  0  0  0  0  0
   28.4192  -21.2965  -10.3384 C   0  0  0  0  0  0  0  0  0  0  0  0
   28.2276  -21.7133   -9.0533 C   0  0  0  0  0  0  0  0  0  0  0  0
   27.3226  -21.1035   -8.2320 C   0  0  0  0  0  0  0  0  0  0  0  0
   26.5693  -20.0314   -8.6974 C   0  0  0  0  0  0  0  0  0  0  0  0
   26.7700  -19.6262   -9.9817 C   0  0  0  0  0  0  0  0  0  0  0  0
   27.6814  -20.2327  -10.8274 C   0  0  0  0  0  0  0  0  0  0  0  0
   25.2992  -20.0134  -13.4549 C   0  0  0  0  0  0  0  0  0  0  0  0
   24.4025  -19.1030  -13.1622 O   0  0  0  0  0  0  0  0  0  0  0  0
   24.9427  -21.3319  -13.1728 N   0  0  0  0  0  0  0  0  0  0  0  0
   25.6555  -22.5722  -13.2248 C   0  0  0  0  0  0  0  0  0  0  0  0
   24.6234  -23.4036  -14.0200 C   0  0  0  0  0  0  0  0  0  0  0  0
   23.4036  -23.1622  -13.1560 C   0  0  0  0  0  0  0  0  0  0  0  0
   23.5749  -21.7425  -12.7147 C   0  0  1  0  0  0  0  0  0  0  0  0
   23.5182  -21.6847  -11.2433 C   0  0  0  0  0  0  0  0  0  0  0  0
   22.2936  -21.6781  -10.6133 O   0  0  0  0  0  0  0  0  0  0  0  0
   24.5616  -21.6418  -10.5637 O   0  0  0  0  0  0  0  0  0  0  0  0
  2  3  1  0
  2  1  1  6
  4  5  2  0
  4  3  1  0
  6  5  1  0
  7 12  2  0
  7  6  1  0
  8  7  1  0
  9 10  1  0
  9  8  2  0
 10 11  2  0
 11 12  1  0
 12  4  1  0
 13  2  1  0
 14 13  2  0
 15 13  1  0
 16 15  1  0
 16 17  1  1
 18 17  1  0
 19 18  2  0
 20 19  1  0
 21 20  1  0
 21 26  2  0
 22 21  1  0
 23 22  2  0
 23 24  1  0
 24 25  2  0
 25 26  1  0
 26 18  1  0
 27 16  1  0
 27 29  1  0
 28 27  2  0
 29 30  1  0
 30 31  1  0
 32 31  1  0
 33 29  1  0
 33 32  1  0
 33 34  1  1
 35 34  1  0
 36 34  2  0
M  END
$$$$
