WWP.pdb
     RDKit          3D

 36 40  0  0  1  0  0  0  0  0999 V2000
   25.6523  -19.8956  -15.9607 N   0  0  0  0  0  0  0  0  0  0  0  0
   26.0963  -20.7547  -14.8821 C   0  0  1  0  0  0  0  0  0  0  0  0
   27.6155  -20.8439  -15.0360 C   0  0  0  0  0  0  0  0  0  0  0  0
   27.8762  -21.5938  -16.2850 C   0  0  0  0  0  0  0  0  0  0  0  0
   28.4513  -21.0871  -17.4419 C   0  0  0  0  0  0  0  0  0  0  0  0
   28.5201  -22.0662  -18.3605 N   0  0  0  0  0  0  0  0  0  0  0  0
   28.0042  -23.1913  -17.8254 C   0  0  0  0  0  0  0  0  0  0  0  0
   27.8189  -24.4837  -18.2965 C   0  0  0  0  0  0  0  0  0  0  0  0
   27.2520  -25.4386  -17.4940 C   0  0  0  0  0  0  0  0  0  0  0  0
   26.8502  -25.1452  -16.1998 C   0  0  0  0  0  0  0  0  0  0  0  0
   27.0214  -23.8718  -15.7057 C   0  0  0  0  0  0  0  0  0  0  0  0
   27.5907  -22.9282  -16.5227 C   0  0  0  0  0  0  0  0  0  0  0  0
   25.7450  -20.2366  -13.5544 C   0  0  0  0  0  0  0  0  0  0  0  0
   25.8851  -19.0048  -13.3311 O   0  0  0  0  0  0  0  0  0  0  0  0
   25.2623  -21.0867  -12.5504 N   0  0  0  0  0  0  0  0  0  0  0  0
   24.8220  -20.5482  -11.2638 C   0  0  1  0  0  0  0  0  0  0  0  0
   23.4286  -21.0130  -11.0723 C   0  0  0  0  0  0  0  0  0  0  0  0
   22.3804  -20.3238  -11.8404 C   0  0  0  0  0  0  0  0  0  0  0  0
   21.5291  -19.3168  -11.3491 C   0  0  0  0  0  0  0  0  0  0  0  0
   20.6790  -18.9472  -12.3025 N   0  0  0  0  0  0  0  0  0  0  0  0
   20.9350  -19.6716  -13.4104 C   0  0  0  0  0  0  0  0  0  0  0  0
   20.3755  -19.6756  -14.6548 C   0  0  0  0  0  0  0  0  0  0  0  0
   20.8306  -20.5051  -15.6399 C   0  0  0  0  0  0  0  0  0  0  0  0
   21.8877  -21.3727  -15.3887 C   0  0  0  0  0  0  0  0  0  0  0  0
   22.4363  -21.3588  -14.1426 C   0  0  0  0  0  0  0  0  0  0  0  0
   21.9874  -20.5264  -13.1330 C   0  0  0  0  0  0  0  0  0  0  0  0
   25.7580  -20.8380  -10.1970 C   0  0  0  0  0  0  0  0  0  0  0  0
   26.2893  -22.0328  -10.2902 O   0  0  0  0  0  0  0  0  0  0  0  0
   26.1750  -20.0694   -9.1104 N   0  0  0  0  0  0  0  0  0  0  0  0
   25.8478  -18.7507   -8.6599 C   0  0  0  0  0  0  0  0  0  0  0  0
   27.2809  -18.2110   -8.4506 C   0  0  0  0  0  0  0  0  0  0  0  0
   27.8204  -19.3043   -7.5527 C   0  0  0  0  0  0  0  0  0  0  0  0
   27.1730  -20.5400   -8.0946 C   0  0  1  0  0  0  0  0  0  0  0  0
   26.4649  -21.2317   -7.0029 C   0  0  0  0  0  0  0  0  0  0  0  0
   25.0887  -21.2835   -7.0154 O   0  0  0  0  0  0  0  0  0  0  0  0
   27.0938  -21.7689   -6.0712 O   0  0  0  0  0  0  0  0  0  0  0  0
  2  3  1  0
  2  1  1  6
  4  5  2  0
  4  3  1  0
  6  5  1  0
  7 12  2  0
  7  6  1  0
  8  7  1  0
  9 10  1  0
  9  8  2  0
 10 11  2  0
 11 12  1  0
 12  4  1  0
 13  2  1  0
 14 13  2  0
 15 13  1  0
 16 15  1  0
 16 17  1  1
 18 17  1  0
 19 18  2  0
 20 19  1  0
 21 20  1  0
 21 26  2  0
 22 21  1  0
 23 22  2  0
 23 24  1  0
 24 25  2  0
 25 26  1  0
 26 18  1  0
 27 16  1  0
 27 29  1  0
 28 27  2  0
 29 30  1  0
 30 31  1  0
 32 31  1  0
 33 29  1  0
 33 32  1  0
 33 34  1  1
 35 34  1  0
 36 34  2  0
M  END
$$$$
