WWP.pdb
     RDKit          3D

 36 40  0  0  1  0  0  0  0  0999 V2000
   21.1964  -19.8224  -12.2104 N   0  0  0  0  0  0  0  0  0  0  0  0
   22.1025  -20.1506  -13.2920 C   0  0  1  0  0  0  0  0  0  0  0  0
   21.7439  -19.1883  -14.4255 C   0  0  0  0  0  0  0  0  0  0  0  0
   20.7271  -19.8678  -15.2588 C   0  0  0  0  0  0  0  0  0  0  0  0
   19.3501  -19.7649  -15.1203 C   0  0  0  0  0  0  0  0  0  0  0  0
   18.7587  -20.5288  -16.0553 N   0  0  0  0  0  0  0  0  0  0  0  0
   19.7193  -21.1214  -16.7932 C   0  0  0  0  0  0  0  0  0  0  0  0
   19.7029  -21.9958  -17.8710 C   0  0  0  0  0  0  0  0  0  0  0  0
   20.8767  -22.4354  -18.4241 C   0  0  0  0  0  0  0  0  0  0  0  0
   22.1045  -22.0240  -17.9284 C   0  0  0  0  0  0  0  0  0  0  0  0
   22.1517  -21.1572  -16.8599 C   0  0  0  0  0  0  0  0  0  0  0  0
   20.9669  -20.7270  -16.3185 C   0  0  0  0  0  0  0  0  0  0  0  0
   23.5152  -20.0029  -12.9216 C   0  0  0  0  0  0  0  0  0  0  0  0
   23.9279  -18.8701  -12.5568 O   0  0  0  0  0  0  0  0  0  0  0  0
   24.3935  -21.0938  -12.9690 N   0  0  0  0  0  0  0  0  0  0  0  0
   25.8313  -20.9037  -12.7801 C   0  0  1  0  0  0  0  0  0  0  0  0
   26.2239  -21.7836  -11.6550 C   0  0  0  0  0  0  0  0  0  0  0  0
   26.1415  -21.2167  -10.3002 C   0  0  0  0  0  0  0  0  0  0  0  0
   24.9673  -20.7703   -9.6660 C   0  0  0  0  0  0  0  0  0  0  0  0
   25.2664  -20.2841   -8.4650 N   0  0  0  0  0  0  0  0  0  0  0  0
   26.5971  -20.3919   -8.2775 C   0  0  0  0  0  0  0  0  0  0  0  0
   27.4064  -20.0642   -7.2290 C   0  0  0  0  0  0  0  0  0  0  0  0
   28.7524  -20.2933   -7.2668 C   0  0  0  0  0  0  0  0  0  0  0  0
   29.3304  -20.8732   -8.3906 C   0  0  0  0  0  0  0  0  0  0  0  0
   28.5113  -21.1946   -9.4298 C   0  0  0  0  0  0  0  0  0  0  0  0
   27.1467  -20.9687   -9.4089 C   0  0  0  0  0  0  0  0  0  0  0  0
   26.5730  -21.0549  -14.0151 C   0  0  0  0  0  0  0  0  0  0  0  0
   26.0555  -21.9523  -14.8185 O   0  0  0  0  0  0  0  0  0  0  0  0
   27.7234  -20.4157  -14.4769 N   0  0  0  0  0  0  0  0  0  0  0  0
   28.6450  -19.5010  -13.8743 C   0  0  0  0  0  0  0  0  0  0  0  0
   28.6812  -18.4333  -14.9911 C   0  0  0  0  0  0  0  0  0  0  0  0
   29.0189  -19.3264  -16.1663 C   0  0  0  0  0  0  0  0  0  0  0  0
   28.2673  -20.5848  -15.8643 C   0  0  1  0  0  0  0  0  0  0  0  0
   29.2039  -21.7222  -15.8832 C   0  0  0  0  0  0  0  0  0  0  0  0
   29.6978  -22.1719  -17.0876 O   0  0  0  0  0  0  0  0  0  0  0  0
   29.5538  -22.2809  -14.8260 O   0  0  0  0  0  0  0  0  0  0  0  0
  2  3  1  0
  2  1  1  1
  4  5  2  0
  4  3  1  0
  6  5  1  0
  7 12  2  0
  7  6  1  0
  8  7  1  0
  9 10  1  0
  9  8  2  0
 10 11  2  0
 11 12  1  0
 12  4  1  0
 13  2  1  0
 14 13  2  0
 15 13  1  0
 16 15  1  0
 16 17  1  1
 18 17  1  0
 19 18  2  0
 20 19  1  0
 21 20  1  0
 21 26  2  0
 22 21  1  0
 23 22  2  0
 23 24  1  0
 24 25  2  0
 25 26  1  0
 26 18  1  0
 27 16  1  0
 27 29  1  0
 28 27  2  0
 29 30  1  0
 30 31  1  0
 32 31  1  0
 33 29  1  0
 33 32  1  0
 33 34  1  1
 35 34  1  0
 36 34  2  0
M  END
$$$$
