WWP.pdb
     RDKit          3D

 36 40  0  0  1  0  0  0  0  0999 V2000
   24.5131  -19.5485  -13.3778 N   0  0  0  0  0  0  0  0  0  0  0  0
   24.4401  -20.2187  -12.0955 C   0  0  1  0  0  0  0  0  0  0  0  0
   24.1208  -21.6788  -12.4204 C   0  0  0  0  0  0  0  0  0  0  0  0
   22.6607  -21.7576  -12.6483 C   0  0  0  0  0  0  0  0  0  0  0  0
   22.0330  -22.1276  -13.8294 C   0  0  0  0  0  0  0  0  0  0  0  0
   20.7015  -22.0756  -13.6513 N   0  0  0  0  0  0  0  0  0  0  0  0
   20.4546  -21.6818  -12.3855 C   0  0  0  0  0  0  0  0  0  0  0  0
   19.2952  -21.4586  -11.6559 C   0  0  0  0  0  0  0  0  0  0  0  0
   19.3666  -21.0524  -10.3494 C   0  0  0  0  0  0  0  0  0  0  0  0
   20.5875  -20.8538   -9.7230 C   0  0  0  0  0  0  0  0  0  0  0  0
   21.7541  -21.0672  -10.4219 C   0  0  0  0  0  0  0  0  0  0  0  0
   21.6643  -21.4738  -11.7290 C   0  0  0  0  0  0  0  0  0  0  0  0
   25.6875  -20.1252  -11.3275 C   0  0  0  0  0  0  0  0  0  0  0  0
   26.7596  -19.8883  -11.9448 O   0  0  0  0  0  0  0  0  0  0  0  0
   25.6951  -20.2938   -9.9364 N   0  0  0  0  0  0  0  0  0  0  0  0
   26.9053  -20.0295   -9.1587 C   0  0  1  0  0  0  0  0  0  0  0  0
   26.4522  -19.5478   -7.8333 C   0  0  0  0  0  0  0  0  0  0  0  0
   27.4895  -19.0953   -6.8937 C   0  0  0  0  0  0  0  0  0  0  0  0
   28.1480  -17.8523   -6.9324 C   0  0  0  0  0  0  0  0  0  0  0  0
   29.0508  -17.7954   -5.9578 N   0  0  0  0  0  0  0  0  0  0  0  0
   29.0157  -18.9555   -5.2718 C   0  0  0  0  0  0  0  0  0  0  0  0
   29.7118  -19.4023   -4.1866 C   0  0  0  0  0  0  0  0  0  0  0  0
   29.4791  -20.6352   -3.6469 C   0  0  0  0  0  0  0  0  0  0  0  0
   28.5147  -21.4692   -4.2016 C   0  0  0  0  0  0  0  0  0  0  0  0
   27.8281  -21.0112   -5.2846 C   0  0  0  0  0  0  0  0  0  0  0  0
   28.0514  -19.7661   -5.8445 C   0  0  0  0  0  0  0  0  0  0  0  0
   27.8200  -21.1526   -9.1660 C   0  0  0  0  0  0  0  0  0  0  0  0
   27.2093  -22.3126   -9.1548 O   0  0  0  0  0  0  0  0  0  0  0  0
   29.2139  -21.1987   -9.1814 N   0  0  0  0  0  0  0  0  0  0  0  0
   30.2286  -20.1930   -9.0909 C   0  0  0  0  0  0  0  0  0  0  0  0
   31.0906  -20.6187  -10.3010 C   0  0  0  0  0  0  0  0  0  0  0  0
   31.3049  -22.0742   -9.9430 C   0  0  0  0  0  0  0  0  0  0  0  0
   30.0014  -22.4674   -9.3219 C   0  0  1  0  0  0  0  0  0  0  0  0
   30.2552  -23.0315   -7.9844 C   0  0  0  0  0  0  0  0  0  0  0  0
   29.8069  -22.3579   -6.8699 O   0  0  0  0  0  0  0  0  0  0  0  0
   30.8687  -24.1074   -7.8494 O   0  0  0  0  0  0  0  0  0  0  0  0
  2  3  1  0
  2  1  1  6
  4  5  2  0
  4  3  1  0
  6  5  1  0
  7 12  2  0
  7  6  1  0
  8  7  1  0
  9 10  1  0
  9  8  2  0
 10 11  2  0
 11 12  1  0
 12  4  1  0
 13  2  1  0
 14 13  2  0
 15 13  1  0
 16 15  1  0
 16 17  1  1
 18 17  1  0
 19 18  2  0
 20 19  1  0
 21 20  1  0
 21 26  2  0
 22 21  1  0
 23 22  2  0
 23 24  1  0
 24 25  2  0
 25 26  1  0
 26 18  1  0
 27 16  1  0
 27 29  1  0
 28 27  2  0
 29 30  1  0
 30 31  1  0
 32 31  1  0
 33 29  1  0
 33 32  1  0
 33 34  1  1
 35 34  1  0
 36 34  2  0
M  END
$$$$
