WWP.pdb
     RDKit          3D

 36 40  0  0  1  0  0  0  0  0999 V2000
   22.5505  -19.6648  -13.1745 N   0  0  0  0  0  0  0  0  0  0  0  0
   23.1180  -20.7195  -12.3594 C   0  0  1  0  0  0  0  0  0  0  0  0
   23.3296  -21.8970  -13.3123 C   0  0  0  0  0  0  0  0  0  0  0  0
   21.9971  -22.2650  -13.8409 C   0  0  0  0  0  0  0  0  0  0  0  0
   21.6049  -22.2345  -15.1718 C   0  0  0  0  0  0  0  0  0  0  0  0
   20.3242  -22.6338  -15.2589 N   0  0  0  0  0  0  0  0  0  0  0  0
   19.8807  -22.9213  -14.0183 C   0  0  0  0  0  0  0  0  0  0  0  0
   18.6698  -23.3694  -13.5090 C   0  0  0  0  0  0  0  0  0  0  0  0
   18.5189  -23.5768  -12.1632 C   0  0  0  0  0  0  0  0  0  0  0  0
   19.5612  -23.3472  -11.2781 C   0  0  0  0  0  0  0  0  0  0  0  0
   20.7736  -22.9022  -11.7546 C   0  0  0  0  0  0  0  0  0  0  0  0
   20.9074  -22.7000  -13.1049 C   0  0  0  0  0  0  0  0  0  0  0  0
   24.3866  -20.3367  -11.7279 C   0  0  0  0  0  0  0  0  0  0  0  0
   25.2324  -19.7000  -12.4105 O   0  0  0  0  0  0  0  0  0  0  0  0
   24.6594  -20.6675  -10.3938 N   0  0  0  0  0  0  0  0  0  0  0  0
   25.9092  -20.2472   -9.7607 C   0  0  1  0  0  0  0  0  0  0  0  0
   25.6130  -20.0892   -8.3179 C   0  0  0  0  0  0  0  0  0  0  0  0
   26.6988  -19.5877   -7.4616 C   0  0  0  0  0  0  0  0  0  0  0  0
   27.2489  -18.2933   -7.5053 C   0  0  0  0  0  0  0  0  0  0  0  0
   28.2362  -18.1982   -6.6196 N   0  0  0  0  0  0  0  0  0  0  0  0
   28.3618  -19.3827   -5.9879 C   0  0  0  0  0  0  0  0  0  0  0  0
   29.1951  -19.8108   -4.9960 C   0  0  0  0  0  0  0  0  0  0  0  0
   29.1161  -21.0787   -4.4943 C   0  0  0  0  0  0  0  0  0  0  0  0
   28.1712  -21.9688   -4.9926 C   0  0  0  0  0  0  0  0  0  0  0  0
   27.3465  -21.5287   -5.9827 C   0  0  0  0  0  0  0  0  0  0  0  0
   27.4134  -20.2488   -6.5030 C   0  0  0  0  0  0  0  0  0  0  0  0
   27.0190  -21.1110  -10.1074 C   0  0  0  0  0  0  0  0  0  0  0  0
   26.7082  -22.3842  -10.0759 O   0  0  0  0  0  0  0  0  0  0  0  0
   28.3354  -20.8142  -10.4599 N   0  0  0  0  0  0  0  0  0  0  0  0
   29.0753  -19.5918  -10.5444 C   0  0  0  0  0  0  0  0  0  0  0  0
   29.6825  -19.7809  -11.9530 C   0  0  0  0  0  0  0  0  0  0  0  0
   30.3148  -21.1433  -11.7610 C   0  0  0  0  0  0  0  0  0  0  0  0
   29.3377  -21.8500  -10.8747 C   0  0  1  0  0  0  0  0  0  0  0  0
   30.0427  -22.3486   -9.6807 C   0  0  0  0  0  0  0  0  0  0  0  0
   30.8665  -23.4468   -9.7909 O   0  0  0  0  0  0  0  0  0  0  0  0
   29.9034  -21.7906   -8.5754 O   0  0  0  0  0  0  0  0  0  0  0  0
  2  3  1  0
  2  1  1  6
  4  5  2  0
  4  3  1  0
  6  5  1  0
  7 12  2  0
  7  6  1  0
  8  7  1  0
  9 10  1  0
  9  8  2  0
 10 11  2  0
 11 12  1  0
 12  4  1  0
 13  2  1  0
 14 13  2  0
 15 13  1  0
 16 15  1  0
 16 17  1  1
 18 17  1  0
 19 18  2  0
 20 19  1  0
 21 20  1  0
 21 26  2  0
 22 21  1  0
 23 22  2  0
 23 24  1  0
 24 25  2  0
 25 26  1  0
 26 18  1  0
 27 16  1  0
 27 29  1  0
 28 27  2  0
 29 30  1  0
 30 31  1  0
 32 31  1  0
 33 29  1  0
 33 32  1  0
 33 34  1  1
 35 34  1  0
 36 34  2  0
M  END
$$$$
