WWP.pdb
     RDKit          3D

 36 40  0  0  1  0  0  0  0  0999 V2000
   20.8867  -18.3753  -16.9804 N   0  0  0  0  0  0  0  0  0  0  0  0
   21.3204  -19.3710  -16.0217 C   0  0  1  0  0  0  0  0  0  0  0  0
   21.0756  -20.7194  -16.7010 C   0  0  0  0  0  0  0  0  0  0  0  0
   19.7290  -21.1705  -16.2849 C   0  0  0  0  0  0  0  0  0  0  0  0
   18.5550  -21.0290  -17.0113 C   0  0  0  0  0  0  0  0  0  0  0  0
   17.5390  -21.5568  -16.3066 N   0  0  0  0  0  0  0  0  0  0  0  0
   18.0280  -22.0351  -15.1445 C   0  0  0  0  0  0  0  0  0  0  0  0
   17.4589  -22.6729  -14.0509 C   0  0  0  0  0  0  0  0  0  0  0  0
   18.2363  -23.0516  -12.9883 C   0  0  0  0  0  0  0  0  0  0  0  0
   19.6018  -22.8113  -12.9736 C   0  0  0  0  0  0  0  0  0  0  0  0
   20.1938  -22.1803  -14.0443 C   0  0  0  0  0  0  0  0  0  0  0  0
   19.4005  -21.8081  -15.0999 C   0  0  0  0  0  0  0  0  0  0  0  0
   22.7339  -19.2328  -15.6509 C   0  0  0  0  0  0  0  0  0  0  0  0
   23.5402  -18.7788  -16.5055 O   0  0  0  0  0  0  0  0  0  0  0  0
   23.1859  -19.5950  -14.3749 N   0  0  0  0  0  0  0  0  0  0  0  0
   24.5802  -19.3812  -13.9879 C   0  0  1  0  0  0  0  0  0  0  0  0
   24.5854  -19.2305  -12.5143 C   0  0  0  0  0  0  0  0  0  0  0  0
   25.8900  -19.0290  -11.8656 C   0  0  0  0  0  0  0  0  0  0  0  0
   26.7729  -17.9606  -12.1093 C   0  0  0  0  0  0  0  0  0  0  0  0
   27.8730  -18.1157  -11.3786 N   0  0  0  0  0  0  0  0  0  0  0  0
   27.7530  -19.2483  -10.6571 C   0  0  0  0  0  0  0  0  0  0  0  0
   28.5750  -19.8507   -9.7498 C   0  0  0  0  0  0  0  0  0  0  0  0
   28.2172  -21.0090   -9.1207 C   0  0  0  0  0  0  0  0  0  0  0  0
   26.9912  -21.6037   -9.3975 C   0  0  0  0  0  0  0  0  0  0  0  0
   26.1812  -20.9924  -10.3053 C   0  0  0  0  0  0  0  0  0  0  0  0
   26.5279  -19.8199  -10.9524 C   0  0  0  0  0  0  0  0  0  0  0  0
   25.4651  -20.3844  -14.5435 C   0  0  0  0  0  0  0  0  0  0  0  0
   24.9331  -21.5823  -14.5673 O   0  0  0  0  0  0  0  0  0  0  0  0
   26.7628  -20.2846  -15.0448 N   0  0  0  0  0  0  0  0  0  0  0  0
   27.7432  -19.2417  -15.0255 C   0  0  0  0  0  0  0  0  0  0  0  0
   28.1199  -19.2450  -16.5245 C   0  0  0  0  0  0  0  0  0  0  0  0
   28.4479  -20.7143  -16.6863 C   0  0  0  0  0  0  0  0  0  0  0  0
   27.4498  -21.3859  -15.7962 C   0  0  1  0  0  0  0  0  0  0  0  0
   28.1620  -22.2538  -14.8417 C   0  0  0  0  0  0  0  0  0  0  0  0
   28.7557  -23.4116  -15.2932 O   0  0  0  0  0  0  0  0  0  0  0  0
   28.2336  -21.9542  -13.6345 O   0  0  0  0  0  0  0  0  0  0  0  0
  2  3  1  0
  2  1  1  6
  4  5  2  0
  4  3  1  0
  6  5  1  0
  7 12  2  0
  7  6  1  0
  8  7  1  0
  9 10  1  0
  9  8  2  0
 10 11  2  0
 11 12  1  0
 12  4  1  0
 13  2  1  0
 14 13  2  0
 15 13  1  0
 16 15  1  0
 16 17  1  1
 18 17  1  0
 19 18  2  0
 20 19  1  0
 21 20  1  0
 21 26  2  0
 22 21  1  0
 23 22  2  0
 23 24  1  0
 24 25  2  0
 25 26  1  0
 26 18  1  0
 27 16  1  0
 27 29  1  0
 28 27  2  0
 29 30  1  0
 30 31  1  0
 32 31  1  0
 33 29  1  0
 33 32  1  0
 33 34  1  1
 35 34  1  0
 36 34  2  0
M  END
$$$$
