WWP.pdb
     RDKit          3D

 36 40  0  0  1  0  0  0  0  0999 V2000
   26.9121  -19.6645  -10.4776 N   0  0  0  0  0  0  0  0  0  0  0  0
   27.2197  -21.0181  -10.8923 C   0  0  1  0  0  0  0  0  0  0  0  0
   27.5118  -21.7802   -9.5987 C   0  0  0  0  0  0  0  0  0  0  0  0
   27.1530  -20.8796   -8.4805 C   0  0  0  0  0  0  0  0  0  0  0  0
   25.9805  -20.1469   -8.3604 C   0  0  0  0  0  0  0  0  0  0  0  0
   26.0188  -19.4462   -7.2138 N   0  0  0  0  0  0  0  0  0  0  0  0
   27.1859  -19.7086   -6.5913 C   0  0  0  0  0  0  0  0  0  0  0  0
   27.7591  -19.2819   -5.4014 C   0  0  0  0  0  0  0  0  0  0  0  0
   28.9946  -19.7389   -5.0250 C   0  0  0  0  0  0  0  0  0  0  0  0
   29.7027  -20.6327   -5.8139 C   0  0  0  0  0  0  0  0  0  0  0  0
   29.1592  -21.0730   -6.9995 C   0  0  0  0  0  0  0  0  0  0  0  0
   27.9212  -20.6054   -7.3611 C   0  0  0  0  0  0  0  0  0  0  0  0
   26.1209  -21.6568  -11.6266 C   0  0  0  0  0  0  0  0  0  0  0  0
   25.4623  -22.5663  -11.0560 O   0  0  0  0  0  0  0  0  0  0  0  0
   25.8034  -21.2687  -12.9352 N   0  0  0  0  0  0  0  0  0  0  0  0
   24.7812  -21.9836  -13.6990 C   0  0  1  0  0  0  0  0  0  0  0  0
   23.7505  -20.9814  -14.0560 C   0  0  0  0  0  0  0  0  0  0  0  0
   22.9036  -20.4732  -12.9660 C   0  0  0  0  0  0  0  0  0  0  0  0
   22.9187  -19.1615  -12.4566 C   0  0  0  0  0  0  0  0  0  0  0  0
   22.0531  -19.0633  -11.4520 N   0  0  0  0  0  0  0  0  0  0  0  0
   21.4623  -20.2623  -11.2755 C   0  0  0  0  0  0  0  0  0  0  0  0
   20.5036  -20.6948  -10.4063 C   0  0  0  0  0  0  0  0  0  0  0  0
   20.0407  -21.9795  -10.4349 C   0  0  0  0  0  0  0  0  0  0  0  0
   20.5454  -22.8827  -11.3639 C   0  0  0  0  0  0  0  0  0  0  0  0
   21.5020  -22.4381  -12.2247 C   0  0  0  0  0  0  0  0  0  0  0  0
   21.9829  -21.1411  -12.2092 C   0  0  0  0  0  0  0  0  0  0  0  0
   25.3465  -22.7534  -14.7881 C   0  0  0  0  0  0  0  0  0  0  0  0
   26.5090  -22.2990  -15.1890 O   0  0  0  0  0  0  0  0  0  0  0  0
   24.8645  -23.8736  -15.4648 N   0  0  0  0  0  0  0  0  0  0  0  0
   23.6510  -24.6273  -15.3722 C   0  0  0  0  0  0  0  0  0  0  0  0
   24.2603  -26.0454  -15.2910 C   0  0  0  0  0  0  0  0  0  0  0  0
   25.1386  -26.0003  -16.5235 C   0  0  0  0  0  0  0  0  0  0  0  0
   25.6285  -24.5863  -16.5408 C   0  0  1  0  0  0  0  0  0  0  0  0
   25.3084  -23.9809  -17.8456 C   0  0  0  0  0  0  0  0  0  0  0  0
   26.0705  -24.3038  -18.9463 O   0  0  0  0  0  0  0  0  0  0  0  0
   24.3593  -23.1826  -17.9653 O   0  0  0  0  0  0  0  0  0  0  0  0
  2  3  1  0
  2  1  1  1
  4  5  2  0
  4  3  1  0
  6  5  1  0
  7 12  2  0
  7  6  1  0
  8  7  1  0
  9 10  1  0
  9  8  2  0
 10 11  2  0
 11 12  1  0
 12  4  1  0
 13  2  1  0
 14 13  2  0
 15 13  1  0
 16 15  1  0
 16 17  1  6
 18 17  1  0
 19 18  2  0
 20 19  1  0
 21 20  1  0
 21 26  2  0
 22 21  1  0
 23 22  2  0
 23 24  1  0
 24 25  2  0
 25 26  1  0
 26 18  1  0
 27 16  1  0
 27 29  1  0
 28 27  2  0
 29 30  1  0
 30 31  1  0
 32 31  1  0
 33 29  1  0
 33 32  1  0
 33 34  1  6
 35 34  1  0
 36 34  2  0
M  END
$$$$
