WWP.pdb
     RDKit          3D

 36 40  0  0  1  0  0  0  0  0999 V2000
   26.4338  -17.5934  -19.0525 N   0  0  0  0  0  0  0  0  0  0  0  0
   25.7678  -17.4689  -17.7719 C   0  0  1  0  0  0  0  0  0  0  0  0
   24.2770  -17.3722  -18.0996 C   0  0  0  0  0  0  0  0  0  0  0  0
   23.9692  -15.9353  -18.2752 C   0  0  0  0  0  0  0  0  0  0  0  0
   24.0530  -15.2165  -19.4593 C   0  0  0  0  0  0  0  0  0  0  0  0
   23.6988  -13.9415  -19.2223 N   0  0  0  0  0  0  0  0  0  0  0  0
   23.3886  -13.8199  -17.9156 C   0  0  0  0  0  0  0  0  0  0  0  0
   22.9652  -12.7633  -17.1213 C   0  0  0  0  0  0  0  0  0  0  0  0
   22.7222  -12.9544  -15.7866 C   0  0  0  0  0  0  0  0  0  0  0  0
   22.8905  -14.1970  -15.1950 C   0  0  0  0  0  0  0  0  0  0  0  0
   23.3096  -15.2634  -15.9580 C   0  0  0  0  0  0  0  0  0  0  0  0
   23.5482  -15.0543  -17.2927 C   0  0  0  0  0  0  0  0  0  0  0  0
   26.0240  -18.6056  -16.8793 C   0  0  0  0  0  0  0  0  0  0  0  0
   25.9786  -19.7702  -17.3573 O   0  0  0  0  0  0  0  0  0  0  0  0
   26.3146  -18.4091  -15.5226 N   0  0  0  0  0  0  0  0  0  0  0  0
   26.4229  -19.5466  -14.6096 C   0  0  1  0  0  0  0  0  0  0  0  0
   27.3146  -19.1141  -13.5087 C   0  0  0  0  0  0  0  0  0  0  0  0
   27.6650  -20.1206  -12.4949 C   0  0  0  0  0  0  0  0  0  0  0  0
   28.5897  -21.1680  -12.6618 C   0  0  0  0  0  0  0  0  0  0  0  0
   28.6292  -21.9082  -11.5579 N   0  0  0  0  0  0  0  0  0  0  0  0
   27.7646  -21.3901  -10.6625 C   0  0  0  0  0  0  0  0  0  0  0  0
   27.4365  -21.7501   -9.3879 C   0  0  0  0  0  0  0  0  0  0  0  0
   26.5261  -21.0409   -8.6573 C   0  0  0  0  0  0  0  0  0  0  0  0
   25.9084  -19.9231   -9.2072 C   0  0  0  0  0  0  0  0  0  0  0  0
   26.2445  -19.5755  -10.4801 C   0  0  0  0  0  0  0  0  0  0  0  0
   27.1634  -20.2827  -11.2345 C   0  0  0  0  0  0  0  0  0  0  0  0
   25.1277  -20.0730  -14.2306 C   0  0  0  0  0  0  0  0  0  0  0  0
   24.1997  -19.1499  -14.1570 O   0  0  0  0  0  0  0  0  0  0  0  0
   24.7177  -21.3733  -13.9367 N   0  0  0  0  0  0  0  0  0  0  0  0
   25.4090  -22.6241  -13.8566 C   0  0  0  0  0  0  0  0  0  0  0  0
   24.4581  -23.4749  -14.7287 C   0  0  0  0  0  0  0  0  0  0  0  0
   23.1534  -23.1802  -14.0191 C   0  0  0  0  0  0  0  0  0  0  0  0
   23.2997  -21.7453  -13.6200 C   0  0  1  0  0  0  0  0  0  0  0  0
   23.0788  -21.6237  -12.1681 C   0  0  0  0  0  0  0  0  0  0  0  0
   21.7929  -21.6458  -11.6754 O   0  0  0  0  0  0  0  0  0  0  0  0
   24.0382  -21.5014  -11.3827 O   0  0  0  0  0  0  0  0  0  0  0  0
  2  3  1  0
  2  1  1  6
  4  5  2  0
  4  3  1  0
  6  5  1  0
  7 12  2  0
  7  6  1  0
  8  7  1  0
  9 10  1  0
  9  8  2  0
 10 11  2  0
 11 12  1  0
 12  4  1  0
 13  2  1  0
 14 13  2  0
 15 13  1  0
 16 15  1  0
 16 17  1  1
 18 17  1  0
 19 18  2  0
 20 19  1  0
 21 20  1  0
 21 26  2  0
 22 21  1  0
 23 22  2  0
 23 24  1  0
 24 25  2  0
 25 26  1  0
 26 18  1  0
 27 16  1  0
 27 29  1  0
 28 27  2  0
 29 30  1  0
 30 31  1  0
 32 31  1  0
 33 29  1  0
 33 32  1  0
 33 34  1  1
 35 34  1  0
 36 34  2  0
M  END
$$$$
