WWP.pdb
     RDKit          3D

 36 40  0  0  1  0  0  0  0  0999 V2000
   20.7313  -17.8610  -18.9148 N   0  0  0  0  0  0  0  0  0  0  0  0
   21.0443  -18.8373  -17.8912 C   0  0  1  0  0  0  0  0  0  0  0  0
   20.9029  -20.1984  -18.5745 C   0  0  0  0  0  0  0  0  0  0  0  0
   19.4649  -20.3804  -18.8733 C   0  0  0  0  0  0  0  0  0  0  0  0
   18.8593  -20.2341  -20.1134 C   0  0  0  0  0  0  0  0  0  0  0  0
   17.5429  -20.4765  -19.9879 N   0  0  0  0  0  0  0  0  0  0  0  0
   17.2844  -20.7755  -18.6987 C   0  0  0  0  0  0  0  0  0  0  0  0
   16.1315  -21.1059  -18.0000 C   0  0  0  0  0  0  0  0  0  0  0  0
   16.1867  -21.3650  -16.6558 C   0  0  0  0  0  0  0  0  0  0  0  0
   17.3845  -21.3054  -15.9598 C   0  0  0  0  0  0  0  0  0  0  0  0
   18.5440  -20.9801  -16.6266 C   0  0  0  0  0  0  0  0  0  0  0  0
   18.4706  -20.7238  -17.9723 C   0  0  0  0  0  0  0  0  0  0  0  0
   22.3956  -18.6780  -17.3406 C   0  0  0  0  0  0  0  0  0  0  0  0
   23.2743  -18.1203  -18.0502 O   0  0  0  0  0  0  0  0  0  0  0  0
   22.7105  -19.1328  -16.0531 N   0  0  0  0  0  0  0  0  0  0  0  0
   24.0585  -18.9652  -15.5107 C   0  0  1  0  0  0  0  0  0  0  0  0
   23.8957  -18.7108  -14.0606 C   0  0  0  0  0  0  0  0  0  0  0  0
   25.1200  -18.6629  -13.2467 C   0  0  0  0  0  0  0  0  0  0  0  0
   26.2591  -17.8833  -13.5205 C   0  0  0  0  0  0  0  0  0  0  0  0
   27.1898  -18.1148  -12.5995 N   0  0  0  0  0  0  0  0  0  0  0  0
   26.7103  -19.0197  -11.7226 C   0  0  0  0  0  0  0  0  0  0  0  0
   27.2430  -19.5817  -10.5991 C   0  0  0  0  0  0  0  0  0  0  0  0
   26.5398  -20.4795   -9.8474 C   0  0  0  0  0  0  0  0  0  0  0  0
   25.2499  -20.8420  -10.2187 C   0  0  0  0  0  0  0  0  0  0  0  0
   24.7309  -20.2741  -11.3422 C   0  0  0  0  0  0  0  0  0  0  0  0
   25.4290  -19.3642  -12.1157 C   0  0  0  0  0  0  0  0  0  0  0  0
   24.9415  -20.0501  -15.8870 C   0  0  0  0  0  0  0  0  0  0  0  0
   24.3082  -21.1785  -16.0973 O   0  0  0  0  0  0  0  0  0  0  0  0
   26.3254  -20.0880  -16.0564 N   0  0  0  0  0  0  0  0  0  0  0  0
   27.3703  -19.1444  -15.7982 C   0  0  0  0  0  0  0  0  0  0  0  0
   28.0974  -19.2197  -17.1600 C   0  0  0  0  0  0  0  0  0  0  0  0
   28.3072  -20.7173  -17.2376 C   0  0  0  0  0  0  0  0  0  0  0  0
   27.0612  -21.2680  -16.6181 C   0  0  1  0  0  0  0  0  0  0  0  0
   27.4305  -22.1776  -15.5191 C   0  0  0  0  0  0  0  0  0  0  0  0
   28.0800  -23.3575  -15.8069 O   0  0  0  0  0  0  0  0  0  0  0  0
   27.1632  -21.8935  -14.3358 O   0  0  0  0  0  0  0  0  0  0  0  0
  2  3  1  0
  2  1  1  6
  4  5  2  0
  4  3  1  0
  6  5  1  0
  7 12  2  0
  7  6  1  0
  8  7  1  0
  9 10  1  0
  9  8  2  0
 10 11  2  0
 11 12  1  0
 12  4  1  0
 13  2  1  0
 14 13  2  0
 15 13  1  0
 16 15  1  0
 16 17  1  1
 18 17  1  0
 19 18  2  0
 20 19  1  0
 21 20  1  0
 21 26  2  0
 22 21  1  0
 23 22  2  0
 23 24  1  0
 24 25  2  0
 25 26  1  0
 26 18  1  0
 27 16  1  0
 27 29  1  0
 28 27  2  0
 29 30  1  0
 30 31  1  0
 32 31  1  0
 33 29  1  0
 33 32  1  0
 33 34  1  1
 35 34  1  0
 36 34  2  0
M  END
$$$$
