SCE.pdb
     RDKit          3D

 22 21  0  0  1  0  0  0  0  0999 V2000
    8.8890  -17.6218   22.4589 O   0  0  0  0  0  0  0  0  0  0  0  0
    7.7418  -17.1199   21.8964 C   0  0  0  0  0  0  0  0  0  0  0  0
    7.8938  -15.6305   21.5602 C   0  0  2  0  0  0  0  0  0  0  0  0
    8.8234  -15.5374   20.4751 N   0  0  0  0  0  0  0  0  0  0  0  0
    8.3834  -14.9381   22.7959 C   0  0  0  0  0  0  0  0  0  0  0  0
    9.6269  -14.8177   22.9269 O   0  0  0  0  0  0  0  0  0  0  0  0
    7.5274  -14.4352   23.7805 N   0  0  0  0  0  0  0  0  0  0  0  0
    7.9741  -13.8223   25.0097 C   0  0  1  0  0  0  0  0  0  0  0  0
    6.8262  -13.1862   25.7869 C   0  0  0  0  0  0  0  0  0  0  0  0
    7.4228  -12.3896   27.2796 S   0  0  0  0  0  0  0  0  0  0  0  0
    8.6343  -14.7766   25.9080 C   0  0  0  0  0  0  0  0  0  0  0  0
    8.0209  -15.8491   26.2325 O   0  0  0  0  0  0  0  0  0  0  0  0
    9.9261  -14.6213   26.4691 N   0  0  0  0  0  0  0  0  0  0  0  0
   10.5094  -15.6163   27.3944 C   0  0  1  0  0  0  0  0  0  0  0  0
   11.9072  -15.8930   27.0196 C   0  0  0  0  0  0  0  0  0  0  0  0
   12.0972  -16.4275   25.6499 C   0  0  0  0  0  0  0  0  0  0  0  0
   13.4791  -16.6833   25.2281 C   0  0  0  0  0  0  0  0  0  0  0  0
   14.4871  -16.3960   25.9641 O   0  0  0  0  0  0  0  0  0  0  0  0
   10.2651  -15.1893   28.7425 C   0  0  0  0  0  0  0  0  0  0  0  0
   10.4976  -15.9480   29.7170 O   0  0  0  0  0  0  0  0  0  0  0  0
   13.7909  -17.2542   24.0016 O   0  0  0  0  0  0  0  0  0  0  0  0
    9.7734  -13.9150   29.0187 O   0  0  0  0  0  0  0  0  0  0  0  0
  2  1  1  0
  3  2  1  0
  3  5  1  0
  3  4  1  6
  5  7  1  0
  5  6  2  0
  7  8  1  0
  8  9  1  1
 10  9  1  0
 11 12  2  0
 11  8  1  0
 13 11  1  0
 14 13  1  0
 14 15  1  6
 15 16  1  0
 17 21  1  0
 17 16  1  0
 18 17  2  0
 19 14  1  0
 20 19  2  0
 22 19  1  0
M  END
$$$$
