SCE.pdb
     RDKit          3D

 22 21  0  0  1  0  0  0  0  0999 V2000
    8.5668  -18.2623   20.0004 O   0  0  0  0  0  0  0  0  0  0  0  0
    7.2944  -17.8418   19.7027 C   0  0  0  0  0  0  0  0  0  0  0  0
    7.2578  -16.3318   19.4319 C   0  0  2  0  0  0  0  0  0  0  0  0
    7.8872  -16.1169   18.1640 N   0  0  0  0  0  0  0  0  0  0  0  0
    7.9842  -15.6556   20.5549 C   0  0  0  0  0  0  0  0  0  0  0  0
    9.1876  -15.3553   20.3561 O   0  0  0  0  0  0  0  0  0  0  0  0
    7.3851  -15.3557   21.7822 N   0  0  0  0  0  0  0  0  0  0  0  0
    8.0875  -14.7989   22.9147 C   0  0  1  0  0  0  0  0  0  0  0  0
    7.1407  -14.4078   24.0447 C   0  0  0  0  0  0  0  0  0  0  0  0
    8.0483  -13.7585   25.4495 S   0  0  0  0  0  0  0  0  0  0  0  0
    9.0778  -15.7255   23.4750 C   0  0  0  0  0  0  0  0  0  0  0  0
    8.7663  -16.9566   23.6134 O   0  0  0  0  0  0  0  0  0  0  0  0
   10.3872  -15.3790   23.8911 N   0  0  0  0  0  0  0  0  0  0  0  0
   11.3910  -16.3974   24.2678 C   0  0  1  0  0  0  0  0  0  0  0  0
   12.7304  -15.9710   23.8266 C   0  0  0  0  0  0  0  0  0  0  0  0
   13.8345  -16.8927   24.1863 C   0  0  0  0  0  0  0  0  0  0  0  0
   15.1850  -16.4970   23.7712 C   0  0  0  0  0  0  0  0  0  0  0  0
   16.1627  -16.4200   24.5948 O   0  0  0  0  0  0  0  0  0  0  0  0
   11.2285  -16.7106   25.6588 C   0  0  0  0  0  0  0  0  0  0  0  0
   10.6411  -15.9196   26.4390 O   0  0  0  0  0  0  0  0  0  0  0  0
   15.4976  -16.1778   22.4566 O   0  0  0  0  0  0  0  0  0  0  0  0
   11.7051  -17.9073   26.1904 O   0  0  0  0  0  0  0  0  0  0  0  0
  2  1  1  0
  3  2  1  0
  3  5  1  0
  3  4  1  6
  5  7  1  0
  5  6  2  0
  7  8  1  0
  8  9  1  1
 10  9  1  0
 11 12  2  0
 11  8  1  0
 13 11  1  0
 14 13  1  0
 14 15  1  1
 15 16  1  0
 17 21  1  0
 17 16  1  0
 18 17  2  0
 19 14  1  0
 20 19  2  0
 22 19  1  0
M  END
$$$$
