SCE.pdb
     RDKit          3D

 22 21  0  0  1  0  0  0  0  0999 V2000
    6.4178  -17.0570   20.6396 O   0  0  0  0  0  0  0  0  0  0  0  0
    7.1043  -16.5918   21.7334 C   0  0  0  0  0  0  0  0  0  0  0  0
    7.6776  -15.1920   21.4752 C   0  0  2  0  0  0  0  0  0  0  0  0
    8.7344  -15.3403   20.5206 N   0  0  0  0  0  0  0  0  0  0  0  0
    8.1615  -14.6549   22.7879 C   0  0  0  0  0  0  0  0  0  0  0  0
    9.3537  -14.8995   23.0991 O   0  0  0  0  0  0  0  0  0  0  0  0
    7.3542  -13.9112   23.6541 N   0  0  0  0  0  0  0  0  0  0  0  0
    7.7422  -13.5159   24.9880 C   0  0  1  0  0  0  0  0  0  0  0  0
    6.6556  -12.7065   25.6882 C   0  0  0  0  0  0  0  0  0  0  0  0
    7.1180  -12.3378   27.3821 S   0  0  0  0  0  0  0  0  0  0  0  0
    8.0550  -14.6634   25.8475 C   0  0  0  0  0  0  0  0  0  0  0  0
    7.1709  -15.5695   26.0182 O   0  0  0  0  0  0  0  0  0  0  0  0
    9.2797  -14.8726   26.5287 N   0  0  0  0  0  0  0  0  0  0  0  0
    9.5006  -16.0345   27.4163 C   0  0  1  0  0  0  0  0  0  0  0  0
   10.1124  -17.1387   26.6566 C   0  0  0  0  0  0  0  0  0  0  0  0
   11.5762  -17.2904   26.8358 C   0  0  0  0  0  0  0  0  0  0  0  0
   12.2757  -18.1341   25.8602 C   0  0  0  0  0  0  0  0  0  0  0  0
   11.6653  -18.7353   24.9083 O   0  0  0  0  0  0  0  0  0  0  0  0
   10.1892  -15.5892   28.5939 C   0  0  0  0  0  0  0  0  0  0  0  0
   10.4844  -16.3901   29.5163 O   0  0  0  0  0  0  0  0  0  0  0  0
   13.6480  -18.3403   25.9008 O   0  0  0  0  0  0  0  0  0  0  0  0
   10.5653  -14.2565   28.7504 O   0  0  0  0  0  0  0  0  0  0  0  0
  2  1  1  0
  3  2  1  0
  3  5  1  0
  3  4  1  6
  5  7  1  0
  5  6  2  0
  7  8  1  0
  8  9  1  1
 10  9  1  0
 11 12  2  0
 11  8  1  0
 13 11  1  0
 14 13  1  0
 14 15  1  6
 15 16  1  0
 17 21  1  0
 17 16  1  0
 18 17  2  0
 19 14  1  0
 20 19  2  0
 22 19  1  0
M  END
$$$$
