SCE.pdb
     RDKit          3D

 22 21  0  0  1  0  0  0  0  0999 V2000
    8.3094  -15.5829   18.9137 O   0  0  0  0  0  0  0  0  0  0  0  0
    7.0775  -14.9925   19.0489 C   0  0  0  0  0  0  0  0  0  0  0  0
    7.2051  -13.5543   19.5684 C   0  0  2  0  0  0  0  0  0  0  0  0
    7.9666  -12.8239   18.6006 N   0  0  0  0  0  0  0  0  0  0  0  0
    7.8832  -13.6167   20.9034 C   0  0  0  0  0  0  0  0  0  0  0  0
    9.1321  -13.4824   20.9151 O   0  0  0  0  0  0  0  0  0  0  0  0
    7.1927  -13.8136   22.1032 N   0  0  0  0  0  0  0  0  0  0  0  0
    7.8247  -13.9073   23.3986 C   0  0  1  0  0  0  0  0  0  0  0  0
    6.8127  -13.8580   24.5386 C   0  0  0  0  0  0  0  0  0  0  0  0
    7.6346  -13.9187   26.1322 S   0  0  0  0  0  0  0  0  0  0  0  0
    8.6032  -15.1409   23.5580 C   0  0  0  0  0  0  0  0  0  0  0  0
    8.0822  -16.2529   23.2059 O   0  0  0  0  0  0  0  0  0  0  0  0
    9.9177  -15.2237   24.0807 N   0  0  0  0  0  0  0  0  0  0  0  0
   10.6464  -16.5062   24.1842 C   0  0  1  0  0  0  0  0  0  0  0  0
   12.0302  -16.3383   23.7070 C   0  0  0  0  0  0  0  0  0  0  0  0
   12.9092  -17.5166   23.8991 C   0  0  0  0  0  0  0  0  0  0  0  0
   14.2930  -17.3903   23.4278 C   0  0  0  0  0  0  0  0  0  0  0  0
   14.9012  -18.3386   22.8187 O   0  0  0  0  0  0  0  0  0  0  0  0
   10.4692  -17.0301   25.5083 C   0  0  0  0  0  0  0  0  0  0  0  0
   10.7590  -18.2225   25.7798 O   0  0  0  0  0  0  0  0  0  0  0  0
   15.0401  -16.2342   23.6093 O   0  0  0  0  0  0  0  0  0  0  0  0
    9.9815  -16.2324   26.5416 O   0  0  0  0  0  0  0  0  0  0  0  0
  2  1  1  0
  3  2  1  0
  3  5  1  0
  3  4  1  6
  5  7  1  0
  5  6  2  0
  7  8  1  0
  8  9  1  1
 10  9  1  0
 11 12  2  0
 11  8  1  0
 13 11  1  0
 14 13  1  0
 14 15  1  1
 15 16  1  0
 17 21  1  0
 17 16  1  0
 18 17  2  0
 19 14  1  0
 20 19  2  0
 22 19  1  0
M  END
$$$$
