SCE.pdb
     RDKit          3D

 22 21  0  0  1  0  0  0  0  0999 V2000
    7.5967  -16.6493   21.1069 O   0  0  0  0  0  0  0  0  0  0  0  0
    6.4964  -15.8299   21.0579 C   0  0  0  0  0  0  0  0  0  0  0  0
    6.9049  -14.3508   21.0604 C   0  0  2  0  0  0  0  0  0  0  0  0
    7.7121  -14.1359   19.8975 N   0  0  0  0  0  0  0  0  0  0  0  0
    7.6526  -14.0928   22.3333 C   0  0  0  0  0  0  0  0  0  0  0  0
    8.9019  -14.2185   22.2959 O   0  0  0  0  0  0  0  0  0  0  0  0
    7.0250  -13.7268   23.5279 N   0  0  0  0  0  0  0  0  0  0  0  0
    7.7214  -13.4771   24.7684 C   0  0  1  0  0  0  0  0  0  0  0  0
    6.7941  -12.9340   25.8508 C   0  0  0  0  0  0  0  0  0  0  0  0
    7.6986  -12.5946   27.3626 S   0  0  0  0  0  0  0  0  0  0  0  0
    8.3634  -14.6818   25.3068 C   0  0  0  0  0  0  0  0  0  0  0  0
    7.6970  -15.7706   25.3553 O   0  0  0  0  0  0  0  0  0  0  0  0
    9.6918  -14.7596   25.7939 N   0  0  0  0  0  0  0  0  0  0  0  0
   10.3208  -16.0442   26.1689 C   0  0  1  0  0  0  0  0  0  0  0  0
   11.6261  -16.1795   25.4990 C   0  0  0  0  0  0  0  0  0  0  0  0
   12.4016  -17.3873   25.8703 C   0  0  0  0  0  0  0  0  0  0  0  0
   13.7667  -17.4824   25.3409 C   0  0  0  0  0  0  0  0  0  0  0  0
   14.3158  -16.5326   24.6802 O   0  0  0  0  0  0  0  0  0  0  0  0
   10.3028  -16.1649   27.5987 C   0  0  0  0  0  0  0  0  0  0  0  0
   10.1466  -15.1580   28.3342 O   0  0  0  0  0  0  0  0  0  0  0  0
   14.5586  -18.6089   25.5186 O   0  0  0  0  0  0  0  0  0  0  0  0
   10.4454  -17.4037   28.2210 O   0  0  0  0  0  0  0  0  0  0  0  0
  2  1  1  0
  3  2  1  0
  3  5  1  0
  3  4  1  6
  5  7  1  0
  5  6  2  0
  7  8  1  0
  8  9  1  1
 10  9  1  0
 11 12  2  0
 11  8  1  0
 13 11  1  0
 14 13  1  0
 14 15  1  1
 15 16  1  0
 17 21  1  0
 17 16  1  0
 18 17  2  0
 19 14  1  0
 20 19  2  0
 22 19  1  0
M  END
$$$$
