SCE.pdb
     RDKit          3D

 22 21  0  0  1  0  0  0  0  0999 V2000
    7.7086  -16.3557   19.7129 O   0  0  0  0  0  0  0  0  0  0  0  0
    7.9908  -15.2470   18.9543 C   0  0  0  0  0  0  0  0  0  0  0  0
    7.4617  -13.9696   19.6197 C   0  0  2  0  0  0  0  0  0  0  0  0
    7.8405  -12.8717   18.7822 N   0  0  0  0  0  0  0  0  0  0  0  0
    8.0736  -13.8871   20.9853 C   0  0  0  0  0  0  0  0  0  0  0  0
    9.2543  -13.4644   21.0561 O   0  0  0  0  0  0  0  0  0  0  0  0
    7.3942  -14.2541   22.1509 N   0  0  0  0  0  0  0  0  0  0  0  0
    7.9493  -14.1545   23.4806 C   0  0  1  0  0  0  0  0  0  0  0  0
    6.8839  -13.8503   24.5287 C   0  0  0  0  0  0  0  0  0  0  0  0
    7.6032  -13.7566   26.1696 S   0  0  0  0  0  0  0  0  0  0  0  0
    8.6356  -15.3825   23.8984 C   0  0  0  0  0  0  0  0  0  0  0  0
    8.0197  -16.4980   23.8091 O   0  0  0  0  0  0  0  0  0  0  0  0
    9.9559  -15.4557   24.4074 N   0  0  0  0  0  0  0  0  0  0  0  0
   10.5371  -16.7171   24.9150 C   0  0  1  0  0  0  0  0  0  0  0  0
   11.9904  -16.7345   24.6735 C   0  0  0  0  0  0  0  0  0  0  0  0
   12.3920  -16.6702   23.2478 C   0  0  0  0  0  0  0  0  0  0  0  0
   13.8274  -16.5408   22.9727 C   0  0  0  0  0  0  0  0  0  0  0  0
   14.6925  -16.3668   23.9009 O   0  0  0  0  0  0  0  0  0  0  0  0
   10.0952  -16.9161   26.2658 C   0  0  0  0  0  0  0  0  0  0  0  0
    9.3950  -16.0543   26.8543 O   0  0  0  0  0  0  0  0  0  0  0  0
   14.3485  -16.5974   21.6870 O   0  0  0  0  0  0  0  0  0  0  0  0
   10.4165  -18.0765   26.9674 O   0  0  0  0  0  0  0  0  0  0  0  0
  2  1  1  0
  3  2  1  0
  3  5  1  0
  3  4  1  6
  5  7  1  0
  5  6  2  0
  7  8  1  0
  8  9  1  1
 10  9  1  0
 11 12  2  0
 11  8  1  0
 13 11  1  0
 14 13  1  0
 14 15  1  1
 15 16  1  0
 17 21  1  0
 17 16  1  0
 18 17  2  0
 19 14  1  0
 20 19  2  0
 22 19  1  0
M  END
$$$$
