SCE.pdb
     RDKit          3D

 22 21  0  0  1  0  0  0  0  0999 V2000
    7.4555  -17.0211   21.7073 O   0  0  0  0  0  0  0  0  0  0  0  0
    6.5594  -16.0555   21.3214 C   0  0  0  0  0  0  0  0  0  0  0  0
    7.2311  -14.6787   21.2316 C   0  0  2  0  0  0  0  0  0  0  0  0
    8.1708  -14.7392   20.1530 N   0  0  0  0  0  0  0  0  0  0  0  0
    7.8891  -14.4123   22.5514 C   0  0  0  0  0  0  0  0  0  0  0  0
    9.1068  -14.7044   22.6504 O   0  0  0  0  0  0  0  0  0  0  0  0
    7.2131  -13.8648   23.6461 N   0  0  0  0  0  0  0  0  0  0  0  0
    7.8229  -13.6001   24.9283 C   0  0  1  0  0  0  0  0  0  0  0  0
    6.8783  -12.8678   25.8757 C   0  0  0  0  0  0  0  0  0  0  0  0
    7.6754  -12.5322   27.4476 S   0  0  0  0  0  0  0  0  0  0  0  0
    8.2609  -14.8248   25.6078 C   0  0  0  0  0  0  0  0  0  0  0  0
    7.4414  -15.7982   25.7208 O   0  0  0  0  0  0  0  0  0  0  0  0
    9.5438  -15.0416   26.1690 N   0  0  0  0  0  0  0  0  0  0  0  0
    9.9221  -16.3236   26.8016 C   0  0  1  0  0  0  0  0  0  0  0  0
   10.9704  -16.9867   26.0067 C   0  0  0  0  0  0  0  0  0  0  0  0
   11.4473  -18.2813   26.5495 C   0  0  0  0  0  0  0  0  0  0  0  0
   12.5246  -18.9490   25.8103 C   0  0  0  0  0  0  0  0  0  0  0  0
   13.0475  -18.4475   24.7543 O   0  0  0  0  0  0  0  0  0  0  0  0
   10.2032  -16.0865   28.1887 C   0  0  0  0  0  0  0  0  0  0  0  0
   10.3530  -14.9199   28.6315 O   0  0  0  0  0  0  0  0  0  0  0  0
   13.0524  -20.1715   26.2036 O   0  0  0  0  0  0  0  0  0  0  0  0
   10.3078  -17.1400   29.0949 O   0  0  0  0  0  0  0  0  0  0  0  0
  2  1  1  0
  3  2  1  0
  3  5  1  0
  3  4  1  6
  5  7  1  0
  5  6  2  0
  7  8  1  0
  8  9  1  1
 10  9  1  0
 11 12  2  0
 11  8  1  0
 13 11  1  0
 14 13  1  0
 14 15  1  6
 15 16  1  0
 17 21  1  0
 17 16  1  0
 18 17  2  0
 19 14  1  0
 20 19  2  0
 22 19  1  0
M  END
$$$$
