SCE.pdb
     RDKit          3D

 22 21  0  0  1  0  0  0  0  0999 V2000
    6.9571  -16.9894   18.3213 O   0  0  0  0  0  0  0  0  0  0  0  0
    7.5908  -16.6338   19.4859 C   0  0  0  0  0  0  0  0  0  0  0  0
    7.3660  -15.1510   19.8101 C   0  0  2  0  0  0  0  0  0  0  0  0
    7.7191  -14.4066   18.6390 N   0  0  0  0  0  0  0  0  0  0  0  0
    8.2292  -14.8119   20.9872 C   0  0  0  0  0  0  0  0  0  0  0  0
    9.4450  -14.5938   20.7584 O   0  0  0  0  0  0  0  0  0  0  0  0
    7.7416  -14.7320   22.2953 N   0  0  0  0  0  0  0  0  0  0  0  0
    8.5574  -14.4371   23.4501 C   0  0  1  0  0  0  0  0  0  0  0  0
    7.7204  -14.0297   24.6582 C   0  0  0  0  0  0  0  0  0  0  0  0
    6.4161  -15.2216   24.9694 S   0  0  0  0  0  0  0  0  0  0  0  0
    9.3891  -15.5751   23.8581 C   0  0  0  0  0  0  0  0  0  0  0  0
    8.9951  -16.7597   23.5875 O   0  0  0  0  0  0  0  0  0  0  0  0
   10.6256  -15.4874   24.5445 N   0  0  0  0  0  0  0  0  0  0  0  0
   11.5349  -16.6452   24.6836 C   0  0  1  0  0  0  0  0  0  0  0  0
   12.8255  -16.3519   24.0364 C   0  0  0  0  0  0  0  0  0  0  0  0
   13.8225  -17.4474   24.0959 C   0  0  0  0  0  0  0  0  0  0  0  0
   15.2309  -17.0659   23.9413 C   0  0  0  0  0  0  0  0  0  0  0  0
   16.1875  -17.9113   24.0433 O   0  0  0  0  0  0  0  0  0  0  0  0
   11.5685  -17.0402   26.0628 C   0  0  0  0  0  0  0  0  0  0  0  0
   11.1114  -16.2935   26.9643 O   0  0  0  0  0  0  0  0  0  0  0  0
   15.6252  -15.7618   23.6739 O   0  0  0  0  0  0  0  0  0  0  0  0
   12.0978  -18.2701   26.4493 O   0  0  0  0  0  0  0  0  0  0  0  0
  2  1  1  0
  3  2  1  0
  3  5  1  0
  3  4  1  6
  5  7  1  0
  5  6  2  0
  7  8  1  0
  8  9  1  1
 10  9  1  0
 11 12  2  0
 11  8  1  0
 13 11  1  0
 14 13  1  0
 14 15  1  1
 15 16  1  0
 17 21  1  0
 17 16  1  0
 18 17  2  0
 19 14  1  0
 20 19  2  0
 22 19  1  0
M  END
$$$$
