SCE.pdb
     RDKit          3D

 22 21  0  0  1  0  0  0  0  0999 V2000
    7.7219  -15.0662   18.6612 O   0  0  0  0  0  0  0  0  0  0  0  0
    8.4901  -14.7467   19.7530 C   0  0  0  0  0  0  0  0  0  0  0  0
    8.0656  -15.5550   20.9864 C   0  0  2  0  0  0  0  0  0  0  0  0
    6.6502  -15.7502   20.8941 N   0  0  0  0  0  0  0  0  0  0  0  0
    8.4580  -14.7657   22.1984 C   0  0  0  0  0  0  0  0  0  0  0  0
    9.6838  -14.5456   22.3628 O   0  0  0  0  0  0  0  0  0  0  0  0
    7.5325  -14.2793   23.1267 N   0  0  0  0  0  0  0  0  0  0  0  0
    7.8719  -13.8457   24.4619 C   0  0  1  0  0  0  0  0  0  0  0  0
    6.7691  -13.0008   25.0914 C   0  0  0  0  0  0  0  0  0  0  0  0
    7.1521  -12.6119   26.8004 S   0  0  0  0  0  0  0  0  0  0  0  0
    8.1345  -14.9685   25.3695 C   0  0  0  0  0  0  0  0  0  0  0  0
    7.1933  -15.7942   25.6228 O   0  0  0  0  0  0  0  0  0  0  0  0
    9.3680  -15.2360   26.0134 N   0  0  0  0  0  0  0  0  0  0  0  0
    9.5777  -16.4379   26.8490 C   0  0  1  0  0  0  0  0  0  0  0  0
   10.1157  -17.5350   26.0259 C   0  0  0  0  0  0  0  0  0  0  0  0
   11.4132  -17.2499   25.3678 C   0  0  0  0  0  0  0  0  0  0  0  0
   11.9598  -18.3029   24.5046 C   0  0  0  0  0  0  0  0  0  0  0  0
   13.0119  -18.9660   24.8107 O   0  0  0  0  0  0  0  0  0  0  0  0
   10.3286  -16.0633   28.0131 C   0  0  0  0  0  0  0  0  0  0  0  0
   10.6206  -16.9070   28.8976 O   0  0  0  0  0  0  0  0  0  0  0  0
   11.3751  -18.6542   23.2953 O   0  0  0  0  0  0  0  0  0  0  0  0
   10.7706  -14.7546   28.1974 O   0  0  0  0  0  0  0  0  0  0  0  0
  2  1  1  0
  3  2  1  0
  3  5  1  0
  3  4  1  6
  5  7  1  0
  5  6  2  0
  7  8  1  0
  8  9  1  1
 10  9  1  0
 11 12  2  0
 11  8  1  0
 13 11  1  0
 14 13  1  0
 14 15  1  6
 15 16  1  0
 17 21  1  0
 17 16  1  0
 18 17  2  0
 19 14  1  0
 20 19  2  0
 22 19  1  0
M  END
$$$$
