SCE.pdb
     RDKit          3D

 22 21  0  0  1  0  0  0  0  0999 V2000
    8.6675  -15.7266   18.9256 O   0  0  0  0  0  0  0  0  0  0  0  0
    7.4368  -15.1188   18.9055 C   0  0  0  0  0  0  0  0  0  0  0  0
    7.5271  -13.6659   19.3909 C   0  0  2  0  0  0  0  0  0  0  0  0
    8.3139  -12.9506   18.4320 N   0  0  0  0  0  0  0  0  0  0  0  0
    8.1570  -13.6842   20.7506 C   0  0  0  0  0  0  0  0  0  0  0  0
    9.3922  -13.4635   20.8094 O   0  0  0  0  0  0  0  0  0  0  0  0
    7.4371  -13.9314   21.9235 N   0  0  0  0  0  0  0  0  0  0  0  0
    8.0304  -14.0224   23.2372 C   0  0  1  0  0  0  0  0  0  0  0  0
    7.0201  -13.7470   24.3461 C   0  0  0  0  0  0  0  0  0  0  0  0
    7.7764  -13.9210   25.9638 S   0  0  0  0  0  0  0  0  0  0  0  0
    8.6194  -15.3405   23.4996 C   0  0  0  0  0  0  0  0  0  0  0  0
    7.8980  -16.3836   23.3467 O   0  0  0  0  0  0  0  0  0  0  0  0
    9.9516  -15.5786   23.9195 N   0  0  0  0  0  0  0  0  0  0  0  0
   10.4810  -16.9433   24.1290 C   0  0  1  0  0  0  0  0  0  0  0  0
   11.7829  -17.0868   23.4544 C   0  0  0  0  0  0  0  0  0  0  0  0
   12.8822  -16.2748   24.0291 C   0  0  0  0  0  0  0  0  0  0  0  0
   14.1789  -16.3434   23.3459 C   0  0  0  0  0  0  0  0  0  0  0  0
   14.3301  -15.9994   22.1216 O   0  0  0  0  0  0  0  0  0  0  0  0
   10.4331  -17.2449   25.5311 C   0  0  0  0  0  0  0  0  0  0  0  0
   10.6312  -18.4123   25.9521 O   0  0  0  0  0  0  0  0  0  0  0  0
   15.3326  -16.7865   23.9785 O   0  0  0  0  0  0  0  0  0  0  0  0
   10.1776  -16.2522   26.4753 O   0  0  0  0  0  0  0  0  0  0  0  0
  2  1  1  0
  3  2  1  0
  3  5  1  0
  3  4  1  6
  5  7  1  0
  5  6  2  0
  7  8  1  0
  8  9  1  1
 10  9  1  0
 11 12  2  0
 11  8  1  0
 13 11  1  0
 14 13  1  0
 14 15  1  1
 15 16  1  0
 17 21  1  0
 17 16  1  0
 18 17  2  0
 19 14  1  0
 20 19  2  0
 22 19  1  0
M  END
$$$$
