LDA.pdb
     RDKit          3D

 22 21  0  0  1  0  0  0  0  0999 V2000
   24.9517  -10.1930  -15.4009 C   0  0  0  0  0  0  0  0  0  0  0  0
   23.6573  -10.9178  -15.0675 C   0  0  2  0  0  0  0  0  0  0  0  0
   23.7548  -12.3416  -15.5792 C   0  0  0  0  0  0  0  0  0  0  0  0
   22.4951  -10.2031  -15.6848 C   0  0  0  0  0  0  0  0  0  0  0  0
   22.3456   -8.7955  -15.1912 C   0  0  2  0  0  0  0  0  0  0  0  0
   22.2940   -8.6722  -13.7735 N   0  0  0  0  0  0  0  0  0  0  0  0
   21.2115   -8.1125  -15.8706 C   0  0  0  0  0  0  0  0  0  0  0  0
   21.1603   -8.1712  -17.1141 O   0  0  0  0  0  0  0  0  0  0  0  0
   20.1997   -7.4092  -15.2040 N   0  0  0  0  0  0  0  0  0  0  0  0
   19.0877   -6.7714  -15.8550 C   0  0  1  0  0  0  0  0  0  0  0  0
   17.7485   -7.2123  -15.3669 C   0  0  0  0  0  0  0  0  0  0  0  0
   16.6053   -6.6573  -16.1338 C   0  0  0  0  0  0  0  0  0  0  0  0
   15.7028   -6.0450  -15.5322 O   0  0  0  0  0  0  0  0  0  0  0  0
   19.1684   -5.2950  -15.7913 C   0  0  0  0  0  0  0  0  0  0  0  0
   19.5099   -4.6670  -14.7560 O   0  0  0  0  0  0  0  0  0  0  0  0
   16.5077   -6.7984  -17.5026 O   0  0  0  0  0  0  0  0  0  0  0  0
   18.9152   -2.4687  -18.3111 C   0  0  0  0  0  0  0  0  0  0  0  0
   19.1002   -3.0506  -16.9490 C   0  0  2  0  0  0  0  0  0  0  0  0
   18.8573   -4.4983  -16.9236 N   0  0  0  0  0  0  0  0  0  0  0  0
   18.2917   -2.3744  -15.9002 C   0  0  0  0  0  0  0  0  0  0  0  0
   17.2146   -2.8805  -15.4945 O   0  0  0  0  0  0  0  0  0  0  0  0
   18.6845   -1.1746  -15.3327 O   0  0  0  0  0  0  0  0  0  0  0  0
  2  1  1  6
  2  3  1  0
  4  5  1  0
  4  2  1  0
  5  7  1  0
  5  6  1  1
  7  8  2  0
  7  9  1  0
  9 10  1  0
 10 11  1  1
 10 14  1  0
 12 16  1  0
 12 11  1  0
 13 12  2  0
 14 15  2  0
 18 17  1  6
 19 14  1  0
 19 18  1  0
 20 18  1  0
 20 22  1  0
 21 20  2  0
M  END
$$$$
