LDA.pdb
     RDKit          3D

 22 21  0  0  1  0  0  0  0  0999 V2000
   18.5791  -12.6525  -18.0096 C   0  0  0  0  0  0  0  0  0  0  0  0
   19.2543  -12.7773  -16.6529 C   0  0  2  0  0  0  0  0  0  0  0  0
   18.5011  -13.8045  -15.8307 C   0  0  0  0  0  0  0  0  0  0  0  0
   19.2736  -11.4473  -15.9649 C   0  0  0  0  0  0  0  0  0  0  0  0
   20.1233  -10.4354  -16.6730 C   0  0  2  0  0  0  0  0  0  0  0  0
   21.4457  -10.8774  -16.9620 N   0  0  0  0  0  0  0  0  0  0  0  0
   20.0952   -9.1283  -15.9623 C   0  0  0  0  0  0  0  0  0  0  0  0
   18.9988   -8.7297  -15.5248 O   0  0  0  0  0  0  0  0  0  0  0  0
   21.2192   -8.3186  -15.7538 N   0  0  0  0  0  0  0  0  0  0  0  0
   21.1945   -7.0518  -15.0743 C   0  0  1  0  0  0  0  0  0  0  0  0
   22.4069   -6.7659  -14.2532 C   0  0  0  0  0  0  0  0  0  0  0  0
   22.3529   -5.4823  -13.5097 C   0  0  0  0  0  0  0  0  0  0  0  0
   22.7169   -4.4322  -14.0720 O   0  0  0  0  0  0  0  0  0  0  0  0
   20.9533   -5.9211  -15.9984 C   0  0  0  0  0  0  0  0  0  0  0  0
   21.6451   -5.7125  -17.0283 O   0  0  0  0  0  0  0  0  0  0  0  0
   21.9096   -5.4128  -12.2052 O   0  0  0  0  0  0  0  0  0  0  0  0
   18.1109   -3.8555  -16.9984 C   0  0  0  0  0  0  0  0  0  0  0  0
   19.5742   -3.9287  -16.7130 C   0  0  2  0  0  0  0  0  0  0  0  0
   19.9037   -4.9963  -15.7606 N   0  0  0  0  0  0  0  0  0  0  0  0
   20.1558   -2.6373  -16.2603 C   0  0  0  0  0  0  0  0  0  0  0  0
   20.0151   -2.2518  -15.0718 O   0  0  0  0  0  0  0  0  0  0  0  0
   20.8675   -1.8146  -17.1161 O   0  0  0  0  0  0  0  0  0  0  0  0
  2  1  1  6
  2  3  1  0
  4  5  1  0
  4  2  1  0
  5  7  1  0
  5  6  1  1
  7  8  2  0
  7  9  1  0
  9 10  1  0
 10 11  1  6
 10 14  1  0
 12 16  1  0
 12 11  1  0
 13 12  2  0
 14 15  2  0
 18 17  1  1
 19 14  1  0
 19 18  1  0
 20 18  1  0
 20 22  1  0
 21 20  2  0
M  END
$$$$
