LDA.pdb
     RDKit          3D

 22 21  0  0  1  0  0  0  0  0999 V2000
   26.6395  -11.3855  -15.0259 C   0  0  0  0  0  0  0  0  0  0  0  0
   26.6893  -10.8787  -16.4586 C   0  0  2  0  0  0  0  0  0  0  0  0
   27.9661  -10.0830  -16.6460 C   0  0  0  0  0  0  0  0  0  0  0  0
   25.4844  -10.0378  -16.7478 C   0  0  0  0  0  0  0  0  0  0  0  0
   24.2024  -10.8122  -16.6844 C   0  0  2  0  0  0  0  0  0  0  0  0
   24.1801  -11.9797  -17.4993 N   0  0  0  0  0  0  0  0  0  0  0  0
   23.0329   -9.9227  -16.9200 C   0  0  0  0  0  0  0  0  0  0  0  0
   22.7671   -9.6142  -18.0975 O   0  0  0  0  0  0  0  0  0  0  0  0
   22.2133   -9.4109  -15.9057 N   0  0  0  0  0  0  0  0  0  0  0  0
   21.0914   -8.5397  -16.1283 C   0  0  1  0  0  0  0  0  0  0  0  0
   19.9091   -8.8190  -15.2622 C   0  0  0  0  0  0  0  0  0  0  0  0
   19.3423  -10.1814  -15.4224 C   0  0  0  0  0  0  0  0  0  0  0  0
   19.0741  -10.6038  -16.5630 O   0  0  0  0  0  0  0  0  0  0  0  0
   21.4558   -7.1101  -16.0103 C   0  0  0  0  0  0  0  0  0  0  0  0
   22.1069   -6.6420  -15.0409 O   0  0  0  0  0  0  0  0  0  0  0  0
   19.1001  -11.0027  -14.3408 O   0  0  0  0  0  0  0  0  0  0  0  0
   21.1635   -4.0392  -18.2236 C   0  0  0  0  0  0  0  0  0  0  0  0
   21.5156   -4.7755  -16.9739 C   0  0  2  0  0  0  0  0  0  0  0  0
   21.0789   -6.1767  -17.0105 N   0  0  0  0  0  0  0  0  0  0  0  0
   21.0220   -4.1144  -15.7368 C   0  0  0  0  0  0  0  0  0  0  0  0
   19.9749   -4.5163  -15.1687 O   0  0  0  0  0  0  0  0  0  0  0  0
   21.6850   -3.0425  -15.1648 O   0  0  0  0  0  0  0  0  0  0  0  0
  2  1  1  1
  2  3  1  0
  4  5  1  0
  4  2  1  0
  5  7  1  0
  5  6  1  6
  7  8  2  0
  7  9  1  0
  9 10  1  0
 10 11  1  1
 10 14  1  0
 12 16  1  0
 12 11  1  0
 13 12  2  0
 14 15  2  0
 18 17  1  6
 19 14  1  0
 19 18  1  0
 20 18  1  0
 20 22  1  0
 21 20  2  0
M  END
$$$$
