LDA.pdb
     RDKit          3D

 22 21  0  0  1  0  0  0  0  0999 V2000
   23.4603  -14.0334  -14.9403 C   0  0  0  0  0  0  0  0  0  0  0  0
   24.2033  -13.3298  -16.0649 C   0  0  2  0  0  0  0  0  0  0  0  0
   25.6812  -13.3064  -15.7275 C   0  0  0  0  0  0  0  0  0  0  0  0
   23.6703  -11.9416  -16.2425 C   0  0  0  0  0  0  0  0  0  0  0  0
   22.2214  -11.9166  -16.6262 C   0  0  2  0  0  0  0  0  0  0  0  0
   21.9270  -12.5759  -17.8535 N   0  0  0  0  0  0  0  0  0  0  0  0
   21.6821  -10.5307  -16.5729 C   0  0  0  0  0  0  0  0  0  0  0  0
   21.9743   -9.7586  -17.5062 O   0  0  0  0  0  0  0  0  0  0  0  0
   20.8690  -10.0390  -15.5436 N   0  0  0  0  0  0  0  0  0  0  0  0
   20.3477   -8.7002  -15.4878 C   0  0  1  0  0  0  0  0  0  0  0  0
   19.0043   -8.5849  -14.8491 C   0  0  0  0  0  0  0  0  0  0  0  0
   17.9481   -9.4037  -15.4950 C   0  0  0  0  0  0  0  0  0  0  0  0
   17.2772  -10.1943  -14.8049 O   0  0  0  0  0  0  0  0  0  0  0  0
   21.2822   -7.7583  -14.8320 C   0  0  0  0  0  0  0  0  0  0  0  0
   21.8719   -8.0128  -13.7502 O   0  0  0  0  0  0  0  0  0  0  0  0
   17.6825   -9.3180  -16.8459 O   0  0  0  0  0  0  0  0  0  0  0  0
   22.8217   -4.3969  -15.6840 C   0  0  0  0  0  0  0  0  0  0  0  0
   22.4963   -5.5433  -14.7852 C   0  0  2  0  0  0  0  0  0  0  0  0
   21.5646   -6.4923  -15.4073 N   0  0  0  0  0  0  0  0  0  0  0  0
   21.9915   -5.1261  -13.4503 C   0  0  0  0  0  0  0  0  0  0  0  0
   20.7623   -5.1642  -13.1886 O   0  0  0  0  0  0  0  0  0  0  0  0
   22.8414   -4.6835  -12.4516 O   0  0  0  0  0  0  0  0  0  0  0  0
  2  1  1  1
  2  3  1  0
  4  5  1  0
  4  2  1  0
  5  7  1  0
  5  6  1  6
  7  8  2  0
  7  9  1  0
  9 10  1  0
 10 11  1  1
 10 14  1  0
 12 16  1  0
 12 11  1  0
 13 12  2  0
 14 15  2  0
 18 17  1  6
 19 14  1  0
 19 18  1  0
 20 18  1  0
 20 22  1  0
 21 20  2  0
M  END
$$$$
