LDA.pdb
     RDKit          3D

 22 21  0  0  1  0  0  0  0  0999 V2000
   20.5830  -21.5740  -11.6667 C   0  0  0  0  0  0  0  0  0  0  0  0
   21.5547  -20.5170  -11.1662 C   0  0  2  0  0  0  0  0  0  0  0  0
   21.0756  -20.0203   -9.8163 C   0  0  0  0  0  0  0  0  0  0  0  0
   21.6433  -19.3932  -12.1521 C   0  0  0  0  0  0  0  0  0  0  0  0
   22.0898  -19.8419  -13.5110 C   0  0  2  0  0  0  0  0  0  0  0  0
   23.3704  -20.4642  -13.5331 N   0  0  0  0  0  0  0  0  0  0  0  0
   21.9688  -18.7374  -14.5009 C   0  0  0  0  0  0  0  0  0  0  0  0
   22.8617  -17.8685  -14.5120 O   0  0  0  0  0  0  0  0  0  0  0  0
   20.9182  -18.6116  -15.4190 N   0  0  0  0  0  0  0  0  0  0  0  0
   20.8454  -17.6002  -16.4383 C   0  0  1  0  0  0  0  0  0  0  0  0
   20.4788  -18.1103  -17.7916 C   0  0  0  0  0  0  0  0  0  0  0  0
   21.4219  -19.1155  -18.3421 C   0  0  0  0  0  0  0  0  0  0  0  0
   22.5634  -18.7592  -18.6905 O   0  0  0  0  0  0  0  0  0  0  0  0
   19.9338  -16.4938  -16.0705 C   0  0  0  0  0  0  0  0  0  0  0  0
   18.8781  -16.6616  -15.4071 O   0  0  0  0  0  0  0  0  0  0  0  0
   21.0734  -20.4429  -18.4826 O   0  0  0  0  0  0  0  0  0  0  0  0
   20.0297  -12.7140  -16.2570 C   0  0  0  0  0  0  0  0  0  0  0  0
   19.3608  -14.0333  -16.0570 C   0  0  2  0  0  0  0  0  0  0  0  0
   20.2151  -15.1580  -16.4580 N   0  0  0  0  0  0  0  0  0  0  0  0
   18.0339  -14.1325  -16.7206 C   0  0  0  0  0  0  0  0  0  0  0  0
   17.9090  -14.7317  -17.8189 O   0  0  0  0  0  0  0  0  0  0  0  0
   16.8941  -13.5769  -16.1656 O   0  0  0  0  0  0  0  0  0  0  0  0
  2  1  1  6
  2  3  1  0
  4  5  1  0
  4  2  1  0
  5  7  1  0
  5  6  1  1
  7  8  2  0
  7  9  1  0
  9 10  1  0
 10 11  1  6
 10 14  1  0
 12 16  1  0
 12 11  1  0
 13 12  2  0
 14 15  2  0
 18 17  1  6
 19 14  1  0
 19 18  1  0
 20 18  1  0
 20 22  1  0
 21 20  2  0
M  END
$$$$
