LDA.pdb
     RDKit          3D

 22 21  0  0  1  0  0  0  0  0999 V2000
   24.8339  -10.7423  -15.4054 C   0  0  0  0  0  0  0  0  0  0  0  0
   23.4840  -11.4384  -15.4794 C   0  0  2  0  0  0  0  0  0  0  0  0
   23.6754  -12.7973  -16.1238 C   0  0  0  0  0  0  0  0  0  0  0  0
   22.5182  -10.6035  -16.2621 C   0  0  0  0  0  0  0  0  0  0  0  0
   22.3275   -9.2337  -15.6836 C   0  0  2  0  0  0  0  0  0  0  0  0
   21.9955   -9.2214  -14.2990 N   0  0  0  0  0  0  0  0  0  0  0  0
   21.3817   -8.4356  -16.5100 C   0  0  0  0  0  0  0  0  0  0  0  0
   21.6006   -8.3631  -17.7344 O   0  0  0  0  0  0  0  0  0  0  0  0
   20.2637   -7.7619  -16.0015 N   0  0  0  0  0  0  0  0  0  0  0  0
   19.3212   -7.0293  -16.8029 C   0  0  1  0  0  0  0  0  0  0  0  0
   17.8903   -7.3141  -16.4914 C   0  0  0  0  0  0  0  0  0  0  0  0
   16.9225   -6.6405  -17.3930 C   0  0  0  0  0  0  0  0  0  0  0  0
   17.0773   -6.7177  -18.6264 O   0  0  0  0  0  0  0  0  0  0  0  0
   19.5509   -5.5682  -16.7487 C   0  0  0  0  0  0  0  0  0  0  0  0
   19.8829   -4.9608  -15.6982 O   0  0  0  0  0  0  0  0  0  0  0  0
   15.8481   -5.9251  -16.9064 O   0  0  0  0  0  0  0  0  0  0  0  0
   19.7271   -2.7444  -19.2745 C   0  0  0  0  0  0  0  0  0  0  0  0
   19.6889   -3.3233  -17.8992 C   0  0  2  0  0  0  0  0  0  0  0  0
   19.4045   -4.7636  -17.9083 N   0  0  0  0  0  0  0  0  0  0  0  0
   18.7512   -2.6191  -16.9849 C   0  0  0  0  0  0  0  0  0  0  0  0
   17.6032   -3.0813  -16.7627 O   0  0  0  0  0  0  0  0  0  0  0  0
   19.0969   -1.4402  -16.3474 O   0  0  0  0  0  0  0  0  0  0  0  0
  2  1  1  6
  2  3  1  0
  4  5  1  0
  4  2  1  0
  5  7  1  0
  5  6  1  1
  7  8  2  0
  7  9  1  0
  9 10  1  0
 10 11  1  1
 10 14  1  0
 12 16  1  0
 12 11  1  0
 13 12  2  0
 14 15  2  0
 18 17  1  6
 19 14  1  0
 19 18  1  0
 20 18  1  0
 20 22  1  0
 21 20  2  0
M  END
$$$$
