LDA.pdb
     RDKit          3D

 22 21  0  0  1  0  0  0  0  0999 V2000
   26.5808  -13.2516  -15.3974 C   0  0  0  0  0  0  0  0  0  0  0  0
   26.8503  -12.3653  -16.6033 C   0  0  2  0  0  0  0  0  0  0  0  0
   28.2919  -11.8992  -16.5482 C   0  0  0  0  0  0  0  0  0  0  0  0
   25.9085  -11.2010  -16.6053 C   0  0  0  0  0  0  0  0  0  0  0  0
   24.4706  -11.6126  -16.7077 C   0  0  2  0  0  0  0  0  0  0  0  0
   24.1965  -12.5341  -17.7582 N   0  0  0  0  0  0  0  0  0  0  0  0
   23.5786  -10.4219  -16.7385 C   0  0  0  0  0  0  0  0  0  0  0  0
   23.6024   -9.7059  -17.7579 O   0  0  0  0  0  0  0  0  0  0  0  0
   22.7159  -10.0547  -15.6977 N   0  0  0  0  0  0  0  0  0  0  0  0
   21.7703   -8.9738  -15.7679 C   0  0  1  0  0  0  0  0  0  0  0  0
   20.4302   -9.2851  -15.1907 C   0  0  0  0  0  0  0  0  0  0  0  0
   19.7578  -10.4576  -15.8040 C   0  0  0  0  0  0  0  0  0  0  0  0
   19.7429  -10.5770  -17.0437 O   0  0  0  0  0  0  0  0  0  0  0  0
   22.2888   -7.7306  -15.1549 C   0  0  0  0  0  0  0  0  0  0  0  0
   22.8362   -7.6961  -14.0226 O   0  0  0  0  0  0  0  0  0  0  0  0
   19.1430  -11.4281  -15.0403 O   0  0  0  0  0  0  0  0  0  0  0  0
   22.7101   -4.1238  -16.2687 C   0  0  0  0  0  0  0  0  0  0  0  0
   22.8111   -5.2637  -15.3103 C   0  0  2  0  0  0  0  0  0  0  0  0
   22.1910   -6.4877  -15.8326 N   0  0  0  0  0  0  0  0  0  0  0  0
   22.2758   -4.9516  -13.9587 C   0  0  0  0  0  0  0  0  0  0  0  0
   22.9694   -4.3157  -13.1249 O   0  0  0  0  0  0  0  0  0  0  0  0
   21.0077   -5.3426  -13.5651 O   0  0  0  0  0  0  0  0  0  0  0  0
  2  1  1  1
  2  3  1  0
  4  5  1  0
  4  2  1  0
  5  7  1  0
  5  6  1  6
  7  8  2  0
  7  9  1  0
  9 10  1  0
 10 11  1  1
 10 14  1  0
 12 16  1  0
 12 11  1  0
 13 12  2  0
 14 15  2  0
 18 17  1  6
 19 14  1  0
 19 18  1  0
 20 18  1  0
 20 22  1  0
 21 20  2  0
M  END
$$$$
