LDA.pdb
     RDKit          3D

 22 21  0  0  1  0  0  0  0  0999 V2000
   17.2634  -11.9849  -18.1514 C   0  0  0  0  0  0  0  0  0  0  0  0
   16.4916  -11.8417  -16.8492 C   0  0  2  0  0  0  0  0  0  0  0  0
   15.0113  -11.7735  -17.1694 C   0  0  0  0  0  0  0  0  0  0  0  0
   16.9408  -10.6140  -16.1187 C   0  0  0  0  0  0  0  0  0  0  0  0
   18.3841  -10.6682  -15.7171 C   0  0  2  0  0  0  0  0  0  0  0  0
   18.7208  -11.7715  -14.8822 N   0  0  0  0  0  0  0  0  0  0  0  0
   18.8279   -9.3638  -15.1550 C   0  0  0  0  0  0  0  0  0  0  0  0
   18.3836   -9.0321  -14.0392 O   0  0  0  0  0  0  0  0  0  0  0  0
   19.7109   -8.4865  -15.7978 N   0  0  0  0  0  0  0  0  0  0  0  0
   20.1547   -7.2332  -15.2506 C   0  0  1  0  0  0  0  0  0  0  0  0
   21.6189   -6.9816  -15.3874 C   0  0  0  0  0  0  0  0  0  0  0  0
   22.0843   -5.7216  -14.7558 C   0  0  0  0  0  0  0  0  0  0  0  0
   21.6559   -5.4055  -13.6298 O   0  0  0  0  0  0  0  0  0  0  0  0
   19.4079   -6.0810  -15.8029 C   0  0  0  0  0  0  0  0  0  0  0  0
   19.0916   -5.9819  -17.0166 O   0  0  0  0  0  0  0  0  0  0  0  0
   22.9832   -4.8814  -15.3796 O   0  0  0  0  0  0  0  0  0  0  0  0
   16.7993   -4.4404  -15.9020 C   0  0  0  0  0  0  0  0  0  0  0  0
   18.1282   -3.9313  -15.4515 C   0  0  2  0  0  0  0  0  0  0  0  0
   19.0028   -5.0071  -14.9686 N   0  0  0  0  0  0  0  0  0  0  0  0
   18.0357   -2.8483  -14.4368 C   0  0  0  0  0  0  0  0  0  0  0  0
   18.6156   -2.9580  -13.3267 O   0  0  0  0  0  0  0  0  0  0  0  0
   17.3168   -1.6882  -14.6674 O   0  0  0  0  0  0  0  0  0  0  0  0
  2  1  1  6
  2  3  1  0
  4  5  1  0
  4  2  1  0
  5  7  1  0
  5  6  1  1
  7  8  2  0
  7  9  1  0
  9 10  1  0
 10 11  1  6
 10 14  1  0
 12 16  1  0
 12 11  1  0
 13 12  2  0
 14 15  2  0
 18 17  1  1
 19 14  1  0
 19 18  1  0
 20 18  1  0
 20 22  1  0
 21 20  2  0
M  END
$$$$
