LDA.pdb
     RDKit          3D

 22 21  0  0  1  0  0  0  0  0999 V2000
   23.2624  -14.5123  -14.5366 C   0  0  0  0  0  0  0  0  0  0  0  0
   23.8871  -14.0117  -15.8294 C   0  0  2  0  0  0  0  0  0  0  0  0
   25.3956  -14.0389  -15.6797 C   0  0  0  0  0  0  0  0  0  0  0  0
   23.4017  -12.6276  -16.1317 C   0  0  0  0  0  0  0  0  0  0  0  0
   21.9141  -12.5544  -16.3023 C   0  0  2  0  0  0  0  0  0  0  0  0
   21.3967  -13.4054  -17.3200 N   0  0  0  0  0  0  0  0  0  0  0  0
   21.4656  -11.1430  -16.4483 C   0  0  0  0  0  0  0  0  0  0  0  0
   21.7054  -10.5671  -17.5268 O   0  0  0  0  0  0  0  0  0  0  0  0
   20.7926  -10.4216  -15.4538 N   0  0  0  0  0  0  0  0  0  0  0  0
   20.2711   -9.0927  -15.6247 C   0  0  1  0  0  0  0  0  0  0  0  0
   18.8948   -8.8933  -15.0844 C   0  0  0  0  0  0  0  0  0  0  0  0
   17.9012   -9.8879  -15.5605 C   0  0  0  0  0  0  0  0  0  0  0  0
   17.6907  -10.0081  -16.7821 O   0  0  0  0  0  0  0  0  0  0  0  0
   21.1696   -8.0583  -15.0650 C   0  0  0  0  0  0  0  0  0  0  0  0
   21.7991   -8.2025  -13.9854 O   0  0  0  0  0  0  0  0  0  0  0  0
   17.1965  -10.6905  -14.6874 O   0  0  0  0  0  0  0  0  0  0  0  0
   22.5971   -4.7514  -16.2284 C   0  0  0  0  0  0  0  0  0  0  0  0
   22.2498   -5.7787  -15.2026 C   0  0  2  0  0  0  0  0  0  0  0  0
   21.3687   -6.8245  -15.7370 N   0  0  0  0  0  0  0  0  0  0  0  0
   21.6713   -5.2038  -13.9593 C   0  0  0  0  0  0  0  0  0  0  0  0
   20.4361   -5.2720  -13.7352 O   0  0  0  0  0  0  0  0  0  0  0  0
   22.4571   -4.5770  -13.0078 O   0  0  0  0  0  0  0  0  0  0  0  0
  2  1  1  1
  2  3  1  0
  4  5  1  0
  4  2  1  0
  5  7  1  0
  5  6  1  6
  7  8  2  0
  7  9  1  0
  9 10  1  0
 10 11  1  1
 10 14  1  0
 12 16  1  0
 12 11  1  0
 13 12  2  0
 14 15  2  0
 18 17  1  6
 19 14  1  0
 19 18  1  0
 20 18  1  0
 20 22  1  0
 21 20  2  0
M  END
$$$$
