QQE.pdb
     RDKit          3D

 28 27  0  0  1  0  0  0  0  0999 V2000
   16.5951  -21.6635   11.4560 N   0  0  0  0  0  0  0  0  0  0  0  0
   16.6640  -20.6446   10.4742 C   0  0  0  0  0  0  0  0  0  0  0  0
   16.9128  -20.9773    9.2924 O   0  0  0  0  0  0  0  0  0  0  0  0
   16.4559  -19.2164   10.7912 C   0  0  0  0  0  0  0  0  0  0  0  0
   16.1339  -18.9615   12.2363 C   0  0  0  0  0  0  0  0  0  0  0  0
   14.6936  -19.1149   12.5903 C   0  0  2  0  0  0  0  0  0  0  0  0
   13.9938  -17.9797   11.9896 N   0  0  0  0  0  0  0  0  0  0  0  0
   14.5496  -18.9995   14.0886 C   0  0  0  0  0  0  0  0  0  0  0  0
   14.3922  -17.8716   14.6217 O   0  0  0  0  0  0  0  0  0  0  0  0
   11.1853  -20.7817   18.7762 N   0  0  0  0  0  0  0  0  0  0  0  0
   10.8161  -20.1310   17.5801 C   0  0  0  0  0  0  0  0  0  0  0  0
    9.6817  -19.5918   17.4345 O   0  0  0  0  0  0  0  0  0  0  0  0
   11.7757  -20.0668   16.4600 C   0  0  0  0  0  0  0  0  0  0  0  0
   13.0706  -20.7120   16.6589 C   0  0  0  0  0  0  0  0  0  0  0  0
   14.3410  -20.0197   16.3656 C   0  0  2  0  0  0  0  0  0  0  0  0
   14.5887  -20.1384   14.9018 N   0  0  0  0  0  0  0  0  0  0  0  0
   15.5676  -20.4233   17.0439 C   0  0  0  0  0  0  0  0  0  0  0  0
   16.2432  -21.3840   16.5692 O   0  0  0  0  0  0  0  0  0  0  0  0
   16.0976  -19.8133   18.2210 N   0  0  0  0  0  0  0  0  0  0  0  0
   17.2910  -20.2837   18.9190 C   0  0  1  0  0  0  0  0  0  0  0  0
   17.8451  -19.2524   19.8309 C   0  0  0  0  0  0  0  0  0  0  0  0
   18.3530  -18.0553   19.0873 C   0  0  0  0  0  0  0  0  0  0  0  0
   18.9647  -17.0032   19.9078 C   0  0  0  0  0  0  0  0  0  0  0  0
   20.0311  -17.2008   20.5149 O   0  0  0  0  0  0  0  0  0  0  0  0
   17.0794  -21.5958   19.5393 C   0  0  0  0  0  0  0  0  0  0  0  0
   17.8816  -22.7068   19.4267 O   0  0  0  0  0  0  0  0  0  0  0  0
   18.3487  -15.7654   20.0127 O   0  0  0  0  0  0  0  0  0  0  0  0
   16.0349  -21.7363   20.2672 O   0  0  0  0  0  0  0  0  0  0  0  0
  1  2  1  0
  2  3  2  0
  4  2  1  0
  4  5  1  0
  6  5  1  0
  6  7  1  6
  8  6  1  0
  9  8  2  0
 11 13  1  0
 11 10  1  0
 12 11  2  0
 14 13  1  0
 15 14  1  1
 15 16  1  0
 16  8  1  0
 17 15  1  0
 17 18  2  0
 19 17  1  0
 20 19  1  0
 21 22  1  0
 20 21  1  1
 22 23  1  0
 23 24  2  0
 23 27  1  0
 25 20  1  0
 26 25  1  0
 28 25  2  0
M  END
$$$$
