QQE.pdb
     RDKit          3D

 28 27  0  0  1  0  0  0  0  0999 V2000
    8.2369  -12.5399   21.0826 N   0  0  0  0  0  0  0  0  0  0  0  0
    7.4429  -12.9536   19.9847 C   0  0  0  0  0  0  0  0  0  0  0  0
    6.1981  -12.8565   20.0846 O   0  0  0  0  0  0  0  0  0  0  0  0
    8.0251  -13.4914   18.7376 C   0  0  0  0  0  0  0  0  0  0  0  0
    9.5271  -13.4678   18.7155 C   0  0  0  0  0  0  0  0  0  0  0  0
   10.1403  -13.9983   17.4641 C   0  0  2  0  0  0  0  0  0  0  0  0
    9.1268  -14.8389   16.8274 N   0  0  0  0  0  0  0  0  0  0  0  0
   11.3033  -14.8865   17.8351 C   0  0  0  0  0  0  0  0  0  0  0  0
   11.6580  -15.8151   17.0650 O   0  0  0  0  0  0  0  0  0  0  0  0
   16.8692  -15.1119   17.3314 N   0  0  0  0  0  0  0  0  0  0  0  0
   16.1408  -13.9041   17.3665 C   0  0  0  0  0  0  0  0  0  0  0  0
   16.6567  -12.8016   17.0240 O   0  0  0  0  0  0  0  0  0  0  0  0
   14.7327  -13.9156   17.8098 C   0  0  0  0  0  0  0  0  0  0  0  0
   14.1442  -15.2170   18.1140 C   0  0  0  0  0  0  0  0  0  0  0  0
   13.2715  -15.4244   19.2863 C   0  0  2  0  0  0  0  0  0  0  0  0
   11.9997  -14.6915   19.0337 N   0  0  0  0  0  0  0  0  0  0  0  0
   13.7310  -15.0431   20.6171 C   0  0  0  0  0  0  0  0  0  0  0  0
   13.7537  -13.8157   20.9297 O   0  0  0  0  0  0  0  0  0  0  0  0
   14.1613  -15.9506   21.6319 N   0  0  0  0  0  0  0  0  0  0  0  0
   14.3999  -15.5697   23.0215 C   0  0  1  0  0  0  0  0  0  0  0  0
   13.2827  -15.9763   23.9096 C   0  0  0  0  0  0  0  0  0  0  0  0
   13.1089  -17.4635   23.9536 C   0  0  0  0  0  0  0  0  0  0  0  0
   12.0222  -17.9567   24.8082 C   0  0  0  0  0  0  0  0  0  0  0  0
   10.8325  -17.7292   24.5296 O   0  0  0  0  0  0  0  0  0  0  0  0
   15.7281  -15.9877   23.4820 C   0  0  0  0  0  0  0  0  0  0  0  0
   16.3555  -15.6220   24.6496 O   0  0  0  0  0  0  0  0  0  0  0  0
   12.3196  -18.6894   25.9472 O   0  0  0  0  0  0  0  0  0  0  0  0
   16.3879  -16.7793   22.7212 O   0  0  0  0  0  0  0  0  0  0  0  0
  1  2  1  0
  2  3  2  0
  4  2  1  0
  4  5  1  0
  6  5  1  0
  6  7  1  1
  8  6  1  0
  9  8  2  0
 11 13  1  0
 11 10  1  0
 12 11  2  0
 14 13  1  0
 15 14  1  6
 15 16  1  0
 16  8  1  0
 17 15  1  0
 17 18  2  0
 19 17  1  0
 20 19  1  0
 21 22  1  0
 20 21  1  1
 22 23  1  0
 23 24  2  0
 23 27  1  0
 25 20  1  0
 26 25  1  0
 28 25  2  0
M  END
$$$$
