QQE.pdb
     RDKit          3D

 28 27  0  0  1  0  0  0  0  0999 V2000
    8.3863  -20.7116   17.1691 N   0  0  0  0  0  0  0  0  0  0  0  0
    9.7025  -21.1367   16.8628 C   0  0  0  0  0  0  0  0  0  0  0  0
    9.8441  -22.1424   16.1296 O   0  0  0  0  0  0  0  0  0  0  0  0
   10.9034  -20.4433   17.3733 C   0  0  0  0  0  0  0  0  0  0  0  0
   10.5923  -19.3187   18.3196 C   0  0  0  0  0  0  0  0  0  0  0  0
   10.9288  -17.9602   17.8050 C   0  0  2  0  0  0  0  0  0  0  0  0
   12.2582  -18.0601   17.2035 N   0  0  0  0  0  0  0  0  0  0  0  0
   11.0268  -17.0113   18.9750 C   0  0  0  0  0  0  0  0  0  0  0  0
   12.1257  -16.8480   19.5639 O   0  0  0  0  0  0  0  0  0  0  0  0
    7.5509  -11.8778   19.8423 N   0  0  0  0  0  0  0  0  0  0  0  0
    6.9507  -13.1414   19.6595 C   0  0  0  0  0  0  0  0  0  0  0  0
    5.7307  -13.2642   19.3506 O   0  0  0  0  0  0  0  0  0  0  0  0
    7.7617  -14.3637   19.8261 C   0  0  0  0  0  0  0  0  0  0  0  0
    9.1512  -14.1860   20.2386 C   0  0  0  0  0  0  0  0  0  0  0  0
   10.0282  -15.3338   20.5428 C   0  0  2  0  0  0  0  0  0  0  0  0
    9.9037  -16.3034   19.4192 N   0  0  0  0  0  0  0  0  0  0  0  0
    9.8484  -16.0840   21.7808 C   0  0  0  0  0  0  0  0  0  0  0  0
    8.9784  -17.0041   21.8193 O   0  0  0  0  0  0  0  0  0  0  0  0
   10.5885  -15.8782   22.9842 N   0  0  0  0  0  0  0  0  0  0  0  0
   10.3726  -16.6328   24.2158 C   0  0  1  0  0  0  0  0  0  0  0  0
   11.6496  -17.0783   24.8265 C   0  0  0  0  0  0  0  0  0  0  0  0
   12.5768  -17.6840   23.8179 C   0  0  0  0  0  0  0  0  0  0  0  0
   13.8934  -18.0926   24.3219 C   0  0  0  0  0  0  0  0  0  0  0  0
   14.5758  -17.3302   25.0275 O   0  0  0  0  0  0  0  0  0  0  0  0
    9.4692  -15.9321   25.1344 C   0  0  0  0  0  0  0  0  0  0  0  0
    8.9472  -14.6691   24.9837 O   0  0  0  0  0  0  0  0  0  0  0  0
   14.3914  -19.3485   24.0101 O   0  0  0  0  0  0  0  0  0  0  0  0
    9.1218  -16.5533   26.1994 O   0  0  0  0  0  0  0  0  0  0  0  0
  1  2  1  0
  2  3  2  0
  4  2  1  0
  4  5  1  0
  6  5  1  0
  6  7  1  1
  8  6  1  0
  9  8  2  0
 11 13  1  0
 11 10  1  0
 12 11  2  0
 14 13  1  0
 15 14  1  6
 15 16  1  0
 16  8  1  0
 17 15  1  0
 17 18  2  0
 19 17  1  0
 20 19  1  0
 21 22  1  0
 20 21  1  1
 22 23  1  0
 23 24  2  0
 23 27  1  0
 25 20  1  0
 26 25  1  0
 28 25  2  0
M  END
$$$$
