QQE.pdb
     RDKit          3D

 28 27  0  0  1  0  0  0  0  0999 V2000
   11.2244  -18.2748   13.1499 N   0  0  0  0  0  0  0  0  0  0  0  0
    9.8461  -18.3778   13.4608 C   0  0  0  0  0  0  0  0  0  0  0  0
    9.0779  -18.8551   12.5941 O   0  0  0  0  0  0  0  0  0  0  0  0
    9.2870  -17.9455   14.7585 C   0  0  0  0  0  0  0  0  0  0  0  0
   10.3256  -17.4614   15.7300 C   0  0  0  0  0  0  0  0  0  0  0  0
   10.2025  -18.0238   17.1055 C   0  0  2  0  0  0  0  0  0  0  0  0
    8.7963  -18.3840   17.2840 N   0  0  0  0  0  0  0  0  0  0  0  0
   10.5259  -16.9371   18.1022 C   0  0  0  0  0  0  0  0  0  0  0  0
   11.6636  -16.4017   18.1041 O   0  0  0  0  0  0  0  0  0  0  0  0
    6.3716  -13.1486   20.7672 N   0  0  0  0  0  0  0  0  0  0  0  0
    6.8335  -13.2111   19.4357 C   0  0  0  0  0  0  0  0  0  0  0  0
    6.2293  -12.6282   18.4900 O   0  0  0  0  0  0  0  0  0  0  0  0
    8.0599  -13.9720   19.1252 C   0  0  0  0  0  0  0  0  0  0  0  0
    8.7354  -14.6251   20.2431 C   0  0  0  0  0  0  0  0  0  0  0  0
    9.9237  -15.4785   20.0462 C   0  0  2  0  0  0  0  0  0  0  0  0
    9.5708  -16.5117   19.0332 N   0  0  0  0  0  0  0  0  0  0  0  0
   10.5208  -16.1742   21.1807 C   0  0  0  0  0  0  0  0  0  0  0  0
    9.9709  -17.2315   21.6102 O   0  0  0  0  0  0  0  0  0  0  0  0
   11.7059  -15.7681   21.8657 N   0  0  0  0  0  0  0  0  0  0  0  0
   12.2716  -16.4765   23.0107 C   0  0  1  0  0  0  0  0  0  0  0  0
   13.6988  -16.1327   23.2279 C   0  0  0  0  0  0  0  0  0  0  0  0
   14.3113  -16.9366   24.3336 C   0  0  0  0  0  0  0  0  0  0  0  0
   15.7570  -16.7680   24.5235 C   0  0  0  0  0  0  0  0  0  0  0  0
   16.3342  -17.2450   25.5156 O   0  0  0  0  0  0  0  0  0  0  0  0
   11.4261  -16.3513   24.2025 C   0  0  0  0  0  0  0  0  0  0  0  0
   11.1625  -17.3224   25.1396 O   0  0  0  0  0  0  0  0  0  0  0  0
   16.4982  -16.0663   23.5851 O   0  0  0  0  0  0  0  0  0  0  0  0
   10.8636  -15.2182   24.4035 O   0  0  0  0  0  0  0  0  0  0  0  0
  1  2  1  0
  2  3  2  0
  4  2  1  0
  4  5  1  0
  6  5  1  0
  6  7  1  1
  8  6  1  0
  9  8  2  0
 11 13  1  0
 11 10  1  0
 12 11  2  0
 14 13  1  0
 15 14  1  1
 15 16  1  0
 16  8  1  0
 17 15  1  0
 17 18  2  0
 19 17  1  0
 20 19  1  0
 21 22  1  0
 20 21  1  1
 22 23  1  0
 23 24  2  0
 23 27  1  0
 25 20  1  0
 26 25  1  0
 28 25  2  0
M  END
$$$$
