QQE.pdb
     RDKit          3D

 28 27  0  0  1  0  0  0  0  0999 V2000
    7.4941  -18.3747   16.9568 N   0  0  0  0  0  0  0  0  0  0  0  0
    6.5462  -18.8379   16.0113 C   0  0  0  0  0  0  0  0  0  0  0  0
    6.7337  -18.5655   14.8031 O   0  0  0  0  0  0  0  0  0  0  0  0
    5.3547  -19.6228   16.3957 C   0  0  0  0  0  0  0  0  0  0  0  0
    5.2549  -19.8812   17.8722 C   0  0  0  0  0  0  0  0  0  0  0  0
    4.0130  -20.5876   18.2987 C   0  0  2  0  0  0  0  0  0  0  0  0
    2.8902  -19.7725   17.8358 N   0  0  0  0  0  0  0  0  0  0  0  0
    3.9666  -20.6146   19.8074 C   0  0  0  0  0  0  0  0  0  0  0  0
    3.7196  -19.5620   20.4494 O   0  0  0  0  0  0  0  0  0  0  0  0
    0.6647  -24.0905   23.0549 N   0  0  0  0  0  0  0  0  0  0  0  0
    1.4893  -23.6601   24.1155 C   0  0  0  0  0  0  0  0  0  0  0  0
    1.2240  -23.9315   25.3218 O   0  0  0  0  0  0  0  0  0  0  0  0
    2.7033  -22.8733   23.8210 C   0  0  0  0  0  0  0  0  0  0  0  0
    2.9833  -22.5876   22.4165 C   0  0  0  0  0  0  0  0  0  0  0  0
    4.1658  -21.8089   21.9990 C   0  0  2  0  0  0  0  0  0  0  0  0
    4.1962  -21.8035   20.5099 N   0  0  0  0  0  0  0  0  0  0  0  0
    5.4958  -22.1969   22.4553 C   0  0  0  0  0  0  0  0  0  0  0  0
    6.1380  -23.0709   21.8005 O   0  0  0  0  0  0  0  0  0  0  0  0
    6.1638  -21.6619   23.5981 N   0  0  0  0  0  0  0  0  0  0  0  0
    7.5074  -22.0521   24.0167 C   0  0  1  0  0  0  0  0  0  0  0  0
    8.1882  -20.9750   24.7773 C   0  0  0  0  0  0  0  0  0  0  0  0
    9.5980  -21.3374   25.1305 C   0  0  0  0  0  0  0  0  0  0  0  0
   10.3272  -20.3568   25.9436 C   0  0  0  0  0  0  0  0  0  0  0  0
   11.4702  -20.5979   26.3685 O   0  0  0  0  0  0  0  0  0  0  0  0
    7.5153  -23.3624   24.6756 C   0  0  0  0  0  0  0  0  0  0  0  0
    8.5051  -24.3150   24.6184 O   0  0  0  0  0  0  0  0  0  0  0  0
    9.7383  -19.1388   26.2472 O   0  0  0  0  0  0  0  0  0  0  0  0
    6.4923  -23.6661   25.3841 O   0  0  0  0  0  0  0  0  0  0  0  0
  1  2  1  0
  2  3  2  0
  4  2  1  0
  4  5  1  0
  6  5  1  0
  6  7  1  1
  8  6  1  0
  9  8  2  0
 11 13  1  0
 11 10  1  0
 12 11  2  0
 14 13  1  0
 15 14  1  6
 15 16  1  0
 16  8  1  0
 17 15  1  0
 17 18  2  0
 19 17  1  0
 20 19  1  0
 21 22  1  0
 20 21  1  1
 22 23  1  0
 23 24  2  0
 23 27  1  0
 25 20  1  0
 26 25  1  0
 28 25  2  0
M  END
$$$$
