QQE.pdb
     RDKit          3D

 28 27  0  0  1  0  0  0  0  0999 V2000
    8.4110  -12.3487   20.0873 N   0  0  0  0  0  0  0  0  0  0  0  0
    7.7589  -12.7435   18.8932 C   0  0  0  0  0  0  0  0  0  0  0  0
    6.7353  -12.1129   18.5416 O   0  0  0  0  0  0  0  0  0  0  0  0
    8.2378  -13.8628   18.0558 C   0  0  0  0  0  0  0  0  0  0  0  0
    9.4729  -14.5295   18.5913 C   0  0  0  0  0  0  0  0  0  0  0  0
   10.5101  -14.8366   17.5650 C   0  0  2  0  0  0  0  0  0  0  0  0
    9.9689  -15.9120   16.7345 N   0  0  0  0  0  0  0  0  0  0  0  0
   11.7368  -15.3719   18.2633 C   0  0  0  0  0  0  0  0  0  0  0  0
   11.8720  -16.6095   18.4399 O   0  0  0  0  0  0  0  0  0  0  0  0
   17.4800  -12.7278   18.2830 N   0  0  0  0  0  0  0  0  0  0  0  0
   16.8486  -13.4257   17.2321 C   0  0  0  0  0  0  0  0  0  0  0  0
   17.3505  -13.4868   16.0730 O   0  0  0  0  0  0  0  0  0  0  0  0
   15.5662  -14.1134   17.4817 C   0  0  0  0  0  0  0  0  0  0  0  0
   15.0986  -14.1623   18.8642 C   0  0  0  0  0  0  0  0  0  0  0  0
   14.0002  -15.0539   19.2857 C   0  0  2  0  0  0  0  0  0  0  0  0
   12.7357  -14.5049   18.7218 N   0  0  0  0  0  0  0  0  0  0  0  0
   13.7657  -15.3063   20.7030 C   0  0  0  0  0  0  0  0  0  0  0  0
   13.0986  -14.4636   21.3737 O   0  0  0  0  0  0  0  0  0  0  0  0
   14.2231  -16.4511   21.4231 N   0  0  0  0  0  0  0  0  0  0  0  0
   13.8991  -16.7205   22.8215 C   0  0  1  0  0  0  0  0  0  0  0  0
   13.6246  -18.1589   23.0619 C   0  0  0  0  0  0  0  0  0  0  0  0
   13.2346  -18.4295   24.4827 C   0  0  0  0  0  0  0  0  0  0  0  0
   13.1162  -19.8440   24.8564 C   0  0  0  0  0  0  0  0  0  0  0  0
   12.5999  -20.6709   24.0853 O   0  0  0  0  0  0  0  0  0  0  0  0
   14.8817  -16.1264   23.7340 C   0  0  0  0  0  0  0  0  0  0  0  0
   14.7053  -15.8278   25.0645 O   0  0  0  0  0  0  0  0  0  0  0  0
   13.5856  -20.2729   26.0886 O   0  0  0  0  0  0  0  0  0  0  0  0
   16.0348  -15.8484   23.2504 O   0  0  0  0  0  0  0  0  0  0  0  0
  1  2  1  0
  2  3  2  0
  4  2  1  0
  4  5  1  0
  6  5  1  0
  6  7  1  6
  8  6  1  0
  9  8  2  0
 11 13  1  0
 11 10  1  0
 12 11  2  0
 14 13  1  0
 15 14  1  1
 15 16  1  0
 16  8  1  0
 17 15  1  0
 17 18  2  0
 19 17  1  0
 20 19  1  0
 21 22  1  0
 20 21  1  6
 22 23  1  0
 23 24  2  0
 23 27  1  0
 25 20  1  0
 26 25  1  0
 28 25  2  0
M  END
$$$$
