QQE.pdb
     RDKit          3D

 28 27  0  0  1  0  0  0  0  0999 V2000
   15.0567  -18.3996   16.1061 N   0  0  0  0  0  0  0  0  0  0  0  0
   15.5254  -18.2886   17.4384 C   0  0  0  0  0  0  0  0  0  0  0  0
   16.5817  -18.8874   17.7460 O   0  0  0  0  0  0  0  0  0  0  0  0
   14.8190  -17.4996   18.4689 C   0  0  0  0  0  0  0  0  0  0  0  0
   13.4556  -17.0353   18.0418 C   0  0  0  0  0  0  0  0  0  0  0  0
   13.3753  -15.5922   17.6750 C   0  0  2  0  0  0  0  0  0  0  0  0
   14.7371  -15.0649   17.7577 N   0  0  0  0  0  0  0  0  0  0  0  0
   12.5442  -14.8759   18.7119 C   0  0  0  0  0  0  0  0  0  0  0  0
   13.0716  -14.0065   19.4517 O   0  0  0  0  0  0  0  0  0  0  0  0
    7.9671  -11.8398   18.6553 N   0  0  0  0  0  0  0  0  0  0  0  0
    7.4528  -12.4448   19.8214 C   0  0  0  0  0  0  0  0  0  0  0  0
    6.5905  -11.8721   20.5477 O   0  0  0  0  0  0  0  0  0  0  0  0
    7.9237  -13.7881   20.2131 C   0  0  0  0  0  0  0  0  0  0  0  0
    8.9930  -14.3756   19.4107 C   0  0  0  0  0  0  0  0  0  0  0  0
   10.3816  -14.4627   19.9041 C   0  0  2  0  0  0  0  0  0  0  0  0
   11.1834  -15.1664   18.8648 N   0  0  0  0  0  0  0  0  0  0  0  0
   10.6655  -15.1113   21.1793 C   0  0  0  0  0  0  0  0  0  0  0  0
   10.2267  -14.5863   22.2455 O   0  0  0  0  0  0  0  0  0  0  0  0
   11.4050  -16.3218   21.3418 N   0  0  0  0  0  0  0  0  0  0  0  0
   11.6044  -16.9922   22.6239 C   0  0  1  0  0  0  0  0  0  0  0  0
   11.5142  -18.4682   22.5000 C   0  0  0  0  0  0  0  0  0  0  0  0
   11.7155  -19.1585   23.8140 C   0  0  0  0  0  0  0  0  0  0  0  0
   11.8013  -20.6229   23.7621 C   0  0  0  0  0  0  0  0  0  0  0  0
   12.4436  -21.2592   24.6150 O   0  0  0  0  0  0  0  0  0  0  0  0
   12.8072  -16.5103   23.3110 C   0  0  0  0  0  0  0  0  0  0  0  0
   13.0738  -16.5692   24.6585 O   0  0  0  0  0  0  0  0  0  0  0  0
   11.1579  -21.3154   22.7477 O   0  0  0  0  0  0  0  0  0  0  0  0
   13.7167  -15.9713   22.5878 O   0  0  0  0  0  0  0  0  0  0  0  0
  1  2  1  0
  2  3  2  0
  4  2  1  0
  4  5  1  0
  6  5  1  0
  6  7  1  1
  8  6  1  0
  9  8  2  0
 11 13  1  0
 11 10  1  0
 12 11  2  0
 14 13  1  0
 15 14  1  6
 15 16  1  0
 16  8  1  0
 17 15  1  0
 17 18  2  0
 19 17  1  0
 20 19  1  0
 21 22  1  0
 20 21  1  6
 22 23  1  0
 23 24  2  0
 23 27  1  0
 25 20  1  0
 26 25  1  0
 28 25  2  0
M  END
$$$$
