SSE.pdb
     RDKit          3D

 22 21  0  0  1  0  0  0  0  0999 V2000
    8.6790  -21.0873   21.5706 O   0  0  0  0  0  0  0  0  0  0  0  0
    7.3113  -20.7823   21.4335 C   0  0  0  0  0  0  0  0  0  0  0  0
    7.1201  -19.2858   21.2788 C   0  0  2  0  0  0  0  0  0  0  0  0
    7.5770  -18.9305   19.9643 N   0  0  0  0  0  0  0  0  0  0  0  0
    7.7539  -18.5222   22.3558 C   0  0  0  0  0  0  0  0  0  0  0  0
    8.1243  -17.3342   22.1539 O   0  0  0  0  0  0  0  0  0  0  0  0
    6.4208  -17.5379   25.5899 O   0  0  0  0  0  0  0  0  0  0  0  0
    7.6053  -17.0500   25.0648 C   0  0  0  0  0  0  0  0  0  0  0  0
    8.5066  -18.2351   24.7538 C   0  0  2  0  0  0  0  0  0  0  0  0
    7.9990  -19.0301   23.6745 N   0  0  0  0  0  0  0  0  0  0  0  0
    8.7716  -19.0190   25.9775 C   0  0  0  0  0  0  0  0  0  0  0  0
    7.9346  -19.8078   26.4826 O   0  0  0  0  0  0  0  0  0  0  0  0
   10.0263  -18.8822   26.6180 N   0  0  0  0  0  0  0  0  0  0  0  0
   10.3921  -19.7327   27.7894 C   0  0  1  0  0  0  0  0  0  0  0  0
   11.5111  -20.6247   27.3855 C   0  0  0  0  0  0  0  0  0  0  0  0
   12.7159  -19.9449   26.8968 C   0  0  0  0  0  0  0  0  0  0  0  0
   13.8139  -20.7875   26.3969 C   0  0  0  0  0  0  0  0  0  0  0  0
   14.8535  -20.9849   27.0755 O   0  0  0  0  0  0  0  0  0  0  0  0
   10.5436  -18.9417   28.9656 C   0  0  0  0  0  0  0  0  0  0  0  0
   10.7667  -19.5397   30.2185 O   0  0  0  0  0  0  0  0  0  0  0  0
   13.7118  -21.3812   25.1531 O   0  0  0  0  0  0  0  0  0  0  0  0
   10.4914  -17.6665   28.9838 O   0  0  0  0  0  0  0  0  0  0  0  0
  1  2  1  0
  3  2  1  0
  3  5  1  0
  3  4  1  6
  5  6  2  0
  5 10  1  0
  8  7  1  0
  9  8  1  1
 10  9  1  0
 11  9  1  0
 11 13  1  0
 12 11  2  0
 14 19  1  0
 14 13  1  0
 14 15  1  6
 16 15  1  0
 17 16  1  0
 18 17  2  0
 19 20  1  0
 21 17  1  0
 22 19  2  0
M  END
$$$$
