SSE.pdb
     RDKit          3D

 22 21  0  0  1  0  0  0  0  0999 V2000
    9.0312  -15.7564   16.8531 O   0  0  0  0  0  0  0  0  0  0  0  0
    7.7593  -15.1545   16.9004 C   0  0  0  0  0  0  0  0  0  0  0  0
    7.8612  -13.7567   17.4799 C   0  0  2  0  0  0  0  0  0  0  0  0
    8.4945  -12.9296   16.4912 N   0  0  0  0  0  0  0  0  0  0  0  0
    8.5227  -13.7349   18.7863 C   0  0  0  0  0  0  0  0  0  0  0  0
    9.7639  -13.5276   18.8620 O   0  0  0  0  0  0  0  0  0  0  0  0
    6.7182  -15.1664   22.2979 O   0  0  0  0  0  0  0  0  0  0  0  0
    7.5600  -14.0805   22.4677 C   0  0  0  0  0  0  0  0  0  0  0  0
    8.5299  -14.0483   21.2966 C   0  0  2  0  0  0  0  0  0  0  0  0
    7.8526  -13.9369   20.0382 N   0  0  0  0  0  0  0  0  0  0  0  0
    9.4545  -15.1987   21.3583 C   0  0  0  0  0  0  0  0  0  0  0  0
    9.3996  -16.1675   20.5606 O   0  0  0  0  0  0  0  0  0  0  0  0
   10.4542  -15.2187   22.3600 N   0  0  0  0  0  0  0  0  0  0  0  0
   11.4095  -16.3603   22.4748 C   0  0  1  0  0  0  0  0  0  0  0  0
   12.4146  -16.2373   21.3858 C   0  0  0  0  0  0  0  0  0  0  0  0
   13.2156  -15.0083   21.4014 C   0  0  0  0  0  0  0  0  0  0  0  0
   14.2003  -14.8274   20.3231 C   0  0  0  0  0  0  0  0  0  0  0  0
   15.4132  -15.1162   20.4840 O   0  0  0  0  0  0  0  0  0  0  0  0
   11.8733  -16.5037   23.8150 C   0  0  0  0  0  0  0  0  0  0  0  0
   12.7935  -17.5090   24.1609 O   0  0  0  0  0  0  0  0  0  0  0  0
   13.7947  -14.3285   19.0997 O   0  0  0  0  0  0  0  0  0  0  0  0
   11.5065  -15.7586   24.7843 O   0  0  0  0  0  0  0  0  0  0  0  0
  1  2  1  0
  3  2  1  0
  3  5  1  0
  3  4  1  6
  5  6  2  0
  5 10  1  0
  8  7  1  0
  9  8  1  1
 10  9  1  0
 11  9  1  0
 11 13  1  0
 12 11  2  0
 14 19  1  0
 14 13  1  0
 14 15  1  6
 16 15  1  0
 17 16  1  0
 18 17  2  0
 19 20  1  0
 21 17  1  0
 22 19  2  0
M  END
$$$$
