SSE.pdb
     RDKit          3D

 22 21  0  0  1  0  0  0  0  0999 V2000
   10.7600  -19.9633   20.7363 O   0  0  0  0  0  0  0  0  0  0  0  0
    9.5634  -19.3921   20.2630 C   0  0  0  0  0  0  0  0  0  0  0  0
    9.8410  -18.0433   19.6274 C   0  0  2  0  0  0  0  0  0  0  0  0
   10.3912  -18.2906   18.3239 N   0  0  0  0  0  0  0  0  0  0  0  0
   10.6732  -17.1831   20.4713 C   0  0  0  0  0  0  0  0  0  0  0  0
   11.7483  -16.7048   20.0190 O   0  0  0  0  0  0  0  0  0  0  0  0
    9.8194  -16.3201   24.5278 O   0  0  0  0  0  0  0  0  0  0  0  0
   10.4146  -15.3292   23.7660 C   0  0  0  0  0  0  0  0  0  0  0  0
   11.1945  -16.0003   22.6459 C   0  0  2  0  0  0  0  0  0  0  0  0
   10.3571  -16.8227   21.8231 N   0  0  0  0  0  0  0  0  0  0  0  0
   12.3633  -16.7221   23.1892 C   0  0  0  0  0  0  0  0  0  0  0  0
   12.3617  -17.9570   23.4192 O   0  0  0  0  0  0  0  0  0  0  0  0
   13.5464  -15.9963   23.4658 N   0  0  0  0  0  0  0  0  0  0  0  0
   14.8086  -16.6947   23.8507 C   0  0  1  0  0  0  0  0  0  0  0  0
   15.9561  -15.8478   23.4299 C   0  0  0  0  0  0  0  0  0  0  0  0
   17.2851  -16.4234   23.6635 C   0  0  0  0  0  0  0  0  0  0  0  0
   18.4522  -15.5912   23.3309 C   0  0  0  0  0  0  0  0  0  0  0  0
   19.0850  -14.9611   24.2156 O   0  0  0  0  0  0  0  0  0  0  0  0
   14.7523  -17.1399   25.2037 C   0  0  0  0  0  0  0  0  0  0  0  0
   15.4137  -18.3123   25.6101 O   0  0  0  0  0  0  0  0  0  0  0  0
   18.8723  -15.4915   22.0180 O   0  0  0  0  0  0  0  0  0  0  0  0
   14.1185  -16.5348   26.1318 O   0  0  0  0  0  0  0  0  0  0  0  0
  1  2  1  0
  3  2  1  0
  3  5  1  0
  3  4  1  6
  5  6  2  0
  5 10  1  0
  8  7  1  0
  9  8  1  1
 10  9  1  0
 11  9  1  0
 11 13  1  0
 12 11  2  0
 14 19  1  0
 14 13  1  0
 14 15  1  1
 16 15  1  0
 17 16  1  0
 18 17  2  0
 19 20  1  0
 21 17  1  0
 22 19  2  0
M  END
$$$$
