SSE.pdb
     RDKit          3D

 22 21  0  0  1  0  0  0  0  0999 V2000
    6.7546  -18.8937   18.0738 O   0  0  0  0  0  0  0  0  0  0  0  0
    7.8320  -18.3796   18.8203 C   0  0  0  0  0  0  0  0  0  0  0  0
    7.8890  -16.8698   18.6882 C   0  0  2  0  0  0  0  0  0  0  0  0
    8.4510  -16.5747   17.3998 N   0  0  0  0  0  0  0  0  0  0  0  0
    8.5914  -16.2325   19.8040 C   0  0  0  0  0  0  0  0  0  0  0  0
    9.8470  -16.1217   19.7789 O   0  0  0  0  0  0  0  0  0  0  0  0
    6.8071  -15.2279   23.5168 O   0  0  0  0  0  0  0  0  0  0  0  0
    7.7154  -14.3273   22.9871 C   0  0  0  0  0  0  0  0  0  0  0  0
    8.6496  -15.0900   22.0603 C   0  0  2  0  0  0  0  0  0  0  0  0
    7.9475  -15.7013   20.9704 N   0  0  0  0  0  0  0  0  0  0  0  0
    9.4744  -16.0452   22.8282 C   0  0  0  0  0  0  0  0  0  0  0  0
    9.1677  -17.2545   22.9745 O   0  0  0  0  0  0  0  0  0  0  0  0
   10.6697  -15.5853   23.4306 N   0  0  0  0  0  0  0  0  0  0  0  0
   11.4856  -16.4774   24.3067 C   0  0  1  0  0  0  0  0  0  0  0  0
   12.9183  -16.1222   24.1272 C   0  0  0  0  0  0  0  0  0  0  0  0
   13.6717  -16.9818   23.2075 C   0  0  0  0  0  0  0  0  0  0  0  0
   15.0460  -16.5759   22.8727 C   0  0  0  0  0  0  0  0  0  0  0  0
   15.7457  -17.2301   22.0586 O   0  0  0  0  0  0  0  0  0  0  0  0
   10.9553  -16.5161   25.6293 C   0  0  0  0  0  0  0  0  0  0  0  0
   11.3850  -17.4829   26.5555 O   0  0  0  0  0  0  0  0  0  0  0  0
   15.5920  -15.4509   23.4610 O   0  0  0  0  0  0  0  0  0  0  0  0
   10.0748  -15.7053   26.0728 O   0  0  0  0  0  0  0  0  0  0  0  0
  1  2  1  0
  3  2  1  0
  3  5  1  0
  3  4  1  6
  5  6  2  0
  5 10  1  0
  8  7  1  0
  9  8  1  1
 10  9  1  0
 11  9  1  0
 11 13  1  0
 12 11  2  0
 14 19  1  0
 14 13  1  0
 14 15  1  1
 16 15  1  0
 17 16  1  0
 18 17  2  0
 19 20  1  0
 21 17  1  0
 22 19  2  0
M  END
$$$$
