SSE.pdb
     RDKit          3D

 22 21  0  0  1  0  0  0  0  0999 V2000
    5.7866  -17.7110   15.2835 O   0  0  0  0  0  0  0  0  0  0  0  0
    6.8468  -17.5332   16.1926 C   0  0  0  0  0  0  0  0  0  0  0  0
    7.6160  -16.2688   15.8613 C   0  0  2  0  0  0  0  0  0  0  0  0
    8.4635  -16.5658   14.7404 N   0  0  0  0  0  0  0  0  0  0  0  0
    8.3290  -15.7232   17.0183 C   0  0  0  0  0  0  0  0  0  0  0  0
    9.5411  -16.0134   17.2072 O   0  0  0  0  0  0  0  0  0  0  0  0
    6.4842  -13.8846   20.3897 O   0  0  0  0  0  0  0  0  0  0  0  0
    7.6459  -13.3122   19.9002 C   0  0  0  0  0  0  0  0  0  0  0  0
    8.4289  -14.3894   19.1656 C   0  0  2  0  0  0  0  0  0  0  0  0
    7.7430  -14.8510   17.9946 N   0  0  0  0  0  0  0  0  0  0  0  0
    8.7995  -15.4810   20.0894 C   0  0  0  0  0  0  0  0  0  0  0  0
    8.1891  -16.5778   20.1365 O   0  0  0  0  0  0  0  0  0  0  0  0
    9.8941  -15.2916   20.9664 N   0  0  0  0  0  0  0  0  0  0  0  0
   10.4287  -16.4175   21.7884 C   0  0  1  0  0  0  0  0  0  0  0  0
   10.7736  -17.5384   20.8742 C   0  0  0  0  0  0  0  0  0  0  0  0
   11.2973  -18.7450   21.5238 C   0  0  0  0  0  0  0  0  0  0  0  0
   11.6840  -19.8685   20.6558 C   0  0  0  0  0  0  0  0  0  0  0  0
   10.8266  -20.5443   20.0326 O   0  0  0  0  0  0  0  0  0  0  0  0
   11.4207  -15.9552   22.7017 C   0  0  0  0  0  0  0  0  0  0  0  0
   12.0473  -14.7091   22.5232 O   0  0  0  0  0  0  0  0  0  0  0  0
   13.0185  -20.1988   20.5142 O   0  0  0  0  0  0  0  0  0  0  0  0
   11.8134  -16.6091   23.7252 O   0  0  0  0  0  0  0  0  0  0  0  0
  1  2  1  0
  3  2  1  0
  3  5  1  0
  3  4  1  6
  5  6  2  0
  5 10  1  0
  8  7  1  0
  9  8  1  1
 10  9  1  0
 11  9  1  0
 11 13  1  0
 12 11  2  0
 14 19  1  0
 14 13  1  0
 14 15  1  6
 16 15  1  0
 17 16  1  0
 18 17  2  0
 19 20  1  0
 21 17  1  0
 22 19  2  0
M  END
$$$$
