SSE.pdb
     RDKit          3D

 22 21  0  0  1  0  0  0  0  0999 V2000
   11.1810  -15.4366   16.0789 O   0  0  0  0  0  0  0  0  0  0  0  0
   12.2947  -16.0615   16.6718 C   0  0  0  0  0  0  0  0  0  0  0  0
   11.9105  -16.6566   18.0129 C   0  0  2  0  0  0  0  0  0  0  0  0
   10.9106  -17.6575   17.7652 N   0  0  0  0  0  0  0  0  0  0  0  0
   11.5063  -15.6394   18.9859 C   0  0  0  0  0  0  0  0  0  0  0  0
   12.3554  -14.8234   19.4357 O   0  0  0  0  0  0  0  0  0  0  0  0
    7.5742  -15.2530   20.6423 O   0  0  0  0  0  0  0  0  0  0  0  0
    8.3327  -14.1267   20.3728 C   0  0  0  0  0  0  0  0  0  0  0  0
    9.8007  -14.5113   20.4751 C   0  0  2  0  0  0  0  0  0  0  0  0
   10.1730  -15.4852   19.4914 N   0  0  0  0  0  0  0  0  0  0  0  0
   10.1330  -14.9231   21.8544 C   0  0  0  0  0  0  0  0  0  0  0  0
    9.8441  -14.2352   22.8649 O   0  0  0  0  0  0  0  0  0  0  0  0
   10.8081  -16.1504   22.0569 N   0  0  0  0  0  0  0  0  0  0  0  0
   11.0892  -16.6592   23.4322 C   0  0  1  0  0  0  0  0  0  0  0  0
   11.0362  -18.1448   23.3985 C   0  0  0  0  0  0  0  0  0  0  0  0
   11.3480  -18.8168   24.6648 C   0  0  0  0  0  0  0  0  0  0  0  0
   11.3090  -20.2877   24.6791 C   0  0  0  0  0  0  0  0  0  0  0  0
   10.6909  -20.9384   23.7988 O   0  0  0  0  0  0  0  0  0  0  0  0
   12.2458  -16.0323   23.9808 C   0  0  0  0  0  0  0  0  0  0  0  0
   12.3701  -15.8235   25.3658 O   0  0  0  0  0  0  0  0  0  0  0  0
   11.9632  -20.9820   25.6791 O   0  0  0  0  0  0  0  0  0  0  0  0
   13.2349  -15.6199   23.2873 O   0  0  0  0  0  0  0  0  0  0  0  0
  1  2  1  0
  3  2  1  0
  3  5  1  0
  3  4  1  6
  5  6  2  0
  5 10  1  0
  8  7  1  0
  9  8  1  1
 10  9  1  0
 11  9  1  0
 11 13  1  0
 12 11  2  0
 14 19  1  0
 14 13  1  0
 14 15  1  6
 16 15  1  0
 17 16  1  0
 18 17  2  0
 19 20  1  0
 21 17  1  0
 22 19  2  0
M  END
$$$$
