SSE.pdb
     RDKit          3D

 22 21  0  0  1  0  0  0  0  0999 V2000
   13.0841  -21.5958   18.2997 O   0  0  0  0  0  0  0  0  0  0  0  0
   11.9545  -21.0987   17.6220 C   0  0  0  0  0  0  0  0  0  0  0  0
   11.8851  -19.5895   17.7540 C   0  0  2  0  0  0  0  0  0  0  0  0
   12.9500  -19.0420   16.9609 N   0  0  0  0  0  0  0  0  0  0  0  0
   11.8928  -19.1447   19.1492 C   0  0  0  0  0  0  0  0  0  0  0  0
   12.9832  -18.8639   19.7163 O   0  0  0  0  0  0  0  0  0  0  0  0
    8.3967  -18.6898   21.4686 O   0  0  0  0  0  0  0  0  0  0  0  0
    9.4472  -17.8163   21.6924 C   0  0  0  0  0  0  0  0  0  0  0  0
   10.7385  -18.5250   21.3133 C   0  0  2  0  0  0  0  0  0  0  0  0
   10.7186  -18.9944   19.9591 N   0  0  0  0  0  0  0  0  0  0  0  0
   11.0527  -19.5867   22.2911 C   0  0  0  0  0  0  0  0  0  0  0  0
   10.7561  -20.7943   22.1127 O   0  0  0  0  0  0  0  0  0  0  0  0
   11.7207  -19.2366   23.4888 N   0  0  0  0  0  0  0  0  0  0  0  0
   12.0054  -20.2570   24.5408 C   0  0  1  0  0  0  0  0  0  0  0  0
   13.4685  -20.5225   24.5477 C   0  0  0  0  0  0  0  0  0  0  0  0
   14.3075  -19.4236   25.0386 C   0  0  0  0  0  0  0  0  0  0  0  0
   15.7611  -19.6482   25.0825 C   0  0  0  0  0  0  0  0  0  0  0  0
   16.2631  -20.7663   24.8032 O   0  0  0  0  0  0  0  0  0  0  0  0
   11.3711  -19.9122   25.7699 C   0  0  0  0  0  0  0  0  0  0  0  0
   10.7755  -18.6513   25.9505 O   0  0  0  0  0  0  0  0  0  0  0  0
   16.6050  -18.6132   25.4383 O   0  0  0  0  0  0  0  0  0  0  0  0
   11.2915  -20.6902   26.7786 O   0  0  0  0  0  0  0  0  0  0  0  0
  1  2  1  0
  3  2  1  0
  3  5  1  0
  3  4  1  6
  5  6  2  0
  5 10  1  0
  8  7  1  0
  9  8  1  1
 10  9  1  0
 11  9  1  0
 11 13  1  0
 12 11  2  0
 14 19  1  0
 14 13  1  0
 14 15  1  1
 16 15  1  0
 17 16  1  0
 18 17  2  0
 19 20  1  0
 21 17  1  0
 22 19  2  0
M  END
$$$$
