SSE.pdb
     RDKit          3D

 22 21  0  0  1  0  0  0  0  0999 V2000
    7.5071  -18.3492   20.2691 O   0  0  0  0  0  0  0  0  0  0  0  0
    8.2744  -17.9664   19.1524 C   0  0  0  0  0  0  0  0  0  0  0  0
    8.7072  -16.5189   19.2841 C   0  0  2  0  0  0  0  0  0  0  0  0
    9.4915  -16.2003   18.1238 N   0  0  0  0  0  0  0  0  0  0  0  0
    9.3847  -16.2464   20.5535 C   0  0  0  0  0  0  0  0  0  0  0  0
   10.5937  -16.5694   20.7059 O   0  0  0  0  0  0  0  0  0  0  0  0
    7.4721  -14.7590   24.0861 O   0  0  0  0  0  0  0  0  0  0  0  0
    8.7523  -14.3350   23.7734 C   0  0  0  0  0  0  0  0  0  0  0  0
    9.4197  -15.4221   22.9450 C   0  0  2  0  0  0  0  0  0  0  0  0
    8.7659  -15.6174   21.6843 N   0  0  0  0  0  0  0  0  0  0  0  0
    9.5485  -16.6663   23.7309 C   0  0  0  0  0  0  0  0  0  0  0  0
    8.6516  -17.5444   23.7788 O   0  0  0  0  0  0  0  0  0  0  0  0
   10.7363  -16.8890   24.4676 N   0  0  0  0  0  0  0  0  0  0  0  0
   10.9106  -18.1168   25.2989 C   0  0  1  0  0  0  0  0  0  0  0  0
   12.0663  -18.8826   24.7614 C   0  0  0  0  0  0  0  0  0  0  0  0
   13.3494  -18.1714   24.7597 C   0  0  0  0  0  0  0  0  0  0  0  0
   14.5107  -18.8699   24.1863 C   0  0  0  0  0  0  0  0  0  0  0  0
   14.7499  -18.8461   22.9524 O   0  0  0  0  0  0  0  0  0  0  0  0
   10.8931  -17.7981   26.6882 C   0  0  0  0  0  0  0  0  0  0  0  0
   10.9255  -18.8089   27.6651 O   0  0  0  0  0  0  0  0  0  0  0  0
   15.3662  -19.5726   25.0136 O   0  0  0  0  0  0  0  0  0  0  0  0
   10.8478  -16.6092   27.1506 O   0  0  0  0  0  0  0  0  0  0  0  0
  1  2  1  0
  3  2  1  0
  3  5  1  0
  3  4  1  6
  5  6  2  0
  5 10  1  0
  8  7  1  0
  9  8  1  1
 10  9  1  0
 11  9  1  0
 11 13  1  0
 12 11  2  0
 14 19  1  0
 14 13  1  0
 14 15  1  6
 16 15  1  0
 17 16  1  0
 18 17  2  0
 19 20  1  0
 21 17  1  0
 22 19  2  0
M  END
$$$$
