SSE.pdb
     RDKit          3D

 22 21  0  0  1  0  0  0  0  0999 V2000
    7.3641  -20.7364   15.8872 O   0  0  0  0  0  0  0  0  0  0  0  0
    7.9198  -19.9577   16.9202 C   0  0  0  0  0  0  0  0  0  0  0  0
    7.0698  -18.7256   17.1642 C   0  0  2  0  0  0  0  0  0  0  0  0
    7.3486  -17.7976   16.1040 N   0  0  0  0  0  0  0  0  0  0  0  0
    7.2554  -18.1694   18.5061 C   0  0  0  0  0  0  0  0  0  0  0  0
    8.2304  -17.4064   18.7439 O   0  0  0  0  0  0  0  0  0  0  0  0
    4.8418  -19.2063   21.8033 O   0  0  0  0  0  0  0  0  0  0  0  0
    5.3383  -17.9144   21.7734 C   0  0  0  0  0  0  0  0  0  0  0  0
    6.6102  -17.9174   20.9392 C   0  0  2  0  0  0  0  0  0  0  0  0
    6.3878  -18.4282   19.6185 N   0  0  0  0  0  0  0  0  0  0  0  0
    7.6976  -18.6147   21.6558 C   0  0  0  0  0  0  0  0  0  0  0  0
    8.0148  -19.8087   21.4284 O   0  0  0  0  0  0  0  0  0  0  0  0
    8.4233  -17.9116   22.6468 N   0  0  0  0  0  0  0  0  0  0  0  0
    9.5430  -18.5615   23.3906 C   0  0  1  0  0  0  0  0  0  0  0  0
   10.7054  -17.6343   23.3849 C   0  0  0  0  0  0  0  0  0  0  0  0
   11.8263  -18.0320   22.5260 C   0  0  0  0  0  0  0  0  0  0  0  0
   13.0333  -17.1908   22.5538 C   0  0  0  0  0  0  0  0  0  0  0  0
   13.1201  -16.1889   23.3081 O   0  0  0  0  0  0  0  0  0  0  0  0
    9.0920  -19.0788   24.6401 C   0  0  0  0  0  0  0  0  0  0  0  0
    9.8133  -20.0803   25.3137 O   0  0  0  0  0  0  0  0  0  0  0  0
   14.1037  -17.4988   21.7357 O   0  0  0  0  0  0  0  0  0  0  0  0
    8.0313  -18.6920   25.2354 O   0  0  0  0  0  0  0  0  0  0  0  0
  1  2  1  0
  3  2  1  0
  3  5  1  0
  3  4  1  6
  5  6  2  0
  5 10  1  0
  8  7  1  0
  9  8  1  1
 10  9  1  0
 11  9  1  0
 11 13  1  0
 12 11  2  0
 14 19  1  0
 14 13  1  0
 14 15  1  1
 16 15  1  0
 17 16  1  0
 18 17  2  0
 19 20  1  0
 21 17  1  0
 22 19  2  0
M  END
$$$$
