SSE.pdb
     RDKit          3D

 22 21  0  0  1  0  0  0  0  0999 V2000
   10.4841  -20.0343   20.2686 O   0  0  0  0  0  0  0  0  0  0  0  0
   10.6774  -19.6188   18.9373 C   0  0  0  0  0  0  0  0  0  0  0  0
   10.1915  -18.1935   18.7564 C   0  0  2  0  0  0  0  0  0  0  0  0
   10.4596  -17.8204   17.3956 N   0  0  0  0  0  0  0  0  0  0  0  0
   10.7564  -17.2754   19.7477 C   0  0  0  0  0  0  0  0  0  0  0  0
   11.9578  -16.9055   19.6530 O   0  0  0  0  0  0  0  0  0  0  0  0
    8.6997  -16.0742   23.2416 O   0  0  0  0  0  0  0  0  0  0  0  0
    9.5983  -15.1724   22.6977 C   0  0  0  0  0  0  0  0  0  0  0  0
   10.6309  -15.9569   21.9030 C   0  0  2  0  0  0  0  0  0  0  0  0
   10.0305  -16.7383   20.8621 N   0  0  0  0  0  0  0  0  0  0  0  0
   11.4846  -16.7536   22.8079 C   0  0  0  0  0  0  0  0  0  0  0  0
   11.2779  -17.9676   23.0554 O   0  0  0  0  0  0  0  0  0  0  0  0
   12.5915  -16.1279   23.4296 N   0  0  0  0  0  0  0  0  0  0  0  0
   13.4705  -16.8768   24.3760 C   0  0  1  0  0  0  0  0  0  0  0  0
   14.8265  -16.2681   24.3323 C   0  0  0  0  0  0  0  0  0  0  0  0
   15.4946  -16.3071   23.0268 C   0  0  0  0  0  0  0  0  0  0  0  0
   16.8271  -15.6907   22.9286 C   0  0  0  0  0  0  0  0  0  0  0  0
   17.7621  -16.0174   23.7028 O   0  0  0  0  0  0  0  0  0  0  0  0
   12.8368  -17.0351   25.6430 C   0  0  0  0  0  0  0  0  0  0  0  0
   11.6276  -16.3802   25.9365 O   0  0  0  0  0  0  0  0  0  0  0  0
   17.0689  -14.7281   21.9669 O   0  0  0  0  0  0  0  0  0  0  0  0
   13.2956  -17.7593   26.5887 O   0  0  0  0  0  0  0  0  0  0  0  0
  1  2  1  0
  3  2  1  0
  3  5  1  0
  3  4  1  6
  5  6  2  0
  5 10  1  0
  8  7  1  0
  9  8  1  1
 10  9  1  0
 11  9  1  0
 11 13  1  0
 12 11  2  0
 14 19  1  0
 14 13  1  0
 14 15  1  1
 16 15  1  0
 17 16  1  0
 18 17  2  0
 19 20  1  0
 21 17  1  0
 22 19  2  0
M  END
$$$$
