SSE.pdb
     RDKit          3D

 22 21  0  0  1  0  0  0  0  0999 V2000
    5.4667  -18.2055   22.1098 O   0  0  0  0  0  0  0  0  0  0  0  0
    5.3662  -19.0474   20.9858 C   0  0  0  0  0  0  0  0  0  0  0  0
    5.7342  -18.2874   19.7261 C   0  0  2  0  0  0  0  0  0  0  0  0
    5.6645  -19.2151   18.6318 N   0  0  0  0  0  0  0  0  0  0  0  0
    7.0207  -17.5969   19.8399 C   0  0  0  0  0  0  0  0  0  0  0  0
    8.0957  -18.2542   19.7995 O   0  0  0  0  0  0  0  0  0  0  0  0
    7.4617  -13.4280   20.6050 O   0  0  0  0  0  0  0  0  0  0  0  0
    8.3641  -14.0524   19.7609 C   0  0  0  0  0  0  0  0  0  0  0  0
    8.4337  -15.5215   20.1488 C   0  0  2  0  0  0  0  0  0  0  0  0
    7.1689  -16.1793   19.9993 N   0  0  0  0  0  0  0  0  0  0  0  0
    9.0108  -15.6733   21.5002 C   0  0  0  0  0  0  0  0  0  0  0  0
    8.3594  -15.4607   22.5530 O   0  0  0  0  0  0  0  0  0  0  0  0
   10.3611  -16.0785   21.6247 N   0  0  0  0  0  0  0  0  0  0  0  0
   11.0262  -16.1490   22.9596 C   0  0  1  0  0  0  0  0  0  0  0  0
   10.7357  -17.4804   23.5545 C   0  0  0  0  0  0  0  0  0  0  0  0
   11.3767  -17.7483   24.8466 C   0  0  0  0  0  0  0  0  0  0  0  0
   11.1393  -19.0641   25.4611 C   0  0  0  0  0  0  0  0  0  0  0  0
   11.8473  -19.4843   26.4111 O   0  0  0  0  0  0  0  0  0  0  0  0
   12.3841  -15.7235   22.8753 C   0  0  0  0  0  0  0  0  0  0  0  0
   12.9994  -15.5023   21.6305 O   0  0  0  0  0  0  0  0  0  0  0  0
   10.1169  -19.8666   24.9914 O   0  0  0  0  0  0  0  0  0  0  0  0
   13.1338  -15.5138   23.8868 O   0  0  0  0  0  0  0  0  0  0  0  0
  1  2  1  0
  3  2  1  0
  3  5  1  0
  3  4  1  6
  5  6  2  0
  5 10  1  0
  8  7  1  0
  9  8  1  1
 10  9  1  0
 11  9  1  0
 11 13  1  0
 12 11  2  0
 14 19  1  0
 14 13  1  0
 14 15  1  6
 16 15  1  0
 17 16  1  0
 18 17  2  0
 19 20  1  0
 21 17  1  0
 22 19  2  0
M  END
$$$$
