SSE.pdb
     RDKit          3D

 22 21  0  0  1  0  0  0  0  0999 V2000
    9.5115  -20.7994   16.8181 O   0  0  0  0  0  0  0  0  0  0  0  0
    8.5071  -20.0861   17.4996 C   0  0  0  0  0  0  0  0  0  0  0  0
    8.9459  -18.6530   17.7309 C   0  0  2  0  0  0  0  0  0  0  0  0
    9.8665  -18.3136   16.6820 N   0  0  0  0  0  0  0  0  0  0  0  0
    9.4739  -18.4357   19.0795 C   0  0  0  0  0  0  0  0  0  0  0  0
   10.6381  -17.9781   19.2355 O   0  0  0  0  0  0  0  0  0  0  0  0
    7.4748  -19.7538   22.4904 O   0  0  0  0  0  0  0  0  0  0  0  0
    8.2511  -18.6242   22.6858 C   0  0  0  0  0  0  0  0  0  0  0  0
    9.3152  -18.5898   21.5996 C   0  0  2  0  0  0  0  0  0  0  0  0
    8.7507  -18.7095   20.2875 N   0  0  0  0  0  0  0  0  0  0  0  0
   10.3664  -19.5911   21.8728 C   0  0  0  0  0  0  0  0  0  0  0  0
   10.5070  -20.6409   21.1976 O   0  0  0  0  0  0  0  0  0  0  0  0
   11.2635  -19.3648   22.9438 N   0  0  0  0  0  0  0  0  0  0  0  0
   12.4866  -20.2034   23.1168 C   0  0  1  0  0  0  0  0  0  0  0  0
   13.3530  -20.0146   21.9232 C   0  0  0  0  0  0  0  0  0  0  0  0
   14.6672  -20.6634   21.9876 C   0  0  0  0  0  0  0  0  0  0  0  0
   15.6079  -20.3998   20.8872 C   0  0  0  0  0  0  0  0  0  0  0  0
   16.8517  -20.4776   21.0516 O   0  0  0  0  0  0  0  0  0  0  0  0
   13.0576  -20.0110   24.4087 C   0  0  0  0  0  0  0  0  0  0  0  0
   12.7341  -18.8838   25.1846 O   0  0  0  0  0  0  0  0  0  0  0  0
   15.1247  -20.0573   19.6384 O   0  0  0  0  0  0  0  0  0  0  0  0
   13.8837  -20.8164   24.9547 O   0  0  0  0  0  0  0  0  0  0  0  0
  1  2  1  0
  3  2  1  0
  3  5  1  0
  3  4  1  6
  5  6  2  0
  5 10  1  0
  8  7  1  0
  9  8  1  1
 10  9  1  0
 11  9  1  0
 11 13  1  0
 12 11  2  0
 14 19  1  0
 14 13  1  0
 14 15  1  6
 16 15  1  0
 17 16  1  0
 18 17  2  0
 19 20  1  0
 21 17  1  0
 22 19  2  0
M  END
$$$$
