EYI.pdb
     RDKit          3D

 30 30  0  0  1  0  0  0  0  0999 V2000
   21.4457   -7.5498  -19.3422 N   0  0  0  0  0  0  0  0  0  0  0  0
   20.1797   -7.3186  -18.5996 C   0  0  1  0  0  0  0  0  0  0  0  0
   19.7679   -8.6421  -18.0512 C   0  0  0  0  0  0  0  0  0  0  0  0
   20.6973   -9.2674  -17.0648 C   0  0  0  0  0  0  0  0  0  0  0  0
   21.4080  -10.4470  -17.5627 C   0  0  0  0  0  0  0  0  0  0  0  0
   22.5388  -10.3264  -18.0901 O   0  0  0  0  0  0  0  0  0  0  0  0
   20.4449   -6.2698  -17.6165 C   0  0  0  0  0  0  0  0  0  0  0  0
   19.4755   -5.8365  -16.8998 O   0  0  0  0  0  0  0  0  0  0  0  0
   20.8568  -11.7108  -17.4655 O   0  0  0  0  0  0  0  0  0  0  0  0
   20.5931   -9.1627  -11.8777 O   0  0  0  0  0  0  0  0  0  0  0  0
   21.1433   -8.1725  -12.6993 C   0  0  0  0  0  0  0  0  0  0  0  0
   22.1043   -8.5231  -13.6416 C   0  0  0  0  0  0  0  0  0  0  0  0
   22.6612   -7.5610  -14.4637 C   0  0  0  0  0  0  0  0  0  0  0  0
   22.2803   -6.2250  -14.3738 C   0  0  0  0  0  0  0  0  0  0  0  0
   22.8609   -5.1798  -15.2411 C   0  0  0  0  0  0  0  0  0  0  0  0
   21.8596   -4.6860  -16.2700 C   0  0  2  0  0  0  0  0  0  0  0  0
   21.6928   -5.6556  -17.3531 N   0  0  0  0  0  0  0  0  0  0  0  0
   22.2827   -3.3898  -16.8550 C   0  0  0  0  0  0  0  0  0  0  0  0
   23.0094   -3.3500  -17.8957 O   0  0  0  0  0  0  0  0  0  0  0  0
   21.3209   -5.9062  -13.4257 C   0  0  0  0  0  0  0  0  0  0  0  0
   20.7622   -6.8609  -12.6035 C   0  0  0  0  0  0  0  0  0  0  0  0
   21.1694    0.9239  -20.1616 C   0  0  0  0  0  0  0  0  0  0  0  0
   21.7093    0.6867  -18.7957 C   0  0  0  0  0  0  0  0  0  0  0  0
   21.4307   -0.7090  -18.2755 C   0  0  2  0  0  0  0  0  0  0  0  0
   19.9400   -0.8697  -18.0668 C   0  0  0  0  0  0  0  0  0  0  0  0
   22.0987   -0.8624  -16.9557 C   0  0  2  0  0  0  0  0  0  0  0  0
   21.9258   -2.1388  -16.3229 N   0  0  0  0  0  0  0  0  0  0  0  0
   21.7096    0.1778  -15.9653 C   0  0  0  0  0  0  0  0  0  0  0  0
   20.8403   -0.0049  -15.0750 O   0  0  0  0  0  0  0  0  0  0  0  0
   22.3152    1.4251  -15.9940 O   0  0  0  0  0  0  0  0  0  0  0  0
  2  3  1  0
  2  1  1  1
  3  4  1  0
  4  5  1  0
  5  6  2  0
  7  8  2  0
  7  2  1  0
  9  5  1  0
 10 11  1  0
 11 21  2  0
 12 13  2  0
 12 11  1  0
 13 14  1  0
 14 15  1  0
 14 20  2  0
 16 15  1  1
 16 17  1  0
 17  7  1  0
 18 16  1  0
 18 19  2  0
 21 20  1  0
 22 23  1  0
 23 24  1  0
 24 25  1  1
 24 26  1  0
 26 27  1  1
 27 18  1  0
 28 26  1  0
 29 28  2  0
 30 28  1  0
M  END
$$$$
