EYI.pdb
     RDKit          3D

 30 30  0  0  1  0  0  0  0  0999 V2000
   19.8494  -13.6167  -16.6687 N   0  0  0  0  0  0  0  0  0  0  0  0
   19.3246  -12.2270  -16.7018 C   0  0  1  0  0  0  0  0  0  0  0  0
   18.0595  -12.2379  -15.9136 C   0  0  0  0  0  0  0  0  0  0  0  0
   16.8862  -12.9008  -16.5552 C   0  0  0  0  0  0  0  0  0  0  0  0
   15.6474  -12.8291  -15.7775 C   0  0  0  0  0  0  0  0  0  0  0  0
   15.3041  -13.7888  -15.0477 O   0  0  0  0  0  0  0  0  0  0  0  0
   20.3864  -11.3559  -16.2012 C   0  0  0  0  0  0  0  0  0  0  0  0
   21.0891  -11.7494  -15.2050 O   0  0  0  0  0  0  0  0  0  0  0  0
   14.8329  -11.7135  -15.8268 O   0  0  0  0  0  0  0  0  0  0  0  0
   25.8044  -13.8204  -18.1012 O   0  0  0  0  0  0  0  0  0  0  0  0
   25.0931  -12.6421  -17.8483 C   0  0  0  0  0  0  0  0  0  0  0  0
   25.3283  -11.9419  -16.6699 C   0  0  0  0  0  0  0  0  0  0  0  0
   24.6368  -10.7754  -16.3997 C   0  0  0  0  0  0  0  0  0  0  0  0
   23.6933  -10.2716  -17.2909 C   0  0  0  0  0  0  0  0  0  0  0  0
   22.9425   -9.0278  -17.0240 C   0  0  0  0  0  0  0  0  0  0  0  0
   21.7810   -9.2672  -16.0762 C   0  0  2  0  0  0  0  0  0  0  0  0
   20.7431  -10.0829  -16.7075 N   0  0  0  0  0  0  0  0  0  0  0  0
   21.1744   -7.9878  -15.6332 C   0  0  0  0  0  0  0  0  0  0  0  0
   20.3243   -7.3834  -16.3578 O   0  0  0  0  0  0  0  0  0  0  0  0
   23.4807  -10.9911  -18.4562 C   0  0  0  0  0  0  0  0  0  0  0  0
   24.1669  -12.1543  -18.7309 C   0  0  0  0  0  0  0  0  0  0  0  0
   18.3382   -7.3745  -11.4525 C   0  0  0  0  0  0  0  0  0  0  0  0
   19.0492   -7.1417  -12.7384 C   0  0  0  0  0  0  0  0  0  0  0  0
   20.2443   -6.2199  -12.6038 C   0  0  2  0  0  0  0  0  0  0  0  0
   19.7600   -4.8347  -12.2320 C   0  0  0  0  0  0  0  0  0  0  0  0
   20.9221   -6.1306  -13.9245 C   0  0  2  0  0  0  0  0  0  0  0  0
   21.4804   -7.3587  -14.4141 N   0  0  0  0  0  0  0  0  0  0  0  0
   21.9991   -5.1051  -13.9747 C   0  0  0  0  0  0  0  0  0  0  0  0
   21.7756   -3.8687  -14.0301 O   0  0  0  0  0  0  0  0  0  0  0  0
   23.3300   -5.4946  -13.9612 O   0  0  0  0  0  0  0  0  0  0  0  0
  2  3  1  0
  2  1  1  1
  3  4  1  0
  4  5  1  0
  5  6  2  0
  7  8  2  0
  7  2  1  0
  9  5  1  0
 10 11  1  0
 11 21  2  0
 12 13  2  0
 12 11  1  0
 13 14  1  0
 14 15  1  0
 14 20  2  0
 16 15  1  6
 16 17  1  0
 17  7  1  0
 18 16  1  0
 18 19  2  0
 21 20  1  0
 22 23  1  0
 23 24  1  0
 24 25  1  6
 24 26  1  0
 26 27  1  1
 27 18  1  0
 28 26  1  0
 29 28  2  0
 30 28  1  0
M  END
$$$$
