EYI.pdb
     RDKit          3D

 30 30  0  0  1  0  0  0  0  0999 V2000
   42.8362   -7.6593  -11.2575 N   0  0  0  0  0  0  0  0  0  0  0  0
   42.7877   -7.5623   -9.7756 C   0  0  1  0  0  0  0  0  0  0  0  0
   44.1415   -7.1152   -9.3406 C   0  0  0  0  0  0  0  0  0  0  0  0
   45.2375   -8.1226   -9.4494 C   0  0  0  0  0  0  0  0  0  0  0  0
   46.5458   -7.6489   -8.9930 C   0  0  0  0  0  0  0  0  0  0  0  0
   47.0067   -8.0322   -7.8920 O   0  0  0  0  0  0  0  0  0  0  0  0
   41.6781   -6.6717   -9.4405 C   0  0  0  0  0  0  0  0  0  0  0  0
   41.4303   -5.6780  -10.2100 O   0  0  0  0  0  0  0  0  0  0  0  0
   47.2989   -6.7762   -9.7555 O   0  0  0  0  0  0  0  0  0  0  0  0
   34.7283   -2.4681   -5.9535 O   0  0  0  0  0  0  0  0  0  0  0  0
   35.6539   -3.4318   -6.3692 C   0  0  0  0  0  0  0  0  0  0  0  0
   36.3214   -4.1936   -5.4161 C   0  0  0  0  0  0  0  0  0  0  0  0
   37.2399   -5.1512   -5.8046 C   0  0  0  0  0  0  0  0  0  0  0  0
   37.5215   -5.3795   -7.1487 C   0  0  0  0  0  0  0  0  0  0  0  0
   38.4984   -6.3968   -7.5876 C   0  0  0  0  0  0  0  0  0  0  0  0
   39.8065   -5.7640   -8.0276 C   0  0  2  0  0  0  0  0  0  0  0  0
   40.8129   -6.7835   -8.3256 N   0  0  0  0  0  0  0  0  0  0  0  0
   40.3446   -4.8574   -6.9838 C   0  0  0  0  0  0  0  0  0  0  0  0
   40.8404   -5.3203   -5.9101 O   0  0  0  0  0  0  0  0  0  0  0  0
   36.8409   -4.6051   -8.0749 C   0  0  0  0  0  0  0  0  0  0  0  0
   35.9243   -3.6491   -7.6938 C   0  0  0  0  0  0  0  0  0  0  0  0
   44.0380   -0.4763   -5.6064 C   0  0  0  0  0  0  0  0  0  0  0  0
   42.6374   -0.9579   -5.4658 C   0  0  0  0  0  0  0  0  0  0  0  0
   42.2713   -2.0358   -6.4659 C   0  0  2  0  0  0  0  0  0  0  0  0
   42.2395   -1.4316   -7.8536 C   0  0  0  0  0  0  0  0  0  0  0  0
   40.9048   -2.5293   -6.1482 C   0  0  2  0  0  0  0  0  0  0  0  0
   40.3500   -3.4561   -7.0930 N   0  0  0  0  0  0  0  0  0  0  0  0
   39.9068   -1.4422   -5.9579 C   0  0  0  0  0  0  0  0  0  0  0  0
   39.8469   -0.7309   -4.9224 O   0  0  0  0  0  0  0  0  0  0  0  0
   38.9788   -1.1697   -6.9518 O   0  0  0  0  0  0  0  0  0  0  0  0
  2  3  1  0
  2  1  1  6
  3  4  1  0
  4  5  1  0
  5  6  2  0
  7  8  2  0
  7  2  1  0
  9  5  1  0
 10 11  1  0
 11 21  2  0
 12 13  2  0
 12 11  1  0
 13 14  1  0
 14 15  1  0
 14 20  2  0
 16 15  1  1
 16 17  1  0
 17  7  1  0
 18 16  1  0
 18 19  2  0
 21 20  1  0
 22 23  1  0
 23 24  1  0
 24 25  1  6
 24 26  1  0
 26 27  1  6
 27 18  1  0
 28 26  1  0
 29 28  2  0
 30 28  1  0
M  END
$$$$
