EYI.pdb
     RDKit          3D

 30 30  0  0  1  0  0  0  0  0999 V2000
   27.3019  -22.2741  -14.4900 N   0  0  0  0  0  0  0  0  0  0  0  0
   27.3063  -20.9314  -13.8536 C   0  0  1  0  0  0  0  0  0  0  0  0
   26.1514  -20.1889  -14.4340 C   0  0  0  0  0  0  0  0  0  0  0  0
   26.3524  -19.6136  -15.7965 C   0  0  0  0  0  0  0  0  0  0  0  0
   27.6454  -18.9549  -15.9933 C   0  0  0  0  0  0  0  0  0  0  0  0
   28.6673  -19.6346  -16.2487 O   0  0  0  0  0  0  0  0  0  0  0  0
   27.2736  -21.1425  -12.4075 C   0  0  0  0  0  0  0  0  0  0  0  0
   26.5706  -22.1061  -11.9403 O   0  0  0  0  0  0  0  0  0  0  0  0
   27.7720  -17.5815  -15.9036 O   0  0  0  0  0  0  0  0  0  0  0  0
   27.6666  -20.1801   -3.6086 O   0  0  0  0  0  0  0  0  0  0  0  0
   27.9575  -20.1335   -4.9766 C   0  0  0  0  0  0  0  0  0  0  0  0
   27.5745  -19.0215   -5.7188 C   0  0  0  0  0  0  0  0  0  0  0  0
   27.8519  -18.9544   -7.0717 C   0  0  0  0  0  0  0  0  0  0  0  0
   28.5166  -19.9884   -7.7253 C   0  0  0  0  0  0  0  0  0  0  0  0
   28.8239  -19.9392   -9.1693 C   0  0  0  0  0  0  0  0  0  0  0  0
   27.7317  -20.5929   -9.9969 C   0  0  2  0  0  0  0  0  0  0  0  0
   27.9535  -20.3801  -11.4274 N   0  0  0  0  0  0  0  0  0  0  0  0
   26.3936  -20.0606   -9.6402 C   0  0  0  0  0  0  0  0  0  0  0  0
   26.0162  -18.9183  -10.0474 O   0  0  0  0  0  0  0  0  0  0  0  0
   28.8855  -21.0831   -6.9596 C   0  0  0  0  0  0  0  0  0  0  0  0
   28.6118  -21.1555   -5.6108 C   0  0  0  0  0  0  0  0  0  0  0  0
   21.0466  -19.9050  -10.9594 C   0  0  0  0  0  0  0  0  0  0  0  0
   21.8982  -19.9668   -9.7410 C   0  0  0  0  0  0  0  0  0  0  0  0
   23.3153  -20.4233  -10.0231 C   0  0  2  0  0  0  0  0  0  0  0  0
   23.2781  -21.8242  -10.5955 C   0  0  0  0  0  0  0  0  0  0  0  0
   24.0599  -20.4721   -8.7366 C   0  0  2  0  0  0  0  0  0  0  0  0
   25.4626  -20.7539   -8.8477 N   0  0  0  0  0  0  0  0  0  0  0  0
   23.4923  -21.4353   -7.7547 C   0  0  0  0  0  0  0  0  0  0  0  0
   24.0254  -22.5414   -7.4826 O   0  0  0  0  0  0  0  0  0  0  0  0
   22.3163  -21.1322   -7.0849 O   0  0  0  0  0  0  0  0  0  0  0  0
  2  3  1  0
  2  1  1  6
  3  4  1  0
  4  5  1  0
  5  6  2  0
  7  8  2  0
  7  2  1  0
  9  5  1  0
 10 11  1  0
 11 21  2  0
 12 13  2  0
 12 11  1  0
 13 14  1  0
 14 15  1  0
 14 20  2  0
 16 15  1  1
 16 17  1  0
 17  7  1  0
 18 16  1  0
 18 19  2  0
 21 20  1  0
 22 23  1  0
 23 24  1  0
 24 25  1  1
 24 26  1  0
 26 27  1  6
 27 18  1  0
 28 26  1  0
 29 28  2  0
 30 28  1  0
M  END
$$$$
