EYI.pdb
     RDKit          3D

 30 30  0  0  1  0  0  0  0  0999 V2000
   18.7528  -24.7146  -11.2121 N   0  0  0  0  0  0  0  0  0  0  0  0
   18.8130  -26.1254  -11.6747 C   0  0  1  0  0  0  0  0  0  0  0  0
   19.8022  -26.1591  -12.7893 C   0  0  0  0  0  0  0  0  0  0  0  0
   19.2408  -26.2481  -14.1694 C   0  0  0  0  0  0  0  0  0  0  0  0
   20.2461  -26.2719  -15.2339 C   0  0  0  0  0  0  0  0  0  0  0  0
   19.8979  -26.4352  -16.4271 O   0  0  0  0  0  0  0  0  0  0  0  0
   19.1314  -26.9459  -10.5076 C   0  0  0  0  0  0  0  0  0  0  0  0
   19.9078  -26.4655   -9.6089 O   0  0  0  0  0  0  0  0  0  0  0  0
   21.5908  -26.1166  -14.9545 O   0  0  0  0  0  0  0  0  0  0  0  0
   16.8074  -24.3774   -5.2445 O   0  0  0  0  0  0  0  0  0  0  0  0
   17.0914  -25.5617   -5.9339 C   0  0  0  0  0  0  0  0  0  0  0  0
   16.4219  -25.8382   -7.1211 C   0  0  0  0  0  0  0  0  0  0  0  0
   16.6869  -27.0023   -7.8186 C   0  0  0  0  0  0  0  0  0  0  0  0
   17.6230  -27.9238   -7.3575 C   0  0  0  0  0  0  0  0  0  0  0  0
   17.9229  -29.1738   -8.0852 C   0  0  0  0  0  0  0  0  0  0  0  0
   19.0803  -28.9953   -9.0515 C   0  0  2  0  0  0  0  0  0  0  0  0
   18.6644  -28.2559  -10.2436 N   0  0  0  0  0  0  0  0  0  0  0  0
   19.6355  -30.3043   -9.4750 C   0  0  0  0  0  0  0  0  0  0  0  0
   19.1659  -30.9165  -10.4838 O   0  0  0  0  0  0  0  0  0  0  0  0
   18.2738  -27.6209   -6.1720 C   0  0  0  0  0  0  0  0  0  0  0  0
   18.0139  -26.4622   -5.4725 C   0  0  0  0  0  0  0  0  0  0  0  0
   24.0206  -32.0699  -10.5560 C   0  0  0  0  0  0  0  0  0  0  0  0
   23.5257  -31.5992   -9.2342 C   0  0  0  0  0  0  0  0  0  0  0  0
   22.5544  -32.5616   -8.5810 C   0  0  2  0  0  0  0  0  0  0  0  0
   22.9152  -33.9759   -8.9827 C   0  0  0  0  0  0  0  0  0  0  0  0
   21.1883  -32.2728   -9.0928 C   0  0  2  0  0  0  0  0  0  0  0  0
   20.6933  -30.9545   -8.8163 N   0  0  0  0  0  0  0  0  0  0  0  0
   20.1583  -33.2387   -8.6234 C   0  0  0  0  0  0  0  0  0  0  0  0
   19.7294  -34.1894   -9.3262 O   0  0  0  0  0  0  0  0  0  0  0  0
   19.6205  -33.1164   -7.3509 O   0  0  0  0  0  0  0  0  0  0  0  0
  2  3  1  0
  2  1  1  1
  3  4  1  0
  4  5  1  0
  5  6  2  0
  7  8  2  0
  7  2  1  0
  9  5  1  0
 10 11  1  0
 11 21  2  0
 12 13  2  0
 12 11  1  0
 13 14  1  0
 14 15  1  0
 14 20  2  0
 16 15  1  1
 16 17  1  0
 17  7  1  0
 18 16  1  0
 18 19  2  0
 21 20  1  0
 22 23  1  0
 23 24  1  0
 24 25  1  6
 24 26  1  0
 26 27  1  1
 27 18  1  0
 28 26  1  0
 29 28  2  0
 30 28  1  0
M  END
$$$$
