EYI.pdb
     RDKit          3D

 30 30  0  0  1  0  0  0  0  0999 V2000
   27.9258  -22.9917  -17.7648 N   0  0  0  0  0  0  0  0  0  0  0  0
   28.0460  -21.6418  -17.1556 C   0  0  1  0  0  0  0  0  0  0  0  0
   27.5492  -20.6757  -18.1762 C   0  0  0  0  0  0  0  0  0  0  0  0
   28.5021  -20.3187  -19.2681 C   0  0  0  0  0  0  0  0  0  0  0  0
   28.3583  -21.1191  -20.4859 C   0  0  0  0  0  0  0  0  0  0  0  0
   27.2556  -21.6437  -20.7696 O   0  0  0  0  0  0  0  0  0  0  0  0
   27.3127  -21.6753  -15.8915 C   0  0  0  0  0  0  0  0  0  0  0  0
   26.2518  -22.3889  -15.8122 O   0  0  0  0  0  0  0  0  0  0  0  0
   29.4227  -21.3153  -21.3454 O   0  0  0  0  0  0  0  0  0  0  0  0
   24.3095  -20.5748   -7.6266 O   0  0  0  0  0  0  0  0  0  0  0  0
   25.1154  -20.5657   -8.7706 C   0  0  0  0  0  0  0  0  0  0  0  0
   25.5358  -21.7724   -9.3196 C   0  0  0  0  0  0  0  0  0  0  0  0
   26.3324  -21.7867  -10.4496 C   0  0  0  0  0  0  0  0  0  0  0  0
   26.7338  -20.6046  -11.0659 C   0  0  0  0  0  0  0  0  0  0  0  0
   27.5843  -20.5949  -12.2735 C   0  0  0  0  0  0  0  0  0  0  0  0
   26.8294  -21.0901  -13.4942 C   0  0  2  0  0  0  0  0  0  0  0  0
   27.6505  -20.9879  -14.7009 N   0  0  0  0  0  0  0  0  0  0  0  0
   25.5795  -20.3189  -13.7044 C   0  0  0  0  0  0  0  0  0  0  0  0
   25.6140  -19.1278  -14.1439 O   0  0  0  0  0  0  0  0  0  0  0  0
   26.2993  -19.4184  -10.4960 C   0  0  0  0  0  0  0  0  0  0  0  0
   25.5051  -19.3979   -9.3698 C   0  0  0  0  0  0  0  0  0  0  0  0
   20.6915  -19.1272  -16.4132 C   0  0  0  0  0  0  0  0  0  0  0  0
   21.2407  -19.3263  -15.0449 C   0  0  0  0  0  0  0  0  0  0  0  0
   22.5632  -20.0659  -15.0320 C   0  0  2  0  0  0  0  0  0  0  0  0
   22.3419  -21.4816  -15.5203 C   0  0  0  0  0  0  0  0  0  0  0  0
   23.0512  -20.1349  -13.6288 C   0  0  2  0  0  0  0  0  0  0  0  0
   24.2951  -20.8261  -13.4430 N   0  0  0  0  0  0  0  0  0  0  0  0
   22.0689  -20.7317  -12.6838 C   0  0  0  0  0  0  0  0  0  0  0  0
   20.9483  -20.2182  -12.4343 O   0  0  0  0  0  0  0  0  0  0  0  0
   22.3692  -21.9149  -12.0256 O   0  0  0  0  0  0  0  0  0  0  0  0
  2  3  1  0
  2  1  1  6
  3  4  1  0
  4  5  1  0
  5  6  2  0
  7  8  2  0
  7  2  1  0
  9  5  1  0
 10 11  1  0
 11 21  2  0
 12 13  2  0
 12 11  1  0
 13 14  1  0
 14 15  1  0
 14 20  2  0
 16 15  1  1
 16 17  1  0
 17  7  1  0
 18 16  1  0
 18 19  2  0
 21 20  1  0
 22 23  1  0
 23 24  1  0
 24 25  1  1
 24 26  1  0
 26 27  1  6
 27 18  1  0
 28 26  1  0
 29 28  2  0
 30 28  1  0
M  END
$$$$
