EYI.pdb
     RDKit          3D

 30 30  0  0  1  0  0  0  0  0999 V2000
   28.0144  -21.0555  -17.8622 N   0  0  0  0  0  0  0  0  0  0  0  0
   27.2173  -22.2945  -17.6690 C   0  0  1  0  0  0  0  0  0  0  0  0
   28.1160  -23.4302  -18.0221 C   0  0  0  0  0  0  0  0  0  0  0  0
   29.1595  -23.1521  -19.0524 C   0  0  0  0  0  0  0  0  0  0  0  0
   30.4949  -22.8926  -18.5101 C   0  0  0  0  0  0  0  0  0  0  0  0
   31.0915  -21.8252  -18.7859 O   0  0  0  0  0  0  0  0  0  0  0  0
   26.7180  -22.2731  -16.2953 C   0  0  0  0  0  0  0  0  0  0  0  0
   26.0719  -23.2890  -15.8576 O   0  0  0  0  0  0  0  0  0  0  0  0
   31.1259  -23.8077  -17.6887 O   0  0  0  0  0  0  0  0  0  0  0  0
   24.8159  -20.7971   -7.8100 O   0  0  0  0  0  0  0  0  0  0  0  0
   25.3685  -20.7161   -9.0930 C   0  0  0  0  0  0  0  0  0  0  0  0
   26.2858  -21.6775   -9.5036 C   0  0  0  0  0  0  0  0  0  0  0  0
   26.8442  -21.6167  -10.7670 C   0  0  0  0  0  0  0  0  0  0  0  0
   26.5081  -20.6008  -11.6577 C   0  0  0  0  0  0  0  0  0  0  0  0
   27.0913  -20.5153  -13.0121 C   0  0  0  0  0  0  0  0  0  0  0  0
   26.2665  -21.2868  -14.0267 C   0  0  2  0  0  0  0  0  0  0  0  0
   26.8716  -21.2238  -15.3574 N   0  0  0  0  0  0  0  0  0  0  0  0
   24.8825  -20.7588  -14.1096 C   0  0  0  0  0  0  0  0  0  0  0  0
   24.6646  -19.5438  -14.4085 O   0  0  0  0  0  0  0  0  0  0  0  0
   25.5917  -19.6576  -11.2203 C   0  0  0  0  0  0  0  0  0  0  0  0
   25.0318  -19.7130   -9.9621 C   0  0  0  0  0  0  0  0  0  0  0  0
   21.9907  -22.2529  -17.4017 C   0  0  0  0  0  0  0  0  0  0  0  0
   22.1705  -21.2340  -16.3326 C   0  0  0  0  0  0  0  0  0  0  0  0
   21.5455  -21.6349  -15.0117 C   0  0  2  0  0  0  0  0  0  0  0  0
   20.1644  -21.0229  -14.9131 C   0  0  0  0  0  0  0  0  0  0  0  0
   22.3745  -21.0783  -13.9096 C   0  0  2  0  0  0  0  0  0  0  0  0
   23.7347  -21.5344  -13.8719 N   0  0  0  0  0  0  0  0  0  0  0  0
   21.7965  -21.3012  -12.5567 C   0  0  0  0  0  0  0  0  0  0  0  0
   21.8421  -22.4061  -11.9578 O   0  0  0  0  0  0  0  0  0  0  0  0
   21.1672  -20.2602  -11.8904 O   0  0  0  0  0  0  0  0  0  0  0  0
  2  3  1  0
  2  1  1  1
  3  4  1  0
  4  5  1  0
  5  6  2  0
  7  8  2  0
  7  2  1  0
  9  5  1  0
 10 11  1  0
 11 21  2  0
 12 13  2  0
 12 11  1  0
 13 14  1  0
 14 15  1  0
 14 20  2  0
 16 15  1  1
 16 17  1  0
 17  7  1  0
 18 16  1  0
 18 19  2  0
 21 20  1  0
 22 23  1  0
 23 24  1  0
 24 25  1  6
 24 26  1  0
 26 27  1  1
 27 18  1  0
 28 26  1  0
 29 28  2  0
 30 28  1  0
M  END
$$$$
