EYI.pdb
     RDKit          3D

 30 30  0  0  1  0  0  0  0  0999 V2000
   18.1837   -9.8536  -16.6967 N   0  0  0  0  0  0  0  0  0  0  0  0
   17.9574   -8.4153  -16.4005 C   0  0  1  0  0  0  0  0  0  0  0  0
   16.5695   -8.1084  -16.8494 C   0  0  0  0  0  0  0  0  0  0  0  0
   16.3985   -7.7863  -18.2967 C   0  0  0  0  0  0  0  0  0  0  0  0
   17.1253   -6.5963  -18.7444 C   0  0  0  0  0  0  0  0  0  0  0  0
   16.7757   -5.4584  -18.3514 O   0  0  0  0  0  0  0  0  0  0  0  0
   18.2301   -8.2228  -14.9773 C   0  0  0  0  0  0  0  0  0  0  0  0
   17.8856   -9.1412  -14.1533 O   0  0  0  0  0  0  0  0  0  0  0  0
   18.2042   -6.6952  -19.6026 O   0  0  0  0  0  0  0  0  0  0  0  0
   23.9201  -10.8685  -15.1079 O   0  0  0  0  0  0  0  0  0  0  0  0
   23.1280   -9.8600  -14.5477 C   0  0  0  0  0  0  0  0  0  0  0  0
   22.6785   -9.9927  -13.2383 C   0  0  0  0  0  0  0  0  0  0  0  0
   21.8948   -9.0084  -12.6649 C   0  0  0  0  0  0  0  0  0  0  0  0
   21.5357   -7.8657  -13.3745 C   0  0  0  0  0  0  0  0  0  0  0  0
   20.6998   -6.8011  -12.7831 C   0  0  0  0  0  0  0  0  0  0  0  0
   19.2196   -7.0854  -12.9647 C   0  0  2  0  0  0  0  0  0  0  0  0
   18.8541   -7.1004  -14.3815 N   0  0  0  0  0  0  0  0  0  0  0  0
   18.3870   -6.0722  -12.2710 C   0  0  0  0  0  0  0  0  0  0  0  0
   18.2301   -4.9108  -12.7604 O   0  0  0  0  0  0  0  0  0  0  0  0
   21.9985   -7.7618  -14.6767 C   0  0  0  0  0  0  0  0  0  0  0  0
   22.7799   -8.7396  -15.2535 C   0  0  0  0  0  0  0  0  0  0  0  0
   13.2143   -4.5001  -10.0181 C   0  0  0  0  0  0  0  0  0  0  0  0
   14.6798   -4.5151   -9.7619 C   0  0  0  0  0  0  0  0  0  0  0  0
   15.4189   -5.5611  -10.5717 C   0  0  2  0  0  0  0  0  0  0  0  0
   15.0349   -6.9366  -10.0693 C   0  0  0  0  0  0  0  0  0  0  0  0
   16.8788   -5.3827  -10.3521 C   0  0  2  0  0  0  0  0  0  0  0  0
   17.7242   -6.3060  -11.0538 N   0  0  0  0  0  0  0  0  0  0  0  0
   17.2760   -5.4222   -8.9186 C   0  0  0  0  0  0  0  0  0  0  0  0
   17.9402   -6.3612   -8.4099 O   0  0  0  0  0  0  0  0  0  0  0  0
   16.9135   -4.3877   -8.0689 O   0  0  0  0  0  0  0  0  0  0  0  0
  2  3  1  0
  2  1  1  1
  3  4  1  0
  4  5  1  0
  5  6  2  0
  7  8  2  0
  7  2  1  0
  9  5  1  0
 10 11  1  0
 11 21  2  0
 12 13  2  0
 12 11  1  0
 13 14  1  0
 14 15  1  0
 14 20  2  0
 16 15  1  6
 16 17  1  0
 17  7  1  0
 18 16  1  0
 18 19  2  0
 21 20  1  0
 22 23  1  0
 23 24  1  0
 24 25  1  1
 24 26  1  0
 26 27  1  6
 27 18  1  0
 28 26  1  0
 29 28  2  0
 30 28  1  0
M  END
$$$$
