EYI.pdb
     RDKit          3D

 30 30  0  0  1  0  0  0  0  0999 V2000
   27.8964  -20.8917  -16.7654 N   0  0  0  0  0  0  0  0  0  0  0  0
   26.8842  -21.9483  -16.5069 C   0  0  1  0  0  0  0  0  0  0  0  0
   27.4692  -23.2220  -17.0142 C   0  0  0  0  0  0  0  0  0  0  0  0
   28.3045  -23.1213  -18.2470 C   0  0  0  0  0  0  0  0  0  0  0  0
   27.6181  -23.5131  -19.4798 C   0  0  0  0  0  0  0  0  0  0  0  0
   26.4261  -23.8997  -19.4427 O   0  0  0  0  0  0  0  0  0  0  0  0
   26.5762  -21.9065  -15.0785 C   0  0  0  0  0  0  0  0  0  0  0  0
   25.8032  -22.8022  -14.5874 O   0  0  0  0  0  0  0  0  0  0  0  0
   28.2591  -23.4677  -20.7035 O   0  0  0  0  0  0  0  0  0  0  0  0
   25.9149  -20.1250   -6.4350 O   0  0  0  0  0  0  0  0  0  0  0  0
   26.3302  -20.1466   -7.7712 C   0  0  0  0  0  0  0  0  0  0  0  0
   27.1301  -21.1917   -8.2209 C   0  0  0  0  0  0  0  0  0  0  0  0
   27.5519  -21.2329   -9.5370 C   0  0  0  0  0  0  0  0  0  0  0  0
   27.1920  -20.2389  -10.4429 C   0  0  0  0  0  0  0  0  0  0  0  0
   27.6303  -20.2617  -11.8533 C   0  0  0  0  0  0  0  0  0  0  0  0
   26.6340  -20.9900  -12.7376 C   0  0  2  0  0  0  0  0  0  0  0  0
   27.0503  -20.9586  -14.1400 N   0  0  0  0  0  0  0  0  0  0  0  0
   25.2807  -20.3914  -12.6312 C   0  0  0  0  0  0  0  0  0  0  0  0
   25.0790  -19.1758  -12.9390 O   0  0  0  0  0  0  0  0  0  0  0  0
   26.3947  -19.2108   -9.9655 C   0  0  0  0  0  0  0  0  0  0  0  0
   25.9711  -19.1643   -8.6548 C   0  0  0  0  0  0  0  0  0  0  0  0
   21.8664  -21.9354  -15.5085 C   0  0  0  0  0  0  0  0  0  0  0  0
   22.3069  -20.9238  -14.5105 C   0  0  0  0  0  0  0  0  0  0  0  0
   21.8516  -21.2366  -13.0994 C   0  0  2  0  0  0  0  0  0  0  0  0
   20.4844  -20.6265  -12.8751 C   0  0  0  0  0  0  0  0  0  0  0  0
   22.8002  -20.6015  -12.1462 C   0  0  2  0  0  0  0  0  0  0  0  0
   24.1461  -21.0971  -12.1951 N   0  0  0  0  0  0  0  0  0  0  0  0
   22.3560  -20.6692  -10.7277 C   0  0  0  0  0  0  0  0  0  0  0  0
   22.6083  -21.6398   -9.9688 O   0  0  0  0  0  0  0  0  0  0  0  0
   21.6241  -19.6268  -10.1788 O   0  0  0  0  0  0  0  0  0  0  0  0
  2  3  1  0
  2  1  1  1
  3  4  1  0
  4  5  1  0
  5  6  2  0
  7  8  2  0
  7  2  1  0
  9  5  1  0
 10 11  1  0
 11 21  2  0
 12 13  2  0
 12 11  1  0
 13 14  1  0
 14 15  1  0
 14 20  2  0
 16 15  1  1
 16 17  1  0
 17  7  1  0
 18 16  1  0
 18 19  2  0
 21 20  1  0
 22 23  1  0
 23 24  1  0
 24 25  1  1
 24 26  1  0
 26 27  1  1
 27 18  1  0
 28 26  1  0
 29 28  2  0
 30 28  1  0
M  END
$$$$
