DPK.pdb
     RDKit          3D

 25 25  0  0  1  0  0  0  0  0999 V2000
    9.6554  -16.1715   15.2945 N   0  0  0  0  0  0  0  0  0  0  0  0
    8.8302  -15.7019   16.3319 C   0  0  1  0  0  0  0  0  0  0  0  0
    7.8282  -16.7795   16.6934 C   0  0  0  0  0  0  0  0  0  0  0  0
    7.1774  -17.3445   15.4874 C   0  0  0  0  0  0  0  0  0  0  0  0
    6.5989  -16.5843   14.6753 O   0  0  0  0  0  0  0  0  0  0  0  0
    9.4702  -15.2569   17.5767 C   0  0  0  0  0  0  0  0  0  0  0  0
   10.7464  -15.4060   17.5548 O   0  0  0  0  0  0  0  0  0  0  0  0
    7.1923  -18.7031   15.2326 O   0  0  0  0  0  0  0  0  0  0  0  0
    8.8278  -14.7144   18.7172 N   0  0  0  0  0  0  0  0  0  0  0  0
    7.4535  -14.5660   19.0936 C   0  0  0  0  0  0  0  0  0  0  0  0
    7.4027  -13.0766   19.3735 C   0  0  0  0  0  0  0  0  0  0  0  0
    8.6966  -12.9531   20.1926 C   0  0  0  0  0  0  0  0  0  0  0  0
    9.5434  -14.1473   19.8345 C   0  0  1  0  0  0  0  0  0  0  0  0
    9.6215  -15.0402   21.0124 C   0  0  0  0  0  0  0  0  0  0  0  0
    8.5531  -15.6653   21.2954 O   0  0  0  0  0  0  0  0  0  0  0  0
   10.7357  -15.2550   21.8267 N   0  0  0  0  0  0  0  0  0  0  0  0
   10.7258  -16.3036   22.8667 C   0  0  1  0  0  0  0  0  0  0  0  0
   11.7273  -17.3758   22.5111 C   0  0  0  0  0  0  0  0  0  0  0  0
   11.6046  -17.9024   21.1149 C   0  0  0  0  0  0  0  0  0  0  0  0
   12.6316  -19.0025   20.9143 C   0  0  0  0  0  0  0  0  0  0  0  0
   12.5480  -19.6589   19.5708 C   0  0  0  0  0  0  0  0  0  0  0  0
   13.6140  -20.6549   19.4151 N   0  0  0  0  0  0  0  0  0  0  0  0
   10.9009  -15.7086   24.1848 C   0  0  0  0  0  0  0  0  0  0  0  0
   10.6432  -16.3480   25.3789 O   0  0  0  0  0  0  0  0  0  0  0  0
   11.3202  -14.5098   24.2840 O   0  0  0  0  0  0  0  0  0  0  0  0
  2  1  1  6
  2  3  1  0
  3  4  1  0
  4  8  1  0
  5  4  2  0
  6  2  1  0
  7  6  2  0
  9 13  1  0
  9  6  1  0
 10 11  1  0
 10  9  1  0
 11 12  1  0
 12 13  1  0
 13 14  1  1
 14 15  2  0
 16 14  1  0
 17 16  1  0
 17 23  1  0
 17 18  1  6
 19 18  1  0
 20 19  1  0
 20 21  1  0
 22 21  1  0
 23 25  2  0
 23 24  1  0
M  END
$$$$
