DPK.pdb
     RDKit          3D

 25 25  0  0  1  0  0  0  0  0999 V2000
    7.7304  -14.1779   20.0260 N   0  0  0  0  0  0  0  0  0  0  0  0
    7.1736  -14.3281   21.3086 C   0  0  1  0  0  0  0  0  0  0  0  0
    6.2850  -15.5555   21.3216 C   0  0  0  0  0  0  0  0  0  0  0  0
    6.6354  -16.4928   20.2281 C   0  0  0  0  0  0  0  0  0  0  0  0
    7.4122  -16.1255   19.3150 O   0  0  0  0  0  0  0  0  0  0  0  0
    8.0894  -14.4326   22.4520 C   0  0  0  0  0  0  0  0  0  0  0  0
    9.3177  -14.5420   22.0906 O   0  0  0  0  0  0  0  0  0  0  0  0
    6.1218  -17.7756   20.1889 O   0  0  0  0  0  0  0  0  0  0  0  0
    7.7408  -14.4221   23.8254 N   0  0  0  0  0  0  0  0  0  0  0  0
    6.4898  -14.4636   24.5223 C   0  0  0  0  0  0  0  0  0  0  0  0
    6.6149  -13.2258   25.3891 C   0  0  0  0  0  0  0  0  0  0  0  0
    8.0556  -13.4346   25.8802 C   0  0  0  0  0  0  0  0  0  0  0  0
    8.7139  -14.3598   24.8890 C   0  0  1  0  0  0  0  0  0  0  0  0
    8.9631  -15.6598   25.5512 C   0  0  0  0  0  0  0  0  0  0  0  0
    7.9356  -16.3811   25.7420 O   0  0  0  0  0  0  0  0  0  0  0  0
   10.1958  -16.1581   25.9787 N   0  0  0  0  0  0  0  0  0  0  0  0
   10.3407  -17.5651   26.4032 C   0  0  1  0  0  0  0  0  0  0  0  0
   11.4968  -18.1975   25.6666 C   0  0  0  0  0  0  0  0  0  0  0  0
   11.3756  -18.1649   24.1746 C   0  0  0  0  0  0  0  0  0  0  0  0
   12.5790  -18.8659   23.5699 C   0  0  0  0  0  0  0  0  0  0  0  0
   12.5567  -18.9050   22.0731 C   0  0  0  0  0  0  0  0  0  0  0  0
   13.7674  -19.5518   21.5549 N   0  0  0  0  0  0  0  0  0  0  0  0
   10.4147  -17.6489   27.8556 C   0  0  0  0  0  0  0  0  0  0  0  0
   10.2750  -18.8097   28.5865 O   0  0  0  0  0  0  0  0  0  0  0  0
   10.6213  -16.5930   28.5377 O   0  0  0  0  0  0  0  0  0  0  0  0
  2  1  1  6
  2  3  1  0
  3  4  1  0
  4  8  1  0
  5  4  2  0
  6  2  1  0
  7  6  2  0
  9 13  1  0
  9  6  1  0
 10 11  1  0
 10  9  1  0
 11 12  1  0
 12 13  1  0
 13 14  1  1
 14 15  2  0
 16 14  1  0
 17 16  1  0
 17 23  1  0
 17 18  1  6
 19 18  1  0
 20 19  1  0
 20 21  1  0
 22 21  1  0
 23 25  2  0
 23 24  1  0
M  END
$$$$
