DPK.pdb
     RDKit          3D

 25 25  0  0  1  0  0  0  0  0999 V2000
    8.6195  -16.3633   15.2652 N   0  0  0  0  0  0  0  0  0  0  0  0
    8.0155  -16.1860   16.5227 C   0  0  1  0  0  0  0  0  0  0  0  0
    7.4458  -17.5105   16.9890 C   0  0  0  0  0  0  0  0  0  0  0  0
    6.6772  -18.1814   15.9137 C   0  0  0  0  0  0  0  0  0  0  0  0
    6.9386  -19.3685   15.6060 O   0  0  0  0  0  0  0  0  0  0  0  0
    8.8373  -15.6485   17.6148 C   0  0  0  0  0  0  0  0  0  0  0  0
   10.0944  -15.6912   17.3520 O   0  0  0  0  0  0  0  0  0  0  0  0
    5.6686  -17.5244   15.2340 O   0  0  0  0  0  0  0  0  0  0  0  0
    8.3766  -15.1244   18.8480 N   0  0  0  0  0  0  0  0  0  0  0  0
    7.0760  -14.9859   19.4327 C   0  0  0  0  0  0  0  0  0  0  0  0
    7.0671  -13.5008   19.7386 C   0  0  0  0  0  0  0  0  0  0  0  0
    8.4711  -13.3847   20.3516 C   0  0  0  0  0  0  0  0  0  0  0  0
    9.2543  -14.5709   19.8507 C   0  0  1  0  0  0  0  0  0  0  0  0
    9.5129  -15.4801   20.9896 C   0  0  0  0  0  0  0  0  0  0  0  0
    8.5516  -16.2476   21.3047 O   0  0  0  0  0  0  0  0  0  0  0  0
   10.6895  -15.5714   21.7367 N   0  0  0  0  0  0  0  0  0  0  0  0
   10.8988  -16.6778   22.6923 C   0  0  1  0  0  0  0  0  0  0  0  0
   12.2453  -17.3128   22.4412 C   0  0  0  0  0  0  0  0  0  0  0  0
   12.5115  -18.5451   23.2489 C   0  0  0  0  0  0  0  0  0  0  0  0
   13.8894  -19.0749   22.8944 C   0  0  0  0  0  0  0  0  0  0  0  0
   14.2040  -20.3930   23.5319 C   0  0  0  0  0  0  0  0  0  0  0  0
   15.5504  -20.8398   23.1577 N   0  0  0  0  0  0  0  0  0  0  0  0
   10.6797  -16.2149   24.0560 C   0  0  0  0  0  0  0  0  0  0  0  0
   10.6346  -14.8919   24.4418 O   0  0  0  0  0  0  0  0  0  0  0  0
   10.5143  -17.0645   24.9906 O   0  0  0  0  0  0  0  0  0  0  0  0
  2  1  1  6
  2  3  1  0
  3  4  1  0
  4  8  1  0
  5  4  2  0
  6  2  1  0
  7  6  2  0
  9 13  1  0
  9  6  1  0
 10 11  1  0
 10  9  1  0
 11 12  1  0
 12 13  1  0
 13 14  1  1
 14 15  2  0
 16 14  1  0
 17 16  1  0
 17 23  1  0
 17 18  1  1
 19 18  1  0
 20 19  1  0
 20 21  1  0
 22 21  1  0
 23 25  2  0
 23 24  1  0
M  END
$$$$
