DPK.pdb
     RDKit          3D

 25 25  0  0  1  0  0  0  0  0999 V2000
    8.5776  -17.8185   16.7818 N   0  0  0  0  0  0  0  0  0  0  0  0
    7.9233  -16.9199   17.6432 C   0  0  1  0  0  0  0  0  0  0  0  0
    6.8054  -17.6482   18.3616 C   0  0  0  0  0  0  0  0  0  0  0  0
    6.0148  -18.4867   17.4295 C   0  0  0  0  0  0  0  0  0  0  0  0
    5.7850  -18.0810   16.2656 O   0  0  0  0  0  0  0  0  0  0  0  0
    8.7262  -16.2283   18.6601 C   0  0  0  0  0  0  0  0  0  0  0  0
    9.9589  -16.5909   18.6447 O   0  0  0  0  0  0  0  0  0  0  0  0
    5.5190  -19.7182   17.8150 O   0  0  0  0  0  0  0  0  0  0  0  0
    8.2718  -15.2601   19.5896 N   0  0  0  0  0  0  0  0  0  0  0  0
    6.9787  -14.7285   19.9022 C   0  0  0  0  0  0  0  0  0  0  0  0
    7.2414  -13.2448   19.7329 C   0  0  0  0  0  0  0  0  0  0  0  0
    8.5794  -13.1618   20.4835 C   0  0  0  0  0  0  0  0  0  0  0  0
    9.1496  -14.5569   20.4937 C   0  0  1  0  0  0  0  0  0  0  0  0
    9.1168  -15.0695   21.8818 C   0  0  0  0  0  0  0  0  0  0  0  0
    7.9669  -15.3793   22.3223 O   0  0  0  0  0  0  0  0  0  0  0  0
   10.2083  -15.2400   22.7364 N   0  0  0  0  0  0  0  0  0  0  0  0
   10.2196  -16.3148   23.7492 C   0  0  1  0  0  0  0  0  0  0  0  0
   10.8387  -17.5583   23.1579 C   0  0  0  0  0  0  0  0  0  0  0  0
   10.9912  -18.6947   24.1207 C   0  0  0  0  0  0  0  0  0  0  0  0
   11.7579  -19.8143   23.4395 C   0  0  0  0  0  0  0  0  0  0  0  0
   11.8941  -21.0437   24.2837 C   0  0  0  0  0  0  0  0  0  0  0  0
   12.6650  -22.0729   23.5772 N   0  0  0  0  0  0  0  0  0  0  0  0
   10.8397  -15.8421   24.9797 C   0  0  0  0  0  0  0  0  0  0  0  0
   10.5401  -16.3072   26.2426 O   0  0  0  0  0  0  0  0  0  0  0  0
   11.7286  -14.9311   24.9274 O   0  0  0  0  0  0  0  0  0  0  0  0
  2  1  1  1
  2  3  1  0
  3  4  1  0
  4  8  1  0
  5  4  2  0
  6  2  1  0
  7  6  2  0
  9 13  1  0
  9  6  1  0
 10 11  1  0
 10  9  1  0
 11 12  1  0
 12 13  1  0
 13 14  1  1
 14 15  2  0
 16 14  1  0
 17 16  1  0
 17 23  1  0
 17 18  1  6
 19 18  1  0
 20 19  1  0
 20 21  1  0
 22 21  1  0
 23 25  2  0
 23 24  1  0
M  END
$$$$
