DPK.pdb
     RDKit          3D

 25 25  0  0  1  0  0  0  0  0999 V2000
    9.9645  -17.2453   17.0361 N   0  0  0  0  0  0  0  0  0  0  0  0
    8.9214  -16.5767   17.7013 C   0  0  1  0  0  0  0  0  0  0  0  0
    7.7543  -17.5278   17.8732 C   0  0  0  0  0  0  0  0  0  0  0  0
    7.3449  -18.1264   16.5804 C   0  0  0  0  0  0  0  0  0  0  0  0
    7.2443  -17.4034   15.5609 O   0  0  0  0  0  0  0  0  0  0  0  0
    9.2067  -15.9841   19.0145 C   0  0  0  0  0  0  0  0  0  0  0  0
   10.3579  -16.3278   19.4702 O   0  0  0  0  0  0  0  0  0  0  0  0
    7.0681  -19.4761   16.4691 O   0  0  0  0  0  0  0  0  0  0  0  0
    8.3643  -15.1229   19.7606 N   0  0  0  0  0  0  0  0  0  0  0  0
    7.0347  -14.6300   19.5573 C   0  0  0  0  0  0  0  0  0  0  0  0
    7.2749  -13.1363   19.6590 C   0  0  0  0  0  0  0  0  0  0  0  0
    8.1773  -13.1336   20.9024 C   0  0  0  0  0  0  0  0  0  0  0  0
    8.7561  -14.5208   21.0121 C   0  0  1  0  0  0  0  0  0  0  0  0
    8.1761  -15.1809   22.2030 C   0  0  0  0  0  0  0  0  0  0  0  0
    6.9609  -15.5330   22.0945 O   0  0  0  0  0  0  0  0  0  0  0  0
    8.8247  -15.4467   23.4111 N   0  0  0  0  0  0  0  0  0  0  0  0
    8.2291  -16.3584   24.4087 C   0  0  1  0  0  0  0  0  0  0  0  0
    9.3084  -16.8696   25.3323 C   0  0  0  0  0  0  0  0  0  0  0  0
    8.8108  -17.7232   26.4572 C   0  0  0  0  0  0  0  0  0  0  0  0
    9.9884  -18.1183   27.3303 C   0  0  0  0  0  0  0  0  0  0  0  0
    9.6025  -18.9595   28.5076 C   0  0  0  0  0  0  0  0  0  0  0  0
   10.7814  -19.2869   29.3174 N   0  0  0  0  0  0  0  0  0  0  0  0
    7.1034  -15.7146   25.0721 C   0  0  0  0  0  0  0  0  0  0  0  0
    6.9226  -14.3514   25.1732 O   0  0  0  0  0  0  0  0  0  0  0  0
    6.1980  -16.4293   25.6125 O   0  0  0  0  0  0  0  0  0  0  0  0
  2  1  1  1
  2  3  1  0
  3  4  1  0
  4  8  1  0
  5  4  2  0
  6  2  1  0
  7  6  2  0
  9 13  1  0
  9  6  1  0
 10 11  1  0
 10  9  1  0
 11 12  1  0
 12 13  1  0
 13 14  1  1
 14 15  2  0
 16 14  1  0
 17 16  1  0
 17 23  1  0
 17 18  1  1
 19 18  1  0
 20 19  1  0
 20 21  1  0
 22 21  1  0
 23 25  2  0
 23 24  1  0
M  END
$$$$
