DPK.pdb
     RDKit          3D

 25 25  0  0  1  0  0  0  0  0999 V2000
    7.0116  -15.8248   24.6200 N   0  0  0  0  0  0  0  0  0  0  0  0
    7.5059  -14.8596   23.7247 C   0  0  1  0  0  0  0  0  0  0  0  0
    8.9890  -14.6699   23.9708 C   0  0  0  0  0  0  0  0  0  0  0  0
    9.7334  -15.9425   23.8173 C   0  0  0  0  0  0  0  0  0  0  0  0
   10.6523  -16.0305   22.9688 O   0  0  0  0  0  0  0  0  0  0  0  0
    7.3221  -15.0925   22.2862 C   0  0  0  0  0  0  0  0  0  0  0  0
    6.4721  -16.0250   22.0430 O   0  0  0  0  0  0  0  0  0  0  0  0
    9.4370  -17.0467   24.5943 O   0  0  0  0  0  0  0  0  0  0  0  0
    7.9682  -14.4119   21.2245 N   0  0  0  0  0  0  0  0  0  0  0  0
    8.8957  -13.3211   21.1764 C   0  0  0  0  0  0  0  0  0  0  0  0
    8.1631  -12.3762   20.2438 C   0  0  0  0  0  0  0  0  0  0  0  0
    7.7391  -13.3936   19.1735 C   0  0  0  0  0  0  0  0  0  0  0  0
    7.7747  -14.7476   19.8346 C   0  0  1  0  0  0  0  0  0  0  0  0
    8.8845  -15.5305   19.2463 C   0  0  0  0  0  0  0  0  0  0  0  0
   10.0260  -14.9761   19.2885 O   0  0  0  0  0  0  0  0  0  0  0  0
    8.7970  -16.7950   18.6596 N   0  0  0  0  0  0  0  0  0  0  0  0
    9.8522  -17.2852   17.7500 C   0  0  1  0  0  0  0  0  0  0  0  0
    9.8582  -16.4534   16.4901 C   0  0  0  0  0  0  0  0  0  0  0  0
    8.6485  -16.6269   15.6251 C   0  0  0  0  0  0  0  0  0  0  0  0
    8.7662  -15.7018   14.4270 C   0  0  0  0  0  0  0  0  0  0  0  0
    7.5986  -15.7839   13.4928 C   0  0  0  0  0  0  0  0  0  0  0  0
    7.7311  -14.8002   12.4123 N   0  0  0  0  0  0  0  0  0  0  0  0
   11.1283  -17.3553   18.4490 C   0  0  0  0  0  0  0  0  0  0  0  0
   11.3079  -17.8797   19.7115 O   0  0  0  0  0  0  0  0  0  0  0  0
   12.1801  -16.9084   17.8862 O   0  0  0  0  0  0  0  0  0  0  0  0
  2  1  1  1
  2  3  1  0
  3  4  1  0
  4  8  1  0
  5  4  2  0
  6  2  1  0
  7  6  2  0
  9 13  1  0
  9  6  1  0
 10 11  1  0
 10  9  1  0
 11 12  1  0
 12 13  1  0
 13 14  1  6
 14 15  2  0
 16 14  1  0
 17 16  1  0
 17 23  1  0
 17 18  1  6
 19 18  1  0
 20 19  1  0
 20 21  1  0
 22 21  1  0
 23 25  2  0
 23 24  1  0
M  END
$$$$
