DPK.pdb
     RDKit          3D

 25 25  0  0  1  0  0  0  0  0999 V2000
    7.6288  -14.8556   21.2765 N   0  0  0  0  0  0  0  0  0  0  0  0
    7.0818  -14.7105   22.5639 C   0  0  1  0  0  0  0  0  0  0  0  0
    6.4691  -16.0286   22.9925 C   0  0  0  0  0  0  0  0  0  0  0  0
    6.0071  -16.8188   21.8266 C   0  0  0  0  0  0  0  0  0  0  0  0
    5.6150  -16.2325   20.7900 O   0  0  0  0  0  0  0  0  0  0  0  0
    7.9686  -14.2622   23.6454 C   0  0  0  0  0  0  0  0  0  0  0  0
    9.2111  -14.3369   23.3262 O   0  0  0  0  0  0  0  0  0  0  0  0
    5.9974  -18.2009   21.8535 O   0  0  0  0  0  0  0  0  0  0  0  0
    7.5803  -13.7876   24.9228 N   0  0  0  0  0  0  0  0  0  0  0  0
    6.3098  -13.6061   25.5594 C   0  0  0  0  0  0  0  0  0  0  0  0
    6.4040  -12.1448   25.9531 C   0  0  0  0  0  0  0  0  0  0  0  0
    7.8309  -12.1525   26.5228 C   0  0  0  0  0  0  0  0  0  0  0  0
    8.5218  -13.3513   25.9254 C   0  0  1  0  0  0  0  0  0  0  0  0
    8.7577  -14.3428   26.9987 C   0  0  0  0  0  0  0  0  0  0  0  0
    7.7342  -14.9928   27.3761 O   0  0  0  0  0  0  0  0  0  0  0  0
    9.9742  -14.6249   27.6243 N   0  0  0  0  0  0  0  0  0  0  0  0
   10.2704  -15.9789   28.1342 C   0  0  1  0  0  0  0  0  0  0  0  0
   11.4467  -16.5544   27.3830 C   0  0  0  0  0  0  0  0  0  0  0  0
   11.8722  -17.9144   27.8421 C   0  0  0  0  0  0  0  0  0  0  0  0
   13.1066  -18.3308   27.0623 C   0  0  0  0  0  0  0  0  0  0  0  0
   13.5752  -19.7166   27.3825 C   0  0  0  0  0  0  0  0  0  0  0  0
   14.8344  -20.0095   26.6888 N   0  0  0  0  0  0  0  0  0  0  0  0
   10.4175  -15.9514   29.5832 C   0  0  0  0  0  0  0  0  0  0  0  0
   10.4080  -17.0638   30.3978 O   0  0  0  0  0  0  0  0  0  0  0  0
   10.5668  -14.8359   30.1800 O   0  0  0  0  0  0  0  0  0  0  0  0
  2  1  1  6
  2  3  1  0
  3  4  1  0
  4  8  1  0
  5  4  2  0
  6  2  1  0
  7  6  2  0
  9 13  1  0
  9  6  1  0
 10 11  1  0
 10  9  1  0
 11 12  1  0
 12 13  1  0
 13 14  1  1
 14 15  2  0
 16 14  1  0
 17 16  1  0
 17 23  1  0
 17 18  1  6
 19 18  1  0
 20 19  1  0
 20 21  1  0
 22 21  1  0
 23 25  2  0
 23 24  1  0
M  END
$$$$
