DPK.pdb
     RDKit          3D

 25 25  0  0  1  0  0  0  0  0999 V2000
   13.0770  -14.3356   18.7319 N   0  0  0  0  0  0  0  0  0  0  0  0
   11.9348  -15.0879   19.0589 C   0  0  1  0  0  0  0  0  0  0  0  0
   12.3655  -16.4631   19.5276 C   0  0  0  0  0  0  0  0  0  0  0  0
   13.2555  -17.1204   18.5413 C   0  0  0  0  0  0  0  0  0  0  0  0
   12.8377  -17.3578   17.3832 O   0  0  0  0  0  0  0  0  0  0  0  0
   11.0145  -14.5450   20.0665 C   0  0  0  0  0  0  0  0  0  0  0  0
   11.5911  -13.7221   20.8675 O   0  0  0  0  0  0  0  0  0  0  0  0
   14.5487  -17.4822   18.8693 O   0  0  0  0  0  0  0  0  0  0  0  0
    9.6362  -14.8420   20.2082 N   0  0  0  0  0  0  0  0  0  0  0  0
    8.7539  -15.7539   19.5432 C   0  0  0  0  0  0  0  0  0  0  0  0
    7.6612  -14.8034   19.0939 C   0  0  0  0  0  0  0  0  0  0  0  0
    7.5002  -14.0067   20.3976 C   0  0  0  0  0  0  0  0  0  0  0  0
    8.7807  -14.1912   21.1708 C   0  0  1  0  0  0  0  0  0  0  0  0
    8.4938  -15.0109   22.3693 C   0  0  0  0  0  0  0  0  0  0  0  0
    8.8397  -16.2302   22.2924 O   0  0  0  0  0  0  0  0  0  0  0  0
    7.8896  -14.5798   23.5525 N   0  0  0  0  0  0  0  0  0  0  0  0
    8.5917  -14.6879   24.8473 C   0  0  1  0  0  0  0  0  0  0  0  0
    8.2676  -13.4841   25.6987 C   0  0  0  0  0  0  0  0  0  0  0  0
    6.8234  -13.3585   26.0734 C   0  0  0  0  0  0  0  0  0  0  0  0
    6.6249  -12.0567   26.8290 C   0  0  0  0  0  0  0  0  0  0  0  0
    5.1891  -11.7532   27.1275 C   0  0  0  0  0  0  0  0  0  0  0  0
    5.0708  -10.4935   27.8704 N   0  0  0  0  0  0  0  0  0  0  0  0
    8.3109  -15.9758   25.4675 C   0  0  0  0  0  0  0  0  0  0  0  0
    7.3870  -16.8888   25.0049 O   0  0  0  0  0  0  0  0  0  0  0  0
    8.9440  -16.3205   26.5177 O   0  0  0  0  0  0  0  0  0  0  0  0
  2  1  1  1
  2  3  1  0
  3  4  1  0
  4  8  1  0
  5  4  2  0
  6  2  1  0
  7  6  2  0
  9 13  1  0
  9  6  1  0
 10 11  1  0
 10  9  1  0
 11 12  1  0
 12 13  1  0
 13 14  1  1
 14 15  2  0
 16 14  1  0
 17 16  1  0
 17 23  1  0
 17 18  1  1
 19 18  1  0
 20 19  1  0
 20 21  1  0
 22 21  1  0
 23 25  2  0
 23 24  1  0
M  END
$$$$
