DPK.pdb
     RDKit          3D

 25 25  0  0  1  0  0  0  0  0999 V2000
    8.4405  -18.3010   17.8568 N   0  0  0  0  0  0  0  0  0  0  0  0
    7.8728  -17.3622   18.7366 C   0  0  1  0  0  0  0  0  0  0  0  0
    7.1862  -18.0980   19.8695 C   0  0  0  0  0  0  0  0  0  0  0  0
    6.2911  -19.1651   19.3622 C   0  0  0  0  0  0  0  0  0  0  0  0
    5.6559  -19.8841   20.1695 O   0  0  0  0  0  0  0  0  0  0  0  0
    8.7563  -16.3533   19.3352 C   0  0  0  0  0  0  0  0  0  0  0  0
    9.9996  -16.6569   19.2200 O   0  0  0  0  0  0  0  0  0  0  0  0
    6.1372  -19.3900   18.0070 O   0  0  0  0  0  0  0  0  0  0  0  0
    8.3644  -15.1559   19.9837 N   0  0  0  0  0  0  0  0  0  0  0  0
    7.0980  -14.6363   20.4066 C   0  0  0  0  0  0  0  0  0  0  0  0
    7.1060  -13.2887   19.7116 C   0  0  0  0  0  0  0  0  0  0  0  0
    8.5417  -12.8625   20.0547 C   0  0  0  0  0  0  0  0  0  0  0  0
    9.2961  -14.1268   20.3772 C   0  0  1  0  0  0  0  0  0  0  0  0
    9.6170  -14.1287   21.8221 C   0  0  0  0  0  0  0  0  0  0  0  0
    9.9118  -12.9972   22.3173 O   0  0  0  0  0  0  0  0  0  0  0  0
    9.6277  -15.2345   22.6751 N   0  0  0  0  0  0  0  0  0  0  0  0
    9.3878  -15.0788   24.1240 C   0  0  1  0  0  0  0  0  0  0  0  0
    8.1824  -14.1967   24.3435 C   0  0  0  0  0  0  0  0  0  0  0  0
    7.7904  -14.0258   25.7784 C   0  0  0  0  0  0  0  0  0  0  0  0
    6.8498  -12.8393   25.8912 C   0  0  0  0  0  0  0  0  0  0  0  0
    6.4671  -12.5134   27.3019 C   0  0  0  0  0  0  0  0  0  0  0  0
    5.4138  -11.4924   27.3289 N   0  0  0  0  0  0  0  0  0  0  0  0
    9.3227  -16.3838   24.7678 C   0  0  0  0  0  0  0  0  0  0  0  0
    9.2797  -17.5903   24.1016 O   0  0  0  0  0  0  0  0  0  0  0  0
    9.3007  -16.4585   26.0393 O   0  0  0  0  0  0  0  0  0  0  0  0
  2  1  1  1
  2  3  1  0
  3  4  1  0
  4  8  1  0
  5  4  2  0
  6  2  1  0
  7  6  2  0
  9 13  1  0
  9  6  1  0
 10 11  1  0
 10  9  1  0
 11 12  1  0
 12 13  1  0
 13 14  1  1
 14 15  2  0
 16 14  1  0
 17 16  1  0
 17 23  1  0
 17 18  1  6
 19 18  1  0
 20 19  1  0
 20 21  1  0
 22 21  1  0
 23 25  2  0
 23 24  1  0
M  END
$$$$
