DPK.pdb
     RDKit          3D

 25 25  0  0  1  0  0  0  0  0999 V2000
   10.2590  -17.0888   17.7457 N   0  0  0  0  0  0  0  0  0  0  0  0
    9.2715  -17.1300   18.7461 C   0  0  1  0  0  0  0  0  0  0  0  0
    9.0529  -18.5693   19.1666 C   0  0  0  0  0  0  0  0  0  0  0  0
    8.6967  -19.4260   18.0106 C   0  0  0  0  0  0  0  0  0  0  0  0
    7.7413  -19.1041   17.2650 O   0  0  0  0  0  0  0  0  0  0  0  0
    9.4894  -16.3408   19.9655 C   0  0  0  0  0  0  0  0  0  0  0  0
   10.7183  -15.9971   20.1166 O   0  0  0  0  0  0  0  0  0  0  0  0
    9.3986  -20.5835   17.7305 O   0  0  0  0  0  0  0  0  0  0  0  0
    8.5123  -15.9592   20.9181 N   0  0  0  0  0  0  0  0  0  0  0  0
    7.1032  -16.1928   21.0285 C   0  0  0  0  0  0  0  0  0  0  0  0
    6.5960  -14.7694   21.1556 C   0  0  0  0  0  0  0  0  0  0  0  0
    7.6203  -14.2516   22.1770 C   0  0  0  0  0  0  0  0  0  0  0  0
    8.8126  -15.1691   22.0876 C   0  0  1  0  0  0  0  0  0  0  0  0
    8.8966  -15.9564   23.3382 C   0  0  0  0  0  0  0  0  0  0  0  0
    8.4376  -17.1384   23.2710 O   0  0  0  0  0  0  0  0  0  0  0  0
    9.4207  -15.5309   24.5609 N   0  0  0  0  0  0  0  0  0  0  0  0
   10.4395  -16.3307   25.2703 C   0  0  1  0  0  0  0  0  0  0  0  0
   11.0348  -15.5106   26.3894 C   0  0  0  0  0  0  0  0  0  0  0  0
   10.1812  -15.4211   27.6163 C   0  0  0  0  0  0  0  0  0  0  0  0
   10.8939  -14.5643   28.6474 C   0  0  0  0  0  0  0  0  0  0  0  0
   10.0932  -14.3401   29.8929 C   0  0  0  0  0  0  0  0  0  0  0  0
   10.8512  -13.5338   30.8563 N   0  0  0  0  0  0  0  0  0  0  0  0
    9.8816  -17.6139   25.6752 C   0  0  0  0  0  0  0  0  0  0  0  0
    8.5351  -17.9039   25.7369 O   0  0  0  0  0  0  0  0  0  0  0  0
   10.6629  -18.5643   26.0056 O   0  0  0  0  0  0  0  0  0  0  0  0
  2  1  1  6
  2  3  1  0
  3  4  1  0
  4  8  1  0
  5  4  2  0
  6  2  1  0
  7  6  2  0
  9 13  1  0
  9  6  1  0
 10 11  1  0
 10  9  1  0
 11 12  1  0
 12 13  1  0
 13 14  1  1
 14 15  2  0
 16 14  1  0
 17 16  1  0
 17 23  1  0
 17 18  1  1
 19 18  1  0
 20 19  1  0
 20 21  1  0
 22 21  1  0
 23 25  2  0
 23 24  1  0
M  END
$$$$
