MSK.pdb
     RDKit          3D

 24 23  0  0  1  0  0  0  0  0999 V2000
   27.7629  -18.2346   -6.0386 C   0  0  0  0  0  0  0  0  0  0  0  0
   29.0453  -19.4743   -6.2937 S   0  0  0  0  0  0  0  0  0  0  0  0
   28.5840  -20.6449   -7.6037 C   0  0  0  0  0  0  0  0  0  0  0  0
   27.3110  -20.2185   -8.2976 C   0  0  0  0  0  0  0  0  0  0  0  0
   26.9426  -21.0851   -9.4453 C   0  0  2  0  0  0  0  0  0  0  0  0
   28.1131  -21.5143  -10.1704 N   0  0  0  0  0  0  0  0  0  0  0  0
   25.9406  -20.4927  -10.3515 C   0  0  0  0  0  0  0  0  0  0  0  0
   24.9298  -19.9580   -9.8429 O   0  0  0  0  0  0  0  0  0  0  0  0
   26.5360  -20.7131  -14.3696 O   0  0  0  0  0  0  0  0  0  0  0  0
   25.7507  -19.5998  -13.9903 C   0  0  0  0  0  0  0  0  0  0  0  0
   25.0896  -19.9194  -12.6666 C   0  0  2  0  0  0  0  0  0  0  0  0
   26.0606  -20.4963  -11.7659 N   0  0  0  0  0  0  0  0  0  0  0  0
   23.9595  -20.8430  -12.9332 C   0  0  0  0  0  0  0  0  0  0  0  0
   24.0687  -22.0727  -13.0426 O   0  0  0  0  0  0  0  0  0  0  0  0
   22.6628  -20.2751  -13.0721 N   0  0  0  0  0  0  0  0  0  0  0  0
   21.4774  -21.0323  -13.3050 C   0  0  1  0  0  0  0  0  0  0  0  0
   20.2238  -20.3479  -12.7316 C   0  0  0  0  0  0  0  0  0  0  0  0
   19.2578  -21.3696  -12.2302 C   0  0  0  0  0  0  0  0  0  0  0  0
   19.5329  -21.9825  -10.9108 C   0  0  0  0  0  0  0  0  0  0  0  0
   18.5388  -23.0076  -10.4653 C   0  0  0  0  0  0  0  0  0  0  0  0
   18.8939  -23.5623   -9.2024 N   0  0  0  0  0  0  0  0  0  0  0  0
   21.2683  -21.4650  -14.7003 C   0  0  0  0  0  0  0  0  0  0  0  0
   20.5329  -22.5770  -15.0839 O   0  0  0  0  0  0  0  0  0  0  0  0
   21.7902  -20.7824  -15.6148 O   0  0  0  0  0  0  0  0  0  0  0  0
  1  2  1  0
  3  2  1  0
  4  3  1  0
  5  4  1  0
  5  6  1  6
  7  8  2  0
  7  5  1  0
  9 10  1  0
 11 10  1  6
 11 12  1  0
 12  7  1  0
 13 11  1  0
 14 13  2  0
 15 13  1  0
 16 15  1  0
 16 17  1  6
 17 18  1  0
 18 19  1  0
 19 20  1  0
 20 21  1  0
 22 16  1  0
 22 23  1  0
 24 22  2  0
M  END
$$$$
