MSK.pdb
     RDKit          3D

 24 23  0  0  1  0  0  0  0  0999 V2000
   27.9968  -11.3536  -15.1584 C   0  0  0  0  0  0  0  0  0  0  0  0
   27.4341  -13.0373  -15.4669 S   0  0  0  0  0  0  0  0  0  0  0  0
   27.0521  -13.2968  -17.2236 C   0  0  0  0  0  0  0  0  0  0  0  0
   25.9912  -12.3330  -17.7028 C   0  0  0  0  0  0  0  0  0  0  0  0
   24.6271  -12.6650  -17.2203 C   0  0  2  0  0  0  0  0  0  0  0  0
   24.2152  -13.9687  -17.6798 N   0  0  0  0  0  0  0  0  0  0  0  0
   23.6107  -11.6428  -17.5336 C   0  0  0  0  0  0  0  0  0  0  0  0
   22.9235  -11.7935  -18.5688 O   0  0  0  0  0  0  0  0  0  0  0  0
   20.8068  -10.5349  -15.6331 O   0  0  0  0  0  0  0  0  0  0  0  0
   21.0039  -10.0555  -16.9489 C   0  0  0  0  0  0  0  0  0  0  0  0
   22.3996   -9.4757  -17.0344 C   0  0  2  0  0  0  0  0  0  0  0  0
   23.3705  -10.5001  -16.7265 N   0  0  0  0  0  0  0  0  0  0  0  0
   22.4768   -8.3335  -16.0906 C   0  0  0  0  0  0  0  0  0  0  0  0
   22.7508   -8.4353  -14.8863 O   0  0  0  0  0  0  0  0  0  0  0  0
   22.2182   -7.0334  -16.6067 N   0  0  0  0  0  0  0  0  0  0  0  0
   22.2895   -5.8365  -15.8353 C   0  0  1  0  0  0  0  0  0  0  0  0
   21.8544   -4.5969  -16.6369 C   0  0  0  0  0  0  0  0  0  0  0  0
   22.1211   -3.3533  -15.8553 C   0  0  0  0  0  0  0  0  0  0  0  0
   21.6394   -2.0727  -16.4210 C   0  0  0  0  0  0  0  0  0  0  0  0
   21.8870   -0.8676  -15.5700 C   0  0  0  0  0  0  0  0  0  0  0  0
   21.3611    0.3113  -16.1719 N   0  0  0  0  0  0  0  0  0  0  0  0
   21.6233   -5.8925  -14.5197 C   0  0  0  0  0  0  0  0  0  0  0  0
   20.3577   -6.4135  -14.2934 O   0  0  0  0  0  0  0  0  0  0  0  0
   22.2396   -5.4378  -13.5257 O   0  0  0  0  0  0  0  0  0  0  0  0
  1  2  1  0
  3  2  1  0
  4  3  1  0
  5  4  1  0
  5  6  1  6
  7  8  2  0
  7  5  1  0
  9 10  1  0
 11 10  1  1
 11 12  1  0
 12  7  1  0
 13 11  1  0
 14 13  2  0
 15 13  1  0
 16 15  1  0
 16 17  1  6
 17 18  1  0
 18 19  1  0
 19 20  1  0
 20 21  1  0
 22 16  1  0
 22 23  1  0
 24 22  2  0
M  END
$$$$
