MSK.pdb
     RDKit          3D

 24 23  0  0  1  0  0  0  0  0999 V2000
   28.8283  -14.2606  -21.0354 C   0  0  0  0  0  0  0  0  0  0  0  0
   27.3887  -14.3964  -22.1103 S   0  0  0  0  0  0  0  0  0  0  0  0
   25.8640  -14.6259  -21.1501 C   0  0  0  0  0  0  0  0  0  0  0  0
   25.6379  -13.4761  -20.1959 C   0  0  0  0  0  0  0  0  0  0  0  0
   25.7997  -13.8498  -18.7683 C   0  0  2  0  0  0  0  0  0  0  0  0
   25.0699  -15.0550  -18.4597 N   0  0  0  0  0  0  0  0  0  0  0  0
   25.4702  -12.7686  -17.8203 C   0  0  0  0  0  0  0  0  0  0  0  0
   24.3016  -12.7110  -17.3759 O   0  0  0  0  0  0  0  0  0  0  0  0
   28.0521  -10.9804  -15.1639 O   0  0  0  0  0  0  0  0  0  0  0  0
   27.3742  -10.0637  -16.0006 C   0  0  0  0  0  0  0  0  0  0  0  0
   26.0930  -10.7167  -16.4734 C   0  0  2  0  0  0  0  0  0  0  0  0
   26.4046  -11.7924  -17.3860 N   0  0  0  0  0  0  0  0  0  0  0  0
   25.2567   -9.6701  -17.1109 C   0  0  0  0  0  0  0  0  0  0  0  0
   25.3761   -9.2954  -18.2862 O   0  0  0  0  0  0  0  0  0  0  0  0
   24.2493   -9.0566  -16.3159 N   0  0  0  0  0  0  0  0  0  0  0  0
   23.3801   -8.0258  -16.7795 C   0  0  1  0  0  0  0  0  0  0  0  0
   22.1032   -7.9103  -15.9281 C   0  0  0  0  0  0  0  0  0  0  0  0
   21.1366   -6.9690  -16.5670 C   0  0  0  0  0  0  0  0  0  0  0  0
   19.8026   -6.8278  -15.9404 C   0  0  0  0  0  0  0  0  0  0  0  0
   18.8011   -6.0578  -16.7416 C   0  0  0  0  0  0  0  0  0  0  0  0
   17.4968   -6.1571  -16.1781 N   0  0  0  0  0  0  0  0  0  0  0  0
   24.0149   -6.7097  -16.9857 C   0  0  0  0  0  0  0  0  0  0  0  0
   23.7635   -5.8676  -18.0591 O   0  0  0  0  0  0  0  0  0  0  0  0
   24.8448   -6.3140  -16.1318 O   0  0  0  0  0  0  0  0  0  0  0  0
  1  2  1  0
  3  2  1  0
  4  3  1  0
  5  4  1  0
  5  6  1  1
  7  8  2  0
  7  5  1  0
  9 10  1  0
 11 10  1  6
 11 12  1  0
 12  7  1  0
 13 11  1  0
 14 13  2  0
 15 13  1  0
 16 15  1  0
 16 17  1  1
 17 18  1  0
 18 19  1  0
 19 20  1  0
 20 21  1  0
 22 16  1  0
 22 23  1  0
 24 22  2  0
M  END
$$$$
