MSK.pdb
     RDKit          3D

 24 23  0  0  1  0  0  0  0  0999 V2000
   27.8288  -14.2965  -16.5317 C   0  0  0  0  0  0  0  0  0  0  0  0
   27.2766  -14.8305  -14.9018 S   0  0  0  0  0  0  0  0  0  0  0  0
   25.5212  -15.2969  -14.9170 C   0  0  0  0  0  0  0  0  0  0  0  0
   24.6759  -14.2323  -15.5774 C   0  0  0  0  0  0  0  0  0  0  0  0
   23.2382  -14.5902  -15.6707 C   0  0  2  0  0  0  0  0  0  0  0  0
   23.0567  -15.8385  -16.3699 N   0  0  0  0  0  0  0  0  0  0  0  0
   22.3881  -13.5290  -16.2431 C   0  0  0  0  0  0  0  0  0  0  0  0
   22.2779  -13.4705  -17.4884 O   0  0  0  0  0  0  0  0  0  0  0  0
   19.6467  -11.6719  -13.9888 O   0  0  0  0  0  0  0  0  0  0  0  0
   19.5003  -11.5492  -15.3900 C   0  0  0  0  0  0  0  0  0  0  0  0
   20.8826  -11.5068  -16.0056 C   0  0  2  0  0  0  0  0  0  0  0  0
   21.6900  -12.5731  -15.4597 N   0  0  0  0  0  0  0  0  0  0  0  0
   21.4639  -10.1702  -15.7282 C   0  0  0  0  0  0  0  0  0  0  0  0
   22.2261   -9.9184  -14.7840 O   0  0  0  0  0  0  0  0  0  0  0  0
   21.1209   -9.1068  -16.6085 N   0  0  0  0  0  0  0  0  0  0  0  0
   21.5590   -7.7597  -16.4463 C   0  0  1  0  0  0  0  0  0  0  0  0
   21.1678   -6.8695  -17.6393 C   0  0  0  0  0  0  0  0  0  0  0  0
   22.3430   -6.6555  -18.5347 C   0  0  0  0  0  0  0  0  0  0  0  0
   22.2246   -7.1074  -19.9396 C   0  0  0  0  0  0  0  0  0  0  0  0
   23.3727   -6.7402  -20.8255 C   0  0  0  0  0  0  0  0  0  0  0  0
   23.2190   -7.2892  -22.1307 N   0  0  0  0  0  0  0  0  0  0  0  0
   21.2020   -7.1300  -15.1603 C   0  0  0  0  0  0  0  0  0  0  0  0
   21.9557   -6.1596  -14.5164 O   0  0  0  0  0  0  0  0  0  0  0  0
   20.1393   -7.4925  -14.6001 O   0  0  0  0  0  0  0  0  0  0  0  0
  1  2  1  0
  3  2  1  0
  4  3  1  0
  5  4  1  0
  5  6  1  6
  7  8  2  0
  7  5  1  0
  9 10  1  0
 11 10  1  1
 11 12  1  0
 12  7  1  0
 13 11  1  0
 14 13  2  0
 15 13  1  0
 16 15  1  0
 16 17  1  6
 17 18  1  0
 18 19  1  0
 19 20  1  0
 20 21  1  0
 22 16  1  0
 22 23  1  0
 24 22  2  0
M  END
$$$$
