MSK.pdb
     RDKit          3D

 24 23  0  0  1  0  0  0  0  0999 V2000
   26.3325  -18.5202   -7.8299 C   0  0  0  0  0  0  0  0  0  0  0  0
   26.2434  -20.2922   -7.5159 S   0  0  0  0  0  0  0  0  0  0  0  0
   26.1166  -21.2339   -9.0639 C   0  0  0  0  0  0  0  0  0  0  0  0
   24.8674  -20.8650   -9.8302 C   0  0  0  0  0  0  0  0  0  0  0  0
   24.7195  -21.5993  -11.1119 C   0  0  2  0  0  0  0  0  0  0  0  0
   25.6020  -21.0677  -12.1213 N   0  0  0  0  0  0  0  0  0  0  0  0
   23.3314  -21.6795  -11.6048 C   0  0  0  0  0  0  0  0  0  0  0  0
   23.0570  -21.1126  -12.6864 O   0  0  0  0  0  0  0  0  0  0  0  0
   20.3322  -22.4777   -9.1194 O   0  0  0  0  0  0  0  0  0  0  0  0
   20.0704  -23.1263  -10.3485 C   0  0  0  0  0  0  0  0  0  0  0  0
   20.9399  -22.4890  -11.4113 C   0  0  2  0  0  0  0  0  0  0  0  0
   22.2927  -22.3633  -10.9205 N   0  0  0  0  0  0  0  0  0  0  0  0
   20.3476  -21.1729  -11.7554 C   0  0  0  0  0  0  0  0  0  0  0  0
   20.8645  -20.0789  -11.4873 O   0  0  0  0  0  0  0  0  0  0  0  0
   19.1009  -21.1700  -12.4402 N   0  0  0  0  0  0  0  0  0  0  0  0
   18.9195  -20.6942  -13.7719 C   0  0  1  0  0  0  0  0  0  0  0  0
   19.9775  -21.2508  -14.7413 C   0  0  0  0  0  0  0  0  0  0  0  0
   19.7579  -20.7105  -16.1155 C   0  0  0  0  0  0  0  0  0  0  0  0
   20.9366  -20.1849  -16.8409 C   0  0  0  0  0  0  0  0  0  0  0  0
   20.6554  -19.6487  -18.2088 C   0  0  0  0  0  0  0  0  0  0  0  0
   21.8505  -19.2242  -18.8571 N   0  0  0  0  0  0  0  0  0  0  0  0
   17.5555  -20.8422  -14.3152 C   0  0  0  0  0  0  0  0  0  0  0  0
   16.8937  -19.8837  -15.0685 O   0  0  0  0  0  0  0  0  0  0  0  0
   16.9406  -21.9114  -14.0842 O   0  0  0  0  0  0  0  0  0  0  0  0
  1  2  1  0
  3  2  1  0
  4  3  1  0
  5  4  1  0
  5  6  1  6
  7  8  2  0
  7  5  1  0
  9 10  1  0
 11 10  1  1
 11 12  1  0
 12  7  1  0
 13 11  1  0
 14 13  2  0
 15 13  1  0
 16 15  1  0
 16 17  1  6
 17 18  1  0
 18 19  1  0
 19 20  1  0
 20 21  1  0
 22 16  1  0
 22 23  1  0
 24 22  2  0
M  END
$$$$
