MSK.pdb
     RDKit          3D

 24 23  0  0  1  0  0  0  0  0999 V2000
   28.9202  -13.1082  -15.3543 C   0  0  0  0  0  0  0  0  0  0  0  0
   27.7106  -11.8517  -15.8068 S   0  0  0  0  0  0  0  0  0  0  0  0
   26.0139  -12.4272  -15.5079 C   0  0  0  0  0  0  0  0  0  0  0  0
   24.9997  -11.3900  -15.9316 C   0  0  0  0  0  0  0  0  0  0  0  0
   23.5936  -11.8488  -15.8035 C   0  0  2  0  0  0  0  0  0  0  0  0
   23.3630  -13.0431  -16.5785 N   0  0  0  0  0  0  0  0  0  0  0  0
   22.5902  -10.8116  -16.1095 C   0  0  0  0  0  0  0  0  0  0  0  0
   22.3752  -10.5369  -17.3115 O   0  0  0  0  0  0  0  0  0  0  0  0
   21.0087   -8.5498  -13.0756 O   0  0  0  0  0  0  0  0  0  0  0  0
   20.1161   -8.7335  -14.1570 C   0  0  0  0  0  0  0  0  0  0  0  0
   20.9328   -9.0354  -15.3952 C   0  0  2  0  0  0  0  0  0  0  0  0
   21.8572  -10.1101  -15.1170 N   0  0  0  0  0  0  0  0  0  0  0  0
   21.6317   -7.7891  -15.7949 C   0  0  0  0  0  0  0  0  0  0  0  0
   22.7899   -7.4970  -15.4646 O   0  0  0  0  0  0  0  0  0  0  0  0
   20.9208   -6.8683  -16.6135 N   0  0  0  0  0  0  0  0  0  0  0  0
   21.4703   -5.6517  -17.1142 C   0  0  1  0  0  0  0  0  0  0  0  0
   21.6940   -5.6934  -18.6363 C   0  0  0  0  0  0  0  0  0  0  0  0
   22.2736   -4.4024  -19.1115 C   0  0  0  0  0  0  0  0  0  0  0  0
   22.4690   -4.2351  -20.5695 C   0  0  0  0  0  0  0  0  0  0  0  0
   23.0524   -2.9225  -20.9872 C   0  0  0  0  0  0  0  0  0  0  0  0
   22.9938   -2.7532  -22.4002 N   0  0  0  0  0  0  0  0  0  0  0  0
   20.7629   -4.4233  -16.7039 C   0  0  0  0  0  0  0  0  0  0  0  0
   21.3811   -3.2322  -16.3523 O   0  0  0  0  0  0  0  0  0  0  0  0
   19.5089   -4.4480  -16.6677 O   0  0  0  0  0  0  0  0  0  0  0  0
  1  2  1  0
  3  2  1  0
  4  3  1  0
  5  4  1  0
  5  6  1  6
  7  8  2  0
  7  5  1  0
  9 10  1  0
 11 10  1  1
 11 12  1  0
 12  7  1  0
 13 11  1  0
 14 13  2  0
 15 13  1  0
 16 15  1  0
 16 17  1  6
 17 18  1  0
 18 19  1  0
 19 20  1  0
 20 21  1  0
 22 16  1  0
 22 23  1  0
 24 22  2  0
M  END
$$$$
