MSK.pdb
     RDKit          3D

 24 23  0  0  1  0  0  0  0  0999 V2000
   21.1339  -17.8503  -21.6591 C   0  0  0  0  0  0  0  0  0  0  0  0
   20.6562  -16.3819  -20.7306 S   0  0  0  0  0  0  0  0  0  0  0  0
   21.5773  -16.2559  -19.1702 C   0  0  0  0  0  0  0  0  0  0  0  0
   21.1869  -15.0150  -18.4010 C   0  0  0  0  0  0  0  0  0  0  0  0
   21.9301  -14.8492  -17.1266 C   0  0  2  0  0  0  0  0  0  0  0  0
   21.8579  -16.0444  -16.3225 N   0  0  0  0  0  0  0  0  0  0  0  0
   21.5374  -13.6583  -16.3495 C   0  0  0  0  0  0  0  0  0  0  0  0
   20.3201  -13.4808  -16.1190 O   0  0  0  0  0  0  0  0  0  0  0  0
   24.4106  -11.2292  -14.7341 O   0  0  0  0  0  0  0  0  0  0  0  0
   23.1447  -11.1753  -14.1059 C   0  0  0  0  0  0  0  0  0  0  0  0
   22.0909  -11.5024  -15.1422 C   0  0  2  0  0  0  0  0  0  0  0  0
   22.4632  -12.7053  -15.8502 N   0  0  0  0  0  0  0  0  0  0  0  0
   21.9687  -10.3362  -16.0513 C   0  0  0  0  0  0  0  0  0  0  0  0
   22.5870  -10.2099  -17.1179 O   0  0  0  0  0  0  0  0  0  0  0  0
   21.0799   -9.2933  -15.6697 N   0  0  0  0  0  0  0  0  0  0  0  0
   20.8623   -8.1076  -16.4310 C   0  0  1  0  0  0  0  0  0  0  0  0
   19.3687   -7.7581  -16.5559 C   0  0  0  0  0  0  0  0  0  0  0  0
   19.1805   -6.6104  -17.4917 C   0  0  0  0  0  0  0  0  0  0  0  0
   17.7923   -6.1939  -17.7938 C   0  0  0  0  0  0  0  0  0  0  0  0
   17.6603   -5.1192  -18.8260 C   0  0  0  0  0  0  0  0  0  0  0  0
   16.2950   -4.8714  -19.1474 N   0  0  0  0  0  0  0  0  0  0  0  0
   21.6601   -6.9367  -16.0181 C   0  0  0  0  0  0  0  0  0  0  0  0
   22.1614   -5.9742  -16.8821 O   0  0  0  0  0  0  0  0  0  0  0  0
   21.9083   -6.7923  -14.7965 O   0  0  0  0  0  0  0  0  0  0  0  0
  1  2  1  0
  3  2  1  0
  4  3  1  0
  5  4  1  0
  5  6  1  1
  7  8  2  0
  7  5  1  0
  9 10  1  0
 11 10  1  1
 11 12  1  0
 12  7  1  0
 13 11  1  0
 14 13  2  0
 15 13  1  0
 16 15  1  0
 16 17  1  1
 17 18  1  0
 18 19  1  0
 19 20  1  0
 20 21  1  0
 22 16  1  0
 22 23  1  0
 24 22  2  0
M  END
$$$$
