MSK.pdb
     RDKit          3D

 24 23  0  0  1  0  0  0  0  0999 V2000
   15.8844  -16.1037  -17.8291 C   0  0  0  0  0  0  0  0  0  0  0  0
   16.5177  -14.8703  -16.6783 S   0  0  0  0  0  0  0  0  0  0  0  0
   17.6933  -13.7486  -17.4901 C   0  0  0  0  0  0  0  0  0  0  0  0
   18.1443  -12.6532  -16.5517 C   0  0  0  0  0  0  0  0  0  0  0  0
   19.1792  -11.7623  -17.1342 C   0  0  2  0  0  0  0  0  0  0  0  0
   20.2078  -12.5243  -17.7988 N   0  0  0  0  0  0  0  0  0  0  0  0
   19.7601  -10.8042  -16.1747 C   0  0  0  0  0  0  0  0  0  0  0  0
   18.9769  -10.1160  -15.4824 O   0  0  0  0  0  0  0  0  0  0  0  0
   23.7599   -9.8583  -16.3203 O   0  0  0  0  0  0  0  0  0  0  0  0
   23.2352   -9.8792  -15.0071 C   0  0  0  0  0  0  0  0  0  0  0  0
   21.7407   -9.6546  -15.0940 C   0  0  2  0  0  0  0  0  0  0  0  0
   21.1561  -10.6210  -15.9946 N   0  0  0  0  0  0  0  0  0  0  0  0
   21.5154   -8.2608  -15.5498 C   0  0  0  0  0  0  0  0  0  0  0  0
   21.4036   -7.9197  -16.7360 O   0  0  0  0  0  0  0  0  0  0  0  0
   21.4214   -7.2489  -14.5546 N   0  0  0  0  0  0  0  0  0  0  0  0
   21.3191   -5.8550  -14.8366 C   0  0  1  0  0  0  0  0  0  0  0  0
   19.8575   -5.3885  -14.9589 C   0  0  0  0  0  0  0  0  0  0  0  0
   19.8031   -3.9505  -15.3558 C   0  0  0  0  0  0  0  0  0  0  0  0
   18.4696   -3.3617  -15.6148 C   0  0  0  0  0  0  0  0  0  0  0  0
   17.4677   -4.2950  -16.2174 C   0  0  0  0  0  0  0  0  0  0  0  0
   16.2090   -3.6557  -16.4062 N   0  0  0  0  0  0  0  0  0  0  0  0
   22.0972   -4.9719  -13.9464 C   0  0  0  0  0  0  0  0  0  0  0  0
   22.6270   -3.7436  -14.3137 O   0  0  0  0  0  0  0  0  0  0  0  0
   22.2995   -5.3515  -12.7676 O   0  0  0  0  0  0  0  0  0  0  0  0
  1  2  1  0
  3  2  1  0
  4  3  1  0
  5  4  1  0
  5  6  1  1
  7  8  2  0
  7  5  1  0
  9 10  1  0
 11 10  1  6
 11 12  1  0
 12  7  1  0
 13 11  1  0
 14 13  2  0
 15 13  1  0
 16 15  1  0
 16 17  1  1
 17 18  1  0
 18 19  1  0
 19 20  1  0
 20 21  1  0
 22 16  1  0
 22 23  1  0
 24 22  2  0
M  END
$$$$
