HHA.pdb
     RDKit          3D

 26 27  0  0  1  0  0  0  0  0999 V2000
   21.0706  -11.4763  -18.4469 N   0  0  0  0  0  0  0  0  0  0  0  0
   21.1522  -10.0370  -18.5822 C   0  0  1  0  0  0  0  0  0  0  0  0
   19.7934   -9.5396  -18.9870 C   0  0  0  0  0  0  0  0  0  0  0  0
   19.5287  -10.0443  -20.3629 C   0  0  0  0  0  0  0  0  0  0  0  0
   18.4854  -10.8813  -20.7591 C   0  0  0  0  0  0  0  0  0  0  0  0
   18.6200  -11.0896  -22.0878 N   0  0  0  0  0  0  0  0  0  0  0  0
   19.6852  -10.4314  -22.5394 C   0  0  0  0  0  0  0  0  0  0  0  0
   20.2220   -9.8077  -21.4930 N   0  0  0  0  0  0  0  0  0  0  0  0
   21.6329   -9.4091  -17.3220 C   0  0  0  0  0  0  0  0  0  0  0  0
   21.2566   -9.8700  -16.2274 O   0  0  0  0  0  0  0  0  0  0  0  0
   22.5117   -8.2949  -17.3108 N   0  0  0  0  0  0  0  0  0  0  0  0
   23.0837   -7.6961  -16.1238 C   0  0  1  0  0  0  0  0  0  0  0  0
   24.5334   -7.8158  -15.9808 C   0  0  0  0  0  0  0  0  0  0  0  0
   25.0846   -9.1880  -15.9474 C   0  0  0  0  0  0  0  0  0  0  0  0
   24.4899  -10.4060  -15.8923 C   0  0  0  0  0  0  0  0  0  0  0  0
   25.4497  -11.3386  -15.8696 N   0  0  0  0  0  0  0  0  0  0  0  0
   26.6509  -10.7365  -15.9090 C   0  0  0  0  0  0  0  0  0  0  0  0
   26.4344   -9.4347  -15.9562 N   0  0  0  0  0  0  0  0  0  0  0  0
   22.5446   -6.3271  -16.0113 C   0  0  0  0  0  0  0  0  0  0  0  0
   22.4706   -5.6399  -17.0535 O   0  0  0  0  0  0  0  0  0  0  0  0
   20.9388   -4.0781  -13.4111 C   0  0  0  0  0  0  0  0  0  0  0  0
   21.6602   -4.3855  -14.6816 C   0  0  2  0  0  0  0  0  0  0  0  0
   22.1051   -5.7367  -14.8054 N   0  0  0  0  0  0  0  0  0  0  0  0
   22.7892   -3.4052  -14.8090 C   0  0  0  0  0  0  0  0  0  0  0  0
   22.4946   -2.1044  -15.1514 O   0  0  0  0  0  0  0  0  0  0  0  0
   23.9672   -3.7875  -14.6029 O   0  0  0  0  0  0  0  0  0  0  0  0
  2  1  1  1
  2  3  1  0
  4  8  1  0
  4  3  1  0
  5  4  2  0
  6  5  1  0
  6  7  1  0
  7  8  2  0
  9  2  1  0
  9 10  2  0
 11  9  1  0
 12 11  1  0
 13 14  1  0
 12 13  1  6
 14 18  1  0
 15 14  2  0
 15 16  1  0
 16 17  1  0
 18 17  2  0
 19 12  1  0
 20 19  2  0
 22 23  1  0
 22 21  1  1
 23 19  1  0
 24 22  1  0
 25 24  1  0
 26 24  2  0
M  END
$$$$
