HHA.pdb
     RDKit          3D

 26 27  0  0  1  0  0  0  0  0999 V2000
   14.1149  -13.4348  -11.7988 N   0  0  0  0  0  0  0  0  0  0  0  0
   13.6564  -12.0935  -11.5038 C   0  0  1  0  0  0  0  0  0  0  0  0
   12.7460  -12.1750  -10.3114 C   0  0  0  0  0  0  0  0  0  0  0  0
   11.4631  -12.7739  -10.7735 C   0  0  0  0  0  0  0  0  0  0  0  0
   10.9794  -14.0471  -10.4721 C   0  0  0  0  0  0  0  0  0  0  0  0
    9.7867  -14.1813  -11.0937 N   0  0  0  0  0  0  0  0  0  0  0  0
    9.5017  -13.0664  -11.7630 C   0  0  0  0  0  0  0  0  0  0  0  0
   10.5171  -12.2291  -11.5622 N   0  0  0  0  0  0  0  0  0  0  0  0
   14.8046  -11.1748  -11.2781 C   0  0  0  0  0  0  0  0  0  0  0  0
   15.7580  -11.5509  -10.5698 O   0  0  0  0  0  0  0  0  0  0  0  0
   14.8632   -9.8731  -11.8404 N   0  0  0  0  0  0  0  0  0  0  0  0
   15.9735   -8.9550  -11.7034 C   0  0  1  0  0  0  0  0  0  0  0  0
   16.7424   -8.6934  -12.9187 C   0  0  0  0  0  0  0  0  0  0  0  0
   17.4119   -9.8558  -13.5420 C   0  0  0  0  0  0  0  0  0  0  0  0
   18.6954  -10.2931  -13.5063 C   0  0  0  0  0  0  0  0  0  0  0  0
   18.7817  -11.3967  -14.2589 N   0  0  0  0  0  0  0  0  0  0  0  0
   17.5724  -11.6731  -14.7767 C   0  0  0  0  0  0  0  0  0  0  0  0
   16.7403  -10.7429  -14.3453 N   0  0  0  0  0  0  0  0  0  0  0  0
   15.4781   -7.7592  -10.9948 C   0  0  0  0  0  0  0  0  0  0  0  0
   14.5850   -7.0800  -11.5469 O   0  0  0  0  0  0  0  0  0  0  0  0
   15.8860   -6.0154   -7.6515 C   0  0  0  0  0  0  0  0  0  0  0  0
   15.5607   -6.1022   -9.1060 C   0  0  2  0  0  0  0  0  0  0  0  0
   15.9433   -7.3267   -9.7329 N   0  0  0  0  0  0  0  0  0  0  0  0
   16.1726   -4.9082   -9.7782 C   0  0  0  0  0  0  0  0  0  0  0  0
   15.6714   -3.6599   -9.4843 O   0  0  0  0  0  0  0  0  0  0  0  0
   17.1193   -5.0706  -10.5867 O   0  0  0  0  0  0  0  0  0  0  0  0
  2  1  1  1
  2  3  1  0
  4  8  1  0
  4  3  1  0
  5  4  2  0
  6  5  1  0
  6  7  1  0
  7  8  2  0
  9  2  1  0
  9 10  2  0
 11  9  1  0
 12 11  1  0
 13 14  1  0
 12 13  1  6
 14 18  1  0
 15 14  2  0
 15 16  1  0
 16 17  1  0
 18 17  2  0
 19 12  1  0
 20 19  2  0
 22 23  1  0
 22 21  1  1
 23 19  1  0
 24 22  1  0
 25 24  1  0
 26 24  2  0
M  END
$$$$
