HHA.pdb
     RDKit          3D

 26 27  0  0  1  0  0  0  0  0999 V2000
   24.8257  -12.0076  -17.7771 N   0  0  0  0  0  0  0  0  0  0  0  0
   24.8409  -11.1410  -16.6173 C   0  0  1  0  0  0  0  0  0  0  0  0
   26.2248  -10.5692  -16.4938 C   0  0  0  0  0  0  0  0  0  0  0  0
   27.1567  -11.7089  -16.2689 C   0  0  0  0  0  0  0  0  0  0  0  0
   27.0157  -12.7299  -15.3289 C   0  0  0  0  0  0  0  0  0  0  0  0
   28.0808  -13.5509  -15.4648 N   0  0  0  0  0  0  0  0  0  0  0  0
   28.8743  -13.0996  -16.4336 C   0  0  0  0  0  0  0  0  0  0  0  0
   28.3075  -11.9925  -16.9083 N   0  0  0  0  0  0  0  0  0  0  0  0
   23.7992  -10.0846  -16.7270 C   0  0  0  0  0  0  0  0  0  0  0  0
   23.6493   -9.4840  -17.8083 O   0  0  0  0  0  0  0  0  0  0  0  0
   22.9581   -9.7257  -15.6418 N   0  0  0  0  0  0  0  0  0  0  0  0
   21.7733   -8.9006  -15.7426 C   0  0  1  0  0  0  0  0  0  0  0  0
   20.5576   -9.4491  -15.1445 C   0  0  0  0  0  0  0  0  0  0  0  0
   20.0403  -10.7053  -15.7296 C   0  0  0  0  0  0  0  0  0  0  0  0
   19.4183  -10.9727  -16.9051 C   0  0  0  0  0  0  0  0  0  0  0  0
   19.1421  -12.2818  -16.9431 N   0  0  0  0  0  0  0  0  0  0  0  0
   19.5778  -12.8576  -15.8092 C   0  0  0  0  0  0  0  0  0  0  0  0
   20.1220  -11.9069  -15.0719 N   0  0  0  0  0  0  0  0  0  0  0  0
   22.1393   -7.5400  -15.3043 C   0  0  0  0  0  0  0  0  0  0  0  0
   22.6998   -7.4139  -14.1935 O   0  0  0  0  0  0  0  0  0  0  0  0
   22.1219   -4.0053  -16.7100 C   0  0  0  0  0  0  0  0  0  0  0  0
   22.3526   -5.0638  -15.6828 C   0  0  2  0  0  0  0  0  0  0  0  0
   21.9002   -6.3664  -16.0536 N   0  0  0  0  0  0  0  0  0  0  0  0
   21.7300   -4.5933  -14.4010 C   0  0  0  0  0  0  0  0  0  0  0  0
   22.2906   -3.5140  -13.7555 O   0  0  0  0  0  0  0  0  0  0  0  0
   20.7210   -5.1878  -13.9482 O   0  0  0  0  0  0  0  0  0  0  0  0
  2  1  1  6
  2  3  1  0
  4  8  1  0
  4  3  1  0
  5  4  2  0
  6  5  1  0
  6  7  1  0
  7  8  2  0
  9  2  1  0
  9 10  2  0
 11  9  1  0
 12 11  1  0
 13 14  1  0
 12 13  1  1
 14 18  1  0
 15 14  2  0
 15 16  1  0
 16 17  1  0
 18 17  2  0
 19 12  1  0
 20 19  2  0
 22 23  1  0
 22 21  1  6
 23 19  1  0
 24 22  1  0
 25 24  1  0
 26 24  2  0
M  END
$$$$
