HHA.pdb
     RDKit          3D

 26 27  0  0  1  0  0  0  0  0999 V2000
   23.0634  -21.8113  -15.5872 N   0  0  0  0  0  0  0  0  0  0  0  0
   23.8066  -20.7891  -16.2938 C   0  0  1  0  0  0  0  0  0  0  0  0
   22.9470  -20.3006  -17.4250 C   0  0  0  0  0  0  0  0  0  0  0  0
   22.7419  -21.4473  -18.3529 C   0  0  0  0  0  0  0  0  0  0  0  0
   23.7008  -22.0364  -19.1771 C   0  0  0  0  0  0  0  0  0  0  0  0
   23.0921  -23.0393  -19.8484 N   0  0  0  0  0  0  0  0  0  0  0  0
   21.8120  -23.1072  -19.4894 C   0  0  0  0  0  0  0  0  0  0  0  0
   21.6149  -22.1453  -18.5904 N   0  0  0  0  0  0  0  0  0  0  0  0
   24.2104  -19.6915  -15.3743 C   0  0  0  0  0  0  0  0  0  0  0  0
   23.4241  -19.3221  -14.4812 O   0  0  0  0  0  0  0  0  0  0  0  0
   25.4666  -19.0382  -15.4700 N   0  0  0  0  0  0  0  0  0  0  0  0
   26.0065  -18.1216  -14.4888 C   0  0  1  0  0  0  0  0  0  0  0  0
   26.9694  -18.6868  -13.5455 C   0  0  0  0  0  0  0  0  0  0  0  0
   26.4711  -19.7533  -12.6498 C   0  0  0  0  0  0  0  0  0  0  0  0
   25.9081  -19.7159  -11.4162 C   0  0  0  0  0  0  0  0  0  0  0  0
   25.6469  -20.9730  -11.0381 N   0  0  0  0  0  0  0  0  0  0  0  0
   26.0343  -21.8158  -12.0110 C   0  0  0  0  0  0  0  0  0  0  0  0
   26.5338  -21.0817  -12.9883 N   0  0  0  0  0  0  0  0  0  0  0  0
   26.4548  -16.9131  -15.2072 C   0  0  0  0  0  0  0  0  0  0  0  0
   27.0953  -17.0680  -16.2700 O   0  0  0  0  0  0  0  0  0  0  0  0
   28.0086  -14.3982  -15.9612 C   0  0  0  0  0  0  0  0  0  0  0  0
   26.5873  -14.4203  -15.5049 C   0  0  2  0  0  0  0  0  0  0  0  0
   26.2104  -15.5897  -14.7773 N   0  0  0  0  0  0  0  0  0  0  0  0
   25.7217  -14.2021  -16.7111 C   0  0  0  0  0  0  0  0  0  0  0  0
   24.7396  -15.1257  -16.9910 O   0  0  0  0  0  0  0  0  0  0  0  0
   25.9091  -13.1920  -17.4330 O   0  0  0  0  0  0  0  0  0  0  0  0
  2  1  1  1
  2  3  1  0
  4  8  1  0
  4  3  1  0
  5  4  2  0
  6  5  1  0
  6  7  1  0
  7  8  2  0
  9  2  1  0
  9 10  2  0
 11  9  1  0
 12 11  1  0
 13 14  1  0
 12 13  1  6
 14 18  1  0
 15 14  2  0
 15 16  1  0
 16 17  1  0
 18 17  2  0
 19 12  1  0
 20 19  2  0
 22 23  1  0
 22 21  1  6
 23 19  1  0
 24 22  1  0
 25 24  1  0
 26 24  2  0
M  END
$$$$
