HHA.pdb
     RDKit          3D

 26 27  0  0  1  0  0  0  0  0999 V2000
   19.2142  -12.8674  -17.1486 N   0  0  0  0  0  0  0  0  0  0  0  0
   18.9660  -11.4418  -17.0980 C   0  0  1  0  0  0  0  0  0  0  0  0
   17.6808  -11.2292  -16.3493 C   0  0  0  0  0  0  0  0  0  0  0  0
   17.1440  -12.5737  -15.9999 C   0  0  0  0  0  0  0  0  0  0  0  0
   17.5443  -13.3821  -14.9359 C   0  0  0  0  0  0  0  0  0  0  0  0
   16.8020  -14.5105  -14.9873 N   0  0  0  0  0  0  0  0  0  0  0  0
   15.9648  -14.4501  -16.0204 C   0  0  0  0  0  0  0  0  0  0  0  0
   16.1806  -13.2814  -16.6203 N   0  0  0  0  0  0  0  0  0  0  0  0
   20.1100  -10.7229  -16.4752 C   0  0  0  0  0  0  0  0  0  0  0  0
   20.6642  -11.2099  -15.4712 O   0  0  0  0  0  0  0  0  0  0  0  0
   20.6043   -9.4921  -16.9796 N   0  0  0  0  0  0  0  0  0  0  0  0
   21.7573   -8.7836  -16.4665 C   0  0  1  0  0  0  0  0  0  0  0  0
   22.8983   -8.6745  -17.3735 C   0  0  0  0  0  0  0  0  0  0  0  0
   23.5669   -9.9387  -17.7518 C   0  0  0  0  0  0  0  0  0  0  0  0
   23.4010  -11.2171  -17.3296 C   0  0  0  0  0  0  0  0  0  0  0  0
   24.2745  -11.9902  -17.9859 N   0  0  0  0  0  0  0  0  0  0  0  0
   24.9982  -11.2263  -18.8223 C   0  0  0  0  0  0  0  0  0  0  0  0
   24.5731   -9.9838  -18.6837 N   0  0  0  0  0  0  0  0  0  0  0  0
   21.2790   -7.5119  -15.8908 C   0  0  0  0  0  0  0  0  0  0  0  0
   20.3378   -6.9254  -16.4686 O   0  0  0  0  0  0  0  0  0  0  0  0
   21.8617   -5.3730  -12.8075 C   0  0  0  0  0  0  0  0  0  0  0  0
   21.3597   -5.6699  -14.1817 C   0  0  2  0  0  0  0  0  0  0  0  0
   21.8114   -6.9089  -14.7294 N   0  0  0  0  0  0  0  0  0  0  0  0
   21.7161   -4.5029  -15.0553 C   0  0  0  0  0  0  0  0  0  0  0  0
   21.0560   -3.3103  -14.8603 O   0  0  0  0  0  0  0  0  0  0  0  0
   22.5998   -4.6368  -15.9370 O   0  0  0  0  0  0  0  0  0  0  0  0
  2  1  1  1
  2  3  1  0
  4  8  1  0
  4  3  1  0
  5  4  2  0
  6  5  1  0
  6  7  1  0
  7  8  2  0
  9  2  1  0
  9 10  2  0
 11  9  1  0
 12 11  1  0
 13 14  1  0
 12 13  1  6
 14 18  1  0
 15 14  2  0
 15 16  1  0
 16 17  1  0
 18 17  2  0
 19 12  1  0
 20 19  2  0
 22 23  1  0
 22 21  1  1
 23 19  1  0
 24 22  1  0
 25 24  1  0
 26 24  2  0
M  END
$$$$
