HHA.pdb
     RDKit          3D

 26 27  0  0  1  0  0  0  0  0999 V2000
   23.6482  -14.5391  -19.2655 N   0  0  0  0  0  0  0  0  0  0  0  0
   24.2423  -13.3101  -18.7827 C   0  0  1  0  0  0  0  0  0  0  0  0
   25.4910  -13.0633  -19.5810 C   0  0  0  0  0  0  0  0  0  0  0  0
   26.3922  -14.2293  -19.3657 C   0  0  0  0  0  0  0  0  0  0  0  0
   26.4658  -15.0284  -18.2248 C   0  0  0  0  0  0  0  0  0  0  0  0
   27.4111  -15.9673  -18.4522 N   0  0  0  0  0  0  0  0  0  0  0  0
   27.9285  -15.7979  -19.6669 C   0  0  0  0  0  0  0  0  0  0  0  0
   27.3076  -14.7504  -20.2049 N   0  0  0  0  0  0  0  0  0  0  0  0
   23.2791  -12.1801  -18.8739 C   0  0  0  0  0  0  0  0  0  0  0  0
   23.1098  -11.6081  -19.9678 O   0  0  0  0  0  0  0  0  0  0  0  0
   22.5351  -11.7186  -17.7570 N   0  0  0  0  0  0  0  0  0  0  0  0
   21.5303  -10.6778  -17.7970 C   0  0  1  0  0  0  0  0  0  0  0  0
   20.1399  -11.1282  -17.7790 C   0  0  0  0  0  0  0  0  0  0  0  0
   19.6900  -11.9344  -18.9348 C   0  0  0  0  0  0  0  0  0  0  0  0
   19.3433  -11.5942  -20.2013 C   0  0  0  0  0  0  0  0  0  0  0  0
   18.9958  -12.7103  -20.8532 N   0  0  0  0  0  0  0  0  0  0  0  0
   19.1145  -13.7610  -20.0233 C   0  0  0  0  0  0  0  0  0  0  0  0
   19.5343  -13.2958  -18.8609 N   0  0  0  0  0  0  0  0  0  0  0  0
   21.8868   -9.6748  -16.7751 C   0  0  0  0  0  0  0  0  0  0  0  0
   22.2254  -10.0867  -15.6440 O   0  0  0  0  0  0  0  0  0  0  0  0
   22.2077   -5.8945  -16.4733 C   0  0  0  0  0  0  0  0  0  0  0  0
   22.1894   -7.3063  -15.9882 C   0  0  2  0  0  0  0  0  0  0  0  0
   21.8723   -8.2778  -16.9855 N   0  0  0  0  0  0  0  0  0  0  0  0
   21.2511   -7.3704  -14.8188 C   0  0  0  0  0  0  0  0  0  0  0  0
   21.6199   -6.7510  -13.6457 O   0  0  0  0  0  0  0  0  0  0  0  0
   20.1603   -7.9815  -14.9332 O   0  0  0  0  0  0  0  0  0  0  0  0
  2  1  1  6
  2  3  1  0
  4  8  1  0
  4  3  1  0
  5  4  2  0
  6  5  1  0
  6  7  1  0
  7  8  2  0
  9  2  1  0
  9 10  2  0
 11  9  1  0
 12 11  1  0
 13 14  1  0
 12 13  1  1
 14 18  1  0
 15 14  2  0
 15 16  1  0
 16 17  1  0
 18 17  2  0
 19 12  1  0
 20 19  2  0
 22 23  1  0
 22 21  1  6
 23 19  1  0
 24 22  1  0
 25 24  1  0
 26 24  2  0
M  END
$$$$
