HHA.pdb
     RDKit          3D

 26 27  0  0  1  0  0  0  0  0999 V2000
   22.6770  -31.7258    6.2244 N   0  0  0  0  0  0  0  0  0  0  0  0
   23.8473  -31.2164    5.5407 C   0  0  1  0  0  0  0  0  0  0  0  0
   24.1956  -29.8920    6.1587 C   0  0  0  0  0  0  0  0  0  0  0  0
   23.1095  -28.9373    5.8024 C   0  0  0  0  0  0  0  0  0  0  0  0
   22.6679  -28.6161    4.5188 C   0  0  0  0  0  0  0  0  0  0  0  0
   21.6710  -27.7130    4.6512 N   0  0  0  0  0  0  0  0  0  0  0  0
   21.4681  -27.4548    5.9412 C   0  0  0  0  0  0  0  0  0  0  0  0
   22.3388  -28.1969    6.6218 N   0  0  0  0  0  0  0  0  0  0  0  0
   24.9717  -32.1879    5.6117 C   0  0  0  0  0  0  0  0  0  0  0  0
   25.2527  -32.7187    6.7033 O   0  0  0  0  0  0  0  0  0  0  0  0
   25.7483  -32.5415    4.4777 N   0  0  0  0  0  0  0  0  0  0  0  0
   26.7894  -33.5467    4.4608 C   0  0  1  0  0  0  0  0  0  0  0  0
   26.7759  -34.4641    3.3230 C   0  0  0  0  0  0  0  0  0  0  0  0
   25.7566  -35.5358    3.3485 C   0  0  0  0  0  0  0  0  0  0  0  0
   25.0425  -36.0880    4.3609 C   0  0  0  0  0  0  0  0  0  0  0  0
   24.2565  -37.0413    3.8461 N   0  0  0  0  0  0  0  0  0  0  0  0
   24.4565  -37.1085    2.5186 C   0  0  0  0  0  0  0  0  0  0  0  0
   25.3637  -36.1990    2.2132 N   0  0  0  0  0  0  0  0  0  0  0  0
   28.0730  -32.8630    4.7109 C   0  0  0  0  0  0  0  0  0  0  0  0
   28.3193  -31.8242    4.0597 O   0  0  0  0  0  0  0  0  0  0  0  0
   31.0372  -33.1073    7.0694 C   0  0  0  0  0  0  0  0  0  0  0  0
   30.3105  -32.6701    5.8408 C   0  0  2  0  0  0  0  0  0  0  0  0
   29.0458  -33.3010    5.6370 N   0  0  0  0  0  0  0  0  0  0  0  0
   31.2343  -32.8672    4.6748 C   0  0  0  0  0  0  0  0  0  0  0  0
   32.4226  -32.1719    4.6529 O   0  0  0  0  0  0  0  0  0  0  0  0
   30.9079  -33.6542    3.7525 O   0  0  0  0  0  0  0  0  0  0  0  0
  2  1  1  1
  2  3  1  0
  4  8  1  0
  4  3  1  0
  5  4  2  0
  6  5  1  0
  6  7  1  0
  7  8  2  0
  9  2  1  0
  9 10  2  0
 11  9  1  0
 12 11  1  0
 13 14  1  0
 12 13  1  6
 14 18  1  0
 15 14  2  0
 15 16  1  0
 16 17  1  0
 18 17  2  0
 19 12  1  0
 20 19  2  0
 22 23  1  0
 22 21  1  1
 23 19  1  0
 24 22  1  0
 25 24  1  0
 26 24  2  0
M  END
$$$$
