HHA.pdb
     RDKit          3D

 26 27  0  0  1  0  0  0  0  0999 V2000
   40.1417  -10.3279   -7.3123 N   0  0  0  0  0  0  0  0  0  0  0  0
   41.1329  -10.0988   -8.3426 C   0  0  1  0  0  0  0  0  0  0  0  0
   42.4837  -10.1042   -7.6848 C   0  0  0  0  0  0  0  0  0  0  0  0
   42.7964   -8.6988   -7.3036 C   0  0  0  0  0  0  0  0  0  0  0  0
   41.9627   -7.5896   -7.4463 C   0  0  0  0  0  0  0  0  0  0  0  0
   42.6375   -6.5168   -6.9765 N   0  0  0  0  0  0  0  0  0  0  0  0
   43.8407   -6.8950   -6.5507 C   0  0  0  0  0  0  0  0  0  0  0  0
   43.9233   -8.2082   -6.7530 N   0  0  0  0  0  0  0  0  0  0  0  0
   41.0248  -11.1164   -9.4225 C   0  0  0  0  0  0  0  0  0  0  0  0
   40.8152  -12.3071   -9.1215 O   0  0  0  0  0  0  0  0  0  0  0  0
   41.1512  -10.7876  -10.7972 N   0  0  0  0  0  0  0  0  0  0  0  0
   41.0561  -11.7294  -11.8919 C   0  0  1  0  0  0  0  0  0  0  0  0
   40.0237  -11.4514  -12.8886 C   0  0  0  0  0  0  0  0  0  0  0  0
   39.9816  -12.3460  -14.0658 C   0  0  0  0  0  0  0  0  0  0  0  0
   40.6892  -13.4571  -14.3896 C   0  0  0  0  0  0  0  0  0  0  0  0
   40.2681  -13.8866  -15.5854 N   0  0  0  0  0  0  0  0  0  0  0  0
   39.3012  -13.0671  -16.0329 C   0  0  0  0  0  0  0  0  0  0  0  0
   39.1247  -12.1332  -15.1162 N   0  0  0  0  0  0  0  0  0  0  0  0
   42.4170  -11.9313  -12.4256 C   0  0  0  0  0  0  0  0  0  0  0  0
   43.0568  -10.9219  -12.7938 O   0  0  0  0  0  0  0  0  0  0  0  0
   44.8463  -14.7979  -13.0356 C   0  0  0  0  0  0  0  0  0  0  0  0
   44.3742  -13.3817  -13.0468 C   0  0  2  0  0  0  0  0  0  0  0  0
   43.0494  -13.1884  -12.5501 N   0  0  0  0  0  0  0  0  0  0  0  0
   44.5342  -12.8628  -14.4458 C   0  0  0  0  0  0  0  0  0  0  0  0
   43.6869  -13.3354  -15.4229 O   0  0  0  0  0  0  0  0  0  0  0  0
   45.4283  -12.0169  -14.6938 O   0  0  0  0  0  0  0  0  0  0  0  0
  2  1  1  1
  2  3  1  0
  4  8  1  0
  4  3  1  0
  5  4  2  0
  6  5  1  0
  6  7  1  0
  7  8  2  0
  9  2  1  0
  9 10  2  0
 11  9  1  0
 12 11  1  0
 13 14  1  0
 12 13  1  6
 14 18  1  0
 15 14  2  0
 15 16  1  0
 16 17  1  0
 18 17  2  0
 19 12  1  0
 20 19  2  0
 22 23  1  0
 22 21  1  6
 23 19  1  0
 24 22  1  0
 25 24  1  0
 26 24  2  0
M  END
$$$$
