MCD.pdb
     RDKit          3D

 23 22  0  0  1  0  0  0  0  0999 V2000
   10.2016  -12.6085   -9.7959 C   0  0  0  0  0  0  0  0  0  0  0  0
   10.9621  -11.1781  -10.5933 S   0  0  0  0  0  0  0  0  0  0  0  0
   12.7670  -11.2583  -10.5132 C   0  0  0  0  0  0  0  0  0  0  0  0
   13.4102  -10.0743  -11.1801 C   0  0  0  0  0  0  0  0  0  0  0  0
   14.9174  -10.2210  -11.2458 C   0  0  2  0  0  0  0  0  0  0  0  0
   15.3434  -10.8218  -10.0081 N   0  0  0  0  0  0  0  0  0  0  0  0
   15.5765   -8.9053  -11.4729 C   0  0  0  0  0  0  0  0  0  0  0  0
   15.5034   -8.2917  -12.5770 O   0  0  0  0  0  0  0  0  0  0  0  0
   16.3301   -8.2590  -10.4568 N   0  0  0  0  0  0  0  0  0  0  0  0
   16.8900   -6.9444  -10.6267 C   0  0  1  0  0  0  0  0  0  0  0  0
   16.7596   -6.0843   -9.3977 C   0  0  0  0  0  0  0  0  0  0  0  0
   15.8031   -6.9124   -8.0981 S   0  0  0  0  0  0  0  0  0  0  0  0
   18.3255   -6.9869  -11.0021 C   0  0  0  0  0  0  0  0  0  0  0  0
   19.1305   -7.7051  -10.3567 O   0  0  0  0  0  0  0  0  0  0  0  0
   18.8510   -6.2304  -12.0912 N   0  0  0  0  0  0  0  0  0  0  0  0
   20.2265   -6.3891  -12.5427 C   0  0  1  0  0  0  0  0  0  0  0  0
   20.3009   -7.4569  -13.6067 C   0  0  0  0  0  0  0  0  0  0  0  0
   21.6362   -7.6080  -14.2113 C   0  0  0  0  0  0  0  0  0  0  0  0
   22.4490   -6.6639  -14.1741 O   0  0  0  0  0  0  0  0  0  0  0  0
   20.6605   -5.0962  -13.1297 C   0  0  0  0  0  0  0  0  0  0  0  0
   19.7124   -4.1972  -13.5675 O   0  0  0  0  0  0  0  0  0  0  0  0
   21.9787   -8.7927  -14.8147 O   0  0  0  0  0  0  0  0  0  0  0  0
   21.8693   -4.8032  -13.2365 O   0  0  0  0  0  0  0  0  0  0  0  0
  2  1  1  0
  3  2  1  0
  4  3  1  0
  5  4  1  0
  5  6  1  1
  7  5  1  0
  7  8  2  0
  9  7  1  0
 10 13  1  0
 10  9  1  0
 10 11  1  1
 12 11  1  0
 13 15  1  0
 14 13  2  0
 15 16  1  0
 16 20  1  0
 17 18  1  0
 16 17  1  6
 18 19  2  0
 20 23  2  0
 20 21  1  0
 22 18  1  0
M  END
$$$$
