MCD.pdb
     RDKit          3D

 23 22  0  0  1  0  0  0  0  0999 V2000
   30.2348  -17.6710  -17.8873 C   0  0  0  0  0  0  0  0  0  0  0  0
   29.5995  -18.4372  -16.3809 S   0  0  0  0  0  0  0  0  0  0  0  0
   28.9241  -20.0823  -16.7099 C   0  0  0  0  0  0  0  0  0  0  0  0
   28.3139  -20.6933  -15.4791 C   0  0  0  0  0  0  0  0  0  0  0  0
   27.0506  -19.9666  -15.0626 C   0  0  2  0  0  0  0  0  0  0  0  0
   27.4521  -18.7249  -14.4533 N   0  0  0  0  0  0  0  0  0  0  0  0
   26.2348  -20.7957  -14.1331 C   0  0  0  0  0  0  0  0  0  0  0  0
   25.8734  -21.9749  -14.4157 O   0  0  0  0  0  0  0  0  0  0  0  0
   25.8123  -20.3077  -12.8676 N   0  0  0  0  0  0  0  0  0  0  0  0
   24.8124  -20.9741  -12.0760 C   0  0  1  0  0  0  0  0  0  0  0  0
   24.9391  -20.6884  -10.6030 C   0  0  0  0  0  0  0  0  0  0  0  0
   26.6123  -21.0344   -9.9944 S   0  0  0  0  0  0  0  0  0  0  0  0
   23.4331  -20.6165  -12.4919 C   0  0  0  0  0  0  0  0  0  0  0  0
   23.0607  -19.4157  -12.4936 O   0  0  0  0  0  0  0  0  0  0  0  0
   22.4823  -21.5976  -12.9016 N   0  0  0  0  0  0  0  0  0  0  0  0
   21.1303  -21.2349  -13.3037 C   0  0  1  0  0  0  0  0  0  0  0  0
   20.5953  -22.2464  -14.2879 C   0  0  0  0  0  0  0  0  0  0  0  0
   19.2254  -21.9644  -14.7516 C   0  0  0  0  0  0  0  0  0  0  0  0
   18.6910  -20.8691  -14.4911 O   0  0  0  0  0  0  0  0  0  0  0  0
   20.2783  -21.2518  -12.0879 C   0  0  0  0  0  0  0  0  0  0  0  0
   19.4406  -20.1882  -11.8313 O   0  0  0  0  0  0  0  0  0  0  0  0
   18.5427  -22.9138  -15.4711 O   0  0  0  0  0  0  0  0  0  0  0  0
   20.3030  -22.2109  -11.2893 O   0  0  0  0  0  0  0  0  0  0  0  0
  2  1  1  0
  3  2  1  0
  4  3  1  0
  5  4  1  0
  5  6  1  1
  7  5  1  0
  7  8  2  0
  9  7  1  0
 10 13  1  0
 10  9  1  0
 10 11  1  1
 12 11  1  0
 13 15  1  0
 14 13  2  0
 15 16  1  0
 16 20  1  0
 17 18  1  0
 16 17  1  6
 18 19  2  0
 20 23  2  0
 20 21  1  0
 22 18  1  0
M  END
$$$$
