MCD.pdb
     RDKit          3D

 23 22  0  0  1  0  0  0  0  0999 V2000
   19.7743  -17.1259  -20.7720 C   0  0  0  0  0  0  0  0  0  0  0  0
   19.3207  -15.3817  -20.6620 S   0  0  0  0  0  0  0  0  0  0  0  0
   20.3950  -14.4902  -19.5123 C   0  0  0  0  0  0  0  0  0  0  0  0
   20.0254  -13.0362  -19.4138 C   0  0  0  0  0  0  0  0  0  0  0  0
   20.9319  -12.2936  -18.4523 C   0  0  2  0  0  0  0  0  0  0  0  0
   21.3555  -13.2360  -17.4488 N   0  0  0  0  0  0  0  0  0  0  0  0
   20.2337  -11.1253  -17.8486 C   0  0  0  0  0  0  0  0  0  0  0  0
   19.9107  -10.1051  -18.5237 O   0  0  0  0  0  0  0  0  0  0  0  0
   19.8878  -11.0883  -16.4711 N   0  0  0  0  0  0  0  0  0  0  0  0
   19.2015   -9.9726  -15.8756 C   0  0  1  0  0  0  0  0  0  0  0  0
   18.2011  -10.3860  -14.8289 C   0  0  0  0  0  0  0  0  0  0  0  0
   16.9235  -11.4751  -15.5154 S   0  0  0  0  0  0  0  0  0  0  0  0
   20.1365   -9.0021  -15.2533 C   0  0  0  0  0  0  0  0  0  0  0  0
   21.0198   -9.3956  -14.4499 O   0  0  0  0  0  0  0  0  0  0  0  0
   20.0797   -7.6041  -15.5309 N   0  0  0  0  0  0  0  0  0  0  0  0
   21.0077   -6.6623  -14.9202 C   0  0  1  0  0  0  0  0  0  0  0  0
   21.4840   -5.6659  -15.9490 C   0  0  0  0  0  0  0  0  0  0  0  0
   22.3757   -4.6255  -15.4071 C   0  0  0  0  0  0  0  0  0  0  0  0
   23.0699   -4.8609  -14.3992 O   0  0  0  0  0  0  0  0  0  0  0  0
   20.2756   -5.9359  -13.8521 C   0  0  0  0  0  0  0  0  0  0  0  0
   18.9349   -6.1875  -13.6566 O   0  0  0  0  0  0  0  0  0  0  0  0
   22.4370   -3.3975  -16.0182 O   0  0  0  0  0  0  0  0  0  0  0  0
   20.8483   -5.0992  -13.1241 O   0  0  0  0  0  0  0  0  0  0  0  0
  2  1  1  0
  3  2  1  0
  4  3  1  0
  5  4  1  0
  5  6  1  1
  7  5  1  0
  7  8  2  0
  9  7  1  0
 10 13  1  0
 10  9  1  0
 10 11  1  1
 12 11  1  0
 13 15  1  0
 14 13  2  0
 15 16  1  0
 16 20  1  0
 17 18  1  0
 16 17  1  6
 18 19  2  0
 20 23  2  0
 20 21  1  0
 22 18  1  0
M  END
$$$$
