MCD.pdb
     RDKit          3D

 23 22  0  0  1  0  0  0  0  0999 V2000
    9.6715  -14.6344  -12.2822 C   0  0  0  0  0  0  0  0  0  0  0  0
   11.1068  -13.7521  -11.6329 S   0  0  0  0  0  0  0  0  0  0  0  0
   12.4652  -13.7300  -12.8267 C   0  0  0  0  0  0  0  0  0  0  0  0
   13.6325  -12.9221  -12.3316 C   0  0  0  0  0  0  0  0  0  0  0  0
   14.7833  -12.9414  -13.3180 C   0  0  2  0  0  0  0  0  0  0  0  0
   15.3730  -14.2542  -13.2622 N   0  0  0  0  0  0  0  0  0  0  0  0
   15.7781  -11.8788  -13.0046 C   0  0  0  0  0  0  0  0  0  0  0  0
   16.6881  -12.0356  -12.1397 O   0  0  0  0  0  0  0  0  0  0  0  0
   15.7628  -10.6199  -13.6627 N   0  0  0  0  0  0  0  0  0  0  0  0
   16.7374   -9.5955  -13.3955 C   0  0  1  0  0  0  0  0  0  0  0  0
   17.3149   -8.9899  -14.6473 C   0  0  0  0  0  0  0  0  0  0  0  0
   18.5184   -7.6869  -14.2682 S   0  0  0  0  0  0  0  0  0  0  0  0
   16.1848   -8.4928  -12.5696 C   0  0  0  0  0  0  0  0  0  0  0  0
   15.1288   -7.9057  -12.9172 O   0  0  0  0  0  0  0  0  0  0  0  0
   16.8119   -8.0544  -11.3659 N   0  0  0  0  0  0  0  0  0  0  0  0
   16.2862   -6.9407  -10.5884 C   0  0  1  0  0  0  0  0  0  0  0  0
   16.7102   -7.0723   -9.1459 C   0  0  0  0  0  0  0  0  0  0  0  0
   16.1989   -6.0022   -8.2713 C   0  0  0  0  0  0  0  0  0  0  0  0
   15.3962   -5.1603   -8.7186 O   0  0  0  0  0  0  0  0  0  0  0  0
   16.8617   -5.6905  -11.1452 C   0  0  0  0  0  0  0  0  0  0  0  0
   17.9286   -5.7626  -12.0143 O   0  0  0  0  0  0  0  0  0  0  0  0
   16.6116   -5.9383   -6.9634 O   0  0  0  0  0  0  0  0  0  0  0  0
   16.3999   -4.5707  -10.8432 O   0  0  0  0  0  0  0  0  0  0  0  0
  2  1  1  0
  3  2  1  0
  4  3  1  0
  5  4  1  0
  5  6  1  1
  7  5  1  0
  7  8  2  0
  9  7  1  0
 10 13  1  0
 10  9  1  0
 10 11  1  6
 12 11  1  0
 13 15  1  0
 14 13  2  0
 15 16  1  0
 16 20  1  0
 17 18  1  0
 16 17  1  1
 18 19  2  0
 20 23  2  0
 20 21  1  0
 22 18  1  0
M  END
$$$$
