MCD.pdb
     RDKit          3D

 23 22  0  0  1  0  0  0  0  0999 V2000
   21.1387  -16.0896  -18.2042 C   0  0  0  0  0  0  0  0  0  0  0  0
   19.3628  -16.2750  -17.9360 S   0  0  0  0  0  0  0  0  0  0  0  0
   18.7323  -15.0224  -16.7940 C   0  0  0  0  0  0  0  0  0  0  0  0
   19.2540  -13.6513  -17.1231 C   0  0  0  0  0  0  0  0  0  0  0  0
   18.9060  -12.6472  -16.0423 C   0  0  2  0  0  0  0  0  0  0  0  0
   17.5611  -12.9304  -15.6117 N   0  0  0  0  0  0  0  0  0  0  0  0
   19.0399  -11.2510  -16.5421 C   0  0  0  0  0  0  0  0  0  0  0  0
   20.1033  -10.8208  -17.0760 O   0  0  0  0  0  0  0  0  0  0  0  0
   17.9749  -10.3155  -16.4478 N   0  0  0  0  0  0  0  0  0  0  0  0
   18.0777   -8.9727  -16.9545 C   0  0  1  0  0  0  0  0  0  0  0  0
   16.7697   -8.4358  -17.4722 C   0  0  0  0  0  0  0  0  0  0  0  0
   16.0465   -9.5273  -18.7274 S   0  0  0  0  0  0  0  0  0  0  0  0
   18.5879   -8.0224  -15.9346 C   0  0  0  0  0  0  0  0  0  0  0  0
   18.1858   -8.0897  -14.7454 O   0  0  0  0  0  0  0  0  0  0  0  0
   19.5399   -7.0074  -16.2476 N   0  0  0  0  0  0  0  0  0  0  0  0
   20.0679   -6.1103  -15.2290 C   0  0  1  0  0  0  0  0  0  0  0  0
   21.5723   -6.0425  -15.3302 C   0  0  0  0  0  0  0  0  0  0  0  0
   22.1937   -5.0935  -14.3897 C   0  0  0  0  0  0  0  0  0  0  0  0
   21.4985   -4.5255  -13.5251 O   0  0  0  0  0  0  0  0  0  0  0  0
   19.5088   -4.7588  -15.4844 C   0  0  0  0  0  0  0  0  0  0  0  0
   18.7997   -4.5255  -16.6428 O   0  0  0  0  0  0  0  0  0  0  0  0
   23.5404   -4.8393  -14.4714 O   0  0  0  0  0  0  0  0  0  0  0  0
   19.6665   -3.8250  -14.6712 O   0  0  0  0  0  0  0  0  0  0  0  0
  2  1  1  0
  3  2  1  0
  4  3  1  0
  5  4  1  0
  5  6  1  6
  7  5  1  0
  7  8  2  0
  9  7  1  0
 10 13  1  0
 10  9  1  0
 10 11  1  1
 12 11  1  0
 13 15  1  0
 14 13  2  0
 15 16  1  0
 16 20  1  0
 17 18  1  0
 16 17  1  6
 18 19  2  0
 20 23  2  0
 20 21  1  0
 22 18  1  0
M  END
$$$$
