MCD.pdb
     RDKit          3D

 23 22  0  0  1  0  0  0  0  0999 V2000
   26.2554  -19.7916   -2.7086 C   0  0  0  0  0  0  0  0  0  0  0  0
   27.7217  -20.6476   -3.3230 S   0  0  0  0  0  0  0  0  0  0  0  0
   28.3545  -19.8760   -4.8312 C   0  0  0  0  0  0  0  0  0  0  0  0
   27.4459  -20.1135   -6.0053 C   0  0  0  0  0  0  0  0  0  0  0  0
   27.9874  -19.4746   -7.2686 C   0  0  2  0  0  0  0  0  0  0  0  0
   28.1002  -18.0606   -7.0189 N   0  0  0  0  0  0  0  0  0  0  0  0
   27.1060  -19.7577   -8.4348 C   0  0  0  0  0  0  0  0  0  0  0  0
   26.0472  -19.1025   -8.6596 O   0  0  0  0  0  0  0  0  0  0  0  0
   27.4048  -20.7861   -9.3683 N   0  0  0  0  0  0  0  0  0  0  0  0
   27.0219  -20.7090  -10.7532 C   0  0  1  0  0  0  0  0  0  0  0  0
   27.9780  -21.4245  -11.6703 C   0  0  0  0  0  0  0  0  0  0  0  0
   29.6133  -20.6400  -11.6784 S   0  0  0  0  0  0  0  0  0  0  0  0
   25.6637  -21.2574  -10.9942 C   0  0  0  0  0  0  0  0  0  0  0  0
   25.3252  -22.3601  -10.4942 O   0  0  0  0  0  0  0  0  0  0  0  0
   24.6960  -20.5739  -11.7886 N   0  0  0  0  0  0  0  0  0  0  0  0
   23.3205  -21.0412  -11.8927 C   0  0  1  0  0  0  0  0  0  0  0  0
   22.3860  -19.8659  -12.0455 C   0  0  0  0  0  0  0  0  0  0  0  0
   20.9660  -20.2412  -12.1642 C   0  0  0  0  0  0  0  0  0  0  0  0
   20.6295  -21.4397  -12.1018 O   0  0  0  0  0  0  0  0  0  0  0  0
   23.2237  -21.8917  -13.1058 C   0  0  0  0  0  0  0  0  0  0  0  0
   22.3241  -22.9352  -13.1331 O   0  0  0  0  0  0  0  0  0  0  0  0
   20.0178  -19.2646  -12.3435 O   0  0  0  0  0  0  0  0  0  0  0  0
   23.9410  -21.6829  -14.1059 O   0  0  0  0  0  0  0  0  0  0  0  0
  2  1  1  0
  3  2  1  0
  4  3  1  0
  5  4  1  0
  5  6  1  1
  7  5  1  0
  7  8  2  0
  9  7  1  0
 10 13  1  0
 10  9  1  0
 10 11  1  6
 12 11  1  0
 13 15  1  0
 14 13  2  0
 15 16  1  0
 16 20  1  0
 17 18  1  0
 16 17  1  6
 18 19  2  0
 20 23  2  0
 20 21  1  0
 22 18  1  0
M  END
$$$$
