WAR.pdb
     RDKit          3D

 31 32  0  0  1  0  0  0  0  0999 V2000
   26.4259  -20.9901   -9.8799 N   0  0  0  0  0  0  0  0  0  0  0  0
   25.4852  -21.0243   -8.7501 C   0  0  1  0  0  0  0  0  0  0  0  0
   25.6154  -19.7862   -7.9364 C   0  0  0  0  0  0  0  0  0  0  0  0
   26.9430  -19.4865   -7.4003 C   0  0  0  0  0  0  0  0  0  0  0  0
   27.9842  -18.7880   -7.9993 C   0  0  0  0  0  0  0  0  0  0  0  0
   29.0230  -18.7415   -7.1759 N   0  0  0  0  0  0  0  0  0  0  0  0
   28.7256  -19.3780   -6.0492 C   0  0  0  0  0  0  0  0  0  0  0  0
   29.4414  -19.5985   -4.8927 C   0  0  0  0  0  0  0  0  0  0  0  0
   28.8932  -20.2932   -3.8254 C   0  0  0  0  0  0  0  0  0  0  0  0
   27.6051  -20.7724   -3.9263 C   0  0  0  0  0  0  0  0  0  0  0  0
   26.8993  -20.5445   -5.0910 C   0  0  0  0  0  0  0  0  0  0  0  0
   27.4390  -19.8552   -6.1535 C   0  0  0  0  0  0  0  0  0  0  0  0
   24.1669  -21.3145   -9.3170 C   0  0  0  0  0  0  0  0  0  0  0  0
   23.9226  -21.1772  -10.5594 O   0  0  0  0  0  0  0  0  0  0  0  0
   21.0206  -22.7506   -7.9043 C   0  0  0  0  0  0  0  0  0  0  0  0
   21.9042  -22.3003   -9.0883 C   0  0  2  0  0  0  0  0  0  0  0  0
   23.1220  -21.7676   -8.4862 N   0  0  0  0  0  0  0  0  0  0  0  0
   21.1704  -21.2073   -9.7381 C   0  0  0  0  0  0  0  0  0  0  0  0
   21.0790  -20.0469   -9.2763 O   0  0  0  0  0  0  0  0  0  0  0  0
   23.7414  -20.6433  -13.0700 N   0  0  0  0  0  0  0  0  0  0  0  0
   23.6422  -19.9496  -14.3047 C   0  0  0  0  0  0  0  0  0  0  0  0
   24.6273  -20.0138  -15.1295 N   0  0  0  0  0  0  0  0  0  0  0  0
   22.5070  -19.1889  -14.6710 N   0  0  0  0  0  0  0  0  0  0  0  0
   21.2530  -19.2227  -13.9560 C   0  0  0  0  0  0  0  0  0  0  0  0
   20.7879  -20.6411  -13.7350 C   0  0  0  0  0  0  0  0  0  0  0  0
   19.4846  -20.6362  -13.0334 C   0  0  0  0  0  0  0  0  0  0  0  0
   19.5860  -20.4737  -11.5377 C   0  0  2  0  0  0  0  0  0  0  0  0
   20.5050  -21.4401  -10.9749 N   0  0  0  0  0  0  0  0  0  0  0  0
   18.2771  -20.4790  -10.8549 C   0  0  0  0  0  0  0  0  0  0  0  0
   17.4944  -19.3701  -10.6180 O   0  0  0  0  0  0  0  0  0  0  0  0
   17.8261  -21.5878  -10.4491 O   0  0  0  0  0  0  0  0  0  0  0  0
  2  1  1  6
  2 13  1  0
  3  2  1  0
  3  4  1  0
  4 12  1  0
  4  5  2  0
  5  6  1  0
  7  6  1  0
  7  8  2  0
  9  8  1  0
 10  9  2  0
 11 10  1  0
 11 12  2  0
 12  7  1  0
 13 14  2  0
 16 15  1  1
 17 13  1  0
 17 16  1  0
 18 16  1  0
 18 19  2  0
 20 21  1  0
 21 22  2  0
 21 23  1  0
 23 24  1  0
 24 25  1  0
 25 26  1  0
 27 26  1  6
 27 28  1  0
 28 18  1  0
 29 27  1  0
 30 29  1  0
 31 29  2  0
M  END
$$$$
