WAR.pdb
     RDKit          3D

 31 32  0  0  1  0  0  0  0  0999 V2000
   24.8154  -21.4164  -18.0339 N   0  0  0  0  0  0  0  0  0  0  0  0
   24.5038  -20.5971  -16.8532 C   0  0  1  0  0  0  0  0  0  0  0  0
   23.1445  -20.9243  -16.3458 C   0  0  0  0  0  0  0  0  0  0  0  0
   22.0144  -20.3218  -17.0526 C   0  0  0  0  0  0  0  0  0  0  0  0
   21.2924  -20.8276  -18.1266 C   0  0  0  0  0  0  0  0  0  0  0  0
   20.3462  -19.9656  -18.4746 N   0  0  0  0  0  0  0  0  0  0  0  0
   20.4004  -18.9024  -17.6810 C   0  0  0  0  0  0  0  0  0  0  0  0
   19.6426  -17.7533  -17.6181 C   0  0  0  0  0  0  0  0  0  0  0  0
   19.8910  -16.7756  -16.6670 C   0  0  0  0  0  0  0  0  0  0  0  0
   20.9184  -16.9593  -15.7673 C   0  0  0  0  0  0  0  0  0  0  0  0
   21.6700  -18.1152  -15.8418 C   0  0  0  0  0  0  0  0  0  0  0  0
   21.4272  -19.0891  -16.7840 C   0  0  0  0  0  0  0  0  0  0  0  0
   25.6218  -20.7674  -15.9235 C   0  0  0  0  0  0  0  0  0  0  0  0
   26.1787  -21.8979  -15.7392 O   0  0  0  0  0  0  0  0  0  0  0  0
   27.5541  -18.4694  -13.7067 C   0  0  0  0  0  0  0  0  0  0  0  0
   27.0880  -19.8786  -14.1335 C   0  0  2  0  0  0  0  0  0  0  0  0
   26.1206  -19.6623  -15.2043 N   0  0  0  0  0  0  0  0  0  0  0  0
   26.3967  -20.4387  -12.9658 C   0  0  0  0  0  0  0  0  0  0  0  0
   25.1782  -20.2801  -12.7245 O   0  0  0  0  0  0  0  0  0  0  0  0
   31.6212  -22.6205  -11.3973 N   0  0  0  0  0  0  0  0  0  0  0  0
   31.9393  -21.9986  -10.1615 C   0  0  0  0  0  0  0  0  0  0  0  0
   32.9933  -21.2642  -10.0934 N   0  0  0  0  0  0  0  0  0  0  0  0
   31.1486  -22.1495   -8.9980 N   0  0  0  0  0  0  0  0  0  0  0  0
   29.7940  -22.6491   -9.0070 C   0  0  0  0  0  0  0  0  0  0  0  0
   28.8969  -21.7809   -9.8545 C   0  0  0  0  0  0  0  0  0  0  0  0
   27.5436  -22.3766   -9.9224 C   0  0  0  0  0  0  0  0  0  0  0  0
   26.5565  -21.5822  -10.7401 C   0  0  2  0  0  0  0  0  0  0  0  0
   27.1226  -21.2188  -12.0217 N   0  0  0  0  0  0  0  0  0  0  0  0
   25.9983  -20.4193  -10.0221 C   0  0  0  0  0  0  0  0  0  0  0  0
   25.3158  -20.4701   -8.8263 O   0  0  0  0  0  0  0  0  0  0  0  0
   26.1530  -19.2757  -10.5378 O   0  0  0  0  0  0  0  0  0  0  0  0
  2  1  1  6
  2 13  1  0
  3  2  1  0
  3  4  1  0
  4 12  1  0
  4  5  2  0
  5  6  1  0
  7  6  1  0
  7  8  2  0
  9  8  1  0
 10  9  2  0
 11 10  1  0
 11 12  2  0
 12  7  1  0
 13 14  2  0
 16 15  1  1
 17 13  1  0
 17 16  1  0
 18 16  1  0
 18 19  2  0
 20 21  1  0
 21 22  2  0
 21 23  1  0
 23 24  1  0
 24 25  1  0
 25 26  1  0
 27 26  1  1
 27 28  1  0
 28 18  1  0
 29 27  1  0
 30 29  1  0
 31 29  2  0
M  END
$$$$
