WAR.pdb
     RDKit          3D

 31 32  0  0  1  0  0  0  0  0999 V2000
   27.3084  -20.0204  -11.7079 N   0  0  0  0  0  0  0  0  0  0  0  0
   26.3750  -21.1543  -11.6339 C   0  0  1  0  0  0  0  0  0  0  0  0
   26.3834  -21.7373  -10.2656 C   0  0  0  0  0  0  0  0  0  0  0  0
   26.6081  -20.8110   -9.1560 C   0  0  0  0  0  0  0  0  0  0  0  0
   25.7392  -19.8662   -8.6238 C   0  0  0  0  0  0  0  0  0  0  0  0
   26.3322  -19.2267   -7.6244 N   0  0  0  0  0  0  0  0  0  0  0  0
   27.5618  -19.7006   -7.4613 C   0  0  0  0  0  0  0  0  0  0  0  0
   28.5635  -19.3903   -6.5675 C   0  0  0  0  0  0  0  0  0  0  0  0
   29.7811  -20.0530   -6.5887 C   0  0  0  0  0  0  0  0  0  0  0  0
   29.9914  -21.0420   -7.5250 C   0  0  0  0  0  0  0  0  0  0  0  0
   28.9792  -21.3426   -8.4148 C   0  0  0  0  0  0  0  0  0  0  0  0
   27.7683  -20.6877   -8.3976 C   0  0  0  0  0  0  0  0  0  0  0  0
   25.0917  -20.6690  -12.1444 C   0  0  0  0  0  0  0  0  0  0  0  0
   24.5691  -19.5834  -11.7312 O   0  0  0  0  0  0  0  0  0  0  0  0
   23.2352  -20.8702  -15.1498 C   0  0  0  0  0  0  0  0  0  0  0  0
   23.1088  -20.9155  -13.6112 C   0  0  2  0  0  0  0  0  0  0  0  0
   24.3968  -21.4021  -13.1278 N   0  0  0  0  0  0  0  0  0  0  0  0
   22.0769  -21.9203  -13.3270 C   0  0  0  0  0  0  0  0  0  0  0  0
   22.2878  -23.1538  -13.2795 O   0  0  0  0  0  0  0  0  0  0  0  0
   19.6588  -24.4192   -7.9433 N   0  0  0  0  0  0  0  0  0  0  0  0
   18.2453  -24.3135   -7.8648 C   0  0  0  0  0  0  0  0  0  0  0  0
   17.6180  -25.0468   -7.0141 N   0  0  0  0  0  0  0  0  0  0  0  0
   17.4926  -23.4368   -8.6810 N   0  0  0  0  0  0  0  0  0  0  0  0
   18.0813  -22.4556   -9.5616 C   0  0  0  0  0  0  0  0  0  0  0  0
   18.0128  -22.9023  -11.0014 C   0  0  0  0  0  0  0  0  0  0  0  0
   18.6632  -21.8948  -11.8689 C   0  0  0  0  0  0  0  0  0  0  0  0
   19.6812  -22.4639  -12.8248 C   0  0  2  0  0  0  0  0  0  0  0  0
   20.7363  -21.5075  -13.0843 N   0  0  0  0  0  0  0  0  0  0  0  0
   19.0885  -22.9976  -14.0670 C   0  0  0  0  0  0  0  0  0  0  0  0
   18.7401  -24.3125  -14.2861 O   0  0  0  0  0  0  0  0  0  0  0  0
   18.8780  -22.1902  -15.0165 O   0  0  0  0  0  0  0  0  0  0  0  0
  2  1  1  1
  2 13  1  0
  3  2  1  0
  3  4  1  0
  4 12  1  0
  4  5  2  0
  5  6  1  0
  7  6  1  0
  7  8  2  0
  9  8  1  0
 10  9  2  0
 11 10  1  0
 11 12  2  0
 12  7  1  0
 13 14  2  0
 16 15  1  6
 17 13  1  0
 17 16  1  0
 18 16  1  0
 18 19  2  0
 20 21  1  0
 21 22  2  0
 21 23  1  0
 23 24  1  0
 24 25  1  0
 25 26  1  0
 27 26  1  1
 27 28  1  0
 28 18  1  0
 29 27  1  0
 30 29  1  0
 31 29  2  0
M  END
$$$$
