WAR.pdb
     RDKit          3D

 31 32  0  0  1  0  0  0  0  0999 V2000
   28.7902  -21.1676  -10.0096 N   0  0  0  0  0  0  0  0  0  0  0  0
   27.3620  -21.0145   -9.6943 C   0  0  1  0  0  0  0  0  0  0  0  0
   27.1625  -19.8763   -8.7579 C   0  0  0  0  0  0  0  0  0  0  0  0
   28.1038  -19.7669   -7.6435 C   0  0  0  0  0  0  0  0  0  0  0  0
   29.3448  -19.1428   -7.6130 C   0  0  0  0  0  0  0  0  0  0  0  0
   29.8819  -19.2748   -6.4073 N   0  0  0  0  0  0  0  0  0  0  0  0
   29.0557  -19.9602   -5.6258 C   0  0  0  0  0  0  0  0  0  0  0  0
   29.1361  -20.3472   -4.3058 C   0  0  0  0  0  0  0  0  0  0  0  0
   28.1126  -21.0580   -3.6980 C   0  0  0  0  0  0  0  0  0  0  0  0
   26.9927  -21.3835   -4.4321 C   0  0  0  0  0  0  0  0  0  0  0  0
   26.9255  -20.9897   -5.7539 C   0  0  0  0  0  0  0  0  0  0  0  0
   27.9389  -20.2835   -6.3619 C   0  0  0  0  0  0  0  0  0  0  0  0
   26.6584  -20.9546  -10.9767 C   0  0  0  0  0  0  0  0  0  0  0  0
   27.1078  -20.2830  -11.9612 O   0  0  0  0  0  0  0  0  0  0  0  0
   24.3419  -22.9832  -12.8099 C   0  0  0  0  0  0  0  0  0  0  0  0
   24.7300  -21.5402  -12.4197 C   0  0  2  0  0  0  0  0  0  0  0  0
   25.4496  -21.6575  -11.1557 N   0  0  0  0  0  0  0  0  0  0  0  0
   23.4622  -20.8368  -12.1886 C   0  0  0  0  0  0  0  0  0  0  0  0
   22.9130  -20.7228  -11.0690 O   0  0  0  0  0  0  0  0  0  0  0  0
   20.4573  -13.9805  -14.5040 N   0  0  0  0  0  0  0  0  0  0  0  0
   20.2413  -15.0347  -15.4298 C   0  0  0  0  0  0  0  0  0  0  0  0
   20.9723  -15.0871  -16.4871 N   0  0  0  0  0  0  0  0  0  0  0  0
   19.2564  -16.0332  -15.2431 N   0  0  0  0  0  0  0  0  0  0  0  0
   19.4722  -17.4346  -15.5154 C   0  0  0  0  0  0  0  0  0  0  0  0
   19.7544  -18.2009  -14.2465 C   0  0  0  0  0  0  0  0  0  0  0  0
   21.0515  -18.9039  -14.3651 C   0  0  0  0  0  0  0  0  0  0  0  0
   21.4464  -19.6881  -13.1391 C   0  0  2  0  0  0  0  0  0  0  0  0
   22.7805  -20.2313  -13.2818 N   0  0  0  0  0  0  0  0  0  0  0  0
   20.4591  -20.7161  -12.7547 C   0  0  0  0  0  0  0  0  0  0  0  0
   19.6182  -20.6494  -11.6653 O   0  0  0  0  0  0  0  0  0  0  0  0
   20.3683  -21.7488  -13.4778 O   0  0  0  0  0  0  0  0  0  0  0  0
  2  1  1  6
  2 13  1  0
  3  2  1  0
  3  4  1  0
  4 12  1  0
  4  5  2  0
  5  6  1  0
  7  6  1  0
  7  8  2  0
  9  8  1  0
 10  9  2  0
 11 10  1  0
 11 12  2  0
 12  7  1  0
 13 14  2  0
 16 15  1  1
 17 13  1  0
 17 16  1  0
 18 16  1  0
 18 19  2  0
 20 21  1  0
 21 22  2  0
 21 23  1  0
 23 24  1  0
 24 25  1  0
 25 26  1  0
 27 26  1  6
 27 28  1  0
 28 18  1  0
 29 27  1  0
 30 29  1  0
 31 29  2  0
M  END
$$$$
