WAR.pdb
     RDKit          3D

 31 32  0  0  1  0  0  0  0  0999 V2000
   20.1510  -23.7657  -13.8305 N   0  0  0  0  0  0  0  0  0  0  0  0
   20.6367  -24.9196  -14.6019 C   0  0  1  0  0  0  0  0  0  0  0  0
   21.8685  -24.5542  -15.3511 C   0  0  0  0  0  0  0  0  0  0  0  0
   21.7398  -23.4998  -16.3568 C   0  0  0  0  0  0  0  0  0  0  0  0
   21.7445  -22.1221  -16.1762 C   0  0  0  0  0  0  0  0  0  0  0  0
   21.5981  -21.5174  -17.3476 N   0  0  0  0  0  0  0  0  0  0  0  0
   21.4957  -22.4285  -18.3081 C   0  0  0  0  0  0  0  0  0  0  0  0
   21.3470  -22.3227  -19.6738 C   0  0  0  0  0  0  0  0  0  0  0  0
   21.2797  -23.4471  -20.4822 C   0  0  0  0  0  0  0  0  0  0  0  0
   21.3629  -24.6955  -19.9048 C   0  0  0  0  0  0  0  0  0  0  0  0
   21.5115  -24.7870  -18.5351 C   0  0  0  0  0  0  0  0  0  0  0  0
   21.5791  -23.6737  -17.7281 C   0  0  0  0  0  0  0  0  0  0  0  0
   20.7352  -26.0361  -13.6601 C   0  0  0  0  0  0  0  0  0  0  0  0
   20.7985  -25.8523  -12.4014 O   0  0  0  0  0  0  0  0  0  0  0  0
   19.5463  -28.3629  -12.3280 C   0  0  0  0  0  0  0  0  0  0  0  0
   20.8298  -28.4662  -13.1808 C   0  0  2  0  0  0  0  0  0  0  0  0
   20.7551  -27.3637  -14.1338 N   0  0  0  0  0  0  0  0  0  0  0  0
   20.7231  -29.7380  -13.9063 C   0  0  0  0  0  0  0  0  0  0  0  0
   20.0304  -29.9065  -14.9358 O   0  0  0  0  0  0  0  0  0  0  0  0
   27.0097  -32.0904  -13.4671 N   0  0  0  0  0  0  0  0  0  0  0  0
   26.4460  -32.4782  -12.2233 C   0  0  0  0  0  0  0  0  0  0  0  0
   26.9697  -32.0234  -11.1398 N   0  0  0  0  0  0  0  0  0  0  0  0
   25.3321  -33.3443  -12.1198 N   0  0  0  0  0  0  0  0  0  0  0  0
   24.6238  -33.8808  -13.2578 C   0  0  0  0  0  0  0  0  0  0  0  0
   23.7120  -32.8467  -13.8713 C   0  0  0  0  0  0  0  0  0  0  0  0
   22.3058  -33.1510  -13.5238 C   0  0  0  0  0  0  0  0  0  0  0  0
   21.3035  -32.1711  -14.0797 C   0  0  2  0  0  0  0  0  0  0  0  0
   21.4373  -30.8786  -13.4420 N   0  0  0  0  0  0  0  0  0  0  0  0
   19.9145  -32.6703  -14.0522 C   0  0  0  0  0  0  0  0  0  0  0  0
   19.3078  -33.4019  -15.0496 O   0  0  0  0  0  0  0  0  0  0  0  0
   19.2129  -32.4111  -13.0332 O   0  0  0  0  0  0  0  0  0  0  0  0
  2  1  1  1
  2 13  1  0
  3  2  1  0
  3  4  1  0
  4 12  1  0
  4  5  2  0
  5  6  1  0
  7  6  1  0
  7  8  2  0
  9  8  1  0
 10  9  2  0
 11 10  1  0
 11 12  2  0
 12  7  1  0
 13 14  2  0
 16 15  1  1
 17 13  1  0
 17 16  1  0
 18 16  1  0
 18 19  2  0
 20 21  1  0
 21 22  2  0
 21 23  1  0
 23 24  1  0
 24 25  1  0
 25 26  1  0
 27 26  1  1
 27 28  1  0
 28 18  1  0
 29 27  1  0
 30 29  1  0
 31 29  2  0
M  END
$$$$
