WAR.pdb
     RDKit          3D

 31 32  0  0  1  0  0  0  0  0999 V2000
   24.4110  -18.4090  -17.4344 N   0  0  0  0  0  0  0  0  0  0  0  0
   25.2296  -17.8081  -16.3708 C   0  0  1  0  0  0  0  0  0  0  0  0
   24.5537  -16.6020  -15.8226 C   0  0  0  0  0  0  0  0  0  0  0  0
   24.3883  -15.4685  -16.7323 C   0  0  0  0  0  0  0  0  0  0  0  0
   23.2366  -14.7460  -17.0193 C   0  0  0  0  0  0  0  0  0  0  0  0
   23.5134  -13.7963  -17.9028 N   0  0  0  0  0  0  0  0  0  0  0  0
   24.8012  -13.8485  -18.2222 C   0  0  0  0  0  0  0  0  0  0  0  0
   25.5778  -13.0869  -19.0680 C   0  0  0  0  0  0  0  0  0  0  0  0
   26.9334  -13.3338  -19.2221 C   0  0  0  0  0  0  0  0  0  0  0  0
   27.5134  -14.3636  -18.5136 C   0  0  0  0  0  0  0  0  0  0  0  0
   26.7234  -15.1189  -17.6698 C   0  0  0  0  0  0  0  0  0  0  0  0
   25.3771  -14.8776  -17.5131 C   0  0  0  0  0  0  0  0  0  0  0  0
   25.5407  -18.8847  -15.4287 C   0  0  0  0  0  0  0  0  0  0  0  0
   24.6665  -19.7379  -15.0680 O   0  0  0  0  0  0  0  0  0  0  0  0
   28.6356  -19.9908  -13.6593 C   0  0  0  0  0  0  0  0  0  0  0  0
   27.1066  -20.0158  -13.8756 C   0  0  2  0  0  0  0  0  0  0  0  0
   26.8401  -19.0072  -14.8959 N   0  0  0  0  0  0  0  0  0  0  0  0
   26.5184  -19.5805  -12.6028 C   0  0  0  0  0  0  0  0  0  0  0  0
   26.1035  -18.4206  -12.3780 O   0  0  0  0  0  0  0  0  0  0  0  0
   20.5861  -22.7869   -8.1711 N   0  0  0  0  0  0  0  0  0  0  0  0
   19.9009  -21.9958   -9.1303 C   0  0  0  0  0  0  0  0  0  0  0  0
   18.6357  -22.1708   -9.2842 N   0  0  0  0  0  0  0  0  0  0  0  0
   20.5468  -21.0213   -9.9270 N   0  0  0  0  0  0  0  0  0  0  0  0
   21.7694  -21.2623  -10.6563 C   0  0  0  0  0  0  0  0  0  0  0  0
   22.8621  -20.3182  -10.2186 C   0  0  0  0  0  0  0  0  0  0  0  0
   23.9887  -20.3790  -11.1767 C   0  0  0  0  0  0  0  0  0  0  0  0
   25.3519  -20.3788  -10.5320 C   0  0  2  0  0  0  0  0  0  0  0  0
   26.3939  -20.5062  -11.5286 N   0  0  0  0  0  0  0  0  0  0  0  0
   25.4894  -21.3688   -9.4455 C   0  0  0  0  0  0  0  0  0  0  0  0
   25.3439  -21.1056   -8.1009 O   0  0  0  0  0  0  0  0  0  0  0  0
   25.7634  -22.5612   -9.7628 O   0  0  0  0  0  0  0  0  0  0  0  0
  2  1  1  6
  2 13  1  0
  3  2  1  0
  3  4  1  0
  4 12  1  0
  4  5  2  0
  5  6  1  0
  7  6  1  0
  7  8  2  0
  9  8  1  0
 10  9  2  0
 11 10  1  0
 11 12  2  0
 12  7  1  0
 13 14  2  0
 16 15  1  1
 17 13  1  0
 17 16  1  0
 18 16  1  0
 18 19  2  0
 20 21  1  0
 21 22  2  0
 21 23  1  0
 23 24  1  0
 24 25  1  0
 25 26  1  0
 27 26  1  6
 27 28  1  0
 28 18  1  0
 29 27  1  0
 30 29  1  0
 31 29  2  0
M  END
$$$$
