LRC.pdb
     RDKit          3D

 26 25  0  0  1  0  0  0  0  0999 V2000
   23.7283  -24.6530  -14.7760 C   0  0  0  0  0  0  0  0  0  0  0  0
   24.8473  -24.7233  -15.7864 C   0  0  1  0  0  0  0  0  0  0  0  0
   26.1753  -24.3477  -15.2051 C   0  0  0  0  0  0  0  0  0  0  0  0
   24.8877  -26.1383  -16.3839 C   0  0  0  0  0  0  0  0  0  0  0  0
   26.0738  -26.1443  -17.3254 C   0  0  2  0  0  0  0  0  0  0  0  0
   25.6709  -25.3380  -18.4741 N   0  0  0  0  0  0  0  0  0  0  0  0
   26.4237  -27.4835  -17.8026 C   0  0  0  0  0  0  0  0  0  0  0  0
   25.9244  -27.9012  -18.8730 O   0  0  0  0  0  0  0  0  0  0  0  0
   33.9835  -31.0342  -17.8820 N   0  0  0  0  0  0  0  0  0  0  0  0
   33.1284  -30.0869  -18.5577 C   0  0  0  0  0  0  0  0  0  0  0  0
   33.6760  -29.1325  -19.1887 N   0  0  0  0  0  0  0  0  0  0  0  0
   31.7140  -30.2253  -18.5124 N   0  0  0  0  0  0  0  0  0  0  0  0
   31.0776  -31.3191  -17.8399 C   0  0  0  0  0  0  0  0  0  0  0  0
   29.5757  -31.2559  -17.9070 C   0  0  0  0  0  0  0  0  0  0  0  0
   29.1198  -29.8700  -17.5673 C   0  0  0  0  0  0  0  0  0  0  0  0
   27.6442  -29.6486  -17.6318 C   0  0  2  0  0  0  0  0  0  0  0  0
   27.3085  -28.3164  -17.0888 N   0  0  0  0  0  0  0  0  0  0  0  0
   26.8393  -30.6700  -16.9227 C   0  0  0  0  0  0  0  0  0  0  0  0
   26.8932  -30.7635  -15.6791 O   0  0  0  0  0  0  0  0  0  0  0  0
   33.0952  -28.4519  -19.7142 N   0  0  0  0  0  0  0  0  0  0  0  0
   25.9789  -31.5760  -17.6367 C   0  0  2  0  0  0  0  0  0  0  0  0
   25.1968  -32.5104  -16.8784 C   0  0  0  0  0  0  0  0  0  0  0  0
   23.9878  -32.8594  -17.7253 S   0  0  0  0  0  0  0  0  0  0  0  0
   22.8094  -33.7674  -16.7017 C   0  0  0  0  0  0  0  0  0  0  0  0
   25.9724  -33.7041  -16.4725 O   0  0  0  0  0  0  0  0  0  0  0  0
   26.8287  -34.2412  -17.2310 O   0  0  0  0  0  0  0  0  0  0  0  0
  2  4  1  0
  2  1  1  1
  3  2  1  0
  4  5  1  0
  5  6  1  6
  7  8  2  0
  7  5  1  0
  9 10  1  0
 10 12  1  0
 11 10  2  0
 12 13  1  0
 13 14  1  0
 14 15  1  0
 16 15  1  1
 16 17  1  0
 17  7  1  0
 18 16  1  0
 19 18  2  0
 20 18  1  0
 21 20  1  0
 21 22  1  6
 23 22  1  0
 24 21  1  0
 24 26  1  0
 25 24  2  0
M  END
$$$$
