LRC.pdb
     RDKit          3D

 26 25  0  0  1  0  0  0  0  0999 V2000
   26.2756  -15.5289  -18.4196 C   0  0  0  0  0  0  0  0  0  0  0  0
   26.8587  -16.2667  -17.2391 C   0  0  1  0  0  0  0  0  0  0  0  0
   27.8490  -15.4435  -16.4748 C   0  0  0  0  0  0  0  0  0  0  0  0
   25.7111  -16.7327  -16.3297 C   0  0  0  0  0  0  0  0  0  0  0  0
   26.3784  -17.4470  -15.1731 C   0  0  2  0  0  0  0  0  0  0  0  0
   27.2970  -18.4072  -15.7782 N   0  0  0  0  0  0  0  0  0  0  0  0
   25.4348  -18.1816  -14.3283 C   0  0  0  0  0  0  0  0  0  0  0  0
   24.4792  -17.5665  -13.8008 O   0  0  0  0  0  0  0  0  0  0  0  0
   25.5727  -25.1741  -15.5417 N   0  0  0  0  0  0  0  0  0  0  0  0
   24.2381  -25.2687  -14.9984 C   0  0  0  0  0  0  0  0  0  0  0  0
   23.9125  -26.3374  -14.3977 N   0  0  0  0  0  0  0  0  0  0  0  0
   23.3202  -24.1918  -15.1371 N   0  0  0  0  0  0  0  0  0  0  0  0
   23.6811  -22.9621  -15.7784 C   0  0  0  0  0  0  0  0  0  0  0  0
   24.6063  -22.1155  -14.9468 C   0  0  0  0  0  0  0  0  0  0  0  0
   23.7984  -21.2292  -14.0492 C   0  0  0  0  0  0  0  0  0  0  0  0
   24.5857  -20.2540  -13.2370 C   0  0  2  0  0  0  0  0  0  0  0  0
   25.5730  -19.5641  -14.0924 N   0  0  0  0  0  0  0  0  0  0  0  0
   25.2909  -20.8491  -12.0784 C   0  0  0  0  0  0  0  0  0  0  0  0
   26.5237  -21.0408  -12.1211 O   0  0  0  0  0  0  0  0  0  0  0  0
   22.9807  -26.4216  -13.9489 N   0  0  0  0  0  0  0  0  0  0  0  0
   24.5855  -21.2202  -10.8802 C   0  0  1  0  0  0  0  0  0  0  0  0
   25.2097  -20.9569   -9.6148 C   0  0  0  0  0  0  0  0  0  0  0  0
   25.8766  -19.5993   -9.7288 S   0  0  0  0  0  0  0  0  0  0  0  0
   26.8521  -19.3091   -8.2373 C   0  0  0  0  0  0  0  0  0  0  0  0
   24.2570  -21.0311   -8.4842 O   0  0  0  0  0  0  0  0  0  0  0  0
   23.0603  -20.6377   -8.5846 O   0  0  0  0  0  0  0  0  0  0  0  0
  2  4  1  0
  2  1  1  6
  3  2  1  0
  4  5  1  0
  5  6  1  6
  7  8  2  0
  7  5  1  0
  9 10  1  0
 10 12  1  0
 11 10  2  0
 12 13  1  0
 13 14  1  0
 14 15  1  0
 16 15  1  6
 16 17  1  0
 17  7  1  0
 18 16  1  0
 19 18  2  0
 20 18  1  0
 21 20  1  0
 21 22  1  1
 23 22  1  0
 24 21  1  0
 24 26  1  0
 25 24  2  0
M  END
$$$$
