LRC.pdb
     RDKit          3D

 26 25  0  0  1  0  0  0  0  0999 V2000
   28.5185  -11.0792  -16.3059 C   0  0  0  0  0  0  0  0  0  0  0  0
   27.1513  -11.7005  -16.4572 C   0  0  1  0  0  0  0  0  0  0  0  0
   26.8239  -12.6540  -15.3498 C   0  0  0  0  0  0  0  0  0  0  0  0
   26.1044  -10.5794  -16.5466 C   0  0  0  0  0  0  0  0  0  0  0  0
   24.7968  -11.2737  -16.8649 C   0  0  2  0  0  0  0  0  0  0  0  0
   24.9892  -11.9002  -18.1697 N   0  0  0  0  0  0  0  0  0  0  0  0
   23.6632  -10.3519  -16.9591 C   0  0  0  0  0  0  0  0  0  0  0  0
   23.5406   -9.6355  -17.9796 O   0  0  0  0  0  0  0  0  0  0  0  0
   15.3320  -11.2903  -14.6261 N   0  0  0  0  0  0  0  0  0  0  0  0
   15.3819   -9.9299  -15.1078 C   0  0  0  0  0  0  0  0  0  0  0  0
   14.2970   -9.2748  -15.1598 N   0  0  0  0  0  0  0  0  0  0  0  0
   16.6147   -9.3480  -15.5116 N   0  0  0  0  0  0  0  0  0  0  0  0
   17.8540  -10.0639  -15.4392 C   0  0  0  0  0  0  0  0  0  0  0  0
   19.0444   -9.2148  -15.7947 C   0  0  0  0  0  0  0  0  0  0  0  0
   20.2902  -10.0421  -15.7071 C   0  0  0  0  0  0  0  0  0  0  0  0
   21.5493   -9.3457  -16.1074 C   0  0  2  0  0  0  0  0  0  0  0  0
   22.7048  -10.2491  -15.9310 N   0  0  0  0  0  0  0  0  0  0  0  0
   21.8124   -8.0854  -15.3752 C   0  0  0  0  0  0  0  0  0  0  0  0
   22.2021   -8.1144  -14.1896 O   0  0  0  0  0  0  0  0  0  0  0  0
   14.2895   -8.3042  -15.5267 N   0  0  0  0  0  0  0  0  0  0  0  0
   21.6300   -6.8021  -16.0004 C   0  0  2  0  0  0  0  0  0  0  0  0
   21.8510   -5.6239  -15.2110 C   0  0  0  0  0  0  0  0  0  0  0  0
   23.1347   -4.9926  -15.7153 S   0  0  0  0  0  0  0  0  0  0  0  0
   23.4050   -3.4454  -14.8244 C   0  0  0  0  0  0  0  0  0  0  0  0
   20.7030   -4.6901  -15.2489 O   0  0  0  0  0  0  0  0  0  0  0  0
   19.8715   -4.6828  -16.2006 O   0  0  0  0  0  0  0  0  0  0  0  0
  2  4  1  0
  2  1  1  1
  3  2  1  0
  4  5  1  0
  5  6  1  6
  7  8  2  0
  7  5  1  0
  9 10  1  0
 10 12  1  0
 11 10  2  0
 12 13  1  0
 13 14  1  0
 14 15  1  0
 16 15  1  1
 16 17  1  0
 17  7  1  0
 18 16  1  0
 19 18  2  0
 20 18  1  0
 21 20  1  0
 21 22  1  6
 23 22  1  0
 24 21  1  0
 24 26  1  0
 25 24  2  0
M  END
$$$$
