LRC.pdb
     RDKit          3D

 26 25  0  0  1  0  0  0  0  0999 V2000
   27.0091  -15.6791  -17.7823 C   0  0  0  0  0  0  0  0  0  0  0  0
   27.5782  -16.7725  -16.9114 C   0  0  1  0  0  0  0  0  0  0  0  0
   27.8170  -16.3240  -15.5027 C   0  0  0  0  0  0  0  0  0  0  0  0
   26.6312  -17.9818  -16.9516 C   0  0  0  0  0  0  0  0  0  0  0  0
   27.2170  -18.9847  -15.9799 C   0  0  2  0  0  0  0  0  0  0  0  0
   28.0243  -19.8937  -16.7885 N   0  0  0  0  0  0  0  0  0  0  0  0
   26.1993  -19.7710  -15.2801 C   0  0  0  0  0  0  0  0  0  0  0  0
   25.6586  -20.7350  -15.8701 O   0  0  0  0  0  0  0  0  0  0  0  0
   23.3406  -20.0695   -9.7154 N   0  0  0  0  0  0  0  0  0  0  0  0
   23.9689  -21.0869   -8.9057 C   0  0  0  0  0  0  0  0  0  0  0  0
   23.2310  -21.7865   -8.1474 N   0  0  0  0  0  0  0  0  0  0  0  0
   25.3746  -21.2926   -8.9610 N   0  0  0  0  0  0  0  0  0  0  0  0
   26.2386  -20.4426   -9.7257 C   0  0  0  0  0  0  0  0  0  0  0  0
   26.2093  -20.7479  -11.1989 C   0  0  0  0  0  0  0  0  0  0  0  0
   24.9538  -20.1919  -11.7977 C   0  0  0  0  0  0  0  0  0  0  0  0
   24.8307  -20.3427  -13.2784 C   0  0  2  0  0  0  0  0  0  0  0  0
   25.8112  -19.4720  -13.9587 N   0  0  0  0  0  0  0  0  0  0  0  0
   23.4809  -20.0516  -13.8145 C   0  0  0  0  0  0  0  0  0  0  0  0
   23.0045  -18.9007  -13.7319 O   0  0  0  0  0  0  0  0  0  0  0  0
   23.6557  -22.4489   -7.4709 N   0  0  0  0  0  0  0  0  0  0  0  0
   22.6854  -21.0742  -14.4408 C   0  0  2  0  0  0  0  0  0  0  0  0
   21.3638  -20.7316  -14.8833 C   0  0  0  0  0  0  0  0  0  0  0  0
   21.0791  -21.5768  -16.1102 S   0  0  0  0  0  0  0  0  0  0  0  0
   22.3893  -21.2959  -17.3205 C   0  0  0  0  0  0  0  0  0  0  0  0
   20.3459  -20.9051  -13.8226 O   0  0  0  0  0  0  0  0  0  0  0  0
   20.6212  -21.4214  -12.7025 O   0  0  0  0  0  0  0  0  0  0  0  0
  2  4  1  0
  2  1  1  6
  3  2  1  0
  4  5  1  0
  5  6  1  6
  7  8  2  0
  7  5  1  0
  9 10  1  0
 10 12  1  0
 11 10  2  0
 12 13  1  0
 13 14  1  0
 14 15  1  0
 16 15  1  1
 16 17  1  0
 17  7  1  0
 18 16  1  0
 19 18  2  0
 20 18  1  0
 21 20  1  0
 21 22  1  6
 23 22  1  0
 24 21  1  0
 24 26  1  0
 25 24  2  0
M  END
$$$$
