MTH.pdb
     RDKit          3D

 26 26  0  0  1  0  0  0  0  0999 V2000
   14.3311  -24.8840   33.3974 C   0  0  0  0  0  0  0  0  0  0  0  0
   15.9033  -25.4353   34.1500 S   0  0  0  0  0  0  0  0  0  0  0  0
   15.5719  -26.5595   35.5345 C   0  0  0  0  0  0  0  0  0  0  0  0
   14.7486  -25.8221   36.5514 C   0  0  0  0  0  0  0  0  0  0  0  0
   14.3026  -26.6669   37.7059 C   0  0  2  0  0  0  0  0  0  0  0  0
   13.2199  -27.5274   37.2034 N   0  0  0  0  0  0  0  0  0  0  0  0
   13.8248  -25.8881   38.8744 C   0  0  0  0  0  0  0  0  0  0  0  0
   12.6381  -25.8719   39.2120 O   0  0  0  0  0  0  0  0  0  0  0  0
   12.7994  -26.3954   41.4532 C   0  0  0  0  0  0  0  0  0  0  0  0
   14.0614  -25.7075   41.9297 C   0  0  1  0  0  0  0  0  0  0  0  0
   15.0775  -26.6243   42.1927 O   0  0  0  0  0  0  0  0  0  0  0  0
   14.5075  -24.6282   40.9742 C   0  0  2  0  0  0  0  0  0  0  0  0
   14.7494  -25.1274   39.6453 N   0  0  0  0  0  0  0  0  0  0  0  0
   15.6788  -23.9190   41.5347 C   0  0  0  0  0  0  0  0  0  0  0  0
   16.8582  -24.1490   41.1974 O   0  0  0  0  0  0  0  0  0  0  0  0
   15.4491  -22.9164   42.5148 N   0  0  0  0  0  0  0  0  0  0  0  0
   16.5841  -22.1885   43.0459 C   0  0  1  0  0  0  0  0  0  0  0  0
   17.0300  -21.0441   42.2012 C   0  0  0  0  0  0  0  0  0  0  0  0
   15.9286  -20.0804   41.9455 C   0  0  0  0  0  0  0  0  0  0  0  0
   14.5664  -20.2813   42.1650 C   0  0  0  0  0  0  0  0  0  0  0  0
   13.8813  -19.2008   41.8207 N   0  0  0  0  0  0  0  0  0  0  0  0
   14.7771  -18.2978   41.3797 C   0  0  0  0  0  0  0  0  0  0  0  0
   16.0137  -18.8286   41.4549 N   0  0  0  0  0  0  0  0  0  0  0  0
   16.1645  -21.6341   44.3790 C   0  0  0  0  0  0  0  0  0  0  0  0
   17.0602  -20.9190   45.1727 O   0  0  0  0  0  0  0  0  0  0  0  0
   15.0006  -21.7905   44.8293 O   0  0  0  0  0  0  0  0  0  0  0  0
  1  2  1  0
  3  2  1  0
  4  5  1  0
  4  3  1  0
  5  6  1  6
  5  7  1  0
  7  8  2  0
 10  9  1  6
 10 12  1  0
 10 11  1  0
 13  7  1  0
 12 13  1  6
 14 12  1  0
 14 16  1  0
 15 14  2  0
 16 17  1  0
 17 24  1  0
 17 18  1  6
 19 18  1  0
 20 19  2  0
 21 22  1  0
 21 20  1  0
 22 23  2  0
 23 19  1  0
 24 26  2  0
 24 25  1  0
M  END
$$$$
