MTH.pdb
     RDKit          3D

 26 26  0  0  1  0  0  0  0  0999 V2000
    7.7753  -11.3522   20.5675 C   0  0  0  0  0  0  0  0  0  0  0  0
    8.6008  -11.5645   18.9501 S   0  0  0  0  0  0  0  0  0  0  0  0
    8.8895  -13.3253   18.6233 C   0  0  0  0  0  0  0  0  0  0  0  0
    8.5552  -14.0950   19.8690 C   0  0  0  0  0  0  0  0  0  0  0  0
    8.7200  -15.5783   19.7337 C   0  0  2  0  0  0  0  0  0  0  0  0
    7.8451  -15.9991   18.6280 N   0  0  0  0  0  0  0  0  0  0  0  0
    8.3793  -16.3376   20.9617 C   0  0  0  0  0  0  0  0  0  0  0  0
    7.2212  -16.6701   21.2280 O   0  0  0  0  0  0  0  0  0  0  0  0
    9.2504  -19.7175   22.1462 C   0  0  0  0  0  0  0  0  0  0  0  0
    9.8765  -18.7587   23.1368 C   0  0  1  0  0  0  0  0  0  0  0  0
   11.2539  -18.6566   22.9517 O   0  0  0  0  0  0  0  0  0  0  0  0
    9.2018  -17.4091   23.1152 C   0  0  2  0  0  0  0  0  0  0  0  0
    9.4072  -16.7047   21.8760 N   0  0  0  0  0  0  0  0  0  0  0  0
    9.6270  -16.6202   24.2924 C   0  0  0  0  0  0  0  0  0  0  0  0
   10.5088  -15.7377   24.2568 O   0  0  0  0  0  0  0  0  0  0  0  0
    8.9948  -16.8811   25.5377 N   0  0  0  0  0  0  0  0  0  0  0  0
    9.3449  -16.0631   26.6815 C   0  0  1  0  0  0  0  0  0  0  0  0
    8.1760  -15.5530   27.4530 C   0  0  0  0  0  0  0  0  0  0  0  0
    7.4684  -14.4628   26.7331 C   0  0  0  0  0  0  0  0  0  0  0  0
    7.9763  -13.2087   26.3960 C   0  0  0  0  0  0  0  0  0  0  0  0
    7.0586  -12.4979   25.7573 N   0  0  0  0  0  0  0  0  0  0  0  0
    5.9592  -13.2704   25.6729 C   0  0  0  0  0  0  0  0  0  0  0  0
    6.2064  -14.4571   26.2621 N   0  0  0  0  0  0  0  0  0  0  0  0
   10.1585  -16.9264   27.6054 C   0  0  0  0  0  0  0  0  0  0  0  0
   10.7031  -16.4068   28.7788 O   0  0  0  0  0  0  0  0  0  0  0  0
   10.3795  -18.1401   27.3610 O   0  0  0  0  0  0  0  0  0  0  0  0
  1  2  1  0
  3  2  1  0
  4  5  1  0
  4  3  1  0
  5  6  1  6
  5  7  1  0
  7  8  2  0
 10  9  1  6
 10 12  1  0
 10 11  1  0
 13  7  1  0
 12 13  1  6
 14 12  1  0
 14 16  1  0
 15 14  2  0
 16 17  1  0
 17 24  1  0
 17 18  1  1
 19 18  1  0
 20 19  2  0
 21 22  1  0
 21 20  1  0
 22 23  2  0
 23 19  1  0
 24 26  2  0
 24 25  1  0
M  END
$$$$
