MTH.pdb
     RDKit          3D

 26 26  0  0  1  0  0  0  0  0999 V2000
   10.0918  -12.4167   18.9028 C   0  0  0  0  0  0  0  0  0  0  0  0
    8.2803  -12.5279   18.6820 S   0  0  0  0  0  0  0  0  0  0  0  0
    7.8660  -13.9463   17.6299 C   0  0  0  0  0  0  0  0  0  0  0  0
    8.3027  -15.1980   18.3358 C   0  0  0  0  0  0  0  0  0  0  0  0
    7.5092  -15.5139   19.5672 C   0  0  2  0  0  0  0  0  0  0  0  0
    7.3956  -14.2590   20.3272 N   0  0  0  0  0  0  0  0  0  0  0  0
    8.1133  -16.5659   20.4208 C   0  0  0  0  0  0  0  0  0  0  0  0
    8.0842  -17.7600   20.1109 O   0  0  0  0  0  0  0  0  0  0  0  0
   10.6341  -18.3491   20.7517 C   0  0  0  0  0  0  0  0  0  0  0  0
   10.7365  -17.5925   22.0593 C   0  0  1  0  0  0  0  0  0  0  0  0
   11.6480  -16.5418   21.9741 O   0  0  0  0  0  0  0  0  0  0  0  0
    9.3857  -17.1305   22.5479 C   0  0  2  0  0  0  0  0  0  0  0  0
    8.7525  -16.2076   21.6417 N   0  0  0  0  0  0  0  0  0  0  0  0
    9.5109  -16.5839   23.9170 C   0  0  0  0  0  0  0  0  0  0  0  0
    9.9549  -15.4461   24.1740 O   0  0  0  0  0  0  0  0  0  0  0  0
    9.1016  -17.4011   25.0048 N   0  0  0  0  0  0  0  0  0  0  0  0
    8.9832  -16.8030   26.3194 C   0  0  1  0  0  0  0  0  0  0  0  0
    7.5936  -16.4172   26.6961 C   0  0  0  0  0  0  0  0  0  0  0  0
    7.3087  -14.9929   26.3839 C   0  0  0  0  0  0  0  0  0  0  0  0
    8.2059  -14.0415   25.9001 C   0  0  0  0  0  0  0  0  0  0  0  0
    7.5972  -12.8757   25.7397 N   0  0  0  0  0  0  0  0  0  0  0  0
    6.3156  -13.0529   26.1119 C   0  0  0  0  0  0  0  0  0  0  0  0
    6.1410  -14.3315   26.5010 N   0  0  0  0  0  0  0  0  0  0  0  0
    9.4559  -17.8288   27.3120 C   0  0  0  0  0  0  0  0  0  0  0  0
    9.6392  -17.4976   28.6537 O   0  0  0  0  0  0  0  0  0  0  0  0
    9.7031  -19.0156   26.9772 O   0  0  0  0  0  0  0  0  0  0  0  0
  1  2  1  0
  3  2  1  0
  4  5  1  0
  4  3  1  0
  5  6  1  1
  5  7  1  0
  7  8  2  0
 10  9  1  6
 10 12  1  0
 10 11  1  0
 13  7  1  0
 12 13  1  6
 14 12  1  0
 14 16  1  0
 15 14  2  0
 16 17  1  0
 17 24  1  0
 17 18  1  1
 19 18  1  0
 20 19  2  0
 21 22  1  0
 21 20  1  0
 22 23  2  0
 23 19  1  0
 24 26  2  0
 24 25  1  0
M  END
$$$$
