MTH.pdb
     RDKit          3D

 26 26  0  0  1  0  0  0  0  0999 V2000
    8.0937  -12.6965   27.3685 C   0  0  0  0  0  0  0  0  0  0  0  0
    6.4874  -12.5424   26.5092 S   0  0  0  0  0  0  0  0  0  0  0  0
    6.5151  -13.4865   24.9606 C   0  0  0  0  0  0  0  0  0  0  0  0
    7.9282  -13.9257   24.7036 C   0  0  0  0  0  0  0  0  0  0  0  0
    8.1102  -14.6812   23.4223 C   0  0  2  0  0  0  0  0  0  0  0  0
    6.8481  -14.5539   22.6766 N   0  0  0  0  0  0  0  0  0  0  0  0
    8.4415  -16.1150   23.6092 C   0  0  0  0  0  0  0  0  0  0  0  0
    7.5774  -16.9958   23.5955 O   0  0  0  0  0  0  0  0  0  0  0  0
   10.7461  -18.0030   21.3569 C   0  0  0  0  0  0  0  0  0  0  0  0
   11.3183  -18.1173   22.7541 C   0  0  1  0  0  0  0  0  0  0  0  0
   12.4335  -17.2983   22.9204 O   0  0  0  0  0  0  0  0  0  0  0  0
   10.2713  -17.8680   23.8117 C   0  0  2  0  0  0  0  0  0  0  0  0
    9.7945  -16.5091   23.8126 N   0  0  0  0  0  0  0  0  0  0  0  0
   10.7875  -18.2879   25.1331 C   0  0  0  0  0  0  0  0  0  0  0  0
   11.5297  -19.2759   25.3081 O   0  0  0  0  0  0  0  0  0  0  0  0
   10.4177  -17.5220   26.2712 N   0  0  0  0  0  0  0  0  0  0  0  0
   11.0340  -17.8276   27.5467 C   0  0  1  0  0  0  0  0  0  0  0  0
   11.1056  -16.6731   28.4869 C   0  0  0  0  0  0  0  0  0  0  0  0
   11.7748  -15.4975   27.8727 C   0  0  0  0  0  0  0  0  0  0  0  0
   12.6827  -15.5034   26.8144 C   0  0  0  0  0  0  0  0  0  0  0  0
   13.0715  -14.2679   26.5356 N   0  0  0  0  0  0  0  0  0  0  0  0
   12.4302  -13.4559   27.3970 C   0  0  0  0  0  0  0  0  0  0  0  0
   11.6470  -14.1981   28.2046 N   0  0  0  0  0  0  0  0  0  0  0  0
   10.1935  -18.8920   28.1959 C   0  0  0  0  0  0  0  0  0  0  0  0
   10.5539  -19.4396   29.4262 O   0  0  0  0  0  0  0  0  0  0  0  0
    9.1415  -19.3282   27.6621 O   0  0  0  0  0  0  0  0  0  0  0  0
  1  2  1  0
  3  2  1  0
  4  5  1  0
  4  3  1  0
  5  6  1  6
  5  7  1  0
  7  8  2  0
 10  9  1  6
 10 12  1  0
 10 11  1  0
 13  7  1  0
 12 13  1  1
 14 12  1  0
 14 16  1  0
 15 14  2  0
 16 17  1  0
 17 24  1  0
 17 18  1  1
 19 18  1  0
 20 19  2  0
 21 22  1  0
 21 20  1  0
 22 23  2  0
 23 19  1  0
 24 26  2  0
 24 25  1  0
M  END
$$$$
