MTH.pdb
     RDKit          3D

 26 26  0  0  1  0  0  0  0  0999 V2000
   15.0109  -18.3295   14.9233 C   0  0  0  0  0  0  0  0  0  0  0  0
   13.5444  -19.3540   14.5459 S   0  0  0  0  0  0  0  0  0  0  0  0
   12.0433  -18.3369   14.5954 C   0  0  0  0  0  0  0  0  0  0  0  0
   12.4231  -16.9617   15.0650 C   0  0  0  0  0  0  0  0  0  0  0  0
   11.2653  -16.0197   15.1983 C   0  0  2  0  0  0  0  0  0  0  0  0
   11.2932  -15.1492   14.0123 N   0  0  0  0  0  0  0  0  0  0  0  0
   11.2985  -15.1933   16.4297 C   0  0  0  0  0  0  0  0  0  0  0  0
   12.0813  -14.2493   16.5661 O   0  0  0  0  0  0  0  0  0  0  0  0
    8.5663  -13.1534   18.0412 C   0  0  0  0  0  0  0  0  0  0  0  0
    8.9739  -14.2149   19.0411 C   0  0  1  0  0  0  0  0  0  0  0  0
    8.0180  -15.2245   19.1359 O   0  0  0  0  0  0  0  0  0  0  0  0
   10.3485  -14.7640   18.7482 C   0  0  2  0  0  0  0  0  0  0  0  0
   10.4063  -15.4819   17.5012 N   0  0  0  0  0  0  0  0  0  0  0  0
   10.8146  -15.5778   19.8925 C   0  0  0  0  0  0  0  0  0  0  0  0
   10.9216  -16.8210   19.8642 O   0  0  0  0  0  0  0  0  0  0  0  0
   11.1618  -14.9060   21.0953 N   0  0  0  0  0  0  0  0  0  0  0  0
   11.5479  -15.6954   22.2476 C   0  0  1  0  0  0  0  0  0  0  0  0
   12.6415  -15.0964   23.0643 C   0  0  0  0  0  0  0  0  0  0  0  0
   13.9803  -15.3535   22.4737 C   0  0  0  0  0  0  0  0  0  0  0  0
   14.2696  -16.1210   21.3460 C   0  0  0  0  0  0  0  0  0  0  0  0
   15.5743  -16.1258   21.1160 N   0  0  0  0  0  0  0  0  0  0  0  0
   16.1405  -15.3725   22.0775 C   0  0  0  0  0  0  0  0  0  0  0  0
   15.1781  -14.9059   22.8976 N   0  0  0  0  0  0  0  0  0  0  0  0
   10.3337  -15.8106   23.1269 C   0  0  0  0  0  0  0  0  0  0  0  0
   10.3278  -16.6573   24.2344 O   0  0  0  0  0  0  0  0  0  0  0  0
    9.2840  -15.1553   22.9027 O   0  0  0  0  0  0  0  0  0  0  0  0
  1  2  1  0
  3  2  1  0
  4  5  1  0
  4  3  1  0
  5  6  1  6
  5  7  1  0
  7  8  2  0
 10  9  1  6
 10 12  1  0
 10 11  1  0
 13  7  1  0
 12 13  1  6
 14 12  1  0
 14 16  1  0
 15 14  2  0
 16 17  1  0
 17 24  1  0
 17 18  1  1
 19 18  1  0
 20 19  2  0
 21 22  1  0
 21 20  1  0
 22 23  2  0
 23 19  1  0
 24 26  2  0
 24 25  1  0
M  END
$$$$
