MTH.pdb
     RDKit          3D

 26 26  0  0  1  0  0  0  0  0999 V2000
    9.5672  -11.7423   19.4479 C   0  0  0  0  0  0  0  0  0  0  0  0
    7.9549  -12.4486   19.9423 S   0  0  0  0  0  0  0  0  0  0  0  0
    7.9224  -14.2295   19.5995 C   0  0  0  0  0  0  0  0  0  0  0  0
    9.2731  -14.6326   19.0811 C   0  0  0  0  0  0  0  0  0  0  0  0
    9.4448  -16.1111   18.9072 C   0  0  2  0  0  0  0  0  0  0  0  0
    8.3730  -16.5550   18.0021 N   0  0  0  0  0  0  0  0  0  0  0  0
    9.3828  -16.8789   20.1749 C   0  0  0  0  0  0  0  0  0  0  0  0
    8.3404  -17.4054   20.5733 O   0  0  0  0  0  0  0  0  0  0  0  0
   11.1281  -19.9374   21.0767 C   0  0  0  0  0  0  0  0  0  0  0  0
   11.5649  -18.9403   22.1291 C   0  0  1  0  0  0  0  0  0  0  0  0
   12.8877  -18.5435   21.9424 O   0  0  0  0  0  0  0  0  0  0  0  0
   10.6270  -17.7609   22.2087 C   0  0  2  0  0  0  0  0  0  0  0  0
   10.5529  -17.0252   20.9729 N   0  0  0  0  0  0  0  0  0  0  0  0
   10.9992  -16.9044   23.3563 C   0  0  0  0  0  0  0  0  0  0  0  0
   11.2296  -15.6812   23.2655 O   0  0  0  0  0  0  0  0  0  0  0  0
   11.1004  -17.5086   24.6382 N   0  0  0  0  0  0  0  0  0  0  0  0
   11.0129  -16.6663   25.8141 C   0  0  1  0  0  0  0  0  0  0  0  0
    9.6780  -16.0361   26.0206 C   0  0  0  0  0  0  0  0  0  0  0  0
    9.6030  -15.3041   27.3112 C   0  0  0  0  0  0  0  0  0  0  0  0
   10.6275  -15.1299   28.2409 C   0  0  0  0  0  0  0  0  0  0  0  0
   10.1950  -14.4223   29.2741 N   0  0  0  0  0  0  0  0  0  0  0  0
    8.9028  -14.1323   29.0318 C   0  0  0  0  0  0  0  0  0  0  0  0
    8.5450  -14.6647   27.8465 N   0  0  0  0  0  0  0  0  0  0  0  0
   11.2913  -17.5432   27.0033 C   0  0  0  0  0  0  0  0  0  0  0  0
   10.7081  -18.8044   27.1168 O   0  0  0  0  0  0  0  0  0  0  0  0
   12.0534  -17.1798   27.9354 O   0  0  0  0  0  0  0  0  0  0  0  0
  1  2  1  0
  3  2  1  0
  4  5  1  0
  4  3  1  0
  5  6  1  6
  5  7  1  0
  7  8  2  0
 10  9  1  6
 10 12  1  0
 10 11  1  0
 13  7  1  0
 12 13  1  6
 14 12  1  0
 14 16  1  0
 15 14  2  0
 16 17  1  0
 17 24  1  0
 17 18  1  1
 19 18  1  0
 20 19  2  0
 21 22  1  0
 21 20  1  0
 22 23  2  0
 23 19  1  0
 24 26  2  0
 24 25  1  0
M  END
$$$$
