MTH.pdb
     RDKit          3D

 26 26  0  0  1  0  0  0  0  0999 V2000
    8.1500  -11.9167   20.5831 C   0  0  0  0  0  0  0  0  0  0  0  0
    7.4339  -12.3390   18.9548 S   0  0  0  0  0  0  0  0  0  0  0  0
    7.9344  -14.0133   18.4684 C   0  0  0  0  0  0  0  0  0  0  0  0
    9.3580  -14.2216   18.8994 C   0  0  0  0  0  0  0  0  0  0  0  0
    9.8650  -15.6148   18.6815 C   0  0  2  0  0  0  0  0  0  0  0  0
    9.3743  -16.0388   17.3607 N   0  0  0  0  0  0  0  0  0  0  0  0
    9.4279  -16.5846   19.7154 C   0  0  0  0  0  0  0  0  0  0  0  0
    8.3667  -17.2075   19.6246 O   0  0  0  0  0  0  0  0  0  0  0  0
   10.2033  -19.8275   20.7278 C   0  0  0  0  0  0  0  0  0  0  0  0
   10.6155  -18.9985   21.9260 C   0  0  1  0  0  0  0  0  0  0  0  0
   11.9990  -18.8449   21.9922 O   0  0  0  0  0  0  0  0  0  0  0  0
    9.8973  -17.6720   21.9648 C   0  0  2  0  0  0  0  0  0  0  0  0
   10.2449  -16.8189   20.8579 N   0  0  0  0  0  0  0  0  0  0  0  0
   10.1228  -17.0210   23.2741 C   0  0  0  0  0  0  0  0  0  0  0  0
   10.9748  -16.1305   23.4708 O   0  0  0  0  0  0  0  0  0  0  0  0
    9.3227  -17.4326   24.3737 N   0  0  0  0  0  0  0  0  0  0  0  0
    9.6304  -16.9145   25.6916 C   0  0  1  0  0  0  0  0  0  0  0  0
    8.4372  -16.4991   26.4825 C   0  0  0  0  0  0  0  0  0  0  0  0
    7.9020  -15.1880   26.0331 C   0  0  0  0  0  0  0  0  0  0  0  0
    8.5151  -14.2793   25.1713 C   0  0  0  0  0  0  0  0  0  0  0  0
    7.7420  -13.2176   24.9975 N   0  0  0  0  0  0  0  0  0  0  0  0
    6.6332  -13.4205   25.7337 C   0  0  0  0  0  0  0  0  0  0  0  0
    6.7295  -14.6104   26.3593 N   0  0  0  0  0  0  0  0  0  0  0  0
   10.3160  -18.0186   26.4477 C   0  0  0  0  0  0  0  0  0  0  0  0
   10.7903  -17.8143   27.7426 O   0  0  0  0  0  0  0  0  0  0  0  0
   10.4885  -19.1603   25.9492 O   0  0  0  0  0  0  0  0  0  0  0  0
  1  2  1  0
  3  2  1  0
  4  5  1  0
  4  3  1  0
  5  6  1  6
  5  7  1  0
  7  8  2  0
 10  9  1  6
 10 12  1  0
 10 11  1  0
 13  7  1  0
 12 13  1  6
 14 12  1  0
 14 16  1  0
 15 14  2  0
 16 17  1  0
 17 24  1  0
 17 18  1  1
 19 18  1  0
 20 19  2  0
 21 22  1  0
 21 20  1  0
 22 23  2  0
 23 19  1  0
 24 26  2  0
 24 25  1  0
M  END
$$$$
