MTH.pdb
     RDKit          3D

 26 26  0  0  1  0  0  0  0  0999 V2000
    6.3213  -11.1312   25.5846 C   0  0  0  0  0  0  0  0  0  0  0  0
    6.3410  -12.3434   26.9530 S   0  0  0  0  0  0  0  0  0  0  0  0
    5.0046  -13.5506   26.7364 C   0  0  0  0  0  0  0  0  0  0  0  0
    5.2669  -14.3200   25.4735 C   0  0  0  0  0  0  0  0  0  0  0  0
    6.1836  -15.4921   25.6509 C   0  0  2  0  0  0  0  0  0  0  0  0
    7.2105  -15.0794   26.6206 N   0  0  0  0  0  0  0  0  0  0  0  0
    6.8308  -15.9473   24.3962 C   0  0  0  0  0  0  0  0  0  0  0  0
    6.1775  -16.3236   23.4194 O   0  0  0  0  0  0  0  0  0  0  0  0
    8.4225  -13.9163   22.2369 C   0  0  0  0  0  0  0  0  0  0  0  0
    8.4850  -15.3948   21.9164 C   0  0  1  0  0  0  0  0  0  0  0  0
    9.2175  -15.6377   20.7561 O   0  0  0  0  0  0  0  0  0  0  0  0
    8.9940  -16.2017   23.0854 C   0  0  2  0  0  0  0  0  0  0  0  0
    8.2511  -15.9580   24.2947 N   0  0  0  0  0  0  0  0  0  0  0  0
   10.4454  -15.9711   23.2562 C   0  0  0  0  0  0  0  0  0  0  0  0
   10.9739  -14.8405   23.2652 O   0  0  0  0  0  0  0  0  0  0  0  0
   11.2890  -17.1025   23.4200 N   0  0  0  0  0  0  0  0  0  0  0  0
   11.9047  -17.3312   24.7118 C   0  0  1  0  0  0  0  0  0  0  0  0
   10.9365  -17.5502   25.8238 C   0  0  0  0  0  0  0  0  0  0  0  0
   10.7014  -16.3102   26.6077 C   0  0  0  0  0  0  0  0  0  0  0  0
   11.1916  -15.0343   26.3319 C   0  0  0  0  0  0  0  0  0  0  0  0
   10.7759  -14.1741   27.2497 N   0  0  0  0  0  0  0  0  0  0  0  0
   10.0213  -14.8705   28.1204 C   0  0  0  0  0  0  0  0  0  0  0  0
    9.9761  -16.1606   27.7330 N   0  0  0  0  0  0  0  0  0  0  0  0
   12.7411  -18.5741   24.5850 C   0  0  0  0  0  0  0  0  0  0  0  0
   12.6480  -19.3896   23.4581 O   0  0  0  0  0  0  0  0  0  0  0  0
   13.5510  -18.9266   25.4803 O   0  0  0  0  0  0  0  0  0  0  0  0
  1  2  1  0
  3  2  1  0
  4  5  1  0
  4  3  1  0
  5  6  1  1
  5  7  1  0
  7  8  2  0
 10  9  1  1
 10 12  1  0
 10 11  1  0
 13  7  1  0
 12 13  1  1
 14 12  1  0
 14 16  1  0
 15 14  2  0
 16 17  1  0
 17 24  1  0
 17 18  1  1
 19 18  1  0
 20 19  2  0
 21 22  1  0
 21 20  1  0
 22 23  2  0
 23 19  1  0
 24 26  2  0
 24 25  1  0
M  END
$$$$
