VRV.pdb
     RDKit          3D

 26 25  0  0  1  0  0  0  0  0999 V2000
    8.9043  -13.0026   18.1283 C   0  0  0  0  0  0  0  0  0  0  0  0
    8.6002  -13.3421   19.5713 C   0  0  1  0  0  0  0  0  0  0  0  0
    7.3064  -12.6234   19.9271 C   0  0  0  0  0  0  0  0  0  0  0  0
    8.4293  -14.8421   19.6616 C   0  0  2  0  0  0  0  0  0  0  0  0
    7.5418  -15.2141   18.5739 N   0  0  0  0  0  0  0  0  0  0  0  0
    7.8837  -15.2665   20.9658 C   0  0  0  0  0  0  0  0  0  0  0  0
    6.6294  -15.2225   21.1113 O   0  0  0  0  0  0  0  0  0  0  0  0
    6.3329  -19.8787   25.9779 N   0  0  0  0  0  0  0  0  0  0  0  0
    7.3830  -20.0057   26.9301 C   0  0  0  0  0  0  0  0  0  0  0  0
    7.0861  -20.3056   28.1651 N   0  0  0  0  0  0  0  0  0  0  0  0
    8.7443  -19.8162   26.5943 N   0  0  0  0  0  0  0  0  0  0  0  0
    9.1101  -19.2975   25.3042 C   0  0  0  0  0  0  0  0  0  0  0  0
    8.4513  -17.9737   24.9891 C   0  0  0  0  0  0  0  0  0  0  0  0
    8.8323  -17.4302   23.6666 C   0  0  0  0  0  0  0  0  0  0  0  0
    8.1669  -16.1174   23.3421 C   0  0  2  0  0  0  0  0  0  0  0  0
    8.6860  -15.7127   22.0422 N   0  0  0  0  0  0  0  0  0  0  0  0
    8.5283  -15.1286   24.3815 C   0  0  0  0  0  0  0  0  0  0  0  0
    9.7101  -14.7307   24.4325 O   0  0  0  0  0  0  0  0  0  0  0  0
    7.8250  -20.4287   28.8876 C   0  0  0  0  0  0  0  0  0  0  0  0
    6.3338  -12.0685   25.5852 C   0  0  2  0  0  0  0  0  0  0  0  0
    6.9088  -12.7774   26.7915 C   0  0  0  0  0  0  0  0  0  0  0  0
    7.3460  -11.7649   27.8123 C   0  0  2  0  0  0  0  0  0  0  0  0
    8.0343  -13.6633   26.3160 N   0  0  0  0  0  0  0  0  0  0  0  0
    7.6182  -14.6053   25.3209 C   0  0  0  0  0  0  0  0  0  0  0  0
    8.6388  -14.3101   27.5058 O   0  0  0  0  0  0  0  0  0  0  0  0
    9.6783  -13.7504   28.2430 O   0  0  0  0  0  0  0  0  0  0  0  0
  2  3  1  6
  2  1  1  0
  4  2  1  0
  4  5  1  6
  6  4  1  0
  6  7  2  0
  9  8  1  0
 10  9  2  0
 11  9  1  0
 12 13  1  0
 12 11  1  0
 13 14  1  0
 15 14  1  1
 15 16  1  0
 16  6  1  0
 17 15  1  0
 18 17  2  0
 20 19  1  1
 20 22  1  0
 21 20  1  0
 22 24  1  0
 22 23  1  6
 23 17  1  0
 24 25  1  0
 26 24  2  0
M  END
$$$$
