VRV.pdb
     RDKit          3D

 26 25  0  0  1  0  0  0  0  0999 V2000
    8.3316  -12.6011   20.5051 C   0  0  0  0  0  0  0  0  0  0  0  0
    7.7340  -13.4809   19.4286 C   0  0  1  0  0  0  0  0  0  0  0  0
    8.4511  -13.1343   18.1314 C   0  0  0  0  0  0  0  0  0  0  0  0
    7.9883  -14.9193   19.8207 C   0  0  2  0  0  0  0  0  0  0  0  0
    7.3785  -15.7345   18.7851 N   0  0  0  0  0  0  0  0  0  0  0  0
    7.4363  -15.2435   21.1507 C   0  0  0  0  0  0  0  0  0  0  0  0
    6.1839  -15.1592   21.2947 O   0  0  0  0  0  0  0  0  0  0  0  0
    5.9121  -20.8145   26.2215 N   0  0  0  0  0  0  0  0  0  0  0  0
    6.7955  -21.0902   25.1403 C   0  0  0  0  0  0  0  0  0  0  0  0
    6.7017  -22.2352   24.5210 N   0  0  0  0  0  0  0  0  0  0  0  0
    7.7804  -20.1716   24.7066 N   0  0  0  0  0  0  0  0  0  0  0  0
    8.2757  -19.1601   25.6004 C   0  0  0  0  0  0  0  0  0  0  0  0
    7.7743  -17.7742   25.2634 C   0  0  0  0  0  0  0  0  0  0  0  0
    8.1112  -17.3483   23.8869 C   0  0  0  0  0  0  0  0  0  0  0  0
    7.7073  -15.9288   23.5814 C   0  0  2  0  0  0  0  0  0  0  0  0
    8.2306  -15.6377   22.2531 N   0  0  0  0  0  0  0  0  0  0  0  0
    8.3119  -15.0319   24.5908 C   0  0  0  0  0  0  0  0  0  0  0  0
    9.5565  -14.9556   24.6429 O   0  0  0  0  0  0  0  0  0  0  0  0
    7.3678  -22.5021   23.7672 C   0  0  0  0  0  0  0  0  0  0  0  0
    6.0755  -12.7365   27.4322 C   0  0  1  0  0  0  0  0  0  0  0  0
    7.3698  -12.2167   26.8468 C   0  0  0  0  0  0  0  0  0  0  0  0
    7.0713  -11.3009   25.6931 C   0  0  1  0  0  0  0  0  0  0  0  0
    8.2129  -13.4059   26.4562 N   0  0  0  0  0  0  0  0  0  0  0  0
    7.5678  -14.2550   25.5002 C   0  0  0  0  0  0  0  0  0  0  0  0
    8.5950  -14.1211   27.6978 O   0  0  0  0  0  0  0  0  0  0  0  0
    9.4827  -13.6098   28.6401 O   0  0  0  0  0  0  0  0  0  0  0  0
  2  3  1  6
  2  1  1  0
  4  2  1  0
  4  5  1  6
  6  4  1  0
  6  7  2  0
  9  8  1  0
 10  9  2  0
 11  9  1  0
 12 13  1  0
 12 11  1  0
 13 14  1  0
 15 14  1  1
 15 16  1  0
 16  6  1  0
 17 15  1  0
 18 17  2  0
 20 19  1  1
 20 22  1  0
 21 20  1  0
 22 24  1  0
 22 23  1  6
 23 17  1  0
 24 25  1  0
 26 24  2  0
M  END
$$$$
