VRV.pdb
     RDKit          3D

 26 25  0  0  1  0  0  0  0  0999 V2000
    8.8429  -13.4877   17.9945 C   0  0  0  0  0  0  0  0  0  0  0  0
    8.5350  -13.6934   19.4618 C   0  0  1  0  0  0  0  0  0  0  0  0
    7.4144  -12.7254   19.8141 C   0  0  0  0  0  0  0  0  0  0  0  0
    8.0880  -15.1274   19.6384 C   0  0  2  0  0  0  0  0  0  0  0  0
    7.1989  -15.4135   18.5264 N   0  0  0  0  0  0  0  0  0  0  0  0
    7.4139  -15.3489   20.9327 C   0  0  0  0  0  0  0  0  0  0  0  0
    6.2079  -14.9845   21.0278 O   0  0  0  0  0  0  0  0  0  0  0  0
    8.0804  -22.0066   23.9487 N   0  0  0  0  0  0  0  0  0  0  0  0
    6.7999  -21.4850   24.2859 C   0  0  0  0  0  0  0  0  0  0  0  0
    5.7370  -22.0138   23.7439 N   0  0  0  0  0  0  0  0  0  0  0  0
    6.6282  -20.4078   25.1871 N   0  0  0  0  0  0  0  0  0  0  0  0
    7.6847  -19.4541   25.3908 C   0  0  0  0  0  0  0  0  0  0  0  0
    7.2877  -18.0422   25.0240 C   0  0  0  0  0  0  0  0  0  0  0  0
    7.7347  -17.6410   23.6717 C   0  0  0  0  0  0  0  0  0  0  0  0
    7.3789  -16.2196   23.3184 C   0  0  2  0  0  0  0  0  0  0  0  0
    8.0443  -15.9401   22.0527 N   0  0  0  0  0  0  0  0  0  0  0  0
    7.8801  -15.3228   24.3830 C   0  0  0  0  0  0  0  0  0  0  0  0
    9.1111  -15.1351   24.4659 O   0  0  0  0  0  0  0  0  0  0  0  0
    4.7808  -21.6799   23.9834 C   0  0  0  0  0  0  0  0  0  0  0  0
    5.7122  -12.2843   26.0639 C   0  0  2  0  0  0  0  0  0  0  0  0
    6.5416  -13.0416   27.0772 C   0  0  0  0  0  0  0  0  0  0  0  0
    7.1143  -12.0811   28.0813 C   0  0  2  0  0  0  0  0  0  0  0  0
    7.5987  -13.8144   26.3269 N   0  0  0  0  0  0  0  0  0  0  0  0
    7.0514  -14.6641   25.3124 C   0  0  0  0  0  0  0  0  0  0  0  0
    8.4141  -14.5538   27.3207 O   0  0  0  0  0  0  0  0  0  0  0  0
    9.5485  -14.0277   27.9320 O   0  0  0  0  0  0  0  0  0  0  0  0
  2  3  1  6
  2  1  1  0
  4  2  1  0
  4  5  1  6
  6  4  1  0
  6  7  2  0
  9  8  1  0
 10  9  2  0
 11  9  1  0
 12 13  1  0
 12 11  1  0
 13 14  1  0
 15 14  1  1
 15 16  1  0
 16  6  1  0
 17 15  1  0
 18 17  2  0
 20 19  1  1
 20 22  1  0
 21 20  1  0
 22 24  1  0
 22 23  1  6
 23 17  1  0
 24 25  1  0
 26 24  2  0
M  END
$$$$
