VRV.pdb
     RDKit          3D

 26 25  0  0  1  0  0  0  0  0999 V2000
    8.5841  -12.1658   18.4711 C   0  0  0  0  0  0  0  0  0  0  0  0
    8.4232  -12.8242   19.8241 C   0  0  1  0  0  0  0  0  0  0  0  0
    6.9878  -12.5742   20.2649 C   0  0  0  0  0  0  0  0  0  0  0  0
    8.6859  -14.3030   19.6468 C   0  0  2  0  0  0  0  0  0  0  0  0
    7.8305  -14.7378   18.5568 N   0  0  0  0  0  0  0  0  0  0  0  0
    8.4160  -15.0716   20.8777 C   0  0  0  0  0  0  0  0  0  0  0  0
    7.2394  -15.4996   21.0474 O   0  0  0  0  0  0  0  0  0  0  0  0
   12.5062  -18.8124   19.6565 N   0  0  0  0  0  0  0  0  0  0  0  0
   11.6428  -19.9236   19.8685 C   0  0  0  0  0  0  0  0  0  0  0  0
   11.4020  -20.7377   18.8773 N   0  0  0  0  0  0  0  0  0  0  0  0
   11.0268  -20.1841   21.1154 N   0  0  0  0  0  0  0  0  0  0  0  0
   11.1191  -19.2289   22.1861 C   0  0  0  0  0  0  0  0  0  0  0  0
   10.1074  -18.1111   22.0720 C   0  0  0  0  0  0  0  0  0  0  0  0
   10.1737  -17.1451   23.1909 C   0  0  0  0  0  0  0  0  0  0  0  0
    9.1360  -16.0553   23.1060 C   0  0  2  0  0  0  0  0  0  0  0  0
    9.3965  -15.3469   21.8597 N   0  0  0  0  0  0  0  0  0  0  0  0
    9.2963  -15.1511   24.2659 C   0  0  0  0  0  0  0  0  0  0  0  0
   10.3458  -14.4813   24.3519 O   0  0  0  0  0  0  0  0  0  0  0  0
   10.7438  -21.5376   18.9779 C   0  0  0  0  0  0  0  0  0  0  0  0
    6.1695  -13.8913   26.7735 C   0  0  1  0  0  0  0  0  0  0  0  0
    7.4721  -13.1366   26.6251 C   0  0  0  0  0  0  0  0  0  0  0  0
    7.3564  -12.1442   25.5024 C   0  0  1  0  0  0  0  0  0  0  0  0
    8.5720  -14.1475   26.4111 N   0  0  0  0  0  0  0  0  0  0  0  0
    8.3342  -14.9978   25.2835 C   0  0  0  0  0  0  0  0  0  0  0  0
    8.7498  -14.9020   27.6753 O   0  0  0  0  0  0  0  0  0  0  0  0
    9.3147  -14.3579   28.8251 O   0  0  0  0  0  0  0  0  0  0  0  0
  2  3  1  6
  2  1  1  0
  4  2  1  0
  4  5  1  6
  6  4  1  0
  6  7  2  0
  9  8  1  0
 10  9  2  0
 11  9  1  0
 12 13  1  0
 12 11  1  0
 13 14  1  0
 15 14  1  1
 15 16  1  0
 16  6  1  0
 17 15  1  0
 18 17  2  0
 20 19  1  1
 20 22  1  0
 21 20  1  0
 22 24  1  0
 22 23  1  6
 23 17  1  0
 24 25  1  0
 26 24  2  0
M  END
$$$$
