VRV.pdb
     RDKit          3D

 26 25  0  0  1  0  0  0  0  0999 V2000
    7.7139  -12.4411   20.6369 C   0  0  0  0  0  0  0  0  0  0  0  0
    7.6461  -13.2914   19.3869 C   0  0  1  0  0  0  0  0  0  0  0  0
    8.1947  -12.4420   18.2491 C   0  0  0  0  0  0  0  0  0  0  0  0
    8.5093  -14.5118   19.6171 C   0  0  2  0  0  0  0  0  0  0  0  0
    8.3179  -15.3666   18.4588 N   0  0  0  0  0  0  0  0  0  0  0  0
    8.1607  -15.2173   20.8658 C   0  0  0  0  0  0  0  0  0  0  0  0
    7.0327  -15.7843   20.9156 O   0  0  0  0  0  0  0  0  0  0  0  0
   12.4920  -20.2439   19.9790 N   0  0  0  0  0  0  0  0  0  0  0  0
   11.4491  -19.4767   20.5699 C   0  0  0  0  0  0  0  0  0  0  0  0
   10.5329  -18.9539   19.8013 N   0  0  0  0  0  0  0  0  0  0  0  0
   11.3636  -19.2517   21.9642 N   0  0  0  0  0  0  0  0  0  0  0  0
   10.1038  -19.3775   22.6455 C   0  0  0  0  0  0  0  0  0  0  0  0
    9.2162  -18.1648   22.4792 C   0  0  0  0  0  0  0  0  0  0  0  0
    9.5102  -17.0867   23.4491 C   0  0  0  0  0  0  0  0  0  0  0  0
    8.6417  -15.8675   23.2735 C   0  0  2  0  0  0  0  0  0  0  0  0
    9.0160  -15.2872   21.9905 N   0  0  0  0  0  0  0  0  0  0  0  0
    8.9175  -14.9212   24.3768 C   0  0  0  0  0  0  0  0  0  0  0  0
   10.0570  -14.4176   24.4518 O   0  0  0  0  0  0  0  0  0  0  0  0
    9.6981  -18.4758   20.1981 C   0  0  0  0  0  0  0  0  0  0  0  0
    5.9778  -13.4971   27.1178 C   0  0  1  0  0  0  0  0  0  0  0  0
    7.2135  -12.6984   26.7666 C   0  0  0  0  0  0  0  0  0  0  0  0
    6.9004  -11.7500   25.6435 C   0  0  1  0  0  0  0  0  0  0  0  0
    8.3154  -13.6728   26.4293 N   0  0  0  0  0  0  0  0  0  0  0  0
    7.9705  -14.5510   25.3518 C   0  0  0  0  0  0  0  0  0  0  0  0
    8.6784  -14.3979   27.6709 O   0  0  0  0  0  0  0  0  0  0  0  0
    9.3313  -13.8046   28.7474 O   0  0  0  0  0  0  0  0  0  0  0  0
  2  3  1  6
  2  1  1  0
  4  2  1  0
  4  5  1  6
  6  4  1  0
  6  7  2  0
  9  8  1  0
 10  9  2  0
 11  9  1  0
 12 13  1  0
 12 11  1  0
 13 14  1  0
 15 14  1  1
 15 16  1  0
 16  6  1  0
 17 15  1  0
 18 17  2  0
 20 19  1  1
 20 22  1  0
 21 20  1  0
 22 24  1  0
 22 23  1  6
 23 17  1  0
 24 25  1  0
 26 24  2  0
M  END
$$$$
