VRV.pdb
     RDKit          3D

 26 25  0  0  1  0  0  0  0  0999 V2000
    8.2544  -12.4109   18.0676 C   0  0  0  0  0  0  0  0  0  0  0  0
    7.6311  -12.9416   19.3404 C   0  0  1  0  0  0  0  0  0  0  0  0
    6.6514  -14.0309   18.9271 C   0  0  0  0  0  0  0  0  0  0  0  0
    8.7444  -13.5090   20.1924 C   0  0  2  0  0  0  0  0  0  0  0  0
    9.4167  -14.5004   19.3714 N   0  0  0  0  0  0  0  0  0  0  0  0
    8.2426  -14.1044   21.4464 C   0  0  0  0  0  0  0  0  0  0  0  0
    7.5479  -13.3665   22.2009 O   0  0  0  0  0  0  0  0  0  0  0  0
    9.6290  -19.2148   19.1753 N   0  0  0  0  0  0  0  0  0  0  0  0
    8.4973  -20.0569   19.3633 C   0  0  0  0  0  0  0  0  0  0  0  0
    7.9075  -20.5692   18.3179 N   0  0  0  0  0  0  0  0  0  0  0  0
    7.9780  -20.3623   20.6436 N   0  0  0  0  0  0  0  0  0  0  0  0
    8.4438  -19.6549   21.8054 C   0  0  0  0  0  0  0  0  0  0  0  0
    7.9802  -18.2165   21.8490 C   0  0  0  0  0  0  0  0  0  0  0  0
    8.4653  -17.4808   23.0377 C   0  0  0  0  0  0  0  0  0  0  0  0
    8.0222  -16.0408   23.0752 C   0  0  2  0  0  0  0  0  0  0  0  0
    8.4986  -15.4400   21.8362 N   0  0  0  0  0  0  0  0  0  0  0  0
    8.6381  -15.3814   24.2477 C   0  0  0  0  0  0  0  0  0  0  0  0
    9.8787  -15.2476   24.2658 O   0  0  0  0  0  0  0  0  0  0  0  0
    6.9958  -21.0649   18.3962 C   0  0  0  0  0  0  0  0  0  0  0  0
    6.4994  -13.1696   27.1508 C   0  0  1  0  0  0  0  0  0  0  0  0
    7.9623  -12.9459   26.8375 C   0  0  0  0  0  0  0  0  0  0  0  0
    8.0952  -11.9132   25.7538 C   0  0  1  0  0  0  0  0  0  0  0  0
    8.5656  -14.2778   26.4636 N   0  0  0  0  0  0  0  0  0  0  0  0
    7.9088  -14.8926   25.3494 C   0  0  0  0  0  0  0  0  0  0  0  0
    8.5685  -15.1329   27.6752 O   0  0  0  0  0  0  0  0  0  0  0  0
    9.3333  -14.8643   28.8067 O   0  0  0  0  0  0  0  0  0  0  0  0
  2  3  1  6
  2  1  1  0
  4  2  1  0
  4  5  1  6
  6  4  1  0
  6  7  2  0
  9  8  1  0
 10  9  2  0
 11  9  1  0
 12 13  1  0
 12 11  1  0
 13 14  1  0
 15 14  1  6
 15 16  1  0
 16  6  1  0
 17 15  1  0
 18 17  2  0
 20 19  1  1
 20 22  1  0
 21 20  1  0
 22 24  1  0
 22 23  1  6
 23 17  1  0
 24 25  1  0
 26 24  2  0
M  END
$$$$
