VRV.pdb
     RDKit          3D

 26 25  0  0  1  0  0  0  0  0999 V2000
    7.1227  -12.8632   19.1271 C   0  0  0  0  0  0  0  0  0  0  0  0
    8.5461  -13.3101   18.8736 C   0  0  1  0  0  0  0  0  0  0  0  0
    9.4220  -12.5716   19.8758 C   0  0  0  0  0  0  0  0  0  0  0  0
    8.6034  -14.8041   19.1013 C   0  0  2  0  0  0  0  0  0  0  0  0
    7.9158  -15.4113   17.9756 N   0  0  0  0  0  0  0  0  0  0  0  0
    7.9854  -15.1999   20.3820 C   0  0  0  0  0  0  0  0  0  0  0  0
    6.7232  -15.2181   20.4353 O   0  0  0  0  0  0  0  0  0  0  0  0
   12.4569  -18.0019   20.3290 N   0  0  0  0  0  0  0  0  0  0  0  0
   12.2786  -19.2000   21.0760 C   0  0  0  0  0  0  0  0  0  0  0  0
   13.2703  -20.0435   21.1680 N   0  0  0  0  0  0  0  0  0  0  0  0
   11.0630  -19.5205   21.7252 N   0  0  0  0  0  0  0  0  0  0  0  0
   10.7188  -18.8969   22.9742 C   0  0  0  0  0  0  0  0  0  0  0  0
   10.1667  -17.4993   22.8067 C   0  0  0  0  0  0  0  0  0  0  0  0
    8.6999  -17.4238   22.9865 C   0  0  0  0  0  0  0  0  0  0  0  0
    8.1390  -16.0412   22.7737 C   0  0  2  0  0  0  0  0  0  0  0  0
    8.7278  -15.5539   21.5332 N   0  0  0  0  0  0  0  0  0  0  0  0
    8.5341  -15.1844   23.9131 C   0  0  0  0  0  0  0  0  0  0  0  0
    9.6201  -14.5734   23.8438 O   0  0  0  0  0  0  0  0  0  0  0  0
   13.1861  -20.9245   21.7155 C   0  0  0  0  0  0  0  0  0  0  0  0
    6.4136  -12.4796   25.2714 C   0  0  1  0  0  0  0  0  0  0  0  0
    6.9408  -13.1917   26.4975 C   0  0  0  0  0  0  0  0  0  0  0  0
    7.3004  -12.1836   27.5524 C   0  0  2  0  0  0  0  0  0  0  0  0
    8.1099  -14.0456   26.0711 N   0  0  0  0  0  0  0  0  0  0  0  0
    7.7578  -15.0137   25.0762 C   0  0  0  0  0  0  0  0  0  0  0  0
    8.6960  -14.6565   27.2886 O   0  0  0  0  0  0  0  0  0  0  0  0
    9.5293  -13.9731   28.1695 O   0  0  0  0  0  0  0  0  0  0  0  0
  2  3  1  1
  2  1  1  0
  4  2  1  0
  4  5  1  6
  6  4  1  0
  6  7  2  0
  9  8  1  0
 10  9  2  0
 11  9  1  0
 12 13  1  0
 12 11  1  0
 13 14  1  0
 15 14  1  1
 15 16  1  0
 16  6  1  0
 17 15  1  0
 18 17  2  0
 20 19  1  1
 20 22  1  0
 21 20  1  0
 22 24  1  0
 22 23  1  6
 23 17  1  0
 24 25  1  0
 26 24  2  0
M  END
$$$$
