VRV.pdb
     RDKit          3D

 26 25  0  0  1  0  0  0  0  0999 V2000
    8.2355  -12.4911   17.9656 C   0  0  0  0  0  0  0  0  0  0  0  0
    7.5474  -13.0376   19.1976 C   0  0  1  0  0  0  0  0  0  0  0  0
    6.5919  -14.1223   18.7207 C   0  0  0  0  0  0  0  0  0  0  0  0
    8.6156  -13.6146   20.0995 C   0  0  2  0  0  0  0  0  0  0  0  0
    9.2925  -14.6371   19.3216 N   0  0  0  0  0  0  0  0  0  0  0  0
    8.0551  -14.1740   21.3452 C   0  0  0  0  0  0  0  0  0  0  0  0
    7.3580  -13.4036   22.0642 O   0  0  0  0  0  0  0  0  0  0  0  0
    5.3741  -21.3550   23.9757 N   0  0  0  0  0  0  0  0  0  0  0  0
    6.1769  -21.2355   25.1448 C   0  0  0  0  0  0  0  0  0  0  0  0
    5.7895  -21.8248   26.2429 N   0  0  0  0  0  0  0  0  0  0  0  0
    7.3838  -20.4974   25.1692 N   0  0  0  0  0  0  0  0  0  0  0  0
    7.8279  -19.7901   23.9988 C   0  0  0  0  0  0  0  0  0  0  0  0
    7.4060  -18.3383   23.9879 C   0  0  0  0  0  0  0  0  0  0  0  0
    8.1663  -17.5149   23.0217 C   0  0  0  0  0  0  0  0  0  0  0  0
    7.7560  -16.0647   23.0146 C   0  0  2  0  0  0  0  0  0  0  0  0
    8.2583  -15.5097   21.7645 N   0  0  0  0  0  0  0  0  0  0  0  0
    8.3752  -15.3871   24.1748 C   0  0  0  0  0  0  0  0  0  0  0  0
    9.6196  -15.3974   24.2697 O   0  0  0  0  0  0  0  0  0  0  0  0
    6.3749  -21.8110   27.1032 C   0  0  0  0  0  0  0  0  0  0  0  0
    6.1611  -13.2519   27.1129 C   0  0  1  0  0  0  0  0  0  0  0  0
    7.5639  -12.8313   26.7338 C   0  0  0  0  0  0  0  0  0  0  0  0
    7.5033  -11.7457   25.6962 C   0  0  1  0  0  0  0  0  0  0  0  0
    8.3053  -14.0589   26.2640 N   0  0  0  0  0  0  0  0  0  0  0  0
    7.6453  -14.7276   25.1832 C   0  0  0  0  0  0  0  0  0  0  0  0
    8.5229  -14.9372   27.4389 O   0  0  0  0  0  0  0  0  0  0  0  0
    7.9201  -16.1823   27.5931 O   0  0  0  0  0  0  0  0  0  0  0  0
  2  3  1  6
  2  1  1  0
  4  2  1  0
  4  5  1  6
  6  4  1  0
  6  7  2  0
  9  8  1  0
 10  9  2  0
 11  9  1  0
 12 13  1  0
 12 11  1  0
 13 14  1  0
 15 14  1  6
 15 16  1  0
 16  6  1  0
 17 15  1  0
 18 17  2  0
 20 19  1  1
 20 22  1  0
 21 20  1  0
 22 24  1  0
 22 23  1  6
 23 17  1  0
 24 25  1  0
 26 24  2  0
M  END
$$$$
