VRV.pdb
     RDKit          3D

 26 25  0  0  1  0  0  0  0  0999 V2000
    8.1730  -13.3651   18.1149 C   0  0  0  0  0  0  0  0  0  0  0  0
    7.5198  -13.6228   19.4554 C   0  0  1  0  0  0  0  0  0  0  0  0
    6.3550  -14.5690   19.2003 C   0  0  0  0  0  0  0  0  0  0  0  0
    8.5543  -14.2662   20.3517 C   0  0  2  0  0  0  0  0  0  0  0  0
    8.9874  -15.4721   19.6683 N   0  0  0  0  0  0  0  0  0  0  0  0
    8.0200  -14.5741   21.6928 C   0  0  0  0  0  0  0  0  0  0  0  0
    7.5672  -13.6096   22.3717 O   0  0  0  0  0  0  0  0  0  0  0  0
    4.5847  -20.3309   22.5333 N   0  0  0  0  0  0  0  0  0  0  0  0
    5.5803  -20.8079   21.6351 C   0  0  0  0  0  0  0  0  0  0  0  0
    5.2242  -21.1923   20.4399 N   0  0  0  0  0  0  0  0  0  0  0  0
    6.9488  -20.8872   21.9856 N   0  0  0  0  0  0  0  0  0  0  0  0
    7.4931  -20.0191   22.9942 C   0  0  0  0  0  0  0  0  0  0  0  0
    7.1698  -18.5611   22.7587 C   0  0  0  0  0  0  0  0  0  0  0  0
    7.7459  -17.6609   23.7822 C   0  0  0  0  0  0  0  0  0  0  0  0
    7.4311  -16.2057   23.5481 C   0  0  2  0  0  0  0  0  0  0  0  0
    7.9917  -15.8766   22.2440 N   0  0  0  0  0  0  0  0  0  0  0  0
    8.0713  -15.4010   24.6117 C   0  0  0  0  0  0  0  0  0  0  0  0
    9.3178  -15.3480   24.6426 O   0  0  0  0  0  0  0  0  0  0  0  0
    5.9225  -21.5335   19.7477 C   0  0  0  0  0  0  0  0  0  0  0  0
    6.5898  -11.9969   25.8110 C   0  0  1  0  0  0  0  0  0  0  0  0
    7.1610  -12.7032   27.0206 C   0  0  0  0  0  0  0  0  0  0  0  0
    7.9037  -11.7174   27.8780 C   0  0  2  0  0  0  0  0  0  0  0  0
    8.0309  -13.8344   26.5294 N   0  0  0  0  0  0  0  0  0  0  0  0
    7.3591  -14.6875   25.5957 C   0  0  0  0  0  0  0  0  0  0  0  0
    8.5408  -14.5650   27.7149 O   0  0  0  0  0  0  0  0  0  0  0  0
    9.5476  -14.0806   28.5449 O   0  0  0  0  0  0  0  0  0  0  0  0
  2  3  1  6
  2  1  1  0
  4  2  1  0
  4  5  1  6
  6  4  1  0
  6  7  2  0
  9  8  1  0
 10  9  2  0
 11  9  1  0
 12 13  1  0
 12 11  1  0
 13 14  1  0
 15 14  1  1
 15 16  1  0
 16  6  1  0
 17 15  1  0
 18 17  2  0
 20 19  1  1
 20 22  1  0
 21 20  1  0
 22 24  1  0
 22 23  1  6
 23 17  1  0
 24 25  1  0
 26 24  2  0
M  END
$$$$
