VRV.pdb
     RDKit          3D

 26 25  0  0  1  0  0  0  0  0999 V2000
    2.3040  -18.9709   22.3418 C   0  0  0  0  0  0  0  0  0  0  0  0
    3.6878  -18.4070   22.5813 C   0  0  1  0  0  0  0  0  0  0  0  0
    4.2910  -19.2005   23.7317 C   0  0  0  0  0  0  0  0  0  0  0  0
    4.4864  -18.6009   21.3117 C   0  0  2  0  0  0  0  0  0  0  0  0
    4.3665  -20.0071   20.9696 N   0  0  0  0  0  0  0  0  0  0  0  0
    5.9001  -18.2085   21.4735 C   0  0  0  0  0  0  0  0  0  0  0  0
    6.6936  -19.0772   21.9340 O   0  0  0  0  0  0  0  0  0  0  0  0
    8.4705  -12.1054   18.0455 N   0  0  0  0  0  0  0  0  0  0  0  0
    8.3368  -13.3654   17.3975 C   0  0  0  0  0  0  0  0  0  0  0  0
    7.6603  -13.4371   16.2838 N   0  0  0  0  0  0  0  0  0  0  0  0
    8.9067  -14.5531   17.9140 N   0  0  0  0  0  0  0  0  0  0  0  0
    9.9326  -14.4904   18.9193 C   0  0  0  0  0  0  0  0  0  0  0  0
    9.5241  -15.1355   20.2242 C   0  0  0  0  0  0  0  0  0  0  0  0
    8.0994  -15.5337   20.2597 C   0  0  0  0  0  0  0  0  0  0  0  0
    7.7716  -16.4943   21.3739 C   0  0  2  0  0  0  0  0  0  0  0  0
    6.3996  -16.9270   21.1426 N   0  0  0  0  0  0  0  0  0  0  0  0
    7.8859  -15.7839   22.6666 C   0  0  0  0  0  0  0  0  0  0  0  0
    7.2490  -14.7209   22.8145 O   0  0  0  0  0  0  0  0  0  0  0  0
    7.6311  -14.3116   15.7204 C   0  0  0  0  0  0  0  0  0  0  0  0
    6.9318  -16.6282   26.0416 C   0  0  1  0  0  0  0  0  0  0  0  0
    7.4629  -15.2681   25.6463 C   0  0  0  0  0  0  0  0  0  0  0  0
    6.4510  -14.5591   24.7908 C   0  0  1  0  0  0  0  0  0  0  0  0
    8.7874  -15.4711   24.9520 N   0  0  0  0  0  0  0  0  0  0  0  0
    8.6716  -16.2342   23.7456 C   0  0  0  0  0  0  0  0  0  0  0  0
    9.7261  -16.0747   25.9286 O   0  0  0  0  0  0  0  0  0  0  0  0
   10.1954  -15.4111   27.0585 O   0  0  0  0  0  0  0  0  0  0  0  0
  2  3  1  1
  2  1  1  0
  4  2  1  0
  4  5  1  1
  6  4  1  0
  6  7  2  0
  9  8  1  0
 10  9  2  0
 11  9  1  0
 12 13  1  0
 12 11  1  0
 13 14  1  0
 15 14  1  6
 15 16  1  0
 16  6  1  0
 17 15  1  0
 18 17  2  0
 20 19  1  1
 20 22  1  0
 21 20  1  0
 22 24  1  0
 22 23  1  6
 23 17  1  0
 24 25  1  0
 26 24  2  0
M  END
$$$$
