AVW.pdb
     RDKit          3D

 27 28  0  0  1  0  0  0  0  0999 V2000
    8.6426  -19.7708   19.8072 C   0  0  0  0  0  0  0  0  0  0  0  0
    8.5941  -18.5075   19.0077 C   0  0  2  0  0  0  0  0  0  0  0  0
    9.3623  -18.6524   17.7865 N   0  0  0  0  0  0  0  0  0  0  0  0
    8.9525  -17.3018   19.7612 C   0  0  0  0  0  0  0  0  0  0  0  0
   10.1697  -17.0009   19.8932 O   0  0  0  0  0  0  0  0  0  0  0  0
    6.8945  -13.8648   19.7276 C   0  0  0  0  0  0  0  0  0  0  0  0
    7.3083  -14.2516   21.1094 C   0  0  2  0  0  0  0  0  0  0  0  0
    7.7433  -12.9630   21.8201 C   0  0  0  0  0  0  0  0  0  0  0  0
    8.4135  -15.2777   21.1591 C   0  0  2  0  0  0  0  0  0  0  0  0
    8.0212  -16.4154   20.3746 N   0  0  0  0  0  0  0  0  0  0  0  0
    8.6855  -15.6103   22.5658 C   0  0  0  0  0  0  0  0  0  0  0  0
    8.0079  -16.5075   23.1433 O   0  0  0  0  0  0  0  0  0  0  0  0
    9.6929  -14.9782   23.3730 N   0  0  0  0  0  0  0  0  0  0  0  0
    9.9142  -15.3637   24.7446 C   0  0  1  0  0  0  0  0  0  0  0  0
    8.7471  -15.9811   25.4368 C   0  0  0  0  0  0  0  0  0  0  0  0
    7.6145  -15.1111   25.7334 C   0  0  0  0  0  0  0  0  0  0  0  0
    6.2758  -15.4687   25.5112 C   0  0  0  0  0  0  0  0  0  0  0  0
    5.5532  -14.4099   25.8935 N   0  0  0  0  0  0  0  0  0  0  0  0
    6.3552  -13.4104   26.3420 C   0  0  0  0  0  0  0  0  0  0  0  0
    6.0688  -12.1532   26.8360 C   0  0  0  0  0  0  0  0  0  0  0  0
    7.0860  -11.3274   27.2342 C   0  0  0  0  0  0  0  0  0  0  0  0
    8.4192  -11.7430   27.1467 C   0  0  0  0  0  0  0  0  0  0  0  0
    8.6942  -12.9924   26.6548 C   0  0  0  0  0  0  0  0  0  0  0  0
    7.6797  -13.8317   26.2509 C   0  0  0  0  0  0  0  0  0  0  0  0
   11.1225  -16.2171   24.7874 C   0  0  0  0  0  0  0  0  0  0  0  0
   11.8085  -16.4861   23.6249 O   0  0  0  0  0  0  0  0  0  0  0  0
   11.5166  -16.6911   25.8780 O   0  0  0  0  0  0  0  0  0  0  0  0
  2  1  1  1
  2  3  1  0
  4  5  2  0
  4  2  1  0
  7  6  1  6
  7  9  1  0
  8  7  1  0
  9 10  1  6
 10  4  1  0
 11  9  1  0
 11 13  1  0
 12 11  2  0
 14 13  1  0
 14 25  1  0
 14 15  1  6
 16 15  1  0
 17 16  2  0
 18 17  1  0
 19 18  1  0
 19 24  2  0
 20 19  1  0
 21 20  2  0
 21 22  1  0
 22 23  2  0
 23 24  1  0
 24 16  1  0
 25 26  1  0
 27 25  2  0
M  END
$$$$
