AVW.pdb
     RDKit          3D

 27 28  0  0  1  0  0  0  0  0999 V2000
    8.1424  -12.6006   19.8197 C   0  0  0  0  0  0  0  0  0  0  0  0
    8.1276  -13.9783   19.2372 C   0  0  2  0  0  0  0  0  0  0  0  0
    6.9241  -14.1833   18.4550 N   0  0  0  0  0  0  0  0  0  0  0  0
    8.3571  -15.0488   20.2125 C   0  0  0  0  0  0  0  0  0  0  0  0
    7.3647  -15.6283   20.7311 O   0  0  0  0  0  0  0  0  0  0  0  0
   10.4428  -18.1297   19.6311 C   0  0  0  0  0  0  0  0  0  0  0  0
   10.8399  -17.5514   20.9494 C   0  0  2  0  0  0  0  0  0  0  0  0
   11.0861  -18.7332   21.8969 C   0  0  0  0  0  0  0  0  0  0  0  0
    9.8232  -16.6064   21.5413 C   0  0  2  0  0  0  0  0  0  0  0  0
    9.6378  -15.5049   20.6380 N   0  0  0  0  0  0  0  0  0  0  0  0
   10.2855  -16.1908   22.8743 C   0  0  0  0  0  0  0  0  0  0  0  0
   11.1123  -15.2414   22.9866 O   0  0  0  0  0  0  0  0  0  0  0  0
    9.8636  -16.7947   24.1086 N   0  0  0  0  0  0  0  0  0  0  0  0
   10.2147  -16.2269   25.3866 C   0  0  1  0  0  0  0  0  0  0  0  0
    9.7813  -14.8176   25.6065 C   0  0  0  0  0  0  0  0  0  0  0  0
    8.3639  -14.5917   25.8670 C   0  0  0  0  0  0  0  0  0  0  0  0
    7.3743  -15.5737   25.7069 C   0  0  0  0  0  0  0  0  0  0  0  0
    6.2210  -14.9767   26.0280 N   0  0  0  0  0  0  0  0  0  0  0  0
    6.4256  -13.6816   26.3797 C   0  0  0  0  0  0  0  0  0  0  0  0
    5.5543  -12.6904   26.7860 C   0  0  0  0  0  0  0  0  0  0  0  0
    6.0321  -11.4449   27.0950 C   0  0  0  0  0  0  0  0  0  0  0  0
    7.3994  -11.1615   27.0040 C   0  0  0  0  0  0  0  0  0  0  0  0
    8.2570  -12.1513   26.5996 C   0  0  0  0  0  0  0  0  0  0  0  0
    7.7880  -13.4077   26.2858 C   0  0  0  0  0  0  0  0  0  0  0  0
    9.7304  -17.1461   26.4405 C   0  0  0  0  0  0  0  0  0  0  0  0
   10.0998  -16.9369   27.7497 O   0  0  0  0  0  0  0  0  0  0  0  0
    8.9880  -18.1091   26.1393 O   0  0  0  0  0  0  0  0  0  0  0  0
  2  1  1  1
  2  3  1  0
  4  5  2  0
  4  2  1  0
  7  6  1  6
  7  9  1  0
  8  7  1  0
  9 10  1  6
 10  4  1  0
 11  9  1  0
 11 13  1  0
 12 11  2  0
 14 13  1  0
 14 25  1  0
 14 15  1  1
 16 15  1  0
 17 16  2  0
 18 17  1  0
 19 18  1  0
 19 24  2  0
 20 19  1  0
 21 20  2  0
 21 22  1  0
 22 23  2  0
 23 24  1  0
 24 16  1  0
 25 26  1  0
 27 25  2  0
M  END
$$$$
