AVW.pdb
     RDKit          3D

 27 28  0  0  1  0  0  0  0  0999 V2000
    8.7825  -19.1440   19.4403 C   0  0  0  0  0  0  0  0  0  0  0  0
    8.5740  -18.0037   18.4948 C   0  0  2  0  0  0  0  0  0  0  0  0
    8.8978  -18.4051   17.1397 N   0  0  0  0  0  0  0  0  0  0  0  0
    9.2429  -16.7605   18.8912 C   0  0  0  0  0  0  0  0  0  0  0  0
   10.4285  -16.5556   18.5144 O   0  0  0  0  0  0  0  0  0  0  0  0
    7.0859  -13.5149   20.7084 C   0  0  0  0  0  0  0  0  0  0  0  0
    8.2541  -13.3774   19.7882 C   0  0  2  0  0  0  0  0  0  0  0  0
    7.6943  -13.3575   18.3595 C   0  0  0  0  0  0  0  0  0  0  0  0
    9.2865  -14.4683   19.9328 C   0  0  2  0  0  0  0  0  0  0  0  0
    8.6554  -15.7351   19.6865 N   0  0  0  0  0  0  0  0  0  0  0  0
    9.8900  -14.3723   21.2707 C   0  0  0  0  0  0  0  0  0  0  0  0
   10.3389  -13.2644   21.6812 O   0  0  0  0  0  0  0  0  0  0  0  0
   10.0201  -15.4719   22.1872 N   0  0  0  0  0  0  0  0  0  0  0  0
    9.3478  -15.4764   23.4627 C   0  0  1  0  0  0  0  0  0  0  0  0
    7.8856  -15.1892   23.4214 C   0  0  0  0  0  0  0  0  0  0  0  0
    7.2362  -14.8665   24.6871 C   0  0  0  0  0  0  0  0  0  0  0  0
    6.3214  -15.7121   25.3333 C   0  0  0  0  0  0  0  0  0  0  0  0
    5.9491  -15.0593   26.4400 N   0  0  0  0  0  0  0  0  0  0  0  0
    6.5735  -13.8570   26.5283 C   0  0  0  0  0  0  0  0  0  0  0  0
    6.5121  -12.8566   27.4781 C   0  0  0  0  0  0  0  0  0  0  0  0
    7.2663  -11.7237   27.3271 C   0  0  0  0  0  0  0  0  0  0  0  0
    8.1031  -11.5654   26.2168 C   0  0  0  0  0  0  0  0  0  0  0  0
    8.1575  -12.5634   25.2789 C   0  0  0  0  0  0  0  0  0  0  0  0
    7.4034  -13.7072   25.4198 C   0  0  0  0  0  0  0  0  0  0  0  0
    9.6612  -16.7559   24.1370 C   0  0  0  0  0  0  0  0  0  0  0  0
    9.9223  -16.7682   25.4882 O   0  0  0  0  0  0  0  0  0  0  0  0
    9.6881  -17.8212   23.4783 O   0  0  0  0  0  0  0  0  0  0  0  0
  2  1  1  1
  2  3  1  0
  4  5  2  0
  4  2  1  0
  7  6  1  1
  7  9  1  0
  8  7  1  0
  9 10  1  1
 10  4  1  0
 11  9  1  0
 11 13  1  0
 12 11  2  0
 14 13  1  0
 14 25  1  0
 14 15  1  6
 16 15  1  0
 17 16  2  0
 18 17  1  0
 19 18  1  0
 19 24  2  0
 20 19  1  0
 21 20  2  0
 21 22  1  0
 22 23  2  0
 23 24  1  0
 24 16  1  0
 25 26  1  0
 27 25  2  0
M  END
$$$$
