AVW.pdb
     RDKit          3D

 27 28  0  0  1  0  0  0  0  0999 V2000
    7.7436  -19.6786   21.0317 C   0  0  0  0  0  0  0  0  0  0  0  0
    7.7467  -18.7212   19.8823 C   0  0  2  0  0  0  0  0  0  0  0  0
    8.2082  -19.3808   18.6764 N   0  0  0  0  0  0  0  0  0  0  0  0
    8.4544  -17.4642   20.1453 C   0  0  0  0  0  0  0  0  0  0  0  0
    9.6934  -17.4000   19.9207 O   0  0  0  0  0  0  0  0  0  0  0  0
    6.7639  -13.7605   19.7007 C   0  0  0  0  0  0  0  0  0  0  0  0
    7.5941  -13.9130   20.9327 C   0  0  2  0  0  0  0  0  0  0  0  0
    8.3345  -12.5845   21.1369 C   0  0  0  0  0  0  0  0  0  0  0  0
    8.5752  -15.0583   20.8790 C   0  0  2  0  0  0  0  0  0  0  0  0
    7.8492  -16.2758   20.6460 N   0  0  0  0  0  0  0  0  0  0  0  0
    9.3489  -15.0756   22.1297 C   0  0  0  0  0  0  0  0  0  0  0  0
   10.2493  -14.2105   22.3254 O   0  0  0  0  0  0  0  0  0  0  0  0
    9.1641  -16.0288   23.1896 N   0  0  0  0  0  0  0  0  0  0  0  0
    9.8743  -15.9166   24.4393 C   0  0  1  0  0  0  0  0  0  0  0  0
    9.0455  -16.0759   25.6681 C   0  0  0  0  0  0  0  0  0  0  0  0
    7.8362  -15.2656   25.7631 C   0  0  0  0  0  0  0  0  0  0  0  0
    6.5429  -15.7642   25.5440 C   0  0  0  0  0  0  0  0  0  0  0  0
    5.7229  -14.7205   25.7101 N   0  0  0  0  0  0  0  0  0  0  0  0
    6.4212  -13.5983   26.0201 C   0  0  0  0  0  0  0  0  0  0  0  0
    6.0143  -12.3052   26.2826 C   0  0  0  0  0  0  0  0  0  0  0  0
    6.9426  -11.3440   26.5819 C   0  0  0  0  0  0  0  0  0  0  0  0
    8.3058  -11.6566   26.6256 C   0  0  0  0  0  0  0  0  0  0  0  0
    8.7007  -12.9427   26.3634 C   0  0  0  0  0  0  0  0  0  0  0  0
    7.7763  -13.9178   26.0608 C   0  0  0  0  0  0  0  0  0  0  0  0
   11.0202  -16.8522   24.3963 C   0  0  0  0  0  0  0  0  0  0  0  0
   11.9800  -16.8002   25.3813 O   0  0  0  0  0  0  0  0  0  0  0  0
   11.1134  -17.6864   23.4663 O   0  0  0  0  0  0  0  0  0  0  0  0
  2  1  1  1
  2  3  1  0
  4  5  2  0
  4  2  1  0
  7  6  1  6
  7  9  1  0
  8  7  1  0
  9 10  1  1
 10  4  1  0
 11  9  1  0
 11 13  1  0
 12 11  2  0
 14 13  1  0
 14 25  1  0
 14 15  1  1
 16 15  1  0
 17 16  2  0
 18 17  1  0
 19 18  1  0
 19 24  2  0
 20 19  1  0
 21 20  2  0
 21 22  1  0
 22 23  2  0
 23 24  1  0
 24 16  1  0
 25 26  1  0
 27 25  2  0
M  END
$$$$
