AVW.pdb
     RDKit          3D

 27 28  0  0  1  0  0  0  0  0999 V2000
   12.9862  -16.7274   18.5622 C   0  0  0  0  0  0  0  0  0  0  0  0
   12.7834  -15.2467   18.6255 C   0  0  2  0  0  0  0  0  0  0  0  0
   14.0597  -14.5597   18.5877 N   0  0  0  0  0  0  0  0  0  0  0  0
   11.9338  -14.8003   19.7341 C   0  0  0  0  0  0  0  0  0  0  0  0
   12.4668  -14.5304   20.8443 O   0  0  0  0  0  0  0  0  0  0  0  0
    8.3506  -12.7317   19.2386 C   0  0  0  0  0  0  0  0  0  0  0  0
    8.3513  -13.8200   20.2612 C   0  0  2  0  0  0  0  0  0  0  0  0
    7.4605  -13.3445   21.4167 C   0  0  0  0  0  0  0  0  0  0  0  0
    9.7228  -14.1875   20.7719 C   0  0  2  0  0  0  0  0  0  0  0  0
   10.5199  -14.6401   19.6659 N   0  0  0  0  0  0  0  0  0  0  0  0
    9.5767  -15.1966   21.8318 C   0  0  0  0  0  0  0  0  0  0  0  0
    9.6524  -16.4255   21.5463 O   0  0  0  0  0  0  0  0  0  0  0  0
    9.3446  -14.8954   23.2180 N   0  0  0  0  0  0  0  0  0  0  0  0
    9.4565  -15.9062   24.2401 C   0  0  1  0  0  0  0  0  0  0  0  0
    9.2760  -15.4291   25.6409 C   0  0  0  0  0  0  0  0  0  0  0  0
    7.9391  -14.9902   26.0258 C   0  0  0  0  0  0  0  0  0  0  0  0
    6.8300  -15.8459   26.1089 C   0  0  0  0  0  0  0  0  0  0  0  0
    5.8041  -15.0694   26.4749 N   0  0  0  0  0  0  0  0  0  0  0  0
    6.2007  -13.7799   26.6268 C   0  0  0  0  0  0  0  0  0  0  0  0
    5.5091  -12.6422   26.9930 C   0  0  0  0  0  0  0  0  0  0  0  0
    6.1636  -11.4425   27.0789 C   0  0  0  0  0  0  0  0  0  0  0  0
    7.5317  -11.3535   26.7990 C   0  0  0  0  0  0  0  0  0  0  0  0
    8.2101  -12.4879   26.4360 C   0  0  0  0  0  0  0  0  0  0  0  0
    7.5625  -13.7000   26.3458 C   0  0  0  0  0  0  0  0  0  0  0  0
    8.5373  -17.0114   23.8887 C   0  0  0  0  0  0  0  0  0  0  0  0
    8.7575  -18.2700   24.4004 O   0  0  0  0  0  0  0  0  0  0  0  0
    7.5642  -16.7995   23.1287 O   0  0  0  0  0  0  0  0  0  0  0  0
  2  1  1  1
  2  3  1  0
  4  5  2  0
  4  2  1  0
  7  6  1  6
  7  9  1  0
  8  7  1  0
  9 10  1  6
 10  4  1  0
 11  9  1  0
 11 13  1  0
 12 11  2  0
 14 13  1  0
 14 25  1  0
 14 15  1  1
 16 15  1  0
 17 16  2  0
 18 17  1  0
 19 18  1  0
 19 24  2  0
 20 19  1  0
 21 20  2  0
 21 22  1  0
 22 23  2  0
 23 24  1  0
 24 16  1  0
 25 26  1  0
 27 25  2  0
M  END
$$$$
