AVW.pdb
     RDKit          3D

 27 28  0  0  1  0  0  0  0  0999 V2000
    8.3439  -19.7364   20.5861 C   0  0  0  0  0  0  0  0  0  0  0  0
    8.3963  -18.6719   19.5365 C   0  0  2  0  0  0  0  0  0  0  0  0
    9.0623  -19.1669   18.3475 N   0  0  0  0  0  0  0  0  0  0  0  0
    8.9438  -17.3931   20.0001 C   0  0  0  0  0  0  0  0  0  0  0  0
   10.1886  -17.2020   19.9409 O   0  0  0  0  0  0  0  0  0  0  0  0
    6.9171  -13.7830   19.8315 C   0  0  0  0  0  0  0  0  0  0  0  0
    7.6491  -14.0542   21.1046 C   0  0  2  0  0  0  0  0  0  0  0  0
    8.2235  -12.7133   21.5811 C   0  0  0  0  0  0  0  0  0  0  0  0
    8.7473  -15.0814   20.9794 C   0  0  2  0  0  0  0  0  0  0  0  0
    8.1722  -16.3173   20.5261 N   0  0  0  0  0  0  0  0  0  0  0  0
    9.4306  -15.2019   22.2762 C   0  0  0  0  0  0  0  0  0  0  0  0
   10.3092  -14.3554   22.6062 O   0  0  0  0  0  0  0  0  0  0  0  0
    9.1775  -16.2398   23.2378 N   0  0  0  0  0  0  0  0  0  0  0  0
    9.8520  -16.2705   24.5118 C   0  0  1  0  0  0  0  0  0  0  0  0
    9.6032  -15.1003   25.4011 C   0  0  0  0  0  0  0  0  0  0  0  0
    8.2218  -14.8484   25.7965 C   0  0  0  0  0  0  0  0  0  0  0  0
    7.2061  -15.8152   25.7446 C   0  0  0  0  0  0  0  0  0  0  0  0
    6.0993  -15.1963   26.1705 N   0  0  0  0  0  0  0  0  0  0  0  0
    6.3576  -13.9016   26.4867 C   0  0  0  0  0  0  0  0  0  0  0  0
    5.5459  -12.8925   26.9657 C   0  0  0  0  0  0  0  0  0  0  0  0
    6.0711  -11.6523   27.2131 C   0  0  0  0  0  0  0  0  0  0  0  0
    7.4271  -11.3925   26.9857 C   0  0  0  0  0  0  0  0  0  0  0  0
    8.2254  -12.4001   26.5100 C   0  0  0  0  0  0  0  0  0  0  0  0
    7.7084  -13.6513   26.2571 C   0  0  0  0  0  0  0  0  0  0  0  0
    9.5355  -17.5616   25.1624 C   0  0  0  0  0  0  0  0  0  0  0  0
   10.1509  -17.8970   26.3468 O   0  0  0  0  0  0  0  0  0  0  0  0
    8.7109  -18.3434   24.6350 O   0  0  0  0  0  0  0  0  0  0  0  0
  2  1  1  1
  2  3  1  0
  4  5  2  0
  4  2  1  0
  7  6  1  6
  7  9  1  0
  8  7  1  0
  9 10  1  1
 10  4  1  0
 11  9  1  0
 11 13  1  0
 12 11  2  0
 14 13  1  0
 14 25  1  0
 14 15  1  1
 16 15  1  0
 17 16  2  0
 18 17  1  0
 19 18  1  0
 19 24  2  0
 20 19  1  0
 21 20  2  0
 21 22  1  0
 22 23  2  0
 23 24  1  0
 24 16  1  0
 25 26  1  0
 27 25  2  0
M  END
$$$$
