AVW.pdb
     RDKit          3D

 27 28  0  0  1  0  0  0  0  0999 V2000
    6.9341  -19.2596   19.7628 C   0  0  0  0  0  0  0  0  0  0  0  0
    7.3580  -18.2616   18.7323 C   0  0  2  0  0  0  0  0  0  0  0  0
    8.0650  -18.9206   17.6514 N   0  0  0  0  0  0  0  0  0  0  0  0
    8.0928  -17.1126   19.2706 C   0  0  0  0  0  0  0  0  0  0  0  0
    9.3266  -17.2285   19.5029 O   0  0  0  0  0  0  0  0  0  0  0  0
    7.3910  -13.1743   18.4272 C   0  0  0  0  0  0  0  0  0  0  0  0
    7.5447  -13.4693   19.8831 C   0  0  2  0  0  0  0  0  0  0  0  0
    8.3140  -12.2915   20.4963 C   0  0  0  0  0  0  0  0  0  0  0  0
    8.2512  -14.7693   20.1791 C   0  0  2  0  0  0  0  0  0  0  0  0
    7.5201  -15.8413   19.5627 N   0  0  0  0  0  0  0  0  0  0  0  0
    8.3762  -14.9169   21.6372 C   0  0  0  0  0  0  0  0  0  0  0  0
    7.4045  -14.6138   22.3865 O   0  0  0  0  0  0  0  0  0  0  0  0
    9.5535  -15.3929   22.3106 N   0  0  0  0  0  0  0  0  0  0  0  0
    9.6302  -15.4503   23.7492 C   0  0  1  0  0  0  0  0  0  0  0  0
    8.4571  -16.0656   24.4330 C   0  0  0  0  0  0  0  0  0  0  0  0
    8.0129  -15.4456   25.6765 C   0  0  0  0  0  0  0  0  0  0  0  0
    7.9286  -16.1253   26.9013 C   0  0  0  0  0  0  0  0  0  0  0  0
    7.4734  -15.2256   27.7805 N   0  0  0  0  0  0  0  0  0  0  0  0
    7.2673  -14.0239   27.1835 C   0  0  0  0  0  0  0  0  0  0  0  0
    6.8178  -12.8160   27.6791 C   0  0  0  0  0  0  0  0  0  0  0  0
    6.7059  -11.7347   26.8465 C   0  0  0  0  0  0  0  0  0  0  0  0
    7.0430  -11.8381   25.4924 C   0  0  0  0  0  0  0  0  0  0  0  0
    7.4881  -13.0410   25.0089 C   0  0  0  0  0  0  0  0  0  0  0  0
    7.6043  -14.1355   25.8367 C   0  0  0  0  0  0  0  0  0  0  0  0
   10.9095  -16.1008   24.1104 C   0  0  0  0  0  0  0  0  0  0  0  0
   11.5415  -15.7570   25.2836 O   0  0  0  0  0  0  0  0  0  0  0  0
   11.4123  -16.9598   23.3497 O   0  0  0  0  0  0  0  0  0  0  0  0
  2  1  1  1
  2  3  1  0
  4  5  2  0
  4  2  1  0
  7  6  1  6
  7  9  1  0
  8  7  1  0
  9 10  1  1
 10  4  1  0
 11  9  1  0
 11 13  1  0
 12 11  2  0
 14 13  1  0
 14 25  1  0
 14 15  1  6
 16 15  1  0
 17 16  2  0
 18 17  1  0
 19 18  1  0
 19 24  2  0
 20 19  1  0
 21 20  2  0
 21 22  1  0
 22 23  2  0
 23 24  1  0
 24 16  1  0
 25 26  1  0
 27 25  2  0
M  END
$$$$
