AVW.pdb
     RDKit          3D

 27 28  0  0  1  0  0  0  0  0999 V2000
    7.3612  -19.6382   20.8179 C   0  0  0  0  0  0  0  0  0  0  0  0
    7.7140  -18.6521   19.7498 C   0  0  2  0  0  0  0  0  0  0  0  0
    8.4532  -19.3028   18.6856 N   0  0  0  0  0  0  0  0  0  0  0  0
    8.3789  -17.4413   20.2415 C   0  0  0  0  0  0  0  0  0  0  0  0
    9.6387  -17.4054   20.2767 O   0  0  0  0  0  0  0  0  0  0  0  0
    7.0904  -13.7911   19.3912 C   0  0  0  0  0  0  0  0  0  0  0  0
    7.5269  -13.8853   20.8163 C   0  0  2  0  0  0  0  0  0  0  0  0
    8.2753  -12.5850   21.1387 C   0  0  0  0  0  0  0  0  0  0  0  0
    8.3965  -15.0808   21.1186 C   0  0  2  0  0  0  0  0  0  0  0  0
    7.7089  -16.2691   20.6957 N   0  0  0  0  0  0  0  0  0  0  0  0
    8.7197  -15.0783   22.5534 C   0  0  0  0  0  0  0  0  0  0  0  0
    8.1187  -14.2855   23.3330 O   0  0  0  0  0  0  0  0  0  0  0  0
    9.6988  -15.9310   23.1702 N   0  0  0  0  0  0  0  0  0  0  0  0
    9.9966  -15.8446   24.5783 C   0  0  1  0  0  0  0  0  0  0  0  0
    8.8858  -16.2256   25.4965 C   0  0  0  0  0  0  0  0  0  0  0  0
    7.7469  -15.3173   25.5738 C   0  0  0  0  0  0  0  0  0  0  0  0
    6.4629  -15.6332   25.1042 C   0  0  0  0  0  0  0  0  0  0  0  0
    5.7167  -14.5489   25.3425 N   0  0  0  0  0  0  0  0  0  0  0  0
    6.4527  -13.5725   25.9325 C   0  0  0  0  0  0  0  0  0  0  0  0
    6.1203  -12.3031   26.3624 C   0  0  0  0  0  0  0  0  0  0  0  0
    7.0712  -11.5075   26.9437 C   0  0  0  0  0  0  0  0  0  0  0  0
    8.3827  -11.9665   27.1090 C   0  0  0  0  0  0  0  0  0  0  0  0
    8.7038  -13.2278   26.6792 C   0  0  0  0  0  0  0  0  0  0  0  0
    7.7560  -14.0369   26.0927 C   0  0  0  0  0  0  0  0  0  0  0  0
   11.2358  -16.6140   24.8285 C   0  0  0  0  0  0  0  0  0  0  0  0
   11.7939  -16.6170   26.0866 O   0  0  0  0  0  0  0  0  0  0  0  0
   11.7721  -17.2584   23.8976 O   0  0  0  0  0  0  0  0  0  0  0  0
  2  1  1  1
  2  3  1  0
  4  5  2  0
  4  2  1  0
  7  6  1  6
  7  9  1  0
  8  7  1  0
  9 10  1  1
 10  4  1  0
 11  9  1  0
 11 13  1  0
 12 11  2  0
 14 13  1  0
 14 25  1  0
 14 15  1  1
 16 15  1  0
 17 16  2  0
 18 17  1  0
 19 18  1  0
 19 24  2  0
 20 19  1  0
 21 20  2  0
 21 22  1  0
 22 23  2  0
 23 24  1  0
 24 16  1  0
 25 26  1  0
 27 25  2  0
M  END
$$$$
