SNE.pdb
     RDKit          3D

 24 23  0  0  1  0  0  0  0  0999 V2000
   26.8483  -10.3556  -15.3349 O   0  0  0  0  0  0  0  0  0  0  0  0
   26.9021  -11.3536  -16.3100 C   0  0  0  0  0  0  0  0  0  0  0  0
   25.6633  -12.2039  -16.2944 C   0  0  2  0  0  0  0  0  0  0  0  0
   25.7717  -13.3090  -17.1913 N   0  0  0  0  0  0  0  0  0  0  0  0
   24.5012  -11.3199  -16.6241 C   0  0  0  0  0  0  0  0  0  0  0  0
   24.2910  -10.9058  -17.7930 O   0  0  0  0  0  0  0  0  0  0  0  0
   19.8838   -8.9621  -16.4019 N   0  0  0  0  0  0  0  0  0  0  0  0
   19.9594  -10.1870  -15.7020 C   0  0  0  0  0  0  0  0  0  0  0  0
   18.8987  -10.7210  -15.3094 O   0  0  0  0  0  0  0  0  0  0  0  0
   21.2426  -10.8188  -15.4407 C   0  0  0  0  0  0  0  0  0  0  0  0
   22.4545  -10.0474  -15.9848 C   0  0  2  0  0  0  0  0  0  0  0  0
   23.5783  -10.9042  -15.6365 N   0  0  0  0  0  0  0  0  0  0  0  0
   22.5850   -8.7068  -15.4088 C   0  0  0  0  0  0  0  0  0  0  0  0
   22.9724   -8.5608  -14.2233 O   0  0  0  0  0  0  0  0  0  0  0  0
   22.2953   -7.5209  -16.1276 N   0  0  0  0  0  0  0  0  0  0  0  0
   22.3856   -6.2553  -15.4840 C   0  0  1  0  0  0  0  0  0  0  0  0
   22.2302   -5.1186  -16.5018 C   0  0  0  0  0  0  0  0  0  0  0  0
   22.4594   -3.7779  -15.8394 C   0  0  0  0  0  0  0  0  0  0  0  0
   22.2311   -2.6904  -16.8241 C   0  0  0  0  0  0  0  0  0  0  0  0
   21.0817   -2.1870  -17.0289 O   0  0  0  0  0  0  0  0  0  0  0  0
   21.4348   -6.0053  -14.4067 C   0  0  0  0  0  0  0  0  0  0  0  0
   20.0974   -6.2757  -14.4006 O   0  0  0  0  0  0  0  0  0  0  0  0
   23.2718   -2.1523  -17.5887 O   0  0  0  0  0  0  0  0  0  0  0  0
   21.9106   -5.4727  -13.3501 O   0  0  0  0  0  0  0  0  0  0  0  0
  1  2  1  0
  2  3  1  0
  3  4  1  6
  5  3  1  0
  6  5  2  0
  7  8  1  0
  8 10  1  0
  9  8  2  0
 11 10  1  1
 11 13  1  0
 11 12  1  0
 12  5  1  0
 13 15  1  0
 14 13  2  0
 15 16  1  0
 16 21  1  0
 16 17  1  6
 18 17  1  0
 19 18  1  0
 20 19  2  0
 21 24  2  0
 21 22  1  0
 23 19  1  0
M  END
$$$$
