SNE.pdb
     RDKit          3D

 24 23  0  0  1  0  0  0  0  0999 V2000
   16.1195  -10.5882  -18.4600 O   0  0  0  0  0  0  0  0  0  0  0  0
   16.6170   -9.6153  -17.5908 C   0  0  0  0  0  0  0  0  0  0  0  0
   17.7703  -10.1391  -16.7824 C   0  0  2  0  0  0  0  0  0  0  0  0
   17.3453  -11.1106  -15.8268 N   0  0  0  0  0  0  0  0  0  0  0  0
   18.4423   -8.9675  -16.1373 C   0  0  0  0  0  0  0  0  0  0  0  0
   17.8742   -8.2803  -15.2501 O   0  0  0  0  0  0  0  0  0  0  0  0
   21.0019   -9.1584  -13.6970 N   0  0  0  0  0  0  0  0  0  0  0  0
   22.0583   -8.8112  -14.5684 C   0  0  0  0  0  0  0  0  0  0  0  0
   23.1879   -9.3113  -14.3722 O   0  0  0  0  0  0  0  0  0  0  0  0
   21.8421   -7.8911  -15.6732 C   0  0  0  0  0  0  0  0  0  0  0  0
   20.3859   -7.4332  -15.8447 C   0  0  2  0  0  0  0  0  0  0  0  0
   19.7529   -8.5724  -16.4928 N   0  0  0  0  0  0  0  0  0  0  0  0
   20.2608   -6.2086  -16.6387 C   0  0  0  0  0  0  0  0  0  0  0  0
   20.3732   -6.2489  -17.8888 O   0  0  0  0  0  0  0  0  0  0  0  0
   20.0096   -4.9359  -16.0695 N   0  0  0  0  0  0  0  0  0  0  0  0
   19.8938   -3.7899  -16.9046 C   0  0  1  0  0  0  0  0  0  0  0  0
   18.6239   -2.9996  -16.5655 C   0  0  0  0  0  0  0  0  0  0  0  0
   17.3905   -3.7841  -16.9550 C   0  0  0  0  0  0  0  0  0  0  0  0
   16.3975   -3.7308  -15.8526 C   0  0  0  0  0  0  0  0  0  0  0  0
   15.9030   -2.6371  -15.4333 O   0  0  0  0  0  0  0  0  0  0  0  0
   21.0092   -2.8506  -16.8766 C   0  0  0  0  0  0  0  0  0  0  0  0
   21.1385   -1.6942  -17.5892 O   0  0  0  0  0  0  0  0  0  0  0  0
   15.9446   -4.8860  -15.2064 O   0  0  0  0  0  0  0  0  0  0  0  0
   21.9729   -3.1465  -16.0956 O   0  0  0  0  0  0  0  0  0  0  0  0
  1  2  1  0
  2  3  1  0
  3  4  1  1
  5  3  1  0
  6  5  2  0
  7  8  1  0
  8 10  1  0
  9  8  2  0
 11 10  1  6
 11 13  1  0
 11 12  1  0
 12  5  1  0
 13 15  1  0
 14 13  2  0
 15 16  1  0
 16 21  1  0
 16 17  1  1
 18 17  1  0
 19 18  1  0
 20 19  2  0
 21 24  2  0
 21 22  1  0
 23 19  1  0
M  END
$$$$
