SNE.pdb
     RDKit          3D

 24 23  0  0  1  0  0  0  0  0999 V2000
   12.0829   -5.9104   -7.8144 O   0  0  0  0  0  0  0  0  0  0  0  0
   13.3439   -6.3740   -8.1949 C   0  0  0  0  0  0  0  0  0  0  0  0
   13.5685   -7.7889   -7.7419 C   0  0  2  0  0  0  0  0  0  0  0  0
   13.6421   -7.8811   -6.3194 N   0  0  0  0  0  0  0  0  0  0  0  0
   14.8144   -8.2863   -8.4060 C   0  0  0  0  0  0  0  0  0  0  0  0
   15.9383   -8.2218   -7.8451 O   0  0  0  0  0  0  0  0  0  0  0  0
   16.5655  -12.4575   -9.9286 N   0  0  0  0  0  0  0  0  0  0  0  0
   15.4265  -11.7560  -10.3832 C   0  0  0  0  0  0  0  0  0  0  0  0
   14.2932  -12.2108  -10.1123 O   0  0  0  0  0  0  0  0  0  0  0  0
   15.5634  -10.5290  -11.1511 C   0  0  0  0  0  0  0  0  0  0  0  0
   16.0209   -9.3129  -10.3315 C   0  0  2  0  0  0  0  0  0  0  0  0
   14.7918   -8.8552   -9.7006 N   0  0  0  0  0  0  0  0  0  0  0  0
   16.6398   -8.2696  -11.1527 C   0  0  0  0  0  0  0  0  0  0  0  0
   15.9319   -7.5368  -11.8867 O   0  0  0  0  0  0  0  0  0  0  0  0
   18.0344   -8.0216  -11.1723 N   0  0  0  0  0  0  0  0  0  0  0  0
   18.5699   -7.0188  -12.0278 C   0  0  1  0  0  0  0  0  0  0  0  0
   20.0868   -6.8985  -11.8369 C   0  0  0  0  0  0  0  0  0  0  0  0
   20.6292   -5.7245  -12.6219 C   0  0  0  0  0  0  0  0  0  0  0  0
   22.1065   -5.6730  -12.4839 C   0  0  0  0  0  0  0  0  0  0  0  0
   22.8142   -4.7882  -13.0609 O   0  0  0  0  0  0  0  0  0  0  0  0
   18.3247   -7.1850  -13.4559 C   0  0  0  0  0  0  0  0  0  0  0  0
   18.3420   -8.3468  -14.1713 O   0  0  0  0  0  0  0  0  0  0  0  0
   22.8113   -6.5990  -11.7074 O   0  0  0  0  0  0  0  0  0  0  0  0
   18.0645   -6.1208  -14.1086 O   0  0  0  0  0  0  0  0  0  0  0  0
  1  2  1  0
  2  3  1  0
  3  4  1  1
  5  3  1  0
  6  5  2  0
  7  8  1  0
  8 10  1  0
  9  8  2  0
 11 10  1  6
 11 13  1  0
 11 12  1  0
 12  5  1  0
 13 15  1  0
 14 13  2  0
 15 16  1  0
 16 21  1  0
 16 17  1  6
 18 17  1  0
 19 18  1  0
 20 19  2  0
 21 24  2  0
 21 22  1  0
 23 19  1  0
M  END
$$$$
