RLV.pdb
     RDKit          3D

 27 26  0  0  1  0  0  0  0  0999 V2000
   29.5226  -19.6407  -19.4390 N   0  0  0  0  0  0  0  0  0  0  0  0
   28.5471  -18.6035  -19.4567 C   0  0  0  0  0  0  0  0  0  0  0  0
   28.2028  -18.1188  -20.5993 N   0  0  0  0  0  0  0  0  0  0  0  0
   27.9700  -18.1158  -18.2508 N   0  0  0  0  0  0  0  0  0  0  0  0
   28.2836  -18.7828  -17.0083 C   0  0  0  0  0  0  0  0  0  0  0  0
   27.7926  -20.1879  -16.9593 C   0  0  0  0  0  0  0  0  0  0  0  0
   26.9255  -20.4376  -15.7893 C   0  0  0  0  0  0  0  0  0  0  0  0
   27.5676  -20.9341  -14.5440 C   0  0  2  0  0  0  0  0  0  0  0  0
   28.4320  -22.0639  -14.7068 N   0  0  0  0  0  0  0  0  0  0  0  0
   26.4379  -21.3214  -13.6170 C   0  0  0  0  0  0  0  0  0  0  0  0
   25.8532  -22.4198  -13.8321 O   0  0  0  0  0  0  0  0  0  0  0  0
   27.5096  -17.3625  -20.6626 C   0  0  0  0  0  0  0  0  0  0  0  0
   26.0005  -19.7292   -8.2258 C   0  0  2  0  0  0  0  0  0  0  0  0
   26.0570  -20.7612   -9.4014 C   0  0  0  0  0  0  0  0  0  0  0  0
   25.8280  -22.0766   -8.7478 C   0  0  0  0  0  0  0  0  0  0  0  0
   25.0816  -20.2811  -10.3751 C   0  0  2  0  0  0  0  0  0  0  0  0
   24.8513  -20.9182  -11.6751 N   0  0  0  0  0  0  0  0  0  0  0  0
   26.0207  -20.5156  -12.5408 C   0  0  0  0  0  0  0  0  0  0  0  0
   23.6752  -20.4645  -12.4279 O   0  0  0  0  0  0  0  0  0  0  0  0
   23.6028  -19.2678  -12.8962 C   0  0  0  0  0  0  0  0  0  0  0  0
   22.4022  -21.2262  -15.6213 C   0  0  2  0  0  0  0  0  0  0  0  0
   21.2277  -21.3929  -14.7190 C   0  0  0  0  0  0  0  0  0  0  0  0
   20.8635  -22.8563  -14.5329 C   0  0  2  0  0  0  0  0  0  0  0  0
   21.3712  -20.6845  -13.3820 N   0  0  0  0  0  0  0  0  0  0  0  0
   22.5229  -21.2635  -12.7288 C   0  0  0  0  0  0  0  0  0  0  0  0
   20.1371  -20.7111  -12.6016 O   0  0  0  0  0  0  0  0  0  0  0  0
   19.0043  -19.9750  -12.7967 O   0  0  0  0  0  0  0  0  0  0  0  0
  2  3  2  0
  2  1  1  0
  4  2  1  0
  5  4  1  0
  6  5  1  0
  7  6  1  0
  8 10  1  0
  8  7  1  0
  8  9  1  6
 10 11  2  0
 13 12  1  1
 14 13  1  0
 16 15  1  1
 15 13  1  0
 17 16  1  0
 17 10  1  0
 18 16  1  0
 19 18  2  0
 21 20  1  6
 21 22  1  0
 23 21  1  0
 23 24  1  1
 24 18  1  0
 25 26  1  0
 25 23  1  0
 27 25  2  0
M  END
$$$$
