RLV.pdb
     RDKit          3D

 27 26  0  0  1  0  0  0  0  0999 V2000
   18.0604  -21.4486  -10.8179 N   0  0  0  0  0  0  0  0  0  0  0  0
   18.2840  -22.8017  -11.2010 C   0  0  0  0  0  0  0  0  0  0  0  0
   17.2579  -23.5229  -11.4945 N   0  0  0  0  0  0  0  0  0  0  0  0
   19.5991  -23.3425  -11.2578 N   0  0  0  0  0  0  0  0  0  0  0  0
   20.7075  -22.4538  -11.5196 C   0  0  0  0  0  0  0  0  0  0  0  0
   20.7841  -21.3170  -10.5606 C   0  0  0  0  0  0  0  0  0  0  0  0
   21.9227  -20.4195  -10.8458 C   0  0  0  0  0  0  0  0  0  0  0  0
   23.2624  -21.0366  -11.0302 C   0  0  2  0  0  0  0  0  0  0  0  0
   24.1713  -20.8701   -9.9365 N   0  0  0  0  0  0  0  0  0  0  0  0
   23.8586  -20.3826  -12.2560 C   0  0  0  0  0  0  0  0  0  0  0  0
   24.3191  -19.2134  -12.1315 O   0  0  0  0  0  0  0  0  0  0  0  0
   17.3653  -24.5150  -11.7407 C   0  0  0  0  0  0  0  0  0  0  0  0
   27.5529  -22.5167  -15.4980 C   0  0  2  0  0  0  0  0  0  0  0  0
   26.8259  -21.4697  -14.5894 C   0  0  0  0  0  0  0  0  0  0  0  0
   27.7858  -20.3390  -14.4900 C   0  0  0  0  0  0  0  0  0  0  0  0
   25.5352  -21.2413  -15.2313 C   0  0  2  0  0  0  0  0  0  0  0  0
   24.5194  -20.3233  -14.7077 N   0  0  0  0  0  0  0  0  0  0  0  0
   23.9179  -21.0188  -13.5104 C   0  0  0  0  0  0  0  0  0  0  0  0
   23.3695  -20.0521  -15.5795 O   0  0  0  0  0  0  0  0  0  0  0  0
   22.4195  -20.9093  -15.7181 C   0  0  0  0  0  0  0  0  0  0  0  0
   20.4500  -16.8990  -17.9951 C   0  0  2  0  0  0  0  0  0  0  0  0
   21.5108  -17.2905  -17.0239 C   0  0  0  0  0  0  0  0  0  0  0  0
   21.0809  -17.0387  -15.5885 C   0  0  1  0  0  0  0  0  0  0  0  0
   22.0217  -18.7100  -17.2072 N   0  0  0  0  0  0  0  0  0  0  0  0
   23.1681  -18.8523  -16.3388 C   0  0  0  0  0  0  0  0  0  0  0  0
   22.2614  -19.0396  -18.6096 O   0  0  0  0  0  0  0  0  0  0  0  0
   23.4600  -19.1458  -19.2541 O   0  0  0  0  0  0  0  0  0  0  0  0
  2  3  2  0
  2  1  1  0
  4  2  1  0
  5  4  1  0
  6  5  1  0
  7  6  1  0
  8 10  1  0
  8  7  1  0
  8  9  1  1
 10 11  2  0
 13 12  1  1
 14 13  1  0
 16 15  1  1
 15 13  1  0
 17 16  1  0
 17 10  1  0
 18 16  1  0
 19 18  2  0
 21 20  1  6
 21 22  1  0
 23 21  1  0
 23 24  1  6
 24 18  1  0
 25 26  1  0
 25 23  1  0
 27 25  2  0
M  END
$$$$
