RLV.pdb
     RDKit          3D

 27 26  0  0  1  0  0  0  0  0999 V2000
   27.2045  -20.9956  -16.2281 N   0  0  0  0  0  0  0  0  0  0  0  0
   26.7137  -22.3322  -16.2453 C   0  0  0  0  0  0  0  0  0  0  0  0
   27.5742  -23.2903  -16.2746 N   0  0  0  0  0  0  0  0  0  0  0  0
   25.3168  -22.6032  -16.2315 N   0  0  0  0  0  0  0  0  0  0  0  0
   24.3950  -21.5035  -16.0643 C   0  0  0  0  0  0  0  0  0  0  0  0
   24.7660  -20.5954  -14.9437 C   0  0  0  0  0  0  0  0  0  0  0  0
   24.4496  -21.1774  -13.6230 C   0  0  0  0  0  0  0  0  0  0  0  0
   23.2026  -20.7298  -12.9490 C   0  0  2  0  0  0  0  0  0  0  0  0
   23.0884  -19.3175  -12.7432 N   0  0  0  0  0  0  0  0  0  0  0  0
   23.1862  -21.4159  -11.6020 C   0  0  0  0  0  0  0  0  0  0  0  0
   23.1822  -22.6786  -11.5869 O   0  0  0  0  0  0  0  0  0  0  0  0
   27.2700  -24.2716  -16.2440 C   0  0  0  0  0  0  0  0  0  0  0  0
   25.7032  -19.3744   -7.1356 C   0  0  1  0  0  0  0  0  0  0  0  0
   25.3497  -20.4243   -8.2414 C   0  0  0  0  0  0  0  0  0  0  0  0
   26.2538  -21.5710   -7.9628 C   0  0  0  0  0  0  0  0  0  0  0  0
   23.9081  -20.6228   -8.1296 C   0  0  2  0  0  0  0  0  0  0  0  0
   23.1264  -21.4393   -9.0629 N   0  0  0  0  0  0  0  0  0  0  0  0
   23.1750  -20.7102  -10.3839 C   0  0  0  0  0  0  0  0  0  0  0  0
   21.6919  -21.5685   -8.7775 O   0  0  0  0  0  0  0  0  0  0  0  0
   20.8794  -20.5918   -8.9836 C   0  0  0  0  0  0  0  0  0  0  0  0
   19.4133  -25.0324   -8.8847 C   0  0  2  0  0  0  0  0  0  0  0  0
   18.9254  -23.6241   -8.8788 C   0  0  0  0  0  0  0  0  0  0  0  0
   17.4199  -23.5503   -8.6863 C   0  0  1  0  0  0  0  0  0  0  0  0
   19.6534  -22.7230   -7.8951 N   0  0  0  0  0  0  0  0  0  0  0  0
   21.0492  -22.7452   -8.2688 C   0  0  0  0  0  0  0  0  0  0  0  0
   19.3778  -23.0771   -6.5054 O   0  0  0  0  0  0  0  0  0  0  0  0
   18.2663  -22.7847   -5.7689 O   0  0  0  0  0  0  0  0  0  0  0  0
  2  3  2  0
  2  1  1  0
  4  2  1  0
  5  4  1  0
  6  5  1  0
  7  6  1  0
  8 10  1  0
  8  7  1  0
  8  9  1  1
 10 11  2  0
 13 12  1  6
 14 13  1  0
 16 15  1  6
 15 13  1  0
 17 16  1  0
 17 10  1  0
 18 16  1  0
 19 18  2  0
 21 20  1  6
 21 22  1  0
 23 21  1  0
 23 24  1  6
 24 18  1  0
 25 26  1  0
 25 23  1  0
 27 25  2  0
M  END
$$$$
