RLV.pdb
     RDKit          3D

 27 26  0  0  1  0  0  0  0  0999 V2000
   19.1926  -24.7818   -5.9447 N   0  0  0  0  0  0  0  0  0  0  0  0
   18.1353  -24.3693   -6.8046 C   0  0  0  0  0  0  0  0  0  0  0  0
   17.1835  -25.2062   -7.0346 N   0  0  0  0  0  0  0  0  0  0  0  0
   18.1287  -23.0736   -7.3931 N   0  0  0  0  0  0  0  0  0  0  0  0
   19.1568  -22.7377   -8.3508 C   0  0  0  0  0  0  0  0  0  0  0  0
   20.5249  -23.1073   -7.8932 C   0  0  0  0  0  0  0  0  0  0  0  0
   21.4635  -21.9679   -7.9565 C   0  0  0  0  0  0  0  0  0  0  0  0
   22.2572  -21.7919   -9.2010 C   0  0  2  0  0  0  0  0  0  0  0  0
   22.9461  -22.9599   -9.6605 N   0  0  0  0  0  0  0  0  0  0  0  0
   23.2778  -20.7188   -8.8975 C   0  0  0  0  0  0  0  0  0  0  0  0
   22.8626  -19.5325   -8.7746 O   0  0  0  0  0  0  0  0  0  0  0  0
   16.3750  -24.9382   -7.6099 C   0  0  0  0  0  0  0  0  0  0  0  0
   27.2757  -18.4390   -6.2628 C   0  0  2  0  0  0  0  0  0  0  0  0
   27.7948  -19.6116   -7.1603 C   0  0  0  0  0  0  0  0  0  0  0  0
   28.8108  -20.2971   -6.3191 C   0  0  0  0  0  0  0  0  0  0  0  0
   26.5972  -20.3467   -7.5546 C   0  0  1  0  0  0  0  0  0  0  0  0
   25.6488  -19.8707   -8.5660 N   0  0  0  0  0  0  0  0  0  0  0  0
   24.6514  -20.9889   -8.7498 C   0  0  0  0  0  0  0  0  0  0  0  0
   26.1865  -19.6451   -9.9136 O   0  0  0  0  0  0  0  0  0  0  0  0
   27.0415  -18.7110  -10.1438 C   0  0  0  0  0  0  0  0  0  0  0  0
   28.3660  -21.6374  -11.8101 C   0  0  2  0  0  0  0  0  0  0  0  0
   27.2666  -21.3121  -12.7624 C   0  0  0  0  0  0  0  0  0  0  0  0
   26.3820  -22.5172  -13.0344 C   0  0  2  0  0  0  0  0  0  0  0  0
   26.4419  -20.0999  -12.3620 N   0  0  0  0  0  0  0  0  0  0  0  0
   25.8495  -20.4078  -11.0804 C   0  0  0  0  0  0  0  0  0  0  0  0
   25.4974  -19.7000  -13.4016 O   0  0  0  0  0  0  0  0  0  0  0  0
   25.7747  -19.1827  -14.6341 O   0  0  0  0  0  0  0  0  0  0  0  0
  2  3  2  0
  2  1  1  0
  4  2  1  0
  5  4  1  0
  6  5  1  0
  7  6  1  0
  8 10  1  0
  8  7  1  0
  8  9  1  1
 10 11  2  0
 13 12  1  6
 14 13  1  0
 16 15  1  1
 15 13  1  0
 17 16  1  0
 17 10  1  0
 18 16  1  0
 19 18  2  0
 21 20  1  6
 21 22  1  0
 23 21  1  0
 23 24  1  6
 24 18  1  0
 25 26  1  0
 25 23  1  0
 27 25  2  0
M  END
$$$$
