RLV.pdb
     RDKit          3D

 27 26  0  0  1  0  0  0  0  0999 V2000
   18.5056  -22.3756  -10.6533 N   0  0  0  0  0  0  0  0  0  0  0  0
   18.4787  -22.6512  -12.0500 C   0  0  0  0  0  0  0  0  0  0  0  0
   17.3314  -22.6974  -12.6337 N   0  0  0  0  0  0  0  0  0  0  0  0
   19.6806  -22.8699  -12.7799 N   0  0  0  0  0  0  0  0  0  0  0  0
   20.9420  -22.8171  -12.0778 C   0  0  0  0  0  0  0  0  0  0  0  0
   21.4350  -21.4279  -11.8657 C   0  0  0  0  0  0  0  0  0  0  0  0
   22.7657  -21.2077  -12.4689 C   0  0  0  0  0  0  0  0  0  0  0  0
   23.9482  -21.2365  -11.5685 C   0  0  2  0  0  0  0  0  0  0  0  0
   23.7406  -20.6842  -10.2640 N   0  0  0  0  0  0  0  0  0  0  0  0
   25.0238  -20.4347  -12.2655 C   0  0  0  0  0  0  0  0  0  0  0  0
   25.0261  -19.1836  -12.0948 O   0  0  0  0  0  0  0  0  0  0  0  0
   17.2565  -22.9499  -13.6272 C   0  0  0  0  0  0  0  0  0  0  0  0
   30.1979  -21.8094  -12.1287 C   0  0  1  0  0  0  0  0  0  0  0  0
   28.9109  -20.9265  -12.0084 C   0  0  0  0  0  0  0  0  0  0  0  0
   29.3869  -19.6654  -11.3817 C   0  0  0  0  0  0  0  0  0  0  0  0
   28.3581  -20.8753  -13.3581 C   0  0  2  0  0  0  0  0  0  0  0  0
   27.1073  -20.1906  -13.6975 N   0  0  0  0  0  0  0  0  0  0  0  0
   26.0064  -21.0222  -13.0847 C   0  0  0  0  0  0  0  0  0  0  0  0
   26.7593  -20.1299  -15.1227 O   0  0  0  0  0  0  0  0  0  0  0  0
   26.2825  -21.1549  -15.7380 C   0  0  0  0  0  0  0  0  0  0  0  0
   25.3785  -17.5528  -19.0649 C   0  0  2  0  0  0  0  0  0  0  0  0
   25.6813  -17.7787  -17.6231 C   0  0  0  0  0  0  0  0  0  0  0  0
   24.4217  -17.7602  -16.7734 C   0  0  1  0  0  0  0  0  0  0  0  0
   26.5112  -19.0232  -17.3545 N   0  0  0  0  0  0  0  0  0  0  0  0
   26.8915  -18.9740  -15.9612 C   0  0  0  0  0  0  0  0  0  0  0  0
   27.6191  -19.1683  -18.2949 O   0  0  0  0  0  0  0  0  0  0  0  0
   27.6551  -19.9066  -19.4425 O   0  0  0  0  0  0  0  0  0  0  0  0
  2  3  2  0
  2  1  1  0
  4  2  1  0
  5  4  1  0
  6  5  1  0
  7  6  1  0
  8 10  1  0
  8  7  1  0
  8  9  1  1
 10 11  2  0
 13 12  1  1
 14 13  1  0
 16 15  1  1
 15 13  1  0
 17 16  1  0
 17 10  1  0
 18 16  1  0
 19 18  2  0
 21 20  1  1
 21 22  1  0
 23 21  1  0
 23 24  1  1
 24 18  1  0
 25 26  1  0
 25 23  1  0
 27 25  2  0
M  END
$$$$
