RLV.pdb
     RDKit          3D

 27 26  0  0  1  0  0  0  0  0999 V2000
   15.2861  -24.7409    0.4812 N   0  0  0  0  0  0  0  0  0  0  0  0
   15.1489  -23.7424   -0.5247 C   0  0  0  0  0  0  0  0  0  0  0  0
   15.3921  -24.0777   -1.7443 N   0  0  0  0  0  0  0  0  0  0  0  0
   14.7564  -22.4150   -0.1948 N   0  0  0  0  0  0  0  0  0  0  0  0
   15.2762  -21.8137    1.0115 C   0  0  0  0  0  0  0  0  0  0  0  0
   14.8699  -20.3906    1.1770 C   0  0  0  0  0  0  0  0  0  0  0  0
   15.3645  -19.8105    2.4428 C   0  0  0  0  0  0  0  0  0  0  0  0
   15.0934  -18.3715    2.6984 C   0  0  2  0  0  0  0  0  0  0  0  0
   14.6979  -17.6081    1.5535 N   0  0  0  0  0  0  0  0  0  0  0  0
   16.3806  -17.7938    3.2415 C   0  0  0  0  0  0  0  0  0  0  0  0
   17.4610  -18.1524    2.6949 O   0  0  0  0  0  0  0  0  0  0  0  0
   15.2646  -23.4043   -2.5103 C   0  0  0  0  0  0  0  0  0  0  0  0
   18.4719  -12.7345    3.5208 C   0  0  2  0  0  0  0  0  0  0  0  0
   18.8085  -13.9561    4.4397 C   0  0  0  0  0  0  0  0  0  0  0  0
   18.9334  -13.3701    5.8001 C   0  0  0  0  0  0  0  0  0  0  0  0
   17.7470  -14.9253    4.1869 C   0  0  1  0  0  0  0  0  0  0  0  0
   17.7200  -16.2701    4.7696 N   0  0  0  0  0  0  0  0  0  0  0  0
   16.4183  -16.8860    4.3168 C   0  0  0  0  0  0  0  0  0  0  0  0
   17.6629  -16.3483    6.2347 O   0  0  0  0  0  0  0  0  0  0  0  0
   16.5705  -16.1142    6.8739 C   0  0  0  0  0  0  0  0  0  0  0  0
   17.9770  -19.2332    8.3492 C   0  0  2  0  0  0  0  0  0  0  0  0
   18.9187  -18.2200    8.9043 C   0  0  0  0  0  0  0  0  0  0  0  0
   20.3639  -18.5539    8.5744 C   0  0  2  0  0  0  0  0  0  0  0  0
   18.5807  -16.7886    8.5218 N   0  0  0  0  0  0  0  0  0  0  0  0
   18.7613  -16.6891    7.0915 C   0  0  0  0  0  0  0  0  0  0  0  0
   19.3249  -15.8102    9.3103 O   0  0  0  0  0  0  0  0  0  0  0  0
   19.0022  -15.2971   10.5334 O   0  0  0  0  0  0  0  0  0  0  0  0
  2  3  2  0
  2  1  1  0
  4  2  1  0
  5  4  1  0
  6  5  1  0
  7  6  1  0
  8 10  1  0
  8  7  1  0
  8  9  1  6
 10 11  2  0
 13 12  1  6
 14 13  1  0
 16 15  1  6
 15 13  1  0
 17 16  1  0
 17 10  1  0
 18 16  1  0
 19 18  2  0
 21 20  1  1
 21 22  1  0
 23 21  1  0
 23 24  1  1
 24 18  1  0
 25 26  1  0
 25 23  1  0
 27 25  2  0
M  END
$$$$
