RLV.pdb
     RDKit          3D

 27 26  0  0  1  0  0  0  0  0999 V2000
   25.9938  -18.4008  -16.3738 N   0  0  0  0  0  0  0  0  0  0  0  0
   25.1340  -19.2611  -17.1142 C   0  0  0  0  0  0  0  0  0  0  0  0
   25.2590  -19.2810  -18.3960 N   0  0  0  0  0  0  0  0  0  0  0  0
   24.1658  -20.0737  -16.4604 N   0  0  0  0  0  0  0  0  0  0  0  0
   24.4659  -20.5957  -15.1473 C   0  0  0  0  0  0  0  0  0  0  0  0
   24.4968  -19.5439  -14.0934 C   0  0  0  0  0  0  0  0  0  0  0  0
   24.7315  -20.1065  -12.7475 C   0  0  0  0  0  0  0  0  0  0  0  0
   26.1071  -20.5627  -12.4171 C   0  0  2  0  0  0  0  0  0  0  0  0
   26.5932  -21.6620  -13.1951 N   0  0  0  0  0  0  0  0  0  0  0  0
   26.0717  -20.9791  -10.9642 C   0  0  0  0  0  0  0  0  0  0  0  0
   25.6732  -22.1475  -10.6985 O   0  0  0  0  0  0  0  0  0  0  0  0
   24.6643  -19.8891  -18.9731 C   0  0  0  0  0  0  0  0  0  0  0  0
   28.3815  -20.9518   -5.9856 C   0  0  2  0  0  0  0  0  0  0  0  0
   27.4548  -19.7270   -6.2875 C   0  0  0  0  0  0  0  0  0  0  0  0
   28.1284  -18.5823   -5.6198 C   0  0  0  0  0  0  0  0  0  0  0  0
   27.3116  -19.7081   -7.7398 C   0  0  1  0  0  0  0  0  0  0  0  0
   26.3935  -20.5818   -8.4763 N   0  0  0  0  0  0  0  0  0  0  0  0
   26.4600  -20.1259   -9.9140 C   0  0  0  0  0  0  0  0  0  0  0  0
   24.9701  -20.4753   -8.1322 O   0  0  0  0  0  0  0  0  0  0  0  0
   24.3205  -19.3782   -8.3084 C   0  0  0  0  0  0  0  0  0  0  0  0
   22.0142  -21.6524   -9.5144 C   0  0  2  0  0  0  0  0  0  0  0  0
   21.8966  -22.0529   -8.0836 C   0  0  0  0  0  0  0  0  0  0  0  0
   22.0604  -23.5527   -7.9032 C   0  0  2  0  0  0  0  0  0  0  0  0
   22.8130  -21.2803   -7.1493 N   0  0  0  0  0  0  0  0  0  0  0  0
   24.1647  -21.5327   -7.5935 C   0  0  0  0  0  0  0  0  0  0  0  0
   22.5564  -21.5796   -5.7431 O   0  0  0  0  0  0  0  0  0  0  0  0
   23.3707  -22.2288   -4.8606 O   0  0  0  0  0  0  0  0  0  0  0  0
  2  3  2  0
  2  1  1  0
  4  2  1  0
  5  4  1  0
  6  5  1  0
  7  6  1  0
  8 10  1  0
  8  7  1  0
  8  9  1  6
 10 11  2  0
 13 12  1  1
 14 13  1  0
 16 15  1  6
 15 13  1  0
 17 16  1  0
 17 10  1  0
 18 16  1  0
 19 18  2  0
 21 20  1  6
 21 22  1  0
 23 21  1  0
 23 24  1  1
 24 18  1  0
 25 26  1  0
 25 23  1  0
 27 25  2  0
M  END
$$$$
