RLV.pdb
     RDKit          3D

 27 26  0  0  1  0  0  0  0  0999 V2000
   22.1290  -20.6984  -16.0726 N   0  0  0  0  0  0  0  0  0  0  0  0
   22.0870  -19.3274  -15.6900 C   0  0  0  0  0  0  0  0  0  0  0  0
   21.0632  -18.6325  -16.0481 N   0  0  0  0  0  0  0  0  0  0  0  0
   23.1422  -18.7413  -14.9364 N   0  0  0  0  0  0  0  0  0  0  0  0
   24.1662  -19.5992  -14.3867 C   0  0  0  0  0  0  0  0  0  0  0  0
   23.6517  -20.5284  -13.3428 C   0  0  0  0  0  0  0  0  0  0  0  0
   24.7234  -21.3579  -12.7540 C   0  0  0  0  0  0  0  0  0  0  0  0
   25.8010  -20.6652  -12.0001 C   0  0  2  0  0  0  0  0  0  0  0  0
   27.1336  -20.9253  -12.4547 N   0  0  0  0  0  0  0  0  0  0  0  0
   25.6795  -21.1370  -10.5689 C   0  0  0  0  0  0  0  0  0  0  0  0
   25.8406  -22.3687  -10.3418 O   0  0  0  0  0  0  0  0  0  0  0  0
   20.9837  -17.6411  -15.7888 C   0  0  0  0  0  0  0  0  0  0  0  0
   27.7769  -18.4458   -6.4461 C   0  0  1  0  0  0  0  0  0  0  0  0
   27.4547  -19.6568   -7.3840 C   0  0  0  0  0  0  0  0  0  0  0  0
   28.3881  -20.7251   -6.9397 C   0  0  0  0  0  0  0  0  0  0  0  0
   26.0186  -19.8749   -7.2426 C   0  0  2  0  0  0  0  0  0  0  0  0
   25.2495  -20.7912   -8.0897 N   0  0  0  0  0  0  0  0  0  0  0  0
   25.3977  -20.2679   -9.4980 C   0  0  0  0  0  0  0  0  0  0  0  0
   23.7980  -20.8237   -7.8705 O   0  0  0  0  0  0  0  0  0  0  0  0
   23.0463  -19.8421   -8.2285 C   0  0  0  0  0  0  0  0  0  0  0  0
   21.1205  -22.6289   -9.2459 C   0  0  2  0  0  0  0  0  0  0  0  0
   20.9241  -22.7882   -7.7770 C   0  0  0  0  0  0  0  0  0  0  0  0
   21.2263  -24.2051   -7.3188 C   0  0  2  0  0  0  0  0  0  0  0  0
   21.6731  -21.7647   -6.9397 N   0  0  0  0  0  0  0  0  0  0  0  0
   23.0731  -21.9053   -7.2695 C   0  0  0  0  0  0  0  0  0  0  0  0
   21.3575  -21.8692   -5.5177 O   0  0  0  0  0  0  0  0  0  0  0  0
   20.1969  -21.5237   -4.8875 O   0  0  0  0  0  0  0  0  0  0  0  0
  2  3  2  0
  2  1  1  0
  4  2  1  0
  5  4  1  0
  6  5  1  0
  7  6  1  0
  8 10  1  0
  8  7  1  0
  8  9  1  6
 10 11  2  0
 13 12  1  6
 14 13  1  0
 16 15  1  6
 15 13  1  0
 17 16  1  0
 17 10  1  0
 18 16  1  0
 19 18  2  0
 21 20  1  6
 21 22  1  0
 23 21  1  0
 23 24  1  1
 24 18  1  0
 25 26  1  0
 25 23  1  0
 27 25  2  0
M  END
$$$$
