RLV.pdb
     RDKit          3D

 27 26  0  0  1  0  0  0  0  0999 V2000
   26.0421  -19.9034  -18.9619 N   0  0  0  0  0  0  0  0  0  0  0  0
   25.6860  -20.7483  -20.0514 C   0  0  0  0  0  0  0  0  0  0  0  0
   26.2641  -20.5470  -21.1846 N   0  0  0  0  0  0  0  0  0  0  0  0
   24.7214  -21.7828  -19.8953 N   0  0  0  0  0  0  0  0  0  0  0  0
   24.0773  -21.9477  -18.6127 C   0  0  0  0  0  0  0  0  0  0  0  0
   24.9587  -22.5822  -17.5936 C   0  0  0  0  0  0  0  0  0  0  0  0
   24.2397  -22.8765  -16.3367 C   0  0  0  0  0  0  0  0  0  0  0  0
   25.0451  -23.2922  -15.1585 C   0  0  2  0  0  0  0  0  0  0  0  0
   25.2629  -24.7015  -15.0296 N   0  0  0  0  0  0  0  0  0  0  0  0
   24.2877  -22.8086  -13.9428 C   0  0  0  0  0  0  0  0  0  0  0  0
   23.4477  -23.5957  -13.4237 O   0  0  0  0  0  0  0  0  0  0  0  0
   26.0104  -21.1036  -22.0107 C   0  0  0  0  0  0  0  0  0  0  0  0
   26.4494  -19.6072   -9.8769 C   0  0  1  0  0  0  0  0  0  0  0  0
   25.7219  -20.8512  -10.4879 C   0  0  0  0  0  0  0  0  0  0  0  0
   25.3004  -21.6483   -9.3061 C   0  0  0  0  0  0  0  0  0  0  0  0
   24.6948  -20.2976  -11.3647 C   0  0  2  0  0  0  0  0  0  0  0  0
   23.7481  -21.1187  -12.1251 N   0  0  0  0  0  0  0  0  0  0  0  0
   24.4811  -21.5337  -13.3779 C   0  0  0  0  0  0  0  0  0  0  0  0
   22.5446  -20.4402  -12.6224 O   0  0  0  0  0  0  0  0  0  0  0  0
   21.7311  -19.8490  -11.8191 C   0  0  0  0  0  0  0  0  0  0  0  0
   22.3138  -17.9367  -15.5519 C   0  0  2  0  0  0  0  0  0  0  0  0
   21.2132  -18.9354  -15.6654 C   0  0  0  0  0  0  0  0  0  0  0  0
   21.4395  -19.8937  -16.8227 C   0  0  2  0  0  0  0  0  0  0  0  0
   20.9246  -19.6849  -14.3752 N   0  0  0  0  0  0  0  0  0  0  0  0
   22.1522  -20.3481  -13.9987 C   0  0  0  0  0  0  0  0  0  0  0  0
   19.7579  -20.5562  -14.4856 O   0  0  0  0  0  0  0  0  0  0  0  0
   18.4400  -20.2084  -14.4104 O   0  0  0  0  0  0  0  0  0  0  0  0
  2  3  2  0
  2  1  1  0
  4  2  1  0
  5  4  1  0
  6  5  1  0
  7  6  1  0
  8 10  1  0
  8  7  1  0
  8  9  1  1
 10 11  2  0
 13 12  1  6
 14 13  1  0
 16 15  1  1
 15 13  1  0
 17 16  1  0
 17 10  1  0
 18 16  1  0
 19 18  2  0
 21 20  1  6
 21 22  1  0
 23 21  1  0
 23 24  1  1
 24 18  1  0
 25 26  1  0
 25 23  1  0
 27 25  2  0
M  END
$$$$
