MHS.pdb
     RDKit          3D

 25 25  0  0  1  0  0  0  0  0999 V2000
   18.2353  -18.6583  -19.2327 C   0  0  0  0  0  0  0  0  0  0  0  0
   19.1212  -17.1016  -19.1415 S   0  0  0  0  0  0  0  0  0  0  0  0
   17.9398  -15.7039  -19.2096 C   0  0  0  0  0  0  0  0  0  0  0  0
   18.7631  -14.4299  -19.1887 C   0  0  0  0  0  0  0  0  0  0  0  0
   18.6953  -13.7459  -17.8425 C   0  0  2  0  0  0  0  0  0  0  0  0
   17.3625  -13.7828  -17.3310 N   0  0  0  0  0  0  0  0  0  0  0  0
   19.2110  -12.3428  -17.9504 C   0  0  0  0  0  0  0  0  0  0  0  0
   20.3025  -12.0794  -18.4753 O   0  0  0  0  0  0  0  0  0  0  0  0
   18.4106  -11.3069  -17.4308 N   0  0  0  0  0  0  0  0  0  0  0  0
   18.6650   -9.9132  -17.5244 C   0  0  1  0  0  0  0  0  0  0  0  0
   17.6180   -9.0615  -18.2014 C   0  0  0  0  0  0  0  0  0  0  0  0
   17.3542   -9.4641  -19.6143 C   0  0  0  0  0  0  0  0  0  0  0  0
   17.9580   -8.9220  -20.7469 C   0  0  0  0  0  0  0  0  0  0  0  0
   17.4766   -9.5299  -21.8357 N   0  0  0  0  0  0  0  0  0  0  0  0
   16.5828  -10.4450  -21.4374 C   0  0  0  0  0  0  0  0  0  0  0  0
   16.5238  -10.3898  -20.0991 N   0  0  0  0  0  0  0  0  0  0  0  0
   19.2890   -9.3074  -16.3415 C   0  0  0  0  0  0  0  0  0  0  0  0
   18.6545   -9.1727  -15.2344 O   0  0  0  0  0  0  0  0  0  0  0  0
   23.3438   -8.4586  -16.0505 O   0  0  0  0  0  0  0  0  0  0  0  0
   22.6268   -8.6957  -14.8766 C   0  0  0  0  0  0  0  0  0  0  0  0
   21.2162   -8.2374  -15.1146 C   0  0  2  0  0  0  0  0  0  0  0  0
   20.6205   -8.8208  -16.2958 N   0  0  0  0  0  0  0  0  0  0  0  0
   21.1773   -6.7667  -15.1696 C   0  0  0  0  0  0  0  0  0  0  0  0
   21.3944   -5.9495  -14.0735 O   0  0  0  0  0  0  0  0  0  0  0  0
   20.9339   -6.2072  -16.2698 O   0  0  0  0  0  0  0  0  0  0  0  0
  2  1  1  0
  3  2  1  0
  4  3  1  0
  4  5  1  0
  5  6  1  6
  5  7  1  0
  7  9  1  0
  8  7  2  0
  9 10  1  0
 10 11  1  1
 11 12  1  0
 12 16  1  0
 13 12  2  0
 13 14  1  0
 14 15  1  0
 16 15  2  0
 17 10  1  0
 17 22  1  0
 18 17  2  0
 19 20  1  0
 21 20  1  6
 21 23  1  0
 21 22  1  0
 23 24  1  0
 25 23  2  0
M  END
$$$$
