MHS.pdb
     RDKit          3D

 25 25  0  0  1  0  0  0  0  0999 V2000
   11.7298  -12.9301   -9.3361 C   0  0  0  0  0  0  0  0  0  0  0  0
   11.4197  -12.4382  -11.0327 S   0  0  0  0  0  0  0  0  0  0  0  0
   12.9936  -11.9797  -11.8492 C   0  0  0  0  0  0  0  0  0  0  0  0
   13.8203  -11.2292  -10.8222 C   0  0  0  0  0  0  0  0  0  0  0  0
   15.1877  -10.8749  -11.3601 C   0  0  2  0  0  0  0  0  0  0  0  0
   15.9087  -12.0578  -11.7072 N   0  0  0  0  0  0  0  0  0  0  0  0
   15.9340  -10.0412  -10.3629 C   0  0  0  0  0  0  0  0  0  0  0  0
   16.6434  -10.5455   -9.4805 O   0  0  0  0  0  0  0  0  0  0  0  0
   15.8090   -8.6412  -10.4524 N   0  0  0  0  0  0  0  0  0  0  0  0
   16.4606   -7.6798   -9.6357 C   0  0  1  0  0  0  0  0  0  0  0  0
   17.9701   -7.7029   -9.6080 C   0  0  0  0  0  0  0  0  0  0  0  0
   18.5890   -7.3574  -10.9217 C   0  0  0  0  0  0  0  0  0  0  0  0
   17.9032   -7.0707  -12.1001 C   0  0  0  0  0  0  0  0  0  0  0  0
   18.7851   -6.8061  -13.0691 N   0  0  0  0  0  0  0  0  0  0  0  0
   20.0152   -6.9139  -12.5496 C   0  0  0  0  0  0  0  0  0  0  0  0
   19.8759   -7.2459  -11.2581 N   0  0  0  0  0  0  0  0  0  0  0  0
   15.8597   -6.3402   -9.6406 C   0  0  0  0  0  0  0  0  0  0  0  0
   15.5143   -5.7561  -10.7296 O   0  0  0  0  0  0  0  0  0  0  0  0
   14.0153   -2.5021   -7.3268 O   0  0  0  0  0  0  0  0  0  0  0  0
   14.6265   -3.7441   -7.1484 C   0  0  0  0  0  0  0  0  0  0  0  0
   15.0151   -4.2500   -8.5085 C   0  0  2  0  0  0  0  0  0  0  0  0
   15.6032   -5.5704   -8.4773 N   0  0  0  0  0  0  0  0  0  0  0  0
   15.9146   -3.2816   -9.1572 C   0  0  0  0  0  0  0  0  0  0  0  0
   15.4782   -2.1309   -9.7911 O   0  0  0  0  0  0  0  0  0  0  0  0
   17.1534   -3.5000   -9.1419 O   0  0  0  0  0  0  0  0  0  0  0  0
  2  1  1  0
  3  2  1  0
  4  3  1  0
  4  5  1  0
  5  6  1  1
  5  7  1  0
  7  9  1  0
  8  7  2  0
  9 10  1  0
 10 11  1  6
 11 12  1  0
 12 16  1  0
 13 12  2  0
 13 14  1  0
 14 15  1  0
 16 15  2  0
 17 10  1  0
 17 22  1  0
 18 17  2  0
 19 20  1  0
 21 20  1  1
 21 23  1  0
 21 22  1  0
 23 24  1  0
 25 23  2  0
M  END
$$$$
