MHS.pdb
     RDKit          3D

 25 25  0  0  1  0  0  0  0  0999 V2000
   20.2680  -29.9328    2.3417 C   0  0  0  0  0  0  0  0  0  0  0  0
   19.6314  -29.7895    0.6712 S   0  0  0  0  0  0  0  0  0  0  0  0
   18.6662  -28.2425    0.4995 C   0  0  0  0  0  0  0  0  0  0  0  0
   18.8211  -27.4800    1.8018 C   0  0  0  0  0  0  0  0  0  0  0  0
   18.0371  -26.1878    1.7864 C   0  0  2  0  0  0  0  0  0  0  0  0
   18.4626  -25.3593    0.7038 N   0  0  0  0  0  0  0  0  0  0  0  0
   18.1679  -25.4894    3.1060 C   0  0  0  0  0  0  0  0  0  0  0  0
   17.8072  -26.0146    4.1692 O   0  0  0  0  0  0  0  0  0  0  0  0
   18.7220  -24.1946    3.1119 N   0  0  0  0  0  0  0  0  0  0  0  0
   18.9320  -23.3695    4.2482 C   0  0  1  0  0  0  0  0  0  0  0  0
   20.1683  -22.5027    4.2564 C   0  0  0  0  0  0  0  0  0  0  0  0
   20.3359  -21.7272    5.5207 C   0  0  0  0  0  0  0  0  0  0  0  0
   19.4540  -21.7184    6.5993 C   0  0  0  0  0  0  0  0  0  0  0  0
   19.9322  -20.9120    7.5521 N   0  0  0  0  0  0  0  0  0  0  0  0
   21.0934  -20.4031    7.1189 C   0  0  0  0  0  0  0  0  0  0  0  0
   21.3183  -20.9052    5.8962 N   0  0  0  0  0  0  0  0  0  0  0  0
   17.7261  -22.7369    4.7970 C   0  0  0  0  0  0  0  0  0  0  0  0
   17.0027  -21.9382    4.1004 O   0  0  0  0  0  0  0  0  0  0  0  0
   14.2206  -22.5081    8.0922 O   0  0  0  0  0  0  0  0  0  0  0  0
   15.4792  -23.0500    7.8267 C   0  0  0  0  0  0  0  0  0  0  0  0
   16.0218  -22.3463    6.6155 C   0  0  2  0  0  0  0  0  0  0  0  0
   17.2446  -22.9346    6.1164 N   0  0  0  0  0  0  0  0  0  0  0  0
   16.2024  -20.9161    6.9148 C   0  0  0  0  0  0  0  0  0  0  0  0
   15.2831  -19.9374    6.5783 O   0  0  0  0  0  0  0  0  0  0  0  0
   17.2478  -20.5484    7.5102 O   0  0  0  0  0  0  0  0  0  0  0  0
  2  1  1  0
  3  2  1  0
  4  3  1  0
  4  5  1  0
  5  6  1  6
  5  7  1  0
  7  9  1  0
  8  7  2  0
  9 10  1  0
 10 11  1  6
 11 12  1  0
 12 16  1  0
 13 12  2  0
 13 14  1  0
 14 15  1  0
 16 15  2  0
 17 10  1  0
 17 22  1  0
 18 17  2  0
 19 20  1  0
 21 20  1  1
 21 23  1  0
 21 22  1  0
 23 24  1  0
 25 23  2  0
M  END
$$$$
