MHS.pdb
     RDKit          3D

 25 25  0  0  1  0  0  0  0  0999 V2000
   26.6296  -18.5504   -6.0782 C   0  0  0  0  0  0  0  0  0  0  0  0
   28.0668  -19.3957   -6.7390 S   0  0  0  0  0  0  0  0  0  0  0  0
   27.5388  -20.7863   -7.8075 C   0  0  0  0  0  0  0  0  0  0  0  0
   26.7045  -20.1904   -8.9256 C   0  0  0  0  0  0  0  0  0  0  0  0
   26.0426  -21.2641   -9.7586 C   0  0  2  0  0  0  0  0  0  0  0  0
   26.9903  -22.2690  -10.1211 N   0  0  0  0  0  0  0  0  0  0  0  0
   25.3907  -20.6542  -10.9625 C   0  0  0  0  0  0  0  0  0  0  0  0
   24.7938  -19.5692  -10.9111 O   0  0  0  0  0  0  0  0  0  0  0  0
   25.4730  -21.3564  -12.1806 N   0  0  0  0  0  0  0  0  0  0  0  0
   24.9376  -20.9476  -13.4305 C   0  0  1  0  0  0  0  0  0  0  0  0
   25.5962  -21.4885  -14.6769 C   0  0  0  0  0  0  0  0  0  0  0  0
   26.8124  -20.7228  -15.0803 C   0  0  0  0  0  0  0  0  0  0  0  0
   27.2953  -19.5694  -14.4660 C   0  0  0  0  0  0  0  0  0  0  0  0
   28.4021  -19.1652  -15.0972 N   0  0  0  0  0  0  0  0  0  0  0  0
   28.6446  -20.0231  -16.0973 C   0  0  0  0  0  0  0  0  0  0  0  0
   27.6780  -20.9518  -16.0703 N   0  0  0  0  0  0  0  0  0  0  0  0
   23.4730  -20.8619  -13.4890 C   0  0  0  0  0  0  0  0  0  0  0  0
   22.7198  -21.6967  -12.8707 O   0  0  0  0  0  0  0  0  0  0  0  0
   19.4191  -18.5167  -14.7377 O   0  0  0  0  0  0  0  0  0  0  0  0
   20.8008  -18.5628  -14.9296 C   0  0  0  0  0  0  0  0  0  0  0  0
   21.3118  -19.7765  -14.2068 C   0  0  2  0  0  0  0  0  0  0  0  0
   22.7541  -19.8766  -14.2130 N   0  0  0  0  0  0  0  0  0  0  0  0
   20.6916  -20.9860  -14.7726 C   0  0  0  0  0  0  0  0  0  0  0  0
   19.5763  -21.6033  -14.2330 O   0  0  0  0  0  0  0  0  0  0  0  0
   21.1940  -21.4983  -15.8059 O   0  0  0  0  0  0  0  0  0  0  0  0
  2  1  1  0
  3  2  1  0
  4  3  1  0
  4  5  1  0
  5  6  1  6
  5  7  1  0
  7  9  1  0
  8  7  2  0
  9 10  1  0
 10 11  1  6
 11 12  1  0
 12 16  1  0
 13 12  2  0
 13 14  1  0
 14 15  1  0
 16 15  2  0
 17 10  1  0
 17 22  1  0
 18 17  2  0
 19 20  1  0
 21 20  1  6
 21 23  1  0
 21 22  1  0
 23 24  1  0
 25 23  2  0
M  END
$$$$
