MHS.pdb
     RDKit          3D

 25 25  0  0  1  0  0  0  0  0999 V2000
   28.5533  -13.7213  -16.0861 C   0  0  0  0  0  0  0  0  0  0  0  0
   27.2191  -14.9194  -16.0553 S   0  0  0  0  0  0  0  0  0  0  0  0
   25.8006  -14.2525  -15.1082 C   0  0  0  0  0  0  0  0  0  0  0  0
   25.3654  -12.9778  -15.8060 C   0  0  0  0  0  0  0  0  0  0  0  0
   24.3159  -12.2376  -15.0088 C   0  0  2  0  0  0  0  0  0  0  0  0
   23.1963  -13.0856  -14.7500 N   0  0  0  0  0  0  0  0  0  0  0  0
   23.9112  -10.9855  -15.7261 C   0  0  0  0  0  0  0  0  0  0  0  0
   24.7418  -10.2170  -16.2319 O   0  0  0  0  0  0  0  0  0  0  0  0
   22.5360  -10.6945  -15.8150 N   0  0  0  0  0  0  0  0  0  0  0  0
   21.9497   -9.5610  -16.4372 C   0  0  1  0  0  0  0  0  0  0  0  0
   20.7527   -9.7998  -17.3260 C   0  0  0  0  0  0  0  0  0  0  0  0
   21.0042  -10.8120  -18.3939 C   0  0  0  0  0  0  0  0  0  0  0  0
   21.6354  -10.5765  -19.6134 C   0  0  0  0  0  0  0  0  0  0  0  0
   21.6836  -11.7157  -20.3110 N   0  0  0  0  0  0  0  0  0  0  0  0
   21.1032  -12.6748  -19.5776 C   0  0  0  0  0  0  0  0  0  0  0  0
   20.7015  -12.1115  -18.4290 N   0  0  0  0  0  0  0  0  0  0  0  0
   21.8733   -8.3554  -15.6028 C   0  0  0  0  0  0  0  0  0  0  0  0
   21.5313   -8.4067  -14.3671 O   0  0  0  0  0  0  0  0  0  0  0  0
   22.9809   -3.7385  -14.7964 O   0  0  0  0  0  0  0  0  0  0  0  0
   22.8243   -4.6869  -15.8083 C   0  0  0  0  0  0  0  0  0  0  0  0
   22.1417   -5.8793  -15.2010 C   0  0  2  0  0  0  0  0  0  0  0  0
   22.1610   -7.0433  -16.0584 N   0  0  0  0  0  0  0  0  0  0  0  0
   20.7652   -5.5203  -14.8214 C   0  0  0  0  0  0  0  0  0  0  0  0
   20.4126   -5.0358  -13.5736 O   0  0  0  0  0  0  0  0  0  0  0  0
   19.8469   -5.6567  -15.6704 O   0  0  0  0  0  0  0  0  0  0  0  0
  2  1  1  0
  3  2  1  0
  4  3  1  0
  4  5  1  0
  5  6  1  6
  5  7  1  0
  7  9  1  0
  8  7  2  0
  9 10  1  0
 10 11  1  1
 11 12  1  0
 12 16  1  0
 13 12  2  0
 13 14  1  0
 14 15  1  0
 16 15  2  0
 17 10  1  0
 17 22  1  0
 18 17  2  0
 19 20  1  0
 21 20  1  6
 21 23  1  0
 21 22  1  0
 23 24  1  0
 25 23  2  0
M  END
$$$$
