MHS.pdb
     RDKit          3D

 25 25  0  0  1  0  0  0  0  0999 V2000
   27.1155  -14.0849  -23.2638 C   0  0  0  0  0  0  0  0  0  0  0  0
   26.1772  -15.4706  -22.6187 S   0  0  0  0  0  0  0  0  0  0  0  0
   25.9723  -15.2987  -20.8069 C   0  0  0  0  0  0  0  0  0  0  0  0
   25.0817  -16.4403  -20.3541 C   0  0  0  0  0  0  0  0  0  0  0  0
   24.3335  -16.0933  -19.0874 C   0  0  2  0  0  0  0  0  0  0  0  0
   25.1947  -15.4206  -18.1680 N   0  0  0  0  0  0  0  0  0  0  0  0
   23.7353  -17.3293  -18.4867 C   0  0  0  0  0  0  0  0  0  0  0  0
   23.1757  -18.1938  -19.1765 O   0  0  0  0  0  0  0  0  0  0  0  0
   23.8250  -17.4908  -17.0905 N   0  0  0  0  0  0  0  0  0  0  0  0
   23.3175  -18.5772  -16.3303 C   0  0  1  0  0  0  0  0  0  0  0  0
   24.1738  -19.0903  -15.1974 C   0  0  0  0  0  0  0  0  0  0  0  0
   25.5742  -19.4002  -15.6108 C   0  0  0  0  0  0  0  0  0  0  0  0
   26.0870  -20.6669  -15.8818 C   0  0  0  0  0  0  0  0  0  0  0  0
   27.3748  -20.5565  -16.2227 N   0  0  0  0  0  0  0  0  0  0  0  0
   27.7045  -19.2587  -16.1791 C   0  0  0  0  0  0  0  0  0  0  0  0
   26.6087  -18.5804  -15.8092 N   0  0  0  0  0  0  0  0  0  0  0  0
   21.8776  -18.5282  -16.0478 C   0  0  0  0  0  0  0  0  0  0  0  0
   21.3634  -17.6183  -15.3033 O   0  0  0  0  0  0  0  0  0  0  0  0
   19.1423  -21.2181  -17.6620 O   0  0  0  0  0  0  0  0  0  0  0  0
   18.6817  -19.9189  -17.4430 C   0  0  0  0  0  0  0  0  0  0  0  0
   19.5041  -19.3354  -16.3296 C   0  0  2  0  0  0  0  0  0  0  0  0
   20.9278  -19.4529  -16.5524 N   0  0  0  0  0  0  0  0  0  0  0  0
   19.1126  -19.9517  -15.0510 C   0  0  0  0  0  0  0  0  0  0  0  0
   17.8462  -19.8467  -14.5020 O   0  0  0  0  0  0  0  0  0  0  0  0
   19.9684  -20.6147  -14.4103 O   0  0  0  0  0  0  0  0  0  0  0  0
  2  1  1  0
  3  2  1  0
  4  3  1  0
  4  5  1  0
  5  6  1  1
  5  7  1  0
  7  9  1  0
  8  7  2  0
  9 10  1  0
 10 11  1  1
 11 12  1  0
 12 16  1  0
 13 12  2  0
 13 14  1  0
 14 15  1  0
 16 15  2  0
 17 10  1  0
 17 22  1  0
 18 17  2  0
 19 20  1  0
 21 20  1  6
 21 23  1  0
 21 22  1  0
 23 24  1  0
 25 23  2  0
M  END
$$$$
