MHS.pdb
     RDKit          3D

 25 25  0  0  1  0  0  0  0  0999 V2000
   28.5730  -13.4688  -15.2733 C   0  0  0  0  0  0  0  0  0  0  0  0
   27.1464  -12.4184  -15.5532 S   0  0  0  0  0  0  0  0  0  0  0  0
   27.4248  -11.3633  -17.0240 C   0  0  0  0  0  0  0  0  0  0  0  0
   26.2517  -10.4051  -17.1070 C   0  0  0  0  0  0  0  0  0  0  0  0
   24.9305  -11.1359  -17.0360 C   0  0  2  0  0  0  0  0  0  0  0  0
   24.8181  -12.0685  -18.1117 N   0  0  0  0  0  0  0  0  0  0  0  0
   23.7978  -10.1543  -17.0305 C   0  0  0  0  0  0  0  0  0  0  0  0
   23.2749   -9.7442  -18.0768 O   0  0  0  0  0  0  0  0  0  0  0  0
   23.3301   -9.6979  -15.7829 N   0  0  0  0  0  0  0  0  0  0  0  0
   22.2364   -8.8206  -15.5590 C   0  0  1  0  0  0  0  0  0  0  0  0
   21.0091   -9.3983  -14.8956 C   0  0  0  0  0  0  0  0  0  0  0  0
   20.4784  -10.6084  -15.5899 C   0  0  0  0  0  0  0  0  0  0  0  0
   20.4864  -11.9090  -15.0904 C   0  0  0  0  0  0  0  0  0  0  0  0
   19.9273  -12.7279  -15.9868 N   0  0  0  0  0  0  0  0  0  0  0  0
   19.5606  -11.9938  -17.0458 C   0  0  0  0  0  0  0  0  0  0  0  0
   19.9005  -10.7227  -16.7877 N   0  0  0  0  0  0  0  0  0  0  0  0
   22.5967   -7.4648  -15.1259 C   0  0  0  0  0  0  0  0  0  0  0  0
   23.3531   -7.2560  -14.1106 O   0  0  0  0  0  0  0  0  0  0  0  0
   22.5120   -2.6509  -15.7267 O   0  0  0  0  0  0  0  0  0  0  0  0
   22.0270   -3.8616  -16.2237 C   0  0  0  0  0  0  0  0  0  0  0  0
   22.5389   -4.9506  -15.3245 C   0  0  2  0  0  0  0  0  0  0  0  0
   22.1613   -6.2752  -15.7639 N   0  0  0  0  0  0  0  0  0  0  0  0
   22.0940   -4.7006  -13.9434 C   0  0  0  0  0  0  0  0  0  0  0  0
   22.8116   -3.9507  -13.0275 O   0  0  0  0  0  0  0  0  0  0  0  0
   21.0005   -5.1908  -13.5605 O   0  0  0  0  0  0  0  0  0  0  0  0
  2  1  1  0
  3  2  1  0
  4  3  1  0
  4  5  1  0
  5  6  1  6
  5  7  1  0
  7  9  1  0
  8  7  2  0
  9 10  1  0
 10 11  1  1
 11 12  1  0
 12 16  1  0
 13 12  2  0
 13 14  1  0
 14 15  1  0
 16 15  2  0
 17 10  1  0
 17 22  1  0
 18 17  2  0
 19 20  1  0
 21 20  1  6
 21 23  1  0
 21 22  1  0
 23 24  1  0
 25 23  2  0
M  END
$$$$
