MHS.pdb
     RDKit          3D

 25 25  0  0  1  0  0  0  0  0999 V2000
   19.9409  -14.1763  -16.4524 C   0  0  0  0  0  0  0  0  0  0  0  0
   19.3565  -14.1785  -18.1480 S   0  0  0  0  0  0  0  0  0  0  0  0
   19.6466  -12.5397  -18.9123 C   0  0  0  0  0  0  0  0  0  0  0  0
   19.2924  -11.4978  -17.8680 C   0  0  0  0  0  0  0  0  0  0  0  0
   19.4868  -10.0943  -18.3944 C   0  0  2  0  0  0  0  0  0  0  0  0
   20.8163   -9.9267  -18.8883 N   0  0  0  0  0  0  0  0  0  0  0  0
   19.1596   -9.0935  -17.3277 C   0  0  0  0  0  0  0  0  0  0  0  0
   18.0696   -9.0905  -16.7377 O   0  0  0  0  0  0  0  0  0  0  0  0
   20.1394   -8.1353  -17.0030 N   0  0  0  0  0  0  0  0  0  0  0  0
   20.0171   -7.0897  -16.0504 C   0  0  1  0  0  0  0  0  0  0  0  0
   21.1297   -6.9381  -15.0409 C   0  0  0  0  0  0  0  0  0  0  0  0
   21.3934   -8.1844  -14.2629 C   0  0  0  0  0  0  0  0  0  0  0  0
   20.6374   -9.3538  -14.3084 C   0  0  0  0  0  0  0  0  0  0  0  0
   21.1732  -10.2565  -13.4809 N   0  0  0  0  0  0  0  0  0  0  0  0
   22.2492   -9.7032  -12.9057 C   0  0  0  0  0  0  0  0  0  0  0  0
   22.3645   -8.4578  -13.3889 N   0  0  0  0  0  0  0  0  0  0  0  0
   19.4717   -5.8286  -16.5679 C   0  0  0  0  0  0  0  0  0  0  0  0
   19.8741   -5.3196  -17.6749 O   0  0  0  0  0  0  0  0  0  0  0  0
   15.7626   -4.6593  -16.1878 O   0  0  0  0  0  0  0  0  0  0  0  0
   16.5469   -3.5267  -15.9639 C   0  0  0  0  0  0  0  0  0  0  0  0
   17.9294   -3.8349  -16.4641 C   0  0  2  0  0  0  0  0  0  0  0  0
   18.4709   -5.0602  -15.9201 N   0  0  0  0  0  0  0  0  0  0  0  0
   18.8186   -2.6932  -16.1930 C   0  0  0  0  0  0  0  0  0  0  0  0
   18.5941   -1.4129  -16.6693 O   0  0  0  0  0  0  0  0  0  0  0  0
   19.8450   -2.8777  -15.4895 O   0  0  0  0  0  0  0  0  0  0  0  0
  2  1  1  0
  3  2  1  0
  4  3  1  0
  4  5  1  0
  5  6  1  1
  5  7  1  0
  7  9  1  0
  8  7  2  0
  9 10  1  0
 10 11  1  6
 11 12  1  0
 12 16  1  0
 13 12  2  0
 13 14  1  0
 14 15  1  0
 16 15  2  0
 17 10  1  0
 17 22  1  0
 18 17  2  0
 19 20  1  0
 21 20  1  1
 21 23  1  0
 21 22  1  0
 23 24  1  0
 25 23  2  0
M  END
$$$$
