MHS.pdb
     RDKit          3D

 25 25  0  0  1  0  0  0  0  0999 V2000
   29.7509  -11.6362  -18.9991 C   0  0  0  0  0  0  0  0  0  0  0  0
   29.4449  -12.1440  -17.3064 S   0  0  0  0  0  0  0  0  0  0  0  0
   27.9510  -13.2006  -17.2301 C   0  0  0  0  0  0  0  0  0  0  0  0
   26.7737  -12.3278  -17.6218 C   0  0  0  0  0  0  0  0  0  0  0  0
   26.5812  -11.1851  -16.6512 C   0  0  2  0  0  0  0  0  0  0  0  0
   26.4139  -11.6821  -15.3228 N   0  0  0  0  0  0  0  0  0  0  0  0
   25.4220  -10.3361  -17.0774 C   0  0  0  0  0  0  0  0  0  0  0  0
   25.2905   -9.9361  -18.2432 O   0  0  0  0  0  0  0  0  0  0  0  0
   24.4641   -9.9950  -16.1029 N   0  0  0  0  0  0  0  0  0  0  0  0
   23.3116   -9.1884  -16.2956 C   0  0  1  0  0  0  0  0  0  0  0  0
   21.9673   -9.8724  -16.2256 C   0  0  0  0  0  0  0  0  0  0  0  0
   21.8607  -11.0561  -17.1287 C   0  0  0  0  0  0  0  0  0  0  0  0
   21.7807  -12.3879  -16.7275 C   0  0  0  0  0  0  0  0  0  0  0  0
   21.6950  -13.1688  -17.8090 N   0  0  0  0  0  0  0  0  0  0  0  0
   21.7175  -12.3800  -18.8917 C   0  0  0  0  0  0  0  0  0  0  0  0
   21.8174  -11.1140  -18.4616 N   0  0  0  0  0  0  0  0  0  0  0  0
   23.3648   -7.8582  -15.6764 C   0  0  0  0  0  0  0  0  0  0  0  0
   23.7093   -7.6940  -14.4513 O   0  0  0  0  0  0  0  0  0  0  0  0
   23.2695   -3.0268  -16.0502 O   0  0  0  0  0  0  0  0  0  0  0  0
   22.9424   -4.2155  -16.7045 C   0  0  0  0  0  0  0  0  0  0  0  0
   23.2121   -5.3411  -15.7469 C   0  0  2  0  0  0  0  0  0  0  0  0
   23.0513   -6.6474  -16.3453 N   0  0  0  0  0  0  0  0  0  0  0  0
   22.3587   -5.1919  -14.5565 C   0  0  0  0  0  0  0  0  0  0  0  0
   22.7504   -4.5271  -13.4072 O   0  0  0  0  0  0  0  0  0  0  0  0
   21.2047   -5.6926  -14.5710 O   0  0  0  0  0  0  0  0  0  0  0  0
  2  1  1  0
  3  2  1  0
  4  3  1  0
  4  5  1  0
  5  6  1  1
  5  7  1  0
  7  9  1  0
  8  7  2  0
  9 10  1  0
 10 11  1  1
 11 12  1  0
 12 16  1  0
 13 12  2  0
 13 14  1  0
 14 15  1  0
 16 15  2  0
 17 10  1  0
 17 22  1  0
 18 17  2  0
 19 20  1  0
 21 20  1  6
 21 23  1  0
 21 22  1  0
 23 24  1  0
 25 23  2  0
M  END
$$$$
