YWM.pdb
     RDKit          3D

 35 37  0  0  1  0  0  0  0  0999 V2000
   36.7477  -34.0230  -21.9003 O   0  0  0  0  0  0  0  0  0  0  0  0
   35.8802  -33.9634  -20.8179 C   0  0  0  0  0  0  0  0  0  0  0  0
   36.3688  -34.3400  -19.5797 C   0  0  0  0  0  0  0  0  0  0  0  0
   35.5422  -34.2977  -18.4696 C   0  0  0  0  0  0  0  0  0  0  0  0
   34.2448  -33.8839  -18.5995 C   0  0  0  0  0  0  0  0  0  0  0  0
   33.3675  -33.8372  -17.4207 C   0  0  0  0  0  0  0  0  0  0  0  0
   33.2299  -32.3963  -16.9817 C   0  0  2  0  0  0  0  0  0  0  0  0
   34.1296  -32.0211  -15.9403 N   0  0  0  0  0  0  0  0  0  0  0  0
   31.8454  -32.0398  -16.6067 C   0  0  0  0  0  0  0  0  0  0  0  0
   31.5652  -31.9445  -15.3850 O   0  0  0  0  0  0  0  0  0  0  0  0
   33.7751  -33.5143  -19.8313 C   0  0  0  0  0  0  0  0  0  0  0  0
   34.5874  -33.5478  -20.9645 C   0  0  0  0  0  0  0  0  0  0  0  0
   30.8553  -31.8094  -17.5752 N   0  0  0  0  0  0  0  0  0  0  0  0
   29.4503  -31.4920  -17.2432 C   0  0  1  0  0  0  0  0  0  0  0  0
   28.8527  -30.8406  -18.4274 C   0  0  0  0  0  0  0  0  0  0  0  0
   27.4324  -30.4862  -18.3802 C   0  0  0  0  0  0  0  0  0  0  0  0
   26.8450  -29.4699  -17.6563 C   0  0  0  0  0  0  0  0  0  0  0  0
   25.5245  -29.4675  -17.8448 N   0  0  0  0  0  0  0  0  0  0  0  0
   25.2348  -30.4677  -18.6830 C   0  0  0  0  0  0  0  0  0  0  0  0
   24.0409  -30.9206  -19.2322 C   0  0  0  0  0  0  0  0  0  0  0  0
   23.9758  -31.9906  -20.1112 C   0  0  0  0  0  0  0  0  0  0  0  0
   25.1233  -32.6367  -20.4616 C   0  0  0  0  0  0  0  0  0  0  0  0
   26.3095  -32.1980  -19.9242 C   0  0  0  0  0  0  0  0  0  0  0  0
   26.4057  -31.1225  -19.0354 C   0  0  0  0  0  0  0  0  0  0  0  0
   28.8016  -32.6540  -16.6761 C   0  0  0  0  0  0  0  0  0  0  0  0
   28.9861  -33.8196  -17.1051 O   0  0  0  0  0  0  0  0  0  0  0  0
   24.4268  -34.9358  -10.3684 C   0  0  0  0  0  0  0  0  0  0  0  0
   25.1014  -33.6407  -11.4098 S   0  0  0  0  0  0  0  0  0  0  0  0
   25.8945  -34.2387  -12.8838 C   0  0  0  0  0  0  0  0  0  0  0  0
   26.6352  -33.2793  -13.7154 C   0  0  0  0  0  0  0  0  0  0  0  0
   27.2644  -33.7153  -14.9758 C   0  0  2  0  0  0  0  0  0  0  0  0
   27.9118  -32.5160  -15.5886 N   0  0  0  0  0  0  0  0  0  0  0  0
   26.3312  -34.2062  -15.9740 C   0  0  0  0  0  0  0  0  0  0  0  0
   26.3159  -35.5394  -16.4084 O   0  0  0  0  0  0  0  0  0  0  0  0
   25.4779  -33.4155  -16.5040 O   0  0  0  0  0  0  0  0  0  0  0  0
  2  1  1  0
  3  2  2  0
  4  3  1  0
  5  4  2  0
  5 11  1  0
  6  5  1  0
  7  6  1  0
  7  8  1  1
  9  7  1  0
 10  9  2  0
 11 12  2  0
 12  2  1  0
 13  9  1  0
 14 25  1  0
 14 13  1  0
 14 15  1  6
 16 15  1  0
 17 16  2  0
 18 17  1  0
 19 24  2  0
 19 18  1  0
 20 19  1  0
 21 20  2  0
 21 22  1  0
 22 23  2  0
 23 24  1  0
 24 16  1  0
 25 32  1  0
 26 25  2  0
 27 28  1  0
 28 29  1  0
 29 30  1  0
 31 30  1  1
 31 33  1  0
 32 31  1  0
 33 35  2  0
 33 34  1  0
M  END
$$$$
