YWM.pdb
     RDKit          3D

 35 37  0  0  1  0  0  0  0  0999 V2000
   33.3511  -26.5909  -17.7559 O   0  0  0  0  0  0  0  0  0  0  0  0
   32.5589  -25.5340  -17.3279 C   0  0  0  0  0  0  0  0  0  0  0  0
   32.7322  -24.3082  -17.9453 C   0  0  0  0  0  0  0  0  0  0  0  0
   31.9657  -23.2236  -17.5537 C   0  0  0  0  0  0  0  0  0  0  0  0
   31.0392  -23.3664  -16.5574 C   0  0  0  0  0  0  0  0  0  0  0  0
   30.2239  -22.2154  -16.1425 C   0  0  0  0  0  0  0  0  0  0  0  0
   28.8467  -22.3585  -16.7514 C   0  0  2  0  0  0  0  0  0  0  0  0
   28.8191  -22.1795  -18.1663 N   0  0  0  0  0  0  0  0  0  0  0  0
   27.8420  -21.4836  -16.1114 C   0  0  0  0  0  0  0  0  0  0  0  0
   27.9579  -20.2401  -16.2543 O   0  0  0  0  0  0  0  0  0  0  0  0
   30.8788  -24.5855  -15.9553 C   0  0  0  0  0  0  0  0  0  0  0  0
   31.6382  -25.6931  -16.3317 C   0  0  0  0  0  0  0  0  0  0  0  0
   26.7788  -22.0088  -15.3598 N   0  0  0  0  0  0  0  0  0  0  0  0
   25.7844  -21.1690  -14.6590 C   0  0  1  0  0  0  0  0  0  0  0  0
   24.4941  -21.3340  -15.3602 C   0  0  0  0  0  0  0  0  0  0  0  0
   23.4052  -20.4104  -15.0337 C   0  0  0  0  0  0  0  0  0  0  0  0
   23.4580  -19.0330  -14.9909 C   0  0  0  0  0  0  0  0  0  0  0  0
   22.2749  -18.5330  -14.6309 N   0  0  0  0  0  0  0  0  0  0  0  0
   21.4442  -19.5622  -14.4366 C   0  0  0  0  0  0  0  0  0  0  0  0
   20.1056  -19.6360  -14.0695 C   0  0  0  0  0  0  0  0  0  0  0  0
   19.4266  -20.8377  -13.9401 C   0  0  0  0  0  0  0  0  0  0  0  0
   20.0864  -22.0057  -14.1797 C   0  0  0  0  0  0  0  0  0  0  0  0
   21.4104  -21.9449  -14.5425 C   0  0  0  0  0  0  0  0  0  0  0  0
   22.1209  -20.7482  -14.6805 C   0  0  0  0  0  0  0  0  0  0  0  0
   25.8481  -21.4120  -13.2345 C   0  0  0  0  0  0  0  0  0  0  0  0
   25.9765  -22.5590  -12.7399 O   0  0  0  0  0  0  0  0  0  0  0  0
   27.2373  -20.2417   -6.0314 C   0  0  0  0  0  0  0  0  0  0  0  0
   27.3491  -20.5006   -7.8027 S   0  0  0  0  0  0  0  0  0  0  0  0
   26.4992  -19.2732   -8.7671 C   0  0  0  0  0  0  0  0  0  0  0  0
   26.4790  -19.4259  -10.2290 C   0  0  0  0  0  0  0  0  0  0  0  0
   25.8078  -20.5834  -10.8486 C   0  0  2  0  0  0  0  0  0  0  0  0
   25.7657  -20.3377  -12.3220 N   0  0  0  0  0  0  0  0  0  0  0  0
   24.4247  -20.7622  -10.4444 C   0  0  0  0  0  0  0  0  0  0  0  0
   24.0360  -21.6702   -9.4490 O   0  0  0  0  0  0  0  0  0  0  0  0
   23.4962  -20.0838  -11.0028 O   0  0  0  0  0  0  0  0  0  0  0  0
  2  1  1  0
  3  2  2  0
  4  3  1  0
  5  4  2  0
  5 11  1  0
  6  5  1  0
  7  6  1  0
  7  8  1  6
  9  7  1  0
 10  9  2  0
 11 12  2  0
 12  2  1  0
 13  9  1  0
 14 25  1  0
 14 13  1  0
 14 15  1  6
 16 15  1  0
 17 16  2  0
 18 17  1  0
 19 24  2  0
 19 18  1  0
 20 19  1  0
 21 20  2  0
 21 22  1  0
 22 23  2  0
 23 24  1  0
 24 16  1  0
 25 32  1  0
 26 25  2  0
 27 28  1  0
 28 29  1  0
 29 30  1  0
 31 30  1  1
 31 33  1  0
 32 31  1  0
 33 35  2  0
 33 34  1  0
M  END
$$$$
