YWM.pdb
     RDKit          3D

 35 37  0  0  1  0  0  0  0  0999 V2000
   16.1732  -25.5932  -19.1529 O   0  0  0  0  0  0  0  0  0  0  0  0
   15.8677  -24.2797  -18.8224 C   0  0  0  0  0  0  0  0  0  0  0  0
   15.1992  -24.0540  -17.6324 C   0  0  0  0  0  0  0  0  0  0  0  0
   14.8724  -22.7614  -17.2588 C   0  0  0  0  0  0  0  0  0  0  0  0
   15.2109  -21.7107  -18.0668 C   0  0  0  0  0  0  0  0  0  0  0  0
   14.8656  -20.3379  -17.6695 C   0  0  0  0  0  0  0  0  0  0  0  0
   16.1432  -19.5973  -17.3424 C   0  0  2  0  0  0  0  0  0  0  0  0
   16.8678  -20.1516  -16.2458 N   0  0  0  0  0  0  0  0  0  0  0  0
   15.9297  -18.1506  -17.1279 C   0  0  0  0  0  0  0  0  0  0  0  0
   15.6239  -17.7587  -15.9733 O   0  0  0  0  0  0  0  0  0  0  0  0
   15.8722  -21.9494  -19.2416 C   0  0  0  0  0  0  0  0  0  0  0  0
   16.2128  -23.2417  -19.6403 C   0  0  0  0  0  0  0  0  0  0  0  0
   16.0605  -17.2230  -18.1736 N   0  0  0  0  0  0  0  0  0  0  0  0
   15.7760  -15.7803  -18.0223 C   0  0  1  0  0  0  0  0  0  0  0  0
   16.6777  -15.0534  -18.9400 C   0  0  0  0  0  0  0  0  0  0  0  0
   16.5632  -13.5951  -19.0129 C   0  0  0  0  0  0  0  0  0  0  0  0
   16.7691  -12.6857  -17.9968 C   0  0  0  0  0  0  0  0  0  0  0  0
   16.5483  -11.4442  -18.4317 N   0  0  0  0  0  0  0  0  0  0  0  0
   16.2003  -11.5239  -19.7200 C   0  0  0  0  0  0  0  0  0  0  0  0
   15.8741  -10.5620  -20.6688 C   0  0  0  0  0  0  0  0  0  0  0  0
   15.5533  -10.8777  -21.9800 C   0  0  0  0  0  0  0  0  0  0  0  0
   15.5534  -12.1832  -22.3708 C   0  0  0  0  0  0  0  0  0  0  0  0
   15.8736  -13.1429  -21.4409 C   0  0  0  0  0  0  0  0  0  0  0  0
   16.2008  -12.8543  -20.1121 C   0  0  0  0  0  0  0  0  0  0  0  0
   14.3508  -15.5464  -18.1031 C   0  0  0  0  0  0  0  0  0  0  0  0
   13.5996  -16.1604  -18.9003 O   0  0  0  0  0  0  0  0  0  0  0  0
    8.2758  -12.3916  -14.0030 C   0  0  0  0  0  0  0  0  0  0  0  0
    9.9914  -12.8953  -14.1447 S   0  0  0  0  0  0  0  0  0  0  0  0
   10.4365  -13.4977  -15.7566 C   0  0  0  0  0  0  0  0  0  0  0  0
   11.8377  -13.8699  -15.9996 C   0  0  0  0  0  0  0  0  0  0  0  0
   12.2589  -14.3648  -17.3232 C   0  0  2  0  0  0  0  0  0  0  0  0
   13.7347  -14.5917  -17.2649 N   0  0  0  0  0  0  0  0  0  0  0  0
   12.0527  -13.4234  -18.4094 C   0  0  0  0  0  0  0  0  0  0  0  0
   10.8597  -13.3608  -19.1436 O   0  0  0  0  0  0  0  0  0  0  0  0
   12.9790  -12.6068  -18.7403 O   0  0  0  0  0  0  0  0  0  0  0  0
  2  1  1  0
  3  2  2  0
  4  3  1  0
  5  4  2  0
  5 11  1  0
  6  5  1  0
  7  6  1  0
  7  8  1  1
  9  7  1  0
 10  9  2  0
 11 12  2  0
 12  2  1  0
 13  9  1  0
 14 25  1  0
 14 13  1  0
 14 15  1  6
 16 15  1  0
 17 16  2  0
 18 17  1  0
 19 24  2  0
 19 18  1  0
 20 19  1  0
 21 20  2  0
 21 22  1  0
 22 23  2  0
 23 24  1  0
 24 16  1  0
 25 32  1  0
 26 25  2  0
 27 28  1  0
 28 29  1  0
 29 30  1  0
 31 30  1  1
 31 33  1  0
 32 31  1  0
 33 35  2  0
 33 34  1  0
M  END
$$$$
