YWM.pdb
     RDKit          3D

 35 37  0  0  1  0  0  0  0  0999 V2000
   22.7673  -13.6480  -24.2114 O   0  0  0  0  0  0  0  0  0  0  0  0
   22.7111  -14.7758  -23.4037 C   0  0  0  0  0  0  0  0  0  0  0  0
   23.6736  -15.7515  -23.5924 C   0  0  0  0  0  0  0  0  0  0  0  0
   23.6599  -16.8948  -22.8113 C   0  0  0  0  0  0  0  0  0  0  0  0
   22.6950  -17.0571  -21.8553 C   0  0  0  0  0  0  0  0  0  0  0  0
   22.6812  -18.2702  -21.0247 C   0  0  0  0  0  0  0  0  0  0  0  0
   23.5829  -18.0449  -19.8314 C   0  0  2  0  0  0  0  0  0  0  0  0
   24.9376  -17.7609  -20.1763 N   0  0  0  0  0  0  0  0  0  0  0  0
   23.5314  -19.1534  -18.8551 C   0  0  0  0  0  0  0  0  0  0  0  0
   24.3377  -20.1076  -18.9946 O   0  0  0  0  0  0  0  0  0  0  0  0
   21.7488  -16.0832  -21.6800 C   0  0  0  0  0  0  0  0  0  0  0  0
   21.7411  -14.9227  -22.4535 C   0  0  0  0  0  0  0  0  0  0  0  0
   22.6133  -19.1583  -17.7929 N   0  0  0  0  0  0  0  0  0  0  0  0
   22.5757  -20.2096  -16.7544 C   0  0  1  0  0  0  0  0  0  0  0  0
   23.1958  -19.6492  -15.5357 C   0  0  0  0  0  0  0  0  0  0  0  0
   23.1440  -20.4417  -14.3050 C   0  0  0  0  0  0  0  0  0  0  0  0
   22.5318  -20.1054  -13.1159 C   0  0  0  0  0  0  0  0  0  0  0  0
   22.7160  -21.0666  -12.2096 N   0  0  0  0  0  0  0  0  0  0  0  0
   23.4406  -22.0310  -12.7859 C   0  0  0  0  0  0  0  0  0  0  0  0
   23.9132  -23.2553  -12.3280 C   0  0  0  0  0  0  0  0  0  0  0  0
   24.6484  -24.1220  -13.1219 C   0  0  0  0  0  0  0  0  0  0  0  0
   24.9281  -23.7726  -14.4090 C   0  0  0  0  0  0  0  0  0  0  0  0
   24.4665  -22.5640  -14.8723 C   0  0  0  0  0  0  0  0  0  0  0  0
   23.7234  -21.6698  -14.0949 C   0  0  0  0  0  0  0  0  0  0  0  0
   21.2472  -20.7760  -16.6721 C   0  0  0  0  0  0  0  0  0  0  0  0
   20.2083  -20.0765  -16.5818 O   0  0  0  0  0  0  0  0  0  0  0  0
   16.5427  -26.7980  -17.4851 C   0  0  0  0  0  0  0  0  0  0  0  0
   18.0799  -25.9120  -17.7481 S   0  0  0  0  0  0  0  0  0  0  0  0
   18.7145  -25.1180  -16.2900 C   0  0  0  0  0  0  0  0  0  0  0  0
   19.8854  -24.2400  -16.4275 C   0  0  0  0  0  0  0  0  0  0  0  0
   19.7240  -22.7743  -16.4134 C   0  0  2  0  0  0  0  0  0  0  0  0
   21.0649  -22.1760  -16.6907 N   0  0  0  0  0  0  0  0  0  0  0  0
   19.3117  -22.2283  -15.1327 C   0  0  0  0  0  0  0  0  0  0  0  0
   18.0351  -21.6920  -14.9116 O   0  0  0  0  0  0  0  0  0  0  0  0
   20.1235  -22.2149  -14.1453 O   0  0  0  0  0  0  0  0  0  0  0  0
  2  1  1  0
  3  2  2  0
  4  3  1  0
  5  4  2  0
  5 11  1  0
  6  5  1  0
  7  6  1  0
  7  8  1  6
  9  7  1  0
 10  9  2  0
 11 12  2  0
 12  2  1  0
 13  9  1  0
 14 25  1  0
 14 13  1  0
 14 15  1  1
 16 15  1  0
 17 16  2  0
 18 17  1  0
 19 24  2  0
 19 18  1  0
 20 19  1  0
 21 20  2  0
 21 22  1  0
 22 23  2  0
 23 24  1  0
 24 16  1  0
 25 32  1  0
 26 25  2  0
 27 28  1  0
 28 29  1  0
 29 30  1  0
 31 30  1  1
 31 33  1  0
 32 31  1  0
 33 35  2  0
 33 34  1  0
M  END
$$$$
