YWM.pdb
     RDKit          3D

 35 37  0  0  1  0  0  0  0  0999 V2000
   30.1956  -17.2259  -18.8804 O   0  0  0  0  0  0  0  0  0  0  0  0
   29.3884  -17.7275  -17.8683 C   0  0  0  0  0  0  0  0  0  0  0  0
   29.8680  -17.6660  -16.5721 C   0  0  0  0  0  0  0  0  0  0  0  0
   29.0999  -18.1532  -15.5281 C   0  0  0  0  0  0  0  0  0  0  0  0
   27.8691  -18.6942  -15.7804 C   0  0  0  0  0  0  0  0  0  0  0  0
   27.0526  -19.2101  -14.6719 C   0  0  0  0  0  0  0  0  0  0  0  0
   27.6232  -20.5408  -14.2345 C   0  0  2  0  0  0  0  0  0  0  0  0
   27.5827  -21.5470  -15.2448 N   0  0  0  0  0  0  0  0  0  0  0  0
   27.0079  -21.0485  -12.9902 C   0  0  0  0  0  0  0  0  0  0  0  0
   25.9680  -21.7488  -13.0829 O   0  0  0  0  0  0  0  0  0  0  0  0
   27.4076  -18.7486  -17.0682 C   0  0  0  0  0  0  0  0  0  0  0  0
   28.1617  -18.2645  -18.1369 C   0  0  0  0  0  0  0  0  0  0  0  0
   27.5558  -20.7670  -11.7285 N   0  0  0  0  0  0  0  0  0  0  0  0
   26.8179  -20.9519  -10.4611 C   0  0  1  0  0  0  0  0  0  0  0  0
   27.7468  -20.6295   -9.3579 C   0  0  0  0  0  0  0  0  0  0  0  0
   27.2142  -20.5857   -7.9942 C   0  0  0  0  0  0  0  0  0  0  0  0
   25.9293  -20.8756   -7.5858 C   0  0  0  0  0  0  0  0  0  0  0  0
   25.8092  -20.7009   -6.2689 N   0  0  0  0  0  0  0  0  0  0  0  0
   26.9973  -20.3004   -5.8049 C   0  0  0  0  0  0  0  0  0  0  0  0
   27.4536  -19.9869   -4.5300 C   0  0  0  0  0  0  0  0  0  0  0  0
   28.7600  -19.6008   -4.2729 C   0  0  0  0  0  0  0  0  0  0  0  0
   29.6470  -19.5204   -5.3043 C   0  0  0  0  0  0  0  0  0  0  0  0
   29.2067  -19.8274   -6.5693 C   0  0  0  0  0  0  0  0  0  0  0  0
   27.8956  -20.2191   -6.8586 C   0  0  0  0  0  0  0  0  0  0  0  0
   25.5420  -20.2738  -10.5283 C   0  0  0  0  0  0  0  0  0  0  0  0
   25.4331  -19.0283  -10.6449 O   0  0  0  0  0  0  0  0  0  0  0  0
   22.7318  -20.6231  -15.6064 C   0  0  0  0  0  0  0  0  0  0  0  0
   21.2571  -20.7660  -14.5955 S   0  0  0  0  0  0  0  0  0  0  0  0
   21.5074  -20.3392  -12.8884 C   0  0  0  0  0  0  0  0  0  0  0  0
   22.7730  -20.7290  -12.2504 C   0  0  0  0  0  0  0  0  0  0  0  0
   23.0378  -20.3774  -10.8430 C   0  0  2  0  0  0  0  0  0  0  0  0
   24.3380  -21.0085  -10.4633 N   0  0  0  0  0  0  0  0  0  0  0  0
   22.0631  -20.8977   -9.9009 C   0  0  0  0  0  0  0  0  0  0  0  0
   20.8316  -20.2721   -9.6594 O   0  0  0  0  0  0  0  0  0  0  0  0
   22.3080  -21.9658   -9.2426 O   0  0  0  0  0  0  0  0  0  0  0  0
  2  1  1  0
  3  2  2  0
  4  3  1  0
  5  4  2  0
  5 11  1  0
  6  5  1  0
  7  6  1  0
  7  8  1  6
  9  7  1  0
 10  9  2  0
 11 12  2  0
 12  2  1  0
 13  9  1  0
 14 25  1  0
 14 13  1  0
 14 15  1  1
 16 15  1  0
 17 16  2  0
 18 17  1  0
 19 24  2  0
 19 18  1  0
 20 19  1  0
 21 20  2  0
 21 22  1  0
 22 23  2  0
 23 24  1  0
 24 16  1  0
 25 32  1  0
 26 25  2  0
 27 28  1  0
 28 29  1  0
 29 30  1  0
 31 30  1  6
 31 33  1  0
 32 31  1  0
 33 35  2  0
 33 34  1  0
M  END
$$$$
