YWM.pdb
     RDKit          3D

 35 37  0  0  1  0  0  0  0  0999 V2000
   30.7156  -27.6120  -17.8829 O   0  0  0  0  0  0  0  0  0  0  0  0
   30.3166  -26.3922  -17.3531 C   0  0  0  0  0  0  0  0  0  0  0  0
   29.2844  -26.3970  -16.4321 C   0  0  0  0  0  0  0  0  0  0  0  0
   28.8507  -25.2057  -15.8753 C   0  0  0  0  0  0  0  0  0  0  0  0
   29.4435  -24.0271  -16.2369 C   0  0  0  0  0  0  0  0  0  0  0  0
   28.9844  -22.7622  -15.6446 C   0  0  0  0  0  0  0  0  0  0  0  0
   27.5367  -22.5503  -16.0282 C   0  0  2  0  0  0  0  0  0  0  0  0
   27.3338  -22.3393  -17.4243 N   0  0  0  0  0  0  0  0  0  0  0  0
   26.8896  -21.4701  -15.2542 C   0  0  0  0  0  0  0  0  0  0  0  0
   27.1472  -20.2793  -15.5638 O   0  0  0  0  0  0  0  0  0  0  0  0
   30.4638  -24.0378  -17.1498 C   0  0  0  0  0  0  0  0  0  0  0  0
   30.9189  -25.2241  -17.7248 C   0  0  0  0  0  0  0  0  0  0  0  0
   26.0074  -21.7468  -14.1977 N   0  0  0  0  0  0  0  0  0  0  0  0
   25.3633  -20.6978  -13.3792 C   0  0  1  0  0  0  0  0  0  0  0  0
   24.1459  -20.2636  -14.0956 C   0  0  0  0  0  0  0  0  0  0  0  0
   24.2643  -19.1705  -15.0632 C   0  0  0  0  0  0  0  0  0  0  0  0
   23.3416  -18.7885  -16.0143 C   0  0  0  0  0  0  0  0  0  0  0  0
   23.8089  -17.7654  -16.7314 N   0  0  0  0  0  0  0  0  0  0  0  0
   25.0261  -17.4686  -16.2651 C   0  0  0  0  0  0  0  0  0  0  0  0
   25.9596  -16.5009  -16.6175 C   0  0  0  0  0  0  0  0  0  0  0  0
   27.1790  -16.3624  -15.9727 C   0  0  0  0  0  0  0  0  0  0  0  0
   27.4905  -17.2041  -14.9472 C   0  0  0  0  0  0  0  0  0  0  0  0
   26.5754  -18.1652  -14.5907 C   0  0  0  0  0  0  0  0  0  0  0  0
   25.3386  -18.3286  -15.2228 C   0  0  0  0  0  0  0  0  0  0  0  0
   25.2526  -21.1401  -12.0064 C   0  0  0  0  0  0  0  0  0  0  0  0
   24.6055  -22.1606  -11.6652 O   0  0  0  0  0  0  0  0  0  0  0  0
   29.0392  -19.1673   -6.4133 C   0  0  0  0  0  0  0  0  0  0  0  0
   27.5836  -20.1903   -6.1853 S   0  0  0  0  0  0  0  0  0  0  0  0
   26.2342  -19.7776   -7.2659 C   0  0  0  0  0  0  0  0  0  0  0  0
   26.4547  -19.8533   -8.7172 C   0  0  0  0  0  0  0  0  0  0  0  0
   25.6816  -20.8017   -9.5403 C   0  0  2  0  0  0  0  0  0  0  0  0
   25.8862  -20.4198  -10.9704 N   0  0  0  0  0  0  0  0  0  0  0  0
   24.2463  -20.7510   -9.3257 C   0  0  0  0  0  0  0  0  0  0  0  0
   23.5848  -21.5880   -8.4156 O   0  0  0  0  0  0  0  0  0  0  0  0
   23.5245  -19.9245   -9.9814 O   0  0  0  0  0  0  0  0  0  0  0  0
  2  1  1  0
  3  2  2  0
  4  3  1  0
  5  4  2  0
  5 11  1  0
  6  5  1  0
  7  6  1  0
  7  8  1  6
  9  7  1  0
 10  9  2  0
 11 12  2  0
 12  2  1  0
 13  9  1  0
 14 25  1  0
 14 13  1  0
 14 15  1  6
 16 15  1  0
 17 16  2  0
 18 17  1  0
 19 24  2  0
 19 18  1  0
 20 19  1  0
 21 20  2  0
 21 22  1  0
 22 23  2  0
 23 24  1  0
 24 16  1  0
 25 32  1  0
 26 25  2  0
 27 28  1  0
 28 29  1  0
 29 30  1  0
 31 30  1  1
 31 33  1  0
 32 31  1  0
 33 35  2  0
 33 34  1  0
M  END
$$$$
