YWM.pdb
     RDKit          3D

 35 37  0  0  1  0  0  0  0  0999 V2000
   29.8795  -16.5821  -19.2571 O   0  0  0  0  0  0  0  0  0  0  0  0
   29.2304  -17.1002  -18.1445 C   0  0  0  0  0  0  0  0  0  0  0  0
   29.3649  -18.4540  -17.8930 C   0  0  0  0  0  0  0  0  0  0  0  0
   28.7366  -19.0178  -16.7954 C   0  0  0  0  0  0  0  0  0  0  0  0
   27.9845  -18.2356  -15.9626 C   0  0  0  0  0  0  0  0  0  0  0  0
   27.3187  -18.8337  -14.7961 C   0  0  0  0  0  0  0  0  0  0  0  0
   26.1106  -19.6064  -15.2771 C   0  0  2  0  0  0  0  0  0  0  0  0
   25.2861  -18.8814  -16.1879 N   0  0  0  0  0  0  0  0  0  0  0  0
   25.2916  -20.1402  -14.1686 C   0  0  0  0  0  0  0  0  0  0  0  0
   25.8474  -20.8868  -13.3236 O   0  0  0  0  0  0  0  0  0  0  0  0
   27.8602  -16.8974  -16.2241 C   0  0  0  0  0  0  0  0  0  0  0  0
   28.4830  -16.3055  -17.3227 C   0  0  0  0  0  0  0  0  0  0  0  0
   23.9272  -19.8327  -14.0454 N   0  0  0  0  0  0  0  0  0  0  0  0
   23.0882  -20.2906  -12.9178 C   0  0  1  0  0  0  0  0  0  0  0  0
   23.0079  -19.1794  -11.9469 C   0  0  0  0  0  0  0  0  0  0  0  0
   24.1718  -18.9159  -11.0978 C   0  0  0  0  0  0  0  0  0  0  0  0
   25.0577  -17.8632  -11.1919 C   0  0  0  0  0  0  0  0  0  0  0  0
   26.0070  -17.9693  -10.2609 N   0  0  0  0  0  0  0  0  0  0  0  0
   25.7579  -19.0771   -9.5552 C   0  0  0  0  0  0  0  0  0  0  0  0
   26.3986  -19.6681   -8.4725 C   0  0  0  0  0  0  0  0  0  0  0  0
   25.9459  -20.8350   -7.8764 C   0  0  0  0  0  0  0  0  0  0  0  0
   24.8258  -21.4407   -8.3617 C   0  0  0  0  0  0  0  0  0  0  0  0
   24.1846  -20.8656   -9.4324 C   0  0  0  0  0  0  0  0  0  0  0  0
   24.6180  -19.6901  -10.0539 C   0  0  0  0  0  0  0  0  0  0  0  0
   21.8650  -20.8783  -13.4185 C   0  0  0  0  0  0  0  0  0  0  0  0
   21.3163  -20.5126  -14.4872 O   0  0  0  0  0  0  0  0  0  0  0  0
   17.0431  -26.6734  -14.2118 C   0  0  0  0  0  0  0  0  0  0  0  0
   18.6064  -25.8559  -13.8878 S   0  0  0  0  0  0  0  0  0  0  0  0
   18.5029  -24.5492  -12.6874 C   0  0  0  0  0  0  0  0  0  0  0  0
   19.7029  -23.7392  -12.4331 C   0  0  0  0  0  0  0  0  0  0  0  0
   19.9404  -22.4989  -13.1945 C   0  0  2  0  0  0  0  0  0  0  0  0
   21.2249  -21.9139  -12.7036 N   0  0  0  0  0  0  0  0  0  0  0  0
   18.9394  -21.4673  -12.9885 C   0  0  0  0  0  0  0  0  0  0  0  0
   17.8326  -21.3040  -13.8337 O   0  0  0  0  0  0  0  0  0  0  0  0
   19.0439  -20.6531  -12.0086 O   0  0  0  0  0  0  0  0  0  0  0  0
  2  1  1  0
  3  2  2  0
  4  3  1  0
  5  4  2  0
  5 11  1  0
  6  5  1  0
  7  6  1  0
  7  8  1  1
  9  7  1  0
 10  9  2  0
 11 12  2  0
 12  2  1  0
 13  9  1  0
 14 25  1  0
 14 13  1  0
 14 15  1  1
 16 15  1  0
 17 16  2  0
 18 17  1  0
 19 24  2  0
 19 18  1  0
 20 19  1  0
 21 20  2  0
 21 22  1  0
 22 23  2  0
 23 24  1  0
 24 16  1  0
 25 32  1  0
 26 25  2  0
 27 28  1  0
 28 29  1  0
 29 30  1  0
 31 30  1  1
 31 33  1  0
 32 31  1  0
 33 35  2  0
 33 34  1  0
M  END
$$$$
