YWM.pdb
     RDKit          3D

 35 37  0  0  1  0  0  0  0  0999 V2000
   25.9854  -18.2492  -19.2123 O   0  0  0  0  0  0  0  0  0  0  0  0
   25.5661  -18.8348  -18.0253 C   0  0  0  0  0  0  0  0  0  0  0  0
   25.2702  -20.1861  -18.0435 C   0  0  0  0  0  0  0  0  0  0  0  0
   24.8482  -20.8158  -16.8847 C   0  0  0  0  0  0  0  0  0  0  0  0
   24.7247  -20.1008  -15.7251 C   0  0  0  0  0  0  0  0  0  0  0  0
   24.2783  -20.7695  -14.4942 C   0  0  0  0  0  0  0  0  0  0  0  0
   25.4731  -20.9457  -13.5835 C   0  0  2  0  0  0  0  0  0  0  0  0
   26.4998  -21.7713  -14.1305 N   0  0  0  0  0  0  0  0  0  0  0  0
   25.1022  -21.4262  -12.2359 C   0  0  0  0  0  0  0  0  0  0  0  0
   24.9901  -22.6652  -12.0554 O   0  0  0  0  0  0  0  0  0  0  0  0
   25.0210  -18.7641  -15.7223 C   0  0  0  0  0  0  0  0  0  0  0  0
   25.4480  -18.1068  -16.8758 C   0  0  0  0  0  0  0  0  0  0  0  0
   24.8772  -20.5376  -11.1724 N   0  0  0  0  0  0  0  0  0  0  0  0
   24.4503  -20.9718   -9.8254 C   0  0  1  0  0  0  0  0  0  0  0  0
   25.1680  -20.1333   -8.8427 C   0  0  0  0  0  0  0  0  0  0  0  0
   26.5894  -20.4000   -8.6114 C   0  0  0  0  0  0  0  0  0  0  0  0
   27.4446  -21.1363   -9.4041 C   0  0  0  0  0  0  0  0  0  0  0  0
   28.6614  -21.1809   -8.8595 N   0  0  0  0  0  0  0  0  0  0  0  0
   28.6190  -20.4838   -7.7196 C   0  0  0  0  0  0  0  0  0  0  0  0
   29.5805  -20.1866   -6.7609 C   0  0  0  0  0  0  0  0  0  0  0  0
   29.3120  -19.4156   -5.6405 C   0  0  0  0  0  0  0  0  0  0  0  0
   28.0556  -18.9207   -5.4570 C   0  0  0  0  0  0  0  0  0  0  0  0
   27.0967  -19.2088   -6.3981 C   0  0  0  0  0  0  0  0  0  0  0  0
   27.3383  -19.9835   -7.5372 C   0  0  0  0  0  0  0  0  0  0  0  0
   23.0071  -21.0487   -9.7649 C   0  0  0  0  0  0  0  0  0  0  0  0
   22.2534  -20.3946  -10.5271 O   0  0  0  0  0  0  0  0  0  0  0  0
   19.4352  -24.6738   -4.9181 C   0  0  0  0  0  0  0  0  0  0  0  0
   18.8990  -24.9878   -6.6006 S   0  0  0  0  0  0  0  0  0  0  0  0
   19.2028  -23.6402   -7.7189 C   0  0  0  0  0  0  0  0  0  0  0  0
   20.5896  -23.1921   -7.9107 C   0  0  0  0  0  0  0  0  0  0  0  0
   20.9000  -22.1187   -8.8729 C   0  0  2  0  0  0  0  0  0  0  0  0
   22.3751  -21.8858   -8.8198 N   0  0  0  0  0  0  0  0  0  0  0  0
   20.2925  -20.8376   -8.5593 C   0  0  0  0  0  0  0  0  0  0  0  0
   18.9613  -20.5309   -8.8758 O   0  0  0  0  0  0  0  0  0  0  0  0
   20.9729  -19.9262   -7.9758 O   0  0  0  0  0  0  0  0  0  0  0  0
  2  1  1  0
  3  2  2  0
  4  3  1  0
  5  4  2  0
  5 11  1  0
  6  5  1  0
  7  6  1  0
  7  8  1  6
  9  7  1  0
 10  9  2  0
 11 12  2  0
 12  2  1  0
 13  9  1  0
 14 25  1  0
 14 13  1  0
 14 15  1  1
 16 15  1  0
 17 16  2  0
 18 17  1  0
 19 24  2  0
 19 18  1  0
 20 19  1  0
 21 20  2  0
 21 22  1  0
 22 23  2  0
 23 24  1  0
 24 16  1  0
 25 32  1  0
 26 25  2  0
 27 28  1  0
 28 29  1  0
 29 30  1  0
 31 30  1  1
 31 33  1  0
 32 31  1  0
 33 35  2  0
 33 34  1  0
M  END
$$$$
