MTC.pdb
     RDKit          3D

 22 21  0  0  1  0  0  0  0  0999 V2000
   28.7729  -18.7286   -6.1340 C   0  0  0  0  0  0  0  0  0  0  0  0
   27.3466  -19.8344   -6.1276 S   0  0  0  0  0  0  0  0  0  0  0  0
   27.4274  -20.8725   -7.6118 C   0  0  0  0  0  0  0  0  0  0  0  0
   26.4728  -20.3660   -8.6727 C   0  0  0  0  0  0  0  0  0  0  0  0
   26.6696  -21.1515   -9.9515 C   0  0  2  0  0  0  0  0  0  0  0  0
   28.0684  -21.2781  -10.2809 N   0  0  0  0  0  0  0  0  0  0  0  0
   25.9726  -20.4800  -11.0841 C   0  0  0  0  0  0  0  0  0  0  0  0
   26.3369  -19.3654  -11.5060 O   0  0  0  0  0  0  0  0  0  0  0  0
   26.3244  -21.0669  -14.3000 C   0  0  0  0  0  0  0  0  0  0  0  0
   24.8840  -21.3774  -14.0796 C   0  0  1  0  0  0  0  0  0  0  0  0
   24.6511  -22.7395  -13.8680 O   0  0  0  0  0  0  0  0  0  0  0  0
   24.2740  -20.5711  -12.9504 C   0  0  2  0  0  0  0  0  0  0  0  0
   24.8662  -21.1009  -11.7144 N   0  0  0  0  0  0  0  0  0  0  0  0
   22.8172  -20.7862  -12.8453 C   0  0  0  0  0  0  0  0  0  0  0  0
   22.2986  -21.6420  -12.0501 O   0  0  0  0  0  0  0  0  0  0  0  0
   21.8664  -20.0565  -13.6229 N   0  0  0  0  0  0  0  0  0  0  0  0
   20.4627  -20.2778  -13.5503 C   0  0  1  0  0  0  0  0  0  0  0  0
   19.6273  -19.1212  -14.0256 C   0  0  0  0  0  0  0  0  0  0  0  0
   17.8793  -19.6626  -13.9802 S   0  0  0  0  0  0  0  0  0  0  0  0
   20.1176  -21.5410  -14.2457 C   0  0  0  0  0  0  0  0  0  0  0  0
   20.7594  -21.8574  -15.4333 O   0  0  0  0  0  0  0  0  0  0  0  0
   19.2644  -22.3546  -13.8156 O   0  0  0  0  0  0  0  0  0  0  0  0
  2  1  1  0
  3  4  1  0
  3  2  1  0
  4  5  1  0
  5  7  1  0
  5  6  1  6
  7  8  2  0
 10  9  1  1
 10 12  1  0
 11 10  1  0
 12 14  1  0
 12 13  1  1
 13  7  1  0
 14 15  2  0
 16 17  1  0
 16 14  1  0
 17 20  1  0
 17 18  1  6
 19 18  1  0
 20 22  2  0
 20 21  1  0
M  END
$$$$
