MTC.pdb
     RDKit          3D

 22 21  0  0  1  0  0  0  0  0999 V2000
   28.5092  -18.3695   -5.6586 C   0  0  0  0  0  0  0  0  0  0  0  0
   27.6189  -19.8624   -5.1729 S   0  0  0  0  0  0  0  0  0  0  0  0
   26.3584  -20.2051   -6.4301 C   0  0  0  0  0  0  0  0  0  0  0  0
   26.9792  -20.2602   -7.8103 C   0  0  0  0  0  0  0  0  0  0  0  0
   25.8892  -20.3696   -8.8548 C   0  0  2  0  0  0  0  0  0  0  0  0
   25.1549  -21.6041   -8.7212 N   0  0  0  0  0  0  0  0  0  0  0  0
   26.4754  -20.3099  -10.2232 C   0  0  0  0  0  0  0  0  0  0  0  0
   27.5885  -20.8085  -10.4787 O   0  0  0  0  0  0  0  0  0  0  0  0
   27.2274  -21.9593  -12.4113 C   0  0  0  0  0  0  0  0  0  0  0  0
   26.2567  -21.0891  -13.1325 C   0  0  1  0  0  0  0  0  0  0  0  0
   24.9485  -21.5789  -13.0792 O   0  0  0  0  0  0  0  0  0  0  0  0
   26.2863  -19.6513  -12.6536 C   0  0  2  0  0  0  0  0  0  0  0  0
   25.7720  -19.6768  -11.2774 N   0  0  0  0  0  0  0  0  0  0  0  0
   25.3690  -18.7938  -13.4301 C   0  0  0  0  0  0  0  0  0  0  0  0
   24.1067  -18.7706  -13.2310 O   0  0  0  0  0  0  0  0  0  0  0  0
   25.8154  -17.9193  -14.4680 N   0  0  0  0  0  0  0  0  0  0  0  0
   24.9500  -17.0357  -15.1716 C   0  0  1  0  0  0  0  0  0  0  0  0
   25.6597  -15.9659  -15.9548 C   0  0  0  0  0  0  0  0  0  0  0  0
   26.5507  -14.9152  -14.7495 S   0  0  0  0  0  0  0  0  0  0  0  0
   24.0121  -17.8170  -16.0133 C   0  0  0  0  0  0  0  0  0  0  0  0
   22.7097  -17.3683  -16.1713 O   0  0  0  0  0  0  0  0  0  0  0  0
   24.3328  -18.8784  -16.6009 O   0  0  0  0  0  0  0  0  0  0  0  0
  2  1  1  0
  3  4  1  0
  3  2  1  0
  4  5  1  0
  5  7  1  0
  5  6  1  6
  7  8  2  0
 10  9  1  1
 10 12  1  0
 11 10  1  0
 12 14  1  0
 12 13  1  1
 13  7  1  0
 14 15  2  0
 16 17  1  0
 16 14  1  0
 17 20  1  0
 17 18  1  6
 19 18  1  0
 20 22  2  0
 20 21  1  0
M  END
$$$$
