MTC.pdb
     RDKit          3D

 22 21  0  0  1  0  0  0  0  0999 V2000
   28.1486  -12.3416  -15.7577 C   0  0  0  0  0  0  0  0  0  0  0  0
   27.5720  -14.0461  -15.6188 S   0  0  0  0  0  0  0  0  0  0  0  0
   25.8254  -14.0160  -15.1333 C   0  0  0  0  0  0  0  0  0  0  0  0
   25.1652  -12.7308  -15.5867 C   0  0  0  0  0  0  0  0  0  0  0  0
   23.6749  -12.8071  -15.3335 C   0  0  2  0  0  0  0  0  0  0  0  0
   23.1103  -14.0178  -15.8783 N   0  0  0  0  0  0  0  0  0  0  0  0
   22.9844  -11.6401  -15.9506 C   0  0  0  0  0  0  0  0  0  0  0  0
   22.7339  -11.6002  -17.1707 O   0  0  0  0  0  0  0  0  0  0  0  0
   19.7470  -10.8883  -16.0341 C   0  0  0  0  0  0  0  0  0  0  0  0
   20.3433   -9.7613  -15.2633 C   0  0  1  0  0  0  0  0  0  0  0  0
   20.2958   -9.9669  -13.8814 O   0  0  0  0  0  0  0  0  0  0  0  0
   21.7639   -9.4452  -15.6865 C   0  0  2  0  0  0  0  0  0  0  0  0
   22.5926  -10.5358  -15.1544 N   0  0  0  0  0  0  0  0  0  0  0  0
   22.2584   -8.1998  -15.0669 C   0  0  0  0  0  0  0  0  0  0  0  0
   22.8635   -8.1785  -13.9412 O   0  0  0  0  0  0  0  0  0  0  0  0
   22.1018   -6.9155  -15.6731 N   0  0  0  0  0  0  0  0  0  0  0  0
   22.5868   -5.7116  -15.0899 C   0  0  1  0  0  0  0  0  0  0  0  0
   22.7435   -4.5725  -16.0592 C   0  0  0  0  0  0  0  0  0  0  0  0
   23.7818   -5.1770  -17.4401 S   0  0  0  0  0  0  0  0  0  0  0  0
   21.7460   -5.3444  -13.9252 C   0  0  0  0  0  0  0  0  0  0  0  0
   22.2609   -4.4924  -12.9602 O   0  0  0  0  0  0  0  0  0  0  0  0
   20.5760   -5.7663  -13.7585 O   0  0  0  0  0  0  0  0  0  0  0  0
  2  1  1  0
  3  4  1  0
  3  2  1  0
  4  5  1  0
  5  7  1  0
  5  6  1  6
  7  8  2  0
 10  9  1  6
 10 12  1  0
 11 10  1  0
 12 14  1  0
 12 13  1  1
 13  7  1  0
 14 15  2  0
 16 17  1  0
 16 14  1  0
 17 20  1  0
 17 18  1  6
 19 18  1  0
 20 22  2  0
 20 21  1  0
M  END
$$$$
