MTC.pdb
     RDKit          3D

 22 21  0  0  1  0  0  0  0  0999 V2000
   29.1301  -20.5110   -5.3905 C   0  0  0  0  0  0  0  0  0  0  0  0
   27.9537  -19.1560   -5.1975 S   0  0  0  0  0  0  0  0  0  0  0  0
   27.3573  -18.6842   -6.8432 C   0  0  0  0  0  0  0  0  0  0  0  0
   27.2025  -19.9039   -7.7272 C   0  0  0  0  0  0  0  0  0  0  0  0
   25.7673  -20.0145   -8.1955 C   0  0  2  0  0  0  0  0  0  0  0  0
   24.9355  -20.6415   -7.1976 N   0  0  0  0  0  0  0  0  0  0  0  0
   25.6921  -20.8151   -9.4496 C   0  0  0  0  0  0  0  0  0  0  0  0
   25.7589  -22.0594   -9.4347 O   0  0  0  0  0  0  0  0  0  0  0  0
   23.0744  -21.8749  -11.0241 C   0  0  0  0  0  0  0  0  0  0  0  0
   23.6903  -20.9282  -11.9959 C   0  0  1  0  0  0  0  0  0  0  0  0
   23.1985  -19.6260  -11.8675 O   0  0  0  0  0  0  0  0  0  0  0  0
   25.2043  -20.9142  -11.9253 C   0  0  2  0  0  0  0  0  0  0  0  0
   25.5415  -20.1719  -10.7029 N   0  0  0  0  0  0  0  0  0  0  0  0
   25.8006  -20.1665  -13.0500 C   0  0  0  0  0  0  0  0  0  0  0  0
   25.7708  -18.8911  -13.1276 O   0  0  0  0  0  0  0  0  0  0  0  0
   26.4599  -20.8056  -14.1446 N   0  0  0  0  0  0  0  0  0  0  0  0
   27.0495  -20.0928  -15.2258 C   0  0  1  0  0  0  0  0  0  0  0  0
   28.3601  -20.6580  -15.6996 C   0  0  0  0  0  0  0  0  0  0  0  0
   28.7625  -22.0743  -14.6121 S   0  0  0  0  0  0  0  0  0  0  0  0
   26.0684  -19.9531  -16.3287 C   0  0  0  0  0  0  0  0  0  0  0  0
   24.9425  -20.7621  -16.3399 O   0  0  0  0  0  0  0  0  0  0  0  0
   26.1992  -19.1320  -17.2686 O   0  0  0  0  0  0  0  0  0  0  0  0
  2  1  1  0
  3  4  1  0
  3  2  1  0
  4  5  1  0
  5  7  1  0
  5  6  1  1
  7  8  2  0
 10  9  1  1
 10 12  1  0
 11 10  1  0
 12 14  1  0
 12 13  1  1
 13  7  1  0
 14 15  2  0
 16 17  1  0
 16 14  1  0
 17 20  1  0
 17 18  1  6
 19 18  1  0
 20 22  2  0
 20 21  1  0
M  END
$$$$
