MTC.pdb
     RDKit          3D

 22 21  0  0  1  0  0  0  0  0999 V2000
   19.8726  -13.7813  -16.6113 C   0  0  0  0  0  0  0  0  0  0  0  0
   21.1634  -15.0120  -16.3349 S   0  0  0  0  0  0  0  0  0  0  0  0
   20.5324  -16.6254  -16.8695 C   0  0  0  0  0  0  0  0  0  0  0  0
   21.5135  -17.7259  -16.5239 C   0  0  0  0  0  0  0  0  0  0  0  0
   22.8711  -17.3999  -17.1086 C   0  0  2  0  0  0  0  0  0  0  0  0
   22.8444  -17.4340  -18.5506 N   0  0  0  0  0  0  0  0  0  0  0  0
   23.8897  -18.3750  -16.6280 C   0  0  0  0  0  0  0  0  0  0  0  0
   24.0359  -19.4871  -17.1710 O   0  0  0  0  0  0  0  0  0  0  0  0
   27.3292  -18.2150  -16.8781 C   0  0  0  0  0  0  0  0  0  0  0  0
   27.0915  -18.2932  -15.4094 C   0  0  1  0  0  0  0  0  0  0  0  0
   27.1647  -17.0457  -14.7829 O   0  0  0  0  0  0  0  0  0  0  0  0
   25.7790  -18.9663  -15.0605 C   0  0  2  0  0  0  0  0  0  0  0  0
   24.7249  -18.0562  -15.5290 N   0  0  0  0  0  0  0  0  0  0  0  0
   25.6008  -19.1012  -13.6011 C   0  0  0  0  0  0  0  0  0  0  0  0
   25.0463  -18.1998  -12.8844 O   0  0  0  0  0  0  0  0  0  0  0  0
   26.0330  -20.2494  -12.8689 N   0  0  0  0  0  0  0  0  0  0  0  0
   25.9020  -20.3710  -11.4572 C   0  0  1  0  0  0  0  0  0  0  0  0
   24.4893  -20.2594  -10.9538 C   0  0  0  0  0  0  0  0  0  0  0  0
   24.5193  -20.6577   -9.1675 S   0  0  0  0  0  0  0  0  0  0  0  0
   26.5636  -21.6158  -10.9976 C   0  0  0  0  0  0  0  0  0  0  0  0
   27.2577  -21.6102   -9.7973 O   0  0  0  0  0  0  0  0  0  0  0  0
   26.5320  -22.6923  -11.6417 O   0  0  0  0  0  0  0  0  0  0  0  0
  2  1  1  0
  3  4  1  0
  3  2  1  0
  4  5  1  0
  5  7  1  0
  5  6  1  6
  7  8  2  0
 10  9  1  6
 10 12  1  0
 11 10  1  0
 12 14  1  0
 12 13  1  1
 13  7  1  0
 14 15  2  0
 16 17  1  0
 16 14  1  0
 17 20  1  0
 17 18  1  6
 19 18  1  0
 20 22  2  0
 20 21  1  0
M  END
$$$$
