AVT.pdb
     RDKit          3D

 20 19  0  0  1  0  0  0  0  0999 V2000
    7.5172  -18.8133   18.0931 C   0  0  0  0  0  0  0  0  0  0  0  0
    7.8347  -17.4749   17.4665 C   0  0  2  0  0  0  0  0  0  0  0  0
    8.8199  -17.7304   16.4175 N   0  0  0  0  0  0  0  0  0  0  0  0
    8.5026  -16.6065   18.4718 C   0  0  0  0  0  0  0  0  0  0  0  0
    9.7412  -16.6433   18.6995 O   0  0  0  0  0  0  0  0  0  0  0  0
    8.1302  -12.7884   21.6811 C   0  0  0  0  0  0  0  0  0  0  0  0
    7.5252  -13.6342   20.6118 C   0  0  1  0  0  0  0  0  0  0  0  0
    7.4149  -12.8100   19.3476 C   0  0  0  0  0  0  0  0  0  0  0  0
    8.3313  -14.8728   20.2923 C   0  0  2  0  0  0  0  0  0  0  0  0
    7.7390  -15.6609   19.2485 N   0  0  0  0  0  0  0  0  0  0  0  0
    8.5580  -15.6778   21.5350 C   0  0  0  0  0  0  0  0  0  0  0  0
    7.5593  -16.1071   22.1675 O   0  0  0  0  0  0  0  0  0  0  0  0
    9.9279  -19.0418   22.0370 C   0  0  0  0  0  0  0  0  0  0  0  0
   10.7368  -18.1065   22.8784 C   0  0  1  0  0  0  0  0  0  0  0  0
   11.9623  -17.9026   22.2630 O   0  0  0  0  0  0  0  0  0  0  0  0
   10.0255  -16.8227   23.1988 C   0  0  2  0  0  0  0  0  0  0  0  0
    9.8367  -15.9828   22.0381 N   0  0  0  0  0  0  0  0  0  0  0  0
   10.8406  -16.0915   24.2176 C   0  0  0  0  0  0  0  0  0  0  0  0
   10.8899  -16.5025   25.5429 O   0  0  0  0  0  0  0  0  0  0  0  0
   11.5133  -15.0744   23.9103 O   0  0  0  0  0  0  0  0  0  0  0  0
  2  1  1  1
  2  3  1  0
  4 10  1  0
  4  2  1  0
  5  4  2  0
  7  6  1  1
  7  8  1  0
  9  7  1  0
  9 10  1  6
 11 17  1  0
 11  9  1  0
 12 11  2  0
 14 13  1  6
 14 15  1  0
 16 17  1  6
 16 14  1  0
 18 19  1  0
 18 16  1  0
 20 18  2  0
M  END
$$$$
