AVT.pdb
     RDKit          3D

 20 19  0  0  1  0  0  0  0  0999 V2000
   -1.3398  -24.6905   26.5683 C   0  0  0  0  0  0  0  0  0  0  0  0
   -1.3730  -25.5881   27.7839 C   0  0  2  0  0  0  0  0  0  0  0  0
   -0.9663  -26.9168   27.3307 N   0  0  0  0  0  0  0  0  0  0  0  0
   -2.7746  -25.7154   28.2639 C   0  0  0  0  0  0  0  0  0  0  0  0
   -3.6424  -26.4162   27.6779 O   0  0  0  0  0  0  0  0  0  0  0  0
   -5.7184  -25.9608   32.1126 C   0  0  0  0  0  0  0  0  0  0  0  0
   -4.4292  -25.9588   31.3623 C   0  0  1  0  0  0  0  0  0  0  0  0
   -4.0222  -27.3918   31.0965 C   0  0  0  0  0  0  0  0  0  0  0  0
   -4.5042  -25.2411   30.0338 C   0  0  2  0  0  0  0  0  0  0  0  0
   -3.2098  -25.0232   29.4521 N   0  0  0  0  0  0  0  0  0  0  0  0
   -5.2699  -23.9619   30.1790 C   0  0  0  0  0  0  0  0  0  0  0  0
   -4.7229  -22.9933   30.7659 O   0  0  0  0  0  0  0  0  0  0  0  0
   -6.9880  -21.9358   27.2633 C   0  0  0  0  0  0  0  0  0  0  0  0
   -7.9266  -22.1882   28.4002 C   0  0  1  0  0  0  0  0  0  0  0  0
   -8.8209  -23.1793   28.0260 O   0  0  0  0  0  0  0  0  0  0  0  0
   -7.2293  -22.4922   29.6956 C   0  0  2  0  0  0  0  0  0  0  0  0
   -6.5780  -23.7822   29.6913 N   0  0  0  0  0  0  0  0  0  0  0  0
   -8.2533  -22.4529   30.7850 C   0  0  0  0  0  0  0  0  0  0  0  0
   -8.7385  -21.2524   31.2861 O   0  0  0  0  0  0  0  0  0  0  0  0
   -8.7138  -23.5091   31.2889 O   0  0  0  0  0  0  0  0  0  0  0  0
  2  1  1  6
  2  3  1  0
  4 10  1  0
  4  2  1  0
  5  4  2  0
  7  6  1  6
  7  8  1  0
  9  7  1  0
  9 10  1  1
 11 17  1  0
 11  9  1  0
 12 11  2  0
 14 13  1  6
 14 15  1  0
 16 17  1  6
 16 14  1  0
 18 19  1  0
 18 16  1  0
 20 18  2  0
M  END
$$$$
