AVT.pdb
     RDKit          3D

 20 19  0  0  1  0  0  0  0  0999 V2000
    6.5205  -18.0121   19.5958 C   0  0  0  0  0  0  0  0  0  0  0  0
    7.0057  -16.6858   19.0570 C   0  0  2  0  0  0  0  0  0  0  0  0
    7.7229  -16.9782   17.8175 N   0  0  0  0  0  0  0  0  0  0  0  0
    8.0028  -16.1077   19.9965 C   0  0  0  0  0  0  0  0  0  0  0  0
    9.2395  -16.3339   19.9134 O   0  0  0  0  0  0  0  0  0  0  0  0
    8.1050  -12.3473   21.3728 C   0  0  0  0  0  0  0  0  0  0  0  0
    8.1631  -13.3301   22.4934 C   0  0  1  0  0  0  0  0  0  0  0  0
    6.8110  -13.3707   23.1716 C   0  0  0  0  0  0  0  0  0  0  0  0
    8.5043  -14.7343   22.0486 C   0  0  2  0  0  0  0  0  0  0  0  0
    7.5836  -15.2407   21.0703 N   0  0  0  0  0  0  0  0  0  0  0  0
    8.6082  -15.6423   23.2354 C   0  0  0  0  0  0  0  0  0  0  0  0
    7.5507  -16.0217   23.8006 O   0  0  0  0  0  0  0  0  0  0  0  0
   10.0118  -19.1228   23.2266 C   0  0  0  0  0  0  0  0  0  0  0  0
   10.6929  -18.3329   24.2986 C   0  0  1  0  0  0  0  0  0  0  0  0
   11.9662  -17.9993   23.8632 O   0  0  0  0  0  0  0  0  0  0  0  0
    9.9031  -17.1399   24.7564 C   0  0  2  0  0  0  0  0  0  0  0  0
    9.8334  -16.0980   23.7574 N   0  0  0  0  0  0  0  0  0  0  0  0
   10.5574  -16.6059   25.9907 C   0  0  0  0  0  0  0  0  0  0  0  0
   10.5856  -17.3329   27.1732 O   0  0  0  0  0  0  0  0  0  0  0  0
   11.1076  -15.4752   26.0029 O   0  0  0  0  0  0  0  0  0  0  0  0
  2  1  1  1
  2  3  1  0
  4 10  1  0
  4  2  1  0
  5  4  2  0
  7  6  1  6
  7  8  1  0
  9  7  1  0
  9 10  1  6
 11 17  1  0
 11  9  1  0
 12 11  2  0
 14 13  1  6
 14 15  1  0
 16 17  1  6
 16 14  1  0
 18 19  1  0
 18 16  1  0
 20 18  2  0
M  END
$$$$
