AVT.pdb
     RDKit          3D

 20 19  0  0  1  0  0  0  0  0999 V2000
    7.4442  -17.3861   22.3007 C   0  0  0  0  0  0  0  0  0  0  0  0
    7.5406  -15.8899   22.1094 C   0  0  2  0  0  0  0  0  0  0  0  0
    8.4900  -15.6705   21.0200 N   0  0  0  0  0  0  0  0  0  0  0  0
    8.1405  -15.2758   23.3235 C   0  0  0  0  0  0  0  0  0  0  0  0
    9.3826  -15.1389   23.4842 O   0  0  0  0  0  0  0  0  0  0  0  0
    7.4797  -12.5757   27.4529 C   0  0  0  0  0  0  0  0  0  0  0  0
    6.9132  -13.2251   26.2354 C   0  0  1  0  0  0  0  0  0  0  0  0
    6.6100  -12.1526   25.2119 C   0  0  0  0  0  0  0  0  0  0  0  0
    7.8456  -14.2293   25.5966 C   0  0  2  0  0  0  0  0  0  0  0  0
    7.3021  -14.7988   24.3959 N   0  0  0  0  0  0  0  0  0  0  0  0
    8.2274  -15.2850   26.5883 C   0  0  0  0  0  0  0  0  0  0  0  0
    7.3345  -16.0558   27.0244 O   0  0  0  0  0  0  0  0  0  0  0  0
   10.4163  -18.2076   26.0818 C   0  0  0  0  0  0  0  0  0  0  0  0
   10.9271  -17.4774   27.2830 C   0  0  1  0  0  0  0  0  0  0  0  0
   12.0923  -16.8114   26.9356 O   0  0  0  0  0  0  0  0  0  0  0  0
    9.9059  -16.5737   27.9131 C   0  0  2  0  0  0  0  0  0  0  0  0
    9.5404  -15.4637   27.0629 N   0  0  0  0  0  0  0  0  0  0  0  0
   10.4826  -16.0550   29.1919 C   0  0  0  0  0  0  0  0  0  0  0  0
   10.7496  -16.8953   30.2645 O   0  0  0  0  0  0  0  0  0  0  0  0
   10.7477  -14.8351   29.3431 O   0  0  0  0  0  0  0  0  0  0  0  0
  2  1  1  1
  2  3  1  0
  4 10  1  0
  4  2  1  0
  5  4  2  0
  7  6  1  1
  7  8  1  0
  9  7  1  0
  9 10  1  6
 11 17  1  0
 11  9  1  0
 12 11  2  0
 14 13  1  6
 14 15  1  0
 16 17  1  6
 16 14  1  0
 18 19  1  0
 18 16  1  0
 20 18  2  0
M  END
$$$$
