AVT.pdb
     RDKit          3D

 20 19  0  0  1  0  0  0  0  0999 V2000
    6.2242  -18.7763   19.1777 C   0  0  0  0  0  0  0  0  0  0  0  0
    6.9557  -17.6554   18.4754 C   0  0  2  0  0  0  0  0  0  0  0  0
    7.9476  -18.2864   17.6070 N   0  0  0  0  0  0  0  0  0  0  0  0
    7.7146  -16.8594   19.4761 C   0  0  0  0  0  0  0  0  0  0  0  0
    8.8741  -17.1647   19.8631 O   0  0  0  0  0  0  0  0  0  0  0  0
    7.9848  -12.6484   22.1705 C   0  0  0  0  0  0  0  0  0  0  0  0
    7.3262  -13.4655   21.1105 C   0  0  1  0  0  0  0  0  0  0  0  0
    7.5794  -12.8123   19.7692 C   0  0  0  0  0  0  0  0  0  0  0  0
    7.8348  -14.8876   21.0402 C   0  0  2  0  0  0  0  0  0  0  0  0
    7.1387  -15.6733   20.0607 N   0  0  0  0  0  0  0  0  0  0  0  0
    7.7873  -15.5219   22.3964 C   0  0  0  0  0  0  0  0  0  0  0  0
    6.6659  -15.7464   22.9197 O   0  0  0  0  0  0  0  0  0  0  0  0
    9.1181  -18.7197   25.6326 C   0  0  0  0  0  0  0  0  0  0  0  0
    9.1379  -18.0238   24.3088 C   0  0  1  0  0  0  0  0  0  0  0  0
    8.2715  -18.6808   23.4488 O   0  0  0  0  0  0  0  0  0  0  0  0
    8.8590  -16.5507   24.4029 C   0  0  2  0  0  0  0  0  0  0  0  0
    8.9371  -15.8836   23.1233 N   0  0  0  0  0  0  0  0  0  0  0  0
    9.8620  -15.9553   25.3390 C   0  0  0  0  0  0  0  0  0  0  0  0
    9.7855  -16.1533   26.7111 O   0  0  0  0  0  0  0  0  0  0  0  0
   10.8144  -15.2512   24.9164 O   0  0  0  0  0  0  0  0  0  0  0  0
  2  1  1  1
  2  3  1  0
  4 10  1  0
  4  2  1  0
  5  4  2  0
  7  6  1  1
  7  8  1  0
  9  7  1  0
  9 10  1  6
 11 17  1  0
 11  9  1  0
 12 11  2  0
 14 13  1  1
 14 15  1  0
 16 17  1  6
 16 14  1  0
 18 19  1  0
 18 16  1  0
 20 18  2  0
M  END
$$$$
