AVT.pdb
     RDKit          3D

 20 19  0  0  1  0  0  0  0  0999 V2000
    6.1513  -19.1299   19.6171 C   0  0  0  0  0  0  0  0  0  0  0  0
    6.2462  -17.9524   18.6741 C   0  0  2  0  0  0  0  0  0  0  0  0
    6.7220  -18.4801   17.3969 N   0  0  0  0  0  0  0  0  0  0  0  0
    7.2928  -17.0149   19.1608 C   0  0  0  0  0  0  0  0  0  0  0  0
    8.5193  -17.1632   18.9136 O   0  0  0  0  0  0  0  0  0  0  0  0
    8.4200  -12.6905   21.3839 C   0  0  0  0  0  0  0  0  0  0  0  0
    7.4263  -13.5923   20.7326 C   0  0  1  0  0  0  0  0  0  0  0  0
    7.0868  -13.0328   19.3682 C   0  0  0  0  0  0  0  0  0  0  0  0
    7.9255  -15.0071   20.5456 C   0  0  2  0  0  0  0  0  0  0  0  0
    6.9370  -15.8663   19.9574 N   0  0  0  0  0  0  0  0  0  0  0  0
    8.4332  -15.5529   21.8448 C   0  0  0  0  0  0  0  0  0  0  0  0
    7.6428  -15.6241   22.8205 O   0  0  0  0  0  0  0  0  0  0  0  0
    9.1378  -18.8157   23.1875 C   0  0  0  0  0  0  0  0  0  0  0  0
   10.4143  -18.0371   23.2272 C   0  0  1  0  0  0  0  0  0  0  0  0
   11.2038  -18.4237   22.1552 O   0  0  0  0  0  0  0  0  0  0  0  0
   10.2068  -16.5506   23.2911 C   0  0  2  0  0  0  0  0  0  0  0  0
    9.7561  -15.9940   22.0359 N   0  0  0  0  0  0  0  0  0  0  0  0
   11.5091  -15.9243   23.6766 C   0  0  0  0  0  0  0  0  0  0  0  0
   12.0005  -16.0038   24.9728 O   0  0  0  0  0  0  0  0  0  0  0  0
   12.2091  -15.3008   22.8384 O   0  0  0  0  0  0  0  0  0  0  0  0
  2  1  1  1
  2  3  1  0
  4 10  1  0
  4  2  1  0
  5  4  2  0
  7  6  1  6
  7  8  1  0
  9  7  1  0
  9 10  1  1
 11 17  1  0
 11  9  1  0
 12 11  2  0
 14 13  1  6
 14 15  1  0
 16 17  1  6
 16 14  1  0
 18 19  1  0
 18 16  1  0
 20 18  2  0
M  END
$$$$
