AVT.pdb
     RDKit          3D

 20 19  0  0  1  0  0  0  0  0999 V2000
    7.5227  -18.7464   17.8240 C   0  0  0  0  0  0  0  0  0  0  0  0
    7.7769  -17.3654   17.2646 C   0  0  2  0  0  0  0  0  0  0  0  0
    8.7350  -17.5290   16.1731 N   0  0  0  0  0  0  0  0  0  0  0  0
    8.4491  -16.5322   18.2965 C   0  0  0  0  0  0  0  0  0  0  0  0
    9.6953  -16.5386   18.4824 O   0  0  0  0  0  0  0  0  0  0  0  0
    8.0431  -12.9205   21.7365 C   0  0  0  0  0  0  0  0  0  0  0  0
    7.4627  -13.6950   20.6014 C   0  0  1  0  0  0  0  0  0  0  0  0
    7.3674  -12.7868   19.3949 C   0  0  0  0  0  0  0  0  0  0  0  0
    8.2836  -14.9034   20.2119 C   0  0  2  0  0  0  0  0  0  0  0  0
    7.6814  -15.6589   19.1498 N   0  0  0  0  0  0  0  0  0  0  0  0
    8.5543  -15.7548   21.4143 C   0  0  0  0  0  0  0  0  0  0  0  0
    7.5799  -16.2551   22.0323 O   0  0  0  0  0  0  0  0  0  0  0  0
   10.1400  -19.0687   21.7344 C   0  0  0  0  0  0  0  0  0  0  0  0
   10.8783  -18.1300   22.6349 C   0  0  1  0  0  0  0  0  0  0  0  0
   12.0943  -17.8158   22.0478 O   0  0  0  0  0  0  0  0  0  0  0  0
   10.0826  -16.9132   23.0128 C   0  0  2  0  0  0  0  0  0  0  0  0
    9.8488  -16.0280   21.8947 N   0  0  0  0  0  0  0  0  0  0  0  0
   10.8404  -16.1849   24.0769 C   0  0  0  0  0  0  0  0  0  0  0  0
   10.9137  -16.6652   25.3776 O   0  0  0  0  0  0  0  0  0  0  0  0
   11.4409  -15.1075   23.8319 O   0  0  0  0  0  0  0  0  0  0  0  0
  2  1  1  1
  2  3  1  0
  4 10  1  0
  4  2  1  0
  5  4  2  0
  7  6  1  1
  7  8  1  0
  9  7  1  0
  9 10  1  6
 11 17  1  0
 11  9  1  0
 12 11  2  0
 14 13  1  6
 14 15  1  0
 16 17  1  6
 16 14  1  0
 18 19  1  0
 18 16  1  0
 20 18  2  0
M  END
$$$$
