AVT.pdb
     RDKit          3D

 20 19  0  0  1  0  0  0  0  0999 V2000
    8.5905  -16.7340   15.8372 C   0  0  0  0  0  0  0  0  0  0  0  0
    8.7122  -17.4587   17.1581 C   0  0  2  0  0  0  0  0  0  0  0  0
    7.3607  -17.8705   17.5322 N   0  0  0  0  0  0  0  0  0  0  0  0
    9.1684  -16.5044   18.2031 C   0  0  0  0  0  0  0  0  0  0  0  0
   10.3723  -16.1605   18.3436 O   0  0  0  0  0  0  0  0  0  0  0  0
    7.9754  -13.1500   21.6893 C   0  0  0  0  0  0  0  0  0  0  0  0
    7.6339  -13.9708   20.4916 C   0  0  1  0  0  0  0  0  0  0  0  0
    7.5694  -13.0610   19.2842 C   0  0  0  0  0  0  0  0  0  0  0  0
    8.6389  -15.0621   20.2003 C   0  0  2  0  0  0  0  0  0  0  0  0
    8.2258  -15.9176   19.1237 N   0  0  0  0  0  0  0  0  0  0  0  0
    8.9338  -15.8403   21.4457 C   0  0  0  0  0  0  0  0  0  0  0  0
    7.9930  -16.4531   22.0125 O   0  0  0  0  0  0  0  0  0  0  0  0
   10.8637  -18.8770   21.7582 C   0  0  0  0  0  0  0  0  0  0  0  0
   11.4412  -17.9214   22.7534 C   0  0  1  0  0  0  0  0  0  0  0  0
   12.6575  -17.4611   22.2730 O   0  0  0  0  0  0  0  0  0  0  0  0
   10.5043  -16.8084   23.1277 C   0  0  2  0  0  0  0  0  0  0  0  0
   10.2153  -15.9244   22.0216 N   0  0  0  0  0  0  0  0  0  0  0  0
   11.1395  -16.0308   24.2362 C   0  0  0  0  0  0  0  0  0  0  0  0
   11.1986  -16.5253   25.5323 O   0  0  0  0  0  0  0  0  0  0  0  0
   11.6448  -14.8970   24.0346 O   0  0  0  0  0  0  0  0  0  0  0  0
  2  1  1  6
  2  3  1  0
  4 10  1  0
  4  2  1  0
  5  4  2  0
  7  6  1  1
  7  8  1  0
  9  7  1  0
  9 10  1  6
 11 17  1  0
 11  9  1  0
 12 11  2  0
 14 13  1  6
 14 15  1  0
 16 17  1  6
 16 14  1  0
 18 19  1  0
 18 16  1  0
 20 18  2  0
M  END
$$$$
