AVT.pdb
     RDKit          3D

 20 19  0  0  1  0  0  0  0  0999 V2000
    6.5354  -15.7861   21.0130 C   0  0  0  0  0  0  0  0  0  0  0  0
    6.9918  -14.3634   21.2414 C   0  0  2  0  0  0  0  0  0  0  0  0
    8.0181  -14.0899   20.2374 N   0  0  0  0  0  0  0  0  0  0  0  0
    7.6598  -14.2672   22.5664 C   0  0  0  0  0  0  0  0  0  0  0  0
    8.8905  -14.4783   22.7343 O   0  0  0  0  0  0  0  0  0  0  0  0
    7.3024  -12.8116   27.3426 C   0  0  0  0  0  0  0  0  0  0  0  0
    6.6788  -12.9764   25.9976 C   0  0  1  0  0  0  0  0  0  0  0  0
    6.4618  -11.6059   25.3940 C   0  0  0  0  0  0  0  0  0  0  0  0
    7.5218  -13.7820   25.0351 C   0  0  2  0  0  0  0  0  0  0  0  0
    6.9057  -13.9188   23.7455 N   0  0  0  0  0  0  0  0  0  0  0  0
    7.8604  -15.1131   25.6327 C   0  0  0  0  0  0  0  0  0  0  0  0
    6.9365  -15.9471   25.8135 O   0  0  0  0  0  0  0  0  0  0  0  0
   11.7301  -16.7027   25.2840 C   0  0  0  0  0  0  0  0  0  0  0  0
   10.4771  -17.4943   25.4858 C   0  0  1  0  0  0  0  0  0  0  0  0
   10.8211  -18.7739   25.8934 O   0  0  0  0  0  0  0  0  0  0  0  0
    9.4941  -16.8336   26.4098 C   0  0  2  0  0  0  0  0  0  0  0  0
    9.1654  -15.4855   26.0060 N   0  0  0  0  0  0  0  0  0  0  0  0
   10.0974  -16.8123   27.7782 C   0  0  0  0  0  0  0  0  0  0  0  0
   10.3074  -17.9795   28.5002 O   0  0  0  0  0  0  0  0  0  0  0  0
   10.4378  -15.7331   28.3268 O   0  0  0  0  0  0  0  0  0  0  0  0
  2  1  1  6
  2  3  1  0
  4 10  1  0
  4  2  1  0
  5  4  2  0
  7  6  1  1
  7  8  1  0
  9  7  1  0
  9 10  1  6
 11 17  1  0
 11  9  1  0
 12 11  2  0
 14 13  1  1
 14 15  1  0
 16 17  1  6
 16 14  1  0
 18 19  1  0
 18 16  1  0
 20 18  2  0
M  END
$$$$
