AVT.pdb
     RDKit          3D

 20 19  0  0  1  0  0  0  0  0999 V2000
    7.8163  -18.5462   17.3234 C   0  0  0  0  0  0  0  0  0  0  0  0
    8.2451  -17.1724   16.8614 C   0  0  2  0  0  0  0  0  0  0  0  0
    9.3233  -17.3764   15.8959 N   0  0  0  0  0  0  0  0  0  0  0  0
    8.8368  -16.4302   18.0060 C   0  0  0  0  0  0  0  0  0  0  0  0
   10.0723  -16.4157   18.2527 O   0  0  0  0  0  0  0  0  0  0  0  0
    8.1257  -12.9750   21.5497 C   0  0  0  0  0  0  0  0  0  0  0  0
    7.6461  -13.7329   20.3579 C   0  0  1  0  0  0  0  0  0  0  0  0
    7.5843  -12.7887   19.1770 C   0  0  0  0  0  0  0  0  0  0  0  0
    8.5382  -14.8939   19.9807 C   0  0  2  0  0  0  0  0  0  0  0  0
    7.9978  -15.6763   18.9049 N   0  0  0  0  0  0  0  0  0  0  0  0
    8.8314  -15.7342   21.1855 C   0  0  0  0  0  0  0  0  0  0  0  0
    7.8768  -16.3104   21.7673 O   0  0  0  0  0  0  0  0  0  0  0  0
   11.3552  -18.7130   21.5113 C   0  0  0  0  0  0  0  0  0  0  0  0
   11.5777  -17.6922   22.5815 C   0  0  1  0  0  0  0  0  0  0  0  0
   12.7302  -16.9813   22.2843 O   0  0  0  0  0  0  0  0  0  0  0  0
   10.3899  -16.8032   22.8168 C   0  0  2  0  0  0  0  0  0  0  0  0
   10.1261  -15.9162   21.7068 N   0  0  0  0  0  0  0  0  0  0  0  0
   10.6599  -15.9971   24.0474 C   0  0  0  0  0  0  0  0  0  0  0  0
   10.6656  -16.5747   25.3100 O   0  0  0  0  0  0  0  0  0  0  0  0
   10.8923  -14.7629   23.9835 O   0  0  0  0  0  0  0  0  0  0  0  0
  2  1  1  1
  2  3  1  0
  4 10  1  0
  4  2  1  0
  5  4  2  0
  7  6  1  1
  7  8  1  0
  9  7  1  0
  9 10  1  6
 11 17  1  0
 11  9  1  0
 12 11  2  0
 14 13  1  6
 14 15  1  0
 16 17  1  6
 16 14  1  0
 18 19  1  0
 18 16  1  0
 20 18  2  0
M  END
$$$$
