AVT.pdb
     RDKit          3D

 20 19  0  0  1  0  0  0  0  0999 V2000
    7.5042  -18.8949   18.1578 C   0  0  0  0  0  0  0  0  0  0  0  0
    7.7466  -17.5592   17.4931 C   0  0  2  0  0  0  0  0  0  0  0  0
    8.6684  -17.8070   16.3863 N   0  0  0  0  0  0  0  0  0  0  0  0
    8.4554  -16.6589   18.4407 C   0  0  0  0  0  0  0  0  0  0  0  0
    9.7085  -16.6460   18.5720 O   0  0  0  0  0  0  0  0  0  0  0  0
    8.2149  -12.8207   21.6286 C   0  0  0  0  0  0  0  0  0  0  0  0
    7.5540  -13.6969   20.6183 C   0  0  1  0  0  0  0  0  0  0  0  0
    7.3503  -12.9011   19.3475 C   0  0  0  0  0  0  0  0  0  0  0  0
    8.3553  -14.9314   20.2723 C   0  0  2  0  0  0  0  0  0  0  0  0
    7.7176  -15.7387   19.2708 N   0  0  0  0  0  0  0  0  0  0  0  0
    8.6552  -15.7180   21.5112 C   0  0  0  0  0  0  0  0  0  0  0  0
    7.6961  -16.1235   22.2166 O   0  0  0  0  0  0  0  0  0  0  0  0
   10.1143  -19.1094   21.7984 C   0  0  0  0  0  0  0  0  0  0  0  0
   10.9498  -18.1729   22.6121 C   0  0  1  0  0  0  0  0  0  0  0  0
   12.1160  -17.8981   21.9146 O   0  0  0  0  0  0  0  0  0  0  0  0
   10.2177  -16.9311   23.0344 C   0  0  2  0  0  0  0  0  0  0  0  0
    9.9610  -16.0310   21.9333 N   0  0  0  0  0  0  0  0  0  0  0  0
   11.0525  -16.2369   24.0631 C   0  0  0  0  0  0  0  0  0  0  0  0
   11.1364  -16.7024   25.3685 O   0  0  0  0  0  0  0  0  0  0  0  0
   11.7110  -15.2029   23.7826 O   0  0  0  0  0  0  0  0  0  0  0  0
  2  1  1  1
  2  3  1  0
  4 10  1  0
  4  2  1  0
  5  4  2  0
  7  6  1  1
  7  8  1  0
  9  7  1  0
  9 10  1  6
 11 17  1  0
 11  9  1  0
 12 11  2  0
 14 13  1  6
 14 15  1  0
 16 17  1  6
 16 14  1  0
 18 19  1  0
 18 16  1  0
 20 18  2  0
M  END
$$$$
