TIA.pdb
     RDKit          3D

 21 20  0  0  1  0  0  0  0  0999 V2000
    8.6930  -20.0075   19.3642 C   0  0  0  0  0  0  0  0  0  0  0  0
    9.2409  -19.6423   18.0066 C   0  0  1  0  0  0  0  0  0  0  0  0
    8.7258  -20.4891   17.0054 O   0  0  0  0  0  0  0  0  0  0  0  0
    8.8468  -18.2138   17.6987 C   0  0  2  0  0  0  0  0  0  0  0  0
    9.2458  -17.8272   16.3623 N   0  0  0  0  0  0  0  0  0  0  0  0
    9.3625  -17.2629   18.7100 C   0  0  0  0  0  0  0  0  0  0  0  0
   10.5859  -16.9907   18.7917 O   0  0  0  0  0  0  0  0  0  0  0  0
    6.9091  -12.5229   20.2657 C   0  0  0  0  0  0  0  0  0  0  0  0
    7.8967  -13.5961   19.9668 C   0  0  0  0  0  0  0  0  0  0  0  0
    8.1210  -14.5924   21.0660 C   0  0  2  0  0  0  0  0  0  0  0  0
    8.5143  -13.8784   22.3358 C   0  0  0  0  0  0  0  0  0  0  0  0
    8.9934  -15.7453   20.7013 C   0  0  2  0  0  0  0  0  0  0  0  0
    8.5007  -16.5948   19.6572 N   0  0  0  0  0  0  0  0  0  0  0  0
    9.4472  -16.5142   21.8918 C   0  0  0  0  0  0  0  0  0  0  0  0
    8.5618  -17.1520   22.5194 O   0  0  0  0  0  0  0  0  0  0  0  0
   12.6358  -17.6601   23.4917 C   0  0  0  0  0  0  0  0  0  0  0  0
   11.1575  -17.3573   23.4748 C   0  0  2  0  0  0  0  0  0  0  0  0
   10.7794  -16.5570   22.3310 N   0  0  0  0  0  0  0  0  0  0  0  0
   10.7103  -16.7168   24.7321 C   0  0  0  0  0  0  0  0  0  0  0  0
   10.5103  -15.3488   24.8577 O   0  0  0  0  0  0  0  0  0  0  0  0
   10.4951  -17.4259   25.7482 O   0  0  0  0  0  0  0  0  0  0  0  0
  2  1  1  1
  2  3  1  0
  2  4  1  0
  4  5  1  6
  6  4  1  0
  6  7  2  0
  9  8  1  0
 10  9  1  0
 10 11  1  1
 12 10  1  0
 12 13  1  6
 13  6  1  0
 14 12  1  0
 15 14  2  0
 17 16  1  1
 17 18  1  0
 18 14  1  0
 19 17  1  0
 19 20  1  0
 21 19  2  0
M  END
$$$$
