TIA.pdb
     RDKit          3D

 21 20  0  0  1  0  0  0  0  0999 V2000
    6.4895  -17.2648   21.6261 C   0  0  0  0  0  0  0  0  0  0  0  0
    7.5720  -16.9052   20.6385 C   0  0  1  0  0  0  0  0  0  0  0  0
    7.1380  -17.1041   19.3130 O   0  0  0  0  0  0  0  0  0  0  0  0
    7.9303  -15.4471   20.8292 C   0  0  2  0  0  0  0  0  0  0  0  0
    8.8114  -14.9737   19.7831 N   0  0  0  0  0  0  0  0  0  0  0  0
    8.4985  -15.1836   22.1710 C   0  0  0  0  0  0  0  0  0  0  0  0
    9.7137  -15.3809   22.4198 O   0  0  0  0  0  0  0  0  0  0  0  0
    7.4536  -11.9500   27.4500 C   0  0  0  0  0  0  0  0  0  0  0  0
    8.1528  -13.0026   26.6629 C   0  0  0  0  0  0  0  0  0  0  0  0
    7.5273  -13.3453   25.3429 C   0  0  2  0  0  0  0  0  0  0  0  0
    6.0484  -13.5859   25.5209 C   0  0  0  0  0  0  0  0  0  0  0  0
    8.2421  -14.3954   24.5621 C   0  0  2  0  0  0  0  0  0  0  0  0
    7.7001  -14.6881   23.2679 N   0  0  0  0  0  0  0  0  0  0  0  0
    8.4968  -15.6243   25.3619 C   0  0  0  0  0  0  0  0  0  0  0  0
    7.4974  -16.3466   25.6152 O   0  0  0  0  0  0  0  0  0  0  0  0
   11.0495  -18.0875   25.7734 C   0  0  0  0  0  0  0  0  0  0  0  0
    9.9709  -17.2862   26.4604 C   0  0  2  0  0  0  0  0  0  0  0  0
    9.7647  -16.0004   25.8313 N   0  0  0  0  0  0  0  0  0  0  0  0
   10.2400  -17.1236   27.9068 C   0  0  0  0  0  0  0  0  0  0  0  0
   10.3281  -15.8852   28.5280 O   0  0  0  0  0  0  0  0  0  0  0  0
   10.3998  -18.1419   28.6273 O   0  0  0  0  0  0  0  0  0  0  0  0
  2  1  1  1
  2  3  1  0
  2  4  1  0
  4  5  1  6
  6  4  1  0
  6  7  2  0
  9  8  1  0
 10  9  1  0
 10 11  1  1
 12 10  1  0
 12 13  1  6
 13  6  1  0
 14 12  1  0
 15 14  2  0
 17 16  1  6
 17 18  1  0
 18 14  1  0
 19 17  1  0
 19 20  1  0
 21 19  2  0
M  END
$$$$
