TIA.pdb
     RDKit          3D

 21 20  0  0  1  0  0  0  0  0999 V2000
    6.2616  -16.5836   21.2312 C   0  0  0  0  0  0  0  0  0  0  0  0
    7.1670  -15.9325   20.2149 C   0  0  1  0  0  0  0  0  0  0  0  0
    6.6169  -16.0095   18.9202 O   0  0  0  0  0  0  0  0  0  0  0  0
    7.3441  -14.4776   20.5926 C   0  0  2  0  0  0  0  0  0  0  0  0
    8.0205  -13.7351   19.5505 N   0  0  0  0  0  0  0  0  0  0  0  0
    8.0284  -14.3194   21.8962 C   0  0  0  0  0  0  0  0  0  0  0  0
    9.2813  -14.3167   21.9841 O   0  0  0  0  0  0  0  0  0  0  0  0
    7.3215  -11.8279   27.5652 C   0  0  0  0  0  0  0  0  0  0  0  0
    7.9594  -12.8133   26.6495 C   0  0  0  0  0  0  0  0  0  0  0  0
    7.2632  -13.0203   25.3366 C   0  0  2  0  0  0  0  0  0  0  0  0
    5.8037  -13.3239   25.5699 C   0  0  0  0  0  0  0  0  0  0  0  0
    7.9534  -13.9519   24.3990 C   0  0  2  0  0  0  0  0  0  0  0  0
    7.3064  -14.1598   23.1370 N   0  0  0  0  0  0  0  0  0  0  0  0
    8.3458  -15.2298   25.0529 C   0  0  0  0  0  0  0  0  0  0  0  0
    7.4129  -16.0282   25.3306 O   0  0  0  0  0  0  0  0  0  0  0  0
   11.2367  -17.4470   25.1581 C   0  0  0  0  0  0  0  0  0  0  0  0
   10.0032  -16.8990   25.8329 C   0  0  2  0  0  0  0  0  0  0  0  0
    9.6709  -15.5720   25.3637 N   0  0  0  0  0  0  0  0  0  0  0  0
   10.1264  -16.9165   27.3079 C   0  0  0  0  0  0  0  0  0  0  0  0
    9.9910  -15.7807   28.0945 O   0  0  0  0  0  0  0  0  0  0  0  0
   10.3649  -18.0009   27.8986 O   0  0  0  0  0  0  0  0  0  0  0  0
  2  1  1  1
  2  3  1  0
  2  4  1  0
  4  5  1  6
  6  4  1  0
  6  7  2  0
  9  8  1  0
 10  9  1  0
 10 11  1  1
 12 10  1  0
 12 13  1  6
 13  6  1  0
 14 12  1  0
 15 14  2  0
 17 16  1  6
 17 18  1  0
 18 14  1  0
 19 17  1  0
 19 20  1  0
 21 19  2  0
M  END
$$$$
