TIA.pdb
     RDKit          3D

 21 20  0  0  1  0  0  0  0  0999 V2000
    5.3306  -16.6812   20.2176 C   0  0  0  0  0  0  0  0  0  0  0  0
    6.2494  -16.5000   21.4006 C   0  0  1  0  0  0  0  0  0  0  0  0
    7.2860  -17.4540   21.3906 O   0  0  0  0  0  0  0  0  0  0  0  0
    6.8514  -15.1131   21.3325 C   0  0  2  0  0  0  0  0  0  0  0  0
    7.5874  -14.9115   20.1026 N   0  0  0  0  0  0  0  0  0  0  0  0
    7.6884  -14.8098   22.5158 C   0  0  0  0  0  0  0  0  0  0  0  0
    8.9405  -14.7508   22.4368 O   0  0  0  0  0  0  0  0  0  0  0  0
    5.8709  -11.4045   26.4205 C   0  0  0  0  0  0  0  0  0  0  0  0
    6.7587  -12.1504   25.4867 C   0  0  0  0  0  0  0  0  0  0  0  0
    7.3227  -13.4349   26.0186 C   0  0  2  0  0  0  0  0  0  0  0  0
    8.2078  -13.1552   27.2082 C   0  0  0  0  0  0  0  0  0  0  0  0
    7.9231  -14.3318   24.9898 C   0  0  2  0  0  0  0  0  0  0  0  0
    7.1244  -14.5652   23.8228 N   0  0  0  0  0  0  0  0  0  0  0  0
    8.4552  -15.5924   25.5749 C   0  0  0  0  0  0  0  0  0  0  0  0
    7.6237  -16.3346   26.1601 O   0  0  0  0  0  0  0  0  0  0  0  0
   11.4826  -17.7464   25.2632 C   0  0  0  0  0  0  0  0  0  0  0  0
   10.2260  -17.2832   25.9586 C   0  0  2  0  0  0  0  0  0  0  0  0
    9.8029  -15.9770   25.5040 N   0  0  0  0  0  0  0  0  0  0  0  0
   10.3705  -17.3027   27.4316 C   0  0  0  0  0  0  0  0  0  0  0  0
   10.3382  -16.1556   28.2128 O   0  0  0  0  0  0  0  0  0  0  0  0
   10.5312  -18.3995   28.0256 O   0  0  0  0  0  0  0  0  0  0  0  0
  2  1  1  6
  2  3  1  0
  2  4  1  0
  4  5  1  6
  6  4  1  0
  6  7  2  0
  9  8  1  0
 10  9  1  0
 10 11  1  1
 12 10  1  0
 12 13  1  6
 13  6  1  0
 14 12  1  0
 15 14  2  0
 17 16  1  6
 17 18  1  0
 18 14  1  0
 19 17  1  0
 19 20  1  0
 21 19  2  0
M  END
$$$$
