TIA.pdb
     RDKit          3D

 21 20  0  0  1  0  0  0  0  0999 V2000
    6.3000  -16.5607   20.1787 C   0  0  0  0  0  0  0  0  0  0  0  0
    6.8425  -16.2026   21.5404 C   0  0  1  0  0  0  0  0  0  0  0  0
    7.7514  -17.1768   21.9982 O   0  0  0  0  0  0  0  0  0  0  0  0
    7.5533  -14.8703   21.4383 C   0  0  2  0  0  0  0  0  0  0  0  0
    8.5552  -14.8795   20.3938 N   0  0  0  0  0  0  0  0  0  0  0  0
    8.1312  -14.4462   22.7340 C   0  0  0  0  0  0  0  0  0  0  0  0
    9.3717  -14.3313   22.8936 O   0  0  0  0  0  0  0  0  0  0  0  0
    5.3124  -11.1821   26.2275 C   0  0  0  0  0  0  0  0  0  0  0  0
    6.4703  -11.7868   25.5134 C   0  0  0  0  0  0  0  0  0  0  0  0
    6.9908  -13.0682   26.0951 C   0  0  2  0  0  0  0  0  0  0  0  0
    7.5767  -12.8127   27.4619 C   0  0  0  0  0  0  0  0  0  0  0  0
    7.8585  -13.8664   25.1823 C   0  0  2  0  0  0  0  0  0  0  0  0
    7.3140  -14.1406   23.8851 N   0  0  0  0  0  0  0  0  0  0  0  0
    8.4042  -15.0857   25.8381 C   0  0  0  0  0  0  0  0  0  0  0  0
    8.9638  -14.9206   26.9536 O   0  0  0  0  0  0  0  0  0  0  0  0
    8.0913  -18.7825   25.6638 C   0  0  0  0  0  0  0  0  0  0  0  0
    8.8488  -17.5190   25.9904 C   0  0  2  0  0  0  0  0  0  0  0  0
    8.3239  -16.3720   25.2828 N   0  0  0  0  0  0  0  0  0  0  0  0
   10.3009  -17.6659   25.7439 C   0  0  0  0  0  0  0  0  0  0  0  0
   11.0009  -16.8788   24.8397 O   0  0  0  0  0  0  0  0  0  0  0  0
   10.9524  -18.5391   26.3721 O   0  0  0  0  0  0  0  0  0  0  0  0
  2  1  1  6
  2  3  1  0
  2  4  1  0
  4  5  1  6
  6  4  1  0
  6  7  2  0
  9  8  1  0
 10  9  1  0
 10 11  1  1
 12 10  1  0
 12 13  1  6
 13  6  1  0
 14 12  1  0
 15 14  2  0
 17 16  1  6
 17 18  1  0
 18 14  1  0
 19 17  1  0
 19 20  1  0
 21 19  2  0
M  END
$$$$
