TIA.pdb
     RDKit          3D

 21 20  0  0  1  0  0  0  0  0999 V2000
    8.1315  -18.3836   23.7576 C   0  0  0  0  0  0  0  0  0  0  0  0
    8.7408  -17.8111   22.5015 C   0  0  1  0  0  0  0  0  0  0  0  0
    8.3436  -18.5421   21.3645 O   0  0  0  0  0  0  0  0  0  0  0  0
    8.2795  -16.3771   22.3550 C   0  0  2  0  0  0  0  0  0  0  0  0
    8.6197  -15.8380   21.0556 N   0  0  0  0  0  0  0  0  0  0  0  0
    8.7880  -15.5138   23.4453 C   0  0  0  0  0  0  0  0  0  0  0  0
    9.9313  -14.9964   23.3942 O   0  0  0  0  0  0  0  0  0  0  0  0
    5.5656  -11.8365   25.6331 C   0  0  0  0  0  0  0  0  0  0  0  0
    6.7745  -12.5680   25.1641 C   0  0  0  0  0  0  0  0  0  0  0  0
    7.4822  -13.3822   26.2068 C   0  0  2  0  0  0  0  0  0  0  0  0
    8.0026  -12.4804   27.2989 C   0  0  0  0  0  0  0  0  0  0  0  0
    8.4766  -14.3577   25.6749 C   0  0  2  0  0  0  0  0  0  0  0  0
    8.0100  -15.2146   24.6249 N   0  0  0  0  0  0  0  0  0  0  0  0
    9.1696  -15.1101   26.7557 C   0  0  0  0  0  0  0  0  0  0  0  0
    8.4532  -15.8687   27.4601 O   0  0  0  0  0  0  0  0  0  0  0  0
   10.6065  -14.3466   29.3735 C   0  0  0  0  0  0  0  0  0  0  0  0
   11.0767  -15.3235   28.3238 C   0  0  2  0  0  0  0  0  0  0  0  0
   10.5453  -15.0129   27.0151 N   0  0  0  0  0  0  0  0  0  0  0  0
   10.7692  -16.7232   28.6943 C   0  0  0  0  0  0  0  0  0  0  0  0
   11.2250  -17.3166   29.8636 O   0  0  0  0  0  0  0  0  0  0  0  0
   10.0630  -17.4277   27.9285 O   0  0  0  0  0  0  0  0  0  0  0  0
  2  1  1  1
  2  3  1  0
  2  4  1  0
  4  5  1  6
  6  4  1  0
  6  7  2  0
  9  8  1  0
 10  9  1  0
 10 11  1  1
 12 10  1  0
 12 13  1  6
 13  6  1  0
 14 12  1  0
 15 14  2  0
 17 16  1  1
 17 18  1  0
 18 14  1  0
 19 17  1  0
 19 20  1  0
 21 19  2  0
M  END
$$$$
