TIA.pdb
     RDKit          3D

 21 20  0  0  1  0  0  0  0  0999 V2000
    6.4535  -14.7686   18.8784 C   0  0  0  0  0  0  0  0  0  0  0  0
    7.1108  -14.8117   20.2359 C   0  0  1  0  0  0  0  0  0  0  0  0
    8.2517  -15.6381   20.2228 O   0  0  0  0  0  0  0  0  0  0  0  0
    7.5217  -13.4052   20.6148 C   0  0  2  0  0  0  0  0  0  0  0  0
    8.4018  -12.8222   19.6247 N   0  0  0  0  0  0  0  0  0  0  0  0
    8.1196  -13.3446   21.9681 C   0  0  0  0  0  0  0  0  0  0  0  0
    9.3579  -13.2150   22.1336 O   0  0  0  0  0  0  0  0  0  0  0  0
    7.3303  -11.8709   27.9197 C   0  0  0  0  0  0  0  0  0  0  0  0
    7.8826  -12.7985   26.8946 C   0  0  0  0  0  0  0  0  0  0  0  0
    7.2172  -12.7471   25.5509 C   0  0  2  0  0  0  0  0  0  0  0  0
    5.7408  -13.0226   25.6965 C   0  0  0  0  0  0  0  0  0  0  0  0
    7.8973  -13.5333   24.4819 C   0  0  2  0  0  0  0  0  0  0  0  0
    7.3256  -13.4297   23.1716 N   0  0  0  0  0  0  0  0  0  0  0  0
    8.1439  -14.9449   24.8836 C   0  0  0  0  0  0  0  0  0  0  0  0
    7.1680  -15.7343   24.7889 O   0  0  0  0  0  0  0  0  0  0  0  0
   10.6767  -17.4123   24.7541 C   0  0  0  0  0  0  0  0  0  0  0  0
    9.5830  -16.8260   25.6129 C   0  0  2  0  0  0  0  0  0  0  0  0
    9.3802  -15.4185   25.3491 N   0  0  0  0  0  0  0  0  0  0  0  0
    9.8281  -17.0579   27.0541 C   0  0  0  0  0  0  0  0  0  0  0  0
    9.9559  -18.3242   27.6083 O   0  0  0  0  0  0  0  0  0  0  0  0
    9.9289  -16.0756   27.8330 O   0  0  0  0  0  0  0  0  0  0  0  0
  2  1  1  6
  2  3  1  0
  2  4  1  0
  4  5  1  6
  6  4  1  0
  6  7  2  0
  9  8  1  0
 10  9  1  0
 10 11  1  1
 12 10  1  0
 12 13  1  6
 13  6  1  0
 14 12  1  0
 15 14  2  0
 17 16  1  6
 17 18  1  0
 18 14  1  0
 19 17  1  0
 19 20  1  0
 21 19  2  0
M  END
$$$$
