IFR.pdb
     RDKit          3D

 31 31  0  0  1  0  0  0  0  0999 V2000
   28.5622  -18.9073  -17.3494 C   0  0  0  0  0  0  0  0  0  0  0  0
   28.4995  -18.6083  -15.8968 C   0  0  0  0  0  0  0  0  0  0  0  0
   27.4699  -19.3174  -15.1028 C   0  0  2  0  0  0  0  0  0  0  0  0
   26.4695  -18.2391  -14.6462 C   0  0  0  0  0  0  0  0  0  0  0  0
   27.9174  -20.0787  -13.9161 C   0  0  2  0  0  0  0  0  0  0  0  0
   28.9747  -21.0071  -14.2298 N   0  0  0  0  0  0  0  0  0  0  0  0
   26.8535  -20.6669  -13.0830 C   0  0  0  0  0  0  0  0  0  0  0  0
   26.4423  -21.8164  -13.3709 O   0  0  0  0  0  0  0  0  0  0  0  0
   26.2668  -20.0046  -11.9746 N   0  0  0  0  0  0  0  0  0  0  0  0
   25.2050  -20.5392  -11.1518 C   0  0  1  0  0  0  0  0  0  0  0  0
   25.0144  -19.8187   -9.8497 C   0  0  0  0  0  0  0  0  0  0  0  0
   26.0707  -20.0536   -8.8496 C   0  0  0  0  0  0  0  0  0  0  0  0
   26.5429  -18.9754   -8.1258 C   0  0  0  0  0  0  0  0  0  0  0  0
   27.5420  -19.1485   -7.1663 C   0  0  0  0  0  0  0  0  0  0  0  0
   28.0770  -20.3905   -6.9206 C   0  0  0  0  0  0  0  0  0  0  0  0
   27.6123  -21.4697   -7.6371 C   0  0  0  0  0  0  0  0  0  0  0  0
   26.6246  -21.2865   -8.5827 C   0  0  0  0  0  0  0  0  0  0  0  0
   23.9197  -20.3179  -11.9149 C   0  0  0  0  0  0  0  0  0  0  0  0
   23.7486  -19.1950  -12.4368 O   0  0  0  0  0  0  0  0  0  0  0  0
   24.0652  -25.5840  -16.7465 N   0  0  0  0  0  0  0  0  0  0  0  0
   23.1838  -25.8426  -15.6411 C   0  0  0  0  0  0  0  0  0  0  0  0
   23.1701  -26.9886  -15.0709 N   0  0  0  0  0  0  0  0  0  0  0  0
   22.3633  -24.7697  -15.2476 N   0  0  0  0  0  0  0  0  0  0  0  0
   22.4982  -23.4799  -15.8814 C   0  0  0  0  0  0  0  0  0  0  0  0
   22.5527  -22.3483  -14.9412 C   0  0  0  0  0  0  0  0  0  0  0  0
   21.7004  -22.2294  -13.7767 C   0  0  0  0  0  0  0  0  0  0  0  0
   21.7495  -21.0501  -12.8737 C   0  0  2  0  0  0  0  0  0  0  0  0
   22.9685  -21.3325  -12.0268 N   0  0  0  0  0  0  0  0  0  0  0  0
   20.6364  -21.0522  -11.8807 C   0  0  0  0  0  0  0  0  0  0  0  0
   19.4654  -20.3593  -12.0032 O   0  0  0  0  0  0  0  0  0  0  0  0
   20.7259  -21.7395  -10.7914 O   0  0  0  0  0  0  0  0  0  0  0  0
  2  1  1  0
  2  3  1  0
  3  4  1  1
  5  6  1  6
  5  3  1  0
  7  8  2  0
  7  5  1  0
  9  7  1  0
 10  9  1  0
 11 12  1  0
 10 11  1  1
 12 17  2  0
 13 12  1  0
 13 14  2  0
 14 15  1  0
 15 16  2  0
 17 16  1  0
 18 10  1  0
 18 28  1  0
 19 18  2  0
 20 21  1  0
 21 22  2  0
 21 23  1  0
 23 24  1  0
 24 25  1  0
 25 26  1  0
 27 26  1  6
 27 28  1  0
 27 29  1  0
 29 31  2  0
 29 30  1  0
M  END
$$$$
