IFR.pdb
     RDKit          3D

 31 31  0  0  1  0  0  0  0  0999 V2000
   19.3692  -15.9566  -18.0389 C   0  0  0  0  0  0  0  0  0  0  0  0
   20.7843  -15.5223  -17.9290 C   0  0  0  0  0  0  0  0  0  0  0  0
   21.7930  -16.5665  -17.6369 C   0  0  2  0  0  0  0  0  0  0  0  0
   21.3156  -17.2698  -16.3526 C   0  0  0  0  0  0  0  0  0  0  0  0
   23.1954  -16.1365  -17.4460 C   0  0  2  0  0  0  0  0  0  0  0  0
   23.7082  -15.4230  -18.5889 N   0  0  0  0  0  0  0  0  0  0  0  0
   24.1240  -17.1594  -16.9329 C   0  0  0  0  0  0  0  0  0  0  0  0
   24.3590  -18.1605  -17.6512 O   0  0  0  0  0  0  0  0  0  0  0  0
   24.7656  -17.0762  -15.6708 N   0  0  0  0  0  0  0  0  0  0  0  0
   25.7504  -18.0108  -15.1740 C   0  0  1  0  0  0  0  0  0  0  0  0
   26.9907  -17.3654  -14.6300 C   0  0  0  0  0  0  0  0  0  0  0  0
   27.9511  -16.9081  -15.6497 C   0  0  0  0  0  0  0  0  0  0  0  0
   27.9016  -15.5879  -16.0549 C   0  0  0  0  0  0  0  0  0  0  0  0
   28.7917  -15.1078  -17.0172 C   0  0  0  0  0  0  0  0  0  0  0  0
   29.7340  -15.9340  -17.5816 C   0  0  0  0  0  0  0  0  0  0  0  0
   29.7900  -17.2503  -17.1836 C   0  0  0  0  0  0  0  0  0  0  0  0
   28.9053  -17.7135  -16.2318 C   0  0  0  0  0  0  0  0  0  0  0  0
   25.1197  -18.7086  -13.9914 C   0  0  0  0  0  0  0  0  0  0  0  0
   24.2346  -18.0875  -13.3641 O   0  0  0  0  0  0  0  0  0  0  0  0
   21.7279  -25.8117  -13.1009 N   0  0  0  0  0  0  0  0  0  0  0  0
   20.7557  -25.0577  -12.3580 C   0  0  0  0  0  0  0  0  0  0  0  0
   19.7497  -25.6392  -11.8207 N   0  0  0  0  0  0  0  0  0  0  0  0
   20.9901  -23.6734  -12.2706 N   0  0  0  0  0  0  0  0  0  0  0  0
   22.2098  -23.1073  -12.7954 C   0  0  0  0  0  0  0  0  0  0  0  0
   22.3213  -21.6495  -12.6234 C   0  0  0  0  0  0  0  0  0  0  0  0
   23.3787  -20.8501  -13.2062 C   0  0  0  0  0  0  0  0  0  0  0  0
   24.7049  -20.6909  -12.5548 C   0  0  2  0  0  0  0  0  0  0  0  0
   25.5162  -19.9944  -13.6223 N   0  0  0  0  0  0  0  0  0  0  0  0
   25.4112  -21.9937  -12.3854 C   0  0  0  0  0  0  0  0  0  0  0  0
   26.0895  -22.6595  -13.3667 O   0  0  0  0  0  0  0  0  0  0  0  0
   25.4151  -22.5983  -11.2445 O   0  0  0  0  0  0  0  0  0  0  0  0
  2  1  1  0
  2  3  1  0
  3  4  1  1
  5  6  1  6
  5  3  1  0
  7  8  2  0
  7  5  1  0
  9  7  1  0
 10  9  1  0
 11 12  1  0
 10 11  1  1
 12 17  2  0
 13 12  1  0
 13 14  2  0
 14 15  1  0
 15 16  2  0
 17 16  1  0
 18 10  1  0
 18 28  1  0
 19 18  2  0
 20 21  1  0
 21 22  2  0
 21 23  1  0
 23 24  1  0
 24 25  1  0
 25 26  1  0
 27 26  1  6
 27 28  1  0
 27 29  1  0
 29 31  2  0
 29 30  1  0
M  END
$$$$
