IFR.pdb
     RDKit          3D

 31 31  0  0  1  0  0  0  0  0999 V2000
   29.2131  -18.4114  -15.3550 C   0  0  0  0  0  0  0  0  0  0  0  0
   29.5546  -19.0677  -14.0682 C   0  0  0  0  0  0  0  0  0  0  0  0
   28.4352  -19.6189  -13.2706 C   0  0  2  0  0  0  0  0  0  0  0  0
   27.5039  -18.4300  -12.9684 C   0  0  0  0  0  0  0  0  0  0  0  0
   28.7637  -20.2964  -11.9973 C   0  0  2  0  0  0  0  0  0  0  0  0
   29.7658  -21.3190  -12.1656 N   0  0  0  0  0  0  0  0  0  0  0  0
   27.6178  -20.7323  -11.1794 C   0  0  0  0  0  0  0  0  0  0  0  0
   27.1017  -21.8480  -11.4288 O   0  0  0  0  0  0  0  0  0  0  0  0
   27.0646  -19.9596  -10.1267 N   0  0  0  0  0  0  0  0  0  0  0  0
   25.8786  -20.3043   -9.3751 C   0  0  1  0  0  0  0  0  0  0  0  0
   25.6940  -19.5061   -8.1182 C   0  0  0  0  0  0  0  0  0  0  0  0
   26.6123  -19.8556   -7.0201 C   0  0  0  0  0  0  0  0  0  0  0  0
   26.5421  -21.1269   -6.4833 C   0  0  0  0  0  0  0  0  0  0  0  0
   27.3923  -21.5050   -5.4427 C   0  0  0  0  0  0  0  0  0  0  0  0
   28.3152  -20.6248   -4.9301 C   0  0  0  0  0  0  0  0  0  0  0  0
   28.3917  -19.3566   -5.4592 C   0  0  0  0  0  0  0  0  0  0  0  0
   27.5463  -18.9943   -6.4874 C   0  0  0  0  0  0  0  0  0  0  0  0
   24.6991  -19.9421  -10.2472 C   0  0  0  0  0  0  0  0  0  0  0  0
   24.6171  -18.7577  -10.6383 O   0  0  0  0  0  0  0  0  0  0  0  0
   25.4260  -25.1800  -14.1788 N   0  0  0  0  0  0  0  0  0  0  0  0
   24.0247  -25.2367  -13.8647 C   0  0  0  0  0  0  0  0  0  0  0  0
   23.4955  -26.3194  -13.4328 N   0  0  0  0  0  0  0  0  0  0  0  0
   23.3036  -24.0452  -14.0629 N   0  0  0  0  0  0  0  0  0  0  0  0
   23.9956  -22.8219  -14.3916 C   0  0  0  0  0  0  0  0  0  0  0  0
   23.8991  -21.7777  -13.3583 C   0  0  0  0  0  0  0  0  0  0  0  0
   22.6969  -21.5089  -12.5972 C   0  0  0  0  0  0  0  0  0  0  0  0
   22.6439  -20.4685  -11.5374 C   0  0  2  0  0  0  0  0  0  0  0  0
   23.7450  -20.8986  -10.5964 N   0  0  0  0  0  0  0  0  0  0  0  0
   21.4156  -20.5790  -10.6982 C   0  0  0  0  0  0  0  0  0  0  0  0
   20.2067  -20.0119  -10.9865 O   0  0  0  0  0  0  0  0  0  0  0  0
   21.4302  -21.2458   -9.5927 O   0  0  0  0  0  0  0  0  0  0  0  0
  2  1  1  0
  2  3  1  0
  3  4  1  1
  5  6  1  6
  5  3  1  0
  7  8  2  0
  7  5  1  0
  9  7  1  0
 10  9  1  0
 11 12  1  0
 10 11  1  1
 12 17  2  0
 13 12  1  0
 13 14  2  0
 14 15  1  0
 15 16  2  0
 17 16  1  0
 18 10  1  0
 18 28  1  0
 19 18  2  0
 20 21  1  0
 21 22  2  0
 21 23  1  0
 23 24  1  0
 24 25  1  0
 25 26  1  0
 27 26  1  6
 27 28  1  0
 27 29  1  0
 29 31  2  0
 29 30  1  0
M  END
$$$$
