IFR.pdb
     RDKit          3D

 31 31  0  0  1  0  0  0  0  0999 V2000
   20.1445  -22.6848  -15.2472 C   0  0  0  0  0  0  0  0  0  0  0  0
   20.6806  -22.4627  -13.8810 C   0  0  0  0  0  0  0  0  0  0  0  0
   21.9132  -21.6508  -13.7603 C   0  0  2  0  0  0  0  0  0  0  0  0
   23.0288  -22.4707  -14.4349 C   0  0  0  0  0  0  0  0  0  0  0  0
   22.3604  -21.2739  -12.4016 C   0  0  2  0  0  0  0  0  0  0  0  0
   21.3274  -20.6021  -11.6534 N   0  0  0  0  0  0  0  0  0  0  0  0
   23.6722  -20.6081  -12.3112 C   0  0  0  0  0  0  0  0  0  0  0  0
   23.7297  -19.3773  -12.5463 O   0  0  0  0  0  0  0  0  0  0  0  0
   24.8740  -21.2819  -11.9750 N   0  0  0  0  0  0  0  0  0  0  0  0
   26.1797  -20.6662  -11.8963 C   0  0  1  0  0  0  0  0  0  0  0  0
   27.0363  -21.1829  -10.7780 C   0  0  0  0  0  0  0  0  0  0  0  0
   26.6202  -20.7579   -9.4299 C   0  0  0  0  0  0  0  0  0  0  0  0
   25.7769  -21.5834   -8.7109 C   0  0  0  0  0  0  0  0  0  0  0  0
   25.3566  -21.2243   -7.4291 C   0  0  0  0  0  0  0  0  0  0  0  0
   25.7702  -20.0459   -6.8549 C   0  0  0  0  0  0  0  0  0  0  0  0
   26.6101  -19.2180   -7.5643 C   0  0  0  0  0  0  0  0  0  0  0  0
   27.0190  -19.5834   -8.8302 C   0  0  0  0  0  0  0  0  0  0  0  0
   26.9111  -21.0510  -13.1612 C   0  0  0  0  0  0  0  0  0  0  0  0
   27.4361  -22.1849  -13.1980 O   0  0  0  0  0  0  0  0  0  0  0  0
   29.2964  -25.6479  -16.8125 N   0  0  0  0  0  0  0  0  0  0  0  0
   27.8906  -25.6577  -16.5141 C   0  0  0  0  0  0  0  0  0  0  0  0
   27.2707  -26.7616  -16.3248 N   0  0  0  0  0  0  0  0  0  0  0  0
   27.2693  -24.3972  -16.4482 N   0  0  0  0  0  0  0  0  0  0  0  0
   27.3648  -23.4800  -17.5587 C   0  0  0  0  0  0  0  0  0  0  0  0
   26.6502  -22.2091  -17.3547 C   0  0  0  0  0  0  0  0  0  0  0  0
   26.5315  -21.5511  -16.0704 C   0  0  0  0  0  0  0  0  0  0  0  0
   27.6084  -20.6896  -15.5168 C   0  0  2  0  0  0  0  0  0  0  0  0
   26.9917  -20.1690  -14.2394 N   0  0  0  0  0  0  0  0  0  0  0  0
   27.8141  -19.4528  -16.3249 C   0  0  0  0  0  0  0  0  0  0  0  0
   28.8363  -19.2448  -17.2069 O   0  0  0  0  0  0  0  0  0  0  0  0
   26.9985  -18.4569  -16.2253 O   0  0  0  0  0  0  0  0  0  0  0  0
  2  1  1  0
  2  3  1  0
  3  4  1  1
  5  6  1  6
  5  3  1  0
  7  8  2  0
  7  5  1  0
  9  7  1  0
 10  9  1  0
 11 12  1  0
 10 11  1  1
 12 17  2  0
 13 12  1  0
 13 14  2  0
 14 15  1  0
 15 16  2  0
 17 16  1  0
 18 10  1  0
 18 28  1  0
 19 18  2  0
 20 21  1  0
 21 22  2  0
 21 23  1  0
 23 24  1  0
 24 25  1  0
 25 26  1  0
 27 26  1  6
 27 28  1  0
 27 29  1  0
 29 31  2  0
 29 30  1  0
M  END
$$$$
