IFR.pdb
     RDKit          3D

 31 31  0  0  1  0  0  0  0  0999 V2000
   26.8879  -18.0689  -20.3419 C   0  0  0  0  0  0  0  0  0  0  0  0
   27.3866  -17.8836  -18.9562 C   0  0  0  0  0  0  0  0  0  0  0  0
   26.6720  -18.6030  -17.8768 C   0  0  2  0  0  0  0  0  0  0  0  0
   26.4268  -17.5652  -16.7656 C   0  0  0  0  0  0  0  0  0  0  0  0
   27.3324  -19.7850  -17.2812 C   0  0  2  0  0  0  0  0  0  0  0  0
   27.7055  -20.7606  -18.2748 N   0  0  0  0  0  0  0  0  0  0  0  0
   26.6690  -20.3754  -16.1051 C   0  0  0  0  0  0  0  0  0  0  0  0
   25.6913  -21.1376  -16.2962 O   0  0  0  0  0  0  0  0  0  0  0  0
   27.0734  -20.1284  -14.7683 N   0  0  0  0  0  0  0  0  0  0  0  0
   26.3677  -20.5764  -13.5886 C   0  0  1  0  0  0  0  0  0  0  0  0
   27.0663  -20.2627  -12.2985 C   0  0  0  0  0  0  0  0  0  0  0  0
   26.3233  -20.6383  -11.0827 C   0  0  0  0  0  0  0  0  0  0  0  0
   25.3105  -21.5718  -11.1928 C   0  0  0  0  0  0  0  0  0  0  0  0
   24.5794  -21.9606  -10.0690 C   0  0  0  0  0  0  0  0  0  0  0  0
   24.8491  -21.4258   -8.8319 C   0  0  0  0  0  0  0  0  0  0  0  0
   25.8563  -20.4954   -8.7135 C   0  0  0  0  0  0  0  0  0  0  0  0
   26.5721  -20.1189   -9.8312 C   0  0  0  0  0  0  0  0  0  0  0  0
   25.0777  -19.7911  -13.5378 C   0  0  0  0  0  0  0  0  0  0  0  0
   25.1652  -18.5535  -13.3848 O   0  0  0  0  0  0  0  0  0  0  0  0
   23.0904  -20.7807  -19.0152 N   0  0  0  0  0  0  0  0  0  0  0  0
   21.7662  -20.9827  -18.4946 C   0  0  0  0  0  0  0  0  0  0  0  0
   21.0822  -22.0114  -18.8303 N   0  0  0  0  0  0  0  0  0  0  0  0
   21.2961  -19.9914  -17.6139 N   0  0  0  0  0  0  0  0  0  0  0  0
   22.1453  -18.8842  -17.2446 C   0  0  0  0  0  0  0  0  0  0  0  0
   22.7180  -18.9878  -15.8923 C   0  0  0  0  0  0  0  0  0  0  0  0
   21.9934  -19.5049  -14.7503 C   0  0  0  0  0  0  0  0  0  0  0  0
   22.6056  -19.6039  -13.3997 C   0  0  2  0  0  0  0  0  0  0  0  0
   23.8436  -20.4309  -13.6577 N   0  0  0  0  0  0  0  0  0  0  0  0
   21.8069  -20.4638  -12.4790 C   0  0  0  0  0  0  0  0  0  0  0  0
   20.9020  -20.0124  -11.5606 O   0  0  0  0  0  0  0  0  0  0  0  0
   21.9385  -21.7480  -12.4960 O   0  0  0  0  0  0  0  0  0  0  0  0
  2  1  1  0
  2  3  1  0
  3  4  1  1
  5  6  1  6
  5  3  1  0
  7  8  2  0
  7  5  1  0
  9  7  1  0
 10  9  1  0
 11 12  1  0
 10 11  1  1
 12 17  2  0
 13 12  1  0
 13 14  2  0
 14 15  1  0
 15 16  2  0
 17 16  1  0
 18 10  1  0
 18 28  1  0
 19 18  2  0
 20 21  1  0
 21 22  2  0
 21 23  1  0
 23 24  1  0
 24 25  1  0
 25 26  1  0
 27 26  1  6
 27 28  1  0
 27 29  1  0
 29 31  2  0
 29 30  1  0
M  END
$$$$
