MDT.pdb
     RDKit          3D

 24 23  0  0  1  0  0  0  0  0999 V2000
   16.6236  -13.2765  -12.0365 C   0  0  0  0  0  0  0  0  0  0  0  0
   15.7239  -13.6703  -10.5114 S   0  0  0  0  0  0  0  0  0  0  0  0
   14.9744  -12.1825   -9.7936 C   0  0  0  0  0  0  0  0  0  0  0  0
   15.5415  -10.9298  -10.4589 C   0  0  0  0  0  0  0  0  0  0  0  0
   14.8139   -9.7530   -9.9003 C   0  0  2  0  0  0  0  0  0  0  0  0
   13.4049   -9.9020  -10.1471 N   0  0  0  0  0  0  0  0  0  0  0  0
   15.3418   -8.4505  -10.3425 C   0  0  0  0  0  0  0  0  0  0  0  0
   14.8920   -7.9468  -11.4165 O   0  0  0  0  0  0  0  0  0  0  0  0
   16.3182   -7.7027   -9.6661 N   0  0  0  0  0  0  0  0  0  0  0  0
   16.8633   -6.4234  -10.1315 C   0  0  1  0  0  0  0  0  0  0  0  0
   16.7101   -5.5099   -8.9289 C   0  0  0  0  0  0  0  0  0  0  0  0
   17.1932   -4.1429   -9.1482 C   0  0  0  0  0  0  0  0  0  0  0  0
   17.5053   -3.7996  -10.3213 O   0  0  0  0  0  0  0  0  0  0  0  0
   18.2791   -6.5720  -10.5065 C   0  0  0  0  0  0  0  0  0  0  0  0
   19.0710   -7.0116   -9.6301 O   0  0  0  0  0  0  0  0  0  0  0  0
   17.3020   -3.2601   -8.1067 O   0  0  0  0  0  0  0  0  0  0  0  0
   20.3487   -8.8914  -12.4207 C   0  0  0  0  0  0  0  0  0  0  0  0
   20.5758   -7.5009  -12.9709 C   0  0  1  0  0  0  0  0  0  0  0  0
   19.6870   -7.3384  -14.0419 O   0  0  0  0  0  0  0  0  0  0  0  0
   20.2431   -6.4291  -11.9659 C   0  0  2  0  0  0  0  0  0  0  0  0
   18.8228   -6.2645  -11.7707 N   0  0  0  0  0  0  0  0  0  0  0  0
   20.7894   -5.1592  -12.4975 C   0  0  0  0  0  0  0  0  0  0  0  0
   20.0471   -4.2124  -12.8160 O   0  0  0  0  0  0  0  0  0  0  0  0
   22.1688   -4.9866  -12.6580 O   0  0  0  0  0  0  0  0  0  0  0  0
  1  2  1  0
  2  3  1  0
  4  5  1  0
  4  3  1  0
  5  7  1  0
  5  6  1  6
  7  8  2  0
  9  7  1  0
  9 10  1  0
 10 11  1  1
 12 11  1  0
 13 12  2  0
 14 10  1  0
 14 15  2  0
 16 12  1  0
 18 17  1  1
 18 20  1  0
 19 18  1  0
 20 21  1  6
 20 22  1  0
 21 14  1  0
 22 24  1  0
 23 22  2  0
M  END
$$$$
