MDT.pdb
     RDKit          3D

 24 23  0  0  1  0  0  0  0  0999 V2000
   22.0450  -24.6620    1.3381 C   0  0  0  0  0  0  0  0  0  0  0  0
   22.4354  -24.8893   -0.4187 S   0  0  0  0  0  0  0  0  0  0  0  0
   21.2603  -26.0246   -1.2065 C   0  0  0  0  0  0  0  0  0  0  0  0
   20.6355  -26.9487   -0.1629 C   0  0  0  0  0  0  0  0  0  0  0  0
   19.5868  -27.7597   -0.8476 C   0  0  2  0  0  0  0  0  0  0  0  0
   18.6179  -26.8804   -1.4446 N   0  0  0  0  0  0  0  0  0  0  0  0
   18.9769  -28.7987    0.0002 C   0  0  0  0  0  0  0  0  0  0  0  0
   17.7914  -28.6230    0.4166 O   0  0  0  0  0  0  0  0  0  0  0  0
   19.6047  -29.9902    0.3957 N   0  0  0  0  0  0  0  0  0  0  0  0
   19.0137  -30.9900    1.2910 C   0  0  1  0  0  0  0  0  0  0  0  0
   19.4636  -32.3128    0.6977 C   0  0  0  0  0  0  0  0  0  0  0  0
   18.9602  -33.4918    1.4094 C   0  0  0  0  0  0  0  0  0  0  0  0
   17.9464  -33.3572    2.1481 O   0  0  0  0  0  0  0  0  0  0  0  0
   19.5260  -30.8225    2.6609 C   0  0  0  0  0  0  0  0  0  0  0  0
   20.7744  -30.8729    2.8263 O   0  0  0  0  0  0  0  0  0  0  0  0
   19.5735  -34.7091    1.2752 O   0  0  0  0  0  0  0  0  0  0  0  0
   18.1703  -28.2791    5.5529 C   0  0  0  0  0  0  0  0  0  0  0  0
   19.5169  -28.9607    5.4543 C   0  0  1  0  0  0  0  0  0  0  0  0
   20.0834  -28.9268    6.7354 O   0  0  0  0  0  0  0  0  0  0  0  0
   19.3938  -30.4132    5.0738 C   0  0  2  0  0  0  0  0  0  0  0  0
   18.7322  -30.6068    3.8061 N   0  0  0  0  0  0  0  0  0  0  0  0
   18.5806  -31.0642    6.1268 C   0  0  0  0  0  0  0  0  0  0  0  0
   17.4615  -31.5496    5.8800 O   0  0  0  0  0  0  0  0  0  0  0  0
   19.0523  -31.1527    7.4412 O   0  0  0  0  0  0  0  0  0  0  0  0
  1  2  1  0
  2  3  1  0
  4  5  1  0
  4  3  1  0
  5  7  1  0
  5  6  1  1
  7  8  2  0
  9  7  1  0
  9 10  1  0
 10 11  1  6
 12 11  1  0
 13 12  2  0
 14 10  1  0
 14 15  2  0
 16 12  1  0
 18 17  1  1
 18 20  1  0
 19 18  1  0
 20 21  1  6
 20 22  1  0
 21 14  1  0
 22 24  1  0
 23 22  2  0
M  END
$$$$
