MDT.pdb
     RDKit          3D

 24 23  0  0  1  0  0  0  0  0999 V2000
   19.7070  -16.6673  -14.2185 C   0  0  0  0  0  0  0  0  0  0  0  0
   18.4907  -16.5965  -15.5624 S   0  0  0  0  0  0  0  0  0  0  0  0
   19.1814  -15.7745  -17.0245 C   0  0  0  0  0  0  0  0  0  0  0  0
   19.4947  -14.3125  -16.7120 C   0  0  0  0  0  0  0  0  0  0  0  0
   20.0400  -13.6918  -17.9545 C   0  0  2  0  0  0  0  0  0  0  0  0
   21.2921  -14.3151  -18.2893 N   0  0  0  0  0  0  0  0  0  0  0  0
   20.1219  -12.2215  -17.9098 C   0  0  0  0  0  0  0  0  0  0  0  0
   21.2590  -11.6820  -17.7499 O   0  0  0  0  0  0  0  0  0  0  0  0
   19.0304  -11.3474  -18.0312 N   0  0  0  0  0  0  0  0  0  0  0  0
   19.1343   -9.8879  -18.1284 C   0  0  1  0  0  0  0  0  0  0  0  0
   17.7933   -9.4708  -18.7044 C   0  0  0  0  0  0  0  0  0  0  0  0
   17.6445   -9.7439  -20.1374 C   0  0  0  0  0  0  0  0  0  0  0  0
   16.7867  -10.5957  -20.4982 O   0  0  0  0  0  0  0  0  0  0  0  0
   19.3458   -9.2962  -16.7971 C   0  0  0  0  0  0  0  0  0  0  0  0
   18.5424   -9.6195  -15.8815 O   0  0  0  0  0  0  0  0  0  0  0  0
   18.4158   -9.0905  -21.0615 O   0  0  0  0  0  0  0  0  0  0  0  0
   22.0663   -9.8357  -14.3483 C   0  0  0  0  0  0  0  0  0  0  0  0
   21.8753   -8.3442  -14.5118 C   0  0  1  0  0  0  0  0  0  0  0  0
   22.8259   -7.9137  -15.4469 O   0  0  0  0  0  0  0  0  0  0  0  0
   20.5228   -8.0020  -15.0804 C   0  0  2  0  0  0  0  0  0  0  0  0
   20.3785   -8.3968  -16.4608 N   0  0  0  0  0  0  0  0  0  0  0  0
   20.3853   -6.5294  -15.0014 C   0  0  0  0  0  0  0  0  0  0  0  0
   20.3435   -5.8222  -16.0247 O   0  0  0  0  0  0  0  0  0  0  0  0
   20.2975   -5.8856  -13.7620 O   0  0  0  0  0  0  0  0  0  0  0  0
  1  2  1  0
  2  3  1  0
  4  5  1  0
  4  3  1  0
  5  7  1  0
  5  6  1  1
  7  8  2  0
  9  7  1  0
  9 10  1  0
 10 11  1  1
 12 11  1  0
 13 12  2  0
 14 10  1  0
 14 15  2  0
 16 12  1  0
 18 17  1  6
 18 20  1  0
 19 18  1  0
 20 21  1  6
 20 22  1  0
 21 14  1  0
 22 24  1  0
 23 22  2  0
M  END
$$$$
