MDT.pdb
     RDKit          3D

 24 23  0  0  1  0  0  0  0  0999 V2000
   17.6395  -14.5824  -18.4649 C   0  0  0  0  0  0  0  0  0  0  0  0
   16.1076  -13.8935  -17.7800 S   0  0  0  0  0  0  0  0  0  0  0  0
   16.4347  -12.9616  -16.2584 C   0  0  0  0  0  0  0  0  0  0  0  0
   17.3235  -11.7555  -16.5564 C   0  0  0  0  0  0  0  0  0  0  0  0
   17.7267  -11.1578  -15.2501 C   0  0  2  0  0  0  0  0  0  0  0  0
   16.7637  -11.5163  -14.2438 N   0  0  0  0  0  0  0  0  0  0  0  0
   17.9917   -9.7096  -15.3042 C   0  0  0  0  0  0  0  0  0  0  0  0
   18.7724   -9.2689  -16.2019 O   0  0  0  0  0  0  0  0  0  0  0  0
   17.4451   -8.7550  -14.4323 N   0  0  0  0  0  0  0  0  0  0  0  0
   17.7043   -7.3134  -14.5013 C   0  0  1  0  0  0  0  0  0  0  0  0
   16.5093   -6.7001  -13.7942 C   0  0  0  0  0  0  0  0  0  0  0  0
   15.2890   -6.6564  -14.6061 C   0  0  0  0  0  0  0  0  0  0  0  0
   14.1814   -6.8432  -14.0318 O   0  0  0  0  0  0  0  0  0  0  0  0
   18.9587   -6.9812  -13.8060 C   0  0  0  0  0  0  0  0  0  0  0  0
   19.0527   -7.2990  -12.5901 O   0  0  0  0  0  0  0  0  0  0  0  0
   15.3491   -6.4177  -15.9533 O   0  0  0  0  0  0  0  0  0  0  0  0
   22.3788   -8.3131  -13.9257 C   0  0  0  0  0  0  0  0  0  0  0  0
   22.4621   -6.8133  -14.1025 C   0  0  1  0  0  0  0  0  0  0  0  0
   22.5073   -6.5695  -15.4816 O   0  0  0  0  0  0  0  0  0  0  0  0
   21.2379   -6.1090  -13.5783 C   0  0  2  0  0  0  0  0  0  0  0  0
   20.0680   -6.3371  -14.3917 N   0  0  0  0  0  0  0  0  0  0  0  0
   21.5389   -4.6588  -13.5934 C   0  0  0  0  0  0  0  0  0  0  0  0
   20.9883   -3.8867  -14.3994 O   0  0  0  0  0  0  0  0  0  0  0  0
   22.4596   -4.1109  -12.6932 O   0  0  0  0  0  0  0  0  0  0  0  0
  1  2  1  0
  2  3  1  0
  4  5  1  0
  4  3  1  0
  5  7  1  0
  5  6  1  1
  7  8  2  0
  9  7  1  0
  9 10  1  0
 10 11  1  1
 12 11  1  0
 13 12  2  0
 14 10  1  0
 14 15  2  0
 16 12  1  0
 18 17  1  6
 18 20  1  0
 19 18  1  0
 20 21  1  6
 20 22  1  0
 21 14  1  0
 22 24  1  0
 23 22  2  0
M  END
$$$$
