MDT.pdb
     RDKit          3D

 24 23  0  0  1  0  0  0  0  0999 V2000
   25.8554  -19.1931   -7.5709 C   0  0  0  0  0  0  0  0  0  0  0  0
   27.2190  -20.0110   -8.4438 S   0  0  0  0  0  0  0  0  0  0  0  0
   26.5945  -21.2382   -9.6248 C   0  0  0  0  0  0  0  0  0  0  0  0
   25.8520  -20.5455  -10.7659 C   0  0  0  0  0  0  0  0  0  0  0  0
   25.2232  -21.6066  -11.6055 C   0  0  2  0  0  0  0  0  0  0  0  0
   26.2470  -22.4720  -12.1263 N   0  0  0  0  0  0  0  0  0  0  0  0
   24.3165  -21.0945  -12.6477 C   0  0  0  0  0  0  0  0  0  0  0  0
   24.6403  -21.2519  -13.8642 O   0  0  0  0  0  0  0  0  0  0  0  0
   23.1011  -20.4345  -12.4082 N   0  0  0  0  0  0  0  0  0  0  0  0
   22.0831  -20.1601  -13.4273 C   0  0  1  0  0  0  0  0  0  0  0  0
   20.8601  -19.7712  -12.6167 C   0  0  0  0  0  0  0  0  0  0  0  0
   20.0142  -20.9033  -12.2260 C   0  0  0  0  0  0  0  0  0  0  0  0
   20.2247  -22.0227  -12.7683 O   0  0  0  0  0  0  0  0  0  0  0  0
   22.5125  -19.0556  -14.3008 C   0  0  0  0  0  0  0  0  0  0  0  0
   22.4803  -17.8894  -13.8240 O   0  0  0  0  0  0  0  0  0  0  0  0
   19.0211  -20.7507  -11.2952 O   0  0  0  0  0  0  0  0  0  0  0  0
   25.8419  -18.2142  -16.2063 C   0  0  0  0  0  0  0  0  0  0  0  0
   24.6352  -18.1833  -17.1176 C   0  0  1  0  0  0  0  0  0  0  0  0
   24.5665  -19.4358  -17.7422 O   0  0  0  0  0  0  0  0  0  0  0  0
   23.3485  -18.0094  -16.3536 C   0  0  2  0  0  0  0  0  0  0  0  0
   22.9609  -19.1964  -15.6303 N   0  0  0  0  0  0  0  0  0  0  0  0
   22.2957  -17.7083  -17.3509 C   0  0  0  0  0  0  0  0  0  0  0  0
   21.3077  -18.4501  -17.5007 O   0  0  0  0  0  0  0  0  0  0  0  0
   22.3831  -16.5702  -18.1605 O   0  0  0  0  0  0  0  0  0  0  0  0
  1  2  1  0
  2  3  1  0
  4  5  1  0
  4  3  1  0
  5  7  1  0
  5  6  1  6
  7  8  2  0
  9  7  1  0
  9 10  1  0
 10 11  1  1
 12 11  1  0
 13 12  2  0
 14 10  1  0
 14 15  2  0
 16 12  1  0
 18 17  1  1
 18 20  1  0
 19 18  1  0
 20 21  1  6
 20 22  1  0
 21 14  1  0
 22 24  1  0
 23 22  2  0
M  END
$$$$
