MDT.pdb
     RDKit          3D

 24 23  0  0  1  0  0  0  0  0999 V2000
   27.1768  -10.7796  -15.1475 C   0  0  0  0  0  0  0  0  0  0  0  0
   26.0823  -11.0759  -16.5633 S   0  0  0  0  0  0  0  0  0  0  0  0
   24.3970  -11.4633  -16.0151 C   0  0  0  0  0  0  0  0  0  0  0  0
   23.7871  -10.2651  -15.2902 C   0  0  0  0  0  0  0  0  0  0  0  0
   22.7492   -9.6758  -16.1857 C   0  0  2  0  0  0  0  0  0  0  0  0
   23.3278   -9.4076  -17.4747 N   0  0  0  0  0  0  0  0  0  0  0  0
   22.0487   -8.5121  -15.6150 C   0  0  0  0  0  0  0  0  0  0  0  0
   21.5414   -8.6175  -14.4570 O   0  0  0  0  0  0  0  0  0  0  0  0
   21.8903   -7.2718  -16.2528 N   0  0  0  0  0  0  0  0  0  0  0  0
   21.1922   -6.1181  -15.6767 C   0  0  1  0  0  0  0  0  0  0  0  0
   22.2100   -4.9964  -15.7776 C   0  0  0  0  0  0  0  0  0  0  0  0
   23.2731   -5.0581  -14.7697 C   0  0  0  0  0  0  0  0  0  0  0  0
   22.9689   -4.8394  -13.5650 O   0  0  0  0  0  0  0  0  0  0  0  0
   19.9820   -5.8064  -16.4547 C   0  0  0  0  0  0  0  0  0  0  0  0
   20.1081   -5.6789  -17.7023 O   0  0  0  0  0  0  0  0  0  0  0  0
   24.5637   -5.3470  -15.1257 O   0  0  0  0  0  0  0  0  0  0  0  0
   16.8807   -7.5932  -17.5009 C   0  0  0  0  0  0  0  0  0  0  0  0
   16.4951   -6.3082  -16.8027 C   0  0  1  0  0  0  0  0  0  0  0  0
   16.2575   -6.6315  -15.4602 O   0  0  0  0  0  0  0  0  0  0  0  0
   17.6115   -5.2968  -16.8134 C   0  0  2  0  0  0  0  0  0  0  0  0
   18.6889   -5.6411  -15.9173 N   0  0  0  0  0  0  0  0  0  0  0  0
   17.0285   -4.0106  -16.3667 C   0  0  0  0  0  0  0  0  0  0  0  0
   17.3634   -3.4811  -15.2913 O   0  0  0  0  0  0  0  0  0  0  0  0
   16.0755   -3.3483  -17.1486 O   0  0  0  0  0  0  0  0  0  0  0  0
  1  2  1  0
  2  3  1  0
  4  5  1  0
  4  3  1  0
  5  7  1  0
  5  6  1  6
  7  8  2  0
  9  7  1  0
  9 10  1  0
 10 11  1  6
 12 11  1  0
 13 12  2  0
 14 10  1  0
 14 15  2  0
 16 12  1  0
 18 17  1  6
 18 20  1  0
 19 18  1  0
 20 21  1  1
 20 22  1  0
 21 14  1  0
 22 24  1  0
 23 22  2  0
M  END
$$$$
