MDT.pdb
     RDKit          3D

 24 23  0  0  1  0  0  0  0  0999 V2000
   24.5441  -14.9732  -15.1007 C   0  0  0  0  0  0  0  0  0  0  0  0
   22.9724  -15.8624  -14.9288 S   0  0  0  0  0  0  0  0  0  0  0  0
   21.9724  -15.7166  -16.4353 C   0  0  0  0  0  0  0  0  0  0  0  0
   21.9596  -14.2697  -16.9248 C   0  0  0  0  0  0  0  0  0  0  0  0
   20.7456  -13.6122  -16.3591 C   0  0  2  0  0  0  0  0  0  0  0  0
   19.5735  -14.3313  -16.7803 N   0  0  0  0  0  0  0  0  0  0  0  0
   20.6615  -12.1659  -16.6266 C   0  0  0  0  0  0  0  0  0  0  0  0
   20.4968  -11.7790  -17.8236 O   0  0  0  0  0  0  0  0  0  0  0  0
   20.7491  -11.1578  -15.6538 N   0  0  0  0  0  0  0  0  0  0  0  0
   20.6305   -9.7215  -15.9244 C   0  0  1  0  0  0  0  0  0  0  0  0
   20.0097   -9.1677  -14.6548 C   0  0  0  0  0  0  0  0  0  0  0  0
   19.7728   -7.7209  -14.6841 C   0  0  0  0  0  0  0  0  0  0  0  0
   19.5885   -7.1225  -13.5889 O   0  0  0  0  0  0  0  0  0  0  0  0
   21.9571   -9.1310  -16.1663 C   0  0  0  0  0  0  0  0  0  0  0  0
   22.8381   -9.2947  -15.2800 O   0  0  0  0  0  0  0  0  0  0  0  0
   19.7532   -7.0356  -15.8698 O   0  0  0  0  0  0  0  0  0  0  0  0
   24.6309   -9.7255  -18.8981 C   0  0  0  0  0  0  0  0  0  0  0  0
   24.3088   -8.2544  -18.7572 C   0  0  1  0  0  0  0  0  0  0  0  0
   23.3485   -7.9543  -19.7325 O   0  0  0  0  0  0  0  0  0  0  0  0
   23.6864   -7.9326  -17.4235 C   0  0  2  0  0  0  0  0  0  0  0  0
   22.3249   -8.3976  -17.3131 N   0  0  0  0  0  0  0  0  0  0  0  0
   23.6855   -6.4570  -17.2964 C   0  0  0  0  0  0  0  0  0  0  0  0
   22.6251   -5.8076  -17.2415 O   0  0  0  0  0  0  0  0  0  0  0  0
   24.8883   -5.7445  -17.2337 O   0  0  0  0  0  0  0  0  0  0  0  0
  1  2  1  0
  2  3  1  0
  4  5  1  0
  4  3  1  0
  5  7  1  0
  5  6  1  6
  7  8  2  0
  9  7  1  0
  9 10  1  0
 10 11  1  1
 12 11  1  0
 13 12  2  0
 14 10  1  0
 14 15  2  0
 16 12  1  0
 18 17  1  1
 18 20  1  0
 19 18  1  0
 20 21  1  6
 20 22  1  0
 21 14  1  0
 22 24  1  0
 23 22  2  0
M  END
$$$$
