MDT.pdb
     RDKit          3D

 24 23  0  0  1  0  0  0  0  0999 V2000
   25.9142  -15.2651  -14.7173 C   0  0  0  0  0  0  0  0  0  0  0  0
   25.1409  -16.8913  -14.9364 S   0  0  0  0  0  0  0  0  0  0  0  0
   23.5720  -16.7515  -15.8362 C   0  0  0  0  0  0  0  0  0  0  0  0
   23.2128  -15.2823  -16.0499 C   0  0  0  0  0  0  0  0  0  0  0  0
   21.9843  -15.2361  -16.8955 C   0  0  2  0  0  0  0  0  0  0  0  0
   22.2357  -15.9124  -18.1395 N   0  0  0  0  0  0  0  0  0  0  0  0
   21.4260  -13.8848  -17.0768 C   0  0  0  0  0  0  0  0  0  0  0  0
   21.9075  -13.1471  -17.9898 O   0  0  0  0  0  0  0  0  0  0  0  0
   20.3870  -13.3306  -16.3129 N   0  0  0  0  0  0  0  0  0  0  0  0
   19.7863  -12.0138  -16.5481 C   0  0  1  0  0  0  0  0  0  0  0  0
   18.3051  -12.2486  -16.3136 C   0  0  0  0  0  0  0  0  0  0  0  0
   17.6688  -13.1127  -17.3128 C   0  0  0  0  0  0  0  0  0  0  0  0
   17.9646  -12.9416  -18.5272 O   0  0  0  0  0  0  0  0  0  0  0  0
   20.3225  -11.0253  -15.5981 C   0  0  0  0  0  0  0  0  0  0  0  0
   20.1638  -11.2529  -14.3687 O   0  0  0  0  0  0  0  0  0  0  0  0
   16.7768  -14.0821  -16.9382 O   0  0  0  0  0  0  0  0  0  0  0  0
   23.7813  -10.1268  -14.6711 C   0  0  0  0  0  0  0  0  0  0  0  0
   23.0382   -8.8497  -14.9943 C   0  0  1  0  0  0  0  0  0  0  0  0
   23.3224   -8.5424  -16.3315 O   0  0  0  0  0  0  0  0  0  0  0  0
   21.5444   -9.0195  -14.8973 C   0  0  2  0  0  0  0  0  0  0  0  0
   21.0038   -9.8425  -15.9521 N   0  0  0  0  0  0  0  0  0  0  0  0
   20.9514   -7.6672  -15.0125 C   0  0  0  0  0  0  0  0  0  0  0  0
   20.2142   -7.3573  -15.9662 O   0  0  0  0  0  0  0  0  0  0  0  0
   21.2056   -6.6907  -14.0430 O   0  0  0  0  0  0  0  0  0  0  0  0
  1  2  1  0
  2  3  1  0
  4  5  1  0
  4  3  1  0
  5  7  1  0
  5  6  1  6
  7  8  2  0
  9  7  1  0
  9 10  1  0
 10 11  1  1
 12 11  1  0
 13 12  2  0
 14 10  1  0
 14 15  2  0
 16 12  1  0
 18 17  1  6
 18 20  1  0
 19 18  1  0
 20 21  1  6
 20 22  1  0
 21 14  1  0
 22 24  1  0
 23 22  2  0
M  END
$$$$
