CCI.pdb
     RDKit          3D

 21 20  0  0  1  0  0  0  0  0999 V2000
    7.4028  -16.3464   18.6824 N   0  0  0  0  0  0  0  0  0  0  0  0
    8.1041  -15.3978   19.5368 C   0  0  1  0  0  0  0  0  0  0  0  0
    7.5693  -14.0105   19.2572 C   0  0  0  0  0  0  0  0  0  0  0  0
    8.4156  -12.8024   20.3058 S   0  0  0  0  0  0  0  0  0  0  0  0
    7.7127  -15.7308   20.9471 C   0  0  0  0  0  0  0  0  0  0  0  0
    6.7574  -16.4947   21.2235 O   0  0  0  0  0  0  0  0  0  0  0  0
    8.4328  -15.1750   22.0315 N   0  0  0  0  0  0  0  0  0  0  0  0
    8.2896  -15.6578   23.3677 C   0  0  1  0  0  0  0  0  0  0  0  0
    8.6883  -17.1319   23.4654 C   0  0  0  0  0  0  0  0  0  0  0  0
   10.4593  -17.2329   23.1735 S   0  0  0  0  0  0  0  0  0  0  0  0
    9.1116  -14.9288   24.3582 C   0  0  0  0  0  0  0  0  0  0  0  0
    9.6637  -13.8345   24.0749 O   0  0  0  0  0  0  0  0  0  0  0  0
    6.3446  -12.4208   26.5107 C   0  0  0  0  0  0  0  0  0  0  0  0
    7.7266  -12.9307   26.0653 C   0  0  0  0  0  0  0  0  0  0  0  0
    8.2316  -13.8409   27.1473 C   0  0  2  0  0  0  0  0  0  0  0  0
    8.2539  -13.0743   28.4405 C   0  0  0  0  0  0  0  0  0  0  0  0
    9.5702  -14.4771   26.7992 C   0  0  2  0  0  0  0  0  0  0  0  0
    9.3377  -15.4043   25.6964 N   0  0  0  0  0  0  0  0  0  0  0  0
   10.0681  -15.1737   28.0017 C   0  0  0  0  0  0  0  0  0  0  0  0
   10.6938  -14.6664   28.9406 O   0  0  0  0  0  0  0  0  0  0  0  0
    9.8089  -16.5564   28.0989 O   0  0  0  0  0  0  0  0  0  0  0  0
  2  3  1  0
  2  1  1  6
  4  3  1  0
  5  2  1  0
  5  6  2  0
  7  5  1  0
  8  7  1  0
  8 11  1  0
  8  9  1  6
 10  9  1  0
 11 12  2  0
 13 14  1  0
 14 15  1  0
 15 16  1  1
 17 15  1  0
 18 11  1  0
 17 18  1  6
 19 17  1  0
 20 19  2  0
 21 19  1  0
M  END
$$$$
