CCI.pdb
     RDKit          3D

 21 20  0  0  1  0  0  0  0  0999 V2000
    6.8824  -17.5806   18.9795 N   0  0  0  0  0  0  0  0  0  0  0  0
    8.0038  -17.2609   19.8525 C   0  0  1  0  0  0  0  0  0  0  0  0
    8.6207  -15.9600   19.3878 C   0  0  0  0  0  0  0  0  0  0  0  0
    9.9862  -15.5014   20.4834 S   0  0  0  0  0  0  0  0  0  0  0  0
    7.4198  -16.9966   21.2098 C   0  0  0  0  0  0  0  0  0  0  0  0
    6.3223  -16.4125   21.3740 O   0  0  0  0  0  0  0  0  0  0  0  0
    8.1134  -17.4117   22.3716 N   0  0  0  0  0  0  0  0  0  0  0  0
    7.5593  -17.2704   23.6801 C   0  0  1  0  0  0  0  0  0  0  0  0
    7.2990  -18.6370   24.3174 C   0  0  0  0  0  0  0  0  0  0  0  0
    6.6915  -18.3485   25.9846 S   0  0  0  0  0  0  0  0  0  0  0  0
    8.4243  -16.5221   24.6182 C   0  0  0  0  0  0  0  0  0  0  0  0
    9.6562  -16.7607   24.7077 O   0  0  0  0  0  0  0  0  0  0  0  0
    6.2058  -12.0470   27.0099 C   0  0  0  0  0  0  0  0  0  0  0  0
    7.1818  -12.8756   26.1559 C   0  0  0  0  0  0  0  0  0  0  0  0
    7.9989  -13.7080   27.1011 C   0  0  2  0  0  0  0  0  0  0  0  0
    8.8197  -12.7851   27.9585 C   0  0  0  0  0  0  0  0  0  0  0  0
    8.8291  -14.7634   26.3835 C   0  0  2  0  0  0  0  0  0  0  0  0
    7.9339  -15.4828   25.4827 N   0  0  0  0  0  0  0  0  0  0  0  0
    9.4086  -15.6573   27.4052 C   0  0  0  0  0  0  0  0  0  0  0  0
    8.8485  -16.6192   27.9453 O   0  0  0  0  0  0  0  0  0  0  0  0
   10.7332  -15.3968   27.8127 O   0  0  0  0  0  0  0  0  0  0  0  0
  2  3  1  0
  2  1  1  6
  4  3  1  0
  5  2  1  0
  5  6  2  0
  7  5  1  0
  8  7  1  0
  8 11  1  0
  8  9  1  1
 10  9  1  0
 11 12  2  0
 13 14  1  0
 14 15  1  0
 15 16  1  6
 17 15  1  0
 18 11  1  0
 17 18  1  6
 19 17  1  0
 20 19  2  0
 21 19  1  0
M  END
$$$$
