CCI.pdb
     RDKit          3D

 21 20  0  0  1  0  0  0  0  0999 V2000
    7.2898  -15.5938   18.8166 N   0  0  0  0  0  0  0  0  0  0  0  0
    7.9733  -14.7638   19.7993 C   0  0  1  0  0  0  0  0  0  0  0  0
    7.3736  -13.3754   19.7582 C   0  0  0  0  0  0  0  0  0  0  0  0
    8.5459  -12.2215   19.0037 S   0  0  0  0  0  0  0  0  0  0  0  0
    7.6338  -15.3366   21.1446 C   0  0  0  0  0  0  0  0  0  0  0  0
    6.4531  -15.4910   21.5377 O   0  0  0  0  0  0  0  0  0  0  0  0
    8.6677  -15.7280   22.0284 N   0  0  0  0  0  0  0  0  0  0  0  0
    8.3988  -16.3149   23.3021 C   0  0  1  0  0  0  0  0  0  0  0  0
    8.8127  -17.7878   23.3272 C   0  0  0  0  0  0  0  0  0  0  0  0
    7.7786  -18.6597   22.1430 S   0  0  0  0  0  0  0  0  0  0  0  0
    9.1025  -15.6566   24.4244 C   0  0  0  0  0  0  0  0  0  0  0  0
   10.3255  -15.3703   24.3548 O   0  0  0  0  0  0  0  0  0  0  0  0
    6.4870  -12.1264   27.4261 C   0  0  0  0  0  0  0  0  0  0  0  0
    7.6622  -12.7447   26.6484 C   0  0  0  0  0  0  0  0  0  0  0  0
    8.2667  -13.8011   27.5274 C   0  0  2  0  0  0  0  0  0  0  0  0
    8.9135  -13.1261   28.7049 C   0  0  0  0  0  0  0  0  0  0  0  0
    9.2092  -14.7250   26.7683 C   0  0  2  0  0  0  0  0  0  0  0  0
    8.4556  -15.2985   25.6578 N   0  0  0  0  0  0  0  0  0  0  0  0
    9.6770  -15.7656   27.7050 C   0  0  0  0  0  0  0  0  0  0  0  0
   10.6232  -15.6724   28.4966 O   0  0  0  0  0  0  0  0  0  0  0  0
    8.9814  -16.9922   27.7051 O   0  0  0  0  0  0  0  0  0  0  0  0
  2  3  1  0
  2  1  1  6
  4  3  1  0
  5  2  1  0
  5  6  2  0
  7  5  1  0
  8  7  1  0
  8 11  1  0
  8  9  1  6
 10  9  1  0
 11 12  2  0
 13 14  1  0
 14 15  1  0
 15 16  1  1
 17 15  1  0
 18 11  1  0
 17 18  1  6
 19 17  1  0
 20 19  2  0
 21 19  1  0
M  END
$$$$
