CCI.pdb
     RDKit          3D

 21 20  0  0  1  0  0  0  0  0999 V2000
    1.8463  -27.9910   26.9749 N   0  0  0  0  0  0  0  0  0  0  0  0
    0.8527  -27.9602   28.0397 C   0  0  1  0  0  0  0  0  0  0  0  0
    1.3983  -27.1346   29.1841 C   0  0  0  0  0  0  0  0  0  0  0  0
    2.7778  -28.0055   29.9675 S   0  0  0  0  0  0  0  0  0  0  0  0
   -0.3268  -27.2088   27.4946 C   0  0  0  0  0  0  0  0  0  0  0  0
   -0.2122  -26.2768   26.6634 O   0  0  0  0  0  0  0  0  0  0  0  0
   -1.6356  -27.5430   27.9172 N   0  0  0  0  0  0  0  0  0  0  0  0
   -2.7968  -26.9321   27.3538 C   0  0  1  0  0  0  0  0  0  0  0  0
   -3.9123  -27.9586   27.1460 C   0  0  0  0  0  0  0  0  0  0  0  0
   -5.3019  -27.1014   26.3937 S   0  0  0  0  0  0  0  0  0  0  0  0
   -3.3656  -25.8489   28.1853 C   0  0  0  0  0  0  0  0  0  0  0  0
   -3.5289  -25.9896   29.4247 O   0  0  0  0  0  0  0  0  0  0  0  0
   -3.3922  -19.8575   28.5673 C   0  0  0  0  0  0  0  0  0  0  0  0
   -4.2940  -21.0628   28.8873 C   0  0  0  0  0  0  0  0  0  0  0  0
   -3.8294  -22.2028   28.0280 C   0  0  2  0  0  0  0  0  0  0  0  0
   -4.1864  -21.8971   26.5998 C   0  0  0  0  0  0  0  0  0  0  0  0
   -4.3553  -23.5489   28.5069 C   0  0  2  0  0  0  0  0  0  0  0  0
   -3.7670  -24.5751   27.6520 N   0  0  0  0  0  0  0  0  0  0  0  0
   -5.8272  -23.5261   28.3979 C   0  0  0  0  0  0  0  0  0  0  0  0
   -6.5075  -24.0428   27.5030 O   0  0  0  0  0  0  0  0  0  0  0  0
   -6.5379  -22.8501   29.4110 O   0  0  0  0  0  0  0  0  0  0  0  0
  2  3  1  0
  2  1  1  6
  4  3  1  0
  5  2  1  0
  5  6  2  0
  7  5  1  0
  8  7  1  0
  8 11  1  0
  8  9  1  1
 10  9  1  0
 11 12  2  0
 13 14  1  0
 14 15  1  0
 15 16  1  6
 17 15  1  0
 18 11  1  0
 17 18  1  6
 19 17  1  0
 20 19  2  0
 21 19  1  0
M  END
$$$$
