CCI.pdb
     RDKit          3D

 21 20  0  0  1  0  0  0  0  0999 V2000
    8.0042  -16.8916   18.4220 N   0  0  0  0  0  0  0  0  0  0  0  0
    8.8517  -17.1697   19.5737 C   0  0  1  0  0  0  0  0  0  0  0  0
   10.0992  -16.3201   19.4704 C   0  0  0  0  0  0  0  0  0  0  0  0
   11.1988  -16.6706   20.8644 S   0  0  0  0  0  0  0  0  0  0  0  0
    8.1004  -16.6818   20.7781 C   0  0  0  0  0  0  0  0  0  0  0  0
    7.5048  -15.5785   20.8050 O   0  0  0  0  0  0  0  0  0  0  0  0
    8.0438  -17.4776   21.9471 N   0  0  0  0  0  0  0  0  0  0  0  0
    7.3116  -17.0772   23.1058 C   0  0  1  0  0  0  0  0  0  0  0  0
    6.8131  -18.2937   23.8889 C   0  0  0  0  0  0  0  0  0  0  0  0
    5.4156  -18.9793   22.9895 S   0  0  0  0  0  0  0  0  0  0  0  0
    8.0946  -16.2540   24.0531 C   0  0  0  0  0  0  0  0  0  0  0  0
    9.3412  -16.3845   24.1611 O   0  0  0  0  0  0  0  0  0  0  0  0
    5.4785  -12.0021   26.4689 C   0  0  0  0  0  0  0  0  0  0  0  0
    6.5396  -12.7337   25.6280 C   0  0  0  0  0  0  0  0  0  0  0  0
    7.3793  -13.5375   26.5782 C   0  0  2  0  0  0  0  0  0  0  0  0
    8.0981  -12.5882   27.4962 C   0  0  0  0  0  0  0  0  0  0  0  0
    8.3104  -14.5054   25.8612 C   0  0  2  0  0  0  0  0  0  0  0  0
    7.5035  -15.2588   24.9065 N   0  0  0  0  0  0  0  0  0  0  0  0
    8.9184  -15.3872   26.8770 C   0  0  0  0  0  0  0  0  0  0  0  0
    8.4587  -16.4578   27.2930 O   0  0  0  0  0  0  0  0  0  0  0  0
   10.1467  -14.9764   27.4346 O   0  0  0  0  0  0  0  0  0  0  0  0
  2  3  1  0
  2  1  1  6
  4  3  1  0
  5  2  1  0
  5  6  2  0
  7  5  1  0
  8  7  1  0
  8 11  1  0
  8  9  1  1
 10  9  1  0
 11 12  2  0
 13 14  1  0
 14 15  1  0
 15 16  1  6
 17 15  1  0
 18 11  1  0
 17 18  1  6
 19 17  1  0
 20 19  2  0
 21 19  1  0
M  END
$$$$
