CCI.pdb
     RDKit          3D

 21 20  0  0  1  0  0  0  0  0999 V2000
    7.7687  -15.2840   17.9596 N   0  0  0  0  0  0  0  0  0  0  0  0
    8.4144  -14.5969   19.0699 C   0  0  1  0  0  0  0  0  0  0  0  0
    7.8170  -13.2124   19.1929 C   0  0  0  0  0  0  0  0  0  0  0  0
    8.6770  -12.0709   18.0827 S   0  0  0  0  0  0  0  0  0  0  0  0
    8.0240  -15.3431   20.3124 C   0  0  0  0  0  0  0  0  0  0  0  0
    6.8668  -15.7881   20.5009 O   0  0  0  0  0  0  0  0  0  0  0  0
    8.9796  -15.5695   21.3316 N   0  0  0  0  0  0  0  0  0  0  0  0
    8.6561  -16.2612   22.5383 C   0  0  1  0  0  0  0  0  0  0  0  0
    9.3340  -17.6322   22.5849 C   0  0  0  0  0  0  0  0  0  0  0  0
    8.9224  -18.3849   24.1647 S   0  0  0  0  0  0  0  0  0  0  0  0
    9.0634  -15.5439   23.7663 C   0  0  0  0  0  0  0  0  0  0  0  0
   10.2580  -15.2003   23.9600 O   0  0  0  0  0  0  0  0  0  0  0  0
    5.6399  -12.0510   26.0121 C   0  0  0  0  0  0  0  0  0  0  0  0
    6.8941  -12.7317   25.4358 C   0  0  0  0  0  0  0  0  0  0  0  0
    7.4364  -13.6362   26.5044 C   0  0  2  0  0  0  0  0  0  0  0  0
    7.7805  -12.7994   27.7052 C   0  0  0  0  0  0  0  0  0  0  0  0
    8.5951  -14.4930   26.0133 C   0  0  2  0  0  0  0  0  0  0  0  0
    8.1432  -15.1893   24.8129 N   0  0  0  0  0  0  0  0  0  0  0  0
    8.9499  -15.4375   27.0908 C   0  0  0  0  0  0  0  0  0  0  0  0
    9.5744  -15.1735   28.1256 O   0  0  0  0  0  0  0  0  0  0  0  0
    8.5397  -16.7775   26.9338 O   0  0  0  0  0  0  0  0  0  0  0  0
  2  3  1  0
  2  1  1  6
  4  3  1  0
  5  2  1  0
  5  6  2  0
  7  5  1  0
  8  7  1  0
  8 11  1  0
  8  9  1  6
 10  9  1  0
 11 12  2  0
 13 14  1  0
 14 15  1  0
 15 16  1  1
 17 15  1  0
 18 11  1  0
 17 18  1  6
 19 17  1  0
 20 19  2  0
 21 19  1  0
M  END
$$$$
