GVF.pdb
     RDKit          3D

 23 23  0  0  1  0  0  0  0  0999 V2000
   27.3537  -22.1857  -16.7674 N   0  0  0  0  0  0  0  0  0  0  0  0
   26.7808  -22.7279  -15.5605 C   0  0  0  0  0  0  0  0  0  0  0  0
   26.7181  -21.6943  -14.4778 C   0  0  0  0  0  0  0  0  0  0  0  0
   27.4461  -20.6778  -14.5366 O   0  0  0  0  0  0  0  0  0  0  0  0
   23.7609  -19.7538  -13.6883 C   0  0  0  0  0  0  0  0  0  0  0  0
   24.1523  -20.3579  -12.3783 C   0  0  1  0  0  0  0  0  0  0  0  0
   23.2519  -21.4463  -11.9005 C   0  0  0  0  0  0  0  0  0  0  0  0
   25.6212  -20.7982  -12.3810 C   0  0  2  0  0  0  0  0  0  0  0  0
   25.8447  -21.8303  -13.3658 N   0  0  0  0  0  0  0  0  0  0  0  0
   26.0625  -21.2046  -11.0240 C   0  0  0  0  0  0  0  0  0  0  0  0
   25.9844  -22.4295  -10.7467 O   0  0  0  0  0  0  0  0  0  0  0  0
   26.5537  -20.3279  -10.0440 N   0  0  0  0  0  0  0  0  0  0  0  0
   26.9225  -20.7058   -8.6962 C   0  0  1  0  0  0  0  0  0  0  0  0
   28.2433  -20.1100   -8.2757 C   0  0  0  0  0  0  0  0  0  0  0  0
   28.3444  -19.8998   -6.8150 C   0  0  0  0  0  0  0  0  0  0  0  0
   27.7466  -18.8617   -6.1376 C   0  0  0  0  0  0  0  0  0  0  0  0
   27.8615  -18.6926   -4.7729 C   0  0  0  0  0  0  0  0  0  0  0  0
   28.6011  -19.5888   -4.0378 C   0  0  0  0  0  0  0  0  0  0  0  0
   29.2135  -20.6401   -4.6823 C   0  0  0  0  0  0  0  0  0  0  0  0
   29.0833  -20.7924   -6.0689 C   0  0  0  0  0  0  0  0  0  0  0  0
   25.8988  -20.2714   -7.7294 C   0  0  0  0  0  0  0  0  0  0  0  0
   25.6861  -20.9710   -6.5275 O   0  0  0  0  0  0  0  0  0  0  0  0
   25.1754  -19.2763   -7.9183 O   0  0  0  0  0  0  0  0  0  0  0  0
  1  2  1  0
  3  4  2  0
  3  2  1  0
  6  5  1  6
  6  8  1  0
  7  6  1  0
  8 10  1  0
  8  9  1  6
  9  3  1  0
 10 12  1  0
 11 10  2  0
 12 13  1  0
 13 21  1  0
 13 14  1  1
 14 15  1  0
 15 16  2  0
 16 17  1  0
 18 17  2  0
 19 18  1  0
 20 19  2  0
 20 15  1  0
 21 23  2  0
 21 22  1  0
M  END
$$$$
