GVF.pdb
     RDKit          3D

 23 23  0  0  1  0  0  0  0  0999 V2000
   15.7467  -13.5436  -14.9308 N   0  0  0  0  0  0  0  0  0  0  0  0
   15.6508  -12.1191  -14.7291 C   0  0  0  0  0  0  0  0  0  0  0  0
   16.7232  -11.3915  -15.4807 C   0  0  0  0  0  0  0  0  0  0  0  0
   17.8637  -11.8946  -15.5932 O   0  0  0  0  0  0  0  0  0  0  0  0
   17.8428   -7.5907  -18.4915 C   0  0  0  0  0  0  0  0  0  0  0  0
   16.9691   -8.7090  -18.0221 C   0  0  1  0  0  0  0  0  0  0  0  0
   16.6757   -9.7451  -19.0535 C   0  0  0  0  0  0  0  0  0  0  0  0
   17.5053   -9.3336  -16.7282 C   0  0  2  0  0  0  0  0  0  0  0  0
   16.4863  -10.1262  -16.0815 N   0  0  0  0  0  0  0  0  0  0  0  0
   18.0752   -8.3001  -15.8290 C   0  0  0  0  0  0  0  0  0  0  0  0
   17.2642   -7.4844  -15.3188 O   0  0  0  0  0  0  0  0  0  0  0  0
   19.4372   -8.1732  -15.5142 N   0  0  0  0  0  0  0  0  0  0  0  0
   20.0048   -7.1478  -14.6646 C   0  0  1  0  0  0  0  0  0  0  0  0
   20.9937   -7.7089  -13.6729 C   0  0  0  0  0  0  0  0  0  0  0  0
   21.8685   -8.7504  -14.2541 C   0  0  0  0  0  0  0  0  0  0  0  0
   22.9136   -8.4950  -15.1123 C   0  0  0  0  0  0  0  0  0  0  0  0
   23.7111   -9.4903  -15.6390 C   0  0  0  0  0  0  0  0  0  0  0  0
   23.4689  -10.8021  -15.3053 C   0  0  0  0  0  0  0  0  0  0  0  0
   22.4313  -11.0949  -14.4490 C   0  0  0  0  0  0  0  0  0  0  0  0
   21.6343  -10.0683  -13.9260 C   0  0  0  0  0  0  0  0  0  0  0  0
   20.6962   -6.1233  -15.4668 C   0  0  0  0  0  0  0  0  0  0  0  0
   21.1289   -4.9147  -14.8913 O   0  0  0  0  0  0  0  0  0  0  0  0
   20.9330   -6.2667  -16.6803 O   0  0  0  0  0  0  0  0  0  0  0  0
  1  2  1  0
  3  4  2  0
  3  2  1  0
  6  5  1  6
  6  8  1  0
  7  6  1  0
  8 10  1  0
  8  9  1  1
  9  3  1  0
 10 12  1  0
 11 10  2  0
 12 13  1  0
 13 21  1  0
 13 14  1  1
 14 15  1  0
 15 16  2  0
 16 17  1  0
 18 17  2  0
 19 18  1  0
 20 19  2  0
 20 15  1  0
 21 23  2  0
 21 22  1  0
M  END
$$$$
