GVF.pdb
     RDKit          3D

 23 23  0  0  1  0  0  0  0  0999 V2000
   21.3011  -14.3428  -17.8705 N   0  0  0  0  0  0  0  0  0  0  0  0
   20.0893  -13.6605  -17.4897 C   0  0  0  0  0  0  0  0  0  0  0  0
   20.1452  -12.2094  -17.8577 C   0  0  0  0  0  0  0  0  0  0  0  0
   21.1963  -11.7210  -18.3302 O   0  0  0  0  0  0  0  0  0  0  0  0
   17.0433  -10.9161  -19.3040 C   0  0  0  0  0  0  0  0  0  0  0  0
   17.7913   -9.6664  -18.9676 C   0  0  1  0  0  0  0  0  0  0  0  0
   16.9508   -8.5687  -18.4091 C   0  0  0  0  0  0  0  0  0  0  0  0
   19.0032   -9.9619  -18.0755 C   0  0  2  0  0  0  0  0  0  0  0  0
   19.0256  -11.3521  -17.6859 N   0  0  0  0  0  0  0  0  0  0  0  0
   19.0475   -9.0458  -16.9092 C   0  0  0  0  0  0  0  0  0  0  0  0
   18.3651   -9.3753  -15.9046 O   0  0  0  0  0  0  0  0  0  0  0  0
   19.7879   -7.8548  -16.8522 N   0  0  0  0  0  0  0  0  0  0  0  0
   19.9099   -7.0034  -15.6878 C   0  0  1  0  0  0  0  0  0  0  0  0
   21.3454   -6.8177  -15.2624 C   0  0  0  0  0  0  0  0  0  0  0  0
   21.9544   -8.0542  -14.7255 C   0  0  0  0  0  0  0  0  0  0  0  0
   21.5914   -8.6445  -13.5366 C   0  0  0  0  0  0  0  0  0  0  0  0
   22.1808   -9.7985  -13.0622 C   0  0  0  0  0  0  0  0  0  0  0  0
   23.1766  -10.4022  -13.7934 C   0  0  0  0  0  0  0  0  0  0  0  0
   23.5656   -9.8394  -14.9882 C   0  0  0  0  0  0  0  0  0  0  0  0
   22.9534   -8.6671  -15.4506 C   0  0  0  0  0  0  0  0  0  0  0  0
   19.3363   -5.6712  -15.9479 C   0  0  0  0  0  0  0  0  0  0  0  0
   19.1626   -4.7361  -14.9113 O   0  0  0  0  0  0  0  0  0  0  0  0
   18.9785   -5.3033  -17.0819 O   0  0  0  0  0  0  0  0  0  0  0  0
  1  2  1  0
  3  4  2  0
  3  2  1  0
  6  5  1  1
  6  8  1  0
  7  6  1  0
  8 10  1  0
  8  9  1  1
  9  3  1  0
 10 12  1  0
 11 10  2  0
 12 13  1  0
 13 21  1  0
 13 14  1  6
 14 15  1  0
 15 16  2  0
 16 17  1  0
 18 17  2  0
 19 18  1  0
 20 19  2  0
 20 15  1  0
 21 23  2  0
 21 22  1  0
M  END
$$$$
