GVF.pdb
     RDKit          3D

 23 23  0  0  1  0  0  0  0  0999 V2000
   24.8348  -17.0082  -14.4264 N   0  0  0  0  0  0  0  0  0  0  0  0
   26.1441  -17.3670  -13.9406 C   0  0  0  0  0  0  0  0  0  0  0  0
   26.1909  -18.8034  -13.5177 C   0  0  0  0  0  0  0  0  0  0  0  0
   25.4421  -19.6442  -14.0643 O   0  0  0  0  0  0  0  0  0  0  0  0
   28.6783  -21.0461  -14.1315 C   0  0  0  0  0  0  0  0  0  0  0  0
   28.5741  -21.1845  -12.6468 C   0  0  1  0  0  0  0  0  0  0  0  0
   29.7310  -20.6298  -11.8869 C   0  0  0  0  0  0  0  0  0  0  0  0
   27.2395  -20.6379  -12.1255 C   0  0  2  0  0  0  0  0  0  0  0  0
   27.0725  -19.2531  -12.4985 N   0  0  0  0  0  0  0  0  0  0  0  0
   27.1063  -20.8511  -10.6632 C   0  0  0  0  0  0  0  0  0  0  0  0
   28.1696  -20.8385   -9.9904 O   0  0  0  0  0  0  0  0  0  0  0  0
   25.8927  -21.0625   -9.9905 N   0  0  0  0  0  0  0  0  0  0  0  0
   25.7035  -20.9594   -8.5591 C   0  0  1  0  0  0  0  0  0  0  0  0
   26.1756  -19.6344   -8.0133 C   0  0  0  0  0  0  0  0  0  0  0  0
   27.1109  -19.7771   -6.8763 C   0  0  0  0  0  0  0  0  0  0  0  0
   27.7922  -18.7314   -6.2966 C   0  0  0  0  0  0  0  0  0  0  0  0
   28.6599  -18.8981   -5.2367 C   0  0  0  0  0  0  0  0  0  0  0  0
   28.8680  -20.1557   -4.7211 C   0  0  0  0  0  0  0  0  0  0  0  0
   28.2030  -21.2258   -5.2762 C   0  0  0  0  0  0  0  0  0  0  0  0
   27.3265  -21.0333   -6.3521 C   0  0  0  0  0  0  0  0  0  0  0  0
   24.2823  -21.1178   -8.2036 C   0  0  0  0  0  0  0  0  0  0  0  0
   23.2664  -20.9426   -9.1608 O   0  0  0  0  0  0  0  0  0  0  0  0
   23.9058  -21.4110   -7.0540 O   0  0  0  0  0  0  0  0  0  0  0  0
  1  2  1  0
  3  4  2  0
  3  2  1  0
  6  5  1  6
  6  8  1  0
  7  6  1  0
  8 10  1  0
  8  9  1  1
  9  3  1  0
 10 12  1  0
 11 10  2  0
 12 13  1  0
 13 21  1  0
 13 14  1  6
 14 15  1  0
 15 16  2  0
 16 17  1  0
 18 17  2  0
 19 18  1  0
 20 19  2  0
 20 15  1  0
 21 23  2  0
 21 22  1  0
M  END
$$$$
