GVF.pdb
     RDKit          3D

 23 23  0  0  1  0  0  0  0  0999 V2000
   15.8977  -15.0107  -15.2660 N   0  0  0  0  0  0  0  0  0  0  0  0
   16.1969  -13.7091  -14.7227 C   0  0  0  0  0  0  0  0  0  0  0  0
   17.1507  -12.9602  -15.6024 C   0  0  0  0  0  0  0  0  0  0  0  0
   17.5886  -13.4897  -16.6485 O   0  0  0  0  0  0  0  0  0  0  0  0
   16.3637   -9.8012  -17.3271 C   0  0  0  0  0  0  0  0  0  0  0  0
   17.5789   -9.5188  -16.5037 C   0  0  1  0  0  0  0  0  0  0  0  0
   17.3268   -8.7035  -15.2808 C   0  0  0  0  0  0  0  0  0  0  0  0
   18.3465  -10.8058  -16.1782 C   0  0  2  0  0  0  0  0  0  0  0  0
   17.5836  -11.6451  -15.2845 N   0  0  0  0  0  0  0  0  0  0  0  0
   19.7017  -10.5049  -15.6544 C   0  0  0  0  0  0  0  0  0  0  0  0
   19.8030  -10.3339  -14.4118 O   0  0  0  0  0  0  0  0  0  0  0  0
   20.8603  -10.3999  -16.4397 N   0  0  0  0  0  0  0  0  0  0  0  0
   22.1880  -10.1216  -15.9344 C   0  0  1  0  0  0  0  0  0  0  0  0
   23.2693  -10.6273  -16.8570 C   0  0  0  0  0  0  0  0  0  0  0  0
   24.6332  -10.3747  -16.3432 C   0  0  0  0  0  0  0  0  0  0  0  0
   25.4090   -9.2957  -16.7003 C   0  0  0  0  0  0  0  0  0  0  0  0
   26.6797   -9.0892  -16.2036 C   0  0  0  0  0  0  0  0  0  0  0  0
   27.2141   -9.9886  -15.3112 C   0  0  0  0  0  0  0  0  0  0  0  0
   26.4663  -11.0803  -14.9312 C   0  0  0  0  0  0  0  0  0  0  0  0
   25.1781  -11.2701  -15.4484 C   0  0  0  0  0  0  0  0  0  0  0  0
   22.3876   -8.6733  -15.7499 C   0  0  0  0  0  0  0  0  0  0  0  0
   22.9346   -8.1574  -14.5609 O   0  0  0  0  0  0  0  0  0  0  0  0
   22.0883   -7.8372  -16.6221 O   0  0  0  0  0  0  0  0  0  0  0  0
  1  2  1  0
  3  4  2  0
  3  2  1  0
  6  5  1  1
  6  8  1  0
  7  6  1  0
  8 10  1  0
  8  9  1  1
  9  3  1  0
 10 12  1  0
 11 10  2  0
 12 13  1  0
 13 21  1  0
 13 14  1  6
 14 15  1  0
 15 16  2  0
 16 17  1  0
 18 17  2  0
 19 18  1  0
 20 19  2  0
 20 15  1  0
 21 23  2  0
 21 22  1  0
M  END
$$$$
