GVF.pdb
     RDKit          3D

 23 23  0  0  1  0  0  0  0  0999 V2000
   15.1049  -13.3113  -14.2442 N   0  0  0  0  0  0  0  0  0  0  0  0
   15.3723  -11.9668  -14.6911 C   0  0  0  0  0  0  0  0  0  0  0  0
   16.8389  -11.6637  -14.6521 C   0  0  0  0  0  0  0  0  0  0  0  0
   17.5463  -12.1008  -13.7166 O   0  0  0  0  0  0  0  0  0  0  0  0
   19.5931  -12.6531  -16.8060 C   0  0  0  0  0  0  0  0  0  0  0  0
   19.5722  -11.1604  -16.8828 C   0  0  1  0  0  0  0  0  0  0  0  0
   19.0377  -10.6100  -18.1614 C   0  0  0  0  0  0  0  0  0  0  0  0
   18.8710  -10.5466  -15.6648 C   0  0  2  0  0  0  0  0  0  0  0  0
   17.4668  -10.8827  -15.6590 N   0  0  0  0  0  0  0  0  0  0  0  0
   19.1038   -9.0831  -15.5923 C   0  0  0  0  0  0  0  0  0  0  0  0
   18.2917   -8.3495  -16.2134 O   0  0  0  0  0  0  0  0  0  0  0  0
   20.1527   -8.4714  -14.8882 N   0  0  0  0  0  0  0  0  0  0  0  0
   20.4558   -7.0561  -14.9065 C   0  0  1  0  0  0  0  0  0  0  0  0
   21.5042   -6.6819  -13.8881 C   0  0  0  0  0  0  0  0  0  0  0  0
   21.8824   -5.2530  -13.9452 C   0  0  0  0  0  0  0  0  0  0  0  0
   22.9334   -4.7578  -14.6826 C   0  0  0  0  0  0  0  0  0  0  0  0
   23.2615   -3.4178  -14.7135 C   0  0  0  0  0  0  0  0  0  0  0  0
   22.5192   -2.5202  -13.9829 C   0  0  0  0  0  0  0  0  0  0  0  0
   21.4600   -2.9801  -13.2331 C   0  0  0  0  0  0  0  0  0  0  0  0
   21.1448   -4.3451  -13.2165 C   0  0  0  0  0  0  0  0  0  0  0  0
   20.9415   -6.6394  -16.2339 C   0  0  0  0  0  0  0  0  0  0  0  0
   21.9424   -7.3645  -16.9057 O   0  0  0  0  0  0  0  0  0  0  0  0
   20.5005   -5.6377  -16.8268 O   0  0  0  0  0  0  0  0  0  0  0  0
  1  2  1  0
  3  4  2  0
  3  2  1  0
  6  5  1  6
  6  8  1  0
  7  6  1  0
  8 10  1  0
  8  9  1  6
  9  3  1  0
 10 12  1  0
 11 10  2  0
 12 13  1  0
 13 21  1  0
 13 14  1  1
 14 15  1  0
 15 16  2  0
 16 17  1  0
 18 17  2  0
 19 18  1  0
 20 19  2  0
 20 15  1  0
 21 23  2  0
 21 22  1  0
M  END
$$$$
