GVF.pdb
     RDKit          3D

 23 23  0  0  1  0  0  0  0  0999 V2000
   23.4453  -16.9001  -17.5401 N   0  0  0  0  0  0  0  0  0  0  0  0
   24.7520  -16.8445  -16.9332 C   0  0  0  0  0  0  0  0  0  0  0  0
   25.0871  -18.1338  -16.2478 C   0  0  0  0  0  0  0  0  0  0  0  0
   24.1890  -18.9742  -16.0160 O   0  0  0  0  0  0  0  0  0  0  0  0
   29.1629  -18.8600  -15.1046 C   0  0  0  0  0  0  0  0  0  0  0  0
   28.2361  -20.0059  -15.3540 C   0  0  1  0  0  0  0  0  0  0  0  0
   28.6056  -21.2695  -14.6540 C   0  0  0  0  0  0  0  0  0  0  0  0
   26.7776  -19.6154  -15.0858 C   0  0  2  0  0  0  0  0  0  0  0  0
   26.4139  -18.4417  -15.8441 N   0  0  0  0  0  0  0  0  0  0  0  0
   26.5237  -19.4527  -13.6331 C   0  0  0  0  0  0  0  0  0  0  0  0
   26.9709  -18.4073  -13.0941 O   0  0  0  0  0  0  0  0  0  0  0  0
   25.8289  -20.3724  -12.8321 N   0  0  0  0  0  0  0  0  0  0  0  0
   25.5734  -20.2186  -11.4156 C   0  0  1  0  0  0  0  0  0  0  0  0
   24.2521  -19.5434  -11.1422 C   0  0  0  0  0  0  0  0  0  0  0  0
   23.1202  -20.1780  -11.8523 C   0  0  0  0  0  0  0  0  0  0  0  0
   22.3420  -21.1845  -11.3278 C   0  0  0  0  0  0  0  0  0  0  0  0
   21.2928  -21.7571  -12.0173 C   0  0  0  0  0  0  0  0  0  0  0  0
   20.9940  -21.3182  -13.2857 C   0  0  0  0  0  0  0  0  0  0  0  0
   21.7516  -20.3123  -13.8424 C   0  0  0  0  0  0  0  0  0  0  0  0
   22.8124  -19.7453  -13.1240 C   0  0  0  0  0  0  0  0  0  0  0  0
   25.5649  -21.5268  -10.7376 C   0  0  0  0  0  0  0  0  0  0  0  0
   25.4575  -21.6232   -9.3382 O   0  0  0  0  0  0  0  0  0  0  0  0
   25.6508  -22.6042  -11.3549 O   0  0  0  0  0  0  0  0  0  0  0  0
  1  2  1  0
  3  4  2  0
  3  2  1  0
  6  5  1  1
  6  8  1  0
  7  6  1  0
  8 10  1  0
  8  9  1  6
  9  3  1  0
 10 12  1  0
 11 10  2  0
 12 13  1  0
 13 21  1  0
 13 14  1  6
 14 15  1  0
 15 16  2  0
 16 17  1  0
 18 17  2  0
 19 18  1  0
 20 19  2  0
 20 15  1  0
 21 23  2  0
 21 22  1  0
M  END
$$$$
