GVF.pdb
     RDKit          3D

 23 23  0  0  1  0  0  0  0  0999 V2000
   21.6241  -20.6749  -12.9318 N   0  0  0  0  0  0  0  0  0  0  0  0
   22.7721  -19.8399  -12.6792 C   0  0  0  0  0  0  0  0  0  0  0  0
   24.0231  -20.6565  -12.5685 C   0  0  0  0  0  0  0  0  0  0  0  0
   23.9525  -21.8968  -12.4160 O   0  0  0  0  0  0  0  0  0  0  0  0
   27.8552  -18.6718  -12.7342 C   0  0  0  0  0  0  0  0  0  0  0  0
   27.6870  -20.0701  -13.2349 C   0  0  1  0  0  0  0  0  0  0  0  0
   28.9377  -20.8820  -13.2469 C   0  0  0  0  0  0  0  0  0  0  0  0
   26.5490  -20.7936  -12.5045 C   0  0  2  0  0  0  0  0  0  0  0  0
   25.3113  -20.0610  -12.6319 N   0  0  0  0  0  0  0  0  0  0  0  0
   26.9049  -21.0632  -11.0896 C   0  0  0  0  0  0  0  0  0  0  0  0
   28.0124  -21.6232  -10.8815 O   0  0  0  0  0  0  0  0  0  0  0  0
   26.1015  -20.7405   -9.9847 N   0  0  0  0  0  0  0  0  0  0  0  0
   26.5203  -20.8088   -8.6007 C   0  0  1  0  0  0  0  0  0  0  0  0
   27.5989  -19.8041   -8.2788 C   0  0  0  0  0  0  0  0  0  0  0  0
   28.0581  -19.8781   -6.8747 C   0  0  0  0  0  0  0  0  0  0  0  0
   28.8373  -20.8919   -6.3659 C   0  0  0  0  0  0  0  0  0  0  0  0
   29.2483  -20.9325   -5.0493 C   0  0  0  0  0  0  0  0  0  0  0  0
   28.8746  -19.9261   -4.1902 C   0  0  0  0  0  0  0  0  0  0  0  0
   28.0949  -18.8952   -4.6646 C   0  0  0  0  0  0  0  0  0  0  0  0
   27.6891  -18.8743   -6.0054 C   0  0  0  0  0  0  0  0  0  0  0  0
   25.3844  -20.5630   -7.6948 C   0  0  0  0  0  0  0  0  0  0  0  0
   25.3526  -21.1097   -6.3990 O   0  0  0  0  0  0  0  0  0  0  0  0
   24.4038  -19.8686   -8.0196 O   0  0  0  0  0  0  0  0  0  0  0  0
  1  2  1  0
  3  4  2  0
  3  2  1  0
  6  5  1  1
  6  8  1  0
  7  6  1  0
  8 10  1  0
  8  9  1  1
  9  3  1  0
 10 12  1  0
 11 10  2  0
 12 13  1  0
 13 21  1  0
 13 14  1  6
 14 15  1  0
 15 16  2  0
 16 17  1  0
 18 17  2  0
 19 18  1  0
 20 19  2  0
 20 15  1  0
 21 23  2  0
 21 22  1  0
M  END
$$$$
