GVF.pdb
     RDKit          3D

 23 23  0  0  1  0  0  0  0  0999 V2000
   15.8759  -11.1577  -20.7144 N   0  0  0  0  0  0  0  0  0  0  0  0
   15.4644  -10.7211  -19.4034 C   0  0  0  0  0  0  0  0  0  0  0  0
   16.1629   -9.4558  -19.0089 C   0  0  0  0  0  0  0  0  0  0  0  0
   17.4041   -9.3575  -19.1357 O   0  0  0  0  0  0  0  0  0  0  0  0
   13.8924   -6.5276  -16.9915 C   0  0  0  0  0  0  0  0  0  0  0  0
   15.0184   -6.0201  -17.8335 C   0  0  1  0  0  0  0  0  0  0  0  0
   15.6343   -4.7509  -17.3505 C   0  0  0  0  0  0  0  0  0  0  0  0
   16.0737   -7.1070  -18.0717 C   0  0  2  0  0  0  0  0  0  0  0  0
   15.4519   -8.3426  -18.4860 N   0  0  0  0  0  0  0  0  0  0  0  0
   16.9433   -7.2812  -16.8822 C   0  0  0  0  0  0  0  0  0  0  0  0
   16.5011   -8.0151  -15.9606 O   0  0  0  0  0  0  0  0  0  0  0  0
   18.2064   -6.6914  -16.7184 N   0  0  0  0  0  0  0  0  0  0  0  0
   19.0817   -6.8962  -15.5838 C   0  0  1  0  0  0  0  0  0  0  0  0
   20.4991   -7.2003  -16.0018 C   0  0  0  0  0  0  0  0  0  0  0  0
   21.4077   -7.4138  -14.8542 C   0  0  0  0  0  0  0  0  0  0  0  0
   21.6327   -8.6344  -14.2598 C   0  0  0  0  0  0  0  0  0  0  0  0
   22.4864   -8.8001  -13.1884 C   0  0  0  0  0  0  0  0  0  0  0  0
   23.1520   -7.7115  -12.6761 C   0  0  0  0  0  0  0  0  0  0  0  0
   22.9512   -6.4743  -13.2459 C   0  0  0  0  0  0  0  0  0  0  0  0
   22.0797   -6.3292  -14.3333 C   0  0  0  0  0  0  0  0  0  0  0  0
   19.1084   -5.7040  -14.7182 C   0  0  0  0  0  0  0  0  0  0  0  0
   19.2264   -5.8187  -13.3211 O   0  0  0  0  0  0  0  0  0  0  0  0
   19.0292   -4.5457  -15.1670 O   0  0  0  0  0  0  0  0  0  0  0  0
  1  2  1  0
  3  4  2  0
  3  2  1  0
  6  5  1  1
  6  8  1  0
  7  6  1  0
  8 10  1  0
  8  9  1  1
  9  3  1  0
 10 12  1  0
 11 10  2  0
 12 13  1  0
 13 21  1  0
 13 14  1  6
 14 15  1  0
 15 16  2  0
 16 17  1  0
 18 17  2  0
 19 18  1  0
 20 19  2  0
 20 15  1  0
 21 23  2  0
 21 22  1  0
M  END
$$$$
