NMG.pdb
     RDKit          3D

 21 20  0  0  1  0  0  0  0  0999 V2000
   18.7923  -19.6004  -10.1349 N   0  0  0  0  0  0  0  0  0  0  0  0
   18.4822  -18.7560  -11.2336 C   0  0  0  0  0  0  0  0  0  0  0  0
   17.3046  -18.7902  -11.6687 O   0  0  0  0  0  0  0  0  0  0  0  0
   19.5103  -17.8636  -11.8484 C   0  0  0  0  0  0  0  0  0  0  0  0
   19.4159  -18.0064  -13.3343 C   0  0  2  0  0  0  0  0  0  0  0  0
   19.5682  -19.3670  -13.7404 N   0  0  0  0  0  0  0  0  0  0  0  0
   20.3199  -17.0788  -14.0631 C   0  0  0  0  0  0  0  0  0  0  0  0
   21.5717  -17.2926  -14.0767 O   0  0  0  0  0  0  0  0  0  0  0  0
   23.6793  -18.1614  -17.1468 C   0  0  0  0  0  0  0  0  0  0  0  0
   23.7866  -16.4376  -17.6959 S   0  0  0  0  0  0  0  0  0  0  0  0
   22.1606  -15.6675  -17.7149 C   0  0  0  0  0  0  0  0  0  0  0  0
   21.2529  -16.0940  -16.6391 C   0  0  0  0  0  0  0  0  0  0  0  0
   20.7519  -15.1359  -15.6405 C   0  0  2  0  0  0  0  0  0  0  0  0
   19.8496  -15.9420  -14.7595 N   0  0  0  0  0  0  0  0  0  0  0  0
   20.0193  -13.9492  -16.1094 C   0  0  0  0  0  0  0  0  0  0  0  0
   20.4655  -13.1742  -16.9778 O   0  0  0  0  0  0  0  0  0  0  0  0
   18.7332  -13.6055  -15.5917 N   0  0  0  0  0  0  0  0  0  0  0  0
   18.0014  -12.4227  -15.9962 C   0  0  0  0  0  0  0  0  0  0  0  0
   18.5670  -11.1860  -15.4765 C   0  0  0  0  0  0  0  0  0  0  0  0
   17.9550  -10.1067  -15.6095 O   0  0  0  0  0  0  0  0  0  0  0  0
   19.7845  -11.1848  -14.8303 O   0  0  0  0  0  0  0  0  0  0  0  0
  2  1  1  0
  2  3  2  0
  4  2  1  0
  5  4  1  0
  5  6  1  1
  7 14  1  0
  7  5  1  0
  8  7  2  0
 10  9  1  0
 10 11  1  0
 11 12  1  0
 13 12  1  6
 13 14  1  0
 13 15  1  0
 15 17  1  0
 15 16  2  0
 17 18  1  0
 18 19  1  0
 19 21  1  0
 20 19  2  0
M  END
$$$$
