NMG.pdb
     RDKit          3D

 21 20  0  0  1  0  0  0  0  0999 V2000
   20.1833  -13.0862  -19.7038 N   0  0  0  0  0  0  0  0  0  0  0  0
   20.7096  -13.8404  -18.6219 C   0  0  0  0  0  0  0  0  0  0  0  0
   20.3662  -15.0459  -18.5426 O   0  0  0  0  0  0  0  0  0  0  0  0
   21.6326  -13.2295  -17.6189 C   0  0  0  0  0  0  0  0  0  0  0  0
   21.8389  -11.7965  -17.9946 C   0  0  2  0  0  0  0  0  0  0  0  0
   22.6119  -11.6744  -19.1892 N   0  0  0  0  0  0  0  0  0  0  0  0
   22.3683  -10.9752  -16.8747 C   0  0  0  0  0  0  0  0  0  0  0  0
   21.7928  -10.9992  -15.7428 O   0  0  0  0  0  0  0  0  0  0  0  0
   28.2972  -12.8983  -15.2749 C   0  0  0  0  0  0  0  0  0  0  0  0
   27.7834  -11.2292  -15.7596 S   0  0  0  0  0  0  0  0  0  0  0  0
   26.0125  -11.0104  -15.5292 C   0  0  0  0  0  0  0  0  0  0  0  0
   25.4995   -9.6706  -15.8530 C   0  0  0  0  0  0  0  0  0  0  0  0
   24.0559   -9.3840  -15.8405 C   0  0  2  0  0  0  0  0  0  0  0  0
   23.5067  -10.1473  -17.0050 N   0  0  0  0  0  0  0  0  0  0  0  0
   23.6155   -7.9838  -15.9421 C   0  0  0  0  0  0  0  0  0  0  0  0
   23.9783   -7.0976  -15.1440 O   0  0  0  0  0  0  0  0  0  0  0  0
   22.7323   -7.5457  -16.9757 N   0  0  0  0  0  0  0  0  0  0  0  0
   22.3420   -6.1627  -17.1573 C   0  0  0  0  0  0  0  0  0  0  0  0
   21.2080   -5.7682  -16.3340 C   0  0  0  0  0  0  0  0  0  0  0  0
   20.6753   -6.5875  -15.5581 O   0  0  0  0  0  0  0  0  0  0  0  0
   20.7039   -4.4868  -16.3963 O   0  0  0  0  0  0  0  0  0  0  0  0
  2  1  1  0
  2  3  2  0
  4  2  1  0
  5  4  1  0
  5  6  1  6
  7 14  1  0
  7  5  1  0
  8  7  2  0
 10  9  1  0
 10 11  1  0
 11 12  1  0
 13 12  1  6
 13 14  1  0
 13 15  1  0
 15 17  1  0
 15 16  2  0
 17 18  1  0
 18 19  1  0
 19 21  1  0
 20 19  2  0
M  END
$$$$
