NMG.pdb
     RDKit          3D

 21 20  0  0  1  0  0  0  0  0999 V2000
   18.6643  -33.0321   -6.3520 N   0  0  0  0  0  0  0  0  0  0  0  0
   18.1710  -32.1443   -5.3596 C   0  0  0  0  0  0  0  0  0  0  0  0
   18.1180  -32.5742   -4.1807 O   0  0  0  0  0  0  0  0  0  0  0  0
   17.7329  -30.7573   -5.6996 C   0  0  0  0  0  0  0  0  0  0  0  0
   16.8535  -30.2673   -4.5933 C   0  0  2  0  0  0  0  0  0  0  0  0
   15.6414  -31.0185   -4.5159 N   0  0  0  0  0  0  0  0  0  0  0  0
   16.6240  -28.7997   -4.6437 C   0  0  0  0  0  0  0  0  0  0  0  0
   15.6228  -28.3351   -5.2720 O   0  0  0  0  0  0  0  0  0  0  0  0
   14.8579  -26.2477    0.8968 C   0  0  0  0  0  0  0  0  0  0  0  0
   16.3180  -25.8054   -0.0815 S   0  0  0  0  0  0  0  0  0  0  0  0
   16.0592  -26.1737   -1.8236 C   0  0  0  0  0  0  0  0  0  0  0  0
   17.2233  -25.9430   -2.6923 C   0  0  0  0  0  0  0  0  0  0  0  0
   17.2306  -26.3960   -4.0927 C   0  0  2  0  0  0  0  0  0  0  0  0
   17.4823  -27.8693   -4.0144 N   0  0  0  0  0  0  0  0  0  0  0  0
   18.2033  -25.7980   -5.0206 C   0  0  0  0  0  0  0  0  0  0  0  0
   19.3725  -26.2133   -5.1403 O   0  0  0  0  0  0  0  0  0  0  0  0
   17.8646  -24.6886   -5.8541 N   0  0  0  0  0  0  0  0  0  0  0  0
   18.8100  -24.0376   -6.7375 C   0  0  0  0  0  0  0  0  0  0  0  0
   18.8585  -24.6256   -8.0683 C   0  0  0  0  0  0  0  0  0  0  0  0
   18.2836  -25.7082   -8.3019 O   0  0  0  0  0  0  0  0  0  0  0  0
   19.5379  -23.9993   -9.0912 O   0  0  0  0  0  0  0  0  0  0  0  0
  2  1  1  0
  2  3  2  0
  4  2  1  0
  5  4  1  0
  5  6  1  6
  7 14  1  0
  7  5  1  0
  8  7  2  0
 10  9  1  0
 10 11  1  0
 11 12  1  0
 13 12  1  1
 13 14  1  0
 13 15  1  0
 15 17  1  0
 15 16  2  0
 17 18  1  0
 18 19  1  0
 19 21  1  0
 20 19  2  0
M  END
$$$$
