NMG.pdb
     RDKit          3D

 21 20  0  0  1  0  0  0  0  0999 V2000
   20.2204  -18.7523  -17.5193 N   0  0  0  0  0  0  0  0  0  0  0  0
   20.9513  -19.7300  -16.7939 C   0  0  0  0  0  0  0  0  0  0  0  0
   20.2889  -20.6074  -16.1865 O   0  0  0  0  0  0  0  0  0  0  0  0
   22.4444  -19.7188  -16.7525 C   0  0  0  0  0  0  0  0  0  0  0  0
   22.8713  -20.1586  -15.3882 C   0  0  2  0  0  0  0  0  0  0  0  0
   22.3661  -19.2879  -14.3752 N   0  0  0  0  0  0  0  0  0  0  0  0
   24.3373  -20.3802  -15.2842 C   0  0  0  0  0  0  0  0  0  0  0  0
   24.9080  -21.2194  -16.0478 O   0  0  0  0  0  0  0  0  0  0  0  0
   28.5342  -16.9812  -18.2767 C   0  0  0  0  0  0  0  0  0  0  0  0
   28.7358  -17.4969  -16.5510 S   0  0  0  0  0  0  0  0  0  0  0  0
   27.2207  -18.2343  -15.9201 C   0  0  0  0  0  0  0  0  0  0  0  0
   27.3122  -18.7875  -14.5604 C   0  0  0  0  0  0  0  0  0  0  0  0
   26.6012  -20.0220  -14.1907 C   0  0  2  0  0  0  0  0  0  0  0  0
   25.1513  -19.6901  -14.3572 N   0  0  0  0  0  0  0  0  0  0  0  0
   26.8084  -20.5770  -12.8439 C   0  0  0  0  0  0  0  0  0  0  0  0
   27.9242  -20.9386  -12.4220 O   0  0  0  0  0  0  0  0  0  0  0  0
   25.7290  -20.7388  -11.9224 N   0  0  0  0  0  0  0  0  0  0  0  0
   25.9175  -21.0631  -10.5233 C   0  0  0  0  0  0  0  0  0  0  0  0
   24.6887  -21.0043   -9.7448 C   0  0  0  0  0  0  0  0  0  0  0  0
   24.7100  -21.2111   -8.5144 O   0  0  0  0  0  0  0  0  0  0  0  0
   23.4836  -20.7202  -10.3505 O   0  0  0  0  0  0  0  0  0  0  0  0
  2  1  1  0
  2  3  2  0
  4  2  1  0
  5  4  1  0
  5  6  1  1
  7 14  1  0
  7  5  1  0
  8  7  2  0
 10  9  1  0
 10 11  1  0
 11 12  1  0
 13 12  1  1
 13 14  1  0
 13 15  1  0
 15 17  1  0
 15 16  2  0
 17 18  1  0
 18 19  1  0
 19 21  1  0
 20 19  2  0
M  END
$$$$
