NMG.pdb
     RDKit          3D

 21 20  0  0  1  0  0  0  0  0999 V2000
   18.9852   -7.2859  -16.3396 N   0  0  0  0  0  0  0  0  0  0  0  0
   18.8560   -8.5973  -15.8106 C   0  0  0  0  0  0  0  0  0  0  0  0
   19.6440   -9.4722  -16.2477 O   0  0  0  0  0  0  0  0  0  0  0  0
   17.8277   -8.9262  -14.7783 C   0  0  0  0  0  0  0  0  0  0  0  0
   17.9908   -7.9663  -13.6428 C   0  0  2  0  0  0  0  0  0  0  0  0
   19.1739   -8.2402  -12.8913 N   0  0  0  0  0  0  0  0  0  0  0  0
   16.7753   -7.8629  -12.7937 C   0  0  0  0  0  0  0  0  0  0  0  0
   15.6552   -7.5793  -13.3209 O   0  0  0  0  0  0  0  0  0  0  0  0
   13.9934  -13.2248  -10.9616 C   0  0  0  0  0  0  0  0  0  0  0  0
   14.5930  -11.9155   -9.8612 S   0  0  0  0  0  0  0  0  0  0  0  0
   14.8459  -10.3815  -10.7669 C   0  0  0  0  0  0  0  0  0  0  0  0
   15.3621   -9.2600   -9.9676 C   0  0  0  0  0  0  0  0  0  0  0  0
   15.5632   -7.9291  -10.5631 C   0  0  2  0  0  0  0  0  0  0  0  0
   16.7995   -8.0678  -11.3952 N   0  0  0  0  0  0  0  0  0  0  0  0
   15.7233   -6.7738   -9.6662 C   0  0  0  0  0  0  0  0  0  0  0  0
   16.6393   -6.6881   -8.8250 O   0  0  0  0  0  0  0  0  0  0  0  0
   14.8268   -5.6624   -9.7031 N   0  0  0  0  0  0  0  0  0  0  0  0
   14.9796   -4.4873   -8.8702 C   0  0  0  0  0  0  0  0  0  0  0  0
   14.0819   -4.4692   -7.7242 C   0  0  0  0  0  0  0  0  0  0  0  0
   13.2593   -5.3916   -7.5515 O   0  0  0  0  0  0  0  0  0  0  0  0
   14.1239   -3.4365   -6.8123 O   0  0  0  0  0  0  0  0  0  0  0  0
  2  1  1  0
  2  3  2  0
  4  2  1  0
  5  4  1  0
  5  6  1  1
  7 14  1  0
  7  5  1  0
  8  7  2  0
 10  9  1  0
 10 11  1  0
 11 12  1  0
 13 12  1  1
 13 14  1  0
 13 15  1  0
 15 17  1  0
 15 16  2  0
 17 18  1  0
 18 19  1  0
 19 21  1  0
 20 19  2  0
M  END
$$$$
