NMG.pdb
     RDKit          3D

 21 20  0  0  1  0  0  0  0  0999 V2000
   29.2524  -18.5502  -16.2464 N   0  0  0  0  0  0  0  0  0  0  0  0
   27.8581  -18.3617  -16.4380 C   0  0  0  0  0  0  0  0  0  0  0  0
   27.5019  -17.3678  -17.1183 O   0  0  0  0  0  0  0  0  0  0  0  0
   26.8547  -19.3032  -15.8566 C   0  0  0  0  0  0  0  0  0  0  0  0
   27.5969  -20.3603  -15.1024 C   0  0  2  0  0  0  0  0  0  0  0  0
   28.2041  -21.3047  -15.9849 N   0  0  0  0  0  0  0  0  0  0  0  0
   26.7738  -21.0015  -14.0440 C   0  0  0  0  0  0  0  0  0  0  0  0
   26.1523  -22.0813  -14.2903 O   0  0  0  0  0  0  0  0  0  0  0  0
   26.7656  -19.5214   -6.9334 C   0  0  0  0  0  0  0  0  0  0  0  0
   26.3183  -21.0841   -7.7349 S   0  0  0  0  0  0  0  0  0  0  0  0
   25.3586  -20.7882   -9.2279 C   0  0  0  0  0  0  0  0  0  0  0  0
   26.1499  -20.5740  -10.4490 C   0  0  0  0  0  0  0  0  0  0  0  0
   25.6553  -21.0128  -11.7640 C   0  0  2  0  0  0  0  0  0  0  0  0
   26.6417  -20.4602  -12.7448 N   0  0  0  0  0  0  0  0  0  0  0  0
   24.3014  -20.6109  -12.1765 C   0  0  0  0  0  0  0  0  0  0  0  0
   24.0067  -19.4423  -12.4948 O   0  0  0  0  0  0  0  0  0  0  0  0
   23.2246  -21.5473  -12.2389 N   0  0  0  0  0  0  0  0  0  0  0  0
   21.9023  -21.2100  -12.7244 C   0  0  0  0  0  0  0  0  0  0  0  0
   20.9703  -20.8522  -11.6648 C   0  0  0  0  0  0  0  0  0  0  0  0
   21.3276  -20.8901  -10.4698 O   0  0  0  0  0  0  0  0  0  0  0  0
   19.6806  -20.4664  -11.9613 O   0  0  0  0  0  0  0  0  0  0  0  0
  2  1  1  0
  2  3  2  0
  4  2  1  0
  5  4  1  0
  5  6  1  6
  7 14  1  0
  7  5  1  0
  8  7  2  0
 10  9  1  0
 10 11  1  0
 11 12  1  0
 13 12  1  1
 13 14  1  0
 13 15  1  0
 15 17  1  0
 15 16  2  0
 17 18  1  0
 18 19  1  0
 19 21  1  0
 20 19  2  0
M  END
$$$$
