NMG.pdb
     RDKit          3D

 21 20  0  0  1  0  0  0  0  0999 V2000
   27.8000  -18.6091  -16.8657 N   0  0  0  0  0  0  0  0  0  0  0  0
   27.6814  -18.4151  -15.4642 C   0  0  0  0  0  0  0  0  0  0  0  0
   28.4444  -17.5689  -14.9358 O   0  0  0  0  0  0  0  0  0  0  0  0
   26.6924  -19.1828  -14.6495 C   0  0  0  0  0  0  0  0  0  0  0  0
   27.4304  -20.2655  -13.9281 C   0  0  2  0  0  0  0  0  0  0  0  0
   27.9676  -21.2278  -14.8363 N   0  0  0  0  0  0  0  0  0  0  0  0
   26.6322  -20.8810  -12.8359 C   0  0  0  0  0  0  0  0  0  0  0  0
   26.1714  -22.0567  -12.9717 O   0  0  0  0  0  0  0  0  0  0  0  0
   28.8619  -20.5387   -6.4117 C   0  0  0  0  0  0  0  0  0  0  0  0
   27.3409  -19.8622   -7.1282 S   0  0  0  0  0  0  0  0  0  0  0  0
   26.9131  -20.7179   -8.6520 C   0  0  0  0  0  0  0  0  0  0  0  0
   25.7331  -20.1926   -9.3554 C   0  0  0  0  0  0  0  0  0  0  0  0
   25.3249  -20.7285  -10.6640 C   0  0  2  0  0  0  0  0  0  0  0  0
   26.3507  -20.2112  -11.6233 N   0  0  0  0  0  0  0  0  0  0  0  0
   23.9867  -20.3934  -11.1753 C   0  0  0  0  0  0  0  0  0  0  0  0
   23.7671  -19.4137  -11.9141 O   0  0  0  0  0  0  0  0  0  0  0  0
   22.8389  -21.1801  -10.8528 N   0  0  0  0  0  0  0  0  0  0  0  0
   21.4985  -20.8520  -11.2927 C   0  0  0  0  0  0  0  0  0  0  0  0
   21.1357  -21.4744  -12.5578 C   0  0  0  0  0  0  0  0  0  0  0  0
   22.0099  -21.9988  -13.2774 O   0  0  0  0  0  0  0  0  0  0  0  0
   19.8245  -21.4956  -12.9822 O   0  0  0  0  0  0  0  0  0  0  0  0
  2  1  1  0
  2  3  2  0
  4  2  1  0
  5  4  1  0
  5  6  1  6
  7 14  1  0
  7  5  1  0
  8  7  2  0
 10  9  1  0
 10 11  1  0
 11 12  1  0
 13 12  1  1
 13 14  1  0
 13 15  1  0
 15 17  1  0
 15 16  2  0
 17 18  1  0
 18 19  1  0
 19 21  1  0
 20 19  2  0
M  END
$$$$
