HYK.pdb
     RDKit          3D

 32 33  0  0  1  0  0  0  0  0999 V2000
   27.9826  -20.8947  -14.6231 N   0  0  0  0  0  0  0  0  0  0  0  0
   27.0229  -19.8712  -14.1785 C   0  0  1  0  0  0  0  0  0  0  0  0
   26.3866  -19.3216  -15.4279 C   0  0  0  0  0  0  0  0  0  0  0  0
   27.2496  -18.3492  -16.1232 C   0  0  0  0  0  0  0  0  0  0  0  0
   28.5230  -18.0302  -15.7012 C   0  0  0  0  0  0  0  0  0  0  0  0
   29.0461  -17.1236  -16.5342 N   0  0  0  0  0  0  0  0  0  0  0  0
   28.1399  -16.8579  -17.4740 C   0  0  0  0  0  0  0  0  0  0  0  0
   27.0320  -17.6099  -17.2254 N   0  0  0  0  0  0  0  0  0  0  0  0
   25.9553  -20.5876  -13.4239 C   0  0  0  0  0  0  0  0  0  0  0  0
   25.7616  -21.8043  -13.7350 O   0  0  0  0  0  0  0  0  0  0  0  0
   28.6132  -20.4949   -7.0076 O   0  0  0  0  0  0  0  0  0  0  0  0
   27.4786  -20.4033   -7.8233 C   0  0  0  0  0  0  0  0  0  0  0  0
   26.6479  -21.4823   -8.0521 C   0  0  0  0  0  0  0  0  0  0  0  0
   25.5285  -21.3721   -8.8631 C   0  0  0  0  0  0  0  0  0  0  0  0
   25.2074  -20.1698   -9.4722 C   0  0  0  0  0  0  0  0  0  0  0  0
   24.0147  -20.0451  -10.3422 C   0  0  0  0  0  0  0  0  0  0  0  0
   24.1506  -20.6887  -11.6764 C   0  0  2  0  0  0  0  0  0  0  0  0
   25.1845  -19.9591  -12.4067 N   0  0  0  0  0  0  0  0  0  0  0  0
   22.8983  -20.7719  -12.4595 C   0  0  0  0  0  0  0  0  0  0  0  0
   22.4771  -19.7219  -12.9940 O   0  0  0  0  0  0  0  0  0  0  0  0
   26.0509  -19.1062   -9.2298 C   0  0  0  0  0  0  0  0  0  0  0  0
   27.1705  -19.2133   -8.4195 C   0  0  0  0  0  0  0  0  0  0  0  0
   22.1607  -21.9502  -12.6368 N   0  0  0  0  0  0  0  0  0  0  0  0
   20.8717  -21.9091  -13.4707 C   0  0  1  0  0  0  0  0  0  0  0  0
   20.5724  -23.3098  -13.8035 C   0  0  0  0  0  0  0  0  0  0  0  0
   19.3402  -23.6666  -14.4855 C   0  0  0  0  0  0  0  0  0  0  0  0
   18.9258  -25.0527  -14.7489 C   0  0  0  0  0  0  0  0  0  0  0  0
   17.5456  -25.0823  -15.4623 C   0  0  0  0  0  0  0  0  0  0  0  0
   17.2124  -26.4632  -15.6794 N   0  0  0  0  0  0  0  0  0  0  0  0
   19.9147  -21.1917  -12.5972 C   0  0  0  0  0  0  0  0  0  0  0  0
   18.9043  -20.3482  -12.9597 O   0  0  0  0  0  0  0  0  0  0  0  0
   20.0122  -21.3490  -11.3158 O   0  0  0  0  0  0  0  0  0  0  0  0
  2  1  1  6
  3  2  1  0
  3  4  1  0
  4  5  2  0
  5  6  1  0
  7  6  1  0
  8  4  1  0
  8  7  2  0
  9 18  1  0
  9  2  1  0
 10  9  2  0
 12 11  1  0
 13 12  2  0
 14 13  1  0
 15 14  2  0
 15 21  1  0
 16 15  1  0
 17 16  1  1
 17 18  1  0
 19 23  1  0
 19 17  1  0
 20 19  2  0
 21 22  2  0
 22 12  1  0
 24 23  1  0
 24 30  1  0
 24 25  1  1
 26 25  1  0
 27 28  1  0
 27 26  1  0
 28 29  1  0
 30 31  1  0
 32 30  2  0
M  END
$$$$
