HYK.pdb
     RDKit          3D

 32 33  0  0  1  0  0  0  0  0999 V2000
   16.6253  -13.4707    4.5780 N   0  0  0  0  0  0  0  0  0  0  0  0
   17.4055  -14.4737    3.8354 C   0  0  1  0  0  0  0  0  0  0  0  0
   18.8197  -13.9576    3.7925 C   0  0  0  0  0  0  0  0  0  0  0  0
   19.1839  -13.2003    5.0039 C   0  0  0  0  0  0  0  0  0  0  0  0
   18.3212  -13.0039    6.0615 C   0  0  0  0  0  0  0  0  0  0  0  0
   18.9401  -12.2830    7.0033 N   0  0  0  0  0  0  0  0  0  0  0  0
   20.1723  -12.0160    6.5728 C   0  0  0  0  0  0  0  0  0  0  0  0
   20.3275  -12.5785    5.3423 N   0  0  0  0  0  0  0  0  0  0  0  0
   17.4167  -15.7084    4.6707 C   0  0  0  0  0  0  0  0  0  0  0  0
   16.6569  -15.7096    5.6892 O   0  0  0  0  0  0  0  0  0  0  0  0
   14.9372  -20.7110    0.3429 O   0  0  0  0  0  0  0  0  0  0  0  0
   15.8451  -20.3432    1.3435 C   0  0  0  0  0  0  0  0  0  0  0  0
   15.7309  -20.7954    2.6431 C   0  0  0  0  0  0  0  0  0  0  0  0
   16.6401  -20.4201    3.6205 C   0  0  0  0  0  0  0  0  0  0  0  0
   17.6968  -19.5753    3.3216 C   0  0  0  0  0  0  0  0  0  0  0  0
   18.6708  -19.1677    4.3611 C   0  0  0  0  0  0  0  0  0  0  0  0
   18.2328  -18.0252    5.2070 C   0  0  2  0  0  0  0  0  0  0  0  0
   18.2280  -16.8349    4.3597 N   0  0  0  0  0  0  0  0  0  0  0  0
   19.0371  -17.8097    6.4298 C   0  0  0  0  0  0  0  0  0  0  0  0
   20.2109  -17.4002    6.2878 O   0  0  0  0  0  0  0  0  0  0  0  0
   17.7912  -19.1360    2.0179 C   0  0  0  0  0  0  0  0  0  0  0  0
   16.8838  -19.5096    1.0388 C   0  0  0  0  0  0  0  0  0  0  0  0
   18.5645  -18.0359    7.7296 N   0  0  0  0  0  0  0  0  0  0  0  0
   19.5098  -17.8148    8.9196 C   0  0  1  0  0  0  0  0  0  0  0  0
   19.0999  -16.5348    9.5163 C   0  0  0  0  0  0  0  0  0  0  0  0
   19.6707  -16.0822   10.7733 C   0  0  0  0  0  0  0  0  0  0  0  0
   19.5949  -14.6931   11.2501 C   0  0  0  0  0  0  0  0  0  0  0  0
   20.3587  -14.5363   12.5942 C   0  0  0  0  0  0  0  0  0  0  0  0
   20.2214  -13.1646   13.0000 N   0  0  0  0  0  0  0  0  0  0  0  0
   19.3356  -19.0390    9.7348 C   0  0  0  0  0  0  0  0  0  0  0  0
   18.4362  -20.0514    9.5621 O   0  0  0  0  0  0  0  0  0  0  0  0
   20.1099  -19.2141   10.7576 O   0  0  0  0  0  0  0  0  0  0  0  0
  2  1  1  1
  3  2  1  0
  3  4  1  0
  4  5  2  0
  5  6  1  0
  7  6  1  0
  8  4  1  0
  8  7  2  0
  9 18  1  0
  9  2  1  0
 10  9  2  0
 12 11  1  0
 13 12  2  0
 14 13  1  0
 15 14  2  0
 15 21  1  0
 16 15  1  0
 17 16  1  6
 17 18  1  0
 19 23  1  0
 19 17  1  0
 20 19  2  0
 21 22  2  0
 22 12  1  0
 24 23  1  0
 24 30  1  0
 24 25  1  1
 26 25  1  0
 27 28  1  0
 27 26  1  0
 28 29  1  0
 30 31  1  0
 32 30  2  0
M  END
$$$$
