HYK.pdb
     RDKit          3D

 32 33  0  0  1  0  0  0  0  0999 V2000
   26.9880  -23.0533  -17.3967 N   0  0  0  0  0  0  0  0  0  0  0  0
   27.0128  -21.7174  -16.7796 C   0  0  1  0  0  0  0  0  0  0  0  0
   26.0691  -20.8649  -17.5864 C   0  0  0  0  0  0  0  0  0  0  0  0
   26.6667  -20.3985  -18.8509 C   0  0  0  0  0  0  0  0  0  0  0  0
   26.1712  -20.7372  -20.0924 C   0  0  0  0  0  0  0  0  0  0  0  0
   26.9249  -20.1625  -21.0363 N   0  0  0  0  0  0  0  0  0  0  0  0
   27.8857  -19.4679  -20.4286 C   0  0  0  0  0  0  0  0  0  0  0  0
   27.7312  -19.6099  -19.0830 N   0  0  0  0  0  0  0  0  0  0  0  0
   26.4154  -21.8644  -15.4217 C   0  0  0  0  0  0  0  0  0  0  0  0
   25.5508  -22.7847  -15.2803 O   0  0  0  0  0  0  0  0  0  0  0  0
   25.1383  -20.6398   -6.6643 O   0  0  0  0  0  0  0  0  0  0  0  0
   25.6238  -20.5999   -7.9772 C   0  0  0  0  0  0  0  0  0  0  0  0
   26.9702  -20.4836   -8.2606 C   0  0  0  0  0  0  0  0  0  0  0  0
   27.4320  -20.4458   -9.5675 C   0  0  0  0  0  0  0  0  0  0  0  0
   26.5522  -20.5239  -10.6350 C   0  0  0  0  0  0  0  0  0  0  0  0
   27.0378  -20.4815  -12.0341 C   0  0  0  0  0  0  0  0  0  0  0  0
   26.1667  -21.1839  -13.0142 C   0  0  2  0  0  0  0  0  0  0  0  0
   26.7814  -21.0282  -14.3305 N   0  0  0  0  0  0  0  0  0  0  0  0
   24.7556  -20.7396  -13.0254 C   0  0  0  0  0  0  0  0  0  0  0  0
   24.1007  -20.8602  -11.9661 O   0  0  0  0  0  0  0  0  0  0  0  0
   25.2127  -20.6395  -10.3285 C   0  0  0  0  0  0  0  0  0  0  0  0
   24.7481  -20.6776   -9.0230 C   0  0  0  0  0  0  0  0  0  0  0  0
   24.1136  -20.1950  -14.1457 N   0  0  0  0  0  0  0  0  0  0  0  0
   22.7083  -19.5961  -13.9866 C   0  0  1  0  0  0  0  0  0  0  0  0
   22.5517  -18.6551  -15.1057 C   0  0  0  0  0  0  0  0  0  0  0  0
   21.2933  -17.9635  -15.3268 C   0  0  0  0  0  0  0  0  0  0  0  0
   21.0386  -17.0812  -16.4754 C   0  0  0  0  0  0  0  0  0  0  0  0
   19.5902  -16.5207  -16.4208 C   0  0  0  0  0  0  0  0  0  0  0  0
   19.4305  -15.6532  -17.5553 N   0  0  0  0  0  0  0  0  0  0  0  0
   21.8244  -20.7842  -13.9601 C   0  0  0  0  0  0  0  0  0  0  0  0
   20.6522  -20.9536  -13.2812 O   0  0  0  0  0  0  0  0  0  0  0  0
   22.1684  -21.8241  -14.6505 O   0  0  0  0  0  0  0  0  0  0  0  0
  2  1  1  6
  3  2  1  0
  3  4  1  0
  4  5  2  0
  5  6  1  0
  7  6  1  0
  8  4  1  0
  8  7  2  0
  9 18  1  0
  9  2  1  0
 10  9  2  0
 12 11  1  0
 13 12  2  0
 14 13  1  0
 15 14  2  0
 15 21  1  0
 16 15  1  0
 17 16  1  1
 17 18  1  0
 19 23  1  0
 19 17  1  0
 20 19  2  0
 21 22  2  0
 22 12  1  0
 24 23  1  0
 24 30  1  0
 24 25  1  6
 26 25  1  0
 27 28  1  0
 27 26  1  0
 28 29  1  0
 30 31  1  0
 32 30  2  0
M  END
$$$$
