HYK.pdb
     RDKit          3D

 32 33  0  0  1  0  0  0  0  0999 V2000
   18.6276  -12.9171  -17.3688 N   0  0  0  0  0  0  0  0  0  0  0  0
   19.8558  -12.2476  -17.8264 C   0  0  1  0  0  0  0  0  0  0  0  0
   19.6953  -12.0448  -19.3100 C   0  0  0  0  0  0  0  0  0  0  0  0
   19.7246  -13.3125  -20.0621 C   0  0  0  0  0  0  0  0  0  0  0  0
   18.5872  -13.9833  -20.4592 C   0  0  0  0  0  0  0  0  0  0  0  0
   18.9406  -15.0929  -21.1176 N   0  0  0  0  0  0  0  0  0  0  0  0
   20.2714  -15.1454  -21.1497 C   0  0  0  0  0  0  0  0  0  0  0  0
   20.7590  -14.0516  -20.5012 N   0  0  0  0  0  0  0  0  0  0  0  0
   19.8625  -10.8951  -17.1993 C   0  0  0  0  0  0  0  0  0  0  0  0
   18.7289  -10.3521  -17.0130 O   0  0  0  0  0  0  0  0  0  0  0  0
   23.0134   -3.5675  -13.1618 O   0  0  0  0  0  0  0  0  0  0  0  0
   22.8452   -4.8333  -13.7366 C   0  0  0  0  0  0  0  0  0  0  0  0
   23.3651   -5.1539  -14.9750 C   0  0  0  0  0  0  0  0  0  0  0  0
   23.1882   -6.4132  -15.5280 C   0  0  0  0  0  0  0  0  0  0  0  0
   22.4805   -7.3937  -14.8515 C   0  0  0  0  0  0  0  0  0  0  0  0
   22.2850   -8.7405  -15.4370 C   0  0  0  0  0  0  0  0  0  0  0  0
   21.0423   -8.8927  -16.2404 C   0  0  2  0  0  0  0  0  0  0  0  0
   21.0638  -10.2324  -16.8230 N   0  0  0  0  0  0  0  0  0  0  0  0
   20.8405   -7.8593  -17.2795 C   0  0  0  0  0  0  0  0  0  0  0  0
   21.4646   -7.9891  -18.3562 O   0  0  0  0  0  0  0  0  0  0  0  0
   21.9704   -7.0513  -13.6170 C   0  0  0  0  0  0  0  0  0  0  0  0
   22.1458   -5.7933  -13.0617 C   0  0  0  0  0  0  0  0  0  0  0  0
   19.9968   -6.7504  -17.1297 N   0  0  0  0  0  0  0  0  0  0  0  0
   19.9067   -5.7187  -18.2638 C   0  0  1  0  0  0  0  0  0  0  0  0
   18.7313   -6.1067  -19.0575 C   0  0  0  0  0  0  0  0  0  0  0  0
   18.1922   -5.2188  -20.0733 C   0  0  0  0  0  0  0  0  0  0  0  0
   17.0444   -5.5587  -20.9275 C   0  0  0  0  0  0  0  0  0  0  0  0
   16.6982   -4.3736  -21.8712 C   0  0  0  0  0  0  0  0  0  0  0  0
   15.4398   -4.6827  -22.4925 N   0  0  0  0  0  0  0  0  0  0  0  0
   19.8557   -4.4214  -17.5510 C   0  0  0  0  0  0  0  0  0  0  0  0
   20.2838   -3.1993  -17.9834 O   0  0  0  0  0  0  0  0  0  0  0  0
   19.3533   -4.3926  -16.3581 O   0  0  0  0  0  0  0  0  0  0  0  0
  2  1  1  1
  3  2  1  0
  3  4  1  0
  4  5  2  0
  5  6  1  0
  7  6  1  0
  8  4  1  0
  8  7  2  0
  9 18  1  0
  9  2  1  0
 10  9  2  0
 12 11  1  0
 13 12  2  0
 14 13  1  0
 15 14  2  0
 15 21  1  0
 16 15  1  0
 17 16  1  6
 17 18  1  0
 19 23  1  0
 19 17  1  0
 20 19  2  0
 21 22  2  0
 22 12  1  0
 24 23  1  0
 24 30  1  0
 24 25  1  1
 26 25  1  0
 27 28  1  0
 27 26  1  0
 28 29  1  0
 30 31  1  0
 32 30  2  0
M  END
$$$$
