HYK.pdb
     RDKit          3D

 32 33  0  0  1  0  0  0  0  0999 V2000
   22.8783  -12.1351  -23.1920 N   0  0  0  0  0  0  0  0  0  0  0  0
   22.4106  -11.4533  -21.9745 C   0  0  1  0  0  0  0  0  0  0  0  0
   23.5033  -11.6236  -20.9521 C   0  0  0  0  0  0  0  0  0  0  0  0
   23.5476  -12.9864  -20.3914 C   0  0  0  0  0  0  0  0  0  0  0  0
   24.4667  -13.9366  -20.7837 C   0  0  0  0  0  0  0  0  0  0  0  0
   24.2509  -15.0642  -20.0970 N   0  0  0  0  0  0  0  0  0  0  0  0
   23.2199  -14.8564  -19.2792 C   0  0  0  0  0  0  0  0  0  0  0  0
   22.7832  -13.5787  -19.4565 N   0  0  0  0  0  0  0  0  0  0  0  0
   22.3406  -10.0002  -22.3003 C   0  0  0  0  0  0  0  0  0  0  0  0
   23.0369   -9.6075  -23.2880 O   0  0  0  0  0  0  0  0  0  0  0  0
   19.8643   -2.6083  -25.6646 O   0  0  0  0  0  0  0  0  0  0  0  0
   20.0768   -3.8681  -25.0913 C   0  0  0  0  0  0  0  0  0  0  0  0
   19.1252   -4.4896  -24.3073 C   0  0  0  0  0  0  0  0  0  0  0  0
   19.3539   -5.7377  -23.7480 C   0  0  0  0  0  0  0  0  0  0  0  0
   20.5505   -6.4032  -23.9598 C   0  0  0  0  0  0  0  0  0  0  0  0
   20.8032   -7.7357  -23.3635 C   0  0  0  0  0  0  0  0  0  0  0  0
   21.3697   -7.7021  -21.9884 C   0  0  2  0  0  0  0  0  0  0  0  0
   21.5425   -9.0872  -21.5565 N   0  0  0  0  0  0  0  0  0  0  0  0
   20.5785   -6.9289  -21.0063 C   0  0  0  0  0  0  0  0  0  0  0  0
   19.4716   -7.3957  -20.6562 O   0  0  0  0  0  0  0  0  0  0  0  0
   21.4860   -5.7638  -24.7457 C   0  0  0  0  0  0  0  0  0  0  0  0
   21.2602   -4.5162  -25.3060 C   0  0  0  0  0  0  0  0  0  0  0  0
   20.9933   -5.7121  -20.4485 N   0  0  0  0  0  0  0  0  0  0  0  0
   20.0661   -4.9845  -19.4637 C   0  0  1  0  0  0  0  0  0  0  0  0
   20.7790   -4.9846  -18.1776 C   0  0  0  0  0  0  0  0  0  0  0  0
   20.2167   -4.3205  -17.0141 C   0  0  0  0  0  0  0  0  0  0  0  0
   20.8374   -4.3460  -15.6813 C   0  0  0  0  0  0  0  0  0  0  0  0
   19.9278   -3.6321  -14.6432 C   0  0  0  0  0  0  0  0  0  0  0  0
   20.4715   -3.9118  -13.3427 N   0  0  0  0  0  0  0  0  0  0  0  0
   19.8248   -3.6761  -20.1145 C   0  0  0  0  0  0  0  0  0  0  0  0
   18.7652   -2.8309  -19.9515 O   0  0  0  0  0  0  0  0  0  0  0  0
   20.7019   -3.2367  -20.9595 O   0  0  0  0  0  0  0  0  0  0  0  0
  2  1  1  6
  3  2  1  0
  3  4  1  0
  4  5  2  0
  5  6  1  0
  7  6  1  0
  8  4  1  0
  8  7  2  0
  9 18  1  0
  9  2  1  0
 10  9  2  0
 12 11  1  0
 13 12  2  0
 14 13  1  0
 15 14  2  0
 15 21  1  0
 16 15  1  0
 17 16  1  6
 17 18  1  0
 19 23  1  0
 19 17  1  0
 20 19  2  0
 21 22  2  0
 22 12  1  0
 24 23  1  0
 24 30  1  0
 24 25  1  1
 26 25  1  0
 27 28  1  0
 27 26  1  0
 28 29  1  0
 30 31  1  0
 32 30  2  0
M  END
$$$$
