SRD.pdb
     RDKit          3D

 26 25  0  0  1  0  0  0  0  0999 V2000
    9.9757  -17.5789   16.5905 O   0  0  0  0  0  0  0  0  0  0  0  0
    9.4257  -18.4161   17.5518 C   0  0  0  0  0  0  0  0  0  0  0  0
    7.9805  -18.0462   17.8224 C   0  0  2  0  0  0  0  0  0  0  0  0
    7.6770  -16.9053   16.9696 N   0  0  0  0  0  0  0  0  0  0  0  0
    7.8193  -17.5825   19.2341 C   0  0  0  0  0  0  0  0  0  0  0  0
    6.9217  -16.7728   19.5779 O   0  0  0  0  0  0  0  0  0  0  0  0
    4.8558  -22.4725   20.9627 N   0  0  0  0  0  0  0  0  0  0  0  0
    5.0105  -22.1972   22.3492 C   0  0  0  0  0  0  0  0  0  0  0  0
    4.9618  -23.1546   23.2205 N   0  0  0  0  0  0  0  0  0  0  0  0
    5.2224  -20.8839   22.8340 N   0  0  0  0  0  0  0  0  0  0  0  0
    5.2134  -19.7150   21.9896 C   0  0  0  0  0  0  0  0  0  0  0  0
    6.6500  -19.3933   21.5445 C   0  0  0  0  0  0  0  0  0  0  0  0
    7.0787  -18.0574   22.0402 C   0  0  0  0  0  0  0  0  0  0  0  0
    8.4880  -17.6822   21.6579 C   0  0  2  0  0  0  0  0  0  0  0  0
    8.6896  -18.0475   20.2580 N   0  0  0  0  0  0  0  0  0  0  0  0
    9.4513  -18.3647   22.5333 C   0  0  0  0  0  0  0  0  0  0  0  0
    9.5479  -19.6110   22.6442 O   0  0  0  0  0  0  0  0  0  0  0  0
    5.1744  -22.9838   24.2399 N   0  0  0  0  0  0  0  0  0  0  0  0
   10.3912  -17.6453   23.3603 C   0  0  1  0  0  0  0  0  0  0  0  0
   11.8217  -17.8434   23.2645 C   0  0  0  0  0  0  0  0  0  0  0  0
   12.5158  -16.7054   22.5602 C   0  0  0  0  0  0  0  0  0  0  0  0
   13.9608  -16.8598   22.4562 O   0  0  0  0  0  0  0  0  0  0  0  0
   14.4480  -17.9698   22.1412 C   0  0  0  0  0  0  0  0  0  0  0  0
   12.3461  -18.0018   24.6422 O   0  0  0  0  0  0  0  0  0  0  0  0
   13.5672  -18.6045   24.9029 O   0  0  0  0  0  0  0  0  0  0  0  0
   14.8210  -15.8072   22.6962 O   0  0  0  0  0  0  0  0  0  0  0  0
  2  1  1  0
  3  5  1  0
  3  2  1  0
  3  4  1  6
  5  6  2  0
  8  7  1  0
  8  9  2  0
 10  8  1  0
 11 10  1  0
 11 12  1  0
 12 13  1  0
 14 13  1  1
 15 14  1  0
 15  5  1  0
 16 17  2  0
 16 14  1  0
 18 16  1  0
 19 23  1  0
 19 18  1  0
 19 20  1  1
 21 20  1  0
 22 21  2  0
 23 24  1  0
 25 21  1  0
 26 23  2  0
M  END
$$$$
