SRD.pdb
     RDKit          3D

 26 25  0  0  1  0  0  0  0  0999 V2000
   11.4846  -19.7370   19.5706 O   0  0  0  0  0  0  0  0  0  0  0  0
   10.5916  -19.0710   18.7421 C   0  0  0  0  0  0  0  0  0  0  0  0
   11.0001  -17.6213   18.5675 C   0  0  2  0  0  0  0  0  0  0  0  0
   12.3229  -17.6330   17.9582 N   0  0  0  0  0  0  0  0  0  0  0  0
   11.1464  -16.9596   19.8997 C   0  0  0  0  0  0  0  0  0  0  0  0
   12.2655  -16.7820   20.4433 O   0  0  0  0  0  0  0  0  0  0  0  0
    8.0814  -11.5716   19.6047 N   0  0  0  0  0  0  0  0  0  0  0  0
    7.7472  -12.8027   18.9763 C   0  0  0  0  0  0  0  0  0  0  0  0
    7.8810  -12.9467   17.6960 N   0  0  0  0  0  0  0  0  0  0  0  0
    7.2607  -13.9115   19.7103 N   0  0  0  0  0  0  0  0  0  0  0  0
    7.1600  -13.9288   21.1488 C   0  0  0  0  0  0  0  0  0  0  0  0
    8.5674  -14.0369   21.7596 C   0  0  0  0  0  0  0  0  0  0  0  0
    8.7906  -15.3807   22.3582 C   0  0  0  0  0  0  0  0  0  0  0  0
   10.1096  -16.0090   21.9862 C   0  0  2  0  0  0  0  0  0  0  0  0
   10.0064  -16.4985   20.6137 N   0  0  0  0  0  0  0  0  0  0  0  0
   10.4360  -17.0966   22.9193 C   0  0  0  0  0  0  0  0  0  0  0  0
    9.7684  -18.1525   23.0374 O   0  0  0  0  0  0  0  0  0  0  0  0
    7.6964  -13.8716   17.2228 N   0  0  0  0  0  0  0  0  0  0  0  0
   11.5785  -17.0440   23.8008 C   0  0  1  0  0  0  0  0  0  0  0  0
   11.9108  -18.1214   24.7082 C   0  0  0  0  0  0  0  0  0  0  0  0
   13.3635  -18.5164   24.6272 C   0  0  0  0  0  0  0  0  0  0  0  0
   14.2882  -17.3908   24.6020 O   0  0  0  0  0  0  0  0  0  0  0  0
   13.8500  -16.2218   24.7038 C   0  0  0  0  0  0  0  0  0  0  0  0
   11.5671  -17.6752   26.0796 O   0  0  0  0  0  0  0  0  0  0  0  0
   11.6946  -18.5079   27.1810 O   0  0  0  0  0  0  0  0  0  0  0  0
   15.6497  -17.5745   24.4685 O   0  0  0  0  0  0  0  0  0  0  0  0
  2  1  1  0
  3  5  1  0
  3  2  1  0
  3  4  1  1
  5  6  2  0
  8  7  1  0
  8  9  2  0
 10  8  1  0
 11 10  1  0
 11 12  1  0
 12 13  1  0
 14 13  1  1
 15 14  1  0
 15  5  1  0
 16 17  2  0
 16 14  1  0
 18 16  1  0
 19 23  1  0
 19 18  1  0
 19 20  1  6
 21 20  1  0
 22 21  2  0
 23 24  1  0
 25 21  1  0
 26 23  2  0
M  END
$$$$
