SRD.pdb
     RDKit          3D

 26 25  0  0  1  0  0  0  0  0999 V2000
    9.9243  -11.3493   18.5931 O   0  0  0  0  0  0  0  0  0  0  0  0
   10.0535  -12.7010   18.8823 C   0  0  0  0  0  0  0  0  0  0  0  0
    8.7292  -13.4174   18.7029 C   0  0  2  0  0  0  0  0  0  0  0  0
    7.7017  -12.5280   19.2267 N   0  0  0  0  0  0  0  0  0  0  0  0
    8.6922  -14.6560   19.5385 C   0  0  0  0  0  0  0  0  0  0  0  0
    8.1677  -14.6819   20.6802 O   0  0  0  0  0  0  0  0  0  0  0  0
    9.9118  -22.5514   16.2447 N   0  0  0  0  0  0  0  0  0  0  0  0
   10.7730  -21.5026   16.6698 C   0  0  0  0  0  0  0  0  0  0  0  0
   11.9403  -21.3487   16.1297 N   0  0  0  0  0  0  0  0  0  0  0  0
   10.3995  -20.5914   17.6872 N   0  0  0  0  0  0  0  0  0  0  0  0
    9.2002  -20.7301   18.4758 C   0  0  0  0  0  0  0  0  0  0  0  0
    9.1404  -19.6025   19.5201 C   0  0  0  0  0  0  0  0  0  0  0  0
    9.2156  -18.2658   18.8709 C   0  0  0  0  0  0  0  0  0  0  0  0
    9.1678  -17.1090   19.8366 C   0  0  2  0  0  0  0  0  0  0  0  0
    9.2581  -15.8717   19.0653 N   0  0  0  0  0  0  0  0  0  0  0  0
   10.2636  -17.2139   20.8105 C   0  0  0  0  0  0  0  0  0  0  0  0
   11.4716  -17.0057   20.5422 O   0  0  0  0  0  0  0  0  0  0  0  0
   12.5974  -20.5855   16.4447 N   0  0  0  0  0  0  0  0  0  0  0  0
   10.0409  -17.5733   22.1911 C   0  0  2  0  0  0  0  0  0  0  0  0
   11.0968  -17.5507   23.1806 C   0  0  0  0  0  0  0  0  0  0  0  0
   10.5696  -17.6532   24.5893 C   0  0  0  0  0  0  0  0  0  0  0  0
   11.5957  -17.5594   25.6194 O   0  0  0  0  0  0  0  0  0  0  0  0
   12.7995  -17.4478   25.2919 C   0  0  0  0  0  0  0  0  0  0  0  0
   12.0144  -18.6767   22.8837 O   0  0  0  0  0  0  0  0  0  0  0  0
   13.3667  -18.4843   22.6451 O   0  0  0  0  0  0  0  0  0  0  0  0
   11.2787  -17.5891   26.9626 O   0  0  0  0  0  0  0  0  0  0  0  0
  2  1  1  0
  3  5  1  0
  3  2  1  0
  3  4  1  1
  5  6  2  0
  8  7  1  0
  8  9  2  0
 10  8  1  0
 11 10  1  0
 11 12  1  0
 12 13  1  0
 14 13  1  6
 15 14  1  0
 15  5  1  0
 16 17  2  0
 16 14  1  0
 18 16  1  0
 19 23  1  0
 19 18  1  0
 19 20  1  1
 21 20  1  0
 22 21  2  0
 23 24  1  0
 25 21  1  0
 26 23  2  0
M  END
$$$$
