SRD.pdb
     RDKit          3D

 26 25  0  0  1  0  0  0  0  0999 V2000
   10.0978  -20.9868   22.9745 O   0  0  0  0  0  0  0  0  0  0  0  0
    8.8167  -20.9319   22.4424 C   0  0  0  0  0  0  0  0  0  0  0  0
    8.8063  -20.1421   21.1483 C   0  0  2  0  0  0  0  0  0  0  0  0
    9.5551  -20.9270   20.1765 N   0  0  0  0  0  0  0  0  0  0  0  0
    9.5445  -18.8540   21.3207 C   0  0  0  0  0  0  0  0  0  0  0  0
   10.7149  -18.6871   20.8944 O   0  0  0  0  0  0  0  0  0  0  0  0
    8.1443  -11.2552   19.3663 N   0  0  0  0  0  0  0  0  0  0  0  0
    7.6328  -12.5020   18.9125 C   0  0  0  0  0  0  0  0  0  0  0  0
    7.9218  -12.9413   17.7286 N   0  0  0  0  0  0  0  0  0  0  0  0
    6.7971  -13.3091   19.7219 N   0  0  0  0  0  0  0  0  0  0  0  0
    7.1712  -13.7713   21.0357 C   0  0  0  0  0  0  0  0  0  0  0  0
    8.2441  -14.8658   20.9075 C   0  0  0  0  0  0  0  0  0  0  0  0
    8.6475  -15.3807   22.2440 C   0  0  0  0  0  0  0  0  0  0  0  0
    9.6598  -16.4968   22.1938 C   0  0  2  0  0  0  0  0  0  0  0  0
    8.9406  -17.7509   21.9843 N   0  0  0  0  0  0  0  0  0  0  0  0
   10.4424  -16.5298   23.4374 C   0  0  0  0  0  0  0  0  0  0  0  0
    9.9456  -16.4734   24.5884 O   0  0  0  0  0  0  0  0  0  0  0  0
    7.5900  -13.8856   17.3946 N   0  0  0  0  0  0  0  0  0  0  0  0
   11.8827  -16.6325   23.4436 C   0  0  1  0  0  0  0  0  0  0  0  0
   12.6391  -16.8856   24.6513 C   0  0  0  0  0  0  0  0  0  0  0  0
   12.2492  -18.1819   25.3150 C   0  0  0  0  0  0  0  0  0  0  0  0
   13.0248  -18.4997   26.5068 O   0  0  0  0  0  0  0  0  0  0  0  0
   13.8468  -17.6680   26.9556 C   0  0  0  0  0  0  0  0  0  0  0  0
   14.0760  -16.8977   24.2866 O   0  0  0  0  0  0  0  0  0  0  0  0
   14.5119  -16.6524   22.9934 O   0  0  0  0  0  0  0  0  0  0  0  0
   12.8796  -19.7038   27.1658 O   0  0  0  0  0  0  0  0  0  0  0  0
  2  1  1  0
  3  5  1  0
  3  2  1  0
  3  4  1  6
  5  6  2  0
  8  7  1  0
  8  9  2  0
 10  8  1  0
 11 10  1  0
 11 12  1  0
 12 13  1  0
 14 13  1  1
 15 14  1  0
 15  5  1  0
 16 17  2  0
 16 14  1  0
 18 16  1  0
 19 23  1  0
 19 18  1  0
 19 20  1  6
 21 20  1  0
 22 21  2  0
 23 24  1  0
 25 21  1  0
 26 23  2  0
M  END
$$$$
