SRD.pdb
     RDKit          3D

 26 25  0  0  1  0  0  0  0  0999 V2000
    7.8368  -13.2304   20.8149 O   0  0  0  0  0  0  0  0  0  0  0  0
    8.2503  -12.2806   19.8906 C   0  0  0  0  0  0  0  0  0  0  0  0
    8.5963  -12.9345   18.5671 C   0  0  2  0  0  0  0  0  0  0  0  0
    7.3712  -13.5493   18.0748 N   0  0  0  0  0  0  0  0  0  0  0  0
    9.5785  -14.0413   18.7765 C   0  0  0  0  0  0  0  0  0  0  0  0
    9.2290  -15.2464   18.8480 O   0  0  0  0  0  0  0  0  0  0  0  0
   14.0174  -14.3365   13.1214 N   0  0  0  0  0  0  0  0  0  0  0  0
   14.8005  -14.7276   14.2423 C   0  0  0  0  0  0  0  0  0  0  0  0
   16.0899  -14.8096   14.1489 N   0  0  0  0  0  0  0  0  0  0  0  0
   14.2156  -15.0400   15.4933 N   0  0  0  0  0  0  0  0  0  0  0  0
   14.9802  -15.4346   16.6506 C   0  0  0  0  0  0  0  0  0  0  0  0
   14.0297  -15.6717   17.8362 C   0  0  0  0  0  0  0  0  0  0  0  0
   12.9309  -14.6685   17.8519 C   0  0  0  0  0  0  0  0  0  0  0  0
   11.9546  -14.8426   18.9874 C   0  0  2  0  0  0  0  0  0  0  0  0
   10.9681  -13.7683   18.9047 N   0  0  0  0  0  0  0  0  0  0  0  0
   12.6629  -14.8209   20.2750 C   0  0  0  0  0  0  0  0  0  0  0  0
   13.2003  -13.8009   20.7704 O   0  0  0  0  0  0  0  0  0  0  0  0
   16.6844  -15.1056   14.9689 N   0  0  0  0  0  0  0  0  0  0  0  0
   12.8054  -15.9971   21.1005 C   0  0  1  0  0  0  0  0  0  0  0  0
   13.4529  -15.9652   22.3944 C   0  0  0  0  0  0  0  0  0  0  0  0
   12.9524  -17.0476   23.3168 C   0  0  0  0  0  0  0  0  0  0  0  0
   11.5359  -16.9469   23.6428 O   0  0  0  0  0  0  0  0  0  0  0  0
   11.0359  -15.8302   23.9107 C   0  0  0  0  0  0  0  0  0  0  0  0
   14.9117  -16.1043   22.1699 O   0  0  0  0  0  0  0  0  0  0  0  0
   15.8334  -15.9680   23.1967 O   0  0  0  0  0  0  0  0  0  0  0  0
   10.7169  -18.0577   23.6652 O   0  0  0  0  0  0  0  0  0  0  0  0
  2  1  1  0
  3  5  1  0
  3  2  1  0
  3  4  1  1
  5  6  2  0
  8  7  1  0
  8  9  2  0
 10  8  1  0
 11 10  1  0
 11 12  1  0
 12 13  1  0
 14 13  1  6
 15 14  1  0
 15  5  1  0
 16 17  2  0
 16 14  1  0
 18 16  1  0
 19 23  1  0
 19 18  1  0
 19 20  1  1
 21 20  1  0
 22 21  2  0
 23 24  1  0
 25 21  1  0
 26 23  2  0
M  END
$$$$
