SRD.pdb
     RDKit          3D

 26 25  0  0  1  0  0  0  0  0999 V2000
    6.3531  -20.6462   18.0068 O   0  0  0  0  0  0  0  0  0  0  0  0
    7.1343  -21.7354   18.3682 C   0  0  0  0  0  0  0  0  0  0  0  0
    7.5138  -21.6611   19.8343 C   0  0  2  0  0  0  0  0  0  0  0  0
    6.2664  -21.6047   20.5838 N   0  0  0  0  0  0  0  0  0  0  0  0
    8.2432  -20.3877   20.1173 C   0  0  0  0  0  0  0  0  0  0  0  0
    9.3827  -20.1459   19.6455 O   0  0  0  0  0  0  0  0  0  0  0  0
   10.3743  -13.1085   19.9498 N   0  0  0  0  0  0  0  0  0  0  0  0
    8.9746  -12.9949   19.7256 C   0  0  0  0  0  0  0  0  0  0  0  0
    8.5218  -12.3360   18.7064 N   0  0  0  0  0  0  0  0  0  0  0  0
    8.0256  -13.5886   20.5927 N   0  0  0  0  0  0  0  0  0  0  0  0
    7.5534  -14.9432   20.4446 C   0  0  0  0  0  0  0  0  0  0  0  0
    7.8083  -15.7199   21.7474 C   0  0  0  0  0  0  0  0  0  0  0  0
    7.3050  -17.1164   21.6465 C   0  0  0  0  0  0  0  0  0  0  0  0
    8.3397  -18.1121   21.1870 C   0  0  2  0  0  0  0  0  0  0  0  0
    7.6660  -19.3854   20.9445 N   0  0  0  0  0  0  0  0  0  0  0  0
    9.3971  -18.2500   22.1984 C   0  0  0  0  0  0  0  0  0  0  0  0
    9.2214  -18.7256   23.3462 O   0  0  0  0  0  0  0  0  0  0  0  0
    7.4901  -12.2981   18.4883 N   0  0  0  0  0  0  0  0  0  0  0  0
   10.7604  -17.8414   21.9542 C   0  0  2  0  0  0  0  0  0  0  0  0
   11.8024  -17.9751   22.9497 C   0  0  0  0  0  0  0  0  0  0  0  0
   13.1138  -18.4223   22.3556 C   0  0  0  0  0  0  0  0  0  0  0  0
   14.2005  -18.5307   23.3201 O   0  0  0  0  0  0  0  0  0  0  0  0
   14.7931  -17.4983   23.7100 C   0  0  0  0  0  0  0  0  0  0  0  0
   11.9541  -16.6612   23.6197 O   0  0  0  0  0  0  0  0  0  0  0  0
   11.5704  -15.4745   23.0138 O   0  0  0  0  0  0  0  0  0  0  0  0
   14.6022  -19.7510   23.8248 O   0  0  0  0  0  0  0  0  0  0  0  0
  2  1  1  0
  3  5  1  0
  3  2  1  0
  3  4  1  1
  5  6  2  0
  8  7  1  0
  8  9  2  0
 10  8  1  0
 11 10  1  0
 11 12  1  0
 12 13  1  0
 14 13  1  1
 15 14  1  0
 15  5  1  0
 16 17  2  0
 16 14  1  0
 18 16  1  0
 19 23  1  0
 19 18  1  0
 19 20  1  6
 21 20  1  0
 22 21  2  0
 23 24  1  0
 25 21  1  0
 26 23  2  0
M  END
$$$$
