SRD.pdb
     RDKit          3D

 26 25  0  0  1  0  0  0  0  0999 V2000
    8.0884  -18.6580   28.1906 O   0  0  0  0  0  0  0  0  0  0  0  0
    8.5995  -18.4266   26.9207 C   0  0  0  0  0  0  0  0  0  0  0  0
    7.5513  -18.7053   25.8612 C   0  0  2  0  0  0  0  0  0  0  0  0
    7.4859  -20.1527   25.7124 N   0  0  0  0  0  0  0  0  0  0  0  0
    7.9891  -18.1570   24.5415 C   0  0  0  0  0  0  0  0  0  0  0  0
    8.5065  -18.8781   23.6516 O   0  0  0  0  0  0  0  0  0  0  0  0
    7.8227  -14.1684   17.0785 N   0  0  0  0  0  0  0  0  0  0  0  0
    8.2631  -13.5228   18.2665 C   0  0  0  0  0  0  0  0  0  0  0  0
    8.0380  -12.2608   18.4530 N   0  0  0  0  0  0  0  0  0  0  0  0
    8.9569  -14.2193   19.2855 N   0  0  0  0  0  0  0  0  0  0  0  0
    8.2964  -14.9543   20.3358 C   0  0  0  0  0  0  0  0  0  0  0  0
    8.2915  -14.1142   21.6241 C   0  0  0  0  0  0  0  0  0  0  0  0
    7.7223  -14.8831   22.7637 C   0  0  0  0  0  0  0  0  0  0  0  0
    8.4315  -16.1836   23.0442 C   0  0  2  0  0  0  0  0  0  0  0  0
    7.8340  -16.7765   24.2381 N   0  0  0  0  0  0  0  0  0  0  0  0
    9.8709  -15.9490   23.2259 C   0  0  0  0  0  0  0  0  0  0  0  0
   10.3627  -15.2310   24.1300 O   0  0  0  0  0  0  0  0  0  0  0  0
    8.4183  -11.7513   19.2951 N   0  0  0  0  0  0  0  0  0  0  0  0
   10.8667  -16.5372   22.3615 C   0  0  1  0  0  0  0  0  0  0  0  0
   12.2864  -16.3452   22.5673 C   0  0  0  0  0  0  0  0  0  0  0  0
   13.0606  -17.6365   22.4883 C   0  0  0  0  0  0  0  0  0  0  0  0
   13.4758  -18.1641   23.7813 O   0  0  0  0  0  0  0  0  0  0  0  0
   13.2752  -17.4951   24.8210 C   0  0  0  0  0  0  0  0  0  0  0  0
   12.7631  -15.3874   21.5410 O   0  0  0  0  0  0  0  0  0  0  0  0
   13.9660  -14.7091   21.6659 O   0  0  0  0  0  0  0  0  0  0  0  0
   14.0905  -19.3945   23.8981 O   0  0  0  0  0  0  0  0  0  0  0  0
  2  1  1  0
  3  5  1  0
  3  2  1  0
  3  4  1  6
  5  6  2  0
  8  7  1  0
  8  9  2  0
 10  8  1  0
 11 10  1  0
 11 12  1  0
 12 13  1  0
 14 13  1  1
 15 14  1  0
 15  5  1  0
 16 17  2  0
 16 14  1  0
 18 16  1  0
 19 23  1  0
 19 18  1  0
 19 20  1  6
 21 20  1  0
 22 21  2  0
 23 24  1  0
 25 21  1  0
 26 23  2  0
M  END
$$$$
