SRD.pdb
     RDKit          3D

 26 25  0  0  1  0  0  0  0  0999 V2000
   13.0944  -20.8440   19.2169 O   0  0  0  0  0  0  0  0  0  0  0  0
   11.9399  -20.8645   18.4461 C   0  0  0  0  0  0  0  0  0  0  0  0
   11.7375  -19.5344   17.7470 C   0  0  2  0  0  0  0  0  0  0  0  0
   12.8975  -19.3353   16.8891 N   0  0  0  0  0  0  0  0  0  0  0  0
   11.7426  -18.4193   18.7422 C   0  0  0  0  0  0  0  0  0  0  0  0
   12.7729  -17.7437   18.9902 O   0  0  0  0  0  0  0  0  0  0  0  0
    7.5776  -11.9859   22.0175 N   0  0  0  0  0  0  0  0  0  0  0  0
    7.6201  -12.7272   20.8047 C   0  0  0  0  0  0  0  0  0  0  0  0
    7.9923  -12.1626   19.6999 N   0  0  0  0  0  0  0  0  0  0  0  0
    7.2635  -14.0964   20.7499 N   0  0  0  0  0  0  0  0  0  0  0  0
    7.5387  -15.0315   21.8126 C   0  0  0  0  0  0  0  0  0  0  0  0
    8.9986  -15.5051   21.7130 C   0  0  0  0  0  0  0  0  0  0  0  0
    9.1515  -16.5569   20.6717 C   0  0  0  0  0  0  0  0  0  0  0  0
   10.5676  -17.0410   20.4891 C   0  0  2  0  0  0  0  0  0  0  0  0
   10.5628  -18.0751   19.4574 N   0  0  0  0  0  0  0  0  0  0  0  0
   11.0970  -17.5553   21.7601 C   0  0  0  0  0  0  0  0  0  0  0  0
   10.7626  -18.6495   22.2754 O   0  0  0  0  0  0  0  0  0  0  0  0
    7.9498  -12.6738   18.7778 N   0  0  0  0  0  0  0  0  0  0  0  0
   12.0696  -16.8308   22.5437 C   0  0  2  0  0  0  0  0  0  0  0  0
   12.5976  -17.3395   23.7916 C   0  0  0  0  0  0  0  0  0  0  0  0
   13.7955  -16.5601   24.2716 C   0  0  0  0  0  0  0  0  0  0  0  0
   14.8986  -16.5145   23.3209 O   0  0  0  0  0  0  0  0  0  0  0  0
   14.8971  -17.2772   22.3274 C   0  0  0  0  0  0  0  0  0  0  0  0
   11.5065  -17.2892   24.7942 O   0  0  0  0  0  0  0  0  0  0  0  0
   11.5949  -17.9402   26.0153 O   0  0  0  0  0  0  0  0  0  0  0  0
   15.9587  -15.6454   23.4824 O   0  0  0  0  0  0  0  0  0  0  0  0
  2  1  1  0
  3  5  1  0
  3  2  1  0
  3  4  1  6
  5  6  2  0
  8  7  1  0
  8  9  2  0
 10  8  1  0
 11 10  1  0
 11 12  1  0
 12 13  1  0
 14 13  1  1
 15 14  1  0
 15  5  1  0
 16 17  2  0
 16 14  1  0
 18 16  1  0
 19 23  1  0
 19 18  1  0
 19 20  1  6
 21 20  1  0
 22 21  2  0
 23 24  1  0
 25 21  1  0
 26 23  2  0
M  END
$$$$
