SRD.pdb
     RDKit          3D

 26 25  0  0  1  0  0  0  0  0999 V2000
   10.0107  -18.5729   14.4288 O   0  0  0  0  0  0  0  0  0  0  0  0
   11.0392  -17.7277   14.8229 C   0  0  0  0  0  0  0  0  0  0  0  0
   10.5771  -16.2836   14.8229 C   0  0  2  0  0  0  0  0  0  0  0  0
   11.0904  -15.6832   13.5993 N   0  0  0  0  0  0  0  0  0  0  0  0
   11.1992  -15.5399   15.9603 C   0  0  0  0  0  0  0  0  0  0  0  0
   12.3390  -15.0167   15.8788 O   0  0  0  0  0  0  0  0  0  0  0  0
    5.8268  -13.3762   21.9487 N   0  0  0  0  0  0  0  0  0  0  0  0
    7.2131  -13.6563   22.0962 C   0  0  0  0  0  0  0  0  0  0  0  0
    7.7166  -13.8938   23.2658 N   0  0  0  0  0  0  0  0  0  0  0  0
    8.0937  -13.6888   20.9879 N   0  0  0  0  0  0  0  0  0  0  0  0
    7.6990  -13.3245   19.6496 C   0  0  0  0  0  0  0  0  0  0  0  0
    8.9222  -13.3883   18.7194 C   0  0  0  0  0  0  0  0  0  0  0  0
    9.9638  -14.3002   19.2647 C   0  0  0  0  0  0  0  0  0  0  0  0
   11.0764  -14.6128   18.2965 C   0  0  2  0  0  0  0  0  0  0  0  0
   10.5138  -15.3938   17.1976 N   0  0  0  0  0  0  0  0  0  0  0  0
   12.1527  -15.3457   18.9780 C   0  0  0  0  0  0  0  0  0  0  0  0
   12.1657  -16.5890   19.1473 O   0  0  0  0  0  0  0  0  0  0  0  0
    8.7498  -14.0632   23.3974 N   0  0  0  0  0  0  0  0  0  0  0  0
   13.3147  -14.6848   19.5239 C   0  0  2  0  0  0  0  0  0  0  0  0
   14.3721  -15.4043   20.2011 C   0  0  0  0  0  0  0  0  0  0  0  0
   15.6882  -14.6701   20.1590 C   0  0  0  0  0  0  0  0  0  0  0  0
   16.1856  -14.4122   18.8141 O   0  0  0  0  0  0  0  0  0  0  0  0
   15.9822  -15.2477   17.9034 C   0  0  0  0  0  0  0  0  0  0  0  0
   13.9407  -15.6219   21.6028 O   0  0  0  0  0  0  0  0  0  0  0  0
   12.7454  -15.1194   22.0941 O   0  0  0  0  0  0  0  0  0  0  0  0
   16.8824  -13.2606   18.5078 O   0  0  0  0  0  0  0  0  0  0  0  0
  2  1  1  0
  3  5  1  0
  3  2  1  0
  3  4  1  6
  5  6  2  0
  8  7  1  0
  8  9  2  0
 10  8  1  0
 11 10  1  0
 11 12  1  0
 12 13  1  0
 14 13  1  1
 15 14  1  0
 15  5  1  0
 16 17  2  0
 16 14  1  0
 18 16  1  0
 19 23  1  0
 19 18  1  0
 19 20  1  1
 21 20  1  0
 22 21  2  0
 23 24  1  0
 25 21  1  0
 26 23  2  0
M  END
$$$$
