SRD.pdb
     RDKit          3D

 26 25  0  0  1  0  0  0  0  0999 V2000
    9.9415  -21.1787   23.4993 O   0  0  0  0  0  0  0  0  0  0  0  0
    8.6252  -20.9914   23.0996 C   0  0  0  0  0  0  0  0  0  0  0  0
    8.5669  -20.3779   21.7143 C   0  0  2  0  0  0  0  0  0  0  0  0
    9.1488  -21.3538   20.8031 N   0  0  0  0  0  0  0  0  0  0  0  0
    9.4313  -19.1605   21.6493 C   0  0  0  0  0  0  0  0  0  0  0  0
   10.6189  -19.1997   21.2397 O   0  0  0  0  0  0  0  0  0  0  0  0
    8.5144  -11.8436   19.5454 N   0  0  0  0  0  0  0  0  0  0  0  0
    7.7054  -12.7734   18.8360 C   0  0  0  0  0  0  0  0  0  0  0  0
    7.7577  -12.8405   17.5434 N   0  0  0  0  0  0  0  0  0  0  0  0
    6.8193  -13.6559   19.4999 N   0  0  0  0  0  0  0  0  0  0  0  0
    7.0837  -14.2148   20.8027 C   0  0  0  0  0  0  0  0  0  0  0  0
    8.1816  -15.2857   20.6876 C   0  0  0  0  0  0  0  0  0  0  0  0
    8.8698  -15.4907   21.9908 C   0  0  0  0  0  0  0  0  0  0  0  0
    9.7744  -16.6963   22.0263 C   0  0  2  0  0  0  0  0  0  0  0  0
    8.9347  -17.8913   22.0548 N   0  0  0  0  0  0  0  0  0  0  0  0
   10.6580  -16.6347   23.1991 C   0  0  0  0  0  0  0  0  0  0  0  0
   10.2903  -16.8696   24.3757 O   0  0  0  0  0  0  0  0  0  0  0  0
    7.1170  -13.4773   16.9979 N   0  0  0  0  0  0  0  0  0  0  0  0
   12.0568  -16.2913   23.0978 C   0  0  2  0  0  0  0  0  0  0  0  0
   13.0148  -16.6188   24.1320 C   0  0  0  0  0  0  0  0  0  0  0  0
   12.9861  -18.0796   24.5034 C   0  0  0  0  0  0  0  0  0  0  0  0
   13.9899  -18.4661   25.4861 O   0  0  0  0  0  0  0  0  0  0  0  0
   14.7499  -17.5987   25.9749 C   0  0  0  0  0  0  0  0  0  0  0  0
   14.3582  -16.2324   23.6380 O   0  0  0  0  0  0  0  0  0  0  0  0
   15.3963  -15.9078   24.4980 O   0  0  0  0  0  0  0  0  0  0  0  0
   14.1311  -19.7749   25.9013 O   0  0  0  0  0  0  0  0  0  0  0  0
  2  1  1  0
  3  5  1  0
  3  2  1  0
  3  4  1  6
  5  6  2  0
  8  7  1  0
  8  9  2  0
 10  8  1  0
 11 10  1  0
 11 12  1  0
 12 13  1  0
 14 13  1  1
 15 14  1  0
 15  5  1  0
 16 17  2  0
 16 14  1  0
 18 16  1  0
 19 23  1  0
 19 18  1  0
 19 20  1  6
 21 20  1  0
 22 21  2  0
 23 24  1  0
 25 21  1  0
 26 23  2  0
M  END
$$$$
