SRD.pdb
     RDKit          3D

 26 25  0  0  1  0  0  0  0  0999 V2000
   13.2374  -18.7691   17.1387 O   0  0  0  0  0  0  0  0  0  0  0  0
   12.0591  -18.4025   16.5026 C   0  0  0  0  0  0  0  0  0  0  0  0
   12.1356  -16.9687   16.0157 C   0  0  2  0  0  0  0  0  0  0  0  0
   13.0712  -16.9584   14.8996 N   0  0  0  0  0  0  0  0  0  0  0  0
   12.7206  -16.0916   17.0750 C   0  0  0  0  0  0  0  0  0  0  0  0
   13.9376  -15.7784   17.0927 O   0  0  0  0  0  0  0  0  0  0  0  0
    7.7887  -13.6596   17.0040 N   0  0  0  0  0  0  0  0  0  0  0  0
    7.3808  -12.9242   18.1508 C   0  0  0  0  0  0  0  0  0  0  0  0
    6.1349  -12.8916   18.5040 N   0  0  0  0  0  0  0  0  0  0  0  0
    8.3040  -12.2049   18.9479 N   0  0  0  0  0  0  0  0  0  0  0  0
    9.2290  -12.8364   19.8562 C   0  0  0  0  0  0  0  0  0  0  0  0
   10.4015  -13.4339   19.0602 C   0  0  0  0  0  0  0  0  0  0  0  0
   11.3638  -14.1254   19.9601 C   0  0  0  0  0  0  0  0  0  0  0  0
   12.4855  -14.8283   19.2385 C   0  0  2  0  0  0  0  0  0  0  0  0
   11.9092  -15.5699   18.1197 N   0  0  0  0  0  0  0  0  0  0  0  0
   13.2025  -15.7209   20.1600 C   0  0  0  0  0  0  0  0  0  0  0  0
   12.8105  -16.8685   20.4826 O   0  0  0  0  0  0  0  0  0  0  0  0
    5.8191  -12.3688   19.3644 N   0  0  0  0  0  0  0  0  0  0  0  0
   14.4479  -15.3474   20.7882 C   0  0  1  0  0  0  0  0  0  0  0  0
   15.2310  -16.2758   21.5752 C   0  0  0  0  0  0  0  0  0  0  0  0
   16.0203  -17.2343   20.7201 C   0  0  0  0  0  0  0  0  0  0  0  0
   16.5763  -18.3665   21.4491 O   0  0  0  0  0  0  0  0  0  0  0  0
   16.3278  -18.5051   22.6689 C   0  0  0  0  0  0  0  0  0  0  0  0
   16.1361  -15.4800   22.4386 O   0  0  0  0  0  0  0  0  0  0  0  0
   16.8612  -16.0513   23.4732 O   0  0  0  0  0  0  0  0  0  0  0  0
   17.3781  -19.3039   20.8296 O   0  0  0  0  0  0  0  0  0  0  0  0
  2  1  1  0
  3  5  1  0
  3  2  1  0
  3  4  1  6
  5  6  2  0
  8  7  1  0
  8  9  2  0
 10  8  1  0
 11 10  1  0
 11 12  1  0
 12 13  1  0
 14 13  1  1
 15 14  1  0
 15  5  1  0
 16 17  2  0
 16 14  1  0
 18 16  1  0
 19 23  1  0
 19 18  1  0
 19 20  1  1
 21 20  1  0
 22 21  2  0
 23 24  1  0
 25 21  1  0
 26 23  2  0
M  END
$$$$
