SRD.pdb
     RDKit          3D

 26 25  0  0  1  0  0  0  0  0999 V2000
   13.6630  -19.9367   17.9946 O   0  0  0  0  0  0  0  0  0  0  0  0
   12.4325  -19.6694   17.4098 C   0  0  0  0  0  0  0  0  0  0  0  0
   12.3687  -18.2341   16.9255 C   0  0  2  0  0  0  0  0  0  0  0  0
   13.5356  -18.0292   16.0784 N   0  0  0  0  0  0  0  0  0  0  0  0
   12.5032  -17.2915   18.0776 C   0  0  0  0  0  0  0  0  0  0  0  0
   13.5587  -16.6462   18.2992 O   0  0  0  0  0  0  0  0  0  0  0  0
    6.8531  -15.1224   19.9598 N   0  0  0  0  0  0  0  0  0  0  0  0
    7.3768  -13.8321   20.2482 C   0  0  0  0  0  0  0  0  0  0  0  0
    7.1162  -12.8270   19.4736 N   0  0  0  0  0  0  0  0  0  0  0  0
    8.1942  -13.5900   21.3787 N   0  0  0  0  0  0  0  0  0  0  0  0
    8.7042  -14.6376   22.2284 C   0  0  0  0  0  0  0  0  0  0  0  0
   10.1477  -14.9736   21.8175 C   0  0  0  0  0  0  0  0  0  0  0  0
   10.1722  -15.8996   20.6531 C   0  0  0  0  0  0  0  0  0  0  0  0
   11.5565  -16.2122   20.1442 C   0  0  2  0  0  0  0  0  0  0  0  0
   11.4244  -17.0857   18.9808 N   0  0  0  0  0  0  0  0  0  0  0  0
   12.3559  -16.8465   21.2019 C   0  0  0  0  0  0  0  0  0  0  0  0
   12.2742  -18.0572   21.5216 O   0  0  0  0  0  0  0  0  0  0  0  0
    7.5283  -11.8721   19.6519 N   0  0  0  0  0  0  0  0  0  0  0  0
   13.3266  -16.1160   21.9825 C   0  0  2  0  0  0  0  0  0  0  0  0
   14.1725  -16.7555   22.9675 C   0  0  0  0  0  0  0  0  0  0  0  0
   15.4506  -15.9941   23.2118 C   0  0  0  0  0  0  0  0  0  0  0  0
   16.3482  -16.6255   24.1700 O   0  0  0  0  0  0  0  0  0  0  0  0
   16.4655  -16.1486   25.3223 C   0  0  0  0  0  0  0  0  0  0  0  0
   13.3896  -16.8767   24.2206 O   0  0  0  0  0  0  0  0  0  0  0  0
   13.6926  -17.8178   25.1927 O   0  0  0  0  0  0  0  0  0  0  0  0
   17.0825  -17.7480   23.8440 O   0  0  0  0  0  0  0  0  0  0  0  0
  2  1  1  0
  3  5  1  0
  3  2  1  0
  3  4  1  6
  5  6  2  0
  8  7  1  0
  8  9  2  0
 10  8  1  0
 11 10  1  0
 11 12  1  0
 12 13  1  0
 14 13  1  1
 15 14  1  0
 15  5  1  0
 16 17  2  0
 16 14  1  0
 18 16  1  0
 19 23  1  0
 19 18  1  0
 19 20  1  6
 21 20  1  0
 22 21  2  0
 23 24  1  0
 25 21  1  0
 26 23  2  0
M  END
$$$$
