SRD.pdb
     RDKit          3D

 26 25  0  0  1  0  0  0  0  0999 V2000
    7.9433  -21.3640   22.1144 O   0  0  0  0  0  0  0  0  0  0  0  0
    8.0888  -21.7308   20.7833 C   0  0  0  0  0  0  0  0  0  0  0  0
    7.6344  -20.6126   19.8656 C   0  0  2  0  0  0  0  0  0  0  0  0
    7.9338  -21.0429   18.5068 N   0  0  0  0  0  0  0  0  0  0  0  0
    8.4404  -19.3786   20.1131 C   0  0  0  0  0  0  0  0  0  0  0  0
    9.5794  -19.2070   19.6104 O   0  0  0  0  0  0  0  0  0  0  0  0
    7.0830  -12.9272   17.8063 N   0  0  0  0  0  0  0  0  0  0  0  0
    8.1446  -12.8800   18.7513 C   0  0  0  0  0  0  0  0  0  0  0  0
    9.3661  -13.1018   18.3818 N   0  0  0  0  0  0  0  0  0  0  0  0
    7.9188  -12.5919   20.1191 N   0  0  0  0  0  0  0  0  0  0  0  0
    7.2702  -13.5063   21.0263 C   0  0  0  0  0  0  0  0  0  0  0  0
    8.2548  -14.6194   21.4228 C   0  0  0  0  0  0  0  0  0  0  0  0
    7.6564  -15.9652   21.2113 C   0  0  0  0  0  0  0  0  0  0  0  0
    8.6671  -17.0792   21.1098 C   0  0  2  0  0  0  0  0  0  0  0  0
    7.9407  -18.3351   20.9398 N   0  0  0  0  0  0  0  0  0  0  0  0
    9.5138  -17.1088   22.3108 C   0  0  0  0  0  0  0  0  0  0  0  0
    9.1058  -17.4147   23.4574 O   0  0  0  0  0  0  0  0  0  0  0  0
   10.1671  -13.0527   19.0669 N   0  0  0  0  0  0  0  0  0  0  0  0
   10.9197  -16.7815   22.2756 C   0  0  2  0  0  0  0  0  0  0  0  0
   11.7438  -16.7626   23.4652 C   0  0  0  0  0  0  0  0  0  0  0  0
   12.9851  -15.9244   23.2938 C   0  0  0  0  0  0  0  0  0  0  0  0
   13.8008  -16.2929   22.1443 O   0  0  0  0  0  0  0  0  0  0  0  0
   13.8001  -17.4760   21.7331 C   0  0  0  0  0  0  0  0  0  0  0  0
   10.9133  -16.2437   24.5783 O   0  0  0  0  0  0  0  0  0  0  0  0
   11.0434  -16.7113   25.8771 O   0  0  0  0  0  0  0  0  0  0  0  0
   14.5839  -15.3669   21.4849 O   0  0  0  0  0  0  0  0  0  0  0  0
  2  1  1  0
  3  5  1  0
  3  2  1  0
  3  4  1  6
  5  6  2  0
  8  7  1  0
  8  9  2  0
 10  8  1  0
 11 10  1  0
 11 12  1  0
 12 13  1  0
 14 13  1  1
 15 14  1  0
 15  5  1  0
 16 17  2  0
 16 14  1  0
 18 16  1  0
 19 23  1  0
 19 18  1  0
 19 20  1  6
 21 20  1  0
 22 21  2  0
 23 24  1  0
 25 21  1  0
 26 23  2  0
M  END
$$$$
