NAY.pdb
     RDKit          3D

 26 26  0  0  1  0  0  0  0  0999 V2000
   15.7238  -12.0394  -17.6129 N   0  0  0  0  0  0  0  0  0  0  0  0
   15.5995  -11.4021  -16.3441 C   0  0  0  0  0  0  0  0  0  0  0  0
   14.4971  -11.3428  -15.7598 O   0  0  0  0  0  0  0  0  0  0  0  0
   16.8108  -10.8105  -15.7327 C   0  0  0  0  0  0  0  0  0  0  0  0
   18.0096  -11.6961  -16.0613 C   0  0  2  0  0  0  0  0  0  0  0  0
   18.0355  -12.8578  -15.1980 N   0  0  0  0  0  0  0  0  0  0  0  0
   19.2157  -10.8784  -15.7774 C   0  0  0  0  0  0  0  0  0  0  0  0
   19.4768  -10.5052  -14.6126 O   0  0  0  0  0  0  0  0  0  0  0  0
   22.2814   -9.8602  -17.6629 C   0  0  0  0  0  0  0  0  0  0  0  0
   21.3224   -9.7680  -16.4703 C   0  0  2  0  0  0  0  0  0  0  0  0
   20.1194  -10.4894  -16.8230 N   0  0  0  0  0  0  0  0  0  0  0  0
   21.0297   -8.3171  -16.2810 C   0  0  0  0  0  0  0  0  0  0  0  0
   20.0007   -7.8305  -16.8590 O   0  0  0  0  0  0  0  0  0  0  0  0
   21.6262    0.0714  -13.5632 O   0  0  0  0  0  0  0  0  0  0  0  0
   21.7959   -1.3196  -13.6982 C   0  0  0  0  0  0  0  0  0  0  0  0
   22.8338   -1.8455  -14.4352 C   0  0  0  0  0  0  0  0  0  0  0  0
   23.0300   -3.2008  -14.5883 C   0  0  0  0  0  0  0  0  0  0  0  0
   22.1455   -4.0885  -13.9749 C   0  0  0  0  0  0  0  0  0  0  0  0
   22.3684   -5.5391  -14.1449 C   0  0  0  0  0  0  0  0  0  0  0  0
   21.6468   -6.1214  -15.3435 C   0  0  2  0  0  0  0  0  0  0  0  0
   21.8820   -7.5275  -15.4806 N   0  0  0  0  0  0  0  0  0  0  0  0
   22.0977   -5.3663  -16.5411 C   0  0  0  0  0  0  0  0  0  0  0  0
   21.2710   -4.3442  -17.0001 O   0  0  0  0  0  0  0  0  0  0  0  0
   21.1078   -3.5622  -13.2379 C   0  0  0  0  0  0  0  0  0  0  0  0
   20.9236   -2.1984  -13.0932 C   0  0  0  0  0  0  0  0  0  0  0  0
   23.1723   -5.6145  -17.1362 O   0  0  0  0  0  0  0  0  0  0  0  0
  2  3  2  0
  2  1  1  0
  4  2  1  0
  5  4  1  0
  5  7  1  0
  5  6  1  1
  7  8  2  0
 10  9  1  6
 11  7  1  0
 11 10  1  0
 12 10  1  0
 12 21  1  0
 13 12  2  0
 15 14  1  0
 16 15  2  0
 17 16  1  0
 18 24  1  0
 18 17  2  0
 19 18  1  0
 20 21  1  0
 20 19  1  1
 22 23  1  0
 22 20  1  0
 24 25  2  0
 25 15  1  0
 26 22  2  0
M  END
$$$$
