NAY.pdb
     RDKit          3D

 26 26  0  0  1  0  0  0  0  0999 V2000
   15.2735  -12.3851  -16.0652 N   0  0  0  0  0  0  0  0  0  0  0  0
   15.9625  -11.2574  -15.5315 C   0  0  0  0  0  0  0  0  0  0  0  0
   15.3371  -10.2571  -15.1212 O   0  0  0  0  0  0  0  0  0  0  0  0
   17.4410  -11.2992  -15.4741 C   0  0  0  0  0  0  0  0  0  0  0  0
   17.9720   -9.8686  -15.4400 C   0  0  2  0  0  0  0  0  0  0  0  0
   17.8238   -9.2402  -16.7355 N   0  0  0  0  0  0  0  0  0  0  0  0
   19.4215   -9.9746  -15.1373 C   0  0  0  0  0  0  0  0  0  0  0  0
   19.8151  -10.4231  -14.0380 O   0  0  0  0  0  0  0  0  0  0  0  0
   22.5606  -10.1762  -16.9895 C   0  0  0  0  0  0  0  0  0  0  0  0
   21.8129   -9.7045  -15.7369 C   0  0  2  0  0  0  0  0  0  0  0  0
   20.4166   -9.5689  -16.0892 N   0  0  0  0  0  0  0  0  0  0  0  0
   22.3960   -8.3791  -15.3769 C   0  0  0  0  0  0  0  0  0  0  0  0
   23.6377   -8.3273  -15.0852 O   0  0  0  0  0  0  0  0  0  0  0  0
   15.9453   -4.4033  -15.9766 O   0  0  0  0  0  0  0  0  0  0  0  0
   17.3480   -4.5230  -15.9682 C   0  0  0  0  0  0  0  0  0  0  0  0
   18.1230   -3.7939  -15.0938 C   0  0  0  0  0  0  0  0  0  0  0  0
   19.4974   -3.8862  -15.0580 C   0  0  0  0  0  0  0  0  0  0  0  0
   20.1430   -4.7523  -15.9410 C   0  0  0  0  0  0  0  0  0  0  0  0
   21.6167   -4.8436  -15.8907 C   0  0  0  0  0  0  0  0  0  0  0  0
   22.1194   -5.9585  -14.9958 C   0  0  2  0  0  0  0  0  0  0  0  0
   21.5763   -7.2308  -15.3669 N   0  0  0  0  0  0  0  0  0  0  0  0
   21.7704   -5.5951  -13.5981 C   0  0  0  0  0  0  0  0  0  0  0  0
   22.3889   -4.4711  -13.0572 O   0  0  0  0  0  0  0  0  0  0  0  0
   19.3676   -5.4814  -16.8152 C   0  0  0  0  0  0  0  0  0  0  0  0
   17.9878   -5.3779  -16.8394 C   0  0  0  0  0  0  0  0  0  0  0  0
   20.9567   -6.2525  -12.9079 O   0  0  0  0  0  0  0  0  0  0  0  0
  2  3  2  0
  2  1  1  0
  4  2  1  0
  5  4  1  0
  5  7  1  0
  5  6  1  6
  7  8  2  0
 10  9  1  6
 11  7  1  0
 11 10  1  0
 12 10  1  0
 12 21  1  0
 13 12  2  0
 15 14  1  0
 16 15  2  0
 17 16  1  0
 18 24  1  0
 18 17  2  0
 19 18  1  0
 20 21  1  0
 20 19  1  6
 22 23  1  0
 22 20  1  0
 24 25  2  0
 25 15  1  0
 26 22  2  0
M  END
$$$$
