NAY.pdb
     RDKit          3D

 26 26  0  0  1  0  0  0  0  0999 V2000
   22.6603  -15.0423  -19.9454 N   0  0  0  0  0  0  0  0  0  0  0  0
   23.3936  -14.7523  -18.7582 C   0  0  0  0  0  0  0  0  0  0  0  0
   23.6962  -15.6574  -17.9524 O   0  0  0  0  0  0  0  0  0  0  0  0
   23.7896  -13.3493  -18.5013 C   0  0  0  0  0  0  0  0  0  0  0  0
   23.2381  -12.4704  -19.6207 C   0  0  2  0  0  0  0  0  0  0  0  0
   24.1877  -12.3777  -20.7092 N   0  0  0  0  0  0  0  0  0  0  0  0
   23.0677  -11.1168  -19.0352 C   0  0  0  0  0  0  0  0  0  0  0  0
   24.0608  -10.4045  -18.7692 O   0  0  0  0  0  0  0  0  0  0  0  0
   20.4894   -8.5596  -19.0040 C   0  0  0  0  0  0  0  0  0  0  0  0
   21.6620   -9.2218  -18.2711 C   0  0  2  0  0  0  0  0  0  0  0  0
   21.7656  -10.5808  -18.7553 N   0  0  0  0  0  0  0  0  0  0  0  0
   21.3109   -9.2052  -16.8210 C   0  0  0  0  0  0  0  0  0  0  0  0
   20.7118  -10.2224  -16.3352 O   0  0  0  0  0  0  0  0  0  0  0  0
   24.0174   -2.2573  -15.3575 O   0  0  0  0  0  0  0  0  0  0  0  0
   23.6458   -3.5628  -14.9841 C   0  0  0  0  0  0  0  0  0  0  0  0
   22.7124   -3.7861  -13.9963 C   0  0  0  0  0  0  0  0  0  0  0  0
   22.3252   -5.0497  -13.6058 C   0  0  0  0  0  0  0  0  0  0  0  0
   22.8966   -6.1585  -14.2310 C   0  0  0  0  0  0  0  0  0  0  0  0
   22.4710   -7.5075  -13.8047 C   0  0  0  0  0  0  0  0  0  0  0  0
   21.3325   -8.0680  -14.6330 C   0  0  2  0  0  0  0  0  0  0  0  0
   21.6431   -8.0844  -16.0310 N   0  0  0  0  0  0  0  0  0  0  0  0
   20.1289   -7.2461  -14.3439 C   0  0  0  0  0  0  0  0  0  0  0  0
   19.6024   -7.3155  -13.0568 O   0  0  0  0  0  0  0  0  0  0  0  0
   23.8298   -5.9347  -15.2189 C   0  0  0  0  0  0  0  0  0  0  0  0
   24.2087   -4.6595  -15.6002 C   0  0  0  0  0  0  0  0  0  0  0  0
   19.5863   -6.5105  -15.2013 O   0  0  0  0  0  0  0  0  0  0  0  0
  2  3  2  0
  2  1  1  0
  4  2  1  0
  5  4  1  0
  5  7  1  0
  5  6  1  6
  7  8  2  0
 10  9  1  6
 11  7  1  0
 11 10  1  0
 12 10  1  0
 12 21  1  0
 13 12  2  0
 15 14  1  0
 16 15  2  0
 17 16  1  0
 18 24  1  0
 18 17  2  0
 19 18  1  0
 20 21  1  0
 20 19  1  1
 22 23  1  0
 22 20  1  0
 24 25  2  0
 25 15  1  0
 26 22  2  0
M  END
$$$$
