KST.pdb
     RDKit          3D

 23 22  0  0  1  0  0  0  0  0999 V2000
   31.0208  -31.6049  -17.4605 N   0  0  0  0  0  0  0  0  0  0  0  0
   29.7370  -32.3412  -17.3340 C   0  0  1  0  0  0  0  0  0  0  0  0
   29.4721  -32.3596  -15.8660 C   0  0  0  0  0  0  0  0  0  0  0  0
   29.2444  -33.6828  -15.2356 C   0  0  0  0  0  0  0  0  0  0  0  0
   27.7234  -33.9262  -15.3220 C   0  0  0  0  0  0  0  0  0  0  0  0
   27.3701  -35.2467  -14.6787 C   0  0  0  0  0  0  0  0  0  0  0  0
   25.9573  -35.4428  -14.8116 N   0  0  0  0  0  0  0  0  0  0  0  0
   28.6690  -31.5917  -18.0416 C   0  0  0  0  0  0  0  0  0  0  0  0
   28.7682  -30.3302  -18.2297 O   0  0  0  0  0  0  0  0  0  0  0  0
   25.0002  -31.7653  -21.1540 O   0  0  0  0  0  0  0  0  0  0  0  0
   25.9343  -32.4147  -20.3434 C   0  0  0  0  0  0  0  0  0  0  0  0
   26.4993  -31.4410  -19.3087 C   0  0  2  0  0  0  0  0  0  0  0  0
   27.4898  -32.1789  -18.5559 N   0  0  0  0  0  0  0  0  0  0  0  0
   25.4261  -30.8990  -18.4579 C   0  0  0  0  0  0  0  0  0  0  0  0
   25.0211  -31.4415  -17.3946 O   0  0  0  0  0  0  0  0  0  0  0  0
   22.7237  -26.8819  -17.5119 C   0  0  0  0  0  0  0  0  0  0  0  0
   23.9156  -27.5956  -18.0835 C   0  0  1  0  0  0  0  0  0  0  0  0
   25.0667  -27.3034  -17.3493 O   0  0  0  0  0  0  0  0  0  0  0  0
   23.6873  -29.1013  -18.1192 C   0  0  2  0  0  0  0  0  0  0  0  0
   24.8044  -29.6908  -18.8533 N   0  0  0  0  0  0  0  0  0  0  0  0
   22.4108  -29.3208  -18.8460 C   0  0  0  0  0  0  0  0  0  0  0  0
   21.2724  -29.5167  -18.0764 O   0  0  0  0  0  0  0  0  0  0  0  0
   22.3597  -29.3295  -20.0957 O   0  0  0  0  0  0  0  0  0  0  0  0
  2  1  1  1
  3  4  1  0
  3  2  1  0
  5  4  1  0
  6  5  1  0
  7  6  1  0
  8 13  1  0
  8  2  1  0
  9  8  2  0
 11 10  1  0
 12 11  1  6
 12 14  1  0
 12 13  1  0
 14 15  2  0
 17 16  1  1
 17 19  1  0
 18 17  1  0
 19 21  1  0
 19 20  1  6
 20 14  1  0
 21 22  1  0
 23 21  2  0
M  END
$$$$
