KST.pdb
     RDKit          3D

 23 22  0  0  1  0  0  0  0  0999 V2000
   18.6800  -11.4249  -17.0306 N   0  0  0  0  0  0  0  0  0  0  0  0
   17.8243  -10.3443  -16.4769 C   0  0  1  0  0  0  0  0  0  0  0  0
   16.8756  -11.0590  -15.5743 C   0  0  0  0  0  0  0  0  0  0  0  0
   16.0719  -12.1552  -16.1679 C   0  0  0  0  0  0  0  0  0  0  0  0
   15.1874  -12.6876  -15.0214 C   0  0  0  0  0  0  0  0  0  0  0  0
   14.3794  -13.8731  -15.4946 C   0  0  0  0  0  0  0  0  0  0  0  0
   13.7467  -14.4647  -14.3537 N   0  0  0  0  0  0  0  0  0  0  0  0
   18.6657   -9.4014  -15.6986 C   0  0  0  0  0  0  0  0  0  0  0  0
   18.1378   -8.4292  -15.0560 O   0  0  0  0  0  0  0  0  0  0  0  0
   22.8926   -9.3769  -15.8169 O   0  0  0  0  0  0  0  0  0  0  0  0
   22.2224   -9.2499  -14.5979 C   0  0  0  0  0  0  0  0  0  0  0  0
   20.8694   -8.5700  -14.8103 C   0  0  2  0  0  0  0  0  0  0  0  0
   20.0736   -9.4872  -15.5963 N   0  0  0  0  0  0  0  0  0  0  0  0
   21.0374   -7.2602  -15.4627 C   0  0  0  0  0  0  0  0  0  0  0  0
   21.1596   -7.0973  -16.7066 O   0  0  0  0  0  0  0  0  0  0  0  0
   19.0638   -3.9428  -14.3279 C   0  0  0  0  0  0  0  0  0  0  0  0
   20.5560   -3.7908  -14.2456 C   0  0  1  0  0  0  0  0  0  0  0  0
   21.0023   -3.9857  -12.9370 O   0  0  0  0  0  0  0  0  0  0  0  0
   21.2583   -4.7611  -15.1867 C   0  0  2  0  0  0  0  0  0  0  0  0
   21.0643   -6.1046  -14.6463 N   0  0  0  0  0  0  0  0  0  0  0  0
   22.6981   -4.3968  -15.1765 C   0  0  0  0  0  0  0  0  0  0  0  0
   23.0589   -3.2327  -15.8406 O   0  0  0  0  0  0  0  0  0  0  0  0
   23.5505   -5.1049  -14.5963 O   0  0  0  0  0  0  0  0  0  0  0  0
  2  1  1  1
  3  4  1  0
  3  2  1  0
  5  4  1  0
  6  5  1  0
  7  6  1  0
  8 13  1  0
  8  2  1  0
  9  8  2  0
 11 10  1  0
 12 11  1  6
 12 14  1  0
 12 13  1  0
 14 15  2  0
 17 16  1  1
 17 19  1  0
 18 17  1  0
 19 21  1  0
 19 20  1  1
 20 14  1  0
 21 22  1  0
 23 21  2  0
M  END
$$$$
