KST.pdb
     RDKit          3D

 23 22  0  0  1  0  0  0  0  0999 V2000
   21.3823  -20.4739  -10.3539 N   0  0  0  0  0  0  0  0  0  0  0  0
   21.8065  -21.1027  -11.6310 C   0  0  1  0  0  0  0  0  0  0  0  0
   20.6578  -20.8639  -12.5524 C   0  0  0  0  0  0  0  0  0  0  0  0
   19.8448  -22.0422  -12.9406 C   0  0  0  0  0  0  0  0  0  0  0  0
   19.1250  -22.4912  -11.6520 C   0  0  0  0  0  0  0  0  0  0  0  0
   18.2400  -23.6817  -11.9378 C   0  0  0  0  0  0  0  0  0  0  0  0
   17.5939  -24.0596  -10.7163 N   0  0  0  0  0  0  0  0  0  0  0  0
   23.0232  -20.4185  -12.1353 C   0  0  0  0  0  0  0  0  0  0  0  0
   22.9916  -19.1822  -12.4628 O   0  0  0  0  0  0  0  0  0  0  0  0
   26.6577  -22.2958  -12.0962 O   0  0  0  0  0  0  0  0  0  0  0  0
   26.6499  -20.8989  -12.0852 C   0  0  0  0  0  0  0  0  0  0  0  0
   25.4358  -20.3741  -12.8523 C   0  0  2  0  0  0  0  0  0  0  0  0
   24.2821  -21.0434  -12.2924 N   0  0  0  0  0  0  0  0  0  0  0  0
   25.5855  -20.6129  -14.2979 C   0  0  0  0  0  0  0  0  0  0  0  0
   25.4557  -21.7393  -14.8484 O   0  0  0  0  0  0  0  0  0  0  0  0
   23.8419  -18.6609  -17.2474 C   0  0  0  0  0  0  0  0  0  0  0  0
   25.3272  -18.4398  -17.2040 C   0  0  1  0  0  0  0  0  0  0  0  0
   25.6339  -17.2743  -16.4988 O   0  0  0  0  0  0  0  0  0  0  0  0
   26.0404  -19.6316  -16.5783 C   0  0  2  0  0  0  0  0  0  0  0  0
   25.8953  -19.5106  -15.1296 N   0  0  0  0  0  0  0  0  0  0  0  0
   27.4689  -19.5264  -16.9708 C   0  0  0  0  0  0  0  0  0  0  0  0
   27.7802  -19.7947  -18.2965 O   0  0  0  0  0  0  0  0  0  0  0  0
   28.3549  -19.2103  -16.1464 O   0  0  0  0  0  0  0  0  0  0  0  0
  2  1  1  1
  3  4  1  0
  3  2  1  0
  5  4  1  0
  6  5  1  0
  7  6  1  0
  8 13  1  0
  8  2  1  0
  9  8  2  0
 11 10  1  0
 12 11  1  1
 12 14  1  0
 12 13  1  0
 14 15  2  0
 17 16  1  1
 17 19  1  0
 18 17  1  0
 19 21  1  0
 19 20  1  1
 20 14  1  0
 21 22  1  0
 23 21  2  0
M  END
$$$$
