KST.pdb
     RDKit          3D

 23 22  0  0  1  0  0  0  0  0999 V2000
   19.6448  -13.1930  -16.6821 N   0  0  0  0  0  0  0  0  0  0  0  0
   19.9089  -11.8398  -17.2348 C   0  0  1  0  0  0  0  0  0  0  0  0
   18.5837  -11.3955  -17.7561 C   0  0  0  0  0  0  0  0  0  0  0  0
   17.9984  -12.1774  -18.8724 C   0  0  0  0  0  0  0  0  0  0  0  0
   18.5174  -11.5092  -20.1625 C   0  0  0  0  0  0  0  0  0  0  0  0
   17.9322  -12.1942  -21.3753 C   0  0  0  0  0  0  0  0  0  0  0  0
   18.4999  -11.5914  -22.5443 N   0  0  0  0  0  0  0  0  0  0  0  0
   20.3608  -10.9425  -16.1424 C   0  0  0  0  0  0  0  0  0  0  0  0
   19.5763  -10.6358  -15.1794 O   0  0  0  0  0  0  0  0  0  0  0  0
   24.3326  -10.0804  -15.5506 O   0  0  0  0  0  0  0  0  0  0  0  0
   23.4157  -10.0597  -14.4970 C   0  0  0  0  0  0  0  0  0  0  0  0
   22.0730   -9.5099  -14.9795 C   0  0  2  0  0  0  0  0  0  0  0  0
   21.6503  -10.3671  -16.0652 N   0  0  0  0  0  0  0  0  0  0  0  0
   22.1991   -8.0994  -15.3847 C   0  0  0  0  0  0  0  0  0  0  0  0
   22.7754   -7.7120  -16.4367 O   0  0  0  0  0  0  0  0  0  0  0  0
   19.6522   -5.6766  -16.2112 C   0  0  0  0  0  0  0  0  0  0  0  0
   20.3103   -5.1525  -14.9666 C   0  0  1  0  0  0  0  0  0  0  0  0
   19.5678   -5.4910  -13.8337 O   0  0  0  0  0  0  0  0  0  0  0  0
   21.7331   -5.6805  -14.8354 C   0  0  2  0  0  0  0  0  0  0  0  0
   21.6391   -7.1089  -14.5433 N   0  0  0  0  0  0  0  0  0  0  0  0
   22.3530   -4.9545  -13.6977 C   0  0  0  0  0  0  0  0  0  0  0  0
   22.6659   -3.6171  -13.8982 O   0  0  0  0  0  0  0  0  0  0  0  0
   22.5844   -5.5194  -12.6060 O   0  0  0  0  0  0  0  0  0  0  0  0
  2  1  1  1
  3  4  1  0
  3  2  1  0
  5  4  1  0
  6  5  1  0
  7  6  1  0
  8 13  1  0
  8  2  1  0
  9  8  2  0
 11 10  1  0
 12 11  1  6
 12 14  1  0
 12 13  1  0
 14 15  2  0
 17 16  1  6
 17 19  1  0
 18 17  1  0
 19 21  1  0
 19 20  1  1
 20 14  1  0
 21 22  1  0
 23 21  2  0
M  END
$$$$
