KST.pdb
     RDKit          3D

 23 22  0  0  1  0  0  0  0  0999 V2000
   18.9476  -12.6615  -15.9744 N   0  0  0  0  0  0  0  0  0  0  0  0
   19.2822  -11.3578  -16.6027 C   0  0  1  0  0  0  0  0  0  0  0  0
   18.0086  -10.9296  -17.2509 C   0  0  0  0  0  0  0  0  0  0  0  0
   17.0839  -11.9992  -17.6992 C   0  0  0  0  0  0  0  0  0  0  0  0
   15.8674  -11.2679  -18.3039 C   0  0  0  0  0  0  0  0  0  0  0  0
   14.8952  -12.2676  -18.8850 C   0  0  0  0  0  0  0  0  0  0  0  0
   13.7627  -11.5477  -19.3863 N   0  0  0  0  0  0  0  0  0  0  0  0
   19.6749  -10.3904  -15.5478 C   0  0  0  0  0  0  0  0  0  0  0  0
   18.8332  -10.0075  -14.6636 O   0  0  0  0  0  0  0  0  0  0  0  0
   22.8691   -8.4885  -12.6477 O   0  0  0  0  0  0  0  0  0  0  0  0
   22.4866   -9.3884  -13.6453 C   0  0  0  0  0  0  0  0  0  0  0  0
   21.3031   -8.8269  -14.4340 C   0  0  2  0  0  0  0  0  0  0  0  0
   20.9655   -9.8256  -15.4244 N   0  0  0  0  0  0  0  0  0  0  0  0
   21.6423   -7.5245  -15.0325 C   0  0  0  0  0  0  0  0  0  0  0  0
   22.3212   -7.3824  -16.0850 O   0  0  0  0  0  0  0  0  0  0  0  0
   19.5619   -4.7905  -16.3493 C   0  0  0  0  0  0  0  0  0  0  0  0
   20.2384   -4.2638  -15.1157 C   0  0  1  0  0  0  0  0  0  0  0  0
   19.3920   -4.3561  -14.0091 O   0  0  0  0  0  0  0  0  0  0  0  0
   21.5381   -5.0100  -14.8427 C   0  0  2  0  0  0  0  0  0  0  0  0
   21.1794   -6.3519  -14.3897 N   0  0  0  0  0  0  0  0  0  0  0  0
   22.2382   -4.2648  -13.7654 C   0  0  0  0  0  0  0  0  0  0  0  0
   22.2483   -4.8419  -12.5032 O   0  0  0  0  0  0  0  0  0  0  0  0
   22.7949   -3.1659  -13.9821 O   0  0  0  0  0  0  0  0  0  0  0  0
  2  1  1  1
  3  4  1  0
  3  2  1  0
  5  4  1  0
  6  5  1  0
  7  6  1  0
  8 13  1  0
  8  2  1  0
  9  8  2  0
 11 10  1  0
 12 11  1  6
 12 14  1  0
 12 13  1  0
 14 15  2  0
 17 16  1  6
 17 19  1  0
 18 17  1  0
 19 21  1  0
 19 20  1  1
 20 14  1  0
 21 22  1  0
 23 21  2  0
M  END
$$$$
