KST.pdb
     RDKit          3D

 23 22  0  0  1  0  0  0  0  0999 V2000
   24.2580  -20.4681   -8.7956 N   0  0  0  0  0  0  0  0  0  0  0  0
   23.8148  -21.0946  -10.0674 C   0  0  1  0  0  0  0  0  0  0  0  0
   22.3302  -20.9495  -10.0457 C   0  0  0  0  0  0  0  0  0  0  0  0
   21.5465  -22.0865   -9.5042 C   0  0  0  0  0  0  0  0  0  0  0  0
   20.0737  -21.6283   -9.5402 C   0  0  0  0  0  0  0  0  0  0  0  0
   19.1745  -22.7254   -9.0204 C   0  0  0  0  0  0  0  0  0  0  0  0
   19.5420  -22.9964   -7.6626 N   0  0  0  0  0  0  0  0  0  0  0  0
   24.3898  -20.3440  -11.2114 C   0  0  0  0  0  0  0  0  0  0  0  0
   24.2541  -19.0748  -11.2971 O   0  0  0  0  0  0  0  0  0  0  0  0
   26.9811  -22.1444  -13.7674 O   0  0  0  0  0  0  0  0  0  0  0  0
   27.0417  -20.7532  -13.6577 C   0  0  0  0  0  0  0  0  0  0  0  0
   25.6480  -20.1862  -13.3859 C   0  0  2  0  0  0  0  0  0  0  0  0
   25.1151  -20.9374  -12.2706 N   0  0  0  0  0  0  0  0  0  0  0  0
   24.8017  -20.2759  -14.5881 C   0  0  0  0  0  0  0  0  0  0  0  0
   24.1411  -21.2980  -14.9162 O   0  0  0  0  0  0  0  0  0  0  0  0
   22.6679  -17.5590  -18.1411 C   0  0  0  0  0  0  0  0  0  0  0  0
   23.4568  -17.6893  -16.8693 C   0  0  1  0  0  0  0  0  0  0  0  0
   22.7077  -17.2526  -15.7749 O   0  0  0  0  0  0  0  0  0  0  0  0
   23.9108  -19.1269  -16.6511 C   0  0  2  0  0  0  0  0  0  0  0  0
   24.7200  -19.1450  -15.4348 N   0  0  0  0  0  0  0  0  0  0  0  0
   24.7333  -19.4970  -17.8311 C   0  0  0  0  0  0  0  0  0  0  0  0
   24.0988  -20.1980  -18.8473 O   0  0  0  0  0  0  0  0  0  0  0  0
   25.9439  -19.1925  -17.9093 O   0  0  0  0  0  0  0  0  0  0  0  0
  2  1  1  1
  3  4  1  0
  3  2  1  0
  5  4  1  0
  6  5  1  0
  7  6  1  0
  8 13  1  0
  8  2  1  0
  9  8  2  0
 11 10  1  0
 12 11  1  6
 12 14  1  0
 12 13  1  0
 14 15  2  0
 17 16  1  6
 17 19  1  0
 18 17  1  0
 19 21  1  0
 19 20  1  1
 20 14  1  0
 21 22  1  0
 23 21  2  0
M  END
$$$$
