KST.pdb
     RDKit          3D

 23 22  0  0  1  0  0  0  0  0999 V2000
   27.1584  -20.8895  -17.9991 N   0  0  0  0  0  0  0  0  0  0  0  0
   26.7396  -19.8672  -17.0062 C   0  0  1  0  0  0  0  0  0  0  0  0
   26.0475  -18.8290  -17.8238 C   0  0  0  0  0  0  0  0  0  0  0  0
   26.8067  -18.2396  -18.9536 C   0  0  0  0  0  0  0  0  0  0  0  0
   27.8198  -17.2700  -18.3103 C   0  0  0  0  0  0  0  0  0  0  0  0
   28.5856  -16.5307  -19.3824 C   0  0  0  0  0  0  0  0  0  0  0  0
   29.5759  -15.7177  -18.7417 N   0  0  0  0  0  0  0  0  0  0  0  0
   25.7930  -20.4790  -16.0405 C   0  0  0  0  0  0  0  0  0  0  0  0
   24.6441  -20.8931  -16.4218 O   0  0  0  0  0  0  0  0  0  0  0  0
   24.9096  -21.7111  -11.3954 O   0  0  0  0  0  0  0  0  0  0  0  0
   25.7980  -21.2644  -12.3765 C   0  0  0  0  0  0  0  0  0  0  0  0
   25.0728  -21.1174  -13.7146 C   0  0  2  0  0  0  0  0  0  0  0  0
   26.0624  -20.6568  -14.6637 N   0  0  0  0  0  0  0  0  0  0  0  0
   23.9296  -20.1967  -13.5931 C   0  0  0  0  0  0  0  0  0  0  0  0
   24.0066  -19.0268  -13.1302 O   0  0  0  0  0  0  0  0  0  0  0  0
   21.9352  -18.3053  -15.6761 C   0  0  0  0  0  0  0  0  0  0  0  0
   20.9880  -19.3531  -15.1644 C   0  0  1  0  0  0  0  0  0  0  0  0
   20.8775  -20.4071  -16.0735 O   0  0  0  0  0  0  0  0  0  0  0  0
   21.4348  -19.8794  -13.8066 C   0  0  2  0  0  0  0  0  0  0  0  0
   22.6586  -20.6478  -14.0219 N   0  0  0  0  0  0  0  0  0  0  0  0
   20.3456  -20.7597  -13.3122 C   0  0  0  0  0  0  0  0  0  0  0  0
   19.2021  -20.1381  -12.8299 O   0  0  0  0  0  0  0  0  0  0  0  0
   20.4502  -22.0060  -13.3280 O   0  0  0  0  0  0  0  0  0  0  0  0
  2  1  1  6
  3  4  1  0
  3  2  1  0
  5  4  1  0
  6  5  1  0
  7  6  1  0
  8 13  1  0
  8  2  1  0
  9  8  2  0
 11 10  1  0
 12 11  1  1
 12 14  1  0
 12 13  1  0
 14 15  2  0
 17 16  1  6
 17 19  1  0
 18 17  1  0
 19 21  1  0
 19 20  1  6
 20 14  1  0
 21 22  1  0
 23 21  2  0
M  END
$$$$
