KST.pdb
     RDKit          3D

 23 22  0  0  1  0  0  0  0  0999 V2000
   16.4293   -7.3465   -8.7839 N   0  0  0  0  0  0  0  0  0  0  0  0
   16.7556   -8.2504   -9.9166 C   0  0  1  0  0  0  0  0  0  0  0  0
   15.4380   -8.5079  -10.5669 C   0  0  0  0  0  0  0  0  0  0  0  0
   14.4592   -9.3281   -9.8124 C   0  0  0  0  0  0  0  0  0  0  0  0
   13.2382   -9.4762  -10.7437 C   0  0  0  0  0  0  0  0  0  0  0  0
   12.1927  -10.3534  -10.0958 C   0  0  0  0  0  0  0  0  0  0  0  0
   11.0776  -10.4514  -10.9897 N   0  0  0  0  0  0  0  0  0  0  0  0
   17.6669   -7.5510  -10.8564 C   0  0  0  0  0  0  0  0  0  0  0  0
   17.8545   -6.2885  -10.7700 O   0  0  0  0  0  0  0  0  0  0  0  0
   21.3925   -8.4708  -12.0293 O   0  0  0  0  0  0  0  0  0  0  0  0
   20.4434   -8.4922  -13.0541 C   0  0  0  0  0  0  0  0  0  0  0  0
   19.3218   -7.4976  -12.7524 C   0  0  2  0  0  0  0  0  0  0  0  0
   18.3866   -8.1896  -11.8928 N   0  0  0  0  0  0  0  0  0  0  0  0
   18.6999   -7.0151  -13.9973 C   0  0  0  0  0  0  0  0  0  0  0  0
   18.0233   -7.7366  -14.7787 O   0  0  0  0  0  0  0  0  0  0  0  0
   16.2516   -4.0982  -14.3505 C   0  0  0  0  0  0  0  0  0  0  0  0
   17.5396   -3.7828  -15.0564 C   0  0  1  0  0  0  0  0  0  0  0  0
   18.3895   -3.0451  -14.2300 O   0  0  0  0  0  0  0  0  0  0  0  0
   18.2367   -5.0557  -15.5192 C   0  0  2  0  0  0  0  0  0  0  0  0
   18.8685   -5.6539  -14.3456 N   0  0  0  0  0  0  0  0  0  0  0  0
   19.2621   -4.6426  -16.5110 C   0  0  0  0  0  0  0  0  0  0  0  0
   18.8061   -4.2318  -17.7559 O   0  0  0  0  0  0  0  0  0  0  0  0
   20.4831   -4.6626  -16.2403 O   0  0  0  0  0  0  0  0  0  0  0  0
  2  1  1  1
  3  4  1  0
  3  2  1  0
  5  4  1  0
  6  5  1  0
  7  6  1  0
  8 13  1  0
  8  2  1  0
  9  8  2  0
 11 10  1  0
 12 11  1  6
 12 14  1  0
 12 13  1  0
 14 15  2  0
 17 16  1  1
 17 19  1  0
 18 17  1  0
 19 21  1  0
 19 20  1  1
 20 14  1  0
 21 22  1  0
 23 21  2  0
M  END
$$$$
