KST.pdb
     RDKit          3D

 23 22  0  0  1  0  0  0  0  0999 V2000
   33.6298  -30.3369  -19.1627 N   0  0  0  0  0  0  0  0  0  0  0  0
   33.6257  -29.3863  -18.0213 C   0  0  1  0  0  0  0  0  0  0  0  0
   35.0610  -29.0168  -17.8512 C   0  0  0  0  0  0  0  0  0  0  0  0
   36.0186  -30.1203  -17.5954 C   0  0  0  0  0  0  0  0  0  0  0  0
   37.3999  -29.4466  -17.4605 C   0  0  0  0  0  0  0  0  0  0  0  0
   38.4663  -30.4892  -17.2191 C   0  0  0  0  0  0  0  0  0  0  0  0
   39.7313  -29.8218  -17.1385 N   0  0  0  0  0  0  0  0  0  0  0  0
   32.8242  -28.1901  -18.3810 C   0  0  0  0  0  0  0  0  0  0  0  0
   33.0824  -27.0486  -17.8642 O   0  0  0  0  0  0  0  0  0  0  0  0
   29.0889  -28.2414  -20.4586 O   0  0  0  0  0  0  0  0  0  0  0  0
   30.1273  -27.3902  -20.8438 C   0  0  0  0  0  0  0  0  0  0  0  0
   30.9795  -27.0181  -19.6300 C   0  0  2  0  0  0  0  0  0  0  0  0
   31.7444  -28.1990  -19.2942 N   0  0  0  0  0  0  0  0  0  0  0  0
   30.1332  -26.5536  -18.5177 C   0  0  0  0  0  0  0  0  0  0  0  0
   29.7400  -27.2869  -17.5708 O   0  0  0  0  0  0  0  0  0  0  0  0
   30.5847  -22.9609  -16.6998 C   0  0  0  0  0  0  0  0  0  0  0  0
   29.2390  -23.1540  -17.3391 C   0  0  1  0  0  0  0  0  0  0  0  0
   29.2003  -22.5580  -18.6012 O   0  0  0  0  0  0  0  0  0  0  0  0
   28.8920  -24.6331  -17.4494 C   0  0  2  0  0  0  0  0  0  0  0  0
   29.7312  -25.1968  -18.5041 N   0  0  0  0  0  0  0  0  0  0  0  0
   27.4577  -24.7064  -17.8279 C   0  0  0  0  0  0  0  0  0  0  0  0
   27.1644  -25.1775  -19.1001 O   0  0  0  0  0  0  0  0  0  0  0  0
   26.5516  -24.3601  -17.0382 O   0  0  0  0  0  0  0  0  0  0  0  0
  2  1  1  6
  3  4  1  0
  3  2  1  0
  5  4  1  0
  6  5  1  0
  7  6  1  0
  8 13  1  0
  8  2  1  0
  9  8  2  0
 11 10  1  0
 12 11  1  6
 12 14  1  0
 12 13  1  0
 14 15  2  0
 17 16  1  6
 17 19  1  0
 18 17  1  0
 19 21  1  0
 19 20  1  6
 20 14  1  0
 21 22  1  0
 23 21  2  0
M  END
$$$$
