VTH.pdb
     RDKit          3D

 25 25  0  0  1  0  0  0  0  0999 V2000
   12.8379  -17.3114   15.6407 C   0  0  0  0  0  0  0  0  0  0  0  0
   11.4121  -17.2310   15.2188 C   0  0  2  0  0  0  0  0  0  0  0  0
   11.3200  -17.7655   13.7940 C   0  0  0  0  0  0  0  0  0  0  0  0
   10.8139  -15.8369   15.2982 C   0  0  2  0  0  0  0  0  0  0  0  0
   11.5823  -14.9826   14.3702 N   0  0  0  0  0  0  0  0  0  0  0  0
   10.9011  -15.2369   16.6360 C   0  0  0  0  0  0  0  0  0  0  0  0
   11.9397  -14.5705   16.9851 O   0  0  0  0  0  0  0  0  0  0  0  0
    8.2116  -13.0516   18.4517 C   0  0  0  0  0  0  0  0  0  0  0  0
    8.6418  -14.1997   19.3268 C   0  0  1  0  0  0  0  0  0  0  0  0
    7.7779  -15.2728   19.1538 O   0  0  0  0  0  0  0  0  0  0  0  0
   10.0328  -14.6989   18.9484 C   0  0  2  0  0  0  0  0  0  0  0  0
    9.9040  -15.3169   17.6446 N   0  0  0  0  0  0  0  0  0  0  0  0
   10.3858  -15.7598   19.9213 C   0  0  0  0  0  0  0  0  0  0  0  0
   10.9440  -16.8416   19.5777 O   0  0  0  0  0  0  0  0  0  0  0  0
   10.1109  -15.6144   21.3141 N   0  0  0  0  0  0  0  0  0  0  0  0
   10.8850  -16.3093   22.3281 C   0  0  1  0  0  0  0  0  0  0  0  0
   12.2895  -15.7405   22.2439 C   0  0  0  0  0  0  0  0  0  0  0  0
   13.2204  -16.6298   21.5372 C   0  0  0  0  0  0  0  0  0  0  0  0
   12.9803  -17.8713   21.0327 C   0  0  0  0  0  0  0  0  0  0  0  0
   14.1319  -18.2999   20.4750 N   0  0  0  0  0  0  0  0  0  0  0  0
   15.0497  -17.3321   20.6414 C   0  0  0  0  0  0  0  0  0  0  0  0
   14.5146  -16.3036   21.2874 N   0  0  0  0  0  0  0  0  0  0  0  0
   10.2457  -16.0805   23.6318 C   0  0  0  0  0  0  0  0  0  0  0  0
    9.5633  -14.9067   23.8602 O   0  0  0  0  0  0  0  0  0  0  0  0
   10.3133  -16.9346   24.5331 O   0  0  0  0  0  0  0  0  0  0  0  0
  2  1  1  6
  3  2  1  0
  4  2  1  0
  4  5  1  6
  6  7  2  0
  6  4  1  0
  9  8  1  6
  9 11  1  0
 10  9  1  0
 11 12  1  6
 12  6  1  0
 13 11  1  0
 14 13  2  0
 15 13  1  0
 16 17  1  1
 16 15  1  0
 17 18  1  0
 18 22  1  0
 19 20  1  0
 19 18  2  0
 20 21  1  0
 21 22  2  0
 23 16  1  0
 24 23  1  0
 25 23  2  0
M  END
$$$$
