VTH.pdb
     RDKit          3D

 25 25  0  0  1  0  0  0  0  0999 V2000
    7.2860  -12.9122   20.5141 C   0  0  0  0  0  0  0  0  0  0  0  0
    8.6485  -13.0746   19.9357 C   0  0  2  0  0  0  0  0  0  0  0  0
    8.7785  -12.0948   18.7750 C   0  0  0  0  0  0  0  0  0  0  0  0
    8.9671  -14.4858   19.4722 C   0  0  2  0  0  0  0  0  0  0  0  0
    8.0062  -14.8168   18.4005 N   0  0  0  0  0  0  0  0  0  0  0  0
    8.8254  -15.4959   20.5290 C   0  0  0  0  0  0  0  0  0  0  0  0
    8.1425  -16.5620   20.3243 O   0  0  0  0  0  0  0  0  0  0  0  0
    9.7067  -18.0248   20.8781 C   0  0  0  0  0  0  0  0  0  0  0  0
   10.1324  -17.6395   22.2707 C   0  0  1  0  0  0  0  0  0  0  0  0
   11.4501  -17.2024   22.2562 O   0  0  0  0  0  0  0  0  0  0  0  0
    9.2984  -16.4809   22.8087 C   0  0  2  0  0  0  0  0  0  0  0  0
    9.3946  -15.4189   21.8281 N   0  0  0  0  0  0  0  0  0  0  0  0
    9.9624  -16.0156   24.0492 C   0  0  0  0  0  0  0  0  0  0  0  0
   10.5422  -14.8945   24.1329 O   0  0  0  0  0  0  0  0  0  0  0  0
    9.9826  -16.8181   25.2292 N   0  0  0  0  0  0  0  0  0  0  0  0
    9.3981  -16.3638   26.4791 C   0  0  1  0  0  0  0  0  0  0  0  0
    7.9302  -16.1128   26.1868 C   0  0  0  0  0  0  0  0  0  0  0  0
    7.5653  -14.6941   26.2919 C   0  0  0  0  0  0  0  0  0  0  0  0
    8.3713  -13.6364   26.5838 C   0  0  0  0  0  0  0  0  0  0  0  0
    7.5945  -12.5331   26.5705 N   0  0  0  0  0  0  0  0  0  0  0  0
    6.3417  -12.9208   26.2755 C   0  0  0  0  0  0  0  0  0  0  0  0
    6.3014  -14.2359   26.1015 N   0  0  0  0  0  0  0  0  0  0  0  0
    9.6158  -17.4050   27.4937 C   0  0  0  0  0  0  0  0  0  0  0  0
    9.9750  -17.0457   28.7735 O   0  0  0  0  0  0  0  0  0  0  0  0
    9.4799  -18.6083   27.2111 O   0  0  0  0  0  0  0  0  0  0  0  0
  2  1  1  6
  3  2  1  0
  4  2  1  0
  4  5  1  6
  6  7  2  0
  6  4  1  0
  9  8  1  6
  9 11  1  0
 10  9  1  0
 11 12  1  6
 12  6  1  0
 13 11  1  0
 14 13  2  0
 15 13  1  0
 16 17  1  6
 16 15  1  0
 17 18  1  0
 18 22  1  0
 19 20  1  0
 19 18  2  0
 20 21  1  0
 21 22  2  0
 23 16  1  0
 24 23  1  0
 25 23  2  0
M  END
$$$$
