VTH.pdb
     RDKit          3D

 25 25  0  0  1  0  0  0  0  0999 V2000
    8.1675  -14.0206   20.6487 C   0  0  0  0  0  0  0  0  0  0  0  0
    8.7703  -13.0821   19.6622 C   0  0  2  0  0  0  0  0  0  0  0  0
    7.7360  -12.0047   19.3562 C   0  0  0  0  0  0  0  0  0  0  0  0
    9.2396  -13.7421   18.3769 C   0  0  2  0  0  0  0  0  0  0  0  0
    8.0489  -14.3349   17.7349 N   0  0  0  0  0  0  0  0  0  0  0  0
   10.2150  -14.8188   18.5931 C   0  0  0  0  0  0  0  0  0  0  0  0
    9.8316  -16.0403   18.6677 O   0  0  0  0  0  0  0  0  0  0  0  0
   12.8686  -16.2541   16.6579 C   0  0  0  0  0  0  0  0  0  0  0  0
   13.5308  -15.8203   17.9394 C   0  0  1  0  0  0  0  0  0  0  0  0
   14.0734  -14.5519   17.7830 O   0  0  0  0  0  0  0  0  0  0  0  0
   12.5248  -15.7225   19.0820 C   0  0  2  0  0  0  0  0  0  0  0  0
   11.6178  -14.6471   18.7363 N   0  0  0  0  0  0  0  0  0  0  0  0
   13.2834  -15.3078   20.2857 C   0  0  0  0  0  0  0  0  0  0  0  0
   13.5942  -14.1032   20.5143 O   0  0  0  0  0  0  0  0  0  0  0  0
   13.7084  -16.2579   21.2621 N   0  0  0  0  0  0  0  0  0  0  0  0
   14.3965  -15.8575   22.4772 C   0  0  1  0  0  0  0  0  0  0  0  0
   13.9961  -16.8681   23.5362 C   0  0  0  0  0  0  0  0  0  0  0  0
   12.5900  -16.7396   23.9403 C   0  0  0  0  0  0  0  0  0  0  0  0
   11.7853  -15.6448   23.8534 C   0  0  0  0  0  0  0  0  0  0  0  0
   10.5810  -16.0004   24.3473 N   0  0  0  0  0  0  0  0  0  0  0  0
   10.6599  -17.2879   24.7253 C   0  0  0  0  0  0  0  0  0  0  0  0
   11.8775  -17.7587   24.4857 N   0  0  0  0  0  0  0  0  0  0  0  0
   15.8411  -15.8466   22.2053 C   0  0  0  0  0  0  0  0  0  0  0  0
   16.7157  -15.4255   23.1818 O   0  0  0  0  0  0  0  0  0  0  0  0
   16.2846  -16.2130   21.1029 O   0  0  0  0  0  0  0  0  0  0  0  0
  2  1  1  1
  3  2  1  0
  4  2  1  0
  4  5  1  1
  6  7  2  0
  6  4  1  0
  9  8  1  6
  9 11  1  0
 10  9  1  0
 11 12  1  6
 12  6  1  0
 13 11  1  0
 14 13  2  0
 15 13  1  0
 16 17  1  1
 16 15  1  0
 17 18  1  0
 18 22  1  0
 19 20  1  0
 19 18  2  0
 20 21  1  0
 21 22  2  0
 23 16  1  0
 24 23  1  0
 25 23  2  0
M  END
$$$$
