VTH.pdb
     RDKit          3D

 25 25  0  0  1  0  0  0  0  0999 V2000
    7.8414  -12.1141   18.7824 C   0  0  0  0  0  0  0  0  0  0  0  0
    7.6919  -13.2170   19.7715 C   0  0  2  0  0  0  0  0  0  0  0  0
    7.8144  -12.6095   21.1644 C   0  0  0  0  0  0  0  0  0  0  0  0
    8.6898  -14.3496   19.6012 C   0  0  2  0  0  0  0  0  0  0  0  0
    8.4454  -14.9458   18.2721 N   0  0  0  0  0  0  0  0  0  0  0  0
    8.5453  -15.4139   20.6031 C   0  0  0  0  0  0  0  0  0  0  0  0
    7.5614  -16.2345   20.5451 O   0  0  0  0  0  0  0  0  0  0  0  0
    9.8259  -18.5049   21.0763 C   0  0  0  0  0  0  0  0  0  0  0  0
   10.1982  -17.8022   22.3555 C   0  0  1  0  0  0  0  0  0  0  0  0
   11.4434  -17.2036   22.2185 O   0  0  0  0  0  0  0  0  0  0  0  0
    9.2144  -16.6835   22.6842 C   0  0  2  0  0  0  0  0  0  0  0  0
    9.4262  -15.6491   21.6923 N   0  0  0  0  0  0  0  0  0  0  0  0
    9.6131  -16.1370   24.0029 C   0  0  0  0  0  0  0  0  0  0  0  0
   10.4875  -15.2319   24.1297 O   0  0  0  0  0  0  0  0  0  0  0  0
    9.0238  -16.6093   25.2139 N   0  0  0  0  0  0  0  0  0  0  0  0
    9.4492  -16.1266   26.5162 C   0  0  1  0  0  0  0  0  0  0  0  0
    8.1831  -15.7054   27.2394 C   0  0  0  0  0  0  0  0  0  0  0  0
    7.6564  -14.4211   26.7598 C   0  0  0  0  0  0  0  0  0  0  0  0
    8.3459  -13.2838   26.4686 C   0  0  0  0  0  0  0  0  0  0  0  0
    7.4416  -12.3661   26.0677 N   0  0  0  0  0  0  0  0  0  0  0  0
    6.2279  -12.9417   26.1170 C   0  0  0  0  0  0  0  0  0  0  0  0
    6.3360  -14.1962   26.5369 N   0  0  0  0  0  0  0  0  0  0  0  0
   10.1694  -17.2126   27.1964 C   0  0  0  0  0  0  0  0  0  0  0  0
   10.7620  -16.9783   28.4170 O   0  0  0  0  0  0  0  0  0  0  0  0
   10.2510  -18.3423   26.6831 O   0  0  0  0  0  0  0  0  0  0  0  0
  2  1  1  6
  3  2  1  0
  4  2  1  0
  4  5  1  6
  6  7  2  0
  6  4  1  0
  9  8  1  6
  9 11  1  0
 10  9  1  0
 11 12  1  6
 12  6  1  0
 13 11  1  0
 14 13  2  0
 15 13  1  0
 16 17  1  1
 16 15  1  0
 17 18  1  0
 18 22  1  0
 19 20  1  0
 19 18  2  0
 20 21  1  0
 21 22  2  0
 23 16  1  0
 24 23  1  0
 25 23  2  0
M  END
$$$$
