VTH.pdb
     RDKit          3D

 25 25  0  0  1  0  0  0  0  0999 V2000
    7.4497  -12.2166   19.0743 C   0  0  0  0  0  0  0  0  0  0  0  0
    7.6577  -13.4848   19.8264 C   0  0  2  0  0  0  0  0  0  0  0  0
    8.1461  -13.1196   21.2237 C   0  0  0  0  0  0  0  0  0  0  0  0
    8.6252  -14.4521   19.1662 C   0  0  2  0  0  0  0  0  0  0  0  0
    8.0561  -14.8024   17.8491 N   0  0  0  0  0  0  0  0  0  0  0  0
    8.8128  -15.6991   19.9194 C   0  0  0  0  0  0  0  0  0  0  0  0
    7.9147  -16.6145   19.8987 O   0  0  0  0  0  0  0  0  0  0  0  0
   10.6838  -18.5692   19.5491 C   0  0  0  0  0  0  0  0  0  0  0  0
   11.0943  -18.0983   20.9197 C   0  0  1  0  0  0  0  0  0  0  0  0
   12.2464  -17.3290   20.8277 O   0  0  0  0  0  0  0  0  0  0  0  0
   10.0272  -17.2059   21.5459 C   0  0  2  0  0  0  0  0  0  0  0  0
    9.9449  -16.0228   20.7140 N   0  0  0  0  0  0  0  0  0  0  0  0
   10.5400  -16.7930   22.8737 C   0  0  0  0  0  0  0  0  0  0  0  0
   10.8347  -15.5939   23.1480 O   0  0  0  0  0  0  0  0  0  0  0  0
   10.7306  -17.7386   23.9255 N   0  0  0  0  0  0  0  0  0  0  0  0
   11.1478  -17.3351   25.2571 C   0  0  1  0  0  0  0  0  0  0  0  0
   10.0426  -16.4406   25.7879 C   0  0  0  0  0  0  0  0  0  0  0  0
    8.7619  -17.1450   25.9303 C   0  0  0  0  0  0  0  0  0  0  0  0
    7.6612  -17.0613   25.1334 C   0  0  0  0  0  0  0  0  0  0  0  0
    6.7306  -17.8854   25.6582 N   0  0  0  0  0  0  0  0  0  0  0  0
    7.2626  -18.4556   26.7531 C   0  0  0  0  0  0  0  0  0  0  0  0
    8.5019  -18.0177   26.9376 N   0  0  0  0  0  0  0  0  0  0  0  0
   11.3477  -18.5477   26.0636 C   0  0  0  0  0  0  0  0  0  0  0  0
   11.7822  -18.4370   27.3655 O   0  0  0  0  0  0  0  0  0  0  0  0
   11.1295  -19.6744   25.5848 O   0  0  0  0  0  0  0  0  0  0  0  0
  2  1  1  6
  3  2  1  0
  4  2  1  0
  4  5  1  6
  6  7  2  0
  6  4  1  0
  9  8  1  6
  9 11  1  0
 10  9  1  0
 11 12  1  6
 12  6  1  0
 13 11  1  0
 14 13  2  0
 15 13  1  0
 16 17  1  1
 16 15  1  0
 17 18  1  0
 18 22  1  0
 19 20  1  0
 19 18  2  0
 20 21  1  0
 21 22  2  0
 23 16  1  0
 24 23  1  0
 25 23  2  0
M  END
$$$$
