VTH.pdb
     RDKit          3D

 25 25  0  0  1  0  0  0  0  0999 V2000
    8.4316  -12.1551   18.7532 C   0  0  0  0  0  0  0  0  0  0  0  0
    8.1294  -13.1442   19.8244 C   0  0  2  0  0  0  0  0  0  0  0  0
    8.5439  -12.5267   21.1552 C   0  0  0  0  0  0  0  0  0  0  0  0
    8.8018  -14.4936   19.6377 C   0  0  2  0  0  0  0  0  0  0  0  0
    8.2967  -15.0572   18.3693 N   0  0  0  0  0  0  0  0  0  0  0  0
    8.4973  -15.4532   20.7072 C   0  0  0  0  0  0  0  0  0  0  0  0
    7.6431  -16.3909   20.5179 O   0  0  0  0  0  0  0  0  0  0  0  0
    9.0473  -18.2404   21.2102 C   0  0  0  0  0  0  0  0  0  0  0  0
    9.5862  -17.7272   22.5199 C   0  0  1  0  0  0  0  0  0  0  0  0
   10.9108  -17.3411   22.3649 O   0  0  0  0  0  0  0  0  0  0  0  0
    8.8272  -16.4899   22.9891 C   0  0  2  0  0  0  0  0  0  0  0  0
    9.0785  -15.4586   22.0033 N   0  0  0  0  0  0  0  0  0  0  0  0
    9.4519  -16.0624   24.2633 C   0  0  0  0  0  0  0  0  0  0  0  0
   10.5126  -15.3747   24.3056 O   0  0  0  0  0  0  0  0  0  0  0  0
    8.8821  -16.4088   25.5251 N   0  0  0  0  0  0  0  0  0  0  0  0
    9.3809  -15.8563   26.7725 C   0  0  1  0  0  0  0  0  0  0  0  0
    8.1626  -15.3455   27.5197 C   0  0  0  0  0  0  0  0  0  0  0  0
    7.4967  -14.2349   26.8269 C   0  0  0  0  0  0  0  0  0  0  0  0
    7.8758  -12.9285   26.7711 C   0  0  0  0  0  0  0  0  0  0  0  0
    6.9564  -12.2826   26.0239 N   0  0  0  0  0  0  0  0  0  0  0  0
    6.0391  -13.1856   25.6367 C   0  0  0  0  0  0  0  0  0  0  0  0
    6.3495  -14.3838   26.1158 N   0  0  0  0  0  0  0  0  0  0  0  0
   10.0970  -16.9191   27.4924 C   0  0  0  0  0  0  0  0  0  0  0  0
   10.7618  -16.6228   28.6613 O   0  0  0  0  0  0  0  0  0  0  0  0
   10.1108  -18.0846   27.0589 O   0  0  0  0  0  0  0  0  0  0  0  0
  2  1  1  6
  3  2  1  0
  4  2  1  0
  4  5  1  6
  6  7  2  0
  6  4  1  0
  9  8  1  6
  9 11  1  0
 10  9  1  0
 11 12  1  6
 12  6  1  0
 13 11  1  0
 14 13  2  0
 15 13  1  0
 16 17  1  1
 16 15  1  0
 17 18  1  0
 18 22  1  0
 19 20  1  0
 19 18  2  0
 20 21  1  0
 21 22  2  0
 23 16  1  0
 24 23  1  0
 25 23  2  0
M  END
$$$$
