VTH.pdb
     RDKit          3D

 25 25  0  0  1  0  0  0  0  0999 V2000
   10.2915  -16.8027   14.3929 C   0  0  0  0  0  0  0  0  0  0  0  0
    8.8464  -16.5121   14.6040 C   0  0  2  0  0  0  0  0  0  0  0  0
    8.0995  -16.9400   13.3457 C   0  0  0  0  0  0  0  0  0  0  0  0
    8.5414  -15.0600   14.9296 C   0  0  2  0  0  0  0  0  0  0  0  0
    9.0935  -14.2444   13.8289 N   0  0  0  0  0  0  0  0  0  0  0  0
    9.1557  -14.5984   16.1813 C   0  0  0  0  0  0  0  0  0  0  0  0
   10.3196  -14.0598   16.1763 O   0  0  0  0  0  0  0  0  0  0  0  0
    7.2822  -12.8290   19.3069 C   0  0  0  0  0  0  0  0  0  0  0  0
    8.1407  -13.9988   19.7112 C   0  0  1  0  0  0  0  0  0  0  0  0
    7.3686  -15.1511   19.7708 O   0  0  0  0  0  0  0  0  0  0  0  0
    9.2383  -14.2661   18.6860 C   0  0  2  0  0  0  0  0  0  0  0  0
    8.5691  -14.6867   17.4720 N   0  0  0  0  0  0  0  0  0  0  0  0
   10.0259  -15.4150   19.1922 C   0  0  0  0  0  0  0  0  0  0  0  0
   10.3416  -16.3993   18.4631 O   0  0  0  0  0  0  0  0  0  0  0  0
   10.4750  -15.4716   20.5456 N   0  0  0  0  0  0  0  0  0  0  0  0
   11.8767  -15.6452   20.8848 C   0  0  1  0  0  0  0  0  0  0  0  0
   12.6000  -14.4473   20.2973 C   0  0  0  0  0  0  0  0  0  0  0  0
   13.6641  -14.8306   19.3604 C   0  0  0  0  0  0  0  0  0  0  0  0
   14.0840  -16.0825   19.0289 C   0  0  0  0  0  0  0  0  0  0  0  0
   15.0840  -15.9392   18.1344 N   0  0  0  0  0  0  0  0  0  0  0  0
   15.2628  -14.6226   17.9310 C   0  0  0  0  0  0  0  0  0  0  0  0
   14.4065  -13.9276   18.6695 N   0  0  0  0  0  0  0  0  0  0  0  0
   11.9889  -15.7277   22.3482 C   0  0  0  0  0  0  0  0  0  0  0  0
   11.2220  -14.9014   23.1387 O   0  0  0  0  0  0  0  0  0  0  0  0
   12.7689  -16.5352   22.8828 O   0  0  0  0  0  0  0  0  0  0  0  0
  2  1  1  6
  3  2  1  0
  4  2  1  0
  4  5  1  6
  6  7  2  0
  6  4  1  0
  9  8  1  6
  9 11  1  0
 10  9  1  0
 11 12  1  6
 12  6  1  0
 13 11  1  0
 14 13  2  0
 15 13  1  0
 16 17  1  1
 16 15  1  0
 17 18  1  0
 18 22  1  0
 19 20  1  0
 19 18  2  0
 20 21  1  0
 21 22  2  0
 23 16  1  0
 24 23  1  0
 25 23  2  0
M  END
$$$$
