VTH.pdb
     RDKit          3D

 25 25  0  0  1  0  0  0  0  0999 V2000
   12.2157  -18.6859   20.6268 C   0  0  0  0  0  0  0  0  0  0  0  0
   10.8916  -19.0171   20.0314 C   0  0  2  0  0  0  0  0  0  0  0  0
   11.0889  -20.2038   19.0948 C   0  0  0  0  0  0  0  0  0  0  0  0
   10.2329  -17.8656   19.2912 C   0  0  2  0  0  0  0  0  0  0  0  0
   11.1223  -17.5080   18.1676 N   0  0  0  0  0  0  0  0  0  0  0  0
   10.0504  -16.6654   20.1179 C   0  0  0  0  0  0  0  0  0  0  0  0
   10.9377  -15.7395   20.1277 O   0  0  0  0  0  0  0  0  0  0  0  0
    6.9940  -14.1665   20.6639 C   0  0  0  0  0  0  0  0  0  0  0  0
    7.4134  -14.8531   21.9374 C   0  0  1  0  0  0  0  0  0  0  0  0
    6.6655  -16.0089   22.1174 O   0  0  0  0  0  0  0  0  0  0  0  0
    8.8747  -15.2878   21.8817 C   0  0  2  0  0  0  0  0  0  0  0  0
    8.9345  -16.4006   20.9560 N   0  0  0  0  0  0  0  0  0  0  0  0
    9.2207  -15.7986   23.2292 C   0  0  0  0  0  0  0  0  0  0  0  0
    9.3242  -17.0331   23.4846 O   0  0  0  0  0  0  0  0  0  0  0  0
    9.4583  -14.9131   24.3229 N   0  0  0  0  0  0  0  0  0  0  0  0
    9.7866  -15.4012   25.6511 C   0  0  1  0  0  0  0  0  0  0  0  0
   10.0447  -14.1680   26.4972 C   0  0  0  0  0  0  0  0  0  0  0  0
   10.3527  -14.4938   27.8958 C   0  0  0  0  0  0  0  0  0  0  0  0
   10.4956  -15.7234   28.4624 C   0  0  0  0  0  0  0  0  0  0  0  0
   10.7723  -15.5261   29.7683 N   0  0  0  0  0  0  0  0  0  0  0  0
   10.7954  -14.1995   29.9837 C   0  0  0  0  0  0  0  0  0  0  0  0
   10.5417  -13.5506   28.8541 N   0  0  0  0  0  0  0  0  0  0  0  0
    8.6584  -16.2093   26.1359 C   0  0  0  0  0  0  0  0  0  0  0  0
    7.3724  -15.8664   25.7831 O   0  0  0  0  0  0  0  0  0  0  0  0
    8.8502  -17.2004   26.8622 O   0  0  0  0  0  0  0  0  0  0  0  0
  2  1  1  6
  3  2  1  0
  4  2  1  0
  4  5  1  6
  6  7  2  0
  6  4  1  0
  9  8  1  6
  9 11  1  0
 10  9  1  0
 11 12  1  6
 12  6  1  0
 13 11  1  0
 14 13  2  0
 15 13  1  0
 16 17  1  1
 16 15  1  0
 17 18  1  0
 18 22  1  0
 19 20  1  0
 19 18  2  0
 20 21  1  0
 21 22  2  0
 23 16  1  0
 24 23  1  0
 25 23  2  0
M  END
$$$$
