VTH.pdb
     RDKit          3D

 25 25  0  0  1  0  0  0  0  0999 V2000
    7.1432  -12.9377   19.9334 C   0  0  0  0  0  0  0  0  0  0  0  0
    8.6044  -13.0853   19.6877 C   0  0  2  0  0  0  0  0  0  0  0  0
    9.0033  -12.0565   18.6357 C   0  0  0  0  0  0  0  0  0  0  0  0
    9.0278  -14.4772   19.2505 C   0  0  2  0  0  0  0  0  0  0  0  0
    8.3002  -14.7785   18.0010 N   0  0  0  0  0  0  0  0  0  0  0  0
    8.6962  -15.5241   20.2259 C   0  0  0  0  0  0  0  0  0  0  0  0
    7.6134  -16.2019   20.1118 O   0  0  0  0  0  0  0  0  0  0  0  0
    9.5730  -18.7419   20.7887 C   0  0  0  0  0  0  0  0  0  0  0  0
    9.8926  -18.1079   22.1172 C   0  0  1  0  0  0  0  0  0  0  0  0
   11.2237  -17.7137   22.1426 O   0  0  0  0  0  0  0  0  0  0  0  0
    9.0640  -16.8479   22.3479 C   0  0  2  0  0  0  0  0  0  0  0  0
    9.4884  -15.8912   21.3463 N   0  0  0  0  0  0  0  0  0  0  0  0
    9.4524  -16.3177   23.6763 C   0  0  0  0  0  0  0  0  0  0  0  0
   10.4481  -15.5553   23.8415 O   0  0  0  0  0  0  0  0  0  0  0  0
    8.7141  -16.6437   24.8532 N   0  0  0  0  0  0  0  0  0  0  0  0
    9.0692  -16.1105   26.1570 C   0  0  1  0  0  0  0  0  0  0  0  0
    7.7820  -15.5694   26.7515 C   0  0  0  0  0  0  0  0  0  0  0  0
    7.4807  -14.2034   26.3042 C   0  0  0  0  0  0  0  0  0  0  0  0
    8.2707  -13.3588   25.5858 C   0  0  0  0  0  0  0  0  0  0  0  0
    7.5738  -12.2158   25.4158 N   0  0  0  0  0  0  0  0  0  0  0  0
    6.3842  -12.3703   26.0221 C   0  0  0  0  0  0  0  0  0  0  0  0
    6.3062  -13.5763   26.5709 N   0  0  0  0  0  0  0  0  0  0  0  0
    9.6618  -17.1959   26.9518 C   0  0  0  0  0  0  0  0  0  0  0  0
    9.7201  -18.4692   26.4311 O   0  0  0  0  0  0  0  0  0  0  0  0
   10.1118  -16.9790   28.0906 O   0  0  0  0  0  0  0  0  0  0  0  0
  2  1  1  6
  3  2  1  0
  4  2  1  0
  4  5  1  6
  6  7  2  0
  6  4  1  0
  9  8  1  6
  9 11  1  0
 10  9  1  0
 11 12  1  6
 12  6  1  0
 13 11  1  0
 14 13  2  0
 15 13  1  0
 16 17  1  1
 16 15  1  0
 17 18  1  0
 18 22  1  0
 19 20  1  0
 19 18  2  0
 20 21  1  0
 21 22  2  0
 23 16  1  0
 24 23  1  0
 25 23  2  0
M  END
$$$$
