VTH.pdb
     RDKit          3D

 25 25  0  0  1  0  0  0  0  0999 V2000
    8.9895  -17.6197   14.0682 C   0  0  0  0  0  0  0  0  0  0  0  0
    9.3825  -17.0787   15.3987 C   0  0  2  0  0  0  0  0  0  0  0  0
    9.2032  -18.1935   16.4231 C   0  0  0  0  0  0  0  0  0  0  0  0
    8.6091  -15.8425   15.8247 C   0  0  2  0  0  0  0  0  0  0  0  0
    8.8302  -14.8147   14.7873 N   0  0  0  0  0  0  0  0  0  0  0  0
    9.0545  -15.2861   17.1090 C   0  0  0  0  0  0  0  0  0  0  0  0
   10.2073  -14.7345   17.2157 O   0  0  0  0  0  0  0  0  0  0  0  0
    7.0776  -12.9221   19.4431 C   0  0  0  0  0  0  0  0  0  0  0  0
    7.5979  -14.0864   20.2447 C   0  0  1  0  0  0  0  0  0  0  0  0
    6.6179  -15.0648   20.3443 O   0  0  0  0  0  0  0  0  0  0  0  0
    8.7956  -14.7417   19.5640 C   0  0  2  0  0  0  0  0  0  0  0  0
    8.3059  -15.2908   18.3162 N   0  0  0  0  0  0  0  0  0  0  0  0
    9.2116  -15.8731   20.4263 C   0  0  0  0  0  0  0  0  0  0  0  0
    9.2115  -17.0724   20.0244 O   0  0  0  0  0  0  0  0  0  0  0  0
    9.6392  -15.6659   21.7719 N   0  0  0  0  0  0  0  0  0  0  0  0
   10.4700  -16.6298   22.4726 C   0  0  1  0  0  0  0  0  0  0  0  0
   11.7295  -16.7794   21.6392 C   0  0  0  0  0  0  0  0  0  0  0  0
   12.6983  -17.7075   22.2367 C   0  0  0  0  0  0  0  0  0  0  0  0
   13.0244  -17.8543   23.5503 C   0  0  0  0  0  0  0  0  0  0  0  0
   13.9608  -18.8234   23.6182 N   0  0  0  0  0  0  0  0  0  0  0  0
   14.1942  -19.2526   22.3660 C   0  0  0  0  0  0  0  0  0  0  0  0
   13.4342  -18.5848   21.5070 N   0  0  0  0  0  0  0  0  0  0  0  0
   10.7294  -16.1160   23.8252 C   0  0  0  0  0  0  0  0  0  0  0  0
   10.2617  -14.8715   24.1834 O   0  0  0  0  0  0  0  0  0  0  0  0
   11.3670  -16.7916   24.6519 O   0  0  0  0  0  0  0  0  0  0  0  0
  2  1  1  6
  3  2  1  0
  4  2  1  0
  4  5  1  6
  6  7  2  0
  6  4  1  0
  9  8  1  6
  9 11  1  0
 10  9  1  0
 11 12  1  6
 12  6  1  0
 13 11  1  0
 14 13  2  0
 15 13  1  0
 16 17  1  6
 16 15  1  0
 17 18  1  0
 18 22  1  0
 19 20  1  0
 19 18  2  0
 20 21  1  0
 21 22  2  0
 23 16  1  0
 24 23  1  0
 25 23  2  0
M  END
$$$$
