EVH.pdb
     RDKit          3D

 27 27  0  0  1  0  0  0  0  0999 V2000
   19.2089  -27.2178  -11.4483 N   0  0  0  0  0  0  0  0  0  0  0  0
   18.5130  -27.7507  -10.3546 C   0  0  1  0  0  0  0  0  0  0  0  0
   18.6534  -29.2163  -10.1910 C   0  0  0  0  0  0  0  0  0  0  0  0
   17.4391  -29.9932  -10.4901 C   0  0  0  0  0  0  0  0  0  0  0  0
   17.6305  -31.0088  -11.5319 C   0  0  0  0  0  0  0  0  0  0  0  0
   17.9995  -32.1765  -11.2686 O   0  0  0  0  0  0  0  0  0  0  0  0
   18.8225  -27.1062   -9.0286 C   0  0  0  0  0  0  0  0  0  0  0  0
   20.0446  -26.9226   -8.7312 O   0  0  0  0  0  0  0  0  0  0  0  0
   17.3955  -30.6787  -12.8935 O   0  0  0  0  0  0  0  0  0  0  0  0
   17.5857  -23.7215   -5.8792 C   0  0  0  0  0  0  0  0  0  0  0  0
   18.1422  -24.4736   -7.0577 C   0  0  2  0  0  0  0  0  0  0  0  0
   17.4391  -24.0900   -8.3515 C   0  0  0  0  0  0  0  0  0  0  0  0
   18.2162  -25.9509   -6.8785 C   0  0  2  0  0  0  0  0  0  0  0  0
   17.8700  -26.6889   -8.0876 N   0  0  0  0  0  0  0  0  0  0  0  0
   17.3178  -26.4042   -5.7632 C   0  0  0  0  0  0  0  0  0  0  0  0
   16.0905  -26.5538   -5.9991 O   0  0  0  0  0  0  0  0  0  0  0  0
   17.8297  -26.6614   -4.4683 N   0  0  0  0  0  0  0  0  0  0  0  0
   16.9662  -26.9918   -3.3291 C   0  0  1  0  0  0  0  0  0  0  0  0
   17.7287  -27.6165   -2.2270 C   0  0  0  0  0  0  0  0  0  0  0  0
   18.1939  -28.9762   -2.5892 C   0  0  0  0  0  0  0  0  0  0  0  0
   17.3733  -29.9520   -3.1705 C   0  0  0  0  0  0  0  0  0  0  0  0
   18.1073  -31.0532   -3.3658 N   0  0  0  0  0  0  0  0  0  0  0  0
   19.3547  -30.8346   -2.9404 C   0  0  0  0  0  0  0  0  0  0  0  0
   19.3841  -29.5801   -2.4777 N   0  0  0  0  0  0  0  0  0  0  0  0
   16.3607  -25.7044   -2.8897 C   0  0  0  0  0  0  0  0  0  0  0  0
   16.8007  -24.6022   -3.2382 O   0  0  0  0  0  0  0  0  0  0  0  0
   15.2313  -25.7056   -2.0337 O   0  0  0  0  0  0  0  0  0  0  0  0
  2  3  1  0
  2  1  1  6
  3  4  1  0
  5  4  1  0
  6  5  2  0
  7  2  1  0
  8  7  2  0
  9  5  1  0
 11 13  1  0
 11 10  1  1
 12 11  1  0
 13 14  1  6
 14  7  1  0
 15 13  1  0
 15 16  2  0
 17 15  1  0
 18 17  1  0
 18 19  1  1
 20 19  1  0
 21 20  2  0
 22 21  1  0
 23 22  1  0
 23 24  2  0
 24 20  1  0
 25 18  1  0
 26 25  2  0
 27 25  1  0
M  END
$$$$
