EVH.pdb
     RDKit          3D

 27 27  0  0  1  0  0  0  0  0999 V2000
   27.2860  -12.7016  -18.6752 N   0  0  0  0  0  0  0  0  0  0  0  0
   27.3523  -11.6246  -17.7805 C   0  0  1  0  0  0  0  0  0  0  0  0
   28.3887  -10.6173  -18.1061 C   0  0  0  0  0  0  0  0  0  0  0  0
   29.7535  -11.1527  -18.2408 C   0  0  0  0  0  0  0  0  0  0  0  0
   30.7601  -10.1303  -18.5495 C   0  0  0  0  0  0  0  0  0  0  0  0
   31.2611  -10.0074  -19.6909 O   0  0  0  0  0  0  0  0  0  0  0  0
   26.0516  -10.8960  -17.5649 C   0  0  0  0  0  0  0  0  0  0  0  0
   25.2248  -10.8637  -18.5298 O   0  0  0  0  0  0  0  0  0  0  0  0
   31.1968   -9.2381  -17.5339 O   0  0  0  0  0  0  0  0  0  0  0  0
   22.1697   -9.8718  -14.9264 C   0  0  0  0  0  0  0  0  0  0  0  0
   23.4644  -10.5189  -15.3377 C   0  0  2  0  0  0  0  0  0  0  0  0
   24.2038  -11.1043  -14.1435 C   0  0  0  0  0  0  0  0  0  0  0  0
   24.3496   -9.6666  -16.1803 C   0  0  2  0  0  0  0  0  0  0  0  0
   25.6729  -10.2452  -16.3817 N   0  0  0  0  0  0  0  0  0  0  0  0
   24.5080   -8.2978  -15.5822 C   0  0  0  0  0  0  0  0  0  0  0  0
   25.3770   -8.1261  -14.6880 O   0  0  0  0  0  0  0  0  0  0  0  0
   23.7017   -7.2143  -16.0077 N   0  0  0  0  0  0  0  0  0  0  0  0
   23.9085   -5.8418  -15.5325 C   0  0  1  0  0  0  0  0  0  0  0  0
   24.5057   -4.9842  -16.5786 C   0  0  0  0  0  0  0  0  0  0  0  0
   23.7249   -5.0373  -17.8372 C   0  0  0  0  0  0  0  0  0  0  0  0
   23.9784   -5.9449  -18.8743 C   0  0  0  0  0  0  0  0  0  0  0  0
   23.0936   -5.7200  -19.8521 N   0  0  0  0  0  0  0  0  0  0  0  0
   22.2867   -4.7164  -19.4964 C   0  0  0  0  0  0  0  0  0  0  0  0
   22.6842   -4.3213  -18.2820 N   0  0  0  0  0  0  0  0  0  0  0  0
   22.5628   -5.3388  -15.1410 C   0  0  0  0  0  0  0  0  0  0  0  0
   21.5131   -5.9034  -15.4713 O   0  0  0  0  0  0  0  0  0  0  0  0
   22.4433   -4.1639  -14.3577 O   0  0  0  0  0  0  0  0  0  0  0  0
  2  3  1  0
  2  1  1  6
  3  4  1  0
  5  4  1  0
  6  5  2  0
  7  2  1  0
  8  7  2  0
  9  5  1  0
 11 13  1  0
 11 10  1  1
 12 11  1  0
 13 14  1  1
 14  7  1  0
 15 13  1  0
 15 16  2  0
 17 15  1  0
 18 17  1  0
 18 19  1  6
 20 19  1  0
 21 20  2  0
 22 21  1  0
 23 22  1  0
 23 24  2  0
 24 20  1  0
 25 18  1  0
 26 25  2  0
 27 25  1  0
M  END
$$$$
