EVH.pdb
     RDKit          3D

 27 27  0  0  1  0  0  0  0  0999 V2000
   20.3718  -33.9186   -7.6806 N   0  0  0  0  0  0  0  0  0  0  0  0
   21.3574  -33.1856   -7.0055 C   0  0  1  0  0  0  0  0  0  0  0  0
   20.9908  -32.7860   -5.6269 C   0  0  0  0  0  0  0  0  0  0  0  0
   20.8580  -33.8994   -4.6728 C   0  0  0  0  0  0  0  0  0  0  0  0
   20.2169  -33.5192   -3.4086 C   0  0  0  0  0  0  0  0  0  0  0  0
   19.8391  -32.3481   -3.1754 O   0  0  0  0  0  0  0  0  0  0  0  0
   22.7125  -33.8415   -6.9514 C   0  0  0  0  0  0  0  0  0  0  0  0
   22.7586  -35.1099   -7.0186 O   0  0  0  0  0  0  0  0  0  0  0  0
   20.0076  -34.4970   -2.3995 O   0  0  0  0  0  0  0  0  0  0  0  0
   26.5313  -31.6924   -7.1144 C   0  0  0  0  0  0  0  0  0  0  0  0
   26.2491  -33.0668   -7.6578 C   0  0  2  0  0  0  0  0  0  0  0  0
   25.9473  -33.0301   -9.1488 C   0  0  0  0  0  0  0  0  0  0  0  0
   25.2269  -33.8415   -6.8995 C   0  0  2  0  0  0  0  0  0  0  0  0
   23.9361  -33.1666   -6.8318 N   0  0  0  0  0  0  0  0  0  0  0  0
   25.6954  -34.1274   -5.5012 C   0  0  0  0  0  0  0  0  0  0  0  0
   25.2211  -33.4472   -4.5543 O   0  0  0  0  0  0  0  0  0  0  0  0
   26.6509  -35.1395   -5.2409 N   0  0  0  0  0  0  0  0  0  0  0  0
   27.1462  -35.4294   -3.8907 C   0  0  1  0  0  0  0  0  0  0  0  0
   27.9817  -36.6490   -3.8639 C   0  0  0  0  0  0  0  0  0  0  0  0
   27.1612  -37.8667   -3.6629 C   0  0  0  0  0  0  0  0  0  0  0  0
   25.7673  -37.8527   -3.5197 C   0  0  0  0  0  0  0  0  0  0  0  0
   25.3511  -39.1138   -3.3578 N   0  0  0  0  0  0  0  0  0  0  0  0
   26.4045  -39.9348   -3.3897 C   0  0  0  0  0  0  0  0  0  0  0  0
   27.4819  -39.1639   -3.5740 N   0  0  0  0  0  0  0  0  0  0  0  0
   27.9387  -34.2366   -3.4825 C   0  0  0  0  0  0  0  0  0  0  0  0
   28.3674  -34.0767   -2.3334 O   0  0  0  0  0  0  0  0  0  0  0  0
   28.2313  -33.2207   -4.4262 O   0  0  0  0  0  0  0  0  0  0  0  0
  2  3  1  0
  2  1  1  1
  3  4  1  0
  5  4  1  0
  6  5  2  0
  7  2  1  0
  8  7  2  0
  9  5  1  0
 11 13  1  0
 11 10  1  1
 12 11  1  0
 13 14  1  1
 14  7  1  0
 15 13  1  0
 15 16  2  0
 17 15  1  0
 18 17  1  0
 18 19  1  6
 20 19  1  0
 21 20  2  0
 22 21  1  0
 23 22  1  0
 23 24  2  0
 24 20  1  0
 25 18  1  0
 26 25  2  0
 27 25  1  0
M  END
$$$$
