EVH.pdb
     RDKit          3D

 27 27  0  0  1  0  0  0  0  0999 V2000
   19.5647  -13.3463  -16.9615 N   0  0  0  0  0  0  0  0  0  0  0  0
   19.5918  -11.9856  -17.2968 C   0  0  1  0  0  0  0  0  0  0  0  0
   18.2946  -11.4403  -17.7601 C   0  0  0  0  0  0  0  0  0  0  0  0
   17.6887  -12.1589  -18.8932 C   0  0  0  0  0  0  0  0  0  0  0  0
   16.9967  -13.3938  -18.5061 C   0  0  0  0  0  0  0  0  0  0  0  0
   17.4078  -14.5266  -18.8474 O   0  0  0  0  0  0  0  0  0  0  0  0
   20.1167  -11.0750  -16.2176 C   0  0  0  0  0  0  0  0  0  0  0  0
   19.5075  -11.0677  -15.1020 O   0  0  0  0  0  0  0  0  0  0  0  0
   15.8172  -13.3263  -17.7172 O   0  0  0  0  0  0  0  0  0  0  0  0
   24.1875   -9.7602  -15.8307 C   0  0  0  0  0  0  0  0  0  0  0  0
   23.1077   -9.8955  -14.7916 C   0  0  2  0  0  0  0  0  0  0  0  0
   23.0757  -11.2945  -14.1938 C   0  0  0  0  0  0  0  0  0  0  0  0
   21.7572   -9.4443  -15.2306 C   0  0  2  0  0  0  0  0  0  0  0  0
   21.2280  -10.2284  -16.3403 N   0  0  0  0  0  0  0  0  0  0  0  0
   21.7762   -7.9961  -15.6295 C   0  0  0  0  0  0  0  0  0  0  0  0
   22.1668   -7.6935  -16.7871 O   0  0  0  0  0  0  0  0  0  0  0  0
   21.3651   -6.9827  -14.7300 N   0  0  0  0  0  0  0  0  0  0  0  0
   21.4627   -5.5546  -15.0514 C   0  0  1  0  0  0  0  0  0  0  0  0
   20.1309   -4.9153  -15.1153 C   0  0  0  0  0  0  0  0  0  0  0  0
   19.3592   -5.3813  -16.2916 C   0  0  0  0  0  0  0  0  0  0  0  0
   19.6196   -4.9730  -17.6065 C   0  0  0  0  0  0  0  0  0  0  0  0
   18.7436   -5.5810  -18.4143 N   0  0  0  0  0  0  0  0  0  0  0  0
   17.9357   -6.3573  -17.6865 C   0  0  0  0  0  0  0  0  0  0  0  0
   18.3238   -6.2220  -16.4137 N   0  0  0  0  0  0  0  0  0  0  0  0
   22.2885   -4.9490  -13.9704 C   0  0  0  0  0  0  0  0  0  0  0  0
   22.6787   -3.7757  -14.0012 O   0  0  0  0  0  0  0  0  0  0  0  0
   22.6628   -5.7229  -12.8438 O   0  0  0  0  0  0  0  0  0  0  0  0
  2  3  1  0
  2  1  1  1
  3  4  1  0
  5  4  1  0
  6  5  2  0
  7  2  1  0
  8  7  2  0
  9  5  1  0
 11 13  1  0
 11 10  1  6
 12 11  1  0
 13 14  1  6
 14  7  1  0
 15 13  1  0
 15 16  2  0
 17 15  1  0
 18 17  1  0
 18 19  1  1
 20 19  1  0
 21 20  2  0
 22 21  1  0
 23 22  1  0
 23 24  2  0
 24 20  1  0
 25 18  1  0
 26 25  2  0
 27 25  1  0
M  END
$$$$
