EVH.pdb
     RDKit          3D

 27 27  0  0  1  0  0  0  0  0999 V2000
   28.4441  -28.0340  -16.7079 N   0  0  0  0  0  0  0  0  0  0  0  0
   27.7876  -26.9973  -17.3853 C   0  0  1  0  0  0  0  0  0  0  0  0
   26.4527  -27.3582  -17.9167 C   0  0  0  0  0  0  0  0  0  0  0  0
   26.4702  -28.2811  -19.0636 C   0  0  0  0  0  0  0  0  0  0  0  0
   26.1548  -27.6368  -20.3438 C   0  0  0  0  0  0  0  0  0  0  0  0
   27.0440  -27.2798  -21.1505 O   0  0  0  0  0  0  0  0  0  0  0  0
   27.6431  -25.7179  -16.6033 C   0  0  0  0  0  0  0  0  0  0  0  0
   27.6711  -25.7938  -15.3348 O   0  0  0  0  0  0  0  0  0  0  0  0
   24.8007  -27.3992  -20.7016 O   0  0  0  0  0  0  0  0  0  0  0  0
   28.3956  -21.6686  -18.1065 C   0  0  0  0  0  0  0  0  0  0  0  0
   28.5201  -22.2570  -16.7273 C   0  0  2  0  0  0  0  0  0  0  0  0
   29.9093  -22.8284  -16.4838 C   0  0  0  0  0  0  0  0  0  0  0  0
   27.4464  -23.2225  -16.3599 C   0  0  2  0  0  0  0  0  0  0  0  0
   27.4787  -24.4412  -17.1599 N   0  0  0  0  0  0  0  0  0  0  0  0
   26.0883  -22.5944  -16.4929 C   0  0  0  0  0  0  0  0  0  0  0  0
   25.5232  -22.6098  -17.6174 O   0  0  0  0  0  0  0  0  0  0  0  0
   25.4466  -21.9941  -15.3825 N   0  0  0  0  0  0  0  0  0  0  0  0
   24.1631  -21.2926  -15.4966 C   0  0  1  0  0  0  0  0  0  0  0  0
   23.6036  -20.9552  -14.1701 C   0  0  0  0  0  0  0  0  0  0  0  0
   22.3562  -20.1641  -14.2907 C   0  0  0  0  0  0  0  0  0  0  0  0
   21.1546  -20.6755  -14.7988 C   0  0  0  0  0  0  0  0  0  0  0  0
   20.2383  -19.7015  -14.7650 N   0  0  0  0  0  0  0  0  0  0  0  0
   20.7892  -18.5931  -14.2622 C   0  0  0  0  0  0  0  0  0  0  0  0
   22.0623  -18.8940  -13.9840 N   0  0  0  0  0  0  0  0  0  0  0  0
   24.4413  -20.0589  -16.2824 C   0  0  0  0  0  0  0  0  0  0  0  0
   25.5238  -19.4624  -16.2346 O   0  0  0  0  0  0  0  0  0  0  0  0
   23.4441  -19.5166  -17.1309 O   0  0  0  0  0  0  0  0  0  0  0  0
  2  3  1  0
  2  1  1  1
  3  4  1  0
  5  4  1  0
  6  5  2  0
  7  2  1  0
  8  7  2  0
  9  5  1  0
 11 13  1  0
 11 10  1  6
 12 11  1  0
 13 14  1  6
 14  7  1  0
 15 13  1  0
 15 16  2  0
 17 15  1  0
 18 17  1  0
 18 19  1  1
 20 19  1  0
 21 20  2  0
 22 21  1  0
 23 22  1  0
 23 24  2  0
 24 20  1  0
 25 18  1  0
 26 25  2  0
 27 25  1  0
M  END
$$$$
