EVH.pdb
     RDKit          3D

 27 27  0  0  1  0  0  0  0  0999 V2000
   23.6277  -18.3112  -15.3471 N   0  0  0  0  0  0  0  0  0  0  0  0
   22.8833  -17.1648  -15.6575 C   0  0  1  0  0  0  0  0  0  0  0  0
   21.4544  -17.2365  -15.2730 C   0  0  0  0  0  0  0  0  0  0  0  0
   20.7627  -18.4699  -15.6827 C   0  0  0  0  0  0  0  0  0  0  0  0
   19.3436  -18.5015  -15.3105 C   0  0  0  0  0  0  0  0  0  0  0  0
   18.8781  -19.3530  -14.5186 O   0  0  0  0  0  0  0  0  0  0  0  0
   23.4437  -15.8763  -15.1144 C   0  0  0  0  0  0  0  0  0  0  0  0
   23.6964  -15.8193  -13.8700 O   0  0  0  0  0  0  0  0  0  0  0  0
   18.4478  -17.5428  -15.8552 O   0  0  0  0  0  0  0  0  0  0  0  0
   26.2173  -11.9293  -15.1810 C   0  0  0  0  0  0  0  0  0  0  0  0
   25.6239  -13.1853  -15.7592 C   0  0  2  0  0  0  0  0  0  0  0  0
   25.7303  -13.2096  -17.2770 C   0  0  0  0  0  0  0  0  0  0  0  0
   24.2447  -13.4988  -15.2905 C   0  0  2  0  0  0  0  0  0  0  0  0
   23.7117  -14.7259  -15.8705 N   0  0  0  0  0  0  0  0  0  0  0  0
   23.3016  -12.3708  -15.5982 C   0  0  0  0  0  0  0  0  0  0  0  0
   22.8595  -12.2559  -16.7711 O   0  0  0  0  0  0  0  0  0  0  0  0
   22.9101  -11.4490  -14.5971 N   0  0  0  0  0  0  0  0  0  0  0  0
   21.9781  -10.3468  -14.8597 C   0  0  1  0  0  0  0  0  0  0  0  0
   21.6403   -9.6091  -13.6235 C   0  0  0  0  0  0  0  0  0  0  0  0
   20.6684   -8.5216  -13.8869 C   0  0  0  0  0  0  0  0  0  0  0  0
   19.2879   -8.7240  -14.0155 C   0  0  0  0  0  0  0  0  0  0  0  0
   18.7114   -7.5391  -14.2464 N   0  0  0  0  0  0  0  0  0  0  0  0
   19.6496   -6.5883  -14.2724 C   0  0  0  0  0  0  0  0  0  0  0  0
   20.8181   -7.2013  -14.0541 N   0  0  0  0  0  0  0  0  0  0  0  0
   22.6646   -9.4563  -15.8359 C   0  0  0  0  0  0  0  0  0  0  0  0
   22.1312   -9.0707  -16.8831 O   0  0  0  0  0  0  0  0  0  0  0  0
   23.9876   -9.0139  -15.5862 O   0  0  0  0  0  0  0  0  0  0  0  0
  2  3  1  0
  2  1  1  1
  3  4  1  0
  5  4  1  0
  6  5  2  0
  7  2  1  0
  8  7  2  0
  9  5  1  0
 11 13  1  0
 11 10  1  6
 12 11  1  0
 13 14  1  6
 14  7  1  0
 15 13  1  0
 15 16  2  0
 17 15  1  0
 18 17  1  0
 18 19  1  1
 20 19  1  0
 21 20  2  0
 22 21  1  0
 23 22  1  0
 23 24  2  0
 24 20  1  0
 25 18  1  0
 26 25  2  0
 27 25  1  0
M  END
$$$$
