EVH.pdb
     RDKit          3D

 27 27  0  0  1  0  0  0  0  0999 V2000
   19.7127  -14.2074  -18.7517 N   0  0  0  0  0  0  0  0  0  0  0  0
   18.8043  -13.5250  -17.9308 C   0  0  1  0  0  0  0  0  0  0  0  0
   17.8618  -14.4002  -17.1959 C   0  0  0  0  0  0  0  0  0  0  0  0
   18.4834  -15.2695  -16.1832 C   0  0  0  0  0  0  0  0  0  0  0  0
   17.5270  -16.1310  -15.4785 C   0  0  0  0  0  0  0  0  0  0  0  0
   17.8867  -16.9648  -14.6157 O   0  0  0  0  0  0  0  0  0  0  0  0
   19.4300  -12.5820  -16.9365 C   0  0  0  0  0  0  0  0  0  0  0  0
   18.6526  -11.9153  -16.1837 O   0  0  0  0  0  0  0  0  0  0  0  0
   16.1398  -16.0338  -15.7689 O   0  0  0  0  0  0  0  0  0  0  0  0
   23.3602  -10.8583  -14.3713 C   0  0  0  0  0  0  0  0  0  0  0  0
   22.7556  -11.7812  -15.3943 C   0  0  2  0  0  0  0  0  0  0  0  0
   23.6668  -11.9567  -16.6004 C   0  0  0  0  0  0  0  0  0  0  0  0
   21.3598  -11.4451  -15.7926 C   0  0  2  0  0  0  0  0  0  0  0  0
   20.8071  -12.3755  -16.7701 N   0  0  0  0  0  0  0  0  0  0  0  0
   21.2794  -10.0535  -16.3525 C   0  0  0  0  0  0  0  0  0  0  0  0
   21.5868   -9.8692  -17.5591 O   0  0  0  0  0  0  0  0  0  0  0  0
   20.8672   -8.9629  -15.5490 N   0  0  0  0  0  0  0  0  0  0  0  0
   20.7845   -7.5909  -16.0621 C   0  0  1  0  0  0  0  0  0  0  0  0
   19.4579   -7.3047  -16.6491 C   0  0  0  0  0  0  0  0  0  0  0  0
   19.3492   -5.8928  -17.0863 C   0  0  0  0  0  0  0  0  0  0  0  0
   18.5384   -4.9410  -16.4538 C   0  0  0  0  0  0  0  0  0  0  0  0
   18.6777   -3.7778  -17.0997 N   0  0  0  0  0  0  0  0  0  0  0  0
   19.5348   -3.9341  -18.1125 C   0  0  0  0  0  0  0  0  0  0  0  0
   19.9259   -5.2128  -18.0856 N   0  0  0  0  0  0  0  0  0  0  0  0
   21.0495   -6.7031  -14.8964 C   0  0  0  0  0  0  0  0  0  0  0  0
   20.8654   -7.0589  -13.7262 O   0  0  0  0  0  0  0  0  0  0  0  0
   21.5326   -5.3866  -15.1008 O   0  0  0  0  0  0  0  0  0  0  0  0
  2  3  1  0
  2  1  1  1
  3  4  1  0
  5  4  1  0
  6  5  2  0
  7  2  1  0
  8  7  2  0
  9  5  1  0
 11 13  1  0
 11 10  1  1
 12 11  1  0
 13 14  1  6
 14  7  1  0
 15 13  1  0
 15 16  2  0
 17 15  1  0
 18 17  1  0
 18 19  1  1
 20 19  1  0
 21 20  2  0
 22 21  1  0
 23 22  1  0
 23 24  2  0
 24 20  1  0
 25 18  1  0
 26 25  2  0
 27 25  1  0
M  END
$$$$
