EVH.pdb
     RDKit          3D

 27 27  0  0  1  0  0  0  0  0999 V2000
   24.3595  -15.6479  -18.2779 N   0  0  0  0  0  0  0  0  0  0  0  0
   24.5211  -14.3084  -18.6578 C   0  0  1  0  0  0  0  0  0  0  0  0
   23.6015  -13.8573  -19.7280 C   0  0  0  0  0  0  0  0  0  0  0  0
   23.7048  -14.6063  -20.9913 C   0  0  0  0  0  0  0  0  0  0  0  0
   25.0725  -14.6913  -21.5162 C   0  0  0  0  0  0  0  0  0  0  0  0
   25.7738  -13.6747  -21.7249 O   0  0  0  0  0  0  0  0  0  0  0  0
   24.4406  -13.3133  -17.5297 C   0  0  0  0  0  0  0  0  0  0  0  0
   23.5380  -13.4866  -16.6516 O   0  0  0  0  0  0  0  0  0  0  0  0
   25.6417  -15.9604  -21.8054 O   0  0  0  0  0  0  0  0  0  0  0  0
   27.2383   -9.9091  -16.6793 C   0  0  0  0  0  0  0  0  0  0  0  0
   26.4618  -10.7888  -15.7374 C   0  0  2  0  0  0  0  0  0  0  0  0
   27.3119  -11.9358  -15.2108 C   0  0  0  0  0  0  0  0  0  0  0  0
   25.1491  -11.2606  -16.2611 C   0  0  2  0  0  0  0  0  0  0  0  0
   25.2825  -12.2039  -17.3651 N   0  0  0  0  0  0  0  0  0  0  0  0
   24.3028  -10.1051  -16.7139 C   0  0  0  0  0  0  0  0  0  0  0  0
   24.5725   -9.5527  -17.8122 O   0  0  0  0  0  0  0  0  0  0  0  0
   23.2203   -9.6378  -15.9296 N   0  0  0  0  0  0  0  0  0  0  0  0
   22.3492   -8.5390  -16.3611 C   0  0  1  0  0  0  0  0  0  0  0  0
   21.0604   -9.0364  -16.8882 C   0  0  0  0  0  0  0  0  0  0  0  0
   20.1619   -7.9216  -17.2705 C   0  0  0  0  0  0  0  0  0  0  0  0
   19.2353   -7.3332  -16.3995 C   0  0  0  0  0  0  0  0  0  0  0  0
   18.5953   -6.3637  -17.0629 N   0  0  0  0  0  0  0  0  0  0  0  0
   19.0628   -6.2998  -18.3128 C   0  0  0  0  0  0  0  0  0  0  0  0
   20.0035   -7.2450  -18.4154 N   0  0  0  0  0  0  0  0  0  0  0  0
   22.1355   -7.6911  -15.1558 C   0  0  0  0  0  0  0  0  0  0  0  0
   22.1393   -8.1462  -14.0057 O   0  0  0  0  0  0  0  0  0  0  0  0
   21.9137   -6.2985  -15.2967 O   0  0  0  0  0  0  0  0  0  0  0  0
  2  3  1  0
  2  1  1  1
  3  4  1  0
  5  4  1  0
  6  5  2  0
  7  2  1  0
  8  7  2  0
  9  5  1  0
 11 13  1  0
 11 10  1  6
 12 11  1  0
 13 14  1  6
 14  7  1  0
 15 13  1  0
 15 16  2  0
 17 15  1  0
 18 17  1  0
 18 19  1  1
 20 19  1  0
 21 20  2  0
 22 21  1  0
 23 22  1  0
 23 24  2  0
 24 20  1  0
 25 18  1  0
 26 25  2  0
 27 25  1  0
M  END
$$$$
