DEY.pdb
     RDKit          3D

 30 30  0  0  1  0  0  0  0  0999 V2000
   25.9257  -16.7200  -18.1631 N   0  0  0  0  0  0  0  0  0  0  0  0
   24.7498  -17.4844  -18.4405 C   0  0  1  0  0  0  0  0  0  0  0  0
   25.1472  -18.9289  -18.7093 C   0  0  0  0  0  0  0  0  0  0  0  0
   24.7315  -19.2664  -20.0960 C   0  0  0  0  0  0  0  0  0  0  0  0
   24.1634  -18.4287  -20.8507 O   0  0  0  0  0  0  0  0  0  0  0  0
   23.8171  -17.5099  -17.2600 C   0  0  0  0  0  0  0  0  0  0  0  0
   24.1875  -17.0830  -16.1375 O   0  0  0  0  0  0  0  0  0  0  0  0
   25.0032  -20.5665  -20.5243 O   0  0  0  0  0  0  0  0  0  0  0  0
   22.4922  -18.0248  -17.4123 N   0  0  0  0  0  0  0  0  0  0  0  0
   21.5425  -18.0928  -16.3308 C   0  0  1  0  0  0  0  0  0  0  0  0
   20.1350  -17.7349  -16.8194 C   0  0  0  0  0  0  0  0  0  0  0  0
   20.1136  -16.2750  -17.1481 C   0  0  0  0  0  0  0  0  0  0  0  0
   18.7362  -15.8182  -17.4870 C   0  0  0  0  0  0  0  0  0  0  0  0
   17.9550  -16.6114  -18.0753 O   0  0  0  0  0  0  0  0  0  0  0  0
   21.4509  -19.4520  -15.7460 C   0  0  0  0  0  0  0  0  0  0  0  0
   21.3843  -20.4872  -16.4645 O   0  0  0  0  0  0  0  0  0  0  0  0
   18.2659  -14.5552  -17.1851 O   0  0  0  0  0  0  0  0  0  0  0  0
   27.1056  -21.9873  -16.3425 O   0  0  0  0  0  0  0  0  0  0  0  0
   26.0387  -21.7191  -15.4935 C   0  0  0  0  0  0  0  0  0  0  0  0
   25.2006  -22.7502  -15.1319 C   0  0  0  0  0  0  0  0  0  0  0  0
   24.1303  -22.5157  -14.2886 C   0  0  0  0  0  0  0  0  0  0  0  0
   23.8488  -21.2578  -13.7727 C   0  0  0  0  0  0  0  0  0  0  0  0
   22.6951  -21.0031  -12.8746 C   0  0  0  0  0  0  0  0  0  0  0  0
   21.3905  -20.8252  -13.6383 C   0  0  2  0  0  0  0  0  0  0  0  0
   21.4391  -19.5580  -14.3394 N   0  0  0  0  0  0  0  0  0  0  0  0
   20.2044  -20.8339  -12.7566 C   0  0  0  0  0  0  0  0  0  0  0  0
   19.4141  -19.7147  -12.5442 O   0  0  0  0  0  0  0  0  0  0  0  0
   24.7124  -20.2372  -14.1553 C   0  0  0  0  0  0  0  0  0  0  0  0
   25.7833  -20.4589  -14.9959 C   0  0  0  0  0  0  0  0  0  0  0  0
   19.8621  -21.8866  -12.1509 O   0  0  0  0  0  0  0  0  0  0  0  0
  2  1  1  1
  3  2  1  0
  4  3  1  0
  4  8  1  0
  5  4  2  0
  6  7  2  0
  6  2  1  0
  9  6  1  0
 10  9  1  0
 10 11  1  6
 11 12  1  0
 12 13  1  0
 13 17  1  0
 14 13  2  0
 15 10  1  0
 16 15  2  0
 19 18  1  0
 19 20  2  0
 21 20  1  0
 22 21  2  0
 23 22  1  0
 24 23  1  1
 24 25  1  0
 25 15  1  0
 26 27  1  0
 26 24  1  0
 28 29  2  0
 28 22  1  0
 29 19  1  0
 30 26  2  0
M  END
$$$$
