DEY.pdb
     RDKit          3D

 30 30  0  0  1  0  0  0  0  0999 V2000
   18.6862  -22.7586  -17.8848 N   0  0  0  0  0  0  0  0  0  0  0  0
   19.3046  -21.4881  -17.6671 C   0  0  1  0  0  0  0  0  0  0  0  0
   18.7260  -20.8627  -16.4058 C   0  0  0  0  0  0  0  0  0  0  0  0
   17.6808  -19.8890  -16.8171 C   0  0  0  0  0  0  0  0  0  0  0  0
   17.3588  -19.7182  -18.0259 O   0  0  0  0  0  0  0  0  0  0  0  0
   20.7848  -21.6275  -17.4352 C   0  0  0  0  0  0  0  0  0  0  0  0
   21.2295  -22.4378  -16.5836 O   0  0  0  0  0  0  0  0  0  0  0  0
   17.0690  -19.1677  -15.7909 O   0  0  0  0  0  0  0  0  0  0  0  0
   21.7005  -20.8309  -18.1906 N   0  0  0  0  0  0  0  0  0  0  0  0
   23.1278  -20.8709  -17.9967 C   0  0  1  0  0  0  0  0  0  0  0  0
   23.8355  -19.9194  -18.9670 C   0  0  0  0  0  0  0  0  0  0  0  0
   25.3076  -20.1743  -18.8781 C   0  0  0  0  0  0  0  0  0  0  0  0
   26.0616  -19.3256  -19.8436 C   0  0  0  0  0  0  0  0  0  0  0  0
   27.3080  -19.4733  -19.9456 O   0  0  0  0  0  0  0  0  0  0  0  0
   23.5230  -20.4487  -16.6316 C   0  0  0  0  0  0  0  0  0  0  0  0
   22.8157  -19.6631  -15.9424 O   0  0  0  0  0  0  0  0  0  0  0  0
   25.4573  -18.3747  -20.6424 O   0  0  0  0  0  0  0  0  0  0  0  0
   26.0135  -20.6493   -8.3984 O   0  0  0  0  0  0  0  0  0  0  0  0
   25.5939  -20.8470   -9.7084 C   0  0  0  0  0  0  0  0  0  0  0  0
   26.4134  -21.5384  -10.5724 C   0  0  0  0  0  0  0  0  0  0  0  0
   26.0245  -21.7517  -11.8819 C   0  0  0  0  0  0  0  0  0  0  0  0
   24.8152  -21.2912  -12.3853 C   0  0  0  0  0  0  0  0  0  0  0  0
   24.4006  -21.5117  -13.7931 C   0  0  0  0  0  0  0  0  0  0  0  0
   25.2072  -20.6749  -14.7759 C   0  0  2  0  0  0  0  0  0  0  0  0
   24.7332  -20.9577  -16.1156 N   0  0  0  0  0  0  0  0  0  0  0  0
   26.6564  -20.9590  -14.7160 C   0  0  0  0  0  0  0  0  0  0  0  0
   27.5682  -20.1053  -14.1142 O   0  0  0  0  0  0  0  0  0  0  0  0
   24.0094  -20.5969  -11.4895 C   0  0  0  0  0  0  0  0  0  0  0  0
   24.3866  -20.3779  -10.1809 C   0  0  0  0  0  0  0  0  0  0  0  0
   27.1255  -22.0143  -15.2243 O   0  0  0  0  0  0  0  0  0  0  0  0
  2  1  1  1
  3  2  1  0
  4  3  1  0
  4  8  1  0
  5  4  2  0
  6  7  2  0
  6  2  1  0
  9  6  1  0
 10  9  1  0
 10 11  1  6
 11 12  1  0
 12 13  1  0
 13 17  1  0
 14 13  2  0
 15 10  1  0
 16 15  2  0
 19 18  1  0
 19 20  2  0
 21 20  1  0
 22 21  2  0
 23 22  1  0
 24 23  1  1
 24 25  1  0
 25 15  1  0
 26 27  1  0
 26 24  1  0
 28 29  2  0
 28 22  1  0
 29 19  1  0
 30 26  2  0
M  END
$$$$
