DEY.pdb
     RDKit          3D

 30 30  0  0  1  0  0  0  0  0999 V2000
   18.6811  -10.7973  -16.2229 N   0  0  0  0  0  0  0  0  0  0  0  0
   17.8642  -11.1019  -15.0897 C   0  0  1  0  0  0  0  0  0  0  0  0
   18.0909  -12.5526  -14.6885 C   0  0  0  0  0  0  0  0  0  0  0  0
   17.5444  -13.4157  -15.7683 C   0  0  0  0  0  0  0  0  0  0  0  0
   17.0428  -12.9368  -16.8234 O   0  0  0  0  0  0  0  0  0  0  0  0
   18.2403  -10.2645  -13.8974 C   0  0  0  0  0  0  0  0  0  0  0  0
   17.9436  -10.6326  -12.7329 O   0  0  0  0  0  0  0  0  0  0  0  0
   17.6146  -14.7930  -15.5546 O   0  0  0  0  0  0  0  0  0  0  0  0
   18.9441   -9.0347  -14.0865 N   0  0  0  0  0  0  0  0  0  0  0  0
   19.2296   -8.1155  -13.0142 C   0  0  1  0  0  0  0  0  0  0  0  0
   20.1244   -6.9714  -13.5020 C   0  0  0  0  0  0  0  0  0  0  0  0
   20.4987   -6.1360  -12.3180 C   0  0  0  0  0  0  0  0  0  0  0  0
   21.3857   -5.0057  -12.7136 C   0  0  0  0  0  0  0  0  0  0  0  0
   20.9620   -3.8254  -12.5992 O   0  0  0  0  0  0  0  0  0  0  0  0
   18.0025   -7.4860  -12.4701 C   0  0  0  0  0  0  0  0  0  0  0  0
   16.9876   -7.2671  -13.1873 O   0  0  0  0  0  0  0  0  0  0  0  0
   22.6639   -5.1873  -13.2043 O   0  0  0  0  0  0  0  0  0  0  0  0
   11.3336   -6.7592   -7.0187 O   0  0  0  0  0  0  0  0  0  0  0  0
   12.4776   -7.0673   -7.7448 C   0  0  0  0  0  0  0  0  0  0  0  0
   13.7088   -6.8875   -7.1547 C   0  0  0  0  0  0  0  0  0  0  0  0
   14.8658   -7.1848   -7.8508 C   0  0  0  0  0  0  0  0  0  0  0  0
   14.8498   -7.6694   -9.1519 C   0  0  0  0  0  0  0  0  0  0  0  0
   16.0913   -7.9805   -9.9032 C   0  0  0  0  0  0  0  0  0  0  0  0
   16.8071   -6.7283  -10.3896 C   0  0  2  0  0  0  0  0  0  0  0  0
   18.0011   -7.1316  -11.1047 N   0  0  0  0  0  0  0  0  0  0  0  0
   17.1976   -5.8261   -9.2860 C   0  0  0  0  0  0  0  0  0  0  0  0
   18.2849   -6.0700   -8.4610 O   0  0  0  0  0  0  0  0  0  0  0  0
   13.5926   -7.8407   -9.7208 C   0  0  0  0  0  0  0  0  0  0  0  0
   12.4314   -7.5475   -9.0364 C   0  0  0  0  0  0  0  0  0  0  0  0
   16.5375   -4.7768   -9.0502 O   0  0  0  0  0  0  0  0  0  0  0  0
  2  1  1  6
  3  2  1  0
  4  3  1  0
  4  8  1  0
  5  4  2  0
  6  7  2  0
  6  2  1  0
  9  6  1  0
 10  9  1  0
 10 11  1  6
 11 12  1  0
 12 13  1  0
 13 17  1  0
 14 13  2  0
 15 10  1  0
 16 15  2  0
 19 18  1  0
 19 20  2  0
 21 20  1  0
 22 21  2  0
 23 22  1  0
 24 23  1  1
 24 25  1  0
 25 15  1  0
 26 27  1  0
 26 24  1  0
 28 29  2  0
 28 22  1  0
 29 19  1  0
 30 26  2  0
M  END
$$$$
