DEY.pdb
     RDKit          3D

 30 30  0  0  1  0  0  0  0  0999 V2000
   20.9171  -14.5837  -18.4310 N   0  0  0  0  0  0  0  0  0  0  0  0
   21.2476  -15.3032  -17.2405 C   0  0  1  0  0  0  0  0  0  0  0  0
   20.1083  -15.1615  -16.2411 C   0  0  0  0  0  0  0  0  0  0  0  0
   20.0885  -13.7525  -15.7680 C   0  0  0  0  0  0  0  0  0  0  0  0
   21.1182  -13.0220  -15.7869 O   0  0  0  0  0  0  0  0  0  0  0  0
   21.3995  -16.7758  -17.5101 C   0  0  0  0  0  0  0  0  0  0  0  0
   20.6291  -17.3670  -18.3080 O   0  0  0  0  0  0  0  0  0  0  0  0
   18.8644  -13.2747  -15.2982 O   0  0  0  0  0  0  0  0  0  0  0  0
   22.4314  -17.5156  -16.8533 N   0  0  0  0  0  0  0  0  0  0  0  0
   22.6308  -18.9302  -17.0416 C   0  0  1  0  0  0  0  0  0  0  0  0
   24.1227  -19.2581  -17.1618 C   0  0  0  0  0  0  0  0  0  0  0  0
   24.6032  -18.7608  -18.4891 C   0  0  0  0  0  0  0  0  0  0  0  0
   26.0451  -19.0762  -18.6940 C   0  0  0  0  0  0  0  0  0  0  0  0
   26.5928  -18.7597  -19.7828 O   0  0  0  0  0  0  0  0  0  0  0  0
   22.1159  -19.7282  -15.9032 C   0  0  0  0  0  0  0  0  0  0  0  0
   22.2770  -19.3670  -14.7049 O   0  0  0  0  0  0  0  0  0  0  0  0
   26.8217  -19.7045  -17.7402 O   0  0  0  0  0  0  0  0  0  0  0  0
   20.5586  -18.7554   -9.4914 O   0  0  0  0  0  0  0  0  0  0  0  0
   20.3021  -19.1865  -10.7873 C   0  0  0  0  0  0  0  0  0  0  0  0
   20.1685  -20.5362  -11.0254 C   0  0  0  0  0  0  0  0  0  0  0  0
   19.9129  -20.9968  -12.3037 C   0  0  0  0  0  0  0  0  0  0  0  0
   19.7803  -20.1439  -13.3913 C   0  0  0  0  0  0  0  0  0  0  0  0
   19.5149  -20.6377  -14.7655 C   0  0  0  0  0  0  0  0  0  0  0  0
   20.5798  -21.6112  -15.2505 C   0  0  2  0  0  0  0  0  0  0  0  0
   21.4297  -20.9240  -16.2017 N   0  0  0  0  0  0  0  0  0  0  0  0
   20.0081  -22.8075  -15.9034 C   0  0  0  0  0  0  0  0  0  0  0  0
   19.5975  -23.9283  -15.1980 O   0  0  0  0  0  0  0  0  0  0  0  0
   19.9201  -18.7872  -13.1198 C   0  0  0  0  0  0  0  0  0  0  0  0
   20.1751  -18.3158  -11.8489 C   0  0  0  0  0  0  0  0  0  0  0  0
   19.8715  -22.8514  -17.1571 O   0  0  0  0  0  0  0  0  0  0  0  0
  2  1  1  6
  3  2  1  0
  4  3  1  0
  4  8  1  0
  5  4  2  0
  6  7  2  0
  6  2  1  0
  9  6  1  0
 10  9  1  0
 10 11  1  1
 11 12  1  0
 12 13  1  0
 13 17  1  0
 14 13  2  0
 15 10  1  0
 16 15  2  0
 19 18  1  0
 19 20  2  0
 21 20  1  0
 22 21  2  0
 23 22  1  0
 24 23  1  6
 24 25  1  0
 25 15  1  0
 26 27  1  0
 26 24  1  0
 28 29  2  0
 28 22  1  0
 29 19  1  0
 30 26  2  0
M  END
$$$$
