DEY.pdb
     RDKit          3D

 30 30  0  0  1  0  0  0  0  0999 V2000
   16.0402   -2.0168  -16.6253 N   0  0  0  0  0  0  0  0  0  0  0  0
   16.3016   -2.7563  -15.4299 C   0  0  1  0  0  0  0  0  0  0  0  0
   14.9810   -3.2289  -14.8385 C   0  0  0  0  0  0  0  0  0  0  0  0
   14.4503   -2.1393  -13.9778 C   0  0  0  0  0  0  0  0  0  0  0  0
   15.0637   -1.0470  -13.8205 O   0  0  0  0  0  0  0  0  0  0  0  0
   17.1108   -3.9930  -15.7121 C   0  0  0  0  0  0  0  0  0  0  0  0
   16.9412   -4.6453  -16.7730 O   0  0  0  0  0  0  0  0  0  0  0  0
   13.2301   -2.3874  -13.3476 O   0  0  0  0  0  0  0  0  0  0  0  0
   18.0862   -4.4353  -14.7651 N   0  0  0  0  0  0  0  0  0  0  0  0
   18.9300   -5.5836  -14.9787 C   0  0  1  0  0  0  0  0  0  0  0  0
   20.1401   -5.5518  -14.0394 C   0  0  0  0  0  0  0  0  0  0  0  0
   21.0929   -4.5132  -14.5428 C   0  0  0  0  0  0  0  0  0  0  0  0
   22.3192   -4.4510  -13.6983 C   0  0  0  0  0  0  0  0  0  0  0  0
   22.6912   -3.3391  -13.2392 O   0  0  0  0  0  0  0  0  0  0  0  0
   18.2239   -6.8593  -14.7107 C   0  0  0  0  0  0  0  0  0  0  0  0
   17.4124   -6.9873  -13.7528 O   0  0  0  0  0  0  0  0  0  0  0  0
   23.0777   -5.5629  -13.3887 O   0  0  0  0  0  0  0  0  0  0  0  0
   15.9336  -15.2970  -16.4213 O   0  0  0  0  0  0  0  0  0  0  0  0
   16.4834  -14.0222  -16.4813 C   0  0  0  0  0  0  0  0  0  0  0  0
   17.7586  -13.8244  -16.0006 C   0  0  0  0  0  0  0  0  0  0  0  0
   18.3338  -12.5679  -16.0460 C   0  0  0  0  0  0  0  0  0  0  0  0
   17.6727  -11.4633  -16.5663 C   0  0  0  0  0  0  0  0  0  0  0  0
   18.2856  -10.1123  -16.6075 C   0  0  0  0  0  0  0  0  0  0  0  0
   17.8394   -9.2346  -15.4468 C   0  0  2  0  0  0  0  0  0  0  0  0
   18.4896   -7.9456  -15.5706 N   0  0  0  0  0  0  0  0  0  0  0  0
   18.1777   -9.8115  -14.1288 C   0  0  0  0  0  0  0  0  0  0  0  0
   19.4292   -9.6803  -13.5467 O   0  0  0  0  0  0  0  0  0  0  0  0
   16.3872  -11.6942  -17.0440 C   0  0  0  0  0  0  0  0  0  0  0  0
   15.8030  -12.9430  -17.0040 C   0  0  0  0  0  0  0  0  0  0  0  0
   17.3178  -10.4605  -13.4719 O   0  0  0  0  0  0  0  0  0  0  0  0
  2  1  1  6
  3  2  1  0
  4  3  1  0
  4  8  1  0
  5  4  2  0
  6  7  2  0
  6  2  1  0
  9  6  1  0
 10  9  1  0
 10 11  1  1
 11 12  1  0
 12 13  1  0
 13 17  1  0
 14 13  2  0
 15 10  1  0
 16 15  2  0
 19 18  1  0
 19 20  2  0
 21 20  1  0
 22 21  2  0
 23 22  1  0
 24 23  1  6
 24 25  1  0
 25 15  1  0
 26 27  1  0
 26 24  1  0
 28 29  2  0
 28 22  1  0
 29 19  1  0
 30 26  2  0
M  END
$$$$
