DEY.pdb
     RDKit          3D

 30 30  0  0  1  0  0  0  0  0999 V2000
   27.0992  -17.8137  -19.4533 N   0  0  0  0  0  0  0  0  0  0  0  0
   25.6705  -17.7859  -19.4989 C   0  0  1  0  0  0  0  0  0  0  0  0
   25.2141  -18.0079  -20.9339 C   0  0  0  0  0  0  0  0  0  0  0  0
   24.7851  -16.6956  -21.4847 C   0  0  0  0  0  0  0  0  0  0  0  0
   24.4804  -15.7213  -20.7417 O   0  0  0  0  0  0  0  0  0  0  0  0
   25.0707  -18.8984  -18.6823 C   0  0  0  0  0  0  0  0  0  0  0  0
   23.8794  -19.2573  -18.8600 O   0  0  0  0  0  0  0  0  0  0  0  0
   24.7358  -16.5947  -22.8757 O   0  0  0  0  0  0  0  0  0  0  0  0
   25.8619  -19.5586  -17.6914 N   0  0  0  0  0  0  0  0  0  0  0  0
   25.3560  -20.6154  -16.8527 C   0  0  1  0  0  0  0  0  0  0  0  0
   26.5062  -21.4113  -16.2271 C   0  0  0  0  0  0  0  0  0  0  0  0
   27.3404  -21.9731  -17.3355 C   0  0  0  0  0  0  0  0  0  0  0  0
   28.5838  -22.6036  -16.8090 C   0  0  0  0  0  0  0  0  0  0  0  0
   29.3771  -23.1590  -17.6138 O   0  0  0  0  0  0  0  0  0  0  0  0
   24.5411  -20.0999  -15.7266 C   0  0  0  0  0  0  0  0  0  0  0  0
   24.9910  -19.2520  -14.9074 O   0  0  0  0  0  0  0  0  0  0  0  0
   28.9158  -22.6099  -15.4684 O   0  0  0  0  0  0  0  0  0  0  0  0
   18.6220  -19.5902  -19.9058 O   0  0  0  0  0  0  0  0  0  0  0  0
   19.3508  -19.3989  -18.7382 C   0  0  0  0  0  0  0  0  0  0  0  0
   20.6092  -18.8462  -18.8223 C   0  0  0  0  0  0  0  0  0  0  0  0
   21.3595  -18.6431  -17.6789 C   0  0  0  0  0  0  0  0  0  0  0  0
   20.8960  -18.9775  -16.4135 C   0  0  0  0  0  0  0  0  0  0  0  0
   21.7038  -18.7682  -15.1862 C   0  0  0  0  0  0  0  0  0  0  0  0
   22.2739  -20.0677  -14.6355 C   0  0  2  0  0  0  0  0  0  0  0  0
   23.2260  -20.5927  -15.5933 N   0  0  0  0  0  0  0  0  0  0  0  0
   21.2357  -21.0905  -14.3898 C   0  0  0  0  0  0  0  0  0  0  0  0
   20.2531  -20.9505  -13.4217 O   0  0  0  0  0  0  0  0  0  0  0  0
   19.6224  -19.5333  -16.3604 C   0  0  0  0  0  0  0  0  0  0  0  0
   18.8646  -19.7407  -17.4942 C   0  0  0  0  0  0  0  0  0  0  0  0
   21.2079  -22.1535  -15.0691 O   0  0  0  0  0  0  0  0  0  0  0  0
  2  1  1  6
  3  2  1  0
  4  3  1  0
  4  8  1  0
  5  4  2  0
  6  7  2  0
  6  2  1  0
  9  6  1  0
 10  9  1  0
 10 11  1  1
 11 12  1  0
 12 13  1  0
 13 17  1  0
 14 13  2  0
 15 10  1  0
 16 15  2  0
 19 18  1  0
 19 20  2  0
 21 20  1  0
 22 21  2  0
 23 22  1  0
 24 23  1  6
 24 25  1  0
 25 15  1  0
 26 27  1  0
 26 24  1  0
 28 29  2  0
 28 22  1  0
 29 19  1  0
 30 26  2  0
M  END
$$$$
