SLA.pdb
     RDKit          3D

 20 19  0  0  1  0  0  0  0  0999 V2000
   28.4648  -39.1036   -5.3591 O   0  0  0  0  0  0  0  0  0  0  0  0
   28.9863  -38.3079   -6.3936 C   0  0  0  0  0  0  0  0  0  0  0  0
   28.1376  -37.0967   -6.6329 C   0  0  2  0  0  0  0  0  0  0  0  0
   28.6463  -36.3087   -7.7316 N   0  0  0  0  0  0  0  0  0  0  0  0
   28.1256  -36.2954   -5.3621 C   0  0  0  0  0  0  0  0  0  0  0  0
   29.1765  -35.7840   -4.9038 O   0  0  0  0  0  0  0  0  0  0  0  0
   26.8860  -32.2821   -3.8237 C   0  0  0  0  0  0  0  0  0  0  0  0
   25.7780  -33.2023   -4.3266 C   0  0  2  0  0  0  0  0  0  0  0  0
   24.4675  -32.4695   -4.3231 C   0  0  0  0  0  0  0  0  0  0  0  0
   25.6630  -34.4120   -3.4493 C   0  0  0  0  0  0  0  0  0  0  0  0
   26.9015  -35.2488   -3.4178 C   0  0  2  0  0  0  0  0  0  0  0  0
   26.9352  -36.0827   -4.6290 N   0  0  0  0  0  0  0  0  0  0  0  0
   27.0108  -36.0938   -2.2152 C   0  0  0  0  0  0  0  0  0  0  0  0
   26.2607  -37.0682   -1.9859 O   0  0  0  0  0  0  0  0  0  0  0  0
   29.5027  -36.3645    0.6148 C   0  0  0  0  0  0  0  0  0  0  0  0
   28.1232  -36.5641   -0.0035 C   0  0  2  0  0  0  0  0  0  0  0  0
   28.0180  -35.8089   -1.2406 N   0  0  0  0  0  0  0  0  0  0  0  0
   27.1045  -36.1381    0.9825 C   0  0  0  0  0  0  0  0  0  0  0  0
   26.9455  -36.8410    2.1630 O   0  0  0  0  0  0  0  0  0  0  0  0
   26.3597  -35.1418    0.7896 O   0  0  0  0  0  0  0  0  0  0  0  0
  2  1  1  0
  3  2  1  0
  3  4  1  6
  5  3  1  0
  5  6  2  0
  8  7  1  1
  8 10  1  0
  9  8  1  0
 11 10  1  1
 11 13  1  0
 11 12  1  0
 12  5  1  0
 13 17  1  0
 14 13  2  0
 16 15  1  1
 16 18  1  0
 17 16  1  0
 18 20  2  0
 18 19  1  0
M  END
$$$$
