SLA.pdb
     RDKit          3D

 20 19  0  0  1  0  0  0  0  0999 V2000
   16.2879   -7.0597  -14.7995 O   0  0  0  0  0  0  0  0  0  0  0  0
   16.6502   -8.3428  -15.2441 C   0  0  0  0  0  0  0  0  0  0  0  0
   17.2917   -9.1400  -14.1499 C   0  0  2  0  0  0  0  0  0  0  0  0
   16.4926   -9.1170  -12.9467 N   0  0  0  0  0  0  0  0  0  0  0  0
   18.6509   -8.5509  -13.8993 C   0  0  0  0  0  0  0  0  0  0  0  0
   18.9029   -7.9181  -12.8447 O   0  0  0  0  0  0  0  0  0  0  0  0
   22.6865  -10.0216  -13.1671 C   0  0  0  0  0  0  0  0  0  0  0  0
   22.2638  -10.2168  -14.6199 C   0  0  2  0  0  0  0  0  0  0  0  0
   23.3248  -10.9786  -15.3603 C   0  0  0  0  0  0  0  0  0  0  0  0
   22.0585   -8.8912  -15.2885 C   0  0  0  0  0  0  0  0  0  0  0  0
   21.0128   -8.0462  -14.6346 C   0  0  2  0  0  0  0  0  0  0  0  0
   19.7020   -8.6823  -14.8361 N   0  0  0  0  0  0  0  0  0  0  0  0
   20.9854   -6.6574  -15.1269 C   0  0  0  0  0  0  0  0  0  0  0  0
   20.5261   -6.3298  -16.2434 O   0  0  0  0  0  0  0  0  0  0  0  0
   21.7198   -3.3105  -13.5091 C   0  0  0  0  0  0  0  0  0  0  0  0
   21.4140   -4.2108  -14.7011 C   0  0  2  0  0  0  0  0  0  0  0  0
   21.5046   -5.6066  -14.3071 N   0  0  0  0  0  0  0  0  0  0  0  0
   22.3684   -3.8883  -15.7858 C   0  0  0  0  0  0  0  0  0  0  0  0
   22.0670   -2.8980  -16.7029 O   0  0  0  0  0  0  0  0  0  0  0  0
   23.4671   -4.4893  -15.9130 O   0  0  0  0  0  0  0  0  0  0  0  0
  2  1  1  0
  3  2  1  0
  3  4  1  1
  5  3  1  0
  5  6  2  0
  8  7  1  1
  8 10  1  0
  9  8  1  0
 11 10  1  6
 11 13  1  0
 11 12  1  0
 12  5  1  0
 13 17  1  0
 14 13  2  0
 16 15  1  1
 16 18  1  0
 17 16  1  0
 18 20  2  0
 18 19  1  0
M  END
$$$$
