SLA.pdb
     RDKit          3D

 20 19  0  0  1  0  0  0  0  0999 V2000
   17.8148   -5.1904  -18.2473 O   0  0  0  0  0  0  0  0  0  0  0  0
   17.5925   -5.8287  -17.0150 C   0  0  0  0  0  0  0  0  0  0  0  0
   18.2836   -7.1566  -16.9542 C   0  0  2  0  0  0  0  0  0  0  0  0
   17.6363   -8.1241  -17.8097 N   0  0  0  0  0  0  0  0  0  0  0  0
   18.2626   -7.6115  -15.5225 C   0  0  0  0  0  0  0  0  0  0  0  0
   17.3724   -8.3885  -15.0982 O   0  0  0  0  0  0  0  0  0  0  0  0
   20.3651  -10.4149  -13.2499 C   0  0  0  0  0  0  0  0  0  0  0  0
   21.1874   -9.1636  -13.5418 C   0  0  2  0  0  0  0  0  0  0  0  0
   22.6118   -9.3811  -13.1198 C   0  0  0  0  0  0  0  0  0  0  0  0
   20.6325   -7.9865  -12.7981 C   0  0  0  0  0  0  0  0  0  0  0  0
   19.2340   -7.6342  -13.1923 C   0  0  2  0  0  0  0  0  0  0  0  0
   19.2403   -7.1865  -14.5934 N   0  0  0  0  0  0  0  0  0  0  0  0
   18.6212   -6.6061  -12.3324 C   0  0  0  0  0  0  0  0  0  0  0  0
   19.1051   -5.4640  -12.1701 O   0  0  0  0  0  0  0  0  0  0  0  0
   15.2905   -6.3776  -10.5401 C   0  0  0  0  0  0  0  0  0  0  0  0
   16.6942   -5.8862  -10.8768 C   0  0  2  0  0  0  0  0  0  0  0  0
   17.4087   -6.9005  -11.6334 N   0  0  0  0  0  0  0  0  0  0  0  0
   17.3898   -5.5602   -9.6114 C   0  0  0  0  0  0  0  0  0  0  0  0
   16.9174   -4.5427   -8.8026 O   0  0  0  0  0  0  0  0  0  0  0  0
   18.4157   -6.1824   -9.2305 O   0  0  0  0  0  0  0  0  0  0  0  0
  2  1  1  0
  3  2  1  0
  3  4  1  6
  5  3  1  0
  5  6  2  0
  8  7  1  1
  8 10  1  0
  9  8  1  0
 11 10  1  1
 11 13  1  0
 11 12  1  0
 12  5  1  0
 13 17  1  0
 14 13  2  0
 16 15  1  1
 16 18  1  0
 17 16  1  0
 18 20  2  0
 18 19  1  0
M  END
$$$$
