SLA.pdb
     RDKit          3D

 20 19  0  0  1  0  0  0  0  0999 V2000
   13.5254  -21.2671    4.2838 O   0  0  0  0  0  0  0  0  0  0  0  0
   13.1893  -20.4137    3.2188 C   0  0  0  0  0  0  0  0  0  0  0  0
   14.3133  -20.2980    2.2350 C   0  0  2  0  0  0  0  0  0  0  0  0
   14.7706  -21.5993    1.8059 N   0  0  0  0  0  0  0  0  0  0  0  0
   15.4222  -19.5364    2.9039 C   0  0  0  0  0  0  0  0  0  0  0  0
   16.4449  -20.1208    3.3384 O   0  0  0  0  0  0  0  0  0  0  0  0
   17.4170  -13.7010    3.1995 C   0  0  0  0  0  0  0  0  0  0  0  0
   17.5333  -15.1211    3.7447 C   0  0  2  0  0  0  0  0  0  0  0  0
   18.8899  -15.6792    3.4249 C   0  0  0  0  0  0  0  0  0  0  0  0
   16.4865  -16.0037    3.1350 C   0  0  0  0  0  0  0  0  0  0  0  0
   16.4467  -17.3785    3.7212 C   0  0  2  0  0  0  0  0  0  0  0  0
   15.3636  -18.1336    3.0731 N   0  0  0  0  0  0  0  0  0  0  0  0
   16.2701  -17.3898    5.1843 C   0  0  0  0  0  0  0  0  0  0  0  0
   15.1680  -17.2089    5.7479 O   0  0  0  0  0  0  0  0  0  0  0  0
   18.5388  -18.2236    8.1024 C   0  0  0  0  0  0  0  0  0  0  0  0
   17.2852  -17.6189    7.4794 C   0  0  2  0  0  0  0  0  0  0  0  0
   17.4003  -17.6169    6.0308 N   0  0  0  0  0  0  0  0  0  0  0  0
   17.1136  -16.2491    8.0137 C   0  0  0  0  0  0  0  0  0  0  0  0
   16.6054  -16.0596    9.2859 O   0  0  0  0  0  0  0  0  0  0  0  0
   17.4165  -15.2259    7.3460 O   0  0  0  0  0  0  0  0  0  0  0  0
  2  1  1  0
  3  2  1  0
  3  4  1  1
  5  3  1  0
  5  6  2  0
  8  7  1  6
  8 10  1  0
  9  8  1  0
 11 10  1  6
 11 13  1  0
 11 12  1  0
 12  5  1  0
 13 17  1  0
 14 13  2  0
 16 15  1  1
 16 18  1  0
 17 16  1  0
 18 20  2  0
 18 19  1  0
M  END
$$$$
