SLA.pdb
     RDKit          3D

 20 19  0  0  1  0  0  0  0  0999 V2000
   24.4186  -23.0186  -13.7008 O   0  0  0  0  0  0  0  0  0  0  0  0
   25.6991  -22.5887  -14.0893 C   0  0  0  0  0  0  0  0  0  0  0  0
   26.2127  -21.5117  -13.1834 C   0  0  2  0  0  0  0  0  0  0  0  0
   26.1837  -21.9310  -11.8013 N   0  0  0  0  0  0  0  0  0  0  0  0
   25.3517  -20.2982  -13.3911 C   0  0  0  0  0  0  0  0  0  0  0  0
   24.6542  -19.8263  -12.4600 O   0  0  0  0  0  0  0  0  0  0  0  0
   26.0728  -15.9740  -14.3725 C   0  0  0  0  0  0  0  0  0  0  0  0
   26.3114  -16.9873  -15.4876 C   0  0  2  0  0  0  0  0  0  0  0  0
   26.9384  -16.3052  -16.6691 C   0  0  0  0  0  0  0  0  0  0  0  0
   25.0172  -17.6112  -15.9145 C   0  0  0  0  0  0  0  0  0  0  0  0
   24.4013  -18.4865  -14.8707 C   0  0  2  0  0  0  0  0  0  0  0  0
   25.2889  -19.6364  -14.6393 N   0  0  0  0  0  0  0  0  0  0  0  0
   23.0463  -18.9514  -15.2167 C   0  0  0  0  0  0  0  0  0  0  0  0
   22.8132  -19.7941  -16.1113 O   0  0  0  0  0  0  0  0  0  0  0  0
   19.6557  -18.5524  -13.6028 C   0  0  0  0  0  0  0  0  0  0  0  0
   20.5651  -18.8852  -14.7807 C   0  0  2  0  0  0  0  0  0  0  0  0
   21.9180  -18.4292  -14.5096 N   0  0  0  0  0  0  0  0  0  0  0  0
   20.0083  -18.2465  -15.9945 C   0  0  0  0  0  0  0  0  0  0  0  0
   18.7935  -18.6673  -16.5043 O   0  0  0  0  0  0  0  0  0  0  0  0
   20.6052  -17.3162  -16.5967 O   0  0  0  0  0  0  0  0  0  0  0  0
  2  1  1  0
  3  2  1  0
  3  4  1  1
  5  3  1  0
  5  6  2  0
  8  7  1  1
  8 10  1  0
  9  8  1  0
 11 10  1  6
 11 13  1  0
 11 12  1  0
 12  5  1  0
 13 17  1  0
 14 13  2  0
 16 15  1  1
 16 18  1  0
 17 16  1  0
 18 20  2  0
 18 19  1  0
M  END
$$$$
