SLA.pdb
     RDKit          3D

 20 19  0  0  1  0  0  0  0  0999 V2000
   13.7681  -28.1458   -5.3498 O   0  0  0  0  0  0  0  0  0  0  0  0
   14.4403  -29.1582   -4.6437 C   0  0  0  0  0  0  0  0  0  0  0  0
   15.9180  -29.1044   -4.8844 C   0  0  2  0  0  0  0  0  0  0  0  0
   16.2995  -29.9471   -5.9940 N   0  0  0  0  0  0  0  0  0  0  0  0
   16.5980  -29.5466   -3.6199 C   0  0  0  0  0  0  0  0  0  0  0  0
   16.8797  -30.7534   -3.4187 O   0  0  0  0  0  0  0  0  0  0  0  0
   20.5720  -29.1921   -1.8981 C   0  0  0  0  0  0  0  0  0  0  0  0
   19.7835  -27.8861   -1.8959 C   0  0  2  0  0  0  0  0  0  0  0  0
   20.6653  -26.7603   -1.4383 C   0  0  0  0  0  0  0  0  0  0  0  0
   18.6046  -27.9874   -0.9759 C   0  0  0  0  0  0  0  0  0  0  0  0
   17.6275  -29.0485   -1.3690 C   0  0  2  0  0  0  0  0  0  0  0  0
   16.9493  -28.6273   -2.6044 N   0  0  0  0  0  0  0  0  0  0  0  0
   16.6356  -29.3525   -0.3224 C   0  0  0  0  0  0  0  0  0  0  0  0
   15.6547  -28.6193   -0.0673 O   0  0  0  0  0  0  0  0  0  0  0  0
   15.9410  -32.3126    1.9169 C   0  0  0  0  0  0  0  0  0  0  0  0
   15.9046  -30.8240    1.5883 C   0  0  2  0  0  0  0  0  0  0  0  0
   16.7755  -30.5417    0.4598 N   0  0  0  0  0  0  0  0  0  0  0  0
   16.3151  -30.0704    2.7946 C   0  0  0  0  0  0  0  0  0  0  0  0
   15.5594  -30.1466    3.9504 O   0  0  0  0  0  0  0  0  0  0  0  0
   17.3449  -29.3468    2.8151 O   0  0  0  0  0  0  0  0  0  0  0  0
  2  1  1  0
  3  2  1  0
  3  4  1  6
  5  3  1  0
  5  6  2  0
  8  7  1  1
  8 10  1  0
  9  8  1  0
 11 10  1  1
 11 13  1  0
 11 12  1  0
 12  5  1  0
 13 17  1  0
 14 13  2  0
 16 15  1  1
 16 18  1  0
 17 16  1  0
 18 20  2  0
 18 19  1  0
M  END
$$$$
