SLA.pdb
     RDKit          3D

 20 19  0  0  1  0  0  0  0  0999 V2000
   21.5758  -13.0103  -21.4250 O   0  0  0  0  0  0  0  0  0  0  0  0
   21.4144  -12.5027  -20.1243 C   0  0  0  0  0  0  0  0  0  0  0  0
   22.5643  -12.8825  -19.2423 C   0  0  2  0  0  0  0  0  0  0  0  0
   22.4913  -14.2724  -18.8551 N   0  0  0  0  0  0  0  0  0  0  0  0
   22.5217  -11.9893  -18.0351 C   0  0  0  0  0  0  0  0  0  0  0  0
   21.7051  -12.1912  -17.1030 O   0  0  0  0  0  0  0  0  0  0  0  0
   25.3662  -11.2694  -14.7719 C   0  0  0  0  0  0  0  0  0  0  0  0
   25.7323  -10.6327  -16.1090 C   0  0  2  0  0  0  0  0  0  0  0  0
   27.1184  -10.0601  -16.0372 C   0  0  0  0  0  0  0  0  0  0  0  0
   24.7684   -9.5362  -16.4485 C   0  0  0  0  0  0  0  0  0  0  0  0
   23.3776  -10.0202  -16.7068 C   0  0  2  0  0  0  0  0  0  0  0  0
   23.3955  -10.8862  -17.8956 N   0  0  0  0  0  0  0  0  0  0  0  0
   22.3992   -8.9325  -16.8845 C   0  0  0  0  0  0  0  0  0  0  0  0
   22.4408   -8.1143  -17.8298 O   0  0  0  0  0  0  0  0  0  0  0  0
   19.0415   -8.1115  -15.4392 C   0  0  0  0  0  0  0  0  0  0  0  0
   20.3795   -7.6875  -16.0352 C   0  0  2  0  0  0  0  0  0  0  0  0
   21.3344   -8.7789  -15.9420 N   0  0  0  0  0  0  0  0  0  0  0  0
   20.8529   -6.4866  -15.3105 C   0  0  0  0  0  0  0  0  0  0  0  0
   20.1745   -5.2881  -15.4370 O   0  0  0  0  0  0  0  0  0  0  0  0
   21.8686   -6.5088  -14.5674 O   0  0  0  0  0  0  0  0  0  0  0  0
  2  1  1  0
  3  2  1  0
  3  4  1  1
  5  3  1  0
  5  6  2  0
  8  7  1  1
  8 10  1  0
  9  8  1  0
 11 10  1  6
 11 13  1  0
 11 12  1  0
 12  5  1  0
 13 17  1  0
 14 13  2  0
 16 15  1  1
 16 18  1  0
 17 16  1  0
 18 20  2  0
 18 19  1  0
M  END
$$$$
