SLA.pdb
     RDKit          3D

 20 19  0  0  1  0  0  0  0  0999 V2000
   21.2701   -9.3515  -19.8878 O   0  0  0  0  0  0  0  0  0  0  0  0
   20.6153  -10.5495  -19.5541 C   0  0  0  0  0  0  0  0  0  0  0  0
   21.5327  -11.4934  -18.8386 C   0  0  2  0  0  0  0  0  0  0  0  0
   20.8743  -12.7462  -18.5491 N   0  0  0  0  0  0  0  0  0  0  0  0
   21.9766  -10.8185  -17.5718 C   0  0  0  0  0  0  0  0  0  0  0  0
   21.2661  -10.8421  -16.5370 O   0  0  0  0  0  0  0  0  0  0  0  0
   27.2481  -10.7627  -15.5413 C   0  0  0  0  0  0  0  0  0  0  0  0
   25.7228  -10.7874  -15.5313 C   0  0  2  0  0  0  0  0  0  0  0  0
   25.2293  -12.0129  -16.2448 C   0  0  0  0  0  0  0  0  0  0  0  0
   25.1746   -9.5711  -16.2145 C   0  0  0  0  0  0  0  0  0  0  0  0
   23.6806   -9.5191  -16.2369 C   0  0  2  0  0  0  0  0  0  0  0  0
   23.2088  -10.1297  -17.4892 N   0  0  0  0  0  0  0  0  0  0  0  0
   23.1368   -8.1564  -16.0989 C   0  0  0  0  0  0  0  0  0  0  0  0
   23.2901   -7.4524  -15.0764 O   0  0  0  0  0  0  0  0  0  0  0  0
   21.4186   -5.7624  -18.4796 C   0  0  0  0  0  0  0  0  0  0  0  0
   21.8377   -6.2396  -17.0934 C   0  0  2  0  0  0  0  0  0  0  0  0
   22.3894   -7.5815  -17.1744 N   0  0  0  0  0  0  0  0  0  0  0  0
   20.6539   -6.1904  -16.2059 C   0  0  0  0  0  0  0  0  0  0  0  0
   20.2397   -4.9853  -15.6686 O   0  0  0  0  0  0  0  0  0  0  0  0
   19.9928   -7.2204  -15.9120 O   0  0  0  0  0  0  0  0  0  0  0  0
  2  1  1  0
  3  2  1  0
  3  4  1  1
  5  3  1  0
  5  6  2  0
  8  7  1  6
  8 10  1  0
  9  8  1  0
 11 10  1  6
 11 13  1  0
 11 12  1  0
 12  5  1  0
 13 17  1  0
 14 13  2  0
 16 15  1  6
 16 18  1  0
 17 16  1  0
 18 20  2  0
 18 19  1  0
M  END
$$$$
