SLA.pdb
     RDKit          3D

 20 19  0  0  1  0  0  0  0  0999 V2000
   18.9298   -8.3901  -19.7322 O   0  0  0  0  0  0  0  0  0  0  0  0
   19.8559   -9.2554  -20.3397 C   0  0  0  0  0  0  0  0  0  0  0  0
   20.0700  -10.4906  -19.5194 C   0  0  2  0  0  0  0  0  0  0  0  0
   18.8344  -11.2145  -19.3294 N   0  0  0  0  0  0  0  0  0  0  0  0
   20.6458  -10.0619  -18.1996 C   0  0  0  0  0  0  0  0  0  0  0  0
   19.9081   -9.8318  -17.2102 O   0  0  0  0  0  0  0  0  0  0  0  0
   26.1720  -10.0710  -15.4101 C   0  0  0  0  0  0  0  0  0  0  0  0
   24.7067   -9.6495  -15.3585 C   0  0  2  0  0  0  0  0  0  0  0  0
   24.0143  -10.3542  -14.2278 C   0  0  0  0  0  0  0  0  0  0  0  0
   24.0168   -9.9941  -16.6437 C   0  0  0  0  0  0  0  0  0  0  0  0
   22.6122   -9.4882  -16.7236 C   0  0  2  0  0  0  0  0  0  0  0  0
   22.0383   -9.8994  -18.0140 N   0  0  0  0  0  0  0  0  0  0  0  0
   22.5022   -8.0277  -16.5602 C   0  0  0  0  0  0  0  0  0  0  0  0
   23.1165   -7.2050  -17.2747 O   0  0  0  0  0  0  0  0  0  0  0  0
   20.0093   -5.7608  -15.0444 C   0  0  0  0  0  0  0  0  0  0  0  0
   21.4682   -6.0616  -15.3703 C   0  0  2  0  0  0  0  0  0  0  0  0
   21.6560   -7.4927  -15.5387 N   0  0  0  0  0  0  0  0  0  0  0  0
   22.3099   -5.5272  -14.2761 C   0  0  0  0  0  0  0  0  0  0  0  0
   22.9531   -6.3927  -13.4101 O   0  0  0  0  0  0  0  0  0  0  0  0
   22.4697   -4.2918  -14.0950 O   0  0  0  0  0  0  0  0  0  0  0  0
  2  1  1  0
  3  2  1  0
  3  4  1  1
  5  3  1  0
  5  6  2  0
  8  7  1  6
  8 10  1  0
  9  8  1  0
 11 10  1  6
 11 13  1  0
 11 12  1  0
 12  5  1  0
 13 17  1  0
 14 13  2  0
 16 15  1  1
 16 18  1  0
 17 16  1  0
 18 20  2  0
 18 19  1  0
M  END
$$$$
