SLA.pdb
     RDKit          3D

 20 19  0  0  1  0  0  0  0  0999 V2000
   27.0332  -20.2405  -17.3522 O   0  0  0  0  0  0  0  0  0  0  0  0
   26.3429  -20.4848  -16.1526 C   0  0  0  0  0  0  0  0  0  0  0  0
   26.9714  -21.6024  -15.3776 C   0  0  2  0  0  0  0  0  0  0  0  0
   27.0224  -22.8173  -16.1575 N   0  0  0  0  0  0  0  0  0  0  0  0
   26.1564  -21.8020  -14.1314 C   0  0  0  0  0  0  0  0  0  0  0  0
   25.3680  -22.7723  -14.0163 O   0  0  0  0  0  0  0  0  0  0  0  0
   25.9011  -19.3013   -8.4773 C   0  0  0  0  0  0  0  0  0  0  0  0
   25.3535  -20.3723   -9.4156 C   0  0  2  0  0  0  0  0  0  0  0  0
   25.4151  -21.7149   -8.7462 C   0  0  0  0  0  0  0  0  0  0  0  0
   26.1558  -20.4207  -10.6807 C   0  0  0  0  0  0  0  0  0  0  0  0
   25.4515  -21.1001  -11.8109 C   0  0  2  0  0  0  0  0  0  0  0  0
   26.2406  -20.9097  -13.0375 N   0  0  0  0  0  0  0  0  0  0  0  0
   24.0713  -20.6254  -12.0151 C   0  0  0  0  0  0  0  0  0  0  0  0
   23.2327  -20.5241  -11.0924 O   0  0  0  0  0  0  0  0  0  0  0  0
   22.2770  -18.9997  -14.9168 C   0  0  0  0  0  0  0  0  0  0  0  0
   22.3099  -19.7195  -13.5730 C   0  0  2  0  0  0  0  0  0  0  0  0
   23.6386  -20.2539  -13.3267 N   0  0  0  0  0  0  0  0  0  0  0  0
   21.2876  -20.7900  -13.5925 C   0  0  0  0  0  0  0  0  0  0  0  0
   21.6740  -22.1180  -13.5907 O   0  0  0  0  0  0  0  0  0  0  0  0
   20.0542  -20.5393  -13.6112 O   0  0  0  0  0  0  0  0  0  0  0  0
  2  1  1  0
  3  2  1  0
  3  4  1  6
  5  3  1  0
  5  6  2  0
  8  7  1  1
  8 10  1  0
  9  8  1  0
 11 10  1  1
 11 13  1  0
 11 12  1  0
 12  5  1  0
 13 17  1  0
 14 13  2  0
 16 15  1  6
 16 18  1  0
 17 16  1  0
 18 20  2  0
 18 19  1  0
M  END
$$$$
