RKQ.pdb
     RDKit          3D

 30 29  0  0  1  0  0  0  0  0999 V2000
    8.5644  -16.3633   15.2941 N   0  0  0  0  0  0  0  0  0  0  0  0
    9.9746  -16.6301   15.1438 C   0  0  0  0  0  0  0  0  0  0  0  0
   10.4041  -17.4387   14.2214 N   0  0  0  0  0  0  0  0  0  0  0  0
   10.9314  -16.0175   15.9983 N   0  0  0  0  0  0  0  0  0  0  0  0
   10.5096  -15.0674   17.0174 C   0  0  0  0  0  0  0  0  0  0  0  0
    9.0647  -14.6781   16.8470 C   0  0  0  0  0  0  0  0  0  0  0  0
    8.1762  -15.1779   17.9257 C   0  0  0  0  0  0  0  0  0  0  0  0
    7.5403  -14.1234   18.7849 C   0  0  2  0  0  0  0  0  0  0  0  0
    7.5168  -12.8547   18.0656 N   0  0  0  0  0  0  0  0  0  0  0  0
    8.2699  -13.9174   20.0548 C   0  0  0  0  0  0  0  0  0  0  0  0
    9.4838  -14.2401   20.1592 O   0  0  0  0  0  0  0  0  0  0  0  0
   11.4152  -17.5394   14.1030 N   0  0  0  0  0  0  0  0  0  0  0  0
    7.5863  -13.3512   21.1567 C   0  0  2  0  0  0  0  0  0  0  0  0
    8.1032  -13.5437   22.5088 C   0  0  0  0  0  0  0  0  0  0  0  0
    7.0140  -13.2414   23.4902 C   0  0  0  0  0  0  0  0  0  0  0  0
    7.5124  -13.2000   24.9007 C   0  0  0  0  0  0  0  0  0  0  0  0
    6.3896  -12.8238   25.8622 C   0  0  0  0  0  0  0  0  0  0  0  0
    7.0049  -12.5336   27.2207 N   0  0  0  0  0  0  0  0  0  0  0  0
    6.0166  -12.0505   28.1430 C   0  0  0  0  0  0  0  0  0  0  0  0
    8.5023  -14.9831   22.6345 O   0  0  0  0  0  0  0  0  0  0  0  0
    8.1276  -15.8631   21.7991 N   0  0  0  0  0  0  0  0  0  0  0  0
   13.0301  -14.9088   20.3497 C   0  0  0  0  0  0  0  0  0  0  0  0
   13.3570  -16.1206   21.0064 O   0  0  0  0  0  0  0  0  0  0  0  0
   14.3650  -16.7601   20.6433 C   0  0  0  0  0  0  0  0  0  0  0  0
   12.5073  -16.6140   22.1055 C   0  0  0  0  0  0  0  0  0  0  0  0
   11.2700  -15.8189   22.3155 C   0  0  1  0  0  0  0  0  0  0  0  0
   10.4453  -16.3214   23.4604 N   0  0  0  0  0  0  0  0  0  0  0  0
    9.3195  -15.4097   23.7026 C   0  0  0  0  0  0  0  0  0  0  0  0
   11.2232  -16.5067   24.7064 O   0  0  0  0  0  0  0  0  0  0  0  0
   12.1746  -17.3022   24.8464 O   0  0  0  0  0  0  0  0  0  0  0  0
  2  3  2  0
  2  1  1  0
  4  2  1  0
  5  4  1  0
  6  5  1  0
  7  6  1  0
  8  9  1  6
  8  7  1  0
 10  8  1  0
 11 10  2  0
 12 10  1  0
 13 19  1  0
 13 12  1  0
 13 14  1  6
 15 14  1  0
 16 15  1  0
 17 16  1  0
 18 17  1  0
 19 20  2  0
 22 21  1  0
 22 24  1  0
 23 22  2  0
 25 24  1  0
 26 25  1  6
 27 19  1  0
 27 26  1  0
 28 30  1  0
 28 26  1  0
 29 28  2  0
M  END
$$$$
