RKQ.pdb
     RDKit          3D

 30 29  0  0  1  0  0  0  0  0999 V2000
   13.2647  -21.6209   23.3085 N   0  0  0  0  0  0  0  0  0  0  0  0
   14.4373  -21.8633   24.1136 C   0  0  0  0  0  0  0  0  0  0  0  0
   15.1628  -20.8757   24.5466 N   0  0  0  0  0  0  0  0  0  0  0  0
   14.8313  -23.1859   24.4553 N   0  0  0  0  0  0  0  0  0  0  0  0
   15.9484  -23.4125   25.3608 C   0  0  0  0  0  0  0  0  0  0  0  0
   15.5566  -23.1697   26.7946 C   0  0  0  0  0  0  0  0  0  0  0  0
   16.6545  -23.4034   27.7656 C   0  0  0  0  0  0  0  0  0  0  0  0
   16.2604  -24.0957   29.0383 C   0  0  2  0  0  0  0  0  0  0  0  0
   14.9328  -24.6806   28.8864 N   0  0  0  0  0  0  0  0  0  0  0  0
   16.2255  -23.1723   30.1931 C   0  0  0  0  0  0  0  0  0  0  0  0
   17.2203  -22.4493   30.4693 O   0  0  0  0  0  0  0  0  0  0  0  0
   16.0038  -21.0969   25.0855 N   0  0  0  0  0  0  0  0  0  0  0  0
   15.0567  -23.1093   30.9883 C   0  0  1  0  0  0  0  0  0  0  0  0
   15.0221  -22.2393   32.1606 C   0  0  0  0  0  0  0  0  0  0  0  0
   13.6049  -22.1112   32.6257 C   0  0  0  0  0  0  0  0  0  0  0  0
   12.8467  -21.0694   31.8644 C   0  0  0  0  0  0  0  0  0  0  0  0
   11.9695  -21.7106   30.7939 C   0  0  0  0  0  0  0  0  0  0  0  0
   11.2559  -20.6025   30.0381 N   0  0  0  0  0  0  0  0  0  0  0  0
   10.3630  -21.1416   29.0518 C   0  0  0  0  0  0  0  0  0  0  0  0
   15.8404  -22.8971   33.2304 O   0  0  0  0  0  0  0  0  0  0  0  0
   16.0003  -24.1559   33.2802 N   0  0  0  0  0  0  0  0  0  0  0  0
   19.5563  -19.6614   37.1846 C   0  0  0  0  0  0  0  0  0  0  0  0
   19.8859  -19.9861   35.8457 O   0  0  0  0  0  0  0  0  0  0  0  0
   20.7870  -19.3469   35.2658 C   0  0  0  0  0  0  0  0  0  0  0  0
   19.1645  -21.0687   35.1524 C   0  0  0  0  0  0  0  0  0  0  0  0
   18.1066  -21.7117   35.9738 C   0  0  2  0  0  0  0  0  0  0  0  0
   17.3454  -22.7598   35.2216 N   0  0  0  0  0  0  0  0  0  0  0  0
   16.4677  -22.1241   34.2302 C   0  0  0  0  0  0  0  0  0  0  0  0
   16.5546  -23.6527   36.0986 O   0  0  0  0  0  0  0  0  0  0  0  0
   15.3526  -23.4894   36.3917 O   0  0  0  0  0  0  0  0  0  0  0  0
  2  3  2  0
  2  1  1  0
  4  2  1  0
  5  4  1  0
  6  5  1  0
  7  6  1  0
  8  9  1  6
  8  7  1  0
 10  8  1  0
 11 10  2  0
 12 10  1  0
 13 19  1  0
 13 12  1  0
 13 14  1  1
 15 14  1  0
 16 15  1  0
 17 16  1  0
 18 17  1  0
 19 20  2  0
 22 21  1  0
 22 24  1  0
 23 22  2  0
 25 24  1  0
 26 25  1  6
 27 19  1  0
 27 26  1  0
 28 30  1  0
 28 26  1  0
 29 28  2  0
M  END
$$$$
