RKQ.pdb
     RDKit          3D

 30 29  0  0  1  0  0  0  0  0999 V2000
    9.0612  -12.9340   18.5203 N   0  0  0  0  0  0  0  0  0  0  0  0
    7.8638  -13.5779   18.0368 C   0  0  0  0  0  0  0  0  0  0  0  0
    6.8493  -12.8756   17.6286 N   0  0  0  0  0  0  0  0  0  0  0  0
    7.7603  -14.9951   17.9932 N   0  0  0  0  0  0  0  0  0  0  0  0
    8.8843  -15.8297   18.3922 C   0  0  0  0  0  0  0  0  0  0  0  0
    9.8366  -15.0838   19.2894 C   0  0  0  0  0  0  0  0  0  0  0  0
   10.5800  -15.9546   20.2337 C   0  0  0  0  0  0  0  0  0  0  0  0
    9.7659  -16.5535   21.3442 C   0  0  2  0  0  0  0  0  0  0  0  0
    8.3518  -16.5185   20.9880 N   0  0  0  0  0  0  0  0  0  0  0  0
    9.9356  -15.8265   22.6209 C   0  0  0  0  0  0  0  0  0  0  0  0
   11.0814  -15.4844   23.0192 O   0  0  0  0  0  0  0  0  0  0  0  0
    6.0274  -13.3754   17.2804 N   0  0  0  0  0  0  0  0  0  0  0  0
    8.7914  -15.5177   23.3939 C   0  0  1  0  0  0  0  0  0  0  0  0
    8.9313  -14.7299   24.6155 C   0  0  0  0  0  0  0  0  0  0  0  0
    7.6193  -14.0779   24.9230 C   0  0  0  0  0  0  0  0  0  0  0  0
    7.6804  -13.2241   26.1505 C   0  0  0  0  0  0  0  0  0  0  0  0
    6.3489  -12.5187   26.3878 C   0  0  0  0  0  0  0  0  0  0  0  0
    6.4818  -11.6598   27.6339 N   0  0  0  0  0  0  0  0  0  0  0  0
    5.2732  -10.9284   27.8888 C   0  0  0  0  0  0  0  0  0  0  0  0
    9.2883  -15.6775   25.7206 O   0  0  0  0  0  0  0  0  0  0  0  0
    8.5762  -16.6922   25.9964 N   0  0  0  0  0  0  0  0  0  0  0  0
   13.1664  -17.9296   25.1038 C   0  0  0  0  0  0  0  0  0  0  0  0
   12.9452  -18.7912   26.2063 O   0  0  0  0  0  0  0  0  0  0  0  0
   13.1484  -20.0153   26.0758 C   0  0  0  0  0  0  0  0  0  0  0  0
   12.4777  -18.2378   27.4902 C   0  0  0  0  0  0  0  0  0  0  0  0
   12.2512  -16.7696   27.4679 C   0  0  2  0  0  0  0  0  0  0  0  0
   10.8022  -16.4049   27.5721 N   0  0  0  0  0  0  0  0  0  0  0  0
   10.4454  -15.4665   26.4999 C   0  0  0  0  0  0  0  0  0  0  0  0
   10.4346  -15.8335   28.8875 O   0  0  0  0  0  0  0  0  0  0  0  0
   10.1141  -14.6442   29.0885 O   0  0  0  0  0  0  0  0  0  0  0  0
  2  3  2  0
  2  1  1  0
  4  2  1  0
  5  4  1  0
  6  5  1  0
  7  6  1  0
  8  9  1  6
  8  7  1  0
 10  8  1  0
 11 10  2  0
 12 10  1  0
 13 19  1  0
 13 12  1  0
 13 14  1  6
 15 14  1  0
 16 15  1  0
 17 16  1  0
 18 17  1  0
 19 20  2  0
 22 21  1  0
 22 24  1  0
 23 22  2  0
 25 24  1  0
 26 25  1  6
 27 19  1  0
 27 26  1  0
 28 30  1  0
 28 26  1  0
 29 28  2  0
M  END
$$$$
