RKQ.pdb
     RDKit          3D

 30 29  0  0  1  0  0  0  0  0999 V2000
    7.8582  -13.6792   17.7841 N   0  0  0  0  0  0  0  0  0  0  0  0
    8.7442  -13.2392   18.8347 C   0  0  0  0  0  0  0  0  0  0  0  0
    9.9954  -12.9884   18.5883 N   0  0  0  0  0  0  0  0  0  0  0  0
    8.2746  -13.0679   20.1656 N   0  0  0  0  0  0  0  0  0  0  0  0
    7.0133  -13.6613   20.5853 C   0  0  0  0  0  0  0  0  0  0  0  0
    7.1029  -15.1632   20.6504 C   0  0  0  0  0  0  0  0  0  0  0  0
    5.8881  -15.8147   21.2007 C   0  0  0  0  0  0  0  0  0  0  0  0
    5.9709  -17.3038   21.3741 C   0  0  2  0  0  0  0  0  0  0  0  0
    4.6617  -17.8985   21.1291 N   0  0  0  0  0  0  0  0  0  0  0  0
    6.4019  -17.6882   22.7357 C   0  0  0  0  0  0  0  0  0  0  0  0
    5.6543  -17.4826   23.7294 O   0  0  0  0  0  0  0  0  0  0  0  0
   10.5695  -12.6139   19.3478 N   0  0  0  0  0  0  0  0  0  0  0  0
    7.6693  -18.2925   22.9110 C   0  0  2  0  0  0  0  0  0  0  0  0
    8.1027  -18.6968   24.2456 C   0  0  0  0  0  0  0  0  0  0  0  0
    8.5438  -20.1265   24.1981 C   0  0  0  0  0  0  0  0  0  0  0  0
    7.4239  -21.0786   24.4787 C   0  0  0  0  0  0  0  0  0  0  0  0
    7.8941  -22.5237   24.3466 C   0  0  0  0  0  0  0  0  0  0  0  0
    6.7291  -23.4358   24.6915 N   0  0  0  0  0  0  0  0  0  0  0  0
    7.0753  -24.8144   24.4913 C   0  0  0  0  0  0  0  0  0  0  0  0
    9.2654  -17.8284   24.6207 O   0  0  0  0  0  0  0  0  0  0  0  0
    9.7918  -17.0136   23.8010 N   0  0  0  0  0  0  0  0  0  0  0  0
    7.2218  -14.0659   27.7178 C   0  0  0  0  0  0  0  0  0  0  0  0
    8.5557  -13.6184   27.8823 O   0  0  0  0  0  0  0  0  0  0  0  0
    8.7736  -12.5667   28.5174 C   0  0  0  0  0  0  0  0  0  0  0  0
    9.6682  -14.3933   27.3036 C   0  0  0  0  0  0  0  0  0  0  0  0
    9.2420  -15.6379   26.6132 C   0  0  1  0  0  0  0  0  0  0  0  0
   10.3203  -16.6767   26.5725 N   0  0  0  0  0  0  0  0  0  0  0  0
    9.8185  -17.8916   25.9171 C   0  0  0  0  0  0  0  0  0  0  0  0
   10.8635  -17.0104   27.9087 O   0  0  0  0  0  0  0  0  0  0  0  0
   11.8609  -16.4730   28.4322 O   0  0  0  0  0  0  0  0  0  0  0  0
  2  3  2  0
  2  1  1  0
  4  2  1  0
  5  4  1  0
  6  5  1  0
  7  6  1  0
  8  9  1  1
  8  7  1  0
 10  8  1  0
 11 10  2  0
 12 10  1  0
 13 19  1  0
 13 12  1  0
 13 14  1  6
 15 14  1  0
 16 15  1  0
 17 16  1  0
 18 17  1  0
 19 20  2  0
 22 21  1  0
 22 24  1  0
 23 22  2  0
 25 24  1  0
 26 25  1  6
 27 19  1  0
 27 26  1  0
 28 30  1  0
 28 26  1  0
 29 28  2  0
M  END
$$$$
