RKQ.pdb
     RDKit          3D

 30 29  0  0  1  0  0  0  0  0999 V2000
    8.2085  -12.6630   18.0090 N   0  0  0  0  0  0  0  0  0  0  0  0
    8.8723  -13.5597   18.9242 C   0  0  0  0  0  0  0  0  0  0  0  0
    9.5568  -14.5730   18.4839 N   0  0  0  0  0  0  0  0  0  0  0  0
    8.7964  -13.3606   20.3298 N   0  0  0  0  0  0  0  0  0  0  0  0
    7.6001  -13.7432   21.0659 C   0  0  0  0  0  0  0  0  0  0  0  0
    7.4315  -15.2391   21.1090 C   0  0  0  0  0  0  0  0  0  0  0  0
    6.2598  -15.6895   21.9008 C   0  0  0  0  0  0  0  0  0  0  0  0
    6.2333  -17.1496   22.2497 C   0  0  2  0  0  0  0  0  0  0  0  0
    4.8547  -17.6260   22.2573 N   0  0  0  0  0  0  0  0  0  0  0  0
    6.8197  -17.4205   23.5802 C   0  0  0  0  0  0  0  0  0  0  0  0
    6.2026  -17.1026   24.6323 O   0  0  0  0  0  0  0  0  0  0  0  0
   10.0208  -15.1742   19.1694 N   0  0  0  0  0  0  0  0  0  0  0  0
    8.0876  -18.0437   23.6591 C   0  0  2  0  0  0  0  0  0  0  0  0
    8.7507  -18.1797   24.9530 C   0  0  0  0  0  0  0  0  0  0  0  0
    9.6480  -19.3773   24.9127 C   0  0  0  0  0  0  0  0  0  0  0  0
   10.3500  -19.6081   26.2141 C   0  0  0  0  0  0  0  0  0  0  0  0
   11.2483  -20.8384   26.1354 C   0  0  0  0  0  0  0  0  0  0  0  0
   11.9601  -20.9930   27.4686 N   0  0  0  0  0  0  0  0  0  0  0  0
   12.9172  -22.0619   27.4226 C   0  0  0  0  0  0  0  0  0  0  0  0
    9.5749  -16.9459   25.1654 O   0  0  0  0  0  0  0  0  0  0  0  0
   10.0474  -16.2745   24.1965 N   0  0  0  0  0  0  0  0  0  0  0  0
    6.0580  -13.3260   25.5256 C   0  0  0  0  0  0  0  0  0  0  0  0
    7.0164  -12.4924   26.1526 O   0  0  0  0  0  0  0  0  0  0  0  0
    6.7610  -11.2820   26.3148 C   0  0  0  0  0  0  0  0  0  0  0  0
    8.3007  -13.0584   26.6038 C   0  0  0  0  0  0  0  0  0  0  0  0
    8.4586  -14.5062   26.3102 C   0  0  1  0  0  0  0  0  0  0  0  0
    9.7669  -15.0557   26.7899 N   0  0  0  0  0  0  0  0  0  0  0  0
    9.8548  -16.4865   26.4697 C   0  0  0  0  0  0  0  0  0  0  0  0
    9.9951  -14.8465   28.2376 O   0  0  0  0  0  0  0  0  0  0  0  0
    9.6539  -15.6389   29.1394 O   0  0  0  0  0  0  0  0  0  0  0  0
  2  3  2  0
  2  1  1  0
  4  2  1  0
  5  4  1  0
  6  5  1  0
  7  6  1  0
  8  9  1  1
  8  7  1  0
 10  8  1  0
 11 10  2  0
 12 10  1  0
 13 19  1  0
 13 12  1  0
 13 14  1  6
 15 14  1  0
 16 15  1  0
 17 16  1  0
 18 17  1  0
 19 20  2  0
 22 21  1  0
 22 24  1  0
 23 22  2  0
 25 24  1  0
 26 25  1  6
 27 19  1  0
 27 26  1  0
 28 30  1  0
 28 26  1  0
 29 28  2  0
M  END
$$$$
