FTV.pdb
     RDKit          3D

 26 26  0  0  1  0  0  0  0  0999 V2000
    7.2940  -15.5172   20.4009 N   0  0  0  0  0  0  0  0  0  0  0  0
    7.6344  -14.8027   21.6012 C   0  0  1  0  0  0  0  0  0  0  0  0
    6.3895  -14.1966   22.2248 C   0  0  0  0  0  0  0  0  0  0  0  0
    6.6721  -13.4204   23.4351 C   0  0  0  0  0  0  0  0  0  0  0  0
    7.2656  -12.1851   23.3340 C   0  0  0  0  0  0  0  0  0  0  0  0
    7.5288  -11.4603   24.4734 C   0  0  0  0  0  0  0  0  0  0  0  0
    7.1948  -11.9767   25.7265 C   0  0  0  0  0  0  0  0  0  0  0  0
    6.6034  -13.2081   25.8243 C   0  0  0  0  0  0  0  0  0  0  0  0
    6.3356  -13.9421   24.6889 C   0  0  0  0  0  0  0  0  0  0  0  0
    8.1852  -15.7533   22.6243 C   0  0  0  0  0  0  0  0  0  0  0  0
    7.5083  -16.7429   23.0049 O   0  0  0  0  0  0  0  0  0  0  0  0
   11.7574  -18.3002   24.3255 C   0  0  0  0  0  0  0  0  0  0  0  0
   11.1266  -17.2803   23.4159 C   0  0  1  0  0  0  0  0  0  0  0  0
   10.7390  -17.8418   22.1968 O   0  0  0  0  0  0  0  0  0  0  0  0
    9.9936  -16.5830   24.1073 C   0  0  2  0  0  0  0  0  0  0  0  0
    9.4678  -15.5839   23.1979 N   0  0  0  0  0  0  0  0  0  0  0  0
   10.4558  -15.9477   25.3833 C   0  0  0  0  0  0  0  0  0  0  0  0
   10.6880  -14.7234   25.3848 O   0  0  0  0  0  0  0  0  0  0  0  0
    9.4325  -14.1418   27.4651 C   0  0  0  0  0  0  0  0  0  0  0  0
    9.6965  -15.3535   28.2896 C   0  0  2  0  0  0  0  0  0  0  0  0
   10.0277  -14.8514   29.7032 C   0  0  0  0  0  0  0  0  0  0  0  0
   10.8193  -16.2189   27.8675 C   0  0  2  0  0  0  0  0  0  0  0  0
   10.6169  -16.7310   26.5379 N   0  0  0  0  0  0  0  0  0  0  0  0
   11.1715  -17.3084   28.8080 C   0  0  0  0  0  0  0  0  0  0  0  0
   12.1694  -17.1074   29.7345 O   0  0  0  0  0  0  0  0  0  0  0  0
   10.5795  -18.4249   28.7914 O   0  0  0  0  0  0  0  0  0  0  0  0
  2 10  1  0
  2  1  1  6
  3  2  1  0
  4  3  1  0
  5  4  2  0
  6  5  1  0
  7  6  2  0
  7  8  1  0
  8  9  2  0
  9  4  1  0
 10 11  2  0
 13 12  1  1
 13 14  1  0
 15 13  1  0
 16 10  1  0
 15 16  1  6
 17 15  1  0
 17 18  2  0
 20 19  1  6
 20 22  1  0
 21 20  1  0
 22 23  1  6
 23 17  1  0
 24 25  1  0
 24 22  1  0
 26 24  2  0
M  END
$$$$
