FTV.pdb
     RDKit          3D

 26 26  0  0  1  0  0  0  0  0999 V2000
    5.7730  -17.1548   23.0966 N   0  0  0  0  0  0  0  0  0  0  0  0
    6.6805  -16.2232   23.7096 C   0  0  1  0  0  0  0  0  0  0  0  0
    6.0664  -15.6413   24.9707 C   0  0  0  0  0  0  0  0  0  0  0  0
    6.3554  -14.2156   25.1462 C   0  0  0  0  0  0  0  0  0  0  0  0
    5.4100  -13.3882   25.7031 C   0  0  0  0  0  0  0  0  0  0  0  0
    5.6863  -12.0503   25.8657 C   0  0  0  0  0  0  0  0  0  0  0  0
    6.9209  -11.5350   25.4670 C   0  0  0  0  0  0  0  0  0  0  0  0
    7.8611  -12.3620   24.9122 C   0  0  0  0  0  0  0  0  0  0  0  0
    7.5942  -13.7038   24.7451 C   0  0  0  0  0  0  0  0  0  0  0  0
    7.9259  -16.9360   24.1503 C   0  0  0  0  0  0  0  0  0  0  0  0
    7.8578  -18.0869   24.6536 O   0  0  0  0  0  0  0  0  0  0  0  0
   10.7047  -17.9348   22.1991 C   0  0  0  0  0  0  0  0  0  0  0  0
   11.3375  -17.1929   23.3457 C   0  0  1  0  0  0  0  0  0  0  0  0
   11.8414  -15.9527   22.9461 O   0  0  0  0  0  0  0  0  0  0  0  0
   10.3797  -17.0752   24.4933 C   0  0  2  0  0  0  0  0  0  0  0  0
    9.2112  -16.3576   24.0226 N   0  0  0  0  0  0  0  0  0  0  0  0
   11.0130  -16.3585   25.6469 C   0  0  0  0  0  0  0  0  0  0  0  0
   11.2715  -15.1461   25.5207 O   0  0  0  0  0  0  0  0  0  0  0  0
    9.4004  -15.9229   28.9085 C   0  0  0  0  0  0  0  0  0  0  0  0
   10.7580  -15.4374   28.5360 C   0  0  2  0  0  0  0  0  0  0  0  0
   10.5604  -14.4431   27.3817 C   0  0  0  0  0  0  0  0  0  0  0  0
   11.7267  -16.4522   28.0673 C   0  0  2  0  0  0  0  0  0  0  0  0
   11.3001  -17.0551   26.8323 N   0  0  0  0  0  0  0  0  0  0  0  0
   12.0971  -17.4858   29.0624 C   0  0  0  0  0  0  0  0  0  0  0  0
   12.7867  -17.1189   30.1957 O   0  0  0  0  0  0  0  0  0  0  0  0
   11.7957  -18.7033   28.9071 O   0  0  0  0  0  0  0  0  0  0  0  0
  2 10  1  0
  2  1  1  1
  3  2  1  0
  4  3  1  0
  5  4  2  0
  6  5  1  0
  7  6  2  0
  7  8  1  0
  8  9  2  0
  9  4  1  0
 10 11  2  0
 13 12  1  6
 13 14  1  0
 15 13  1  0
 16 10  1  0
 15 16  1  6
 17 15  1  0
 17 18  2  0
 20 19  1  6
 20 22  1  0
 21 20  1  0
 22 23  1  6
 23 17  1  0
 24 25  1  0
 24 22  1  0
 26 24  2  0
M  END
$$$$
