FTV.pdb
     RDKit          3D

 26 26  0  0  1  0  0  0  0  0999 V2000
    7.5186  -17.4766   19.2313 N   0  0  0  0  0  0  0  0  0  0  0  0
    7.9552  -16.3582   20.0223 C   0  0  1  0  0  0  0  0  0  0  0  0
    6.8731  -15.2941   20.0730 C   0  0  0  0  0  0  0  0  0  0  0  0
    7.2104  -14.1722   20.9532 C   0  0  0  0  0  0  0  0  0  0  0  0
    7.9932  -13.1446   20.4843 C   0  0  0  0  0  0  0  0  0  0  0  0
    8.3071  -12.0936   21.3147 C   0  0  0  0  0  0  0  0  0  0  0  0
    7.8329  -12.0704   22.6275 C   0  0  0  0  0  0  0  0  0  0  0  0
    7.0529  -13.0959   23.0920 C   0  0  0  0  0  0  0  0  0  0  0  0
    6.7328  -14.1534   22.2681 C   0  0  0  0  0  0  0  0  0  0  0  0
    8.1737  -16.7901   21.4432 C   0  0  0  0  0  0  0  0  0  0  0  0
    7.3741  -17.5875   21.9975 O   0  0  0  0  0  0  0  0  0  0  0  0
   11.1195  -18.5104   24.5950 C   0  0  0  0  0  0  0  0  0  0  0  0
   10.6344  -17.9641   23.2789 C   0  0  1  0  0  0  0  0  0  0  0  0
   10.2276  -18.9822   22.4130 O   0  0  0  0  0  0  0  0  0  0  0  0
    9.5628  -16.9379   23.4942 C   0  0  2  0  0  0  0  0  0  0  0  0
    9.2689  -16.3290   22.2118 N   0  0  0  0  0  0  0  0  0  0  0  0
   10.0048  -15.9029   24.4837 C   0  0  0  0  0  0  0  0  0  0  0  0
   10.8954  -15.1007   24.1432 O   0  0  0  0  0  0  0  0  0  0  0  0
    7.9939  -13.2947   26.1985 C   0  0  0  0  0  0  0  0  0  0  0  0
    8.6594  -14.1167   27.2468 C   0  0  2  0  0  0  0  0  0  0  0  0
    9.2041  -13.1294   28.2901 C   0  0  0  0  0  0  0  0  0  0  0  0
    9.7977  -14.9573   26.8160 C   0  0  2  0  0  0  0  0  0  0  0  0
    9.4168  -15.8557   25.7583 N   0  0  0  0  0  0  0  0  0  0  0  0
   10.5000  -15.6821   27.9010 C   0  0  0  0  0  0  0  0  0  0  0  0
   11.6856  -15.1840   28.3917 O   0  0  0  0  0  0  0  0  0  0  0  0
   10.0421  -16.7498   28.3986 O   0  0  0  0  0  0  0  0  0  0  0  0
  2 10  1  0
  2  1  1  6
  3  2  1  0
  4  3  1  0
  5  4  2  0
  6  5  1  0
  7  6  2  0
  7  8  1  0
  8  9  2  0
  9  4  1  0
 10 11  2  0
 13 12  1  1
 13 14  1  0
 15 13  1  0
 16 10  1  0
 15 16  1  6
 17 15  1  0
 17 18  2  0
 20 19  1  6
 20 22  1  0
 21 20  1  0
 22 23  1  6
 23 17  1  0
 24 25  1  0
 24 22  1  0
 26 24  2  0
M  END
$$$$
