FTV.pdb
     RDKit          3D

 26 26  0  0  1  0  0  0  0  0999 V2000
    7.2675  -15.1576   20.4312 N   0  0  0  0  0  0  0  0  0  0  0  0
    7.6391  -14.5427   21.6766 C   0  0  1  0  0  0  0  0  0  0  0  0
    6.4418  -13.8455   22.2981 C   0  0  0  0  0  0  0  0  0  0  0  0
    6.7477  -13.2143   23.5847 C   0  0  0  0  0  0  0  0  0  0  0  0
    6.3161  -13.7953   24.7529 C   0  0  0  0  0  0  0  0  0  0  0  0
    6.6059  -13.1987   25.9582 C   0  0  0  0  0  0  0  0  0  0  0  0
    7.3348  -12.0087   25.9951 C   0  0  0  0  0  0  0  0  0  0  0  0
    7.7636  -11.4320   24.8292 C   0  0  0  0  0  0  0  0  0  0  0  0
    7.4785  -12.0218   23.6166 C   0  0  0  0  0  0  0  0  0  0  0  0
    8.0592  -15.5945   22.6618 C   0  0  0  0  0  0  0  0  0  0  0  0
    7.4877  -16.7150   22.6809 O   0  0  0  0  0  0  0  0  0  0  0  0
   11.2585  -18.3895   23.9675 C   0  0  0  0  0  0  0  0  0  0  0  0
   10.4683  -17.3037   23.2875 C   0  0  1  0  0  0  0  0  0  0  0  0
    9.6534  -17.8127   22.2733 O   0  0  0  0  0  0  0  0  0  0  0  0
    9.6944  -16.5037   24.2920 C   0  0  2  0  0  0  0  0  0  0  0  0
    9.0984  -15.3791   23.5979 N   0  0  0  0  0  0  0  0  0  0  0  0
   10.5855  -16.0311   25.4002 C   0  0  0  0  0  0  0  0  0  0  0  0
   11.1689  -14.9383   25.2654 O   0  0  0  0  0  0  0  0  0  0  0  0
    9.5290  -14.1978   27.3543 C   0  0  0  0  0  0  0  0  0  0  0  0
    9.6662  -15.4187   28.1958 C   0  0  2  0  0  0  0  0  0  0  0  0
    9.8449  -14.9303   29.6413 C   0  0  0  0  0  0  0  0  0  0  0  0
   10.8082  -16.3110   27.8999 C   0  0  2  0  0  0  0  0  0  0  0  0
   10.7455  -16.8160   26.5539 N   0  0  0  0  0  0  0  0  0  0  0  0
   11.0250  -17.4101   28.8698 C   0  0  0  0  0  0  0  0  0  0  0  0
   12.0243  -17.2972   29.8096 O   0  0  0  0  0  0  0  0  0  0  0  0
   10.3152  -18.4558   28.8663 O   0  0  0  0  0  0  0  0  0  0  0  0
  2 10  1  0
  2  1  1  6
  3  2  1  0
  4  3  1  0
  5  4  2  0
  6  5  1  0
  7  6  2  0
  7  8  1  0
  8  9  2  0
  9  4  1  0
 10 11  2  0
 13 12  1  1
 13 14  1  0
 15 13  1  0
 16 10  1  0
 15 16  1  6
 17 15  1  0
 17 18  2  0
 20 19  1  6
 20 22  1  0
 21 20  1  0
 22 23  1  6
 23 17  1  0
 24 25  1  0
 24 22  1  0
 26 24  2  0
M  END
$$$$
