FTV.pdb
     RDKit          3D

 26 26  0  0  1  0  0  0  0  0999 V2000
    6.1312  -16.2502   23.3388 N   0  0  0  0  0  0  0  0  0  0  0  0
    7.3373  -15.6774   23.8720 C   0  0  1  0  0  0  0  0  0  0  0  0
    7.1143  -15.2154   25.3013 C   0  0  0  0  0  0  0  0  0  0  0  0
    6.6269  -13.8365   25.3907 C   0  0  0  0  0  0  0  0  0  0  0  0
    7.3427  -12.8176   24.8093 C   0  0  0  0  0  0  0  0  0  0  0  0
    6.8808  -11.5246   24.8960 C   0  0  0  0  0  0  0  0  0  0  0  0
    5.6907  -11.2482   25.5713 C   0  0  0  0  0  0  0  0  0  0  0  0
    4.9794  -12.2657   26.1498 C   0  0  0  0  0  0  0  0  0  0  0  0
    5.4336  -13.5644   26.0685 C   0  0  0  0  0  0  0  0  0  0  0  0
    8.4133  -16.7219   23.9410 C   0  0  0  0  0  0  0  0  0  0  0  0
    8.3104  -17.7880   23.2814 O   0  0  0  0  0  0  0  0  0  0  0  0
   10.0679  -17.7888   22.2305 C   0  0  0  0  0  0  0  0  0  0  0  0
   11.1673  -17.4214   23.1907 C   0  0  1  0  0  0  0  0  0  0  0  0
   11.7323  -16.1814   22.8825 O   0  0  0  0  0  0  0  0  0  0  0  0
   10.6779  -17.4879   24.6064 C   0  0  2  0  0  0  0  0  0  0  0  0
    9.5724  -16.5592   24.7366 N   0  0  0  0  0  0  0  0  0  0  0  0
   11.7749  -17.1446   25.5679 C   0  0  0  0  0  0  0  0  0  0  0  0
   12.6682  -16.3615   25.1917 O   0  0  0  0  0  0  0  0  0  0  0  0
   10.9978  -14.7283   27.1917 C   0  0  0  0  0  0  0  0  0  0  0  0
   10.7691  -15.8934   28.0905 C   0  0  2  0  0  0  0  0  0  0  0  0
   10.7128  -15.3330   29.5198 C   0  0  0  0  0  0  0  0  0  0  0  0
   11.7991  -16.9550   28.0859 C   0  0  2  0  0  0  0  0  0  0  0  0
   11.7773  -17.7030   26.8567 N   0  0  0  0  0  0  0  0  0  0  0  0
   11.7850  -17.8605   29.2587 C   0  0  0  0  0  0  0  0  0  0  0  0
   10.8732  -18.8905   29.3085 O   0  0  0  0  0  0  0  0  0  0  0  0
   12.5910  -17.7210   30.2221 O   0  0  0  0  0  0  0  0  0  0  0  0
  2 10  1  0
  2  1  1  1
  3  2  1  0
  4  3  1  0
  5  4  2  0
  6  5  1  0
  7  6  2  0
  7  8  1  0
  8  9  2  0
  9  4  1  0
 10 11  2  0
 13 12  1  6
 13 14  1  0
 15 13  1  0
 16 10  1  0
 15 16  1  6
 17 15  1  0
 17 18  2  0
 20 19  1  6
 20 22  1  0
 21 20  1  0
 22 23  1  6
 23 17  1  0
 24 25  1  0
 24 22  1  0
 26 24  2  0
M  END
$$$$
