FTV.pdb
     RDKit          3D

 26 26  0  0  1  0  0  0  0  0999 V2000
    5.6266  -16.6129   24.4667 N   0  0  0  0  0  0  0  0  0  0  0  0
    6.8295  -15.8279   24.4053 C   0  0  1  0  0  0  0  0  0  0  0  0
    7.0042  -15.0302   25.6857 C   0  0  0  0  0  0  0  0  0  0  0  0
    6.5350  -13.6469   25.5700 C   0  0  0  0  0  0  0  0  0  0  0  0
    7.2935  -12.7199   24.8964 C   0  0  0  0  0  0  0  0  0  0  0  0
    6.8485  -11.4224   24.7907 C   0  0  0  0  0  0  0  0  0  0  0  0
    5.6322  -11.0486   25.3647 C   0  0  0  0  0  0  0  0  0  0  0  0
    4.8782  -11.9746   26.0355 C   0  0  0  0  0  0  0  0  0  0  0  0
    5.3152  -13.2770   26.1470 C   0  0  0  0  0  0  0  0  0  0  0  0
    8.0259  -16.7302   24.3170 C   0  0  0  0  0  0  0  0  0  0  0  0
    8.0053  -17.8704   24.8480 O   0  0  0  0  0  0  0  0  0  0  0  0
   10.3498  -17.6078   21.4019 C   0  0  0  0  0  0  0  0  0  0  0  0
   11.1887  -17.0746   22.5323 C   0  0  1  0  0  0  0  0  0  0  0  0
   11.6866  -15.7997   22.2522 O   0  0  0  0  0  0  0  0  0  0  0  0
   10.4268  -17.1173   23.8229 C   0  0  2  0  0  0  0  0  0  0  0  0
    9.2111  -16.3477   23.6449 N   0  0  0  0  0  0  0  0  0  0  0  0
   11.2471  -16.5605   24.9466 C   0  0  0  0  0  0  0  0  0  0  0  0
   11.9515  -15.5570   24.7245 O   0  0  0  0  0  0  0  0  0  0  0  0
   11.7294  -14.4534   28.7868 C   0  0  0  0  0  0  0  0  0  0  0  0
   11.2258  -15.1996   27.6006 C   0  0  2  0  0  0  0  0  0  0  0  0
    9.6986  -15.2720   27.7510 C   0  0  0  0  0  0  0  0  0  0  0  0
   11.7065  -16.5880   27.4295 C   0  0  2  0  0  0  0  0  0  0  0  0
   11.2085  -17.1702   26.2113 N   0  0  0  0  0  0  0  0  0  0  0  0
   11.4731  -17.4889   28.5826 C   0  0  0  0  0  0  0  0  0  0  0  0
   10.6479  -18.5805   28.4334 O   0  0  0  0  0  0  0  0  0  0  0  0
   12.0135  -17.2902   29.7077 O   0  0  0  0  0  0  0  0  0  0  0  0
  2 10  1  0
  2  1  1  1
  3  2  1  0
  4  3  1  0
  5  4  2  0
  6  5  1  0
  7  6  2  0
  7  8  1  0
  8  9  2  0
  9  4  1  0
 10 11  2  0
 13 12  1  6
 13 14  1  0
 15 13  1  0
 16 10  1  0
 15 16  1  6
 17 15  1  0
 17 18  2  0
 20 19  1  1
 20 22  1  0
 21 20  1  0
 22 23  1  6
 23 17  1  0
 24 25  1  0
 24 22  1  0
 26 24  2  0
M  END
$$$$
