FTV.pdb
     RDKit          3D

 26 26  0  0  1  0  0  0  0  0999 V2000
    5.7176  -17.8689   23.5231 N   0  0  0  0  0  0  0  0  0  0  0  0
    6.4237  -16.6692   23.8827 C   0  0  1  0  0  0  0  0  0  0  0  0
    5.8470  -16.0804   25.1581 C   0  0  0  0  0  0  0  0  0  0  0  0
    6.2987  -14.7103   25.4147 C   0  0  0  0  0  0  0  0  0  0  0  0
    5.8196  -14.0234   26.5042 C   0  0  0  0  0  0  0  0  0  0  0  0
    6.2469  -12.7372   26.7406 C   0  0  0  0  0  0  0  0  0  0  0  0
    7.1627  -12.1322   25.8782 C   0  0  0  0  0  0  0  0  0  0  0  0
    7.6386  -12.8192   24.7931 C   0  0  0  0  0  0  0  0  0  0  0  0
    7.2168  -14.1081   24.5475 C   0  0  0  0  0  0  0  0  0  0  0  0
    7.8572  -16.9916   24.1905 C   0  0  0  0  0  0  0  0  0  0  0  0
    8.1443  -17.8956   25.0168 O   0  0  0  0  0  0  0  0  0  0  0  0
   12.5762  -16.7195   22.9124 C   0  0  0  0  0  0  0  0  0  0  0  0
   11.1225  -16.4338   22.6463 C   0  0  1  0  0  0  0  0  0  0  0  0
   10.6502  -17.1378   21.5359 O   0  0  0  0  0  0  0  0  0  0  0  0
   10.2996  -16.6881   23.8737 C   0  0  2  0  0  0  0  0  0  0  0  0
    8.9328  -16.3064   23.5771 N   0  0  0  0  0  0  0  0  0  0  0  0
   10.8261  -15.9097   25.0409 C   0  0  0  0  0  0  0  0  0  0  0  0
   11.1164  -14.7100   24.8700 O   0  0  0  0  0  0  0  0  0  0  0  0
   10.3039  -13.6154   26.7630 C   0  0  0  0  0  0  0  0  0  0  0  0
   10.2155  -14.7533   27.7195 C   0  0  2  0  0  0  0  0  0  0  0  0
   10.4635  -14.1646   29.1166 C   0  0  0  0  0  0  0  0  0  0  0  0
   11.1850  -15.8558   27.5399 C   0  0  2  0  0  0  0  0  0  0  0  0
   10.9811  -16.5362   26.2884 N   0  0  0  0  0  0  0  0  0  0  0  0
   11.2665  -16.8206   28.6616 C   0  0  0  0  0  0  0  0  0  0  0  0
   12.2262  -16.6502   29.6335 O   0  0  0  0  0  0  0  0  0  0  0  0
   10.4757  -17.8016   28.7598 O   0  0  0  0  0  0  0  0  0  0  0  0
  2 10  1  0
  2  1  1  1
  3  2  1  0
  4  3  1  0
  5  4  2  0
  6  5  1  0
  7  6  2  0
  7  8  1  0
  8  9  2  0
  9  4  1  0
 10 11  2  0
 13 12  1  1
 13 14  1  0
 15 13  1  0
 16 10  1  0
 15 16  1  6
 17 15  1  0
 17 18  2  0
 20 19  1  6
 20 22  1  0
 21 20  1  0
 22 23  1  6
 23 17  1  0
 24 25  1  0
 24 22  1  0
 26 24  2  0
M  END
$$$$
