FTV.pdb
     RDKit          3D

 26 26  0  0  1  0  0  0  0  0999 V2000
    7.4114  -15.3910   20.3869 N   0  0  0  0  0  0  0  0  0  0  0  0
    7.7468  -14.6951   21.5995 C   0  0  1  0  0  0  0  0  0  0  0  0
    6.5321  -13.9605   22.1389 C   0  0  0  0  0  0  0  0  0  0  0  0
    6.7830  -13.2989   23.4220 C   0  0  0  0  0  0  0  0  0  0  0  0
    7.6088  -12.2019   23.4775 C   0  0  0  0  0  0  0  0  0  0  0  0
    7.8411  -11.5842   24.6847 C   0  0  0  0  0  0  0  0  0  0  0  0
    7.2411  -12.0690   25.8481 C   0  0  0  0  0  0  0  0  0  0  0  0
    6.4185  -13.1625   25.7898 C   0  0  0  0  0  0  0  0  0  0  0  0
    6.1793  -13.7884   24.5853 C   0  0  0  0  0  0  0  0  0  0  0  0
    8.1375  -15.6794   22.6635 C   0  0  0  0  0  0  0  0  0  0  0  0
    7.3819  -16.6439   22.9485 O   0  0  0  0  0  0  0  0  0  0  0  0
    9.6792  -18.3159   22.5111 C   0  0  0  0  0  0  0  0  0  0  0  0
   10.5407  -17.6295   23.5370 C   0  0  1  0  0  0  0  0  0  0  0  0
   11.6892  -17.0776   22.9642 O   0  0  0  0  0  0  0  0  0  0  0  0
    9.7448  -16.6173   24.3051 C   0  0  2  0  0  0  0  0  0  0  0  0
    9.3517  -15.5706   23.3824 N   0  0  0  0  0  0  0  0  0  0  0  0
   10.5484  -16.0524   25.4367 C   0  0  0  0  0  0  0  0  0  0  0  0
   10.9753  -14.8861   25.3351 O   0  0  0  0  0  0  0  0  0  0  0  0
    9.9325  -14.1154   27.4952 C   0  0  0  0  0  0  0  0  0  0  0  0
   10.0935  -15.3394   28.3280 C   0  0  2  0  0  0  0  0  0  0  0  0
   10.5186  -14.8602   29.7243 C   0  0  0  0  0  0  0  0  0  0  0  0
   11.1062  -16.3222   27.8847 C   0  0  2  0  0  0  0  0  0  0  0  0
   10.8028  -16.8351   26.5749 N   0  0  0  0  0  0  0  0  0  0  0  0
   11.3821  -17.4247   28.8357 C   0  0  0  0  0  0  0  0  0  0  0  0
   12.5458  -17.4103   29.5706 O   0  0  0  0  0  0  0  0  0  0  0  0
   10.5767  -18.3848   28.9996 O   0  0  0  0  0  0  0  0  0  0  0  0
  2 10  1  0
  2  1  1  6
  3  2  1  0
  4  3  1  0
  5  4  2  0
  6  5  1  0
  7  6  2  0
  7  8  1  0
  8  9  2  0
  9  4  1  0
 10 11  2  0
 13 12  1  6
 13 14  1  0
 15 13  1  0
 16 10  1  0
 15 16  1  6
 17 15  1  0
 17 18  2  0
 20 19  1  6
 20 22  1  0
 21 20  1  0
 22 23  1  6
 23 17  1  0
 24 25  1  0
 24 22  1  0
 26 24  2  0
M  END
$$$$
