FTV.pdb
     RDKit          3D

 26 26  0  0  1  0  0  0  0  0999 V2000
    5.6243  -17.9343   23.6344 N   0  0  0  0  0  0  0  0  0  0  0  0
    6.3233  -16.7383   24.0194 C   0  0  1  0  0  0  0  0  0  0  0  0
    5.8212  -16.2444   25.3647 C   0  0  0  0  0  0  0  0  0  0  0  0
    6.2561  -14.8800   25.6753 C   0  0  0  0  0  0  0  0  0  0  0  0
    7.4271  -14.6741   26.3645 C   0  0  0  0  0  0  0  0  0  0  0  0
    7.8310  -13.3912   26.6537 C   0  0  0  0  0  0  0  0  0  0  0  0
    7.0555  -12.3032   26.2492 C   0  0  0  0  0  0  0  0  0  0  0  0
    5.8889  -12.5114   25.5625 C   0  0  0  0  0  0  0  0  0  0  0  0
    5.4755  -13.7927   25.2679 C   0  0  0  0  0  0  0  0  0  0  0  0
    7.7821  -17.0366   24.2097 C   0  0  0  0  0  0  0  0  0  0  0  0
    8.1466  -18.0245   24.8978 O   0  0  0  0  0  0  0  0  0  0  0  0
   10.2296  -16.8856   21.3024 C   0  0  0  0  0  0  0  0  0  0  0  0
   10.8875  -16.2383   22.4914 C   0  0  1  0  0  0  0  0  0  0  0  0
   10.9839  -14.8528   22.3405 O   0  0  0  0  0  0  0  0  0  0  0  0
   10.1877  -16.6254   23.7597 C   0  0  2  0  0  0  0  0  0  0  0  0
    8.7970  -16.2353   23.6346 N   0  0  0  0  0  0  0  0  0  0  0  0
   10.8206  -15.9604   24.9440 C   0  0  0  0  0  0  0  0  0  0  0  0
   11.2259  -14.7888   24.8184 O   0  0  0  0  0  0  0  0  0  0  0  0
   11.1034  -13.6594   26.8162 C   0  0  0  0  0  0  0  0  0  0  0  0
   10.7760  -14.8130   27.6992 C   0  0  2  0  0  0  0  0  0  0  0  0
   11.2201  -14.4144   29.1147 C   0  0  0  0  0  0  0  0  0  0  0  0
   11.4341  -16.1010   27.3895 C   0  0  2  0  0  0  0  0  0  0  0  0
   10.9442  -16.6584   26.1565 N   0  0  0  0  0  0  0  0  0  0  0  0
   11.4047  -17.1081   28.4760 C   0  0  0  0  0  0  0  0  0  0  0  0
   12.3146  -17.0213   29.5052 O   0  0  0  0  0  0  0  0  0  0  0  0
   10.5629  -18.0506   28.4927 O   0  0  0  0  0  0  0  0  0  0  0  0
  2 10  1  0
  2  1  1  1
  3  2  1  0
  4  3  1  0
  5  4  2  0
  6  5  1  0
  7  6  2  0
  7  8  1  0
  8  9  2  0
  9  4  1  0
 10 11  2  0
 13 12  1  6
 13 14  1  0
 15 13  1  0
 16 10  1  0
 15 16  1  6
 17 15  1  0
 17 18  2  0
 20 19  1  6
 20 22  1  0
 21 20  1  0
 22 23  1  6
 23 17  1  0
 24 25  1  0
 24 22  1  0
 26 24  2  0
M  END
$$$$
