LPS.pdb
     RDKit          3D

 22 22  0  0  1  0  0  0  0  0999 V2000
    5.5660  -12.3428   25.9564 C   0  0  0  0  0  0  0  0  0  0  0  0
    6.7067  -13.0531   26.6975 C   0  0  2  0  0  0  0  0  0  0  0  0
    7.3777  -12.0264   27.5601 C   0  0  0  0  0  0  0  0  0  0  0  0
    7.6017  -13.7547   25.7221 C   0  0  0  0  0  0  0  0  0  0  0  0
    6.9662  -15.0644   25.2874 C   0  0  2  0  0  0  0  0  0  0  0  0
    6.5298  -15.7962   26.3967 N   0  0  0  0  0  0  0  0  0  0  0  0
    7.8127  -15.7318   24.2855 C   0  0  0  0  0  0  0  0  0  0  0  0
    8.7255  -16.4931   24.7702 O   0  0  0  0  0  0  0  0  0  0  0  0
    7.6872  -15.5951   22.9113 N   0  0  0  0  0  0  0  0  0  0  0  0
    6.4408  -15.4261   22.1329 C   0  0  0  0  0  0  0  0  0  0  0  0
    6.8020  -14.1303   21.3620 C   0  0  0  0  0  0  0  0  0  0  0  0
    8.3388  -14.0843   21.3515 C   0  0  0  0  0  0  0  0  0  0  0  0
    8.6550  -15.4825   21.8398 C   0  0  1  0  0  0  0  0  0  0  0  0
   10.0275  -15.8039   22.0665 C   0  0  0  0  0  0  0  0  0  0  0  0
   10.9657  -15.2509   21.4534 O   0  0  0  0  0  0  0  0  0  0  0  0
   10.9850  -18.2893   25.0942 O   0  0  0  0  0  0  0  0  0  0  0  0
   11.9791  -17.3960   24.7597 C   0  0  0  0  0  0  0  0  0  0  0  0
   11.8649  -17.0653   23.2650 C   0  0  2  0  0  0  0  0  0  0  0  0
   10.4711  -16.7947   23.0202 N   0  0  0  0  0  0  0  0  0  0  0  0
   12.4007  -18.1462   22.4337 C   0  0  0  0  0  0  0  0  0  0  0  0
   11.6693  -18.7962   21.6461 O   0  0  0  0  0  0  0  0  0  0  0  0
   13.7430  -18.4830   22.4957 O   0  0  0  0  0  0  0  0  0  0  0  0
  2  1  1  6
  2  3  1  0
  4  2  1  0
  5  4  1  0
  5  6  1  1
  7  9  1  0
  7  5  1  0
  8  7  2  0
  9 13  1  0
 10 11  1  0
 10  9  1  0
 11 12  1  0
 12 13  1  0
 13 14  1  1
 14 19  1  0
 14 15  2  0
 16 17  1  0
 18 17  1  1
 18 20  1  0
 19 18  1  0
 20 22  1  0
 21 20  2  0
M  END
$$$$
