LPS.pdb
     RDKit          3D

 22 22  0  0  1  0  0  0  0  0999 V2000
    5.8314  -12.2792   26.0038 C   0  0  0  0  0  0  0  0  0  0  0  0
    6.8989  -13.1412   26.6911 C   0  0  2  0  0  0  0  0  0  0  0  0
    7.6984  -12.2304   27.5742 C   0  0  0  0  0  0  0  0  0  0  0  0
    7.6896  -13.9002   25.6698 C   0  0  0  0  0  0  0  0  0  0  0  0
    6.9484  -15.1679   25.2802 C   0  0  2  0  0  0  0  0  0  0  0  0
    6.5258  -15.8647   26.4170 N   0  0  0  0  0  0  0  0  0  0  0  0
    7.6950  -15.8935   24.2400 C   0  0  0  0  0  0  0  0  0  0  0  0
    8.4776  -16.8118   24.6780 O   0  0  0  0  0  0  0  0  0  0  0  0
    7.6057  -15.6563   22.8767 N   0  0  0  0  0  0  0  0  0  0  0  0
    6.4048  -15.2641   22.1073 C   0  0  0  0  0  0  0  0  0  0  0  0
    6.9552  -13.9883   21.4194 C   0  0  0  0  0  0  0  0  0  0  0  0
    8.4830  -14.1613   21.4155 C   0  0  0  0  0  0  0  0  0  0  0  0
    8.5917  -15.6175   21.8166 C   0  0  1  0  0  0  0  0  0  0  0  0
    9.9020  -16.1446   22.0262 C   0  0  0  0  0  0  0  0  0  0  0  0
   10.8311  -15.4770   22.5290 O   0  0  0  0  0  0  0  0  0  0  0  0
   10.5290  -20.0680   21.7159 O   0  0  0  0  0  0  0  0  0  0  0  0
   11.5238  -19.3975   22.3935 C   0  0  0  0  0  0  0  0  0  0  0  0
   11.6371  -17.9756   21.8263 C   0  0  2  0  0  0  0  0  0  0  0  0
   10.2871  -17.4938   21.6808 N   0  0  0  0  0  0  0  0  0  0  0  0
   12.3980  -17.9562   20.5745 C   0  0  0  0  0  0  0  0  0  0  0  0
   11.8551  -17.6734   19.4777 O   0  0  0  0  0  0  0  0  0  0  0  0
   13.7512  -18.2526   20.5682 O   0  0  0  0  0  0  0  0  0  0  0  0
  2  1  1  6
  2  3  1  0
  4  2  1  0
  5  4  1  0
  5  6  1  1
  7  9  1  0
  7  5  1  0
  8  7  2  0
  9 13  1  0
 10 11  1  0
 10  9  1  0
 11 12  1  0
 12 13  1  0
 13 14  1  1
 14 19  1  0
 14 15  2  0
 16 17  1  0
 18 17  1  6
 18 20  1  0
 19 18  1  0
 20 22  1  0
 21 20  2  0
M  END
$$$$
