LPS.pdb
     RDKit          3D

 22 22  0  0  1  0  0  0  0  0999 V2000
    4.1556  -16.9228   21.2297 C   0  0  0  0  0  0  0  0  0  0  0  0
    5.5987  -16.4165   21.1036 C   0  0  2  0  0  0  0  0  0  0  0  0
    6.3517  -17.4303   20.2951 C   0  0  0  0  0  0  0  0  0  0  0  0
    6.1675  -16.1270   22.4591 C   0  0  0  0  0  0  0  0  0  0  0  0
    7.3648  -15.2008   22.3301 C   0  0  2  0  0  0  0  0  0  0  0  0
    8.0525  -15.4426   21.1363 N   0  0  0  0  0  0  0  0  0  0  0  0
    8.1221  -15.1709   23.5916 C   0  0  0  0  0  0  0  0  0  0  0  0
    8.8643  -16.1971   23.8007 O   0  0  0  0  0  0  0  0  0  0  0  0
    8.0850  -14.1455   24.5244 N   0  0  0  0  0  0  0  0  0  0  0  0
    7.8432  -12.7079   24.2737 C   0  0  0  0  0  0  0  0  0  0  0  0
    6.6626  -12.4793   25.2525 C   0  0  0  0  0  0  0  0  0  0  0  0
    6.7880  -13.5967   26.3011 C   0  0  0  0  0  0  0  0  0  0  0  0
    8.1681  -14.1251   25.9701 C   0  0  1  0  0  0  0  0  0  0  0  0
    8.6199  -15.2748   26.6861 C   0  0  0  0  0  0  0  0  0  0  0  0
    7.8566  -16.1989   27.0400 O   0  0  0  0  0  0  0  0  0  0  0  0
   12.5385  -16.4913   26.8505 O   0  0  0  0  0  0  0  0  0  0  0  0
   11.4814  -17.3459   27.0745 C   0  0  0  0  0  0  0  0  0  0  0  0
   10.4087  -16.6045   27.8844 C   0  0  2  0  0  0  0  0  0  0  0  0
    9.9957  -15.4874   27.0736 N   0  0  0  0  0  0  0  0  0  0  0  0
   10.9093  -16.2100   29.2036 C   0  0  0  0  0  0  0  0  0  0  0  0
   10.9990  -15.0033   29.5405 O   0  0  0  0  0  0  0  0  0  0  0  0
   11.3009  -17.1686   30.1238 O   0  0  0  0  0  0  0  0  0  0  0  0
  2  1  1  1
  2  3  1  0
  4  2  1  0
  5  4  1  0
  5  6  1  6
  7  9  1  0
  7  5  1  0
  8  7  2  0
  9 13  1  0
 10 11  1  0
 10  9  1  0
 11 12  1  0
 12 13  1  0
 13 14  1  1
 14 19  1  0
 14 15  2  0
 16 17  1  0
 18 17  1  6
 18 20  1  0
 19 18  1  0
 20 22  1  0
 21 20  2  0
M  END
$$$$
