LPS.pdb
     RDKit          3D

 22 22  0  0  1  0  0  0  0  0999 V2000
    8.4449  -12.6734   27.2142 C   0  0  0  0  0  0  0  0  0  0  0  0
    7.4476  -13.3553   26.2680 C   0  0  2  0  0  0  0  0  0  0  0  0
    6.2409  -12.4689   26.1874 C   0  0  0  0  0  0  0  0  0  0  0  0
    7.1824  -14.7596   26.7179 C   0  0  0  0  0  0  0  0  0  0  0  0
    6.6782  -15.5899   25.5498 C   0  0  2  0  0  0  0  0  0  0  0  0
    5.9692  -16.7066   26.0045 N   0  0  0  0  0  0  0  0  0  0  0  0
    7.7532  -15.7850   24.5638 C   0  0  0  0  0  0  0  0  0  0  0  0
    8.8552  -16.2316   25.0474 O   0  0  0  0  0  0  0  0  0  0  0  0
    7.6503  -15.5288   23.2050 N   0  0  0  0  0  0  0  0  0  0  0  0
    6.4143  -15.3393   22.4149 C   0  0  0  0  0  0  0  0  0  0  0  0
    6.7371  -13.9653   21.7729 C   0  0  0  0  0  0  0  0  0  0  0  0
    8.2705  -13.8577   21.8039 C   0  0  0  0  0  0  0  0  0  0  0  0
    8.6345  -15.2809   22.1718 C   0  0  1  0  0  0  0  0  0  0  0  0
   10.0143  -15.5670   22.4018 C   0  0  0  0  0  0  0  0  0  0  0  0
   10.8880  -15.4608   21.5145 O   0  0  0  0  0  0  0  0  0  0  0  0
   11.2538  -17.1858   25.9482 O   0  0  0  0  0  0  0  0  0  0  0  0
   12.1304  -16.2603   25.4255 C   0  0  0  0  0  0  0  0  0  0  0  0
   11.9476  -16.2110   23.9022 C   0  0  2  0  0  0  0  0  0  0  0  0
   10.5398  -16.0063   23.6742 N   0  0  0  0  0  0  0  0  0  0  0  0
   12.4695  -17.4198   23.2596 C   0  0  0  0  0  0  0  0  0  0  0  0
   11.7117  -18.2396   22.6839 O   0  0  0  0  0  0  0  0  0  0  0  0
   13.8275  -17.6929   23.2706 O   0  0  0  0  0  0  0  0  0  0  0  0
  2  1  1  1
  2  3  1  0
  4  2  1  0
  5  4  1  0
  5  6  1  1
  7  9  1  0
  7  5  1  0
  8  7  2  0
  9 13  1  0
 10 11  1  0
 10  9  1  0
 11 12  1  0
 12 13  1  0
 13 14  1  1
 14 19  1  0
 14 15  2  0
 16 17  1  0
 18 17  1  1
 18 20  1  0
 19 18  1  0
 20 22  1  0
 21 20  2  0
M  END
$$$$
