LPS.pdb
     RDKit          3D

 22 22  0  0  1  0  0  0  0  0999 V2000
    5.7369  -12.3856   25.9447 C   0  0  0  0  0  0  0  0  0  0  0  0
    6.8065  -13.0520   26.8204 C   0  0  2  0  0  0  0  0  0  0  0  0
    7.4789  -11.9617   27.5999 C   0  0  0  0  0  0  0  0  0  0  0  0
    7.7167  -13.8928   25.9783 C   0  0  0  0  0  0  0  0  0  0  0  0
    6.9365  -15.0422   25.3632 C   0  0  2  0  0  0  0  0  0  0  0  0
    6.2564  -15.7640   26.3497 N   0  0  0  0  0  0  0  0  0  0  0  0
    7.7800  -15.7729   24.4039 C   0  0  0  0  0  0  0  0  0  0  0  0
    8.6243  -16.5818   24.9336 O   0  0  0  0  0  0  0  0  0  0  0  0
    7.7183  -15.6468   23.0244 N   0  0  0  0  0  0  0  0  0  0  0  0
    6.5332  -15.3202   22.2017 C   0  0  0  0  0  0  0  0  0  0  0  0
    7.0973  -14.1031   21.4242 C   0  0  0  0  0  0  0  0  0  0  0  0
    8.6248  -14.2732   21.4651 C   0  0  0  0  0  0  0  0  0  0  0  0
    8.7256  -15.6920   21.9848 C   0  0  1  0  0  0  0  0  0  0  0  0
   10.0315  -16.1981   22.2627 C   0  0  0  0  0  0  0  0  0  0  0  0
   10.8952  -15.5452   22.8868 O   0  0  0  0  0  0  0  0  0  0  0  0
   11.1745  -19.7179   23.4236 O   0  0  0  0  0  0  0  0  0  0  0  0
   11.7992  -19.4571   22.2237 C   0  0  0  0  0  0  0  0  0  0  0  0
   11.8525  -17.9375   22.0136 C   0  0  2  0  0  0  0  0  0  0  0  0
   10.4868  -17.5072   21.8539 N   0  0  0  0  0  0  0  0  0  0  0  0
   12.7090  -17.5822   20.8793 C   0  0  0  0  0  0  0  0  0  0  0  0
   12.2793  -17.5968   19.6991 O   0  0  0  0  0  0  0  0  0  0  0  0
   14.0298  -17.2168   21.0815 O   0  0  0  0  0  0  0  0  0  0  0  0
  2  1  1  6
  2  3  1  0
  4  2  1  0
  5  4  1  0
  5  6  1  1
  7  9  1  0
  7  5  1  0
  8  7  2  0
  9 13  1  0
 10 11  1  0
 10  9  1  0
 11 12  1  0
 12 13  1  0
 13 14  1  1
 14 19  1  0
 14 15  2  0
 16 17  1  0
 18 17  1  6
 18 20  1  0
 19 18  1  0
 20 22  1  0
 21 20  2  0
M  END
$$$$
