LPS.pdb
     RDKit          3D

 22 22  0  0  1  0  0  0  0  0999 V2000
    5.5265  -12.3727   25.9589 C   0  0  0  0  0  0  0  0  0  0  0  0
    6.5776  -13.0844   26.8211 C   0  0  2  0  0  0  0  0  0  0  0  0
    7.2318  -12.0370   27.6716 C   0  0  0  0  0  0  0  0  0  0  0  0
    7.5068  -13.8795   25.9556 C   0  0  0  0  0  0  0  0  0  0  0  0
    6.7777  -15.0838   25.3846 C   0  0  2  0  0  0  0  0  0  0  0  0
    6.1162  -15.7885   26.3958 N   0  0  0  0  0  0  0  0  0  0  0  0
    7.6583  -15.8217   24.4648 C   0  0  0  0  0  0  0  0  0  0  0  0
    8.3749  -16.7322   25.0171 O   0  0  0  0  0  0  0  0  0  0  0  0
    7.7538  -15.6033   23.0989 N   0  0  0  0  0  0  0  0  0  0  0  0
    6.6587  -15.2749   22.1603 C   0  0  0  0  0  0  0  0  0  0  0  0
    7.2447  -13.9823   21.5359 C   0  0  0  0  0  0  0  0  0  0  0  0
    8.7636  -14.0847   21.7518 C   0  0  0  0  0  0  0  0  0  0  0  0
    8.8782  -15.5301   22.1890 C   0  0  1  0  0  0  0  0  0  0  0  0
   10.1672  -15.9940   22.5913 C   0  0  0  0  0  0  0  0  0  0  0  0
   10.9654  -15.2957   23.2524 O   0  0  0  0  0  0  0  0  0  0  0  0
   11.2141  -19.8073   21.8164 O   0  0  0  0  0  0  0  0  0  0  0  0
   11.9154  -19.2546   22.8656 C   0  0  0  0  0  0  0  0  0  0  0  0
   12.0014  -17.7361   22.6579 C   0  0  2  0  0  0  0  0  0  0  0  0
   10.6791  -17.3084   22.2778 N   0  0  0  0  0  0  0  0  0  0  0  0
   13.0292  -17.3862   21.6743 C   0  0  0  0  0  0  0  0  0  0  0  0
   12.7304  -16.9308   20.5425 O   0  0  0  0  0  0  0  0  0  0  0  0
   14.3725  -17.5505   21.9706 O   0  0  0  0  0  0  0  0  0  0  0  0
  2  1  1  6
  2  3  1  0
  4  2  1  0
  5  4  1  0
  5  6  1  1
  7  9  1  0
  7  5  1  0
  8  7  2  0
  9 13  1  0
 10 11  1  0
 10  9  1  0
 11 12  1  0
 12 13  1  0
 13 14  1  1
 14 19  1  0
 14 15  2  0
 16 17  1  0
 18 17  1  6
 18 20  1  0
 19 18  1  0
 20 22  1  0
 21 20  2  0
M  END
$$$$
