LPS.pdb
     RDKit          3D

 22 22  0  0  1  0  0  0  0  0999 V2000
    5.4973  -12.2544   25.7860 C   0  0  0  0  0  0  0  0  0  0  0  0
    6.4130  -12.9786   26.7819 C   0  0  2  0  0  0  0  0  0  0  0  0
    6.9861  -11.9342   27.6925 C   0  0  0  0  0  0  0  0  0  0  0  0
    7.4195  -13.8127   26.0497 C   0  0  0  0  0  0  0  0  0  0  0  0
    6.7281  -14.9896   25.3827 C   0  0  2  0  0  0  0  0  0  0  0  0
    5.9188  -15.6725   26.2967 N   0  0  0  0  0  0  0  0  0  0  0  0
    7.6930  -15.7562   24.5782 C   0  0  0  0  0  0  0  0  0  0  0  0
    8.4042  -16.5941   25.2415 O   0  0  0  0  0  0  0  0  0  0  0  0
    7.8699  -15.6344   23.2084 N   0  0  0  0  0  0  0  0  0  0  0  0
    6.8303  -15.3966   22.1833 C   0  0  0  0  0  0  0  0  0  0  0  0
    7.4334  -14.1404   21.5034 C   0  0  0  0  0  0  0  0  0  0  0  0
    8.9372  -14.1960   21.8184 C   0  0  0  0  0  0  0  0  0  0  0  0
    9.0475  -15.6037   22.3658 C   0  0  1  0  0  0  0  0  0  0  0  0
   10.3161  -16.0112   22.8787 C   0  0  0  0  0  0  0  0  0  0  0  0
   11.0054  -15.2947   23.6359 O   0  0  0  0  0  0  0  0  0  0  0  0
   11.5303  -19.5452   24.0699 O   0  0  0  0  0  0  0  0  0  0  0  0
   12.3580  -19.1277   23.0508 C   0  0  0  0  0  0  0  0  0  0  0  0
   12.2863  -17.5976   22.9505 C   0  0  2  0  0  0  0  0  0  0  0  0
   10.9305  -17.2838   22.5773 N   0  0  0  0  0  0  0  0  0  0  0  0
   13.2821  -17.0739   22.0122 C   0  0  0  0  0  0  0  0  0  0  0  0
   13.0496  -16.9952   20.7804 O   0  0  0  0  0  0  0  0  0  0  0  0
   14.5200  -16.6473   22.4646 O   0  0  0  0  0  0  0  0  0  0  0  0
  2  1  1  6
  2  3  1  0
  4  2  1  0
  5  4  1  0
  5  6  1  1
  7  9  1  0
  7  5  1  0
  8  7  2  0
  9 13  1  0
 10 11  1  0
 10  9  1  0
 11 12  1  0
 12 13  1  0
 13 14  1  1
 14 19  1  0
 14 15  2  0
 16 17  1  0
 18 17  1  6
 18 20  1  0
 19 18  1  0
 20 22  1  0
 21 20  2  0
M  END
$$$$
