LPS.pdb
     RDKit          3D

 22 22  0  0  1  0  0  0  0  0999 V2000
    5.9133  -12.2711   25.8918 C   0  0  0  0  0  0  0  0  0  0  0  0
    6.9648  -13.0218   26.7198 C   0  0  2  0  0  0  0  0  0  0  0  0
    7.7253  -11.9933   27.5021 C   0  0  0  0  0  0  0  0  0  0  0  0
    7.7968  -13.8963   25.8322 C   0  0  0  0  0  0  0  0  0  0  0  0
    6.9657  -15.0661   25.3334 C   0  0  2  0  0  0  0  0  0  0  0  0
    6.3382  -15.7190   26.3994 N   0  0  0  0  0  0  0  0  0  0  0  0
    7.7394  -15.8642   24.3689 C   0  0  0  0  0  0  0  0  0  0  0  0
    8.4451  -16.8027   24.8873 O   0  0  0  0  0  0  0  0  0  0  0  0
    7.7491  -15.6728   22.9955 N   0  0  0  0  0  0  0  0  0  0  0  0
    6.6134  -15.2816   22.1324 C   0  0  0  0  0  0  0  0  0  0  0  0
    7.2400  -14.0427   21.4422 C   0  0  0  0  0  0  0  0  0  0  0  0
    8.7598  -14.2488   21.5496 C   0  0  0  0  0  0  0  0  0  0  0  0
    8.8059  -15.6923   22.0054 C   0  0  1  0  0  0  0  0  0  0  0  0
   10.0857  -16.2401   22.3224 C   0  0  0  0  0  0  0  0  0  0  0  0
   10.9304  -15.6365   23.0182 O   0  0  0  0  0  0  0  0  0  0  0  0
   11.0651  -19.9869   21.0564 O   0  0  0  0  0  0  0  0  0  0  0  0
   11.7392  -19.5672   22.1823 C   0  0  0  0  0  0  0  0  0  0  0  0
   11.8585  -18.0372   22.1460 C   0  0  2  0  0  0  0  0  0  0  0  0
   10.5342  -17.5387   21.8747 N   0  0  0  0  0  0  0  0  0  0  0  0
   12.8552  -17.5996   21.1654 C   0  0  0  0  0  0  0  0  0  0  0  0
   12.5197  -17.0983   20.0637 O   0  0  0  0  0  0  0  0  0  0  0  0
   14.2086  -17.7291   21.4311 O   0  0  0  0  0  0  0  0  0  0  0  0
  2  1  1  6
  2  3  1  0
  4  2  1  0
  5  4  1  0
  5  6  1  1
  7  9  1  0
  7  5  1  0
  8  7  2  0
  9 13  1  0
 10 11  1  0
 10  9  1  0
 11 12  1  0
 12 13  1  0
 13 14  1  1
 14 19  1  0
 14 15  2  0
 16 17  1  0
 18 17  1  6
 18 20  1  0
 19 18  1  0
 20 22  1  0
 21 20  2  0
M  END
$$$$
