SEM.pdb
     RDKit          3D

 24 23  0  0  1  0  0  0  0  0999 V2000
   10.2509  -12.4279   20.0146 O   0  0  0  0  0  0  0  0  0  0  0  0
   10.3313  -13.3444   18.9845 C   0  0  0  0  0  0  0  0  0  0  0  0
    8.9908  -13.9351   18.6331 C   0  0  2  0  0  0  0  0  0  0  0  0
    8.0965  -12.9605   18.0816 N   0  0  0  0  0  0  0  0  0  0  0  0
    8.4226  -14.5515   19.8814 C   0  0  0  0  0  0  0  0  0  0  0  0
    7.2235  -14.3081   20.1383 O   0  0  0  0  0  0  0  0  0  0  0  0
    9.1945  -15.3619   20.7226 N   0  0  0  0  0  0  0  0  0  0  0  0
    8.5902  -16.0908   21.8535 C   0  0  1  0  0  0  0  0  0  0  0  0
    8.5982  -17.5257   21.4838 C   0  0  0  0  0  0  0  0  0  0  0  0
    9.8865  -18.1906   21.2081 C   0  0  0  0  0  0  0  0  0  0  0  0
    9.7779  -19.6459   20.9371 C   0  0  0  0  0  0  0  0  0  0  0  0
    9.6000  -20.4681   21.8638 O   0  0  0  0  0  0  0  0  0  0  0  0
    9.2398  -15.7111   23.1070 C   0  0  0  0  0  0  0  0  0  0  0  0
   10.2645  -16.3990   23.4846 O   0  0  0  0  0  0  0  0  0  0  0  0
    9.8691  -20.1602   19.6413 O   0  0  0  0  0  0  0  0  0  0  0  0
    7.3137  -11.9639   27.9799 C   0  0  0  0  0  0  0  0  0  0  0  0
    6.3973  -11.9205   26.4662 S   0  0  0  0  0  0  0  0  0  0  0  0
    6.7465  -13.1851   25.2594 C   0  0  0  0  0  0  0  0  0  0  0  0
    7.2559  -14.4789   25.7880 C   0  0  0  0  0  0  0  0  0  0  0  0
    8.6538  -14.8531   25.3973 C   0  0  2  0  0  0  0  0  0  0  0  0
    8.8660  -14.6564   23.9628 N   0  0  0  0  0  0  0  0  0  0  0  0
    9.0493  -16.2057   25.8127 C   0  0  0  0  0  0  0  0  0  0  0  0
    9.9169  -16.5591   26.8052 O   0  0  0  0  0  0  0  0  0  0  0  0
    8.5153  -17.1844   25.1664 O   0  0  0  0  0  0  0  0  0  0  0  0
  2  3  1  0
  2  1  1  0
  3  4  1  1
  5  6  2  0
  5  3  1  0
  7  5  1  0
  8  7  1  0
  8 13  1  0
  8  9  1  6
 10 11  1  0
 10  9  1  0
 11 15  1  0
 12 11  2  0
 13 21  1  0
 14 13  2  0
 17 16  1  0
 18 17  1  0
 20 19  1  6
 19 18  1  0
 20 22  1  0
 21 20  1  0
 22 24  2  0
 22 23  1  0
M  END
$$$$
