SEM.pdb
     RDKit          3D

 24 23  0  0  1  0  0  0  0  0999 V2000
    5.8407  -15.5210   20.9900 O   0  0  0  0  0  0  0  0  0  0  0  0
    5.8748  -16.5132   20.0298 C   0  0  0  0  0  0  0  0  0  0  0  0
    7.2703  -16.7849   19.5315 C   0  0  2  0  0  0  0  0  0  0  0  0
    7.3144  -17.8872   18.6169 N   0  0  0  0  0  0  0  0  0  0  0  0
    8.1419  -17.0364   20.7307 C   0  0  0  0  0  0  0  0  0  0  0  0
    8.0244  -18.1465   21.2937 O   0  0  0  0  0  0  0  0  0  0  0  0
    9.0461  -16.0766   21.2013 N   0  0  0  0  0  0  0  0  0  0  0  0
    9.9002  -16.3363   22.3754 C   0  0  1  0  0  0  0  0  0  0  0  0
   11.2969  -16.3726   21.8819 C   0  0  0  0  0  0  0  0  0  0  0  0
   12.3948  -16.5872   22.8443 C   0  0  0  0  0  0  0  0  0  0  0  0
   13.7534  -16.4611   22.2601 C   0  0  0  0  0  0  0  0  0  0  0  0
   14.7079  -16.0027   22.9275 O   0  0  0  0  0  0  0  0  0  0  0  0
    9.5860  -15.3954   23.4494 C   0  0  0  0  0  0  0  0  0  0  0  0
    8.9850  -14.2987   23.1302 O   0  0  0  0  0  0  0  0  0  0  0  0
   14.0259  -16.8466   20.9452 O   0  0  0  0  0  0  0  0  0  0  0  0
    6.4905  -11.4117   26.6167 C   0  0  0  0  0  0  0  0  0  0  0  0
    7.3810  -12.9326   26.4532 S   0  0  0  0  0  0  0  0  0  0  0  0
    6.6708  -14.1907   25.4090 C   0  0  0  0  0  0  0  0  0  0  0  0
    7.4685  -15.4347   25.2389 C   0  0  0  0  0  0  0  0  0  0  0  0
    8.8372  -15.4363   25.8500 C   0  0  2  0  0  0  0  0  0  0  0  0
    9.8695  -15.5573   24.8198 N   0  0  0  0  0  0  0  0  0  0  0  0
    9.0197  -16.4411   26.9061 C   0  0  0  0  0  0  0  0  0  0  0  0
    9.6402  -17.6531   26.8136 O   0  0  0  0  0  0  0  0  0  0  0  0
    8.5387  -16.1497   28.0657 O   0  0  0  0  0  0  0  0  0  0  0  0
  2  3  1  0
  2  1  1  0
  3  4  1  6
  5  6  2  0
  5  3  1  0
  7  5  1  0
  8  7  1  0
  8 13  1  0
  8  9  1  6
 10 11  1  0
 10  9  1  0
 11 15  1  0
 12 11  2  0
 13 21  1  0
 14 13  2  0
 17 16  1  0
 18 17  1  0
 20 19  1  6
 19 18  1  0
 20 22  1  0
 21 20  1  0
 22 24  2  0
 22 23  1  0
M  END
$$$$
