SEM.pdb
     RDKit          3D

 24 23  0  0  1  0  0  0  0  0999 V2000
    6.3765  -18.9330   19.1864 O   0  0  0  0  0  0  0  0  0  0  0  0
    7.1340  -17.9928   18.5158 C   0  0  0  0  0  0  0  0  0  0  0  0
    7.3319  -16.7335   19.3185 C   0  0  2  0  0  0  0  0  0  0  0  0
    8.0571  -15.7347   18.5904 N   0  0  0  0  0  0  0  0  0  0  0  0
    8.0460  -17.1090   20.5875 C   0  0  0  0  0  0  0  0  0  0  0  0
    7.4623  -17.9091   21.3505 O   0  0  0  0  0  0  0  0  0  0  0  0
    9.3067  -16.5907   20.9070 N   0  0  0  0  0  0  0  0  0  0  0  0
    9.9886  -16.9494   22.1646 C   0  0  1  0  0  0  0  0  0  0  0  0
   11.4231  -17.1182   21.8340 C   0  0  0  0  0  0  0  0  0  0  0  0
   12.3965  -17.3049   22.9273 C   0  0  0  0  0  0  0  0  0  0  0  0
   13.8134  -17.3345   22.4861 C   0  0  0  0  0  0  0  0  0  0  0  0
   14.5451  -16.3235   22.5816 O   0  0  0  0  0  0  0  0  0  0  0  0
    9.6444  -15.9960   23.2182 C   0  0  0  0  0  0  0  0  0  0  0  0
    9.5906  -14.7458   22.9025 O   0  0  0  0  0  0  0  0  0  0  0  0
   14.3906  -18.4869   21.9471 O   0  0  0  0  0  0  0  0  0  0  0  0
    6.0316  -11.1093   26.3145 C   0  0  0  0  0  0  0  0  0  0  0  0
    7.2235  -12.3959   26.0764 S   0  0  0  0  0  0  0  0  0  0  0  0
    6.6159  -14.0687   25.9767 C   0  0  0  0  0  0  0  0  0  0  0  0
    7.3614  -14.9890   25.0767 C   0  0  0  0  0  0  0  0  0  0  0  0
    8.7695  -15.3137   25.4752 C   0  0  2  0  0  0  0  0  0  0  0  0
    9.3572  -16.2967   24.5641 N   0  0  0  0  0  0  0  0  0  0  0  0
    8.9131  -15.7342   26.8755 C   0  0  0  0  0  0  0  0  0  0  0  0
    9.0846  -14.9451   27.9757 O   0  0  0  0  0  0  0  0  0  0  0  0
    8.8722  -17.0023   27.1017 O   0  0  0  0  0  0  0  0  0  0  0  0
  2  3  1  0
  2  1  1  0
  3  4  1  6
  5  6  2  0
  5  3  1  0
  7  5  1  0
  8  7  1  0
  8 13  1  0
  8  9  1  6
 10 11  1  0
 10  9  1  0
 11 15  1  0
 12 11  2  0
 13 21  1  0
 14 13  2  0
 17 16  1  0
 18 17  1  0
 20 19  1  6
 19 18  1  0
 20 22  1  0
 21 20  1  0
 22 24  2  0
 22 23  1  0
M  END
$$$$
