SEM.pdb
     RDKit          3D

 24 23  0  0  1  0  0  0  0  0999 V2000
    8.1507  -13.6261   19.7267 O   0  0  0  0  0  0  0  0  0  0  0  0
    9.0249  -14.4438   19.0379 C   0  0  0  0  0  0  0  0  0  0  0  0
    8.5442  -15.8697   18.9657 C   0  0  2  0  0  0  0  0  0  0  0  0
    7.2246  -15.9699   18.4158 N   0  0  0  0  0  0  0  0  0  0  0  0
    8.6004  -16.4410   20.3555 C   0  0  0  0  0  0  0  0  0  0  0  0
    7.5270  -16.4813   20.9953 O   0  0  0  0  0  0  0  0  0  0  0  0
    9.7959  -16.9083   20.9145 N   0  0  0  0  0  0  0  0  0  0  0  0
    9.8573  -17.3850   22.3089 C   0  0  1  0  0  0  0  0  0  0  0  0
   11.0269  -18.2907   22.3946 C   0  0  0  0  0  0  0  0  0  0  0  0
   11.3576  -18.9186   23.6885 C   0  0  0  0  0  0  0  0  0  0  0  0
   12.5240  -19.8353   23.6429 C   0  0  0  0  0  0  0  0  0  0  0  0
   12.5822  -20.7724   22.8151 O   0  0  0  0  0  0  0  0  0  0  0  0
    9.8075  -16.2542   23.2343 C   0  0  0  0  0  0  0  0  0  0  0  0
   10.5549  -15.2340   22.9764 O   0  0  0  0  0  0  0  0  0  0  0  0
   13.6038  -19.6937   24.5180 O   0  0  0  0  0  0  0  0  0  0  0  0
    5.4093  -11.4675   27.3060 C   0  0  0  0  0  0  0  0  0  0  0  0
    6.2711  -11.9583   25.8400 S   0  0  0  0  0  0  0  0  0  0  0  0
    7.7195  -12.9776   26.0424 C   0  0  0  0  0  0  0  0  0  0  0  0
    7.8406  -14.1418   25.1244 C   0  0  0  0  0  0  0  0  0  0  0  0
    9.0715  -14.9836   25.2761 C   0  0  2  0  0  0  0  0  0  0  0  0
    9.0177  -16.1517   24.3962 N   0  0  0  0  0  0  0  0  0  0  0  0
    9.3617  -15.3749   26.6621 C   0  0  0  0  0  0  0  0  0  0  0  0
    9.8010  -14.5836   27.6835 O   0  0  0  0  0  0  0  0  0  0  0  0
    9.1806  -16.6160   26.9586 O   0  0  0  0  0  0  0  0  0  0  0  0
  2  3  1  0
  2  1  1  0
  3  4  1  1
  5  6  2  0
  5  3  1  0
  7  5  1  0
  8  7  1  0
  8 13  1  0
  8  9  1  6
 10 11  1  0
 10  9  1  0
 11 15  1  0
 12 11  2  0
 13 21  1  0
 14 13  2  0
 17 16  1  0
 18 17  1  0
 20 19  1  1
 19 18  1  0
 20 22  1  0
 21 20  1  0
 22 24  2  0
 22 23  1  0
M  END
$$$$
