SEM.pdb
     RDKit          3D

 24 23  0  0  1  0  0  0  0  0999 V2000
    8.8250  -13.0159   16.6600 O   0  0  0  0  0  0  0  0  0  0  0  0
    8.3423  -13.6675   17.7780 C   0  0  0  0  0  0  0  0  0  0  0  0
    8.5101  -15.1621   17.6910 C   0  0  2  0  0  0  0  0  0  0  0  0
    7.7750  -15.7276   16.5985 N   0  0  0  0  0  0  0  0  0  0  0  0
    8.0712  -15.7477   19.0046 C   0  0  0  0  0  0  0  0  0  0  0  0
    6.8461  -15.9477   19.1545 O   0  0  0  0  0  0  0  0  0  0  0  0
    8.9860  -16.0574   20.0180 N   0  0  0  0  0  0  0  0  0  0  0  0
    8.5509  -16.6829   21.2809 C   0  0  1  0  0  0  0  0  0  0  0  0
    9.1428  -18.0411   21.3054 C   0  0  0  0  0  0  0  0  0  0  0  0
   10.6089  -18.1888   21.2252 C   0  0  0  0  0  0  0  0  0  0  0  0
   11.0843  -19.5946   21.2537 C   0  0  0  0  0  0  0  0  0  0  0  0
   10.9098  -20.3195   22.2590 O   0  0  0  0  0  0  0  0  0  0  0  0
    8.8375  -15.7992   22.4099 C   0  0  0  0  0  0  0  0  0  0  0  0
    9.9319  -15.1159   22.3748 O   0  0  0  0  0  0  0  0  0  0  0  0
   11.7448  -20.1684   20.1646 O   0  0  0  0  0  0  0  0  0  0  0  0
    6.0035  -11.2153   28.2050 C   0  0  0  0  0  0  0  0  0  0  0  0
    6.0346  -11.8410   26.5496 S   0  0  0  0  0  0  0  0  0  0  0  0
    7.4497  -12.8110   26.0657 C   0  0  0  0  0  0  0  0  0  0  0  0
    7.2463  -13.7566   24.9355 C   0  0  0  0  0  0  0  0  0  0  0  0
    8.3971  -14.6596   24.6082 C   0  0  2  0  0  0  0  0  0  0  0  0
    8.0353  -15.6053   23.5515 N   0  0  0  0  0  0  0  0  0  0  0  0
    8.9625  -15.3543   25.7726 C   0  0  0  0  0  0  0  0  0  0  0  0
    9.8069  -14.8535   26.7206 O   0  0  0  0  0  0  0  0  0  0  0  0
    8.6238  -16.5883   25.9257 O   0  0  0  0  0  0  0  0  0  0  0  0
  2  3  1  0
  2  1  1  0
  3  4  1  6
  5  6  2  0
  5  3  1  0
  7  5  1  0
  8  7  1  0
  8 13  1  0
  8  9  1  1
 10 11  1  0
 10  9  1  0
 11 15  1  0
 12 11  2  0
 13 21  1  0
 14 13  2  0
 17 16  1  0
 18 17  1  0
 20 19  1  1
 19 18  1  0
 20 22  1  0
 21 20  1  0
 22 24  2  0
 22 23  1  0
M  END
$$$$
