SEM.pdb
     RDKit          3D

 24 23  0  0  1  0  0  0  0  0999 V2000
    6.6871  -14.1525   21.2009 O   0  0  0  0  0  0  0  0  0  0  0  0
    7.3983  -14.6556   20.1292 C   0  0  0  0  0  0  0  0  0  0  0  0
    7.4400  -16.1615   20.1215 C   0  0  2  0  0  0  0  0  0  0  0  0
    6.1299  -16.7400   20.0701 N   0  0  0  0  0  0  0  0  0  0  0  0
    8.1831  -16.6035   21.3518 C   0  0  0  0  0  0  0  0  0  0  0  0
    7.5019  -17.0879   22.2817 O   0  0  0  0  0  0  0  0  0  0  0  0
    9.5736  -16.4816   21.4588 N   0  0  0  0  0  0  0  0  0  0  0  0
   10.2991  -16.9748   22.6445 C   0  0  1  0  0  0  0  0  0  0  0  0
   11.6911  -17.2367   22.2092 C   0  0  0  0  0  0  0  0  0  0  0  0
   12.7051  -17.5967   23.2191 C   0  0  0  0  0  0  0  0  0  0  0  0
   14.0469  -17.8948   22.6589 C   0  0  0  0  0  0  0  0  0  0  0  0
   15.0494  -17.2160   22.9768 O   0  0  0  0  0  0  0  0  0  0  0  0
   10.1024  -16.0670   23.7736 C   0  0  0  0  0  0  0  0  0  0  0  0
   10.4323  -14.8295   23.6136 O   0  0  0  0  0  0  0  0  0  0  0  0
   14.2497  -18.9415   21.7561 O   0  0  0  0  0  0  0  0  0  0  0  0
    6.6980  -11.4342   25.4387 C   0  0  0  0  0  0  0  0  0  0  0  0
    6.7022  -12.4576   26.8829 S   0  0  0  0  0  0  0  0  0  0  0  0
    8.0776  -13.5715   27.0948 C   0  0  0  0  0  0  0  0  0  0  0  0
    8.2974  -14.5629   26.0078 C   0  0  0  0  0  0  0  0  0  0  0  0
    9.5132  -15.4304   26.1342 C   0  0  2  0  0  0  0  0  0  0  0  0
    9.5805  -16.3990   25.0392 N   0  0  0  0  0  0  0  0  0  0  0  0
    9.6422  -16.0933   27.4390 C   0  0  0  0  0  0  0  0  0  0  0  0
    9.9243  -15.5229   28.6462 O   0  0  0  0  0  0  0  0  0  0  0  0
    9.4681  -17.3701   27.4544 O   0  0  0  0  0  0  0  0  0  0  0  0
  2  3  1  0
  2  1  1  0
  3  4  1  1
  5  6  2  0
  5  3  1  0
  7  5  1  0
  8  7  1  0
  8 13  1  0
  8  9  1  6
 10 11  1  0
 10  9  1  0
 11 15  1  0
 12 11  2  0
 13 21  1  0
 14 13  2  0
 17 16  1  0
 18 17  1  0
 20 19  1  1
 19 18  1  0
 20 22  1  0
 21 20  1  0
 22 24  2  0
 22 23  1  0
M  END
$$$$
