SEM.pdb
     RDKit          3D

 24 23  0  0  1  0  0  0  0  0999 V2000
    7.4036  -12.6305   20.8397 O   0  0  0  0  0  0  0  0  0  0  0  0
    8.4809  -12.5354   19.9807 C   0  0  0  0  0  0  0  0  0  0  0  0
    8.6407  -13.7609   19.1193 C   0  0  2  0  0  0  0  0  0  0  0  0
    7.6247  -13.8527   18.1128 N   0  0  0  0  0  0  0  0  0  0  0  0
    8.6204  -14.9610   20.0253 C   0  0  0  0  0  0  0  0  0  0  0  0
    7.8810  -15.9117   19.6897 O   0  0  0  0  0  0  0  0  0  0  0  0
    9.3912  -15.0187   21.1925 N   0  0  0  0  0  0  0  0  0  0  0  0
    9.4452  -16.2398   22.0180 C   0  0  1  0  0  0  0  0  0  0  0  0
   10.0557  -17.2935   21.1739 C   0  0  0  0  0  0  0  0  0  0  0  0
   11.2956  -16.9930   20.4322 C   0  0  0  0  0  0  0  0  0  0  0  0
   12.1317  -18.1819   20.1314 C   0  0  0  0  0  0  0  0  0  0  0  0
   12.2214  -18.6361   18.9685 O   0  0  0  0  0  0  0  0  0  0  0  0
   10.0757  -15.9542   23.3058 C   0  0  0  0  0  0  0  0  0  0  0  0
   10.8935  -14.9575   23.3661 O   0  0  0  0  0  0  0  0  0  0  0  0
   12.8522  -18.8441   21.1285 O   0  0  0  0  0  0  0  0  0  0  0  0
    7.4446  -11.4915   25.5982 C   0  0  0  0  0  0  0  0  0  0  0  0
    6.6197  -12.9604   26.1413 S   0  0  0  0  0  0  0  0  0  0  0  0
    7.6349  -14.3664   26.5537 C   0  0  0  0  0  0  0  0  0  0  0  0
    8.2180  -15.1176   25.4097 C   0  0  0  0  0  0  0  0  0  0  0  0
    9.3822  -16.0083   25.7226 C   0  0  2  0  0  0  0  0  0  0  0  0
    9.8840  -16.6578   24.5110 N   0  0  0  0  0  0  0  0  0  0  0  0
    9.1158  -16.9913   26.7814 C   0  0  0  0  0  0  0  0  0  0  0  0
    9.4852  -16.9325   28.0939 O   0  0  0  0  0  0  0  0  0  0  0  0
    8.4513  -18.0405   26.4373 O   0  0  0  0  0  0  0  0  0  0  0  0
  2  3  1  0
  2  1  1  0
  3  4  1  6
  5  6  2  0
  5  3  1  0
  7  5  1  0
  8  7  1  0
  8 13  1  0
  8  9  1  6
 10 11  1  0
 10  9  1  0
 11 15  1  0
 12 11  2  0
 13 21  1  0
 14 13  2  0
 17 16  1  0
 18 17  1  0
 20 19  1  6
 19 18  1  0
 20 22  1  0
 21 20  1  0
 22 24  2  0
 22 23  1  0
M  END
$$$$
