EPD.pdb
     RDKit          3D

 25 25  0  0  1  0  0  0  0  0999 V2000
   19.4579  -13.0414  -16.5281 N   0  0  0  0  0  0  0  0  0  0  0  0
   19.2602  -11.7614  -17.2125 C   0  0  1  0  0  0  0  0  0  0  0  0
   17.9457  -11.2098  -16.6271 C   0  0  0  0  0  0  0  0  0  0  0  0
   16.8781  -12.1983  -17.0453 C   0  0  0  0  0  0  0  0  0  0  0  0
   15.8556  -12.3913  -15.9935 C   0  0  0  0  0  0  0  0  0  0  0  0
   15.0283  -11.4992  -15.6911 O   0  0  0  0  0  0  0  0  0  0  0  0
   20.3669  -10.8657  -16.8493 C   0  0  0  0  0  0  0  0  0  0  0  0
   20.8959  -11.0376  -15.6904 O   0  0  0  0  0  0  0  0  0  0  0  0
   15.8164  -13.6017  -15.3238 O   0  0  0  0  0  0  0  0  0  0  0  0
   20.8713   -9.8456  -17.6934 N   0  0  0  0  0  0  0  0  0  0  0  0
   20.4290   -9.5781  -19.0475 C   0  0  0  0  0  0  0  0  0  0  0  0
   21.5884   -8.8933  -19.7439 C   0  0  0  0  0  0  0  0  0  0  0  0
   22.6475   -8.7640  -18.6895 C   0  0  0  0  0  0  0  0  0  0  0  0
   21.8884   -8.9037  -17.3835 C   0  0  1  0  0  0  0  0  0  0  0  0
   21.3415   -7.5688  -16.9967 C   0  0  0  0  0  0  0  0  0  0  0  0
   20.2614   -7.1121  -17.4338 O   0  0  0  0  0  0  0  0  0  0  0  0
   22.0831   -6.7900  -16.0941 N   0  0  0  0  0  0  0  0  0  0  0  0
   21.6192   -5.4877  -15.5822 C   0  0  1  0  0  0  0  0  0  0  0  0
   21.9820   -5.4840  -14.1262 C   0  0  0  0  0  0  0  0  0  0  0  0
   21.2612   -6.4321  -13.2809 C   0  0  0  0  0  0  0  0  0  0  0  0
   19.9936   -6.2557  -13.1955 O   0  0  0  0  0  0  0  0  0  0  0  0
   22.2032   -4.3945  -16.3701 C   0  0  0  0  0  0  0  0  0  0  0  0
   23.1618   -4.5991  -17.1401 O   0  0  0  0  0  0  0  0  0  0  0  0
   21.7574   -7.4827  -12.5665 O   0  0  0  0  0  0  0  0  0  0  0  0
   21.7153   -3.0934  -16.2916 O   0  0  0  0  0  0  0  0  0  0  0  0
  2  7  1  0
  2  1  1  1
  3  2  1  0
  4  3  1  0
  5  4  1  0
  6  5  2  0
  7  8  2  0
  9  5  1  0
 10  7  1  0
 10 14  1  0
 11 10  1  0
 12 11  1  0
 12 13  1  0
 13 14  1  0
 14 15  1  6
 15 17  1  0
 16 15  2  0
 18 17  1  0
 18 19  1  1
 19 20  1  0
 20 24  1  0
 20 21  2  0
 22 18  1  0
 23 22  2  0
 25 22  1  0
M  END
$$$$
