EPD.pdb
     RDKit          3D

 25 25  0  0  1  0  0  0  0  0999 V2000
   15.4177  -10.4237  -15.9425 N   0  0  0  0  0  0  0  0  0  0  0  0
   16.2973  -10.6523  -14.7935 C   0  0  1  0  0  0  0  0  0  0  0  0
   17.4353  -11.5313  -15.3476 C   0  0  0  0  0  0  0  0  0  0  0  0
   16.8010  -12.8786  -15.6198 C   0  0  0  0  0  0  0  0  0  0  0  0
   17.7630  -13.8389  -16.2040 C   0  0  0  0  0  0  0  0  0  0  0  0
   18.2092  -14.8170  -15.5591 O   0  0  0  0  0  0  0  0  0  0  0  0
   16.8472   -9.3585  -14.3662 C   0  0  0  0  0  0  0  0  0  0  0  0
   16.8158   -8.4025  -15.2251 O   0  0  0  0  0  0  0  0  0  0  0  0
   18.1809  -13.6449  -17.5090 O   0  0  0  0  0  0  0  0  0  0  0  0
   17.3969   -9.1153  -13.0832 N   0  0  0  0  0  0  0  0  0  0  0  0
   17.5046  -10.0890  -12.0151 C   0  0  0  0  0  0  0  0  0  0  0  0
   17.5421   -9.2973  -10.7228 C   0  0  0  0  0  0  0  0  0  0  0  0
   17.4994   -7.8604  -11.1513 C   0  0  0  0  0  0  0  0  0  0  0  0
   17.9401   -7.8939  -12.6026 C   0  0  1  0  0  0  0  0  0  0  0  0
   19.4324   -7.8645  -12.6557 C   0  0  0  0  0  0  0  0  0  0  0  0
   20.1419   -8.8940  -12.7091 O   0  0  0  0  0  0  0  0  0  0  0  0
   20.0669   -6.6121  -12.6451 N   0  0  0  0  0  0  0  0  0  0  0  0
   21.2534   -6.3022  -13.4633 C   0  0  1  0  0  0  0  0  0  0  0  0
   20.8653   -6.6525  -14.8698 C   0  0  0  0  0  0  0  0  0  0  0  0
   21.8244   -6.2924  -15.9108 C   0  0  0  0  0  0  0  0  0  0  0  0
   23.0615   -6.4557  -15.6140 O   0  0  0  0  0  0  0  0  0  0  0  0
   21.6598   -4.9055  -13.2612 C   0  0  0  0  0  0  0  0  0  0  0  0
   20.8219   -3.9830  -13.2873 O   0  0  0  0  0  0  0  0  0  0  0  0
   21.5798   -5.8024  -17.1600 O   0  0  0  0  0  0  0  0  0  0  0  0
   22.9872   -4.5545  -13.0335 O   0  0  0  0  0  0  0  0  0  0  0  0
  2  7  1  0
  2  1  1  6
  3  2  1  0
  4  3  1  0
  5  4  1  0
  6  5  2  0
  7  8  2  0
  9  5  1  0
 10  7  1  0
 10 14  1  0
 11 10  1  0
 12 11  1  0
 12 13  1  0
 13 14  1  0
 14 15  1  1
 15 17  1  0
 16 15  2  0
 18 17  1  0
 18 19  1  6
 19 20  1  0
 20 24  1  0
 20 21  2  0
 22 18  1  0
 23 22  2  0
 25 22  1  0
M  END
$$$$
