EPD.pdb
     RDKit          3D

 25 25  0  0  1  0  0  0  0  0999 V2000
   27.4400  -22.0035  -15.2134 N   0  0  0  0  0  0  0  0  0  0  0  0
   26.8097  -20.9837  -14.3715 C   0  0  1  0  0  0  0  0  0  0  0  0
   26.2800  -19.9342  -15.3679 C   0  0  0  0  0  0  0  0  0  0  0  0
   27.5141  -19.2694  -15.9392 C   0  0  0  0  0  0  0  0  0  0  0  0
   27.8221  -19.7476  -17.3051 C   0  0  0  0  0  0  0  0  0  0  0  0
   26.9834  -19.7030  -18.2359 O   0  0  0  0  0  0  0  0  0  0  0  0
   25.6768  -21.5997  -13.6671 C   0  0  0  0  0  0  0  0  0  0  0  0
   25.1655  -22.6521  -14.1996 O   0  0  0  0  0  0  0  0  0  0  0  0
   29.0822  -20.2608  -17.5575 O   0  0  0  0  0  0  0  0  0  0  0  0
   25.1320  -21.1050  -12.4564 N   0  0  0  0  0  0  0  0  0  0  0  0
   25.5963  -19.9330  -11.7412 C   0  0  0  0  0  0  0  0  0  0  0  0
   25.1969  -20.1352  -10.2928 C   0  0  0  0  0  0  0  0  0  0  0  0
   24.4580  -21.4405  -10.2769 C   0  0  0  0  0  0  0  0  0  0  0  0
   24.0452  -21.6497  -11.7217 C   0  0  1  0  0  0  0  0  0  0  0  0
   22.7615  -20.9269  -11.9674 C   0  0  0  0  0  0  0  0  0  0  0  0
   22.7013  -19.7504  -12.3896 O   0  0  0  0  0  0  0  0  0  0  0  0
   21.5620  -21.6094  -11.7092 N   0  0  0  0  0  0  0  0  0  0  0  0
   20.4218  -21.6180  -12.6437 C   0  0  1  0  0  0  0  0  0  0  0  0
   19.8641  -23.0092  -12.5731 C   0  0  0  0  0  0  0  0  0  0  0  0
   18.6664  -23.2637  -13.3693 C   0  0  0  0  0  0  0  0  0  0  0  0
   18.1952  -22.2576  -14.0104 O   0  0  0  0  0  0  0  0  0  0  0  0
   19.4736  -20.5510  -12.2986 C   0  0  0  0  0  0  0  0  0  0  0  0
   19.3923  -20.1167  -11.1330 O   0  0  0  0  0  0  0  0  0  0  0  0
   17.9785  -24.4316  -13.5216 O   0  0  0  0  0  0  0  0  0  0  0  0
   18.6316  -19.9833  -13.2504 O   0  0  0  0  0  0  0  0  0  0  0  0
  2  7  1  0
  2  1  1  6
  3  2  1  0
  4  3  1  0
  5  4  1  0
  6  5  2  0
  7  8  2  0
  9  5  1  0
 10  7  1  0
 10 14  1  0
 11 10  1  0
 12 11  1  0
 12 13  1  0
 13 14  1  0
 14 15  1  6
 15 17  1  0
 16 15  2  0
 18 17  1  0
 18 19  1  1
 19 20  1  0
 20 24  1  0
 20 21  2  0
 22 18  1  0
 23 22  2  0
 25 22  1  0
M  END
$$$$
