EPD.pdb
     RDKit          3D

 25 25  0  0  1  0  0  0  0  0999 V2000
   22.3763  -19.9376   -9.5541 N   0  0  0  0  0  0  0  0  0  0  0  0
   23.3321  -20.8415  -10.1987 C   0  0  1  0  0  0  0  0  0  0  0  0
   22.4625  -21.9760  -10.7744 C   0  0  0  0  0  0  0  0  0  0  0  0
   21.2504  -22.0463   -9.8702 C   0  0  0  0  0  0  0  0  0  0  0  0
   20.0077  -21.6602  -10.5742 C   0  0  0  0  0  0  0  0  0  0  0  0
   19.6579  -20.4639  -10.7094 O   0  0  0  0  0  0  0  0  0  0  0  0
   23.9811  -20.1197  -11.3018 C   0  0  0  0  0  0  0  0  0  0  0  0
   23.4129  -19.0379  -11.7011 O   0  0  0  0  0  0  0  0  0  0  0  0
   19.2078  -22.6597  -11.0998 O   0  0  0  0  0  0  0  0  0  0  0  0
   25.1762  -20.5447  -11.9332 N   0  0  0  0  0  0  0  0  0  0  0  0
   25.9094  -21.7550  -11.6197 C   0  0  0  0  0  0  0  0  0  0  0  0
   27.3441  -21.5011  -12.0387 C   0  0  0  0  0  0  0  0  0  0  0  0
   27.3326  -20.1239  -12.6329 C   0  0  0  0  0  0  0  0  0  0  0  0
   25.8751  -19.8813  -12.9769 C   0  0  1  0  0  0  0  0  0  0  0  0
   25.5924  -20.4635  -14.3229 C   0  0  0  0  0  0  0  0  0  0  0  0
   25.5390  -21.6938  -14.5457 O   0  0  0  0  0  0  0  0  0  0  0  0
   25.3755  -19.5781  -15.3907 N   0  0  0  0  0  0  0  0  0  0  0  0
   24.4507  -19.8661  -16.5021 C   0  0  1  0  0  0  0  0  0  0  0  0
   23.3083  -18.9098  -16.3228 C   0  0  0  0  0  0  0  0  0  0  0  0
   22.2705  -18.9471  -17.3497 C   0  0  0  0  0  0  0  0  0  0  0  0
   22.4123  -19.8418  -18.2578 O   0  0  0  0  0  0  0  0  0  0  0  0
   25.1524  -19.7605  -17.7877 C   0  0  0  0  0  0  0  0  0  0  0  0
   24.5858  -20.0655  -18.8553 O   0  0  0  0  0  0  0  0  0  0  0  0
   21.1676  -18.1542  -17.4736 O   0  0  0  0  0  0  0  0  0  0  0  0
   26.4699  -19.3190  -17.8690 O   0  0  0  0  0  0  0  0  0  0  0  0
  2  7  1  0
  2  1  1  6
  3  2  1  0
  4  3  1  0
  5  4  1  0
  6  5  2  0
  7  8  2  0
  9  5  1  0
 10  7  1  0
 10 14  1  0
 11 10  1  0
 12 11  1  0
 12 13  1  0
 13 14  1  0
 14 15  1  6
 15 17  1  0
 16 15  2  0
 18 17  1  0
 18 19  1  6
 19 20  1  0
 20 24  1  0
 20 21  2  0
 22 18  1  0
 23 22  2  0
 25 22  1  0
M  END
$$$$
