EPD.pdb
     RDKit          3D

 25 25  0  0  1  0  0  0  0  0999 V2000
   18.5482  -13.0909  -16.1140 N   0  0  0  0  0  0  0  0  0  0  0  0
   19.5420  -12.1287  -16.5962 C   0  0  1  0  0  0  0  0  0  0  0  0
   18.8066  -11.3295  -17.6896 C   0  0  0  0  0  0  0  0  0  0  0  0
   18.7617  -12.2484  -18.8918 C   0  0  0  0  0  0  0  0  0  0  0  0
   18.0278  -11.6453  -20.0261 C   0  0  0  0  0  0  0  0  0  0  0  0
   18.4313  -11.7359  -21.2096 O   0  0  0  0  0  0  0  0  0  0  0  0
   19.8909  -11.2284  -15.4886 C   0  0  0  0  0  0  0  0  0  0  0  0
   18.9639  -10.9711  -14.6360 O   0  0  0  0  0  0  0  0  0  0  0  0
   16.8552  -10.9584  -19.7646 O   0  0  0  0  0  0  0  0  0  0  0  0
   21.1697  -10.6434  -15.3148 N   0  0  0  0  0  0  0  0  0  0  0  0
   22.3383  -10.9176  -16.1271 C   0  0  0  0  0  0  0  0  0  0  0  0
   23.5405  -10.6050  -15.2581 C   0  0  0  0  0  0  0  0  0  0  0  0
   22.9620  -10.1066  -13.9670 C   0  0  0  0  0  0  0  0  0  0  0  0
   21.5486   -9.6919  -14.3306 C   0  0  1  0  0  0  0  0  0  0  0  0
   21.5749   -8.2946  -14.8573 C   0  0  0  0  0  0  0  0  0  0  0  0
   21.9932   -7.9944  -15.9980 O   0  0  0  0  0  0  0  0  0  0  0  0
   21.1036   -7.2680  -14.0236 N   0  0  0  0  0  0  0  0  0  0  0  0
   20.9786   -5.8661  -14.4626 C   0  0  1  0  0  0  0  0  0  0  0  0
   19.5545   -5.4888  -14.1777 C   0  0  0  0  0  0  0  0  0  0  0  0
   19.1715   -4.1203  -14.5145 C   0  0  0  0  0  0  0  0  0  0  0  0
   20.0660   -3.4176  -15.1072 O   0  0  0  0  0  0  0  0  0  0  0  0
   21.9868   -5.0326  -13.7951 C   0  0  0  0  0  0  0  0  0  0  0  0
   22.3584   -3.9521  -14.2933 O   0  0  0  0  0  0  0  0  0  0  0  0
   17.9864   -3.4867  -14.2809 O   0  0  0  0  0  0  0  0  0  0  0  0
   22.5661   -5.4101  -12.5872 O   0  0  0  0  0  0  0  0  0  0  0  0
  2  7  1  0
  2  1  1  1
  3  2  1  0
  4  3  1  0
  5  4  1  0
  6  5  2  0
  7  8  2  0
  9  5  1  0
 10  7  1  0
 10 14  1  0
 11 10  1  0
 12 11  1  0
 12 13  1  0
 13 14  1  0
 14 15  1  6
 15 17  1  0
 16 15  2  0
 18 17  1  0
 18 19  1  1
 19 20  1  0
 20 24  1  0
 20 21  2  0
 22 18  1  0
 23 22  2  0
 25 22  1  0
M  END
$$$$
