EPD.pdb
     RDKit          3D

 25 25  0  0  1  0  0  0  0  0999 V2000
   25.9811  -21.3918  -11.3346 N   0  0  0  0  0  0  0  0  0  0  0  0
   26.2780  -21.1276  -12.7446 C   0  0  1  0  0  0  0  0  0  0  0  0
   25.8456  -22.4125  -13.4774 C   0  0  0  0  0  0  0  0  0  0  0  0
   26.9683  -22.7146  -14.4468 C   0  0  0  0  0  0  0  0  0  0  0  0
   26.7748  -22.0411  -15.7499 C   0  0  0  0  0  0  0  0  0  0  0  0
   27.7218  -21.5111  -16.3777 O   0  0  0  0  0  0  0  0  0  0  0  0
   25.4394  -20.0074  -13.1928 C   0  0  0  0  0  0  0  0  0  0  0  0
   24.2846  -19.8899  -12.6404 O   0  0  0  0  0  0  0  0  0  0  0  0
   25.5011  -21.9982  -16.2893 O   0  0  0  0  0  0  0  0  0  0  0  0
   25.8305  -19.0694  -14.1801 N   0  0  0  0  0  0  0  0  0  0  0  0
   27.0929  -19.0736  -14.8921 C   0  0  0  0  0  0  0  0  0  0  0  0
   27.3350  -17.6434  -15.3326 C   0  0  0  0  0  0  0  0  0  0  0  0
   26.1250  -16.8883  -14.8678 C   0  0  0  0  0  0  0  0  0  0  0  0
   25.0763  -17.9639  -14.6563 C   0  0  1  0  0  0  0  0  0  0  0  0
   24.4006  -18.2433  -15.9586 C   0  0  0  0  0  0  0  0  0  0  0  0
   24.8269  -19.0719  -16.7940 O   0  0  0  0  0  0  0  0  0  0  0  0
   23.2249  -17.5355  -16.2553 N   0  0  0  0  0  0  0  0  0  0  0  0
   21.9408  -18.1946  -16.5557 C   0  0  1  0  0  0  0  0  0  0  0  0
   21.7785  -19.2442  -15.4957 C   0  0  0  0  0  0  0  0  0  0  0  0
   20.5441  -20.0233  -15.5450 C   0  0  0  0  0  0  0  0  0  0  0  0
   20.3603  -20.7156  -16.6090 O   0  0  0  0  0  0  0  0  0  0  0  0
   20.8611  -17.2011  -16.6157 C   0  0  0  0  0  0  0  0  0  0  0  0
   20.1135  -17.1248  -17.6102 O   0  0  0  0  0  0  0  0  0  0  0  0
   19.5564  -20.1121  -14.6085 O   0  0  0  0  0  0  0  0  0  0  0  0
   20.6279  -16.3090  -15.5731 O   0  0  0  0  0  0  0  0  0  0  0  0
  2  7  1  0
  2  1  1  1
  3  2  1  0
  4  3  1  0
  5  4  1  0
  6  5  2  0
  7  8  2  0
  9  5  1  0
 10  7  1  0
 10 14  1  0
 11 10  1  0
 12 11  1  0
 12 13  1  0
 13 14  1  0
 14 15  1  6
 15 17  1  0
 16 15  2  0
 18 17  1  0
 18 19  1  1
 19 20  1  0
 20 24  1  0
 20 21  2  0
 22 18  1  0
 23 22  2  0
 25 22  1  0
M  END
$$$$
