EPD.pdb
     RDKit          3D

 25 25  0  0  1  0  0  0  0  0999 V2000
   20.3562  -11.6166  -19.2314 N   0  0  0  0  0  0  0  0  0  0  0  0
   19.6641  -10.3346  -19.3843 C   0  0  1  0  0  0  0  0  0  0  0  0
   18.6315  -10.3147  -18.2405 C   0  0  0  0  0  0  0  0  0  0  0  0
   17.6124  -11.3728  -18.6059 C   0  0  0  0  0  0  0  0  0  0  0  0
   16.5256  -11.4675  -17.6065 C   0  0  0  0  0  0  0  0  0  0  0  0
   15.9167  -10.4577  -17.1806 O   0  0  0  0  0  0  0  0  0  0  0  0
   20.6384   -9.2543  -19.1777 C   0  0  0  0  0  0  0  0  0  0  0  0
   21.7599   -9.5795  -18.6402 O   0  0  0  0  0  0  0  0  0  0  0  0
   16.1735  -12.7178  -17.1291 O   0  0  0  0  0  0  0  0  0  0  0  0
   20.4107   -7.9021  -19.5344 N   0  0  0  0  0  0  0  0  0  0  0  0
   19.2215   -7.3925  -20.1877 C   0  0  0  0  0  0  0  0  0  0  0  0
   19.6440   -6.1280  -20.9093 C   0  0  0  0  0  0  0  0  0  0  0  0
   21.0959   -5.9601  -20.5719 C   0  0  0  0  0  0  0  0  0  0  0  0
   21.2859   -6.8030  -19.3249 C   0  0  1  0  0  0  0  0  0  0  0  0
   20.9148   -5.9885  -18.1293 C   0  0  0  0  0  0  0  0  0  0  0  0
   19.7328   -5.7273  -17.8115 O   0  0  0  0  0  0  0  0  0  0  0  0
   21.9517   -5.4926  -17.3230 N   0  0  0  0  0  0  0  0  0  0  0  0
   21.7157   -4.7659  -16.0622 C   0  0  1  0  0  0  0  0  0  0  0  0
   22.3256   -5.6233  -14.9924 C   0  0  0  0  0  0  0  0  0  0  0  0
   22.2710   -5.0923  -13.6330 C   0  0  0  0  0  0  0  0  0  0  0  0
   21.5648   -4.0336  -13.4726 O   0  0  0  0  0  0  0  0  0  0  0  0
   22.2586   -3.4043  -16.1509 C   0  0  0  0  0  0  0  0  0  0  0  0
   23.2632   -3.1578  -16.8465 O   0  0  0  0  0  0  0  0  0  0  0  0
   22.8740   -5.5722  -12.5075 O   0  0  0  0  0  0  0  0  0  0  0  0
   21.6796   -2.3389  -15.4676 O   0  0  0  0  0  0  0  0  0  0  0  0
  2  7  1  0
  2  1  1  1
  3  2  1  0
  4  3  1  0
  5  4  1  0
  6  5  2  0
  7  8  2  0
  9  5  1  0
 10  7  1  0
 10 14  1  0
 11 10  1  0
 12 11  1  0
 12 13  1  0
 13 14  1  0
 14 15  1  1
 15 17  1  0
 16 15  2  0
 18 17  1  0
 18 19  1  1
 19 20  1  0
 20 24  1  0
 20 21  2  0
 22 18  1  0
 23 22  2  0
 25 22  1  0
M  END
$$$$
