EPD.pdb
     RDKit          3D

 25 25  0  0  1  0  0  0  0  0999 V2000
   28.3501  -25.7338  -16.3406 N   0  0  0  0  0  0  0  0  0  0  0  0
   27.9376  -24.4977  -17.0099 C   0  0  1  0  0  0  0  0  0  0  0  0
   26.8565  -24.9445  -18.0133 C   0  0  0  0  0  0  0  0  0  0  0  0
   27.6174  -25.5308  -19.1832 C   0  0  0  0  0  0  0  0  0  0  0  0
   28.0783  -24.4880  -20.1262 C   0  0  0  0  0  0  0  0  0  0  0  0
   27.3322  -23.5582  -20.5144 O   0  0  0  0  0  0  0  0  0  0  0  0
   27.3330  -23.6082  -16.0089 C   0  0  0  0  0  0  0  0  0  0  0  0
   27.0023  -24.1386  -14.8856 O   0  0  0  0  0  0  0  0  0  0  0  0
   29.3800  -24.5467  -20.5923 O   0  0  0  0  0  0  0  0  0  0  0  0
   27.1024  -22.2252  -16.2131 N   0  0  0  0  0  0  0  0  0  0  0  0
   27.3650  -21.5001  -17.4403 C   0  0  0  0  0  0  0  0  0  0  0  0
   27.5749  -20.0530  -17.0402 C   0  0  0  0  0  0  0  0  0  0  0  0
   27.3644  -20.0307  -15.5552 C   0  0  0  0  0  0  0  0  0  0  0  0
   26.5782  -21.2974  -15.2738 C   0  0  1  0  0  0  0  0  0  0  0  0
   25.1254  -21.0214  -15.4831 C   0  0  0  0  0  0  0  0  0  0  0  0
   24.5606  -21.1022  -16.5970 O   0  0  0  0  0  0  0  0  0  0  0  0
   24.3580  -20.6524  -14.3668 N   0  0  0  0  0  0  0  0  0  0  0  0
   22.8869  -20.7428  -14.3339 C   0  0  1  0  0  0  0  0  0  0  0  0
   22.5304  -20.8481  -12.8801 C   0  0  0  0  0  0  0  0  0  0  0  0
   21.1045  -20.9096  -12.5700 C   0  0  0  0  0  0  0  0  0  0  0  0
   20.3137  -20.9710  -13.5779 O   0  0  0  0  0  0  0  0  0  0  0  0
   22.2915  -19.5997  -15.0377 C   0  0  0  0  0  0  0  0  0  0  0  0
   21.1161  -19.6415  -15.4507 O   0  0  0  0  0  0  0  0  0  0  0  0
   20.4991  -20.9087  -11.3477 O   0  0  0  0  0  0  0  0  0  0  0  0
   23.0080  -18.4297  -15.2719 O   0  0  0  0  0  0  0  0  0  0  0  0
  2  7  1  0
  2  1  1  1
  3  2  1  0
  4  3  1  0
  5  4  1  0
  6  5  2  0
  7  8  2  0
  9  5  1  0
 10  7  1  0
 10 14  1  0
 11 10  1  0
 12 11  1  0
 12 13  1  0
 13 14  1  0
 14 15  1  6
 15 17  1  0
 16 15  2  0
 18 17  1  0
 18 19  1  1
 19 20  1  0
 20 24  1  0
 20 21  2  0
 22 18  1  0
 23 22  2  0
 25 22  1  0
M  END
$$$$
