EPD.pdb
     RDKit          3D

 25 25  0  0  1  0  0  0  0  0999 V2000
   12.2283  -10.3076  -11.3870 N   0  0  0  0  0  0  0  0  0  0  0  0
   13.4810  -10.0256  -10.6818 C   0  0  1  0  0  0  0  0  0  0  0  0
   14.5695  -10.6871  -11.5493 C   0  0  0  0  0  0  0  0  0  0  0  0
   14.3451  -12.1769  -11.4019 C   0  0  0  0  0  0  0  0  0  0  0  0
   15.2959  -12.9662  -12.2155 C   0  0  0  0  0  0  0  0  0  0  0  0
   16.2143  -12.4311  -12.8803 O   0  0  0  0  0  0  0  0  0  0  0  0
   13.6881   -8.5710  -10.6685 C   0  0  0  0  0  0  0  0  0  0  0  0
   13.0598   -7.8874  -11.5575 O   0  0  0  0  0  0  0  0  0  0  0  0
   15.1612  -14.3433  -12.2391 O   0  0  0  0  0  0  0  0  0  0  0  0
   14.5254   -7.8976   -9.7449 N   0  0  0  0  0  0  0  0  0  0  0  0
   15.3439   -8.5335   -8.7318 C   0  0  0  0  0  0  0  0  0  0  0  0
   15.5439   -7.5011   -7.6399 C   0  0  0  0  0  0  0  0  0  0  0  0
   14.8387   -6.2742   -8.1376 C   0  0  0  0  0  0  0  0  0  0  0  0
   14.7231   -6.4953   -9.6340 C   0  0  1  0  0  0  0  0  0  0  0  0
   15.9838   -6.0357  -10.2897 C   0  0  0  0  0  0  0  0  0  0  0  0
   17.0558   -6.6804  -10.2532 O   0  0  0  0  0  0  0  0  0  0  0  0
   15.9581   -4.8149  -10.9826 N   0  0  0  0  0  0  0  0  0  0  0  0
   16.8362   -4.5199  -12.1295 C   0  0  1  0  0  0  0  0  0  0  0  0
   16.5526   -5.6001  -13.1317 C   0  0  0  0  0  0  0  0  0  0  0  0
   17.2041   -5.4594  -14.4313 C   0  0  0  0  0  0  0  0  0  0  0  0
   16.4895   -5.7625  -15.4524 O   0  0  0  0  0  0  0  0  0  0  0  0
   16.6035   -3.1516  -12.6092 C   0  0  0  0  0  0  0  0  0  0  0  0
   15.4835   -2.6152  -12.5011 O   0  0  0  0  0  0  0  0  0  0  0  0
   18.4757   -5.0491  -14.7053 O   0  0  0  0  0  0  0  0  0  0  0  0
   17.6153   -2.4007  -13.2005 O   0  0  0  0  0  0  0  0  0  0  0  0
  2  7  1  0
  2  1  1  6
  3  2  1  0
  4  3  1  0
  5  4  1  0
  6  5  2  0
  7  8  2  0
  9  5  1  0
 10  7  1  0
 10 14  1  0
 11 10  1  0
 12 11  1  0
 12 13  1  0
 13 14  1  0
 14 15  1  6
 15 17  1  0
 16 15  2  0
 18 17  1  0
 18 19  1  6
 19 20  1  0
 20 24  1  0
 20 21  2  0
 22 18  1  0
 23 22  2  0
 25 22  1  0
M  END
$$$$
