EPD.pdb
     RDKit          3D

 25 25  0  0  1  0  0  0  0  0999 V2000
   22.7756  -14.2025  -16.8652 N   0  0  0  0  0  0  0  0  0  0  0  0
   23.4371  -12.9857  -17.3425 C   0  0  1  0  0  0  0  0  0  0  0  0
   22.6184  -12.5602  -18.5768 C   0  0  0  0  0  0  0  0  0  0  0  0
   22.7596  -13.7017  -19.5609 C   0  0  0  0  0  0  0  0  0  0  0  0
   21.9566  -13.4845  -20.7844 C   0  0  0  0  0  0  0  0  0  0  0  0
   21.2482  -12.4632  -20.9487 O   0  0  0  0  0  0  0  0  0  0  0  0
   23.3183  -11.9549  -16.3021 C   0  0  0  0  0  0  0  0  0  0  0  0
   22.3044  -12.0381  -15.5162 O   0  0  0  0  0  0  0  0  0  0  0  0
   21.9933  -14.4462  -21.7788 O   0  0  0  0  0  0  0  0  0  0  0  0
   24.2448  -10.8980  -16.1234 N   0  0  0  0  0  0  0  0  0  0  0  0
   25.4211  -10.6631  -16.9369 C   0  0  0  0  0  0  0  0  0  0  0  0
   26.3912   -9.8906  -16.0650 C   0  0  0  0  0  0  0  0  0  0  0  0
   25.6621   -9.6821  -14.7707 C   0  0  0  0  0  0  0  0  0  0  0  0
   24.2023   -9.8814  -15.1322 C   0  0  1  0  0  0  0  0  0  0  0  0
   23.6516   -8.5929  -15.6490 C   0  0  0  0  0  0  0  0  0  0  0  0
   23.9341   -8.1230  -16.7740 O   0  0  0  0  0  0  0  0  0  0  0  0
   22.7707   -7.8755  -14.8241 N   0  0  0  0  0  0  0  0  0  0  0  0
   22.0390   -6.6776  -15.2746 C   0  0  1  0  0  0  0  0  0  0  0  0
   20.5863   -7.0278  -15.1383 C   0  0  0  0  0  0  0  0  0  0  0  0
   19.6357   -5.9635  -15.4492 C   0  0  0  0  0  0  0  0  0  0  0  0
   20.0971   -4.9824  -16.1347 O   0  0  0  0  0  0  0  0  0  0  0  0
   22.4684   -5.5012  -14.5076 C   0  0  0  0  0  0  0  0  0  0  0  0
   22.8637   -5.6116  -13.3306 O   0  0  0  0  0  0  0  0  0  0  0  0
   18.3189   -5.8721  -15.1057 O   0  0  0  0  0  0  0  0  0  0  0  0
   22.4527   -4.2226  -15.0573 O   0  0  0  0  0  0  0  0  0  0  0  0
  2  7  1  0
  2  1  1  1
  3  2  1  0
  4  3  1  0
  5  4  1  0
  6  5  2  0
  7  8  2  0
  9  5  1  0
 10  7  1  0
 10 14  1  0
 11 10  1  0
 12 11  1  0
 12 13  1  0
 13 14  1  0
 14 15  1  6
 15 17  1  0
 16 15  2  0
 18 17  1  0
 18 19  1  1
 19 20  1  0
 20 24  1  0
 20 21  2  0
 22 18  1  0
 23 22  2  0
 25 22  1  0
M  END
$$$$
