EWF.pdb
     RDKit          3D

 35 37  0  0  1  0  0  0  0  0999 V2000
   30.2702  -13.9367  -20.2736 N   0  0  0  0  0  0  0  0  0  0  0  0
   28.8957  -13.4769  -20.4999 C   0  0  1  0  0  0  0  0  0  0  0  0
   28.0192  -14.3398  -19.6410 C   0  0  0  0  0  0  0  0  0  0  0  0
   28.3334  -15.8033  -19.7416 C   0  0  0  0  0  0  0  0  0  0  0  0
   27.2124  -16.5243  -19.0501 C   0  0  0  0  0  0  0  0  0  0  0  0
   26.2842  -15.8309  -18.5934 O   0  0  0  0  0  0  0  0  0  0  0  0
   28.7562  -12.0661  -20.0690 C   0  0  0  0  0  0  0  0  0  0  0  0
   29.4685  -11.5906  -19.1868 O   0  0  0  0  0  0  0  0  0  0  0  0
   27.1731  -17.8999  -18.9041 O   0  0  0  0  0  0  0  0  0  0  0  0
   27.7880  -11.2172  -20.6678 N   0  0  0  0  0  0  0  0  0  0  0  0
   27.6268   -9.8035  -20.3042 C   0  0  1  0  0  0  0  0  0  0  0  0
   27.2944   -9.0821  -21.5798 C   0  0  0  0  0  0  0  0  0  0  0  0
   27.0544   -7.6516  -21.4454 C   0  0  0  0  0  0  0  0  0  0  0  0
   27.8131   -6.7367  -20.7515 C   0  0  0  0  0  0  0  0  0  0  0  0
   27.2143   -5.5180  -20.8980 N   0  0  0  0  0  0  0  0  0  0  0  0
   26.1144   -5.6509  -21.6579 C   0  0  0  0  0  0  0  0  0  0  0  0
   25.2049   -4.7036  -22.0672 C   0  0  0  0  0  0  0  0  0  0  0  0
   24.1241   -5.0659  -22.8610 C   0  0  0  0  0  0  0  0  0  0  0  0
   23.9898   -6.3785  -23.2214 C   0  0  0  0  0  0  0  0  0  0  0  0
   24.9088   -7.3198  -22.8048 C   0  0  0  0  0  0  0  0  0  0  0  0
   25.9974   -6.9704  -22.0085 C   0  0  0  0  0  0  0  0  0  0  0  0
   26.5631   -9.7105  -19.2790 C   0  0  0  0  0  0  0  0  0  0  0  0
   25.5356  -10.4161  -19.3958 O   0  0  0  0  0  0  0  0  0  0  0  0
   26.6594   -8.8469  -18.1586 N   0  0  0  0  0  0  0  0  0  0  0  0
   25.6188   -8.7288  -17.1410 C   0  0  1  0  0  0  0  0  0  0  0  0
   26.2133   -8.9505  -15.7804 C   0  0  0  0  0  0  0  0  0  0  0  0
   26.8021  -10.2860  -15.6618 C   0  0  0  0  0  0  0  0  0  0  0  0
   26.0332  -11.3179  -15.1305 C   0  0  0  0  0  0  0  0  0  0  0  0
   26.5109  -12.5904  -14.9925 C   0  0  0  0  0  0  0  0  0  0  0  0
   27.8037  -12.8519  -15.3974 C   0  0  0  0  0  0  0  0  0  0  0  0
   28.6028  -11.8637  -15.9293 C   0  0  0  0  0  0  0  0  0  0  0  0
   28.0873  -10.5934  -16.0531 C   0  0  0  0  0  0  0  0  0  0  0  0
   24.9220   -7.4551  -17.3125 C   0  0  0  0  0  0  0  0  0  0  0  0
   23.6761   -7.1592  -16.7776 O   0  0  0  0  0  0  0  0  0  0  0  0
   25.4706   -6.5401  -17.9926 O   0  0  0  0  0  0  0  0  0  0  0  0
  2  1  1  1
  3  4  1  0
  3  2  1  0
  4  5  1  0
  5  6  2  0
  5  9  1  0
  7  8  2  0
  7  2  1  0
 10  7  1  0
 11 10  1  0
 11 12  1  6
 12 13  1  0
 13 14  2  0
 13 21  1  0
 14 15  1  0
 15 16  1  0
 16 17  2  0
 18 17  1  0
 19 18  2  0
 20 21  2  0
 20 19  1  0
 21 16  1  0
 22 11  1  0
 23 22  2  0
 24 22  1  0
 25 33  1  0
 25 24  1  0
 25 26  1  1
 26 27  1  0
 27 28  2  0
 28 29  1  0
 30 29  2  0
 31 30  1  0
 32 27  1  0
 32 31  2  0
 33 34  1  0
 35 33  2  0
M  END
$$$$
