EWF.pdb
     RDKit          3D

 35 37  0  0  1  0  0  0  0  0999 V2000
   27.9708  -22.5546  -15.8806 N   0  0  0  0  0  0  0  0  0  0  0  0
   27.7987  -21.3454  -15.0682 C   0  0  1  0  0  0  0  0  0  0  0  0
   26.9385  -20.4183  -15.8749 C   0  0  0  0  0  0  0  0  0  0  0  0
   27.6218  -19.8736  -17.0944 C   0  0  0  0  0  0  0  0  0  0  0  0
   28.2946  -18.6006  -16.6683 C   0  0  0  0  0  0  0  0  0  0  0  0
   29.4048  -18.7005  -16.1129 O   0  0  0  0  0  0  0  0  0  0  0  0
   27.0982  -21.6789  -13.8059 C   0  0  0  0  0  0  0  0  0  0  0  0
   26.1061  -22.4052  -13.7944 O   0  0  0  0  0  0  0  0  0  0  0  0
   27.7394  -17.3483  -16.8648 O   0  0  0  0  0  0  0  0  0  0  0  0
   27.5569  -21.1647  -12.5641 N   0  0  0  0  0  0  0  0  0  0  0  0
   26.8090  -21.3143  -11.3091 C   0  0  1  0  0  0  0  0  0  0  0  0
   27.7701  -20.9629  -10.2087 C   0  0  0  0  0  0  0  0  0  0  0  0
   27.1768  -20.7984   -8.8886 C   0  0  0  0  0  0  0  0  0  0  0  0
   25.8522  -20.9387   -8.5423 C   0  0  0  0  0  0  0  0  0  0  0  0
   25.7541  -20.6912   -7.2027 N   0  0  0  0  0  0  0  0  0  0  0  0
   26.9717  -20.4041   -6.7127 C   0  0  0  0  0  0  0  0  0  0  0  0
   27.3552  -20.0919   -5.4292 C   0  0  0  0  0  0  0  0  0  0  0  0
   28.6876  -19.8256   -5.1405 C   0  0  0  0  0  0  0  0  0  0  0  0
   29.5999  -19.8817   -6.1581 C   0  0  0  0  0  0  0  0  0  0  0  0
   29.2031  -20.1962   -7.4418 C   0  0  0  0  0  0  0  0  0  0  0  0
   27.8703  -20.4655   -7.7454 C   0  0  0  0  0  0  0  0  0  0  0  0
   25.6281  -20.4238  -11.3683 C   0  0  0  0  0  0  0  0  0  0  0  0
   25.7968  -19.1845  -11.4220 O   0  0  0  0  0  0  0  0  0  0  0  0
   24.2998  -20.9200  -11.3662 N   0  0  0  0  0  0  0  0  0  0  0  0
   23.1200  -20.0633  -11.4462 C   0  0  1  0  0  0  0  0  0  0  0  0
   23.1623  -19.2598  -12.7136 C   0  0  0  0  0  0  0  0  0  0  0  0
   22.7900  -20.0687  -13.8760 C   0  0  0  0  0  0  0  0  0  0  0  0
   23.7724  -20.4163  -14.7991 C   0  0  0  0  0  0  0  0  0  0  0  0
   23.5033  -21.1719  -15.9052 C   0  0  0  0  0  0  0  0  0  0  0  0
   22.2073  -21.6010  -16.1053 C   0  0  0  0  0  0  0  0  0  0  0  0
   21.2013  -21.2827  -15.2196 C   0  0  0  0  0  0  0  0  0  0  0  0
   21.5101  -20.5197  -14.1164 C   0  0  0  0  0  0  0  0  0  0  0  0
   21.9207  -20.8807  -11.2707 C   0  0  0  0  0  0  0  0  0  0  0  0
   20.6412  -20.3750  -11.0887 O   0  0  0  0  0  0  0  0  0  0  0  0
   22.0280  -22.1413  -11.2807 O   0  0  0  0  0  0  0  0  0  0  0  0
  2  1  1  6
  3  4  1  0
  3  2  1  0
  4  5  1  0
  5  6  2  0
  5  9  1  0
  7  8  2  0
  7  2  1  0
 10  7  1  0
 11 10  1  0
 11 12  1  1
 12 13  1  0
 13 14  2  0
 13 21  1  0
 14 15  1  0
 15 16  1  0
 16 17  2  0
 18 17  1  0
 19 18  2  0
 20 21  2  0
 20 19  1  0
 21 16  1  0
 22 11  1  0
 23 22  2  0
 24 22  1  0
 25 33  1  0
 25 24  1  0
 25 26  1  6
 26 27  1  0
 27 28  2  0
 28 29  1  0
 30 29  2  0
 31 30  1  0
 32 27  1  0
 32 31  2  0
 33 34  1  0
 35 33  2  0
M  END
$$$$
