EWF.pdb
     RDKit          3D

 35 37  0  0  1  0  0  0  0  0999 V2000
   25.9361  -20.3602  -15.2905 N   0  0  0  0  0  0  0  0  0  0  0  0
   26.0273  -21.7746  -14.9124 C   0  0  1  0  0  0  0  0  0  0  0  0
   27.4530  -22.1789  -15.1460 C   0  0  0  0  0  0  0  0  0  0  0  0
   28.4000  -21.0185  -15.2312 C   0  0  0  0  0  0  0  0  0  0  0  0
   28.7612  -20.8740  -16.6816 C   0  0  0  0  0  0  0  0  0  0  0  0
   28.4222  -19.8198  -17.2515 O   0  0  0  0  0  0  0  0  0  0  0  0
   25.7087  -21.9359  -13.4744 C   0  0  0  0  0  0  0  0  0  0  0  0
   25.6844  -23.0441  -12.9423 O   0  0  0  0  0  0  0  0  0  0  0  0
   29.4413  -21.8468  -17.3930 O   0  0  0  0  0  0  0  0  0  0  0  0
   25.4199  -20.8059  -12.6643 N   0  0  0  0  0  0  0  0  0  0  0  0
   24.9595  -20.9129  -11.2739 C   0  0  1  0  0  0  0  0  0  0  0  0
   25.8707  -20.0325  -10.4660 C   0  0  0  0  0  0  0  0  0  0  0  0
   27.1104  -20.6552  -10.0218 C   0  0  0  0  0  0  0  0  0  0  0  0
   27.8935  -21.5498  -10.7151 C   0  0  0  0  0  0  0  0  0  0  0  0
   28.9534  -21.8674   -9.9145 N   0  0  0  0  0  0  0  0  0  0  0  0
   28.8502  -21.1996   -8.7534 C   0  0  0  0  0  0  0  0  0  0  0  0
   29.6786  -21.2054   -7.6553 C   0  0  0  0  0  0  0  0  0  0  0  0
   29.3765  -20.4276   -6.5448 C   0  0  0  0  0  0  0  0  0  0  0  0
   28.2430  -19.6626   -6.5723 C   0  0  0  0  0  0  0  0  0  0  0  0
   27.4197  -19.6649   -7.6797 C   0  0  0  0  0  0  0  0  0  0  0  0
   27.7105  -20.4400   -8.8003 C   0  0  0  0  0  0  0  0  0  0  0  0
   23.5401  -20.4955  -11.2258 C   0  0  0  0  0  0  0  0  0  0  0  0
   23.2585  -19.2760  -11.2497 O   0  0  0  0  0  0  0  0  0  0  0  0
   22.4746  -21.4282  -11.1527 N   0  0  0  0  0  0  0  0  0  0  0  0
   21.2411  -21.3038  -11.9241 C   0  0  1  0  0  0  0  0  0  0  0  0
   21.5517  -21.3747  -13.3912 C   0  0  0  0  0  0  0  0  0  0  0  0
   20.3412  -21.2416  -14.2043 C   0  0  0  0  0  0  0  0  0  0  0  0
   19.6835  -22.3928  -14.6292 C   0  0  0  0  0  0  0  0  0  0  0  0
   18.5470  -22.3495  -15.3861 C   0  0  0  0  0  0  0  0  0  0  0  0
   18.0407  -21.1147  -15.7368 C   0  0  0  0  0  0  0  0  0  0  0  0
   18.6561  -19.9478  -15.3399 C   0  0  0  0  0  0  0  0  0  0  0  0
   19.7994  -20.0308  -14.5780 C   0  0  0  0  0  0  0  0  0  0  0  0
   20.2750  -22.2918  -11.4470 C   0  0  0  0  0  0  0  0  0  0  0  0
   20.5731  -23.6200  -11.1769 O   0  0  0  0  0  0  0  0  0  0  0  0
   19.0748  -21.9383  -11.2588 O   0  0  0  0  0  0  0  0  0  0  0  0
  2  1  1  1
  3  4  1  0
  3  2  1  0
  4  5  1  0
  5  6  2  0
  5  9  1  0
  7  8  2  0
  7  2  1  0
 10  7  1  0
 11 10  1  0
 11 12  1  1
 12 13  1  0
 13 14  2  0
 13 21  1  0
 14 15  1  0
 15 16  1  0
 16 17  2  0
 18 17  1  0
 19 18  2  0
 20 21  2  0
 20 19  1  0
 21 16  1  0
 22 11  1  0
 23 22  2  0
 24 22  1  0
 25 33  1  0
 25 24  1  0
 25 26  1  6
 26 27  1  0
 27 28  2  0
 28 29  1  0
 30 29  2  0
 31 30  1  0
 32 27  1  0
 32 31  2  0
 33 34  1  0
 35 33  2  0
M  END
$$$$
