EWF.pdb
     RDKit          3D

 35 37  0  0  1  0  0  0  0  0999 V2000
   26.6307  -22.4455  -17.5693 N   0  0  0  0  0  0  0  0  0  0  0  0
   27.6093  -21.8939  -16.6259 C   0  0  1  0  0  0  0  0  0  0  0  0
   28.6130  -21.1469  -17.4535 C   0  0  0  0  0  0  0  0  0  0  0  0
   30.0256  -21.3082  -16.9746 C   0  0  0  0  0  0  0  0  0  0  0  0
   30.5011  -22.6319  -17.5005 C   0  0  0  0  0  0  0  0  0  0  0  0
   30.2705  -23.6384  -16.8043 O   0  0  0  0  0  0  0  0  0  0  0  0
   26.9434  -20.9460  -15.7021 C   0  0  0  0  0  0  0  0  0  0  0  0
   26.7543  -19.7716  -16.0132 O   0  0  0  0  0  0  0  0  0  0  0  0
   31.1715  -22.7722  -18.7030 O   0  0  0  0  0  0  0  0  0  0  0  0
   26.5017  -21.3712  -14.4211 N   0  0  0  0  0  0  0  0  0  0  0  0
   25.4620  -20.6689  -13.6578 C   0  0  1  0  0  0  0  0  0  0  0  0
   24.1836  -20.8605  -14.4240 C   0  0  0  0  0  0  0  0  0  0  0  0
   23.0600  -20.0468  -13.9799 C   0  0  0  0  0  0  0  0  0  0  0  0
   22.7949  -18.7361  -14.3052 C   0  0  0  0  0  0  0  0  0  0  0  0
   21.6425  -18.3832  -13.6628 N   0  0  0  0  0  0  0  0  0  0  0  0
   21.1891  -19.4307  -12.9542 C   0  0  0  0  0  0  0  0  0  0  0  0
   20.0729  -19.5408  -12.1580 C   0  0  0  0  0  0  0  0  0  0  0  0
   19.7905  -20.7351  -11.5074 C   0  0  0  0  0  0  0  0  0  0  0  0
   20.6448  -21.7895  -11.6783 C   0  0  0  0  0  0  0  0  0  0  0  0
   21.7615  -21.6671  -12.4798 C   0  0  0  0  0  0  0  0  0  0  0  0
   22.0568  -20.4753  -13.1382 C   0  0  0  0  0  0  0  0  0  0  0  0
   25.4249  -21.2439  -12.2942 C   0  0  0  0  0  0  0  0  0  0  0  0
   25.3616  -22.4863  -12.1543 O   0  0  0  0  0  0  0  0  0  0  0  0
   25.4579  -20.4387  -11.1276 N   0  0  0  0  0  0  0  0  0  0  0  0
   25.2498  -20.9633   -9.7809 C   0  0  1  0  0  0  0  0  0  0  0  0
   26.0728  -20.1803   -8.7993 C   0  0  0  0  0  0  0  0  0  0  0  0
   27.4934  -20.5223   -8.8952 C   0  0  0  0  0  0  0  0  0  0  0  0
   28.3998  -19.8832   -8.0535 C   0  0  0  0  0  0  0  0  0  0  0  0
   29.7390  -20.1520   -8.0807 C   0  0  0  0  0  0  0  0  0  0  0  0
   30.1999  -21.0927   -8.9788 C   0  0  0  0  0  0  0  0  0  0  0  0
   29.3415  -21.7515   -9.8315 C   0  0  0  0  0  0  0  0  0  0  0  0
   27.9986  -21.4545   -9.7754 C   0  0  0  0  0  0  0  0  0  0  0  0
   23.8162  -21.0005   -9.4965 C   0  0  0  0  0  0  0  0  0  0  0  0
   23.2196  -21.8300   -8.5574 O   0  0  0  0  0  0  0  0  0  0  0  0
   23.0413  -20.2330  -10.1377 O   0  0  0  0  0  0  0  0  0  0  0  0
  2  1  1  6
  3  4  1  0
  3  2  1  0
  4  5  1  0
  5  6  2  0
  5  9  1  0
  7  8  2  0
  7  2  1  0
 10  7  1  0
 11 10  1  0
 11 12  1  6
 12 13  1  0
 13 14  2  0
 13 21  1  0
 14 15  1  0
 15 16  1  0
 16 17  2  0
 18 17  1  0
 19 18  2  0
 20 21  2  0
 20 19  1  0
 21 16  1  0
 22 11  1  0
 23 22  2  0
 24 22  1  0
 25 33  1  0
 25 24  1  0
 25 26  1  1
 26 27  1  0
 27 28  2  0
 28 29  1  0
 30 29  2  0
 31 30  1  0
 32 27  1  0
 32 31  2  0
 33 34  1  0
 35 33  2  0
M  END
$$$$
