LVW.pdb
     RDKit          3D

 30 31  0  0  1  0  0  0  0  0999 V2000
    7.1732  -11.9765   20.2037 C   0  0  0  0  0  0  0  0  0  0  0  0
    7.7131  -13.2084   19.5120 C   0  0  1  0  0  0  0  0  0  0  0  0
    9.0017  -12.8519   18.8318 C   0  0  0  0  0  0  0  0  0  0  0  0
    7.8492  -14.3793   20.4482 C   0  0  0  0  0  0  0  0  0  0  0  0
    8.3630  -15.5981   19.7530 C   0  0  2  0  0  0  0  0  0  0  0  0
    7.4913  -16.0261   18.6893 N   0  0  0  0  0  0  0  0  0  0  0  0
    8.7287  -16.6930   20.6691 C   0  0  0  0  0  0  0  0  0  0  0  0
    7.8504  -17.4816   21.1175 O   0  0  0  0  0  0  0  0  0  0  0  0
   11.5155  -19.3334   20.4293 C   0  0  0  0  0  0  0  0  0  0  0  0
   11.7133  -18.5131   21.6639 C   0  0  2  0  0  0  0  0  0  0  0  0
   12.2405  -19.4392   22.7673 C   0  0  0  0  0  0  0  0  0  0  0  0
   10.4421  -17.8362   22.1196 C   0  0  2  0  0  0  0  0  0  0  0  0
   10.0548  -16.9000   21.0759 N   0  0  0  0  0  0  0  0  0  0  0  0
   10.6828  -17.0524   23.3774 C   0  0  0  0  0  0  0  0  0  0  0  0
   11.3847  -16.0212   23.3443 O   0  0  0  0  0  0  0  0  0  0  0  0
   10.1196  -17.4742   24.6053 N   0  0  0  0  0  0  0  0  0  0  0  0
   10.3250  -16.6577   25.8122 C   0  0  1  0  0  0  0  0  0  0  0  0
    9.9727  -15.2390   25.5045 C   0  0  0  0  0  0  0  0  0  0  0  0
    8.5412  -14.9784   25.5456 C   0  0  0  0  0  0  0  0  0  0  0  0
    7.5105  -15.8848   25.2466 C   0  0  0  0  0  0  0  0  0  0  0  0
    6.3254  -15.2751   25.3654 N   0  0  0  0  0  0  0  0  0  0  0  0
    6.5250  -13.9841   25.7364 C   0  0  0  0  0  0  0  0  0  0  0  0
    5.5989  -12.9760   25.9951 C   0  0  0  0  0  0  0  0  0  0  0  0
    6.0333  -11.7283   26.3829 C   0  0  0  0  0  0  0  0  0  0  0  0
    7.3881  -11.5276   26.5004 C   0  0  0  0  0  0  0  0  0  0  0  0
    8.2919  -12.5323   26.2412 C   0  0  0  0  0  0  0  0  0  0  0  0
    7.8856  -13.7954   25.8494 C   0  0  0  0  0  0  0  0  0  0  0  0
    9.7006  -17.2633   26.9697 C   0  0  0  0  0  0  0  0  0  0  0  0
    8.9183  -18.2353   26.9529 O   0  0  0  0  0  0  0  0  0  0  0  0
    9.9799  -16.7322   28.2381 O   0  0  0  0  0  0  0  0  0  0  0  0
  2  1  1  1
  3  2  1  0
  4  2  1  0
  5  4  1  0
  5  6  1  6
  7  5  1  0
  7  8  2  0
 10  9  1  6
 10 12  1  0
 11 10  1  0
 12 13  1  6
 13  7  1  0
 14 12  1  0
 15 14  2  0
 16 14  1  0
 17 16  1  0
 17 28  1  0
 18 19  1  0
 17 18  1  6
 19 27  1  0
 20 21  1  0
 20 19  2  0
 21 22  1  0
 22 27  2  0
 22 23  1  0
 23 24  2  0
 24 25  1  0
 26 25  2  0
 27 26  1  0
 28 30  1  0
 29 28  2  0
M  END
$$$$
