LVW.pdb
     RDKit          3D

 30 31  0  0  1  0  0  0  0  0999 V2000
    8.6879  -20.1150   16.1948 C   0  0  0  0  0  0  0  0  0  0  0  0
    8.3009  -19.9101   17.6425 C   0  0  1  0  0  0  0  0  0  0  0  0
    8.2588  -21.2465   18.3225 C   0  0  0  0  0  0  0  0  0  0  0  0
    9.1979  -18.9245   18.3426 C   0  0  0  0  0  0  0  0  0  0  0  0
    8.7178  -18.6088   19.7219 C   0  0  2  0  0  0  0  0  0  0  0  0
    7.3068  -18.8534   19.8764 N   0  0  0  0  0  0  0  0  0  0  0  0
    9.1234  -17.2751   20.1998 C   0  0  0  0  0  0  0  0  0  0  0  0
   10.3152  -16.8775   20.0727 O   0  0  0  0  0  0  0  0  0  0  0  0
    7.1154  -14.1598   19.4034 C   0  0  0  0  0  0  0  0  0  0  0  0
    7.3886  -14.1623   20.8736 C   0  0  2  0  0  0  0  0  0  0  0  0
    7.6798  -12.7187   21.3028 C   0  0  0  0  0  0  0  0  0  0  0  0
    8.5475  -15.0569   21.2460 C   0  0  2  0  0  0  0  0  0  0  0  0
    8.2101  -16.4028   20.8096 N   0  0  0  0  0  0  0  0  0  0  0  0
    8.7340  -15.0871   22.7355 C   0  0  0  0  0  0  0  0  0  0  0  0
    7.8382  -14.6472   23.4846 O   0  0  0  0  0  0  0  0  0  0  0  0
    9.9211  -15.6111   23.3002 N   0  0  0  0  0  0  0  0  0  0  0  0
   10.1061  -15.5694   24.7595 C   0  0  1  0  0  0  0  0  0  0  0  0
    8.9342  -16.2226   25.4165 C   0  0  0  0  0  0  0  0  0  0  0  0
    7.7958  -15.3309   25.5835 C   0  0  0  0  0  0  0  0  0  0  0  0
    6.4625  -15.5902   25.2256 C   0  0  0  0  0  0  0  0  0  0  0  0
    5.7055  -14.5223   25.5030 N   0  0  0  0  0  0  0  0  0  0  0  0
    6.4878  -13.5499   26.0383 C   0  0  0  0  0  0  0  0  0  0  0  0
    6.1458  -12.2784   26.4935 C   0  0  0  0  0  0  0  0  0  0  0  0
    7.1144  -11.4564   27.0246 C   0  0  0  0  0  0  0  0  0  0  0  0
    8.4015  -11.9352   27.0838 C   0  0  0  0  0  0  0  0  0  0  0  0
    8.7254  -13.1931   26.6299 C   0  0  0  0  0  0  0  0  0  0  0  0
    7.7745  -14.0411   26.0910 C   0  0  0  0  0  0  0  0  0  0  0  0
   11.4251  -16.0332   25.1361 C   0  0  0  0  0  0  0  0  0  0  0  0
   12.2949  -16.4728   24.3569 O   0  0  0  0  0  0  0  0  0  0  0  0
   11.7875  -15.9980   26.4912 O   0  0  0  0  0  0  0  0  0  0  0  0
  2  1  1  6
  3  2  1  0
  4  2  1  0
  5  4  1  0
  5  6  1  6
  7  5  1  0
  7  8  2  0
 10  9  1  6
 10 12  1  0
 11 10  1  0
 12 13  1  1
 13  7  1  0
 14 12  1  0
 15 14  2  0
 16 14  1  0
 17 16  1  0
 17 28  1  0
 18 19  1  0
 17 18  1  1
 19 27  1  0
 20 21  1  0
 20 19  2  0
 21 22  1  0
 22 27  2  0
 22 23  1  0
 23 24  2  0
 24 25  1  0
 26 25  2  0
 27 26  1  0
 28 30  1  0
 29 28  2  0
M  END
$$$$
