LVW.pdb
     RDKit          3D

 30 31  0  0  1  0  0  0  0  0999 V2000
    8.4924  -20.4302   16.0518 C   0  0  0  0  0  0  0  0  0  0  0  0
    8.5281  -20.3292   17.5605 C   0  0  1  0  0  0  0  0  0  0  0  0
    9.2852  -21.5050   18.1032 C   0  0  0  0  0  0  0  0  0  0  0  0
    9.0764  -19.0099   18.0348 C   0  0  0  0  0  0  0  0  0  0  0  0
    9.0206  -18.8801   19.5223 C   0  0  2  0  0  0  0  0  0  0  0  0
    7.7519  -19.3013   20.0582 N   0  0  0  0  0  0  0  0  0  0  0  0
    9.4408  -17.5574   20.0179 C   0  0  0  0  0  0  0  0  0  0  0  0
   10.6039  -17.1213   19.7908 O   0  0  0  0  0  0  0  0  0  0  0  0
    6.7852  -14.6229   19.9758 C   0  0  0  0  0  0  0  0  0  0  0  0
    7.5633  -14.6334   21.2528 C   0  0  2  0  0  0  0  0  0  0  0  0
    7.8098  -13.1774   21.6681 C   0  0  0  0  0  0  0  0  0  0  0  0
    8.8788  -15.3647   21.1237 C   0  0  2  0  0  0  0  0  0  0  0  0
    8.5734  -16.7383   20.7551 N   0  0  0  0  0  0  0  0  0  0  0  0
    9.6009  -15.3890   22.4398 C   0  0  0  0  0  0  0  0  0  0  0  0
   10.5210  -14.5755   22.6608 O   0  0  0  0  0  0  0  0  0  0  0  0
    9.2472  -16.3301   23.4358 N   0  0  0  0  0  0  0  0  0  0  0  0
    9.9691  -16.3301   24.7182 C   0  0  1  0  0  0  0  0  0  0  0  0
    9.8272  -14.9865   25.3554 C   0  0  0  0  0  0  0  0  0  0  0  0
    8.4925  -14.7347   25.8789 C   0  0  0  0  0  0  0  0  0  0  0  0
    7.4338  -15.6539   25.9657 C   0  0  0  0  0  0  0  0  0  0  0  0
    6.3526  -15.0498   26.4719 N   0  0  0  0  0  0  0  0  0  0  0  0
    6.6497  -13.7502   26.7304 C   0  0  0  0  0  0  0  0  0  0  0  0
    5.8544  -12.7431   27.2728 C   0  0  0  0  0  0  0  0  0  0  0  0
    6.3786  -11.4849   27.4675 C   0  0  0  0  0  0  0  0  0  0  0  0
    7.6892  -11.2728   27.1114 C   0  0  0  0  0  0  0  0  0  0  0  0
    8.4633  -12.2766   26.5761 C   0  0  0  0  0  0  0  0  0  0  0  0
    7.9645  -13.5501   26.3683 C   0  0  0  0  0  0  0  0  0  0  0  0
    9.6220  -17.4866   25.5172 C   0  0  0  0  0  0  0  0  0  0  0  0
    9.9876  -17.7000   26.6910 O   0  0  0  0  0  0  0  0  0  0  0  0
    8.8028  -18.4740   24.9488 O   0  0  0  0  0  0  0  0  0  0  0  0
  2  1  1  6
  3  2  1  0
  4  2  1  0
  5  4  1  0
  5  6  1  6
  7  5  1  0
  7  8  2  0
 10  9  1  6
 10 12  1  0
 11 10  1  0
 12 13  1  1
 13  7  1  0
 14 12  1  0
 15 14  2  0
 16 14  1  0
 17 16  1  0
 17 28  1  0
 18 19  1  0
 17 18  1  1
 19 27  1  0
 20 21  1  0
 20 19  2  0
 21 22  1  0
 22 27  2  0
 22 23  1  0
 23 24  2  0
 24 25  1  0
 26 25  2  0
 27 26  1  0
 28 30  1  0
 29 28  2  0
M  END
$$$$
