LVW.pdb
     RDKit          3D

 30 31  0  0  1  0  0  0  0  0999 V2000
    6.3449  -21.9434   23.3246 C   0  0  0  0  0  0  0  0  0  0  0  0
    6.0465  -20.5474   23.8246 C   0  0  1  0  0  0  0  0  0  0  0  0
    5.8340  -20.6037   25.3085 C   0  0  0  0  0  0  0  0  0  0  0  0
    7.1041  -19.5549   23.4215 C   0  0  0  0  0  0  0  0  0  0  0  0
    6.8429  -18.9730   22.0702 C   0  0  2  0  0  0  0  0  0  0  0  0
    6.7441  -19.9860   21.0512 N   0  0  0  0  0  0  0  0  0  0  0  0
    7.7650  -17.8827   21.7062 C   0  0  0  0  0  0  0  0  0  0  0  0
    8.9247  -18.1337   21.2742 O   0  0  0  0  0  0  0  0  0  0  0  0
    6.7576  -14.5762   19.7730 C   0  0  0  0  0  0  0  0  0  0  0  0
    7.4467  -14.2728   21.0649 C   0  0  2  0  0  0  0  0  0  0  0  0
    8.3207  -13.0299   20.8541 C   0  0  0  0  0  0  0  0  0  0  0  0
    8.2935  -15.4242   21.5542 C   0  0  2  0  0  0  0  0  0  0  0  0
    7.3945  -16.5352   21.8248 N   0  0  0  0  0  0  0  0  0  0  0  0
    8.9831  -15.0643   22.8384 C   0  0  0  0  0  0  0  0  0  0  0  0
    9.2427  -13.8705   23.0929 O   0  0  0  0  0  0  0  0  0  0  0  0
    9.3436  -16.0702   23.7664 N   0  0  0  0  0  0  0  0  0  0  0  0
   10.3439  -15.7708   24.8034 C   0  0  1  0  0  0  0  0  0  0  0  0
    9.8447  -14.6450   25.6490 C   0  0  0  0  0  0  0  0  0  0  0  0
    8.4033  -14.6701   25.8501 C   0  0  0  0  0  0  0  0  0  0  0  0
    7.5583  -15.7882   25.7553 C   0  0  0  0  0  0  0  0  0  0  0  0
    6.2919  -15.4162   25.9749 N   0  0  0  0  0  0  0  0  0  0  0  0
    6.2566  -14.0803   26.2161 C   0  0  0  0  0  0  0  0  0  0  0  0
    5.1740  -13.2543   26.5103 C   0  0  0  0  0  0  0  0  0  0  0  0
    5.3778  -11.9124   26.7418 C   0  0  0  0  0  0  0  0  0  0  0  0
    6.6655  -11.4367   26.6712 C   0  0  0  0  0  0  0  0  0  0  0  0
    7.7257  -12.2637   26.3790 C   0  0  0  0  0  0  0  0  0  0  0  0
    7.5520  -13.6155   26.1412 C   0  0  0  0  0  0  0  0  0  0  0  0
   10.7736  -16.9750   25.4830 C   0  0  0  0  0  0  0  0  0  0  0  0
   11.6607  -17.0431   26.3579 O   0  0  0  0  0  0  0  0  0  0  0  0
   10.1566  -18.1904   25.1497 O   0  0  0  0  0  0  0  0  0  0  0  0
  2  1  1  1
  3  2  1  0
  4  2  1  0
  5  4  1  0
  5  6  1  6
  7  5  1  0
  7  8  2  0
 10  9  1  6
 10 12  1  0
 11 10  1  0
 12 13  1  1
 13  7  1  0
 14 12  1  0
 15 14  2  0
 16 14  1  0
 17 16  1  0
 17 28  1  0
 18 19  1  0
 17 18  1  1
 19 27  1  0
 20 21  1  0
 20 19  2  0
 21 22  1  0
 22 27  2  0
 22 23  1  0
 23 24  2  0
 24 25  1  0
 26 25  2  0
 27 26  1  0
 28 30  1  0
 29 28  2  0
M  END
$$$$
