LVW.pdb
     RDKit          3D

 30 31  0  0  1  0  0  0  0  0999 V2000
    6.9727  -12.4270   19.8387 C   0  0  0  0  0  0  0  0  0  0  0  0
    7.6151  -13.6998   19.3337 C   0  0  1  0  0  0  0  0  0  0  0  0
    8.8325  -13.3394   18.5348 C   0  0  0  0  0  0  0  0  0  0  0  0
    7.9095  -14.6737   20.4432 C   0  0  0  0  0  0  0  0  0  0  0  0
    8.6186  -15.8922   19.9480 C   0  0  2  0  0  0  0  0  0  0  0  0
    7.8878  -16.5597   18.9017 N   0  0  0  0  0  0  0  0  0  0  0  0
    9.0452  -16.8069   21.0218 C   0  0  0  0  0  0  0  0  0  0  0  0
    8.2910  -17.7410   21.4132 O   0  0  0  0  0  0  0  0  0  0  0  0
   12.6814  -18.2008   21.3552 C   0  0  0  0  0  0  0  0  0  0  0  0
   12.2341  -17.6277   22.6620 C   0  0  2  0  0  0  0  0  0  0  0  0
   12.7609  -18.5349   23.7812 C   0  0  0  0  0  0  0  0  0  0  0  0
   10.7313  -17.5070   22.7577 C   0  0  2  0  0  0  0  0  0  0  0  0
   10.2944  -16.6770   21.6460 N   0  0  0  0  0  0  0  0  0  0  0  0
   10.3370  -16.8177   24.0319 C   0  0  0  0  0  0  0  0  0  0  0  0
    9.8831  -15.6558   23.9971 O   0  0  0  0  0  0  0  0  0  0  0  0
   10.4765  -17.4755   25.2772 N   0  0  0  0  0  0  0  0  0  0  0  0
    9.5668  -17.1312   26.3816 C   0  0  1  0  0  0  0  0  0  0  0  0
    8.1562  -17.2948   25.9178 C   0  0  0  0  0  0  0  0  0  0  0  0
    7.4722  -16.0294   25.6947 C   0  0  0  0  0  0  0  0  0  0  0  0
    6.3756  -15.8021   24.8469 C   0  0  0  0  0  0  0  0  0  0  0  0
    6.0414  -14.5068   24.8795 N   0  0  0  0  0  0  0  0  0  0  0  0
    6.8793  -13.8528   25.7247 C   0  0  0  0  0  0  0  0  0  0  0  0
    6.9091  -12.5086   26.0897 C   0  0  0  0  0  0  0  0  0  0  0  0
    7.8486  -12.0636   26.9925 C   0  0  0  0  0  0  0  0  0  0  0  0
    8.7334  -12.9826   27.5045 C   0  0  0  0  0  0  0  0  0  0  0  0
    8.6930  -14.3073   27.1347 C   0  0  0  0  0  0  0  0  0  0  0  0
    7.7613  -14.7837   26.2298 C   0  0  0  0  0  0  0  0  0  0  0  0
    9.9479  -17.8036   27.6060 C   0  0  0  0  0  0  0  0  0  0  0  0
    9.4527  -17.6037   28.7337 O   0  0  0  0  0  0  0  0  0  0  0  0
   10.9623  -18.7717   27.5526 O   0  0  0  0  0  0  0  0  0  0  0  0
  2  1  1  1
  3  2  1  0
  4  2  1  0
  5  4  1  0
  5  6  1  6
  7  5  1  0
  7  8  2  0
 10  9  1  6
 10 12  1  0
 11 10  1  0
 12 13  1  6
 13  7  1  0
 14 12  1  0
 15 14  2  0
 16 14  1  0
 17 16  1  0
 17 28  1  0
 18 19  1  0
 17 18  1  6
 19 27  1  0
 20 21  1  0
 20 19  2  0
 21 22  1  0
 22 27  2  0
 22 23  1  0
 23 24  2  0
 24 25  1  0
 26 25  2  0
 27 26  1  0
 28 30  1  0
 29 28  2  0
M  END
$$$$
