LVW.pdb
     RDKit          3D

 30 31  0  0  1  0  0  0  0  0999 V2000
    8.0262  -11.9210   19.2928 C   0  0  0  0  0  0  0  0  0  0  0  0
    8.3213  -13.3385   18.8556 C   0  0  1  0  0  0  0  0  0  0  0  0
    9.6357  -13.3548   18.1330 C   0  0  0  0  0  0  0  0  0  0  0  0
    8.2698  -14.3148   20.0002 C   0  0  0  0  0  0  0  0  0  0  0  0
    8.6574  -15.6952   19.5795 C   0  0  2  0  0  0  0  0  0  0  0  0
    7.7783  -16.2229   18.5680 N   0  0  0  0  0  0  0  0  0  0  0  0
    8.8567  -16.6241   20.7060 C   0  0  0  0  0  0  0  0  0  0  0  0
    7.8708  -17.1658   21.2797 O   0  0  0  0  0  0  0  0  0  0  0  0
   11.2987  -19.5402   20.6694 C   0  0  0  0  0  0  0  0  0  0  0  0
   11.5677  -18.7160   21.8878 C   0  0  2  0  0  0  0  0  0  0  0  0
   11.9293  -19.6700   23.0334 C   0  0  0  0  0  0  0  0  0  0  0  0
   10.3868  -17.8598   22.2804 C   0  0  2  0  0  0  0  0  0  0  0  0
   10.1378  -16.9398   21.1815 N   0  0  0  0  0  0  0  0  0  0  0  0
   10.7070  -17.0460   23.5009 C   0  0  0  0  0  0  0  0  0  0  0  0
   11.4664  -16.0599   23.4106 O   0  0  0  0  0  0  0  0  0  0  0  0
   10.1542  -17.3885   24.7579 N   0  0  0  0  0  0  0  0  0  0  0  0
   10.3996  -16.5153   25.9166 C   0  0  1  0  0  0  0  0  0  0  0  0
    9.8566  -15.1549   25.6232 C   0  0  0  0  0  0  0  0  0  0  0  0
    8.4292  -15.0356   25.8823 C   0  0  0  0  0  0  0  0  0  0  0  0
    7.4776  -16.0684   25.8508 C   0  0  0  0  0  0  0  0  0  0  0  0
    6.2632  -15.5706   26.1108 N   0  0  0  0  0  0  0  0  0  0  0  0
    6.3663  -14.2324   26.3178 C   0  0  0  0  0  0  0  0  0  0  0  0
    5.3813  -13.2990   26.6330 C   0  0  0  0  0  0  0  0  0  0  0  0
    5.7225  -11.9784   26.8206 C   0  0  0  0  0  0  0  0  0  0  0  0
    7.0458  -11.6314   26.6862 C   0  0  0  0  0  0  0  0  0  0  0  0
    8.0084  -12.5637   26.3739 C   0  0  0  0  0  0  0  0  0  0  0  0
    7.6960  -13.8972   26.1791 C   0  0  0  0  0  0  0  0  0  0  0  0
    9.9813  -17.1480   27.1500 C   0  0  0  0  0  0  0  0  0  0  0  0
    9.3050  -18.1925   27.2425 O   0  0  0  0  0  0  0  0  0  0  0  0
   10.3539  -16.5576   28.3673 O   0  0  0  0  0  0  0  0  0  0  0  0
  2  1  1  1
  3  2  1  0
  4  2  1  0
  5  4  1  0
  5  6  1  6
  7  5  1  0
  7  8  2  0
 10  9  1  6
 10 12  1  0
 11 10  1  0
 12 13  1  6
 13  7  1  0
 14 12  1  0
 15 14  2  0
 16 14  1  0
 17 16  1  0
 17 28  1  0
 18 19  1  0
 17 18  1  6
 19 27  1  0
 20 21  1  0
 20 19  2  0
 21 22  1  0
 22 27  2  0
 22 23  1  0
 23 24  2  0
 24 25  1  0
 26 25  2  0
 27 26  1  0
 28 30  1  0
 29 28  2  0
M  END
$$$$
