LVW.pdb
     RDKit          3D

 30 31  0  0  1  0  0  0  0  0999 V2000
    5.8638  -21.6931   22.8622 C   0  0  0  0  0  0  0  0  0  0  0  0
    5.7987  -20.8225   21.6271 C   0  0  1  0  0  0  0  0  0  0  0  0
    4.3745  -20.4064   21.4069 C   0  0  0  0  0  0  0  0  0  0  0  0
    6.7461  -19.6547   21.6972 C   0  0  0  0  0  0  0  0  0  0  0  0
    6.6315  -18.7654   20.5020 C   0  0  2  0  0  0  0  0  0  0  0  0
    6.7142  -19.5008   19.2664 N   0  0  0  0  0  0  0  0  0  0  0  0
    7.5376  -17.6038   20.5386 C   0  0  0  0  0  0  0  0  0  0  0  0
    8.7570  -17.7250   20.2338 O   0  0  0  0  0  0  0  0  0  0  0  0
    6.7340  -14.0593   19.1849 C   0  0  0  0  0  0  0  0  0  0  0  0
    7.1750  -13.9628   20.6105 C   0  0  2  0  0  0  0  0  0  0  0  0
    8.0333  -12.6997   20.7553 C   0  0  0  0  0  0  0  0  0  0  0  0
    7.9579  -15.1748   21.0581 C   0  0  2  0  0  0  0  0  0  0  0  0
    7.0855  -16.3294   20.9106 N   0  0  0  0  0  0  0  0  0  0  0  0
    8.3286  -15.0580   22.5084 C   0  0  0  0  0  0  0  0  0  0  0  0
    7.5117  -14.5842   23.3241 O   0  0  0  0  0  0  0  0  0  0  0  0
    9.6011  -15.4809   22.9607 N   0  0  0  0  0  0  0  0  0  0  0  0
    9.9607  -15.3012   24.3763 C   0  0  1  0  0  0  0  0  0  0  0  0
    9.0047  -16.0768   25.2225 C   0  0  0  0  0  0  0  0  0  0  0  0
    7.7539  -15.3748   25.4708 C   0  0  0  0  0  0  0  0  0  0  0  0
    6.4655  -15.7898   25.0956 C   0  0  0  0  0  0  0  0  0  0  0  0
    5.5689  -14.8691   25.4681 N   0  0  0  0  0  0  0  0  0  0  0  0
    6.2134  -13.8450   26.0845 C   0  0  0  0  0  0  0  0  0  0  0  0
    5.7015  -12.6797   26.6509 C   0  0  0  0  0  0  0  0  0  0  0  0
    6.5516  -11.7769   27.2492 C   0  0  0  0  0  0  0  0  0  0  0  0
    7.8945  -12.0701   27.2621 C   0  0  0  0  0  0  0  0  0  0  0  0
    8.3866  -13.2248   26.6983 C   0  0  0  0  0  0  0  0  0  0  0  0
    7.5575  -14.1501   26.0898 C   0  0  0  0  0  0  0  0  0  0  0  0
   11.3748  -15.5251   24.5924 C   0  0  0  0  0  0  0  0  0  0  0  0
   12.2029  -15.8604   23.7213 O   0  0  0  0  0  0  0  0  0  0  0  0
   11.8908  -15.3583   25.8866 O   0  0  0  0  0  0  0  0  0  0  0  0
  2  1  1  1
  3  2  1  0
  4  2  1  0
  5  4  1  0
  5  6  1  6
  7  5  1  0
  7  8  2  0
 10  9  1  6
 10 12  1  0
 11 10  1  0
 12 13  1  1
 13  7  1  0
 14 12  1  0
 15 14  2  0
 16 14  1  0
 17 16  1  0
 17 28  1  0
 18 19  1  0
 17 18  1  1
 19 27  1  0
 20 21  1  0
 20 19  2  0
 21 22  1  0
 22 27  2  0
 22 23  1  0
 23 24  2  0
 24 25  1  0
 26 25  2  0
 27 26  1  0
 28 30  1  0
 29 28  2  0
M  END
$$$$
