LVW.pdb
     RDKit          3D

 30 31  0  0  1  0  0  0  0  0999 V2000
    6.8844  -13.1170   20.7257 C   0  0  0  0  0  0  0  0  0  0  0  0
    7.9077  -13.3701   19.6411 C   0  0  1  0  0  0  0  0  0  0  0  0
    8.4913  -12.0556   19.2148 C   0  0  0  0  0  0  0  0  0  0  0  0
    8.9544  -14.3673   20.0607 C   0  0  0  0  0  0  0  0  0  0  0  0
    8.5371  -15.7735   19.7759 C   0  0  2  0  0  0  0  0  0  0  0  0
    7.2285  -15.8426   19.1783 N   0  0  0  0  0  0  0  0  0  0  0  0
    8.6896  -16.6814   20.9267 C   0  0  0  0  0  0  0  0  0  0  0  0
    7.6872  -17.0361   21.6078 O   0  0  0  0  0  0  0  0  0  0  0  0
   10.8971  -19.9121   20.9727 C   0  0  0  0  0  0  0  0  0  0  0  0
   11.2621  -19.0055   22.1045 C   0  0  2  0  0  0  0  0  0  0  0  0
   11.6098  -19.8789   23.3166 C   0  0  0  0  0  0  0  0  0  0  0  0
   10.1508  -18.0458   22.4596 C   0  0  2  0  0  0  0  0  0  0  0  0
    9.9430  -17.1825   21.3076 N   0  0  0  0  0  0  0  0  0  0  0  0
   10.5510  -17.1803   23.6195 C   0  0  0  0  0  0  0  0  0  0  0  0
   11.5285  -16.4118   23.5153 O   0  0  0  0  0  0  0  0  0  0  0  0
    9.8276  -17.2288   24.8349 N   0  0  0  0  0  0  0  0  0  0  0  0
   10.3884  -16.5877   26.0349 C   0  0  1  0  0  0  0  0  0  0  0  0
   10.0133  -15.1417   26.0332 C   0  0  0  0  0  0  0  0  0  0  0  0
    8.5830  -14.9172   25.8831 C   0  0  0  0  0  0  0  0  0  0  0  0
    7.6094  -15.8749   25.5544 C   0  0  0  0  0  0  0  0  0  0  0  0
    6.4090  -15.2890   25.4763 N   0  0  0  0  0  0  0  0  0  0  0  0
    6.5428  -13.9643   25.7434 C   0  0  0  0  0  0  0  0  0  0  0  0
    5.5767  -12.9619   25.7957 C   0  0  0  0  0  0  0  0  0  0  0  0
    5.9424  -11.6724   26.1107 C   0  0  0  0  0  0  0  0  0  0  0  0
    7.2705  -11.4251   26.3647 C   0  0  0  0  0  0  0  0  0  0  0  0
    8.2144  -12.4248   26.3090 C   0  0  0  0  0  0  0  0  0  0  0  0
    7.8774  -13.7292   25.9948 C   0  0  0  0  0  0  0  0  0  0  0  0
   10.0900  -17.3522   27.2279 C   0  0  0  0  0  0  0  0  0  0  0  0
    9.2842  -18.3018   27.3045 O   0  0  0  0  0  0  0  0  0  0  0  0
   10.7495  -17.0194   28.4209 O   0  0  0  0  0  0  0  0  0  0  0  0
  2  1  1  1
  3  2  1  0
  4  2  1  0
  5  4  1  0
  5  6  1  1
  7  5  1  0
  7  8  2  0
 10  9  1  6
 10 12  1  0
 11 10  1  0
 12 13  1  6
 13  7  1  0
 14 12  1  0
 15 14  2  0
 16 14  1  0
 17 16  1  0
 17 28  1  0
 18 19  1  0
 17 18  1  1
 19 27  1  0
 20 21  1  0
 20 19  2  0
 21 22  1  0
 22 27  2  0
 22 23  1  0
 23 24  2  0
 24 25  1  0
 26 25  2  0
 27 26  1  0
 28 30  1  0
 29 28  2  0
M  END
$$$$
