LVW.pdb
     RDKit          3D

 30 31  0  0  1  0  0  0  0  0999 V2000
    7.0305  -12.1132   19.8915 C   0  0  0  0  0  0  0  0  0  0  0  0
    7.9055  -13.2400   19.3890 C   0  0  1  0  0  0  0  0  0  0  0  0
    9.3026  -12.7225   19.2147 C   0  0  0  0  0  0  0  0  0  0  0  0
    7.8375  -14.4572   20.2721 C   0  0  0  0  0  0  0  0  0  0  0  0
    8.7346  -15.5512   19.7913 C   0  0  2  0  0  0  0  0  0  0  0  0
    8.3257  -16.0670   18.5102 N   0  0  0  0  0  0  0  0  0  0  0  0
    8.9632  -16.6115   20.7889 C   0  0  0  0  0  0  0  0  0  0  0  0
    7.9923  -17.2151   21.3251 O   0  0  0  0  0  0  0  0  0  0  0  0
   11.5241  -19.5678   20.6636 C   0  0  0  0  0  0  0  0  0  0  0  0
   11.7582  -18.7117   21.8670 C   0  0  2  0  0  0  0  0  0  0  0  0
   12.1870  -19.6261   23.0215 C   0  0  0  0  0  0  0  0  0  0  0  0
   10.5340  -17.9194   22.2615 C   0  0  2  0  0  0  0  0  0  0  0  0
   10.2566  -16.9883   21.1790 N   0  0  0  0  0  0  0  0  0  0  0  0
   10.8008  -17.1183   23.5031 C   0  0  0  0  0  0  0  0  0  0  0  0
   11.6749  -16.2278   23.4942 O   0  0  0  0  0  0  0  0  0  0  0  0
   10.0680  -17.3653   24.6884 N   0  0  0  0  0  0  0  0  0  0  0  0
   10.3384  -16.5549   25.8865 C   0  0  1  0  0  0  0  0  0  0  0  0
   10.0041  -15.1287   25.5938 C   0  0  0  0  0  0  0  0  0  0  0  0
    8.5738  -14.8585   25.6015 C   0  0  0  0  0  0  0  0  0  0  0  0
    7.5400  -15.7839   25.3825 C   0  0  0  0  0  0  0  0  0  0  0  0
    6.3575  -15.1600   25.4363 N   0  0  0  0  0  0  0  0  0  0  0  0
    6.5619  -13.8409   25.6859 C   0  0  0  0  0  0  0  0  0  0  0  0
    5.6398  -12.8085   25.8432 C   0  0  0  0  0  0  0  0  0  0  0  0
    6.0788  -11.5321   26.1150 C   0  0  0  0  0  0  0  0  0  0  0  0
    7.4340  -11.3278   26.2214 C   0  0  0  0  0  0  0  0  0  0  0  0
    8.3337  -12.3568   26.0632 C   0  0  0  0  0  0  0  0  0  0  0  0
    7.9229  -13.6490   25.7890 C   0  0  0  0  0  0  0  0  0  0  0  0
    9.7480  -17.1489   27.0677 C   0  0  0  0  0  0  0  0  0  0  0  0
    8.9099  -18.0732   27.0794 O   0  0  0  0  0  0  0  0  0  0  0  0
   10.1320  -16.6631   28.3269 O   0  0  0  0  0  0  0  0  0  0  0  0
  2  1  1  1
  3  2  1  0
  4  2  1  0
  5  4  1  0
  5  6  1  6
  7  5  1  0
  7  8  2  0
 10  9  1  6
 10 12  1  0
 11 10  1  0
 12 13  1  6
 13  7  1  0
 14 12  1  0
 15 14  2  0
 16 14  1  0
 17 16  1  0
 17 28  1  0
 18 19  1  0
 17 18  1  6
 19 27  1  0
 20 21  1  0
 20 19  2  0
 21 22  1  0
 22 27  2  0
 22 23  1  0
 23 24  2  0
 24 25  1  0
 26 25  2  0
 27 26  1  0
 28 30  1  0
 29 28  2  0
M  END
$$$$
