LVW.pdb
     RDKit          3D

 30 31  0  0  1  0  0  0  0  0999 V2000
    7.5639  -11.7024   18.6550 C   0  0  0  0  0  0  0  0  0  0  0  0
    8.3896  -12.9693   18.6844 C   0  0  1  0  0  0  0  0  0  0  0  0
    9.8050  -12.6125   19.0302 C   0  0  0  0  0  0  0  0  0  0  0  0
    7.8079  -14.0126   19.6004 C   0  0  0  0  0  0  0  0  0  0  0  0
    8.7101  -15.1942   19.7512 C   0  0  2  0  0  0  0  0  0  0  0  0
    8.8856  -15.9067   18.5119 N   0  0  0  0  0  0  0  0  0  0  0  0
    8.3467  -16.0779   20.8732 C   0  0  0  0  0  0  0  0  0  0  0  0
    7.1558  -16.4675   21.0299 O   0  0  0  0  0  0  0  0  0  0  0  0
   10.1111  -19.2176   21.4349 C   0  0  0  0  0  0  0  0  0  0  0  0
   10.0713  -18.5559   22.7753 C   0  0  2  0  0  0  0  0  0  0  0  0
    9.8002  -19.6376   23.8287 C   0  0  0  0  0  0  0  0  0  0  0  0
    9.0170  -17.4772   22.8579 C   0  0  2  0  0  0  0  0  0  0  0  0
    9.3005  -16.5166   21.8030 N   0  0  0  0  0  0  0  0  0  0  0  0
    9.0998  -16.7574   24.1729 C   0  0  0  0  0  0  0  0  0  0  0  0
    8.1870  -15.9784   24.5154 O   0  0  0  0  0  0  0  0  0  0  0  0
   10.2080  -16.9539   25.0308 N   0  0  0  0  0  0  0  0  0  0  0  0
   10.2346  -16.2845   26.3410 C   0  0  1  0  0  0  0  0  0  0  0  0
    8.9981  -16.6470   27.0968 C   0  0  0  0  0  0  0  0  0  0  0  0
    7.8603  -15.7948   26.7838 C   0  0  0  0  0  0  0  0  0  0  0  0
    6.6348  -16.1959   26.2265 C   0  0  0  0  0  0  0  0  0  0  0  0
    5.8469  -15.1283   26.0544 N   0  0  0  0  0  0  0  0  0  0  0  0
    6.5034  -14.0182   26.4795 C   0  0  0  0  0  0  0  0  0  0  0  0
    6.0837  -12.6902   26.5123 C   0  0  0  0  0  0  0  0  0  0  0  0
    6.9212  -11.7181   27.0116 C   0  0  0  0  0  0  0  0  0  0  0  0
    8.1591  -12.1075   27.4649 C   0  0  0  0  0  0  0  0  0  0  0  0
    8.5611  -13.4230   27.4261 C   0  0  0  0  0  0  0  0  0  0  0  0
    7.7421  -14.4214   26.9298 C   0  0  0  0  0  0  0  0  0  0  0  0
   11.5048  -16.4824   27.0072 C   0  0  0  0  0  0  0  0  0  0  0  0
   11.8333  -16.0027   28.1113 O   0  0  0  0  0  0  0  0  0  0  0  0
   12.4745  -17.2798   26.3804 O   0  0  0  0  0  0  0  0  0  0  0  0
  2  1  1  1
  3  2  1  0
  4  2  1  0
  5  4  1  0
  5  6  1  6
  7  5  1  0
  7  8  2  0
 10  9  1  6
 10 12  1  0
 11 10  1  0
 12 13  1  6
 13  7  1  0
 14 12  1  0
 15 14  2  0
 16 14  1  0
 17 16  1  0
 17 28  1  0
 18 19  1  0
 17 18  1  1
 19 27  1  0
 20 21  1  0
 20 19  2  0
 21 22  1  0
 22 27  2  0
 22 23  1  0
 23 24  2  0
 24 25  1  0
 26 25  2  0
 27 26  1  0
 28 30  1  0
 29 28  2  0
M  END
$$$$
