LVW.pdb
     RDKit          3D

 30 31  0  0  1  0  0  0  0  0999 V2000
    6.7379  -12.5361   18.3257 C   0  0  0  0  0  0  0  0  0  0  0  0
    8.0138  -13.2766   18.6597 C   0  0  1  0  0  0  0  0  0  0  0  0
    9.0181  -12.2922   19.1817 C   0  0  0  0  0  0  0  0  0  0  0  0
    7.7796  -14.4289   19.5997 C   0  0  0  0  0  0  0  0  0  0  0  0
    9.0543  -14.9469   20.1823 C   0  0  2  0  0  0  0  0  0  0  0  0
    9.9646  -15.4163   19.1696 N   0  0  0  0  0  0  0  0  0  0  0  0
    8.8559  -15.9213   21.2699 C   0  0  0  0  0  0  0  0  0  0  0  0
    7.9513  -15.7503   22.1343 O   0  0  0  0  0  0  0  0  0  0  0  0
   11.7164  -18.9793   21.6759 C   0  0  0  0  0  0  0  0  0  0  0  0
   10.3033  -19.2581   22.0778 C   0  0  2  0  0  0  0  0  0  0  0  0
    9.5959  -19.9211   20.8892 C   0  0  0  0  0  0  0  0  0  0  0  0
    9.5611  -18.0089   22.4909 C   0  0  2  0  0  0  0  0  0  0  0  0
    9.6570  -17.0664   21.3871 N   0  0  0  0  0  0  0  0  0  0  0  0
   10.2093  -17.3821   23.6914 C   0  0  0  0  0  0  0  0  0  0  0  0
   11.3276  -16.8390   23.5833 O   0  0  0  0  0  0  0  0  0  0  0  0
    9.5619  -17.4023   24.9497 N   0  0  0  0  0  0  0  0  0  0  0  0
   10.2276  -16.7968   26.1141 C   0  0  1  0  0  0  0  0  0  0  0  0
    9.9884  -15.3223   26.0978 C   0  0  0  0  0  0  0  0  0  0  0  0
    8.5808  -14.9654   26.1988 C   0  0  0  0  0  0  0  0  0  0  0  0
    7.4828  -15.8389   26.1309 C   0  0  0  0  0  0  0  0  0  0  0  0
    6.3452  -15.1417   26.2321 N   0  0  0  0  0  0  0  0  0  0  0  0
    6.6423  -13.8235   26.3671 C   0  0  0  0  0  0  0  0  0  0  0  0
    5.7950  -12.7284   26.5206 C   0  0  0  0  0  0  0  0  0  0  0  0
    6.3249  -11.4655   26.6623 C   0  0  0  0  0  0  0  0  0  0  0  0
    7.6934  -11.3375   26.6459 C   0  0  0  0  0  0  0  0  0  0  0  0
    8.5187  -12.4279   26.4929 C   0  0  0  0  0  0  0  0  0  0  0  0
    8.0157  -13.7085   26.3478 C   0  0  0  0  0  0  0  0  0  0  0  0
    9.9081  -17.5104   27.3328 C   0  0  0  0  0  0  0  0  0  0  0  0
   10.2855  -17.2006   28.4810 O   0  0  0  0  0  0  0  0  0  0  0  0
    9.1040  -18.6572   27.2480 O   0  0  0  0  0  0  0  0  0  0  0  0
  2  1  1  1
  3  2  1  0
  4  2  1  0
  5  4  1  0
  5  6  1  6
  7  5  1  0
  7  8  2  0
 10  9  1  6
 10 12  1  0
 11 10  1  0
 12 13  1  6
 13  7  1  0
 14 12  1  0
 15 14  2  0
 16 14  1  0
 17 16  1  0
 17 28  1  0
 18 19  1  0
 17 18  1  1
 19 27  1  0
 20 21  1  0
 20 19  2  0
 21 22  1  0
 22 27  2  0
 22 23  1  0
 23 24  2  0
 24 25  1  0
 26 25  2  0
 27 26  1  0
 28 30  1  0
 29 28  2  0
M  END
$$$$
