PWN.pdb
     RDKit          3D

 30 32  0  0  1  0  0  0  0  0999 V2000
   27.8271  -19.1826  -13.5950 N   0  0  0  0  0  0  0  0  0  0  0  0
   28.7966  -18.9643  -14.6794 C   0  0  0  0  0  0  0  0  0  0  0  0
   29.7366  -20.1402  -14.5260 C   0  0  0  0  0  0  0  0  0  0  0  0
   29.0311  -21.1230  -13.5807 C   0  0  0  0  0  0  0  0  0  0  0  0
   27.6120  -20.6089  -13.6932 C   0  0  1  0  0  0  0  0  0  0  0  0
   26.7369  -21.0420  -12.5932 C   0  0  0  0  0  0  0  0  0  0  0  0
   26.1064  -22.1614  -12.6429 O   0  0  0  0  0  0  0  0  0  0  0  0
   26.5973  -20.1929  -11.4606 N   0  0  0  0  0  0  0  0  0  0  0  0
   25.6885  -20.5032  -10.4005 C   0  0  1  0  0  0  0  0  0  0  0  0
   26.0765  -19.8819   -9.0829 C   0  0  0  0  0  0  0  0  0  0  0  0
   27.3791  -20.3386   -8.5851 C   0  0  0  0  0  0  0  0  0  0  0  0
   28.3056  -21.0870   -9.2659 C   0  0  0  0  0  0  0  0  0  0  0  0
   29.3426  -21.2735   -8.4363 N   0  0  0  0  0  0  0  0  0  0  0  0
   29.1188  -20.6773   -7.2564 C   0  0  0  0  0  0  0  0  0  0  0  0
   29.8374  -20.5624   -6.0848 C   0  0  0  0  0  0  0  0  0  0  0  0
   29.3519  -19.8729   -5.0016 C   0  0  0  0  0  0  0  0  0  0  0  0
   28.1146  -19.2684   -5.0578 C   0  0  0  0  0  0  0  0  0  0  0  0
   27.3977  -19.3821   -6.2242 C   0  0  0  0  0  0  0  0  0  0  0  0
   27.8862  -20.0814   -7.3280 C   0  0  0  0  0  0  0  0  0  0  0  0
   24.3198  -19.9684  -10.7329 C   0  0  0  0  0  0  0  0  0  0  0  0
   24.1547  -18.9467  -11.4434 O   0  0  0  0  0  0  0  0  0  0  0  0
   21.1563  -19.3581  -13.4368 N   0  0  0  0  0  0  0  0  0  0  0  0
   21.8827  -20.6026  -13.5563 C   0  0  0  0  0  0  0  0  0  0  0  0
   22.1736  -21.0726  -14.6683 O   0  0  0  0  0  0  0  0  0  0  0  0
   22.2525  -21.2717  -12.3155 C   0  0  0  0  0  0  0  0  0  0  0  0
   21.9271  -20.5271  -11.0448 C   0  0  2  0  0  0  0  0  0  0  0  0
   23.1692  -20.6286  -10.2356 N   0  0  0  0  0  0  0  0  0  0  0  0
   20.7988  -21.0723  -10.2839 C   0  0  0  0  0  0  0  0  0  0  0  0
   20.8308  -22.0942   -9.5734 O   0  0  0  0  0  0  0  0  0  0  0  0
   19.5531  -20.4185  -10.3300 O   0  0  0  0  0  0  0  0  0  0  0  0
  1  2  1  0
  2  3  1  0
  4  3  1  0
  5  1  1  0
  5  4  1  0
  5  6  1  1
  7  6  2  0
  8  6  1  0
  9  8  1  0
 10 11  1  0
  9 10  1  1
 11 12  2  0
 13 12  1  0
 14 13  1  0
 15 14  2  0
 16 15  1  0
 17 16  2  0
 17 18  1  0
 18 19  2  0
 19 14  1  0
 19 11  1  0
 20  9  1  0
 20 27  1  0
 21 20  2  0
 22 23  1  0
 23 24  2  0
 23 25  1  0
 26 25  1  6
 26 27  1  0
 26 28  1  0
 28 30  1  0
 29 28  2  0
M  END
$$$$
