PWN.pdb
     RDKit          3D

 30 32  0  0  1  0  0  0  0  0999 V2000
   26.0041  -21.7160  -16.0594 N   0  0  0  0  0  0  0  0  0  0  0  0
   27.3767  -22.2257  -16.1992 C   0  0  0  0  0  0  0  0  0  0  0  0
   28.2165  -20.9951  -15.9338 C   0  0  0  0  0  0  0  0  0  0  0  0
   27.2625  -19.9572  -15.3256 C   0  0  0  0  0  0  0  0  0  0  0  0
   26.1356  -20.8707  -14.8938 C   0  0  1  0  0  0  0  0  0  0  0  0
   24.8634  -20.1708  -14.6591 C   0  0  0  0  0  0  0  0  0  0  0  0
   24.7537  -19.2741  -13.7443 O   0  0  0  0  0  0  0  0  0  0  0  0
   23.7434  -20.5056  -15.4695 N   0  0  0  0  0  0  0  0  0  0  0  0
   22.5107  -19.7860  -15.3762 C   0  0  1  0  0  0  0  0  0  0  0  0
   22.0352  -19.2457  -16.7008 C   0  0  0  0  0  0  0  0  0  0  0  0
   22.7800  -18.0632  -17.1484 C   0  0  0  0  0  0  0  0  0  0  0  0
   24.1325  -17.9720  -17.3596 C   0  0  0  0  0  0  0  0  0  0  0  0
   24.3812  -16.7167  -17.7605 N   0  0  0  0  0  0  0  0  0  0  0  0
   23.2474  -16.0030  -17.8143 C   0  0  0  0  0  0  0  0  0  0  0  0
   22.9454  -14.7007  -18.1538 C   0  0  0  0  0  0  0  0  0  0  0  0
   21.6592  -14.2223  -18.1183 C   0  0  0  0  0  0  0  0  0  0  0  0
   20.6205  -15.0436  -17.7364 C   0  0  0  0  0  0  0  0  0  0  0  0
   20.9198  -16.3410  -17.3980 C   0  0  0  0  0  0  0  0  0  0  0  0
   22.2249  -16.8325  -17.4324 C   0  0  0  0  0  0  0  0  0  0  0  0
   21.4239  -20.7038  -14.8798 C   0  0  0  0  0  0  0  0  0  0  0  0
   21.4359  -21.9387  -15.1050 O   0  0  0  0  0  0  0  0  0  0  0  0
   19.1372  -23.7860  -12.9409 N   0  0  0  0  0  0  0  0  0  0  0  0
   19.6165  -22.8779  -11.9229 C   0  0  0  0  0  0  0  0  0  0  0  0
   19.9646  -23.2916  -10.8050 O   0  0  0  0  0  0  0  0  0  0  0  0
   19.6694  -21.4641  -12.2728 C   0  0  0  0  0  0  0  0  0  0  0  0
   19.2911  -21.1235  -13.6927 C   0  0  2  0  0  0  0  0  0  0  0  0
   20.3447  -20.1722  -14.1316 N   0  0  0  0  0  0  0  0  0  0  0  0
   17.9724  -20.5015  -13.8457 C   0  0  0  0  0  0  0  0  0  0  0  0
   16.9532  -21.0641  -14.2870 O   0  0  0  0  0  0  0  0  0  0  0  0
   17.7956  -19.1550  -13.4753 O   0  0  0  0  0  0  0  0  0  0  0  0
  1  2  1  0
  2  3  1  0
  4  3  1  0
  5  1  1  0
  5  4  1  0
  5  6  1  6
  7  6  2  0
  8  6  1  0
  9  8  1  0
 10 11  1  0
  9 10  1  6
 11 12  2  0
 13 12  1  0
 14 13  1  0
 15 14  2  0
 16 15  1  0
 17 16  2  0
 17 18  1  0
 18 19  2  0
 19 14  1  0
 19 11  1  0
 20  9  1  0
 20 27  1  0
 21 20  2  0
 22 23  1  0
 23 24  2  0
 23 25  1  0
 26 25  1  1
 26 27  1  0
 26 28  1  0
 28 30  1  0
 29 28  2  0
M  END
$$$$
