PWN.pdb
     RDKit          3D

 30 32  0  0  1  0  0  0  0  0999 V2000
   27.9631  -19.1772  -12.9742 N   0  0  0  0  0  0  0  0  0  0  0  0
   28.7427  -18.5670  -14.0620 C   0  0  0  0  0  0  0  0  0  0  0  0
   29.7827  -19.6254  -14.3594 C   0  0  0  0  0  0  0  0  0  0  0  0
   29.3016  -20.8995  -13.6505 C   0  0  0  0  0  0  0  0  0  0  0  0
   27.8462  -20.5400  -13.4426 C   0  0  1  0  0  0  0  0  0  0  0  0
   27.1784  -21.3491  -12.4116 C   0  0  0  0  0  0  0  0  0  0  0  0
   26.8666  -22.5779  -12.6255 O   0  0  0  0  0  0  0  0  0  0  0  0
   26.8792  -20.7434  -11.1598 N   0  0  0  0  0  0  0  0  0  0  0  0
   26.0864  -21.4129  -10.1754 C   0  0  1  0  0  0  0  0  0  0  0  0
   26.8308  -21.6785   -8.8917 C   0  0  0  0  0  0  0  0  0  0  0  0
   26.9686  -20.4900   -8.0420 C   0  0  0  0  0  0  0  0  0  0  0  0
   26.4103  -19.2552   -8.2550 C   0  0  0  0  0  0  0  0  0  0  0  0
   26.7949  -18.4719   -7.2367 N   0  0  0  0  0  0  0  0  0  0  0  0
   27.5740  -19.1524   -6.3835 C   0  0  0  0  0  0  0  0  0  0  0  0
   28.2191  -18.8342   -5.2067 C   0  0  0  0  0  0  0  0  0  0  0  0
   28.9724  -19.7548   -4.5215 C   0  0  0  0  0  0  0  0  0  0  0  0
   29.1057  -21.0406   -4.9994 C   0  0  0  0  0  0  0  0  0  0  0  0
   28.4637  -21.3588   -6.1715 C   0  0  0  0  0  0  0  0  0  0  0  0
   27.6968  -20.4275   -6.8718 C   0  0  0  0  0  0  0  0  0  0  0  0
   24.9034  -20.5553   -9.8078 C   0  0  0  0  0  0  0  0  0  0  0  0
   25.0338  -19.3799   -9.3866 O   0  0  0  0  0  0  0  0  0  0  0  0
   21.1592  -18.4955  -12.2429 N   0  0  0  0  0  0  0  0  0  0  0  0
   22.2785  -19.1758  -12.8553 C   0  0  0  0  0  0  0  0  0  0  0  0
   22.5303  -19.0395  -14.0636 O   0  0  0  0  0  0  0  0  0  0  0  0
   23.0890  -20.0227  -11.9893 C   0  0  0  0  0  0  0  0  0  0  0  0
   22.5771  -20.2055  -10.5824 C   0  0  2  0  0  0  0  0  0  0  0  0
   23.5924  -21.0767   -9.9362 N   0  0  0  0  0  0  0  0  0  0  0  0
   21.2562  -20.8342  -10.4851 C   0  0  0  0  0  0  0  0  0  0  0  0
   21.0053  -22.0314  -10.7171 O   0  0  0  0  0  0  0  0  0  0  0  0
   20.1472  -20.0575  -10.1002 O   0  0  0  0  0  0  0  0  0  0  0  0
  1  2  1  0
  2  3  1  0
  4  3  1  0
  5  1  1  0
  5  4  1  0
  5  6  1  1
  7  6  2  0
  8  6  1  0
  9  8  1  0
 10 11  1  0
  9 10  1  1
 11 12  2  0
 13 12  1  0
 14 13  1  0
 15 14  2  0
 16 15  1  0
 17 16  2  0
 17 18  1  0
 18 19  2  0
 19 14  1  0
 19 11  1  0
 20  9  1  0
 20 27  1  0
 21 20  2  0
 22 23  1  0
 23 24  2  0
 23 25  1  0
 26 25  1  6
 26 27  1  0
 26 28  1  0
 28 30  1  0
 29 28  2  0
M  END
$$$$
