PWN.pdb
     RDKit          3D

 30 32  0  0  1  0  0  0  0  0999 V2000
   27.5990  -18.2462  -14.3315 N   0  0  0  0  0  0  0  0  0  0  0  0
   28.1555  -17.3865  -15.3873 C   0  0  0  0  0  0  0  0  0  0  0  0
   29.3484  -18.1831  -15.8698 C   0  0  0  0  0  0  0  0  0  0  0  0
   29.1778  -19.5926  -15.2854 C   0  0  0  0  0  0  0  0  0  0  0  0
   27.7033  -19.5503  -14.9470 C   0  0  1  0  0  0  0  0  0  0  0  0
   27.2890  -20.5761  -13.9777 C   0  0  0  0  0  0  0  0  0  0  0  0
   27.0550  -21.7858  -14.3449 O   0  0  0  0  0  0  0  0  0  0  0  0
   27.1495  -20.2042  -12.6118 N   0  0  0  0  0  0  0  0  0  0  0  0
   26.7360  -21.1466  -11.6184 C   0  0  1  0  0  0  0  0  0  0  0  0
   27.6359  -21.1702  -10.4092 C   0  0  0  0  0  0  0  0  0  0  0  0
   26.9545  -20.7820   -9.1689 C   0  0  0  0  0  0  0  0  0  0  0  0
   25.6021  -20.6568   -8.9756 C   0  0  0  0  0  0  0  0  0  0  0  0
   25.4229  -20.2844   -7.6999 N   0  0  0  0  0  0  0  0  0  0  0  0
   26.6010  -20.1664   -7.0706 C   0  0  0  0  0  0  0  0  0  0  0  0
   26.9771  -19.8213   -5.7893 C   0  0  0  0  0  0  0  0  0  0  0  0
   28.2950  -19.7810   -5.4071 C   0  0  0  0  0  0  0  0  0  0  0  0
   29.2916  -20.0891   -6.3078 C   0  0  0  0  0  0  0  0  0  0  0  0
   28.9183  -20.4330   -7.5844 C   0  0  0  0  0  0  0  0  0  0  0  0
   27.5808  -20.4757   -7.9783 C   0  0  0  0  0  0  0  0  0  0  0  0
   25.3627  -20.7842  -11.1158 C   0  0  0  0  0  0  0  0  0  0  0  0
   25.1663  -19.8111  -10.3474 O   0  0  0  0  0  0  0  0  0  0  0  0
   22.5073  -19.2407  -15.2597 N   0  0  0  0  0  0  0  0  0  0  0  0
   22.5895  -19.1458  -13.8192 C   0  0  0  0  0  0  0  0  0  0  0  0
   21.8575  -18.3699  -13.1835 O   0  0  0  0  0  0  0  0  0  0  0  0
   23.5674  -20.0000  -13.1572 C   0  0  0  0  0  0  0  0  0  0  0  0
   23.0497  -20.8182  -12.0008 C   0  0  2  0  0  0  0  0  0  0  0  0
   24.2438  -21.5565  -11.5142 N   0  0  0  0  0  0  0  0  0  0  0  0
   21.9901  -21.7706  -12.3466 C   0  0  0  0  0  0  0  0  0  0  0  0
   20.7913  -21.6679  -12.0265 O   0  0  0  0  0  0  0  0  0  0  0  0
   22.3078  -22.9138  -13.1039 O   0  0  0  0  0  0  0  0  0  0  0  0
  1  2  1  0
  2  3  1  0
  4  3  1  0
  5  1  1  0
  5  4  1  0
  5  6  1  1
  7  6  2  0
  8  6  1  0
  9  8  1  0
 10 11  1  0
  9 10  1  1
 11 12  2  0
 13 12  1  0
 14 13  1  0
 15 14  2  0
 16 15  1  0
 17 16  2  0
 17 18  1  0
 18 19  2  0
 19 14  1  0
 19 11  1  0
 20  9  1  0
 20 27  1  0
 21 20  2  0
 22 23  1  0
 23 24  2  0
 23 25  1  0
 26 25  1  6
 26 27  1  0
 26 28  1  0
 28 30  1  0
 29 28  2  0
M  END
$$$$
