PQL.pdb
     RDKit          3D

 25 25  0  0  1  0  0  0  0  0999 V2000
   31.4678  -30.1717  -20.2222 N   0  0  0  0  0  0  0  0  0  0  0  0
   32.3502  -31.2338  -20.6833 C   0  0  0  0  0  0  0  0  0  0  0  0
   33.5293  -31.0565  -19.7301 C   0  0  0  0  0  0  0  0  0  0  0  0
   32.7822  -30.9355  -18.3965 C   0  0  0  0  0  0  0  0  0  0  0  0
   31.4095  -30.4254  -18.7989 C   0  0  1  0  0  0  0  0  0  0  0  0
   31.0396  -29.2194  -18.0279 C   0  0  0  0  0  0  0  0  0  0  0  0
   31.0100  -29.3042  -16.7814 O   0  0  0  0  0  0  0  0  0  0  0  0
   30.1942  -23.7576  -20.0049 N   0  0  0  0  0  0  0  0  0  0  0  0
   30.6309  -23.4215  -18.7011 C   0  0  0  0  0  0  0  0  0  0  0  0
   30.5024  -22.1984  -18.3466 O   0  0  0  0  0  0  0  0  0  0  0  0
   31.2079  -24.3801  -17.7445 C   0  0  0  0  0  0  0  0  0  0  0  0
   31.2862  -25.7416  -18.2746 C   0  0  0  0  0  0  0  0  0  0  0  0
   30.3296  -26.7795  -17.8978 C   0  0  2  0  0  0  0  0  0  0  0  0
   30.7237  -27.9931  -18.6470 N   0  0  0  0  0  0  0  0  0  0  0  0
   28.9076  -26.6086  -17.9967 C   0  0  0  0  0  0  0  0  0  0  0  0
   28.1702  -26.9836  -18.9490 O   0  0  0  0  0  0  0  0  0  0  0  0
   24.0749  -27.9489  -16.5691 C   0  0  0  0  0  0  0  0  0  0  0  0
   24.5613  -26.5603  -16.1229 C   0  0  2  0  0  0  0  0  0  0  0  0
   24.0747  -25.5455  -17.1334 C   0  0  0  0  0  0  0  0  0  0  0  0
   26.0625  -26.6552  -16.0825 C   0  0  0  0  0  0  0  0  0  0  0  0
   26.7653  -25.6945  -17.0111 C   0  0  2  0  0  0  0  0  0  0  0  0
   28.2071  -25.9568  -16.9416 N   0  0  0  0  0  0  0  0  0  0  0  0
   26.5288  -24.2830  -16.7254 C   0  0  0  0  0  0  0  0  0  0  0  0
   25.5141  -23.7081  -17.1851 O   0  0  0  0  0  0  0  0  0  0  0  0
   27.4019  -23.5453  -15.9497 O   0  0  0  0  0  0  0  0  0  0  0  0
  2  1  1  0
  3  2  1  0
  4  5  1  0
  4  3  1  0
  5  6  1  1
  5  1  1  0
  6  7  2  0
  9  8  1  0
  9 11  1  0
 10  9  2  0
 12 11  1  0
 13 12  1  6
 14 13  1  0
 14  6  1  0
 15 16  2  0
 15 13  1  0
 18 17  1  6
 18 19  1  0
 18 20  1  0
 21 20  1  1
 21 22  1  0
 21 23  1  0
 22 15  1  0
 23 25  1  0
 24 23  2  0
M  END
$$$$
