PQL.pdb
     RDKit          3D

 25 25  0  0  1  0  0  0  0  0999 V2000
   23.5677  -20.5043  -10.9446 N   0  0  0  0  0  0  0  0  0  0  0  0
   23.6158  -21.3093   -9.7326 C   0  0  0  0  0  0  0  0  0  0  0  0
   24.6602  -22.3509  -10.1256 C   0  0  0  0  0  0  0  0  0  0  0  0
   25.7402  -21.4390  -10.7201 C   0  0  0  0  0  0  0  0  0  0  0  0
   24.9669  -20.2106  -11.1668 C   0  0  1  0  0  0  0  0  0  0  0  0
   25.2546  -19.8816  -12.5791 C   0  0  0  0  0  0  0  0  0  0  0  0
   26.4270  -19.5753  -12.8847 O   0  0  0  0  0  0  0  0  0  0  0  0
   22.1362  -22.5027  -17.0724 N   0  0  0  0  0  0  0  0  0  0  0  0
   22.7494  -21.4662  -17.8163 C   0  0  0  0  0  0  0  0  0  0  0  0
   22.5236  -21.4483  -19.0760 O   0  0  0  0  0  0  0  0  0  0  0  0
   23.6107  -20.4233  -17.2355 C   0  0  0  0  0  0  0  0  0  0  0  0
   23.7432  -20.5334  -15.7825 C   0  0  0  0  0  0  0  0  0  0  0  0
   24.5254  -19.5809  -14.9982 C   0  0  2  0  0  0  0  0  0  0  0  0
   24.2606  -19.9023  -13.5783 N   0  0  0  0  0  0  0  0  0  0  0  0
   24.4418  -18.1593  -15.1805 C   0  0  0  0  0  0  0  0  0  0  0  0
   23.5908  -17.3843  -14.6643 O   0  0  0  0  0  0  0  0  0  0  0  0
   25.7260  -13.3634  -15.2103 C   0  0  0  0  0  0  0  0  0  0  0  0
   26.9023  -14.0368  -15.9361 C   0  0  2  0  0  0  0  0  0  0  0  0
   26.8281  -13.6609  -17.3993 C   0  0  0  0  0  0  0  0  0  0  0  0
   26.7185  -15.5135  -15.7132 C   0  0  0  0  0  0  0  0  0  0  0  0
   25.3938  -16.0494  -16.1997 C   0  0  2  0  0  0  0  0  0  0  0  0
   25.3901  -17.5053  -16.0182 N   0  0  0  0  0  0  0  0  0  0  0  0
   25.0858  -15.7476  -17.5940 C   0  0  0  0  0  0  0  0  0  0  0  0
   24.3647  -14.7634  -17.8816 O   0  0  0  0  0  0  0  0  0  0  0  0
   25.5727  -16.5245  -18.6273 O   0  0  0  0  0  0  0  0  0  0  0  0
  2  1  1  0
  3  2  1  0
  4  5  1  0
  4  3  1  0
  5  6  1  6
  5  1  1  0
  6  7  2  0
  9  8  1  0
  9 11  1  0
 10  9  2  0
 12 11  1  0
 13 12  1  6
 14 13  1  0
 14  6  1  0
 15 16  2  0
 15 13  1  0
 18 17  1  1
 18 19  1  0
 18 20  1  0
 21 20  1  6
 21 22  1  0
 21 23  1  0
 22 15  1  0
 23 25  1  0
 24 23  2  0
M  END
$$$$
