PQL.pdb
     RDKit          3D

 25 25  0  0  1  0  0  0  0  0999 V2000
   21.1720  -10.9503  -18.0124 N   0  0  0  0  0  0  0  0  0  0  0  0
   20.9568  -12.3195  -18.4578 C   0  0  0  0  0  0  0  0  0  0  0  0
   19.6851  -12.6706  -17.6898 C   0  0  0  0  0  0  0  0  0  0  0  0
   18.8437  -11.4209  -17.9756 C   0  0  0  0  0  0  0  0  0  0  0  0
   19.8799  -10.3472  -18.2579 C   0  0  1  0  0  0  0  0  0  0  0  0
   19.6510   -9.1496  -17.4218 C   0  0  0  0  0  0  0  0  0  0  0  0
   18.5712   -8.5352  -17.5574 O   0  0  0  0  0  0  0  0  0  0  0  0
   22.1148   -8.7063  -11.8822 N   0  0  0  0  0  0  0  0  0  0  0  0
   20.7062   -8.6180  -11.9910 C   0  0  0  0  0  0  0  0  0  0  0  0
   20.0275   -8.9001  -10.9432 O   0  0  0  0  0  0  0  0  0  0  0  0
   19.9899   -8.2220  -13.2145 C   0  0  0  0  0  0  0  0  0  0  0  0
   20.8873   -7.8530  -14.3097 C   0  0  0  0  0  0  0  0  0  0  0  0
   20.3901   -7.4948  -15.6358 C   0  0  2  0  0  0  0  0  0  0  0  0
   20.6003   -8.6855  -16.4888 N   0  0  0  0  0  0  0  0  0  0  0  0
   20.8249   -6.3260  -16.3471 C   0  0  0  0  0  0  0  0  0  0  0  0
   21.7430   -6.2700  -17.2105 O   0  0  0  0  0  0  0  0  0  0  0  0
   19.6604   -1.0378  -17.4269 C   0  0  0  0  0  0  0  0  0  0  0  0
   19.7467   -2.1641  -18.4699 C   0  0  2  0  0  0  0  0  0  0  0  0
   18.7072   -1.8974  -19.5357 C   0  0  0  0  0  0  0  0  0  0  0  0
   19.4771   -3.4350  -17.7108 C   0  0  0  0  0  0  0  0  0  0  0  0
   20.5930   -3.8451  -16.7805 C   0  0  2  0  0  0  0  0  0  0  0  0
   20.1908   -5.0764  -16.0917 N   0  0  0  0  0  0  0  0  0  0  0  0
   20.9572   -2.8444  -15.7825 C   0  0  0  0  0  0  0  0  0  0  0  0
   20.2399   -2.6750  -14.7686 O   0  0  0  0  0  0  0  0  0  0  0  0
   22.0883   -2.0633  -15.9200 O   0  0  0  0  0  0  0  0  0  0  0  0
  2  1  1  0
  3  2  1  0
  4  5  1  0
  4  3  1  0
  5  6  1  1
  5  1  1  0
  6  7  2  0
  9  8  1  0
  9 11  1  0
 10  9  2  0
 12 11  1  0
 13 12  1  1
 14 13  1  0
 14  6  1  0
 15 16  2  0
 15 13  1  0
 18 17  1  1
 18 19  1  0
 18 20  1  0
 21 20  1  1
 21 22  1  0
 21 23  1  0
 22 15  1  0
 23 25  1  0
 24 23  2  0
M  END
$$$$
