PQL.pdb
     RDKit          3D

 25 25  0  0  1  0  0  0  0  0999 V2000
   24.9999  -22.1941  -16.5047 N   0  0  0  0  0  0  0  0  0  0  0  0
   26.1935  -22.9928  -16.7429 C   0  0  0  0  0  0  0  0  0  0  0  0
   26.2204  -23.8465  -15.4777 C   0  0  0  0  0  0  0  0  0  0  0  0
   24.7553  -24.2957  -15.4242 C   0  0  0  0  0  0  0  0  0  0  0  0
   24.0181  -23.2078  -16.1854 C   0  0  1  0  0  0  0  0  0  0  0  0
   22.8920  -22.6695  -15.3930 C   0  0  0  0  0  0  0  0  0  0  0  0
   21.8898  -23.3969  -15.2256 O   0  0  0  0  0  0  0  0  0  0  0  0
   20.8186  -21.3725  -10.8776 N   0  0  0  0  0  0  0  0  0  0  0  0
   20.7137  -19.9758  -11.0821 C   0  0  0  0  0  0  0  0  0  0  0  0
   19.9426  -19.3324  -10.2886 O   0  0  0  0  0  0  0  0  0  0  0  0
   21.4313  -19.2328  -12.1309 C   0  0  0  0  0  0  0  0  0  0  0  0
   22.2674  -20.0908  -12.9708 C   0  0  0  0  0  0  0  0  0  0  0  0
   21.7466  -20.7614  -14.1596 C   0  0  2  0  0  0  0  0  0  0  0  0
   22.9137  -21.3783  -14.8279 N   0  0  0  0  0  0  0  0  0  0  0  0
   20.9393  -20.0978  -15.1440 C   0  0  0  0  0  0  0  0  0  0  0  0
   21.3394  -19.2775  -16.0149 O   0  0  0  0  0  0  0  0  0  0  0  0
   15.6891  -20.4691  -17.4653 C   0  0  0  0  0  0  0  0  0  0  0  0
   17.0861  -20.2527  -18.0696 C   0  0  2  0  0  0  0  0  0  0  0  0
   17.1581  -21.0190  -19.3717 C   0  0  0  0  0  0  0  0  0  0  0  0
   18.0529  -20.7757  -17.0421 C   0  0  0  0  0  0  0  0  0  0  0  0
   18.6597  -19.7058  -16.1668 C   0  0  2  0  0  0  0  0  0  0  0  0
   19.5389  -20.3542  -15.1876 N   0  0  0  0  0  0  0  0  0  0  0  0
   17.6930  -18.8756  -15.4552 C   0  0  0  0  0  0  0  0  0  0  0  0
   17.3454  -19.1726  -14.2880 O   0  0  0  0  0  0  0  0  0  0  0  0
   17.1385  -17.7514  -16.0356 O   0  0  0  0  0  0  0  0  0  0  0  0
  2  1  1  0
  3  2  1  0
  4  5  1  0
  4  3  1  0
  5  6  1  1
  5  1  1  0
  6  7  2  0
  9  8  1  0
  9 11  1  0
 10  9  2  0
 12 11  1  0
 13 12  1  1
 14 13  1  0
 14  6  1  0
 15 16  2  0
 15 13  1  0
 18 17  1  1
 18 19  1  0
 18 20  1  0
 21 20  1  1
 21 22  1  0
 21 23  1  0
 22 15  1  0
 23 25  1  0
 24 23  2  0
M  END
$$$$
