PQL.pdb
     RDKit          3D

 25 25  0  0  1  0  0  0  0  0999 V2000
   23.9570  -10.8579  -18.7751 N   0  0  0  0  0  0  0  0  0  0  0  0
   23.1004   -9.6973  -18.9716 C   0  0  0  0  0  0  0  0  0  0  0  0
   23.9766   -8.8508  -19.8914 C   0  0  0  0  0  0  0  0  0  0  0  0
   24.4062   -9.9147  -20.9088 C   0  0  0  0  0  0  0  0  0  0  0  0
   24.2943  -11.2169  -20.1355 C   0  0  1  0  0  0  0  0  0  0  0  0
   25.5478  -11.9967  -20.2165 C   0  0  0  0  0  0  0  0  0  0  0  0
   25.8975  -12.4338  -21.3337 O   0  0  0  0  0  0  0  0  0  0  0  0
   30.6430  -11.0273  -19.8210 N   0  0  0  0  0  0  0  0  0  0  0  0
   30.9352  -12.0727  -18.9125 C   0  0  0  0  0  0  0  0  0  0  0  0
   32.1599  -12.4336  -18.8221 O   0  0  0  0  0  0  0  0  0  0  0  0
   29.9321  -12.7523  -18.0765 C   0  0  0  0  0  0  0  0  0  0  0  0
   28.5696  -12.2754  -18.3149 C   0  0  0  0  0  0  0  0  0  0  0  0
   27.6224  -13.0115  -19.1486 C   0  0  2  0  0  0  0  0  0  0  0  0
   26.3499  -12.2589  -19.0874 N   0  0  0  0  0  0  0  0  0  0  0  0
   27.3484  -14.4103  -18.9766 C   0  0  0  0  0  0  0  0  0  0  0  0
   26.6212  -14.9296  -18.0861 O   0  0  0  0  0  0  0  0  0  0  0  0
   25.0313  -17.7745  -20.5398 C   0  0  0  0  0  0  0  0  0  0  0  0
   25.9338  -17.0423  -21.5463 C   0  0  2  0  0  0  0  0  0  0  0  0
   25.6313  -17.5816  -22.9267 C   0  0  0  0  0  0  0  0  0  0  0  0
   27.3432  -17.3390  -21.1109 C   0  0  0  0  0  0  0  0  0  0  0  0
   27.6939  -16.7942  -19.7474 C   0  0  2  0  0  0  0  0  0  0  0  0
   27.9300  -15.3517  -19.8733 N   0  0  0  0  0  0  0  0  0  0  0  0
   28.8608  -17.4099  -19.1234 C   0  0  0  0  0  0  0  0  0  0  0  0
   29.9899  -16.8768  -19.2343 O   0  0  0  0  0  0  0  0  0  0  0  0
   28.7606  -18.5825  -18.4000 O   0  0  0  0  0  0  0  0  0  0  0  0
  2  1  1  0
  3  2  1  0
  4  5  1  0
  4  3  1  0
  5  6  1  1
  5  1  1  0
  6  7  2  0
  9  8  1  0
  9 11  1  0
 10  9  2  0
 12 11  1  0
 13 12  1  1
 14 13  1  0
 14  6  1  0
 15 16  2  0
 15 13  1  0
 18 17  1  1
 18 19  1  0
 18 20  1  0
 21 20  1  6
 21 22  1  0
 21 23  1  0
 22 15  1  0
 23 25  1  0
 24 23  2  0
M  END
$$$$
