PQL.pdb
     RDKit          3D

 25 25  0  0  1  0  0  0  0  0999 V2000
   21.9838  -13.7244  -17.4009 N   0  0  0  0  0  0  0  0  0  0  0  0
   22.1301  -14.9893  -18.1066 C   0  0  0  0  0  0  0  0  0  0  0  0
   21.1652  -14.7778  -19.2704 C   0  0  0  0  0  0  0  0  0  0  0  0
   21.5842  -13.3716  -19.7160 C   0  0  0  0  0  0  0  0  0  0  0  0
   22.1868  -12.7622  -18.4623 C   0  0  1  0  0  0  0  0  0  0  0  0
   21.5746  -11.4515  -18.1571 C   0  0  0  0  0  0  0  0  0  0  0  0
   21.7288  -10.5242  -18.9805 O   0  0  0  0  0  0  0  0  0  0  0  0
   16.3179  -10.7829  -14.8915 N   0  0  0  0  0  0  0  0  0  0  0  0
   16.4472  -10.8799  -16.2978 C   0  0  0  0  0  0  0  0  0  0  0  0
   15.4064  -11.2402  -16.9497 O   0  0  0  0  0  0  0  0  0  0  0  0
   17.6843  -10.5899  -17.0410 C   0  0  0  0  0  0  0  0  0  0  0  0
   18.8242  -10.3076  -16.1681 C   0  0  0  0  0  0  0  0  0  0  0  0
   20.1370   -9.9441  -16.6959 C   0  0  2  0  0  0  0  0  0  0  0  0
   20.8323  -11.2186  -16.9816 N   0  0  0  0  0  0  0  0  0  0  0  0
   21.0395   -9.0606  -16.0132 C   0  0  0  0  0  0  0  0  0  0  0  0
   21.7553   -9.3432  -15.0135 O   0  0  0  0  0  0  0  0  0  0  0  0
   23.0427   -3.3113  -17.0140 C   0  0  0  0  0  0  0  0  0  0  0  0
   23.0670   -4.4686  -16.0022 C   0  0  2  0  0  0  0  0  0  0  0  0
   24.5113   -4.8385  -15.7468 C   0  0  0  0  0  0  0  0  0  0  0  0
   22.2951   -5.5852  -16.6514 C   0  0  0  0  0  0  0  0  0  0  0  0
   21.9508   -6.7200  -15.7173 C   0  0  2  0  0  0  0  0  0  0  0  0
   21.1807   -7.7181  -16.4676 N   0  0  0  0  0  0  0  0  0  0  0  0
   21.1904   -6.3301  -14.5342 C   0  0  0  0  0  0  0  0  0  0  0  0
   19.9499   -6.1655  -14.6080 O   0  0  0  0  0  0  0  0  0  0  0  0
   21.8035   -6.1336  -13.3119 O   0  0  0  0  0  0  0  0  0  0  0  0
  2  1  1  0
  3  2  1  0
  4  5  1  0
  4  3  1  0
  5  6  1  1
  5  1  1  0
  6  7  2  0
  9  8  1  0
  9 11  1  0
 10  9  2  0
 12 11  1  0
 13 12  1  1
 14 13  1  0
 14  6  1  0
 15 16  2  0
 15 13  1  0
 18 17  1  6
 18 19  1  0
 18 20  1  0
 21 20  1  6
 21 22  1  0
 21 23  1  0
 22 15  1  0
 23 25  1  0
 24 23  2  0
M  END
$$$$
