PQL.pdb
     RDKit          3D

 25 25  0  0  1  0  0  0  0  0999 V2000
   25.5548  -11.7747  -16.5561 N   0  0  0  0  0  0  0  0  0  0  0  0
   26.2415  -13.0447  -16.3693 C   0  0  0  0  0  0  0  0  0  0  0  0
   25.0533  -13.9838  -16.1781 C   0  0  0  0  0  0  0  0  0  0  0  0
   24.1624  -13.5320  -17.3415 C   0  0  0  0  0  0  0  0  0  0  0  0
   24.5983  -12.0990  -17.5922 C   0  0  1  0  0  0  0  0  0  0  0  0
   23.4401  -11.1802  -17.5952 C   0  0  0  0  0  0  0  0  0  0  0  0
   22.5305  -11.3830  -18.4278 O   0  0  0  0  0  0  0  0  0  0  0  0
   18.2365  -10.4851  -15.9846 N   0  0  0  0  0  0  0  0  0  0  0  0
   19.2393  -10.8670  -15.0614 C   0  0  0  0  0  0  0  0  0  0  0  0
   18.8446  -11.4158  -13.9745 O   0  0  0  0  0  0  0  0  0  0  0  0
   20.6833  -10.6791  -15.2772 C   0  0  0  0  0  0  0  0  0  0  0  0
   20.9900   -9.9855  -16.5284 C   0  0  0  0  0  0  0  0  0  0  0  0
   22.1854   -9.1610  -16.6881 C   0  0  2  0  0  0  0  0  0  0  0  0
   23.3315  -10.0969  -16.6999 N   0  0  0  0  0  0  0  0  0  0  0  0
   22.4941   -8.0526  -15.8294 C   0  0  0  0  0  0  0  0  0  0  0  0
   23.1977   -8.0861  -14.7829 O   0  0  0  0  0  0  0  0  0  0  0  0
   21.3773   -2.0258  -16.1233 C   0  0  0  0  0  0  0  0  0  0  0  0
   22.3786   -3.0431  -15.5521 C   0  0  2  0  0  0  0  0  0  0  0  0
   23.7746   -2.5642  -15.8830 C   0  0  0  0  0  0  0  0  0  0  0  0
   22.0472   -4.3502  -16.2197 C   0  0  0  0  0  0  0  0  0  0  0  0
   22.3646   -5.5664  -15.3837 C   0  0  2  0  0  0  0  0  0  0  0  0
   21.9806   -6.7616  -16.1430 N   0  0  0  0  0  0  0  0  0  0  0  0
   21.7060   -5.6035  -14.0818 C   0  0  0  0  0  0  0  0  0  0  0  0
   20.5558   -6.0896  -13.9708 O   0  0  0  0  0  0  0  0  0  0  0  0
   22.3198   -5.1125  -12.9458 O   0  0  0  0  0  0  0  0  0  0  0  0
  2  1  1  0
  3  2  1  0
  4  5  1  0
  4  3  1  0
  5  6  1  1
  5  1  1  0
  6  7  2  0
  9  8  1  0
  9 11  1  0
 10  9  2  0
 12 11  1  0
 13 12  1  1
 14 13  1  0
 14  6  1  0
 15 16  2  0
 15 13  1  0
 18 17  1  6
 18 19  1  0
 18 20  1  0
 21 20  1  6
 21 22  1  0
 21 23  1  0
 22 15  1  0
 23 25  1  0
 24 23  2  0
M  END
$$$$
