PQL.pdb
     RDKit          3D

 25 25  0  0  1  0  0  0  0  0999 V2000
   39.8875   -8.9066   -7.6757 N   0  0  0  0  0  0  0  0  0  0  0  0
   40.6857  -10.0999   -7.4339 C   0  0  0  0  0  0  0  0  0  0  0  0
   41.7128   -9.9862   -8.5574 C   0  0  0  0  0  0  0  0  0  0  0  0
   42.1126   -8.5132   -8.4094 C   0  0  0  0  0  0  0  0  0  0  0  0
   40.9010   -7.8767   -7.7512 C   0  0  1  0  0  0  0  0  0  0  0  0
   40.4424   -6.6916   -8.5068 C   0  0  0  0  0  0  0  0  0  0  0  0
   41.1715   -5.6766   -8.5083 O   0  0  0  0  0  0  0  0  0  0  0  0
   36.1592   -7.4180  -12.8906 N   0  0  0  0  0  0  0  0  0  0  0  0
   36.3320   -6.0141  -12.9457 C   0  0  0  0  0  0  0  0  0  0  0  0
   35.6942   -5.3895  -13.8629 O   0  0  0  0  0  0  0  0  0  0  0  0
   37.1818   -5.2442  -12.0228 C   0  0  0  0  0  0  0  0  0  0  0  0
   37.9106   -6.0884  -11.0758 C   0  0  0  0  0  0  0  0  0  0  0  0
   38.7841   -5.5290  -10.0471 C   0  0  2  0  0  0  0  0  0  0  0  0
   39.2244   -6.6714   -9.2161 N   0  0  0  0  0  0  0  0  0  0  0  0
   38.3913   -4.4481   -9.1877 C   0  0  0  0  0  0  0  0  0  0  0  0
   37.7776   -4.5459   -8.0899 O   0  0  0  0  0  0  0  0  0  0  0  0
   39.9679    0.5676   -7.4296 C   0  0  0  0  0  0  0  0  0  0  0  0
   39.3359   -0.6575   -6.7489 C   0  0  2  0  0  0  0  0  0  0  0  0
   40.0534   -0.8880   -5.4375 C   0  0  0  0  0  0  0  0  0  0  0  0
   39.5264   -1.7955   -7.7147 C   0  0  0  0  0  0  0  0  0  0  0  0
   38.3915   -1.9674   -8.6952 C   0  0  2  0  0  0  0  0  0  0  0  0
   38.7001   -3.1093   -9.5630 N   0  0  0  0  0  0  0  0  0  0  0  0
   38.1210   -0.8009   -9.5296 C   0  0  0  0  0  0  0  0  0  0  0  0
   38.5524   -0.7534  -10.7056 O   0  0  0  0  0  0  0  0  0  0  0  0
   37.3908    0.2727   -9.0581 O   0  0  0  0  0  0  0  0  0  0  0  0
  2  1  1  0
  3  2  1  0
  4  5  1  0
  4  3  1  0
  5  6  1  6
  5  1  1  0
  6  7  2  0
  9  8  1  0
  9 11  1  0
 10  9  2  0
 12 11  1  0
 13 12  1  1
 14 13  1  0
 14  6  1  0
 15 16  2  0
 15 13  1  0
 18 17  1  6
 18 19  1  0
 18 20  1  0
 21 20  1  1
 21 22  1  0
 21 23  1  0
 22 15  1  0
 23 25  1  0
 24 23  2  0
M  END
$$$$
