PQL.pdb
     RDKit          3D

 25 25  0  0  1  0  0  0  0  0999 V2000
   19.1787  -15.5787  -17.1527 N   0  0  0  0  0  0  0  0  0  0  0  0
   18.7337  -16.7921  -17.8228 C   0  0  0  0  0  0  0  0  0  0  0  0
   18.2654  -16.2223  -19.1593 C   0  0  0  0  0  0  0  0  0  0  0  0
   19.4549  -15.3156  -19.4976 C   0  0  0  0  0  0  0  0  0  0  0  0
   20.0583  -14.9939  -18.1416 C   0  0  1  0  0  0  0  0  0  0  0  0
   20.2178  -13.5355  -17.9593 C   0  0  0  0  0  0  0  0  0  0  0  0
   21.0825  -12.9482  -18.6442 O   0  0  0  0  0  0  0  0  0  0  0  0
   15.3334  -10.9545  -17.1847 N   0  0  0  0  0  0  0  0  0  0  0  0
   16.1259   -9.9308  -17.7570 C   0  0  0  0  0  0  0  0  0  0  0  0
   15.5228   -9.0808  -18.4999 O   0  0  0  0  0  0  0  0  0  0  0  0
   17.5756   -9.7858  -17.5466 C   0  0  0  0  0  0  0  0  0  0  0  0
   18.1460  -10.8575  -16.7300 C   0  0  0  0  0  0  0  0  0  0  0  0
   19.5180  -11.3261  -16.9092 C   0  0  2  0  0  0  0  0  0  0  0  0
   19.4350  -12.7968  -17.0491 N   0  0  0  0  0  0  0  0  0  0  0  0
   20.5826  -11.0007  -16.0024 C   0  0  0  0  0  0  0  0  0  0  0  0
   20.7610  -11.4814  -14.8498 O   0  0  0  0  0  0  0  0  0  0  0  0
   26.3742  -10.0404  -16.1504 C   0  0  0  0  0  0  0  0  0  0  0  0
   25.1630   -9.6862  -15.2722 C   0  0  2  0  0  0  0  0  0  0  0  0
   25.2878  -10.4477  -13.9713 C   0  0  0  0  0  0  0  0  0  0  0  0
   23.9555  -10.1032  -16.0673 C   0  0  0  0  0  0  0  0  0  0  0  0
   22.6441   -9.6282  -15.4899 C   0  0  2  0  0  0  0  0  0  0  0  0
   21.5646  -10.0454  -16.3916 N   0  0  0  0  0  0  0  0  0  0  0  0
   22.5531   -8.1865  -15.2814 C   0  0  0  0  0  0  0  0  0  0  0  0
   22.8239   -7.6933  -14.1612 O   0  0  0  0  0  0  0  0  0  0  0  0
   22.1722   -7.3309  -16.2968 O   0  0  0  0  0  0  0  0  0  0  0  0
  2  1  1  0
  3  2  1  0
  4  5  1  0
  4  3  1  0
  5  6  1  1
  5  1  1  0
  6  7  2  0
  9  8  1  0
  9 11  1  0
 10  9  2  0
 12 11  1  0
 13 12  1  1
 14 13  1  0
 14  6  1  0
 15 16  2  0
 15 13  1  0
 18 17  1  6
 18 19  1  0
 18 20  1  0
 21 20  1  6
 21 22  1  0
 21 23  1  0
 22 15  1  0
 23 25  1  0
 24 23  2  0
M  END
$$$$
