RWS.pdb
     RDKit          3D

 32 33  0  0  1  0  0  0  0  0999 V2000
   30.2957  -17.8638  -15.8290 N   0  0  0  0  0  0  0  0  0  0  0  0
   28.9831  -18.1051  -16.3547 C   0  0  0  0  0  0  0  0  0  0  0  0
   28.8195  -17.7684  -17.6001 N   0  0  0  0  0  0  0  0  0  0  0  0
   27.9380  -18.6678  -15.5832 N   0  0  0  0  0  0  0  0  0  0  0  0
   28.1121  -19.9490  -14.9627 C   0  0  0  0  0  0  0  0  0  0  0  0
   29.1700  -19.9208  -13.8589 C   0  0  0  0  0  0  0  0  0  0  0  0
   28.5965  -20.6329  -12.6788 C   0  0  0  0  0  0  0  0  0  0  0  0
   27.1053  -20.4939  -12.5640 C   0  0  2  0  0  0  0  0  0  0  0  0
   26.7006  -19.1219  -12.6544 N   0  0  0  0  0  0  0  0  0  0  0  0
   26.5553  -21.1773  -11.3695 C   0  0  0  0  0  0  0  0  0  0  0  0
   26.8299  -22.3857  -11.1638 O   0  0  0  0  0  0  0  0  0  0  0  0
   27.8733  -17.8716  -18.0078 N   0  0  0  0  0  0  0  0  0  0  0  0
   25.7284  -20.4226  -10.4962 C   0  0  2  0  0  0  0  0  0  0  0  0
   24.7721  -21.0450   -9.6424 C   0  0  0  0  0  0  0  0  0  0  0  0
   24.7716  -20.5101   -8.2367 C   0  0  0  0  0  0  0  0  0  0  0  0
   26.0114  -19.7668   -7.8984 C   0  0  0  0  0  0  0  0  0  0  0  0
   26.5562  -18.6912   -8.5924 N   0  0  0  0  0  0  0  0  0  0  0  0
   27.6713  -18.3491   -7.9288 C   0  0  0  0  0  0  0  0  0  0  0  0
   27.8519  -19.1506   -6.8609 C   0  0  0  0  0  0  0  0  0  0  0  0
   28.8240  -19.2168   -5.8735 C   0  0  0  0  0  0  0  0  0  0  0  0
   28.7853  -20.1518   -4.8613 C   0  0  0  0  0  0  0  0  0  0  0  0
   27.7280  -21.0591   -4.8370 C   0  0  0  0  0  0  0  0  0  0  0  0
   26.7501  -21.0172   -5.8025 C   0  0  0  0  0  0  0  0  0  0  0  0
   26.8225  -20.0688   -6.7981 C   0  0  0  0  0  0  0  0  0  0  0  0
   23.3962  -20.9477  -10.1928 O   0  0  0  0  0  0  0  0  0  0  0  0
   22.4011  -20.9746   -9.4260 O   0  0  0  0  0  0  0  0  0  0  0  0
   22.6950  -19.1215  -13.4979 C   0  0  0  0  0  0  0  0  0  0  0  0
   21.5824  -19.3676  -12.6850 C   0  0  1  0  0  0  0  0  0  0  0  0
   21.7776  -20.7720  -12.1089 N   0  0  0  0  0  0  0  0  0  0  0  0
   23.1276  -20.8212  -11.5831 C   0  0  0  0  0  0  0  0  0  0  0  0
   21.5893  -21.8078  -13.1228 O   0  0  0  0  0  0  0  0  0  0  0  0
   22.5641  -22.4797  -13.5305 O   0  0  0  0  0  0  0  0  0  0  0  0
  1  2  1  0
  2  3  2  0
  4  5  1  0
  4  2  1  0
  6  5  1  0
  7  6  1  0
  8  9  1  1
  8  7  1  0
 10  8  1  0
 11 10  2  0
 12 10  1  0
 13 12  1  0
 13 24  1  0
 13 14  1  6
 15 14  1  0
 16 15  2  0
 17 16  1  0
 18 17  1  0
 18 23  2  0
 19 18  1  0
 20 19  2  0
 20 21  1  0
 21 22  2  0
 22 23  1  0
 23 15  1  0
 24 25  2  0
 27 26  1  0
 28 27  1  1
 29 24  1  0
 29 28  1  0
 30 28  1  0
 30 32  1  0
 31 30  2  0
M  END
$$$$
