RWS.pdb
     RDKit          3D

 32 33  0  0  1  0  0  0  0  0999 V2000
   29.2333  -29.0046  -18.4869 N   0  0  0  0  0  0  0  0  0  0  0  0
   28.7017  -27.8703  -17.7880 C   0  0  0  0  0  0  0  0  0  0  0  0
   28.0753  -28.1497  -16.6831 N   0  0  0  0  0  0  0  0  0  0  0  0
   28.8441  -26.5425  -18.2579 N   0  0  0  0  0  0  0  0  0  0  0  0
   28.3077  -25.4501  -17.4992 C   0  0  0  0  0  0  0  0  0  0  0  0
   27.1833  -24.7253  -18.2399 C   0  0  0  0  0  0  0  0  0  0  0  0
   26.3087  -24.0947  -17.2074 C   0  0  0  0  0  0  0  0  0  0  0  0
   26.9529  -22.9319  -16.5083 C   0  0  2  0  0  0  0  0  0  0  0  0
   28.3734  -23.0996  -16.4172 N   0  0  0  0  0  0  0  0  0  0  0  0
   26.3254  -22.6293  -15.2001 C   0  0  0  0  0  0  0  0  0  0  0  0
   26.3463  -23.4916  -14.2869 O   0  0  0  0  0  0  0  0  0  0  0  0
   27.9832  -29.1468  -16.4194 N   0  0  0  0  0  0  0  0  0  0  0  0
   25.7183  -21.3564  -15.0350 C   0  0  1  0  0  0  0  0  0  0  0  0
   25.0651  -20.9872  -13.8235 C   0  0  0  0  0  0  0  0  0  0  0  0
   25.6562  -19.7748  -13.1580 C   0  0  0  0  0  0  0  0  0  0  0  0
   26.9246  -20.0657  -12.4435 C   0  0  0  0  0  0  0  0  0  0  0  0
   28.2075  -20.0552  -12.9811 N   0  0  0  0  0  0  0  0  0  0  0  0
   29.0334  -20.3801  -11.9744 C   0  0  0  0  0  0  0  0  0  0  0  0
   28.3375  -20.5925  -10.8404 C   0  0  0  0  0  0  0  0  0  0  0  0
   28.7044  -20.9437   -9.5496 C   0  0  0  0  0  0  0  0  0  0  0  0
   27.7819  -21.1044   -8.5380 C   0  0  0  0  0  0  0  0  0  0  0  0
   26.4344  -20.9049   -8.8317 C   0  0  0  0  0  0  0  0  0  0  0  0
   26.0413  -20.5562  -10.1023 C   0  0  0  0  0  0  0  0  0  0  0  0
   26.9919  -20.4048  -11.0869 C   0  0  0  0  0  0  0  0  0  0  0  0
   23.6115  -20.7610  -14.0279 O   0  0  0  0  0  0  0  0  0  0  0  0
   23.2008  -20.1400  -15.0400 O   0  0  0  0  0  0  0  0  0  0  0  0
   20.7793  -23.2861  -13.5762 C   0  0  0  0  0  0  0  0  0  0  0  0
   20.4753  -22.2033  -12.7431 C   0  0  2  0  0  0  0  0  0  0  0  0
   21.2070  -20.9944  -13.3310 N   0  0  0  0  0  0  0  0  0  0  0  0
   22.6226  -21.2210  -13.1161 C   0  0  0  0  0  0  0  0  0  0  0  0
   20.7907  -19.7447  -12.6975 O   0  0  0  0  0  0  0  0  0  0  0  0
   21.5435  -19.1675  -11.8801 O   0  0  0  0  0  0  0  0  0  0  0  0
  1  2  1  0
  2  3  2  0
  4  5  1  0
  4  2  1  0
  6  5  1  0
  7  6  1  0
  8  9  1  1
  8  7  1  0
 10  8  1  0
 11 10  2  0
 12 10  1  0
 13 12  1  0
 13 24  1  0
 13 14  1  1
 15 14  1  0
 16 15  2  0
 17 16  1  0
 18 17  1  0
 18 23  2  0
 19 18  1  0
 20 19  2  0
 20 21  1  0
 21 22  2  0
 22 23  1  0
 23 15  1  0
 24 25  2  0
 27 26  1  0
 28 27  1  6
 29 24  1  0
 29 28  1  0
 30 28  1  0
 30 32  1  0
 31 30  2  0
M  END
$$$$
