RWS.pdb
     RDKit          3D

 32 33  0  0  1  0  0  0  0  0999 V2000
   27.2289  -18.9070  -17.3824 N   0  0  0  0  0  0  0  0  0  0  0  0
   27.2315  -19.1275  -18.7997 C   0  0  0  0  0  0  0  0  0  0  0  0
   27.0894  -18.0560  -19.5229 N   0  0  0  0  0  0  0  0  0  0  0  0
   27.3779  -20.4118  -19.3771 N   0  0  0  0  0  0  0  0  0  0  0  0
   27.5702  -21.5593  -18.5385 C   0  0  0  0  0  0  0  0  0  0  0  0
   27.0040  -22.8356  -19.1620 C   0  0  0  0  0  0  0  0  0  0  0  0
   25.9825  -23.3741  -18.2157 C   0  0  0  0  0  0  0  0  0  0  0  0
   26.5571  -23.7977  -16.8943 C   0  0  2  0  0  0  0  0  0  0  0  0
   27.1840  -25.0834  -16.9859 N   0  0  0  0  0  0  0  0  0  0  0  0
   25.5741  -23.7157  -15.7881 C   0  0  0  0  0  0  0  0  0  0  0  0
   25.0885  -24.7706  -15.3093 O   0  0  0  0  0  0  0  0  0  0  0  0
   27.0499  -18.1695  -20.5513 N   0  0  0  0  0  0  0  0  0  0  0  0
   25.2192  -22.4263  -15.3111 C   0  0  2  0  0  0  0  0  0  0  0  0
   24.3618  -22.2511  -14.1865 C   0  0  0  0  0  0  0  0  0  0  0  0
   24.8326  -21.1993  -13.2199 C   0  0  0  0  0  0  0  0  0  0  0  0
   25.1016  -19.8923  -13.8704 C   0  0  0  0  0  0  0  0  0  0  0  0
   24.2082  -18.8376  -14.0272 N   0  0  0  0  0  0  0  0  0  0  0  0
   24.8836  -17.8728  -14.6706 C   0  0  0  0  0  0  0  0  0  0  0  0
   26.1470  -18.2668  -14.9234 C   0  0  0  0  0  0  0  0  0  0  0  0
   27.2270  -17.6598  -15.5475 C   0  0  0  0  0  0  0  0  0  0  0  0
   28.4473  -18.2860  -15.6852 C   0  0  0  0  0  0  0  0  0  0  0  0
   28.5921  -19.5751  -15.1763 C   0  0  0  0  0  0  0  0  0  0  0  0
   27.5390  -20.2016  -14.5528 C   0  0  0  0  0  0  0  0  0  0  0  0
   26.3350  -19.5442  -14.4340 C   0  0  0  0  0  0  0  0  0  0  0  0
   22.9703  -21.9353  -14.5983 O   0  0  0  0  0  0  0  0  0  0  0  0
   22.7532  -21.1855  -15.5829 O   0  0  0  0  0  0  0  0  0  0  0  0
   19.8879  -23.3509  -12.4229 C   0  0  0  0  0  0  0  0  0  0  0  0
   19.5743  -23.2283  -13.7814 C   0  0  1  0  0  0  0  0  0  0  0  0
   20.4772  -22.1207  -14.3292 N   0  0  0  0  0  0  0  0  0  0  0  0
   21.8295  -22.4481  -13.9225 C   0  0  0  0  0  0  0  0  0  0  0  0
   20.0973  -20.8053  -13.8176 O   0  0  0  0  0  0  0  0  0  0  0  0
   19.0461  -20.2514  -14.2126 O   0  0  0  0  0  0  0  0  0  0  0  0
  1  2  1  0
  2  3  2  0
  4  5  1  0
  4  2  1  0
  6  5  1  0
  7  6  1  0
  8  9  1  6
  8  7  1  0
 10  8  1  0
 11 10  2  0
 12 10  1  0
 13 12  1  0
 13 24  1  0
 13 14  1  1
 15 14  1  0
 16 15  2  0
 17 16  1  0
 18 17  1  0
 18 23  2  0
 19 18  1  0
 20 19  2  0
 20 21  1  0
 21 22  2  0
 22 23  1  0
 23 15  1  0
 24 25  2  0
 27 26  1  0
 28 27  1  6
 29 24  1  0
 29 28  1  0
 30 28  1  0
 30 32  1  0
 31 30  2  0
M  END
$$$$
