RWS.pdb
     RDKit          3D

 32 33  0  0  1  0  0  0  0  0999 V2000
   27.6781  -18.3071  -18.4719 N   0  0  0  0  0  0  0  0  0  0  0  0
   28.7022  -17.3516  -18.1626 C   0  0  0  0  0  0  0  0  0  0  0  0
   29.1644  -16.6916  -19.1835 N   0  0  0  0  0  0  0  0  0  0  0  0
   29.1798  -17.1359  -16.8476 N   0  0  0  0  0  0  0  0  0  0  0  0
   28.3075  -17.3277  -15.7254 C   0  0  0  0  0  0  0  0  0  0  0  0
   27.3716  -18.5220  -15.9148 C   0  0  0  0  0  0  0  0  0  0  0  0
   26.7740  -18.8307  -14.5821 C   0  0  0  0  0  0  0  0  0  0  0  0
   27.4617  -19.9576  -13.8657 C   0  0  2  0  0  0  0  0  0  0  0  0
   28.1850  -20.7923  -14.7791 N   0  0  0  0  0  0  0  0  0  0  0  0
   26.5453  -20.7249  -12.9893 C   0  0  0  0  0  0  0  0  0  0  0  0
   25.9717  -21.7494  -13.4356 O   0  0  0  0  0  0  0  0  0  0  0  0
   29.9491  -16.0362  -19.0195 N   0  0  0  0  0  0  0  0  0  0  0  0
   26.3534  -20.2593  -11.6617 C   0  0  2  0  0  0  0  0  0  0  0  0
   25.3799  -20.8374  -10.7963 C   0  0  0  0  0  0  0  0  0  0  0  0
   25.5592  -20.4725   -9.3482 C   0  0  0  0  0  0  0  0  0  0  0  0
   26.9245  -20.7618   -8.8418 C   0  0  0  0  0  0  0  0  0  0  0  0
   27.9013  -21.5308   -9.4659 N   0  0  0  0  0  0  0  0  0  0  0  0
   28.9630  -21.5179   -8.6451 C   0  0  0  0  0  0  0  0  0  0  0  0
   28.7027  -20.7844   -7.5453 C   0  0  0  0  0  0  0  0  0  0  0  0
   29.4444  -20.4618   -6.4184 C   0  0  0  0  0  0  0  0  0  0  0  0
   28.9420  -19.6738   -5.4049 C   0  0  0  0  0  0  0  0  0  0  0  0
   27.6415  -19.1884   -5.5253 C   0  0  0  0  0  0  0  0  0  0  0  0
   26.8828  -19.4918   -6.6311 C   0  0  0  0  0  0  0  0  0  0  0  0
   27.4189  -20.2820   -7.6231 C   0  0  0  0  0  0  0  0  0  0  0  0
   23.9972  -20.4883  -11.2109 O   0  0  0  0  0  0  0  0  0  0  0  0
   23.6151  -19.2913  -11.2064 O   0  0  0  0  0  0  0  0  0  0  0  0
   21.1636  -23.3672  -11.8878 C   0  0  0  0  0  0  0  0  0  0  0  0
   21.1602  -22.3203  -12.8169 C   0  0  1  0  0  0  0  0  0  0  0  0
   21.7198  -21.0985  -12.0846 N   0  0  0  0  0  0  0  0  0  0  0  0
   23.0471  -21.4602  -11.6274 C   0  0  0  0  0  0  0  0  0  0  0  0
   20.8809  -20.7104  -10.9524 O   0  0  0  0  0  0  0  0  0  0  0  0
   19.7228  -20.2737  -11.1425 O   0  0  0  0  0  0  0  0  0  0  0  0
  1  2  1  0
  2  3  2  0
  4  5  1  0
  4  2  1  0
  6  5  1  0
  7  6  1  0
  8  9  1  6
  8  7  1  0
 10  8  1  0
 11 10  2  0
 12 10  1  0
 13 12  1  0
 13 24  1  0
 13 14  1  6
 15 14  1  0
 16 15  2  0
 17 16  1  0
 18 17  1  0
 18 23  2  0
 19 18  1  0
 20 19  2  0
 20 21  1  0
 21 22  2  0
 22 23  1  0
 23 15  1  0
 24 25  2  0
 27 26  1  0
 28 27  1  6
 29 24  1  0
 29 28  1  0
 30 28  1  0
 30 32  1  0
 31 30  2  0
M  END
$$$$
