RWS.pdb
     RDKit          3D

 32 33  0  0  1  0  0  0  0  0999 V2000
   24.6401  -27.2176  -16.8921 N   0  0  0  0  0  0  0  0  0  0  0  0
   23.9961  -26.2724  -17.7578 C   0  0  0  0  0  0  0  0  0  0  0  0
   22.8121  -26.6206  -18.1678 N   0  0  0  0  0  0  0  0  0  0  0  0
   24.5966  -25.0493  -18.1420 N   0  0  0  0  0  0  0  0  0  0  0  0
   25.9678  -24.7872  -17.8132 C   0  0  0  0  0  0  0  0  0  0  0  0
   26.4457  -23.4373  -18.3494 C   0  0  0  0  0  0  0  0  0  0  0  0
   26.0898  -22.4059  -17.3304 C   0  0  0  0  0  0  0  0  0  0  0  0
   26.8473  -22.5531  -16.0419 C   0  0  2  0  0  0  0  0  0  0  0  0
   27.6827  -23.7176  -16.0577 N   0  0  0  0  0  0  0  0  0  0  0  0
   25.9692  -22.4925  -14.8495 C   0  0  0  0  0  0  0  0  0  0  0  0
   25.7214  -23.5428  -14.2066 O   0  0  0  0  0  0  0  0  0  0  0  0
   22.3406  -26.0085  -18.8572 N   0  0  0  0  0  0  0  0  0  0  0  0
   25.4382  -21.2282  -14.4811 C   0  0  1  0  0  0  0  0  0  0  0  0
   24.5665  -21.0761  -13.3641 C   0  0  0  0  0  0  0  0  0  0  0  0
   24.9460  -19.9479  -12.4448 C   0  0  0  0  0  0  0  0  0  0  0  0
   25.7077  -20.4012  -11.2538 C   0  0  0  0  0  0  0  0  0  0  0  0
   25.1927  -20.6979   -9.9961 N   0  0  0  0  0  0  0  0  0  0  0  0
   26.2425  -21.0585   -9.2419 C   0  0  0  0  0  0  0  0  0  0  0  0
   27.3820  -21.0032   -9.9586 C   0  0  0  0  0  0  0  0  0  0  0  0
   28.7098  -21.2693   -9.6580 C   0  0  0  0  0  0  0  0  0  0  0  0
   29.7184  -21.1345  -10.5881 C   0  0  0  0  0  0  0  0  0  0  0  0
   29.3827  -20.7153  -11.8739 C   0  0  0  0  0  0  0  0  0  0  0  0
   28.0749  -20.4443  -12.2004 C   0  0  0  0  0  0  0  0  0  0  0  0
   27.0947  -20.5904  -11.2445 C   0  0  0  0  0  0  0  0  0  0  0  0
   23.1545  -20.8952  -13.7876 O   0  0  0  0  0  0  0  0  0  0  0  0
   22.8526  -20.0202  -14.6373 O   0  0  0  0  0  0  0  0  0  0  0  0
   20.1911  -22.8684  -11.8853 C   0  0  0  0  0  0  0  0  0  0  0  0
   19.9568  -22.7648  -13.2613 C   0  0  1  0  0  0  0  0  0  0  0  0
   20.7209  -21.5250  -13.7318 N   0  0  0  0  0  0  0  0  0  0  0  0
   22.0869  -21.6797  -13.2720 C   0  0  0  0  0  0  0  0  0  0  0  0
   20.1419  -20.2934  -13.1987 O   0  0  0  0  0  0  0  0  0  0  0  0
   20.7489  -19.6353  -12.3231 O   0  0  0  0  0  0  0  0  0  0  0  0
  1  2  1  0
  2  3  2  0
  4  5  1  0
  4  2  1  0
  6  5  1  0
  7  6  1  0
  8  9  1  6
  8  7  1  0
 10  8  1  0
 11 10  2  0
 12 10  1  0
 13 12  1  0
 13 24  1  0
 13 14  1  1
 15 14  1  0
 16 15  2  0
 17 16  1  0
 18 17  1  0
 18 23  2  0
 19 18  1  0
 20 19  2  0
 20 21  1  0
 21 22  2  0
 22 23  1  0
 23 15  1  0
 24 25  2  0
 27 26  1  0
 28 27  1  6
 29 24  1  0
 29 28  1  0
 30 28  1  0
 30 32  1  0
 31 30  2  0
M  END
$$$$
