RWS.pdb
     RDKit          3D

 32 33  0  0  1  0  0  0  0  0999 V2000
   26.8975  -28.1150  -17.1812 N   0  0  0  0  0  0  0  0  0  0  0  0
   26.4937  -27.8188  -18.5254 C   0  0  0  0  0  0  0  0  0  0  0  0
   25.6066  -28.6285  -19.0238 N   0  0  0  0  0  0  0  0  0  0  0  0
   27.0161  -26.7283  -19.2617 N   0  0  0  0  0  0  0  0  0  0  0  0
   27.6929  -25.6612  -18.5835 C   0  0  0  0  0  0  0  0  0  0  0  0
   26.7314  -24.5682  -18.1154 C   0  0  0  0  0  0  0  0  0  0  0  0
   26.8491  -24.4826  -16.6297 C   0  0  0  0  0  0  0  0  0  0  0  0
   27.2394  -23.1177  -16.1392 C   0  0  2  0  0  0  0  0  0  0  0  0
   28.6638  -22.9798  -16.0583 N   0  0  0  0  0  0  0  0  0  0  0  0
   26.5538  -22.7425  -14.8799 C   0  0  0  0  0  0  0  0  0  0  0  0
   26.3965  -23.6028  -13.9782 O   0  0  0  0  0  0  0  0  0  0  0  0
   25.3298  -28.4921  -20.0122 N   0  0  0  0  0  0  0  0  0  0  0  0
   26.0976  -21.4045  -14.7470 C   0  0  1  0  0  0  0  0  0  0  0  0
   25.4407  -20.9485  -13.5675 C   0  0  0  0  0  0  0  0  0  0  0  0
   26.0992  -19.7585  -12.9253 C   0  0  0  0  0  0  0  0  0  0  0  0
   27.1749  -20.1341  -11.9736 C   0  0  0  0  0  0  0  0  0  0  0  0
   28.5111  -20.3756  -12.2761 N   0  0  0  0  0  0  0  0  0  0  0  0
   29.1042  -20.6841  -11.1125 C   0  0  0  0  0  0  0  0  0  0  0  0
   28.2132  -20.6484  -10.1025 C   0  0  0  0  0  0  0  0  0  0  0  0
   28.3103  -20.8808   -8.7384 C   0  0  0  0  0  0  0  0  0  0  0  0
   27.2262  -20.7776   -7.8931 C   0  0  0  0  0  0  0  0  0  0  0  0
   25.9924  -20.4267   -8.4373 C   0  0  0  0  0  0  0  0  0  0  0  0
   25.8662  -20.1905   -9.7859 C   0  0  0  0  0  0  0  0  0  0  0  0
   26.9718  -20.3034  -10.5988 C   0  0  0  0  0  0  0  0  0  0  0  0
   24.0130  -20.6276  -13.8208 O   0  0  0  0  0  0  0  0  0  0  0  0
   23.6958  -19.7956  -14.7074 O   0  0  0  0  0  0  0  0  0  0  0  0
   20.9246  -22.1177  -11.4605 C   0  0  0  0  0  0  0  0  0  0  0  0
   20.7395  -22.1107  -12.8479 C   0  0  1  0  0  0  0  0  0  0  0  0
   21.5560  -20.9311  -13.3810 N   0  0  0  0  0  0  0  0  0  0  0  0
   22.9464  -21.2259  -13.0959 C   0  0  0  0  0  0  0  0  0  0  0  0
   21.1652  -19.6702  -12.7535 O   0  0  0  0  0  0  0  0  0  0  0  0
   19.9934  -19.2432  -12.8659 O   0  0  0  0  0  0  0  0  0  0  0  0
  1  2  1  0
  2  3  2  0
  4  5  1  0
  4  2  1  0
  6  5  1  0
  7  6  1  0
  8  9  1  1
  8  7  1  0
 10  8  1  0
 11 10  2  0
 12 10  1  0
 13 12  1  0
 13 24  1  0
 13 14  1  1
 15 14  1  0
 16 15  2  0
 17 16  1  0
 18 17  1  0
 18 23  2  0
 19 18  1  0
 20 19  2  0
 20 21  1  0
 21 22  2  0
 22 23  1  0
 23 15  1  0
 24 25  2  0
 27 26  1  0
 28 27  1  6
 29 24  1  0
 29 28  1  0
 30 28  1  0
 30 32  1  0
 31 30  2  0
M  END
$$$$
