RWS.pdb
     RDKit          3D

 32 33  0  0  1  0  0  0  0  0999 V2000
   30.3269  -21.3710  -19.0108 N   0  0  0  0  0  0  0  0  0  0  0  0
   29.2375  -22.2096  -19.4200 C   0  0  0  0  0  0  0  0  0  0  0  0
   29.5825  -23.2748  -20.0815 N   0  0  0  0  0  0  0  0  0  0  0  0
   27.8851  -21.9087  -19.1294 N   0  0  0  0  0  0  0  0  0  0  0  0
   27.5569  -20.7410  -18.3641 C   0  0  0  0  0  0  0  0  0  0  0  0
   26.7196  -21.0730  -17.1284 C   0  0  0  0  0  0  0  0  0  0  0  0
   27.3138  -20.3285  -15.9789 C   0  0  0  0  0  0  0  0  0  0  0  0
   27.8036  -21.2236  -14.8767 C   0  0  2  0  0  0  0  0  0  0  0  0
   28.4896  -22.3681  -15.3999 N   0  0  0  0  0  0  0  0  0  0  0  0
   26.7367  -21.5844  -13.9133 C   0  0  0  0  0  0  0  0  0  0  0  0
   26.0573  -22.6244  -14.0996 O   0  0  0  0  0  0  0  0  0  0  0  0
   28.8281  -23.8572  -20.4862 N   0  0  0  0  0  0  0  0  0  0  0  0
   26.5267  -20.7235  -12.8039 C   0  0  1  0  0  0  0  0  0  0  0  0
   25.5072  -20.9748  -11.8404 C   0  0  0  0  0  0  0  0  0  0  0  0
   25.7473  -20.3105  -10.5126 C   0  0  0  0  0  0  0  0  0  0  0  0
   26.9983  -20.7642   -9.8546 C   0  0  0  0  0  0  0  0  0  0  0  0
   27.9935  -21.5609  -10.4115 N   0  0  0  0  0  0  0  0  0  0  0  0
   28.9226  -21.7149   -9.4555 C   0  0  0  0  0  0  0  0  0  0  0  0
   28.5625  -21.0594   -8.3348 C   0  0  0  0  0  0  0  0  0  0  0  0
   29.1554  -20.9040   -7.0903 C   0  0  0  0  0  0  0  0  0  0  0  0
   28.5732  -20.1651   -6.0826 C   0  0  0  0  0  0  0  0  0  0  0  0
   27.3449  -19.5561   -6.3319 C   0  0  0  0  0  0  0  0  0  0  0  0
   26.7338  -19.6928   -7.5559 C   0  0  0  0  0  0  0  0  0  0  0  0
   27.3459  -20.4387   -8.5382 C   0  0  0  0  0  0  0  0  0  0  0  0
   24.1665  -20.5768  -12.3401 O   0  0  0  0  0  0  0  0  0  0  0  0
   23.9137  -19.3721  -12.5922 O   0  0  0  0  0  0  0  0  0  0  0  0
   21.0137  -23.2683  -12.6357 C   0  0  0  0  0  0  0  0  0  0  0  0
   21.1800  -22.3515  -13.6802 C   0  0  1  0  0  0  0  0  0  0  0  0
   21.8155  -21.1062  -13.0575 N   0  0  0  0  0  0  0  0  0  0  0  0
   23.1156  -21.5089  -12.5584 C   0  0  0  0  0  0  0  0  0  0  0  0
   21.0006  -20.5636  -11.9722 O   0  0  0  0  0  0  0  0  0  0  0  0
   21.4258  -20.5745  -10.7944 O   0  0  0  0  0  0  0  0  0  0  0  0
  1  2  1  0
  2  3  2  0
  4  5  1  0
  4  2  1  0
  6  5  1  0
  7  6  1  0
  8  9  1  6
  8  7  1  0
 10  8  1  0
 11 10  2  0
 12 10  1  0
 13 12  1  0
 13 24  1  0
 13 14  1  1
 15 14  1  0
 16 15  2  0
 17 16  1  0
 18 17  1  0
 18 23  2  0
 19 18  1  0
 20 19  2  0
 20 21  1  0
 21 22  2  0
 22 23  1  0
 23 15  1  0
 24 25  2  0
 27 26  1  0
 28 27  1  6
 29 24  1  0
 29 28  1  0
 30 28  1  0
 30 32  1  0
 31 30  2  0
M  END
$$$$
