RWS.pdb
     RDKit          3D

 32 33  0  0  1  0  0  0  0  0999 V2000
   26.3821  -21.9339  -16.4597 N   0  0  0  0  0  0  0  0  0  0  0  0
   27.7359  -22.2053  -16.8482 C   0  0  0  0  0  0  0  0  0  0  0  0
   27.8922  -23.2558  -17.5988 N   0  0  0  0  0  0  0  0  0  0  0  0
   28.8266  -21.3955  -16.4497 N   0  0  0  0  0  0  0  0  0  0  0  0
   28.8347  -20.7892  -15.1501 C   0  0  0  0  0  0  0  0  0  0  0  0
   29.3999  -21.7215  -14.0778 C   0  0  0  0  0  0  0  0  0  0  0  0
   29.4381  -20.9523  -12.7989 C   0  0  0  0  0  0  0  0  0  0  0  0
   28.1151  -20.3466  -12.4265 C   0  0  2  0  0  0  0  0  0  0  0  0
   28.2348  -18.9387  -12.1863 N   0  0  0  0  0  0  0  0  0  0  0  0
   27.4480  -21.0641  -11.3145 C   0  0  0  0  0  0  0  0  0  0  0  0
   27.5423  -22.3143  -11.2368 O   0  0  0  0  0  0  0  0  0  0  0  0
   28.8332  -23.4314  -17.9936 N   0  0  0  0  0  0  0  0  0  0  0  0
   26.7196  -20.2930  -10.3706 C   0  0  1  0  0  0  0  0  0  0  0  0
   25.5547  -20.8001   -9.7251 C   0  0  0  0  0  0  0  0  0  0  0  0
   25.4785  -20.4707   -8.2596 C   0  0  0  0  0  0  0  0  0  0  0  0
   26.7597  -19.9572   -7.7130 C   0  0  0  0  0  0  0  0  0  0  0  0
   27.7051  -19.1875   -8.3831 N   0  0  0  0  0  0  0  0  0  0  0  0
   28.6926  -18.9645   -7.5022 C   0  0  0  0  0  0  0  0  0  0  0  0
   28.4159  -19.5516   -6.3215 C   0  0  0  0  0  0  0  0  0  0  0  0
   29.0911  -19.6223   -5.1118 C   0  0  0  0  0  0  0  0  0  0  0  0
   28.5863  -20.3014   -4.0235 C   0  0  0  0  0  0  0  0  0  0  0  0
   27.3529  -20.9368   -4.1524 C   0  0  0  0  0  0  0  0  0  0  0  0
   26.6611  -20.8837   -5.3394 C   0  0  0  0  0  0  0  0  0  0  0  0
   27.1973  -20.1957   -6.4048 C   0  0  0  0  0  0  0  0  0  0  0  0
   24.3102  -20.3324  -10.3870 O   0  0  0  0  0  0  0  0  0  0  0  0
   24.0438  -19.1059  -10.4463 O   0  0  0  0  0  0  0  0  0  0  0  0
   21.8076  -22.9932  -12.2132 C   0  0  0  0  0  0  0  0  0  0  0  0
   21.9204  -21.7317  -12.8091 C   0  0  1  0  0  0  0  0  0  0  0  0
   22.1877  -20.7446  -11.6705 N   0  0  0  0  0  0  0  0  0  0  0  0
   23.3696  -21.2194  -10.9782 C   0  0  0  0  0  0  0  0  0  0  0  0
   21.0581  -20.6593  -10.7469 O   0  0  0  0  0  0  0  0  0  0  0  0
   19.9505  -20.2265  -11.1392 O   0  0  0  0  0  0  0  0  0  0  0  0
  1  2  1  0
  2  3  2  0
  4  5  1  0
  4  2  1  0
  6  5  1  0
  7  6  1  0
  8  9  1  1
  8  7  1  0
 10  8  1  0
 11 10  2  0
 12 10  1  0
 13 12  1  0
 13 24  1  0
 13 14  1  1
 15 14  1  0
 16 15  2  0
 17 16  1  0
 18 17  1  0
 18 23  2  0
 19 18  1  0
 20 19  2  0
 20 21  1  0
 21 22  2  0
 22 23  1  0
 23 15  1  0
 24 25  2  0
 27 26  1  0
 28 27  1  6
 29 24  1  0
 29 28  1  0
 30 28  1  0
 30 32  1  0
 31 30  2  0
M  END
$$$$
