RWS.pdb
     RDKit          3D

 32 33  0  0  1  0  0  0  0  0999 V2000
   31.9047  -24.0644  -15.9333 N   0  0  0  0  0  0  0  0  0  0  0  0
   31.0629  -24.1258  -17.0931 C   0  0  0  0  0  0  0  0  0  0  0  0
   31.2123  -25.1905  -17.8248 N   0  0  0  0  0  0  0  0  0  0  0  0
   30.1355  -23.1087  -17.4239 N   0  0  0  0  0  0  0  0  0  0  0  0
   29.8957  -22.0296  -16.5102 C   0  0  0  0  0  0  0  0  0  0  0  0
   29.5534  -22.5242  -15.1043 C   0  0  0  0  0  0  0  0  0  0  0  0
   28.0725  -22.7043  -15.0476 C   0  0  0  0  0  0  0  0  0  0  0  0
   27.3321  -21.4505  -14.6793 C   0  0  2  0  0  0  0  0  0  0  0  0
   28.2331  -20.4125  -14.2732 N   0  0  0  0  0  0  0  0  0  0  0  0
   26.2513  -21.6906  -13.6940 C   0  0  0  0  0  0  0  0  0  0  0  0
   25.4600  -22.6516  -13.8619 O   0  0  0  0  0  0  0  0  0  0  0  0
   30.6612  -25.2566  -18.6990 N   0  0  0  0  0  0  0  0  0  0  0  0
   26.1570  -20.8083  -12.5855 C   0  0  1  0  0  0  0  0  0  0  0  0
   25.1619  -20.9709  -11.5785 C   0  0  0  0  0  0  0  0  0  0  0  0
   25.4841  -20.2728  -10.2858 C   0  0  0  0  0  0  0  0  0  0  0  0
   26.8066  -20.6581   -9.7323 C   0  0  0  0  0  0  0  0  0  0  0  0
   27.7347  -21.5191  -10.3089 N   0  0  0  0  0  0  0  0  0  0  0  0
   28.7706  -21.5708   -9.4573 C   0  0  0  0  0  0  0  0  0  0  0  0
   28.5403  -20.7908   -8.3831 C   0  0  0  0  0  0  0  0  0  0  0  0
   29.2741  -20.5003   -7.2423 C   0  0  0  0  0  0  0  0  0  0  0  0
   28.8095  -19.6487   -6.2629 C   0  0  0  0  0  0  0  0  0  0  0  0
   27.5565  -19.0632   -6.4333 C   0  0  0  0  0  0  0  0  0  0  0  0
   26.8068  -19.3327   -7.5539 C   0  0  0  0  0  0  0  0  0  0  0  0
   27.3043  -20.1887   -8.5109 C   0  0  0  0  0  0  0  0  0  0  0  0
   23.8260  -20.5212  -12.0462 O   0  0  0  0  0  0  0  0  0  0  0  0
   23.6498  -19.3351  -12.4218 O   0  0  0  0  0  0  0  0  0  0  0  0
   21.4786  -22.2379  -14.4795 C   0  0  0  0  0  0  0  0  0  0  0  0
   20.7511  -22.0909  -13.2929 C   0  0  2  0  0  0  0  0  0  0  0  0
   21.3937  -20.9233  -12.5405 N   0  0  0  0  0  0  0  0  0  0  0  0
   22.6954  -21.3815  -12.0966 C   0  0  0  0  0  0  0  0  0  0  0  0
   20.5866  -20.5016  -11.3973 O   0  0  0  0  0  0  0  0  0  0  0  0
   20.8620  -20.9049  -10.2443 O   0  0  0  0  0  0  0  0  0  0  0  0
  1  2  1  0
  2  3  2  0
  4  5  1  0
  4  2  1  0
  6  5  1  0
  7  6  1  0
  8  9  1  1
  8  7  1  0
 10  8  1  0
 11 10  2  0
 12 10  1  0
 13 12  1  0
 13 24  1  0
 13 14  1  1
 15 14  1  0
 16 15  2  0
 17 16  1  0
 18 17  1  0
 18 23  2  0
 19 18  1  0
 20 19  2  0
 20 21  1  0
 21 22  2  0
 22 23  1  0
 23 15  1  0
 24 25  2  0
 27 26  1  0
 28 27  1  6
 29 24  1  0
 29 28  1  0
 30 28  1  0
 30 32  1  0
 31 30  2  0
M  END
$$$$
