ICY.pdb
     RDKit          3D

 27 27  0  0  1  0  0  0  0  0999 V2000
    6.0926  -11.6935   26.9815 C   0  0  0  0  0  0  0  0  0  0  0  0
    5.7530  -12.9735   26.3028 C   0  0  0  0  0  0  0  0  0  0  0  0
    6.9474  -13.5743   25.5567 C   0  0  2  0  0  0  0  0  0  0  0  0
    7.5275  -12.5331   24.6482 C   0  0  0  0  0  0  0  0  0  0  0  0
    6.3959  -14.7857   24.8348 C   0  0  2  0  0  0  0  0  0  0  0  0
    6.0184  -15.7162   25.9159 N   0  0  0  0  0  0  0  0  0  0  0  0
    7.3972  -15.4899   24.0034 C   0  0  0  0  0  0  0  0  0  0  0  0
    8.1318  -16.3656   24.5344 O   0  0  0  0  0  0  0  0  0  0  0  0
    7.6104  -15.2609   22.6183 N   0  0  0  0  0  0  0  0  0  0  0  0
    8.6107  -15.9709   21.8464 C   0  0  1  0  0  0  0  0  0  0  0  0
    8.6375  -15.3606   20.4485 C   0  0  0  0  0  0  0  0  0  0  0  0
    9.9204  -16.1626   19.4407 S   0  0  0  0  0  0  0  0  0  0  0  0
    9.9690  -15.7943   22.4183 C   0  0  0  0  0  0  0  0  0  0  0  0
   10.6025  -14.7552   22.1090 O   0  0  0  0  0  0  0  0  0  0  0  0
   11.2785  -15.2828   30.9165 O   0  0  0  0  0  0  0  0  0  0  0  0
   11.0171  -15.3413   29.5538 C   0  0  0  0  0  0  0  0  0  0  0  0
   11.3775  -16.4457   28.7950 C   0  0  0  0  0  0  0  0  0  0  0  0
   11.1307  -16.5294   27.4454 C   0  0  0  0  0  0  0  0  0  0  0  0
   10.5079  -15.4966   26.8079 C   0  0  0  0  0  0  0  0  0  0  0  0
   10.1929  -15.4822   25.3552 C   0  0  0  0  0  0  0  0  0  0  0  0
   11.0891  -16.4322   24.5851 C   0  0  2  0  0  0  0  0  0  0  0  0
   10.5716  -16.7253   23.2799 N   0  0  0  0  0  0  0  0  0  0  0  0
   11.2512  -17.7103   25.3236 C   0  0  0  0  0  0  0  0  0  0  0  0
   10.6903  -18.8879   24.8515 O   0  0  0  0  0  0  0  0  0  0  0  0
   10.1305  -14.3727   27.5298 C   0  0  0  0  0  0  0  0  0  0  0  0
   10.3877  -14.3093   28.8837 C   0  0  0  0  0  0  0  0  0  0  0  0
   11.9053  -17.7820   26.4119 O   0  0  0  0  0  0  0  0  0  0  0  0
  2  1  1  0
  3  2  1  0
  3  4  1  6
  5  3  1  0
  5  6  1  1
  7  5  1  0
  8  7  2  0
  9  7  1  0
 10  9  1  0
 10 11  1  6
 12 11  1  0
 13 10  1  0
 13 22  1  0
 14 13  2  0
 16 15  1  0
 17 16  2  0
 18 17  1  0
 19 25  1  0
 19 18  2  0
 20 19  1  0
 21 20  1  1
 21 22  1  0
 23 21  1  0
 24 23  1  0
 25 26  2  0
 26 16  1  0
 27 23  2  0
M  END
$$$$
