ICY.pdb
     RDKit          3D

 27 27  0  0  1  0  0  0  0  0999 V2000
    8.0239  -12.1399   19.0256 C   0  0  0  0  0  0  0  0  0  0  0  0
    7.9639  -13.6266   19.0505 C   0  0  0  0  0  0  0  0  0  0  0  0
    8.0592  -14.1916   20.4704 C   0  0  2  0  0  0  0  0  0  0  0  0
    9.3315  -13.7120   21.1006 C   0  0  0  0  0  0  0  0  0  0  0  0
    7.9802  -15.6948   20.3055 C   0  0  2  0  0  0  0  0  0  0  0  0
    6.6339  -15.9324   19.7505 N   0  0  0  0  0  0  0  0  0  0  0  0
    8.0463  -16.4379   21.5835 C   0  0  0  0  0  0  0  0  0  0  0  0
    7.0603  -16.4022   22.3677 O   0  0  0  0  0  0  0  0  0  0  0  0
    9.1546  -17.2118   22.0181 N   0  0  0  0  0  0  0  0  0  0  0  0
    9.2609  -17.7540   23.3580 C   0  0  1  0  0  0  0  0  0  0  0  0
    9.9074  -19.1317   23.2511 C   0  0  0  0  0  0  0  0  0  0  0  0
   10.3445  -19.7471   24.9050 S   0  0  0  0  0  0  0  0  0  0  0  0
   10.1495  -16.9276   24.2128 C   0  0  0  0  0  0  0  0  0  0  0  0
   11.3147  -16.7053   23.8011 O   0  0  0  0  0  0  0  0  0  0  0  0
    5.0196  -12.7474   26.8931 O   0  0  0  0  0  0  0  0  0  0  0  0
    6.3561  -13.0975   26.7522 C   0  0  0  0  0  0  0  0  0  0  0  0
    7.3235  -12.6258   27.6280 C   0  0  0  0  0  0  0  0  0  0  0  0
    8.6525  -12.9566   27.5114 C   0  0  0  0  0  0  0  0  0  0  0  0
    9.0571  -13.7799   26.5017 C   0  0  0  0  0  0  0  0  0  0  0  0
   10.4658  -14.2010   26.2832 C   0  0  0  0  0  0  0  0  0  0  0  0
   10.6129  -15.7076   26.3700 C   0  0  2  0  0  0  0  0  0  0  0  0
    9.7517  -16.3889   25.4472 N   0  0  0  0  0  0  0  0  0  0  0  0
   10.3015  -16.1838   27.7417 C   0  0  0  0  0  0  0  0  0  0  0  0
    9.3325  -17.1516   27.9626 O   0  0  0  0  0  0  0  0  0  0  0  0
    8.1214  -14.2742   25.6033 C   0  0  0  0  0  0  0  0  0  0  0  0
    6.7925  -13.9296   25.7386 C   0  0  0  0  0  0  0  0  0  0  0  0
   10.9035  -15.7300   28.7659 O   0  0  0  0  0  0  0  0  0  0  0  0
  2  1  1  0
  3  2  1  0
  3  4  1  6
  5  3  1  0
  5  6  1  1
  7  5  1  0
  8  7  2  0
  9  7  1  0
 10  9  1  0
 10 11  1  6
 12 11  1  0
 13 10  1  0
 13 22  1  0
 14 13  2  0
 16 15  1  0
 17 16  2  0
 18 17  1  0
 19 25  1  0
 19 18  2  0
 20 19  1  0
 21 20  1  1
 21 22  1  0
 23 21  1  0
 24 23  1  0
 25 26  2  0
 26 16  1  0
 27 23  2  0
M  END
$$$$
