ICY.pdb
     RDKit          3D

 27 27  0  0  1  0  0  0  0  0999 V2000
   10.0109  -20.4938   16.3165 C   0  0  0  0  0  0  0  0  0  0  0  0
   10.1628  -20.2331   17.7736 C   0  0  0  0  0  0  0  0  0  0  0  0
    9.9020  -18.7684   18.1357 C   0  0  2  0  0  0  0  0  0  0  0  0
   11.2158  -18.0664   18.2995 C   0  0  0  0  0  0  0  0  0  0  0  0
    9.0648  -18.8142   19.3966 C   0  0  2  0  0  0  0  0  0  0  0  0
    7.8385  -19.5307   18.9966 N   0  0  0  0  0  0  0  0  0  0  0  0
    8.6367  -17.4811   19.8754 C   0  0  0  0  0  0  0  0  0  0  0  0
    7.9729  -16.7350   19.1065 O   0  0  0  0  0  0  0  0  0  0  0  0
    8.9147  -16.9515   21.1632 N   0  0  0  0  0  0  0  0  0  0  0  0
    8.3717  -15.6920   21.6320 C   0  0  1  0  0  0  0  0  0  0  0  0
    6.8523  -15.8251   21.6641 C   0  0  0  0  0  0  0  0  0  0  0  0
    6.1045  -14.2979   22.3071 S   0  0  0  0  0  0  0  0  0  0  0  0
    8.8060  -15.3925   23.0194 C   0  0  0  0  0  0  0  0  0  0  0  0
    8.6190  -14.2285   23.4517 O   0  0  0  0  0  0  0  0  0  0  0  0
    5.9752  -11.1651   26.2899 O   0  0  0  0  0  0  0  0  0  0  0  0
    6.6226  -12.3933   26.2608 C   0  0  0  0  0  0  0  0  0  0  0  0
    5.9571  -13.5531   25.8900 C   0  0  0  0  0  0  0  0  0  0  0  0
    6.5736  -14.7810   25.8527 C   0  0  0  0  0  0  0  0  0  0  0  0
    7.8914  -14.8850   26.1898 C   0  0  0  0  0  0  0  0  0  0  0  0
    8.6551  -16.1603   26.1841 C   0  0  0  0  0  0  0  0  0  0  0  0
    9.8202  -16.1034   25.2154 C   0  0  2  0  0  0  0  0  0  0  0  0
    9.4098  -16.3403   23.8616 N   0  0  0  0  0  0  0  0  0  0  0  0
   10.8490  -17.1115   25.5773 C   0  0  0  0  0  0  0  0  0  0  0  0
   11.1971  -18.1281   24.7000 O   0  0  0  0  0  0  0  0  0  0  0  0
    8.5947  -13.7492   26.5667 C   0  0  0  0  0  0  0  0  0  0  0  0
    7.9565  -12.5265   26.5974 C   0  0  0  0  0  0  0  0  0  0  0  0
   11.4513  -17.0882   26.6970 O   0  0  0  0  0  0  0  0  0  0  0  0
  2  1  1  0
  3  2  1  0
  3  4  1  1
  5  3  1  0
  5  6  1  6
  7  5  1  0
  8  7  2  0
  9  7  1  0
 10  9  1  0
 10 11  1  1
 12 11  1  0
 13 10  1  0
 13 22  1  0
 14 13  2  0
 16 15  1  0
 17 16  2  0
 18 17  1  0
 19 25  1  0
 19 18  2  0
 20 19  1  0
 21 20  1  1
 21 22  1  0
 23 21  1  0
 24 23  1  0
 25 26  2  0
 26 16  1  0
 27 23  2  0
M  END
$$$$
