ICY.pdb
     RDKit          3D

 27 27  0  0  1  0  0  0  0  0999 V2000
    7.1291  -11.9029   19.0903 C   0  0  0  0  0  0  0  0  0  0  0  0
    7.2169  -13.3837   18.9732 C   0  0  0  0  0  0  0  0  0  0  0  0
    7.6857  -14.0459   20.2718 C   0  0  2  0  0  0  0  0  0  0  0  0
    8.9789  -13.4198   20.6978 C   0  0  0  0  0  0  0  0  0  0  0  0
    7.7909  -15.5216   19.9493 C   0  0  2  0  0  0  0  0  0  0  0  0
    6.4040  -15.9330   19.6587 N   0  0  0  0  0  0  0  0  0  0  0  0
    8.2457  -16.3488   21.0888 C   0  0  0  0  0  0  0  0  0  0  0  0
    7.4707  -16.5297   22.0660 O   0  0  0  0  0  0  0  0  0  0  0  0
    9.5159  -16.9768   21.1823 N   0  0  0  0  0  0  0  0  0  0  0  0
    9.9878  -17.6259   22.3892 C   0  0  1  0  0  0  0  0  0  0  0  0
   10.7442  -18.8840   21.9740 C   0  0  0  0  0  0  0  0  0  0  0  0
    9.6558  -19.9801   21.0154 S   0  0  0  0  0  0  0  0  0  0  0  0
   10.9494  -16.7710   23.1291 C   0  0  0  0  0  0  0  0  0  0  0  0
   11.2376  -15.6532   22.6349 O   0  0  0  0  0  0  0  0  0  0  0  0
   10.0583  -15.9184   31.0366 O   0  0  0  0  0  0  0  0  0  0  0  0
   10.4340  -15.7030   29.7170 C   0  0  0  0  0  0  0  0  0  0  0  0
   10.1755  -14.4984   29.0789 C   0  0  0  0  0  0  0  0  0  0  0  0
   10.5364  -14.2590   27.7744 C   0  0  0  0  0  0  0  0  0  0  0  0
   11.1748  -15.2312   27.0615 C   0  0  0  0  0  0  0  0  0  0  0  0
   11.6089  -15.0794   25.6479 C   0  0  0  0  0  0  0  0  0  0  0  0
   12.3609  -16.3043   25.1653 C   0  0  2  0  0  0  0  0  0  0  0  0
   11.5454  -17.1503   24.3428 N   0  0  0  0  0  0  0  0  0  0  0  0
   12.8520  -17.1022   26.3176 C   0  0  0  0  0  0  0  0  0  0  0  0
   12.3107  -18.3450   26.6125 O   0  0  0  0  0  0  0  0  0  0  0  0
   11.4526  -16.4514   27.6620 C   0  0  0  0  0  0  0  0  0  0  0  0
   11.0817  -16.6708   28.9725 C   0  0  0  0  0  0  0  0  0  0  0  0
   13.7820  -16.6861   27.0785 O   0  0  0  0  0  0  0  0  0  0  0  0
  2  1  1  0
  3  2  1  0
  3  4  1  6
  5  3  1  0
  5  6  1  1
  7  5  1  0
  8  7  2  0
  9  7  1  0
 10  9  1  0
 10 11  1  6
 12 11  1  0
 13 10  1  0
 13 22  1  0
 14 13  2  0
 16 15  1  0
 17 16  2  0
 18 17  1  0
 19 25  1  0
 19 18  2  0
 20 19  1  0
 21 20  1  1
 21 22  1  0
 23 21  1  0
 24 23  1  0
 25 26  2  0
 26 16  1  0
 27 23  2  0
M  END
$$$$
