ICY.pdb
     RDKit          3D

 27 27  0  0  1  0  0  0  0  0999 V2000
    7.6654  -11.8439   25.9200 C   0  0  0  0  0  0  0  0  0  0  0  0
    7.5623  -13.3270   25.9856 C   0  0  0  0  0  0  0  0  0  0  0  0
    6.2282  -13.8448   25.4410 C   0  0  2  0  0  0  0  0  0  0  0  0
    5.1123  -13.2668   26.2574 C   0  0  0  0  0  0  0  0  0  0  0  0
    6.3289  -15.3539   25.5135 C   0  0  2  0  0  0  0  0  0  0  0  0
    6.9097  -15.6191   26.8437 N   0  0  0  0  0  0  0  0  0  0  0  0
    7.2613  -15.9363   24.5229 C   0  0  0  0  0  0  0  0  0  0  0  0
    7.4549  -17.1817   24.5181 O   0  0  0  0  0  0  0  0  0  0  0  0
    7.9786  -15.1950   23.5471 N   0  0  0  0  0  0  0  0  0  0  0  0
    8.7683  -15.8204   22.5050 C   0  0  1  0  0  0  0  0  0  0  0  0
    8.6528  -14.9560   21.2533 C   0  0  0  0  0  0  0  0  0  0  0  0
    6.9036  -14.6998   20.8298 S   0  0  0  0  0  0  0  0  0  0  0  0
   10.2078  -15.8667   22.8638 C   0  0  0  0  0  0  0  0  0  0  0  0
   10.9824  -15.0727   22.2753 O   0  0  0  0  0  0  0  0  0  0  0  0
    9.7615  -16.1301   30.2075 O   0  0  0  0  0  0  0  0  0  0  0  0
   10.3853  -15.9520   28.9795 C   0  0  0  0  0  0  0  0  0  0  0  0
   10.9454  -14.7336   28.6228 C   0  0  0  0  0  0  0  0  0  0  0  0
   11.5682  -14.5303   27.4145 C   0  0  0  0  0  0  0  0  0  0  0  0
   11.6496  -15.5540   26.5165 C   0  0  0  0  0  0  0  0  0  0  0  0
   12.2993  -15.4444   25.1840 C   0  0  0  0  0  0  0  0  0  0  0  0
   12.0689  -16.6907   24.3518 C   0  0  2  0  0  0  0  0  0  0  0  0
   10.7378  -16.7476   23.8205 N   0  0  0  0  0  0  0  0  0  0  0  0
   12.3023  -17.9112   25.1649 C   0  0  0  0  0  0  0  0  0  0  0  0
   13.5436  -18.1729   25.7262 O   0  0  0  0  0  0  0  0  0  0  0  0
   11.1022  -16.7896   26.8335 C   0  0  0  0  0  0  0  0  0  0  0  0
   10.4814  -16.9721   28.0519 C   0  0  0  0  0  0  0  0  0  0  0  0
   11.3835  -18.7634   25.3810 O   0  0  0  0  0  0  0  0  0  0  0  0
  2  1  1  0
  3  2  1  0
  3  4  1  1
  5  3  1  0
  5  6  1  1
  7  5  1  0
  8  7  2  0
  9  7  1  0
 10  9  1  0
 10 11  1  6
 12 11  1  0
 13 10  1  0
 13 22  1  0
 14 13  2  0
 16 15  1  0
 17 16  2  0
 18 17  1  0
 19 25  1  0
 19 18  2  0
 20 19  1  0
 21 20  1  1
 21 22  1  0
 23 21  1  0
 24 23  1  0
 25 26  2  0
 26 16  1  0
 27 23  2  0
M  END
$$$$
