ICY.pdb
     RDKit          3D

 27 27  0  0  1  0  0  0  0  0999 V2000
    6.6322  -12.9389   16.8871 C   0  0  0  0  0  0  0  0  0  0  0  0
    7.1341  -14.0134   17.7859 C   0  0  0  0  0  0  0  0  0  0  0  0
    7.3954  -13.5109   19.2084 C   0  0  2  0  0  0  0  0  0  0  0  0
    8.4436  -12.4409   19.1616 C   0  0  0  0  0  0  0  0  0  0  0  0
    7.8017  -14.7394   19.9949 C   0  0  2  0  0  0  0  0  0  0  0  0
    6.5586  -15.5250   20.1157 N   0  0  0  0  0  0  0  0  0  0  0  0
    8.2480  -14.4422   21.3742 C   0  0  0  0  0  0  0  0  0  0  0  0
    9.4446  -14.1008   21.5737 O   0  0  0  0  0  0  0  0  0  0  0  0
    7.4231  -14.5086   22.5281 N   0  0  0  0  0  0  0  0  0  0  0  0
    7.9071  -14.2115   23.8616 C   0  0  1  0  0  0  0  0  0  0  0  0
    6.6923  -14.0316   24.7668 C   0  0  0  0  0  0  0  0  0  0  0  0
    7.2271  -13.7140   26.4749 S   0  0  0  0  0  0  0  0  0  0  0  0
    8.6958  -15.3381   24.4200 C   0  0  0  0  0  0  0  0  0  0  0  0
    8.1302  -16.4548   24.5190 O   0  0  0  0  0  0  0  0  0  0  0  0
   10.9510  -14.0337   31.4520 O   0  0  0  0  0  0  0  0  0  0  0  0
   10.7288  -14.7388   30.2765 C   0  0  0  0  0  0  0  0  0  0  0  0
   11.1317  -16.0594   30.1380 C   0  0  0  0  0  0  0  0  0  0  0  0
   10.9243  -16.7801   28.9861 C   0  0  0  0  0  0  0  0  0  0  0  0
   10.2993  -16.1922   27.9256 C   0  0  0  0  0  0  0  0  0  0  0  0
   10.0246  -16.8775   26.6354 C   0  0  0  0  0  0  0  0  0  0  0  0
   10.7917  -16.2377   25.4946 C   0  0  2  0  0  0  0  0  0  0  0  0
   10.0307  -15.2142   24.8383 N   0  0  0  0  0  0  0  0  0  0  0  0
   11.1736  -17.2584   24.4858 C   0  0  0  0  0  0  0  0  0  0  0  0
   10.2110  -17.9562   23.7711 O   0  0  0  0  0  0  0  0  0  0  0  0
    9.8799  -14.8725   28.0220 C   0  0  0  0  0  0  0  0  0  0  0  0
   10.0981  -14.1673   29.1875 C   0  0  0  0  0  0  0  0  0  0  0  0
   12.3889  -17.5360   24.2342 O   0  0  0  0  0  0  0  0  0  0  0  0
  2  1  1  0
  3  2  1  0
  3  4  1  6
  5  3  1  0
  5  6  1  1
  7  5  1  0
  8  7  2  0
  9  7  1  0
 10  9  1  0
 10 11  1  1
 12 11  1  0
 13 10  1  0
 13 22  1  0
 14 13  2  0
 16 15  1  0
 17 16  2  0
 18 17  1  0
 19 25  1  0
 19 18  2  0
 20 19  1  0
 21 20  1  1
 21 22  1  0
 23 21  1  0
 24 23  1  0
 25 26  2  0
 26 16  1  0
 27 23  2  0
M  END
$$$$
