GQQ.pdb
     RDKit          3D

 23 22  0  0  1  0  0  0  0  0999 V2000
   25.1518  -19.3101  -16.3981 N   0  0  0  0  0  0  0  0  0  0  0  0
   25.3519  -18.0171  -17.0142 C   0  0  0  0  0  0  0  0  0  0  0  0
   24.0402  -17.3166  -17.1377 C   0  0  0  0  0  0  0  0  0  0  0  0
   23.3400  -17.3990  -18.1942 O   0  0  0  0  0  0  0  0  0  0  0  0
   19.5616  -17.1520  -13.1851 N   0  0  0  0  0  0  0  0  0  0  0  0
   19.7771  -18.0820  -14.2242 C   0  0  0  0  0  0  0  0  0  0  0  0
   19.1784  -19.1640  -14.2311 O   0  0  0  0  0  0  0  0  0  0  0  0
   20.7319  -17.7416  -15.3067 C   0  0  0  0  0  0  0  0  0  0  0  0
   21.3138  -16.3965  -15.0452 C   0  0  0  0  0  0  0  0  0  0  0  0
   22.1937  -15.9273  -16.1352 C   0  0  2  0  0  0  0  0  0  0  0  0
   23.5146  -16.5317  -16.0931 N   0  0  0  0  0  0  0  0  0  0  0  0
   22.4133  -14.4706  -16.2243 C   0  0  0  0  0  0  0  0  0  0  0  0
   23.3460  -13.9250  -15.5949 O   0  0  0  0  0  0  0  0  0  0  0  0
   20.9275  -10.6266  -20.8734 N   0  0  0  0  0  0  0  0  0  0  0  0
   21.3579   -9.6452  -19.9371 C   0  0  0  0  0  0  0  0  0  0  0  0
   21.4011   -8.4444  -20.3028 O   0  0  0  0  0  0  0  0  0  0  0  0
   21.7254  -10.1340  -18.5859 C   0  0  0  0  0  0  0  0  0  0  0  0
   21.5888  -11.6236  -18.4208 C   0  0  0  0  0  0  0  0  0  0  0  0
   21.8720  -12.1452  -17.0557 C   0  0  2  0  0  0  0  0  0  0  0  0
   21.6015  -13.5962  -17.0132 N   0  0  0  0  0  0  0  0  0  0  0  0
   20.9879  -11.4785  -16.0765 C   0  0  0  0  0  0  0  0  0  0  0  0
   21.2773  -10.2850  -15.4439 O   0  0  0  0  0  0  0  0  0  0  0  0
   19.8820  -12.0601  -15.8057 O   0  0  0  0  0  0  0  0  0  0  0  0
  2  1  1  0
  3  2  1  0
  3  4  2  0
  5  6  1  0
  6  7  2  0
  8  9  1  0
  8  6  1  0
 10  9  1  1
 10 11  1  0
 10 12  1  0
 11  3  1  0
 12 13  2  0
 12 20  1  0
 15 17  1  0
 15 14  1  0
 16 15  2  0
 19 18  1  6
 18 17  1  0
 19 21  1  0
 20 19  1  0
 21 23  2  0
 21 22  1  0
M  END
$$$$
