GQQ.pdb
     RDKit          3D

 23 22  0  0  1  0  0  0  0  0999 V2000
   18.6442  -15.4475  -16.2486 N   0  0  0  0  0  0  0  0  0  0  0  0
   18.0050  -14.5309  -15.3306 C   0  0  0  0  0  0  0  0  0  0  0  0
   18.0599  -13.1484  -15.8891 C   0  0  0  0  0  0  0  0  0  0  0  0
   18.5176  -12.9192  -17.0516 O   0  0  0  0  0  0  0  0  0  0  0  0
   14.3304   -9.4072  -17.0397 N   0  0  0  0  0  0  0  0  0  0  0  0
   15.2037   -8.3336  -16.7640 C   0  0  0  0  0  0  0  0  0  0  0  0
   15.0283   -7.2307  -17.2950 O   0  0  0  0  0  0  0  0  0  0  0  0
   16.3339   -8.5488  -15.8283 C   0  0  0  0  0  0  0  0  0  0  0  0
   16.3284   -9.9640  -15.3665 C   0  0  0  0  0  0  0  0  0  0  0  0
   17.5747  -10.6839  -15.6996 C   0  0  2  0  0  0  0  0  0  0  0  0
   17.6087  -12.0322  -15.1582 N   0  0  0  0  0  0  0  0  0  0  0  0
   18.8374  -10.0439  -15.2821 C   0  0  0  0  0  0  0  0  0  0  0  0
   19.1771  -10.0248  -14.0789 O   0  0  0  0  0  0  0  0  0  0  0  0
   25.5519   -7.5313  -17.3363 N   0  0  0  0  0  0  0  0  0  0  0  0
   24.2882   -8.1341  -17.5903 C   0  0  0  0  0  0  0  0  0  0  0  0
   24.0728   -8.6210  -18.7279 O   0  0  0  0  0  0  0  0  0  0  0  0
   23.3166   -8.1349  -16.4697 C   0  0  0  0  0  0  0  0  0  0  0  0
   21.9915   -8.7591  -16.8151 C   0  0  0  0  0  0  0  0  0  0  0  0
   20.9937   -8.7959  -15.7110 C   0  0  2  0  0  0  0  0  0  0  0  0
   19.7430   -9.4150  -16.1933 N   0  0  0  0  0  0  0  0  0  0  0  0
   20.6908   -7.4180  -15.2700 C   0  0  0  0  0  0  0  0  0  0  0  0
   21.3899   -6.7355  -14.2936 O   0  0  0  0  0  0  0  0  0  0  0  0
   19.7091   -6.8306  -15.8409 O   0  0  0  0  0  0  0  0  0  0  0  0
  2  1  1  0
  3  2  1  0
  3  4  2  0
  5  6  1  0
  6  7  2  0
  8  9  1  0
  8  6  1  0
 10  9  1  1
 10 11  1  0
 10 12  1  0
 11  3  1  0
 12 13  2  0
 12 20  1  0
 15 17  1  0
 15 14  1  0
 16 15  2  0
 19 18  1  6
 18 17  1  0
 19 21  1  0
 20 19  1  0
 21 23  2  0
 21 22  1  0
M  END
$$$$
