GQQ.pdb
     RDKit          3D

 23 22  0  0  1  0  0  0  0  0999 V2000
   18.3211  -13.2282  -17.3271 N   0  0  0  0  0  0  0  0  0  0  0  0
   19.4073  -12.2901  -17.5042 C   0  0  0  0  0  0  0  0  0  0  0  0
   19.3186  -11.2242  -16.4639 C   0  0  0  0  0  0  0  0  0  0  0  0
   18.6322  -11.3830  -15.4070 O   0  0  0  0  0  0  0  0  0  0  0  0
   23.2891   -6.6661  -15.1832 N   0  0  0  0  0  0  0  0  0  0  0  0
   22.1422   -6.1488  -14.5442 C   0  0  0  0  0  0  0  0  0  0  0  0
   22.1945   -5.0726  -13.9376 O   0  0  0  0  0  0  0  0  0  0  0  0
   20.8747   -6.9155  -14.6118 C   0  0  0  0  0  0  0  0  0  0  0  0
   21.0617   -8.0994  -15.4947 C   0  0  0  0  0  0  0  0  0  0  0  0
   19.8243   -8.8867  -15.6730 C   0  0  2  0  0  0  0  0  0  0  0  0
   19.9889   -9.9931  -16.6008 N   0  0  0  0  0  0  0  0  0  0  0  0
   18.6315   -8.1460  -16.1277 C   0  0  0  0  0  0  0  0  0  0  0  0
   18.4867   -7.8450  -17.3327 O   0  0  0  0  0  0  0  0  0  0  0  0
   11.4110   -7.0706  -15.5587 N   0  0  0  0  0  0  0  0  0  0  0  0
   12.6601   -7.6013  -15.1311 C   0  0  0  0  0  0  0  0  0  0  0  0
   12.6594   -8.5554  -14.3143 O   0  0  0  0  0  0  0  0  0  0  0  0
   13.8773   -6.9701  -15.6967 C   0  0  0  0  0  0  0  0  0  0  0  0
   15.1588   -7.6394  -15.2787 C   0  0  0  0  0  0  0  0  0  0  0  0
   16.4075   -6.9973  -15.7731 C   0  0  2  0  0  0  0  0  0  0  0  0
   17.5804   -7.7276  -15.2524 N   0  0  0  0  0  0  0  0  0  0  0  0
   16.4743   -5.6030  -15.2870 C   0  0  0  0  0  0  0  0  0  0  0  0
   15.7631   -4.5492  -15.8272 O   0  0  0  0  0  0  0  0  0  0  0  0
   17.2502   -5.3719  -14.2974 O   0  0  0  0  0  0  0  0  0  0  0  0
  2  1  1  0
  3  2  1  0
  3  4  2  0
  5  6  1  0
  6  7  2  0
  8  9  1  0
  8  6  1  0
 10  9  1  6
 10 11  1  0
 10 12  1  0
 11  3  1  0
 12 13  2  0
 12 20  1  0
 15 17  1  0
 15 14  1  0
 16 15  2  0
 19 18  1  1
 18 17  1  0
 19 21  1  0
 20 19  1  0
 21 23  2  0
 21 22  1  0
M  END
$$$$
