GQQ.pdb
     RDKit          3D

 23 22  0  0  1  0  0  0  0  0999 V2000
   22.3543  -12.7486  -18.3992 N   0  0  0  0  0  0  0  0  0  0  0  0
   22.2804  -12.0663  -17.1262 C   0  0  0  0  0  0  0  0  0  0  0  0
   21.2645  -10.9763  -17.2044 C   0  0  0  0  0  0  0  0  0  0  0  0
   21.2535  -10.1461  -18.1657 O   0  0  0  0  0  0  0  0  0  0  0  0
   15.6969  -10.7517  -14.4399 N   0  0  0  0  0  0  0  0  0  0  0  0
   16.1633  -11.6667  -15.4076 C   0  0  0  0  0  0  0  0  0  0  0  0
   15.5277  -12.6989  -15.6518 O   0  0  0  0  0  0  0  0  0  0  0  0
   17.4263  -11.3710  -16.1263 C   0  0  0  0  0  0  0  0  0  0  0  0
   18.0182  -10.1164  -15.5862 C   0  0  0  0  0  0  0  0  0  0  0  0
   19.2856   -9.7452  -16.2485 C   0  0  2  0  0  0  0  0  0  0  0  0
   20.2705  -10.8136  -16.2200 N   0  0  0  0  0  0  0  0  0  0  0  0
   19.9710   -8.5437  -15.7341 C   0  0  0  0  0  0  0  0  0  0  0  0
   20.6987   -8.6080  -14.7194 O   0  0  0  0  0  0  0  0  0  0  0  0
   23.2393   -2.1871  -17.5717 N   0  0  0  0  0  0  0  0  0  0  0  0
   22.4284   -3.3265  -17.8344 C   0  0  0  0  0  0  0  0  0  0  0  0
   22.1079   -3.5745  -19.0232 O   0  0  0  0  0  0  0  0  0  0  0  0
   22.0237   -4.1374  -16.6602 C   0  0  0  0  0  0  0  0  0  0  0  0
   21.1727   -5.3286  -17.0089 C   0  0  0  0  0  0  0  0  0  0  0  0
   20.6687   -6.1165  -15.8508 C   0  0  2  0  0  0  0  0  0  0  0  0
   19.8596   -7.2517  -16.3377 N   0  0  0  0  0  0  0  0  0  0  0  0
   19.8090   -5.2614  -15.0055 C   0  0  0  0  0  0  0  0  0  0  0  0
   20.2772   -4.3070  -14.1234 O   0  0  0  0  0  0  0  0  0  0  0  0
   18.5458   -5.4296  -15.1085 O   0  0  0  0  0  0  0  0  0  0  0  0
  2  1  1  0
  3  2  1  0
  3  4  2  0
  5  6  1  0
  6  7  2  0
  8  9  1  0
  8  6  1  0
 10  9  1  1
 10 11  1  0
 10 12  1  0
 11  3  1  0
 12 13  2  0
 12 20  1  0
 15 17  1  0
 15 14  1  0
 16 15  2  0
 19 18  1  6
 18 17  1  0
 19 21  1  0
 20 19  1  0
 21 23  2  0
 21 22  1  0
M  END
$$$$
