GQQ.pdb
     RDKit          3D

 23 22  0  0  1  0  0  0  0  0999 V2000
   26.4923  -21.6633  -10.2223 N   0  0  0  0  0  0  0  0  0  0  0  0
   25.1381  -21.1556  -10.2129 C   0  0  0  0  0  0  0  0  0  0  0  0
   24.5217  -21.3578  -11.5566 C   0  0  0  0  0  0  0  0  0  0  0  0
   24.8790  -22.3125  -12.3144 O   0  0  0  0  0  0  0  0  0  0  0  0
   19.0102  -19.1518  -13.6240 N   0  0  0  0  0  0  0  0  0  0  0  0
   19.1106  -20.3335  -12.8594 C   0  0  0  0  0  0  0  0  0  0  0  0
   18.0980  -20.8602  -12.3836 O   0  0  0  0  0  0  0  0  0  0  0  0
   20.4484  -20.9331  -12.6356 C   0  0  0  0  0  0  0  0  0  0  0  0
   21.4775  -20.1165  -13.3357 C   0  0  0  0  0  0  0  0  0  0  0  0
   22.8203  -20.7319  -13.3053 C   0  0  2  0  0  0  0  0  0  0  0  0
   23.5166  -20.5037  -12.0503 N   0  0  0  0  0  0  0  0  0  0  0  0
   23.7561  -20.3252  -14.3717 C   0  0  0  0  0  0  0  0  0  0  0  0
   24.2836  -19.1916  -14.3612 O   0  0  0  0  0  0  0  0  0  0  0  0
   28.3895  -22.8126  -16.0512 N   0  0  0  0  0  0  0  0  0  0  0  0
   28.3863  -22.1524  -17.3117 C   0  0  0  0  0  0  0  0  0  0  0  0
   29.4785  -22.0003  -17.9129 O   0  0  0  0  0  0  0  0  0  0  0  0
   27.0696  -21.6919  -17.8157 C   0  0  0  0  0  0  0  0  0  0  0  0
   25.9292  -21.9631  -16.8719 C   0  0  0  0  0  0  0  0  0  0  0  0
   25.1740  -20.7631  -16.4185 C   0  0  2  0  0  0  0  0  0  0  0  0
   24.1211  -21.1701  -15.4666 N   0  0  0  0  0  0  0  0  0  0  0  0
   24.5267  -20.1164  -17.5794 C   0  0  0  0  0  0  0  0  0  0  0  0
   25.0613  -19.0564  -18.2855 O   0  0  0  0  0  0  0  0  0  0  0  0
   23.3924  -20.5813  -17.9424 O   0  0  0  0  0  0  0  0  0  0  0  0
  2  1  1  0
  3  2  1  0
  3  4  2  0
  5  6  1  0
  6  7  2  0
  8  9  1  0
  8  6  1  0
 10  9  1  1
 10 11  1  0
 10 12  1  0
 11  3  1  0
 12 13  2  0
 12 20  1  0
 15 17  1  0
 15 14  1  0
 16 15  2  0
 19 18  1  6
 18 17  1  0
 19 21  1  0
 20 19  1  0
 21 23  2  0
 21 22  1  0
M  END
$$$$
