GQQ.pdb
     RDKit          3D

 23 22  0  0  1  0  0  0  0  0999 V2000
   28.2463  -18.8439  -16.9843 N   0  0  0  0  0  0  0  0  0  0  0  0
   27.4055  -18.5510  -15.8447 C   0  0  0  0  0  0  0  0  0  0  0  0
   26.3997  -19.6400  -15.6755 C   0  0  0  0  0  0  0  0  0  0  0  0
   25.7266  -20.0811  -16.6582 O   0  0  0  0  0  0  0  0  0  0  0  0
   25.7500  -24.1702  -15.0682 N   0  0  0  0  0  0  0  0  0  0  0  0
   24.7282  -24.3611  -14.1140 C   0  0  0  0  0  0  0  0  0  0  0  0
   23.9915  -25.3525  -14.1743 O   0  0  0  0  0  0  0  0  0  0  0  0
   24.5520  -23.3551  -13.0388 C   0  0  0  0  0  0  0  0  0  0  0  0
   25.5533  -22.2674  -13.2131 C   0  0  0  0  0  0  0  0  0  0  0  0
   25.1426  -21.2607  -14.2133 C   0  0  2  0  0  0  0  0  0  0  0  0
   26.1471  -20.2315  -14.4225 N   0  0  0  0  0  0  0  0  0  0  0  0
   23.8767  -20.5489  -13.9507 C   0  0  0  0  0  0  0  0  0  0  0  0
   23.8111  -19.6656  -13.0681 O   0  0  0  0  0  0  0  0  0  0  0  0
   19.8787  -18.5707  -17.8107 N   0  0  0  0  0  0  0  0  0  0  0  0
   19.2560  -18.0186  -16.6565 C   0  0  0  0  0  0  0  0  0  0  0  0
   18.1759  -17.3934  -16.7977 O   0  0  0  0  0  0  0  0  0  0  0  0
   19.9492  -18.2325  -15.3627 C   0  0  0  0  0  0  0  0  0  0  0  0
   21.2108  -19.0450  -15.4766 C   0  0  0  0  0  0  0  0  0  0  0  0
   21.4408  -20.0273  -14.3821 C   0  0  2  0  0  0  0  0  0  0  0  0
   22.6635  -20.8060  -14.6634 N   0  0  0  0  0  0  0  0  0  0  0  0
   20.2996  -20.9639  -14.3082 C   0  0  0  0  0  0  0  0  0  0  0  0
   19.1410  -20.7335  -13.5922 O   0  0  0  0  0  0  0  0  0  0  0  0
   20.4081  -22.0603  -14.9568 O   0  0  0  0  0  0  0  0  0  0  0  0
  2  1  1  0
  3  2  1  0
  3  4  2  0
  5  6  1  0
  6  7  2  0
  8  9  1  0
  8  6  1  0
 10  9  1  1
 10 11  1  0
 10 12  1  0
 11  3  1  0
 12 13  2  0
 12 20  1  0
 15 17  1  0
 15 14  1  0
 16 15  2  0
 19 18  1  6
 18 17  1  0
 19 21  1  0
 20 19  1  0
 21 23  2  0
 21 22  1  0
M  END
$$$$
