GQQ.pdb
     RDKit          3D

 23 22  0  0  1  0  0  0  0  0999 V2000
   15.9208  -12.5039  -11.1346 N   0  0  0  0  0  0  0  0  0  0  0  0
   16.8236  -11.5667  -10.5036 C   0  0  0  0  0  0  0  0  0  0  0  0
   16.3045  -10.1792  -10.6818 C   0  0  0  0  0  0  0  0  0  0  0  0
   15.9490   -9.7441  -11.8210 O   0  0  0  0  0  0  0  0  0  0  0  0
   12.6677   -7.0702   -7.0246 N   0  0  0  0  0  0  0  0  0  0  0  0
   13.1616   -5.9602   -7.7422 C   0  0  0  0  0  0  0  0  0  0  0  0
   12.6706   -4.8375   -7.5760 O   0  0  0  0  0  0  0  0  0  0  0  0
   14.2777   -6.1611   -8.6978 C   0  0  0  0  0  0  0  0  0  0  0  0
   14.7373   -7.5754   -8.6280 C   0  0  0  0  0  0  0  0  0  0  0  0
   15.6490   -7.9403   -9.7317 C   0  0  2  0  0  0  0  0  0  0  0  0
   16.1832   -9.2855   -9.6001 N   0  0  0  0  0  0  0  0  0  0  0  0
   16.8124   -7.0576   -9.9450 C   0  0  0  0  0  0  0  0  0  0  0  0
   17.6955   -6.9406   -9.0675 O   0  0  0  0  0  0  0  0  0  0  0  0
   21.1002   -7.5431  -13.5805 N   0  0  0  0  0  0  0  0  0  0  0  0
   21.4856   -6.2277  -13.1984 C   0  0  0  0  0  0  0  0  0  0  0  0
   22.6308   -5.8212  -13.5156 O   0  0  0  0  0  0  0  0  0  0  0  0
   20.4835   -5.4359  -12.4440 C   0  0  0  0  0  0  0  0  0  0  0  0
   19.2260   -6.1970  -12.1214 C   0  0  0  0  0  0  0  0  0  0  0  0
   18.2231   -5.4600  -11.3047 C   0  0  2  0  0  0  0  0  0  0  0  0
   17.0142   -6.2908  -11.1354 N   0  0  0  0  0  0  0  0  0  0  0  0
   17.8373   -4.2135  -11.9992 C   0  0  0  0  0  0  0  0  0  0  0  0
   18.5803   -3.0490  -11.9910 O   0  0  0  0  0  0  0  0  0  0  0  0
   16.7355   -4.2297  -12.6475 O   0  0  0  0  0  0  0  0  0  0  0  0
  2  1  1  0
  3  2  1  0
  3  4  2  0
  5  6  1  0
  6  7  2  0
  8  9  1  0
  8  6  1  0
 10  9  1  1
 10 11  1  0
 10 12  1  0
 11  3  1  0
 12 13  2  0
 12 20  1  0
 15 17  1  0
 15 14  1  0
 16 15  2  0
 19 18  1  6
 18 17  1  0
 19 21  1  0
 20 19  1  0
 21 23  2  0
 21 22  1  0
M  END
$$$$
