GQQ.pdb
     RDKit          3D

 23 22  0  0  1  0  0  0  0  0999 V2000
   15.7988  -32.0757    1.7175 N   0  0  0  0  0  0  0  0  0  0  0  0
   15.2538  -30.9864    0.9379 C   0  0  0  0  0  0  0  0  0  0  0  0
   16.1776  -29.8165    1.0038 C   0  0  0  0  0  0  0  0  0  0  0  0
   17.2240  -29.8362    1.7235 O   0  0  0  0  0  0  0  0  0  0  0  0
   19.4865  -27.7596   -2.4188 N   0  0  0  0  0  0  0  0  0  0  0  0
   19.4269  -26.5468   -1.6999 C   0  0  0  0  0  0  0  0  0  0  0  0
   20.4650  -25.9529   -1.3856 O   0  0  0  0  0  0  0  0  0  0  0  0
   18.1011  -25.9964   -1.3279 C   0  0  0  0  0  0  0  0  0  0  0  0
   17.1184  -27.1094   -1.2202 C   0  0  0  0  0  0  0  0  0  0  0  0
   16.8971  -27.5503    0.1725 C   0  0  2  0  0  0  0  0  0  0  0  0
   15.9367  -28.6362    0.2741 N   0  0  0  0  0  0  0  0  0  0  0  0
   16.4494  -26.5179    1.1275 C   0  0  0  0  0  0  0  0  0  0  0  0
   15.2542  -26.1521    1.1596 O   0  0  0  0  0  0  0  0  0  0  0  0
   18.6108  -26.5574    7.2888 N   0  0  0  0  0  0  0  0  0  0  0  0
   18.7988  -25.7039    6.1659 C   0  0  0  0  0  0  0  0  0  0  0  0
   19.7198  -24.8510    6.2072 O   0  0  0  0  0  0  0  0  0  0  0  0
   17.8737  -25.8983    5.0230 C   0  0  0  0  0  0  0  0  0  0  0  0
   17.7451  -24.6912    4.1334 C   0  0  0  0  0  0  0  0  0  0  0  0
   16.8118  -24.8398    2.9833 C   0  0  2  0  0  0  0  0  0  0  0  0
   17.3210  -25.8753    2.0619 N   0  0  0  0  0  0  0  0  0  0  0  0
   16.7266  -23.5619    2.2453 C   0  0  0  0  0  0  0  0  0  0  0  0
   16.1809  -22.3985    2.7521 O   0  0  0  0  0  0  0  0  0  0  0  0
   17.1938  -23.5488    1.0553 O   0  0  0  0  0  0  0  0  0  0  0  0
  2  1  1  0
  3  2  1  0
  3  4  2  0
  5  6  1  0
  6  7  2  0
  8  9  1  0
  8  6  1  0
 10  9  1  6
 10 11  1  0
 10 12  1  0
 11  3  1  0
 12 13  2  0
 12 20  1  0
 15 17  1  0
 15 14  1  0
 16 15  2  0
 19 18  1  1
 18 17  1  0
 19 21  1  0
 20 19  1  0
 21 23  2  0
 21 22  1  0
M  END
$$$$
