GQQ.pdb
     RDKit          3D

 23 22  0  0  1  0  0  0  0  0999 V2000
   44.5964   -9.5249   -4.9507 N   0  0  0  0  0  0  0  0  0  0  0  0
   43.9782  -10.7716   -5.3443 C   0  0  0  0  0  0  0  0  0  0  0  0
   43.5224  -10.6751   -6.7618 C   0  0  0  0  0  0  0  0  0  0  0  0
   43.6781   -9.6117   -7.4387 O   0  0  0  0  0  0  0  0  0  0  0  0
   42.1746  -15.4305  -10.6152 N   0  0  0  0  0  0  0  0  0  0  0  0
   43.4487  -15.1198  -10.0943 C   0  0  0  0  0  0  0  0  0  0  0  0
   44.3736  -15.9369  -10.1714 O   0  0  0  0  0  0  0  0  0  0  0  0
   43.6606  -13.7994   -9.4535 C   0  0  0  0  0  0  0  0  0  0  0  0
   42.3696  -13.0592   -9.4122 C   0  0  0  0  0  0  0  0  0  0  0  0
   42.4951  -11.7144   -8.8135 C   0  0  2  0  0  0  0  0  0  0  0  0
   42.8990  -11.7541   -7.4180 N   0  0  0  0  0  0  0  0  0  0  0  0
   41.2971  -10.8541   -8.8679 C   0  0  0  0  0  0  0  0  0  0  0  0
   40.3199  -11.0708   -8.1185 O   0  0  0  0  0  0  0  0  0  0  0  0
   38.3529   -4.3172   -8.6192 N   0  0  0  0  0  0  0  0  0  0  0  0
   39.4078   -5.2713   -8.6600 C   0  0  0  0  0  0  0  0  0  0  0  0
   40.5362   -4.9384   -8.2202 O   0  0  0  0  0  0  0  0  0  0  0  0
   39.0780   -6.6005   -9.2294 C   0  0  0  0  0  0  0  0  0  0  0  0
   40.2366   -7.5610   -9.2406 C   0  0  0  0  0  0  0  0  0  0  0  0
   39.9355   -8.9216   -9.7639 C   0  0  2  0  0  0  0  0  0  0  0  0
   41.1646   -9.7398   -9.7547 N   0  0  0  0  0  0  0  0  0  0  0  0
   39.4536   -8.8216  -11.1577 C   0  0  0  0  0  0  0  0  0  0  0  0
   38.1978   -8.3773  -11.5234 O   0  0  0  0  0  0  0  0  0  0  0  0
   40.2673   -9.1761  -12.0779 O   0  0  0  0  0  0  0  0  0  0  0  0
  2  1  1  0
  3  2  1  0
  3  4  2  0
  5  6  1  0
  6  7  2  0
  8  9  1  0
  8  6  1  0
 10  9  1  1
 10 11  1  0
 10 12  1  0
 11  3  1  0
 12 13  2  0
 12 20  1  0
 15 17  1  0
 15 14  1  0
 16 15  2  0
 19 18  1  6
 18 17  1  0
 19 21  1  0
 20 19  1  0
 21 23  2  0
 21 22  1  0
M  END
$$$$
