GQQ.pdb
     RDKit          3D

 23 22  0  0  1  0  0  0  0  0999 V2000
   26.2549  -22.5820  -16.5961 N   0  0  0  0  0  0  0  0  0  0  0  0
   26.1829  -21.5038  -15.6350 C   0  0  0  0  0  0  0  0  0  0  0  0
   24.8360  -21.4987  -14.9931 C   0  0  0  0  0  0  0  0  0  0  0  0
   23.8668  -22.1617  -15.4775 O   0  0  0  0  0  0  0  0  0  0  0  0
   23.9077  -20.7817   -8.9775 N   0  0  0  0  0  0  0  0  0  0  0  0
   22.5903  -21.0638   -9.3971 C   0  0  0  0  0  0  0  0  0  0  0  0
   21.7104  -21.3232   -8.5680 O   0  0  0  0  0  0  0  0  0  0  0  0
   22.2782  -21.0442  -10.8468 C   0  0  0  0  0  0  0  0  0  0  0  0
   23.5275  -20.7922  -11.6161 C   0  0  0  0  0  0  0  0  0  0  0  0
   23.3281  -20.8625  -13.0783 C   0  0  2  0  0  0  0  0  0  0  0  0
   24.5724  -20.7615  -13.8224 N   0  0  0  0  0  0  0  0  0  0  0  0
   22.4168  -19.8626  -13.6682 C   0  0  0  0  0  0  0  0  0  0  0  0
   22.8044  -18.6938  -13.8853 O   0  0  0  0  0  0  0  0  0  0  0  0
   19.9445  -19.9353  -18.8137 N   0  0  0  0  0  0  0  0  0  0  0  0
   19.2599  -18.7604  -18.3946 C   0  0  0  0  0  0  0  0  0  0  0  0
   18.6697  -18.0680  -19.2605 O   0  0  0  0  0  0  0  0  0  0  0  0
   19.3035  -18.4489  -16.9451 C   0  0  0  0  0  0  0  0  0  0  0  0
   20.1851  -19.3747  -16.1511 C   0  0  0  0  0  0  0  0  0  0  0  0
   20.2241  -19.1209  -14.6848 C   0  0  2  0  0  0  0  0  0  0  0  0
   21.0610  -20.1440  -14.0265 N   0  0  0  0  0  0  0  0  0  0  0  0
   18.8572  -19.2103  -14.1294 C   0  0  0  0  0  0  0  0  0  0  0  0
   17.8856  -18.2396  -14.2772 O   0  0  0  0  0  0  0  0  0  0  0  0
   18.5698  -20.2654  -13.4671 O   0  0  0  0  0  0  0  0  0  0  0  0
  2  1  1  0
  3  2  1  0
  3  4  2  0
  5  6  1  0
  6  7  2  0
  8  9  1  0
  8  6  1  0
 10  9  1  1
 10 11  1  0
 10 12  1  0
 11  3  1  0
 12 13  2  0
 12 20  1  0
 15 17  1  0
 15 14  1  0
 16 15  2  0
 19 18  1  6
 18 17  1  0
 19 21  1  0
 20 19  1  0
 21 23  2  0
 21 22  1  0
M  END
$$$$
