NHV.pdb
     RDKit          3D

 26 26  0  0  1  0  0  0  0  0999 V2000
   19.8321  -23.8718   -9.9283 N   0  0  0  0  0  0  0  0  0  0  0  0
   18.8415  -23.1792   -9.1833 C   0  0  0  0  0  0  0  0  0  0  0  0
   18.7103  -21.9482   -9.3962 O   0  0  0  0  0  0  0  0  0  0  0  0
   18.0078  -23.9022   -8.1992 C   0  0  0  0  0  0  0  0  0  0  0  0
   18.4601  -25.3390   -8.1060 C   0  0  2  0  0  0  0  0  0  0  0  0
   18.1554  -26.0607   -9.3118 N   0  0  0  0  0  0  0  0  0  0  0  0
   17.7996  -25.9706   -6.9175 C   0  0  0  0  0  0  0  0  0  0  0  0
   16.5780  -25.7615   -6.7307 O   0  0  0  0  0  0  0  0  0  0  0  0
   18.5724  -26.7822   -6.0435 N   0  0  0  0  0  0  0  0  0  0  0  0
   17.9705  -27.5278   -4.9876 C   0  0  1  0  0  0  0  0  0  0  0  0
   18.6113  -28.8791   -4.7735 C   0  0  0  0  0  0  0  0  0  0  0  0
   18.3041  -29.7630   -5.9164 C   0  0  0  0  0  0  0  0  0  0  0  0
   17.3831  -29.5819   -6.9177 C   0  0  0  0  0  0  0  0  0  0  0  0
   17.4545  -30.6544   -7.7472 N   0  0  0  0  0  0  0  0  0  0  0  0
   18.3932  -31.4871   -7.2822 C   0  0  0  0  0  0  0  0  0  0  0  0
   18.8949  -30.9359   -6.1798 N   0  0  0  0  0  0  0  0  0  0  0  0
   17.9856  -26.7007   -3.7626 C   0  0  0  0  0  0  0  0  0  0  0  0
   18.9016  -25.8941   -3.4652 O   0  0  0  0  0  0  0  0  0  0  0  0
   15.1836  -25.1594    0.0249 C   0  0  0  0  0  0  0  0  0  0  0  0
   15.3796  -25.8611   -1.2932 C   0  0  2  0  0  0  0  0  0  0  0  0
   14.6853  -27.1954   -1.2551 C   0  0  0  0  0  0  0  0  0  0  0  0
   16.8302  -26.0626   -1.6339 C   0  0  2  0  0  0  0  0  0  0  0  0
   16.8826  -26.8346   -2.8649 N   0  0  0  0  0  0  0  0  0  0  0  0
   17.5561  -26.7929   -0.5751 C   0  0  0  0  0  0  0  0  0  0  0  0
   17.9569  -26.1971    0.4573 O   0  0  0  0  0  0  0  0  0  0  0  0
   17.8249  -28.1512   -0.6707 O   0  0  0  0  0  0  0  0  0  0  0  0
  2  1  1  0
  2  3  2  0
  4  2  1  0
  5  4  1  0
  5  6  1  6
  7  5  1  0
  8  7  2  0
  9  7  1  0
 10  9  1  0
 11 12  1  0
 10 11  1  1
 12 13  2  0
 13 14  1  0
 15 14  1  0
 16 12  1  0
 16 15  2  0
 17 23  1  0
 17 10  1  0
 18 17  2  0
 20 19  1  1
 21 20  1  0
 22 20  1  0
 22 23  1  6
 24 22  1  0
 25 24  2  0
 26 24  1  0
M  END
$$$$
