NHV.pdb
     RDKit          3D

 26 26  0  0  1  0  0  0  0  0999 V2000
   21.8463   -7.8406  -14.7581 N   0  0  0  0  0  0  0  0  0  0  0  0
   21.3491   -6.6574  -14.1506 C   0  0  0  0  0  0  0  0  0  0  0  0
   22.0831   -5.6383  -14.1786 O   0  0  0  0  0  0  0  0  0  0  0  0
   20.0141   -6.6502  -13.5151 C   0  0  0  0  0  0  0  0  0  0  0  0
   19.4233   -8.0384  -13.5551 C   0  0  2  0  0  0  0  0  0  0  0  0
   19.1778   -8.4617  -14.9072 N   0  0  0  0  0  0  0  0  0  0  0  0
   18.1582   -8.0413  -12.7505 C   0  0  0  0  0  0  0  0  0  0  0  0
   17.0811   -7.7642  -13.3285 O   0  0  0  0  0  0  0  0  0  0  0  0
   18.2168   -8.3560  -11.3659 N   0  0  0  0  0  0  0  0  0  0  0  0
   17.0349   -8.5559  -10.5938 C   0  0  1  0  0  0  0  0  0  0  0  0
   17.0127   -9.8837   -9.8733 C   0  0  0  0  0  0  0  0  0  0  0  0
   16.9055  -10.9818  -10.8553 C   0  0  0  0  0  0  0  0  0  0  0  0
   15.7814  -11.6411  -11.2857 C   0  0  0  0  0  0  0  0  0  0  0  0
   16.1684  -12.5744  -12.1926 N   0  0  0  0  0  0  0  0  0  0  0  0
   17.4978  -12.5052  -12.3298 C   0  0  0  0  0  0  0  0  0  0  0  0
   17.9260  -11.5416  -11.5180 N   0  0  0  0  0  0  0  0  0  0  0  0
   16.8817   -7.4139   -9.6677 C   0  0  0  0  0  0  0  0  0  0  0  0
   17.7446   -7.0678   -8.8231 O   0  0  0  0  0  0  0  0  0  0  0  0
   14.1274   -4.5625  -10.8053 C   0  0  0  0  0  0  0  0  0  0  0  0
   15.2336   -4.3200   -9.8125 C   0  0  2  0  0  0  0  0  0  0  0  0
   16.5049   -4.0013  -10.5515 C   0  0  0  0  0  0  0  0  0  0  0  0
   15.4658   -5.4946   -8.9030 C   0  0  2  0  0  0  0  0  0  0  0  0
   15.6701   -6.6613   -9.7463 N   0  0  0  0  0  0  0  0  0  0  0  0
   14.3181   -5.7421   -8.0069 C   0  0  0  0  0  0  0  0  0  0  0  0
   13.5148   -6.6822   -8.2364 O   0  0  0  0  0  0  0  0  0  0  0  0
   14.0778   -4.9591   -6.8865 O   0  0  0  0  0  0  0  0  0  0  0  0
  2  1  1  0
  2  3  2  0
  4  2  1  0
  5  4  1  0
  5  6  1  6
  7  5  1  0
  8  7  2  0
  9  7  1  0
 10  9  1  0
 11 12  1  0
 10 11  1  1
 12 13  2  0
 13 14  1  0
 15 14  1  0
 16 12  1  0
 16 15  2  0
 17 23  1  0
 17 10  1  0
 18 17  2  0
 20 19  1  6
 21 20  1  0
 22 20  1  0
 22 23  1  6
 24 22  1  0
 25 24  2  0
 26 24  1  0
M  END
$$$$
