NHV.pdb
     RDKit          3D

 26 26  0  0  1  0  0  0  0  0999 V2000
   28.8359  -19.3078  -19.1549 N   0  0  0  0  0  0  0  0  0  0  0  0
   29.1496  -18.6713  -17.9250 C   0  0  0  0  0  0  0  0  0  0  0  0
   30.3583  -18.4190  -17.6940 O   0  0  0  0  0  0  0  0  0  0  0  0
   28.0759  -18.3281  -16.9682 C   0  0  0  0  0  0  0  0  0  0  0  0
   26.7513  -18.8330  -17.4862 C   0  0  2  0  0  0  0  0  0  0  0  0
   26.3470  -18.1191  -18.6671 N   0  0  0  0  0  0  0  0  0  0  0  0
   25.7302  -18.6966  -16.3969 C   0  0  0  0  0  0  0  0  0  0  0  0
   25.7474  -17.6639  -15.6868 O   0  0  0  0  0  0  0  0  0  0  0  0
   24.7793  -19.7347  -16.2027 N   0  0  0  0  0  0  0  0  0  0  0  0
   23.7350  -19.6215  -15.2385 C   0  0  1  0  0  0  0  0  0  0  0  0
   22.3544  -19.6450  -15.8518 C   0  0  0  0  0  0  0  0  0  0  0  0
   22.0792  -18.3514  -16.5095 C   0  0  0  0  0  0  0  0  0  0  0  0
   21.5498  -17.2079  -15.9658 C   0  0  0  0  0  0  0  0  0  0  0  0
   21.4804  -16.2736  -16.9484 N   0  0  0  0  0  0  0  0  0  0  0  0
   21.9524  -16.8127  -18.0787 C   0  0  0  0  0  0  0  0  0  0  0  0
   22.3086  -18.0637  -17.7974 N   0  0  0  0  0  0  0  0  0  0  0  0
   23.9157  -20.6828  -14.2256 C   0  0  0  0  0  0  0  0  0  0  0  0
   23.9640  -21.9102  -14.4883 O   0  0  0  0  0  0  0  0  0  0  0  0
   25.3134  -19.6365  -10.3074 C   0  0  0  0  0  0  0  0  0  0  0  0
   25.3721  -20.9674  -11.0098 C   0  0  2  0  0  0  0  0  0  0  0  0
   26.5632  -20.9933  -11.9287 C   0  0  0  0  0  0  0  0  0  0  0  0
   24.1265  -21.2635  -11.7983 C   0  0  2  0  0  0  0  0  0  0  0  0
   24.0426  -20.2760  -12.8622 N   0  0  0  0  0  0  0  0  0  0  0  0
   22.9078  -21.1828  -10.9679 C   0  0  0  0  0  0  0  0  0  0  0  0
   22.6714  -22.0496  -10.0879 O   0  0  0  0  0  0  0  0  0  0  0  0
   21.9813  -20.1607  -11.1192 O   0  0  0  0  0  0  0  0  0  0  0  0
  2  1  1  0
  2  3  2  0
  4  2  1  0
  5  4  1  0
  5  6  1  6
  7  5  1  0
  8  7  2  0
  9  7  1  0
 10  9  1  0
 11 12  1  0
 10 11  1  6
 12 13  2  0
 13 14  1  0
 15 14  1  0
 16 12  1  0
 16 15  2  0
 17 23  1  0
 17 10  1  0
 18 17  2  0
 20 19  1  6
 21 20  1  0
 22 20  1  0
 22 23  1  6
 24 22  1  0
 25 24  2  0
 26 24  1  0
M  END
$$$$
