NHV.pdb
     RDKit          3D

 26 26  0  0  1  0  0  0  0  0999 V2000
   12.2085   -7.1150   -8.7299 N   0  0  0  0  0  0  0  0  0  0  0  0
   13.4476   -6.7845   -8.1203 C   0  0  0  0  0  0  0  0  0  0  0  0
   13.4192   -6.0133   -7.1292 O   0  0  0  0  0  0  0  0  0  0  0  0
   14.7109   -7.3402   -8.6508 C   0  0  0  0  0  0  0  0  0  0  0  0
   14.4185   -8.2327   -9.8322 C   0  0  2  0  0  0  0  0  0  0  0  0
   13.9019   -9.5060   -9.4084 N   0  0  0  0  0  0  0  0  0  0  0  0
   15.6786   -8.3991  -10.6273 C   0  0  0  0  0  0  0  0  0  0  0  0
   16.5018   -9.2732  -10.2677 O   0  0  0  0  0  0  0  0  0  0  0  0
   15.9014   -7.5668  -11.7575 N   0  0  0  0  0  0  0  0  0  0  0  0
   16.9866   -7.7969  -12.6533 C   0  0  1  0  0  0  0  0  0  0  0  0
   16.5393   -8.0884  -14.0667 C   0  0  0  0  0  0  0  0  0  0  0  0
   15.7935   -9.3629  -14.1005 C   0  0  0  0  0  0  0  0  0  0  0  0
   14.4363   -9.5618  -14.1451 C   0  0  0  0  0  0  0  0  0  0  0  0
   14.2126  -10.9008  -14.1630 N   0  0  0  0  0  0  0  0  0  0  0  0
   15.3946  -11.5276  -14.1306 C   0  0  0  0  0  0  0  0  0  0  0  0
   16.3358  -10.5876  -14.0932 N   0  0  0  0  0  0  0  0  0  0  0  0
   17.9044   -6.6402  -12.5840 C   0  0  0  0  0  0  0  0  0  0  0  0
   17.5412   -5.4631  -12.3386 O   0  0  0  0  0  0  0  0  0  0  0  0
   21.9650   -7.4895  -12.0856 C   0  0  0  0  0  0  0  0  0  0  0  0
   21.3174   -6.1631  -11.7867 C   0  0  2  0  0  0  0  0  0  0  0  0
   20.7157   -6.2020  -10.4082 C   0  0  0  0  0  0  0  0  0  0  0  0
   20.2544   -5.7975  -12.7854 C   0  0  2  0  0  0  0  0  0  0  0  0
   19.2926   -6.8875  -12.8126 N   0  0  0  0  0  0  0  0  0  0  0  0
   20.8054   -5.6063  -14.1423 C   0  0  0  0  0  0  0  0  0  0  0  0
   20.6919   -6.5053  -15.0144 O   0  0  0  0  0  0  0  0  0  0  0  0
   21.4643   -4.4418  -14.5110 O   0  0  0  0  0  0  0  0  0  0  0  0
  2  1  1  0
  2  3  2  0
  4  2  1  0
  5  4  1  0
  5  6  1  1
  7  5  1  0
  8  7  2  0
  9  7  1  0
 10  9  1  0
 11 12  1  0
 10 11  1  6
 12 13  2  0
 13 14  1  0
 15 14  1  0
 16 12  1  0
 16 15  2  0
 17 23  1  0
 17 10  1  0
 18 17  2  0
 20 19  1  6
 21 20  1  0
 22 20  1  0
 22 23  1  6
 24 22  1  0
 25 24  2  0
 26 24  1  0
M  END
$$$$
