NHV.pdb
     RDKit          3D

 26 26  0  0  1  0  0  0  0  0999 V2000
   17.8612  -11.7643  -20.9432 N   0  0  0  0  0  0  0  0  0  0  0  0
   18.4215  -10.5624  -20.4356 C   0  0  0  0  0  0  0  0  0  0  0  0
   18.2353   -9.5108  -21.0971 O   0  0  0  0  0  0  0  0  0  0  0  0
   19.1914  -10.5738  -19.1734 C   0  0  0  0  0  0  0  0  0  0  0  0
   20.1278   -9.3907  -19.1371 C   0  0  2  0  0  0  0  0  0  0  0  0
   21.2607   -9.5959  -19.9985 N   0  0  0  0  0  0  0  0  0  0  0  0
   20.5610   -9.1690  -17.7191 C   0  0  0  0  0  0  0  0  0  0  0  0
   19.6817   -9.1023  -16.8284 O   0  0  0  0  0  0  0  0  0  0  0  0
   21.9463   -9.0419  -17.4281 N   0  0  0  0  0  0  0  0  0  0  0  0
   22.4080   -8.6973  -16.1239 C   0  0  1  0  0  0  0  0  0  0  0  0
   23.7020   -9.3821  -15.7509 C   0  0  0  0  0  0  0  0  0  0  0  0
   23.4917  -10.8427  -15.6845 C   0  0  0  0  0  0  0  0  0  0  0  0
   22.3291  -11.5509  -15.8584 C   0  0  0  0  0  0  0  0  0  0  0  0
   22.6180  -12.8686  -15.7056 N   0  0  0  0  0  0  0  0  0  0  0  0
   23.9249  -12.9874  -15.4431 C   0  0  0  0  0  0  0  0  0  0  0  0
   24.4361  -11.7588  -15.4338 N   0  0  0  0  0  0  0  0  0  0  0  0
   22.5083   -7.2251  -16.0364 C   0  0  0  0  0  0  0  0  0  0  0  0
   23.0279   -6.4981  -16.9192 O   0  0  0  0  0  0  0  0  0  0  0  0
   20.6321   -3.1016  -14.9774 C   0  0  0  0  0  0  0  0  0  0  0  0
   20.7330   -4.5902  -15.1821 C   0  0  2  0  0  0  0  0  0  0  0  0
   19.6033   -5.2702  -14.4574 C   0  0  0  0  0  0  0  0  0  0  0  0
   22.0430   -5.1545  -14.7062 C   0  0  2  0  0  0  0  0  0  0  0  0
   21.9771   -6.5979  -14.8681 N   0  0  0  0  0  0  0  0  0  0  0  0
   22.3038   -4.8397  -13.2869 C   0  0  0  0  0  0  0  0  0  0  0  0
   22.6031   -3.6707  -12.9326 O   0  0  0  0  0  0  0  0  0  0  0  0
   22.2312   -5.8065  -12.2939 O   0  0  0  0  0  0  0  0  0  0  0  0
  2  1  1  0
  2  3  2  0
  4  2  1  0
  5  4  1  0
  5  6  1  6
  7  5  1  0
  8  7  2  0
  9  7  1  0
 10  9  1  0
 11 12  1  0
 10 11  1  6
 12 13  2  0
 13 14  1  0
 15 14  1  0
 16 12  1  0
 16 15  2  0
 17 23  1  0
 17 10  1  0
 18 17  2  0
 20 19  1  1
 21 20  1  0
 22 20  1  0
 22 23  1  1
 24 22  1  0
 25 24  2  0
 26 24  1  0
M  END
$$$$
