NHV.pdb
     RDKit          3D

 26 26  0  0  1  0  0  0  0  0999 V2000
   21.2696  -11.7340  -17.6703 N   0  0  0  0  0  0  0  0  0  0  0  0
   20.2109  -10.9897  -18.2546 C   0  0  0  0  0  0  0  0  0  0  0  0
   20.0938  -11.0307  -19.5047 O   0  0  0  0  0  0  0  0  0  0  0  0
   19.2935  -10.2035  -17.4023 C   0  0  0  0  0  0  0  0  0  0  0  0
   19.6754  -10.3721  -15.9519 C   0  0  2  0  0  0  0  0  0  0  0  0
   19.4992  -11.7327  -15.5212 N   0  0  0  0  0  0  0  0  0  0  0  0
   18.8457   -9.4335  -15.1283 C   0  0  0  0  0  0  0  0  0  0  0  0
   18.8927   -8.2083  -15.3884 O   0  0  0  0  0  0  0  0  0  0  0  0
   18.0359   -9.9566  -14.0841 N   0  0  0  0  0  0  0  0  0  0  0  0
   17.1671   -9.1217  -13.3219 C   0  0  1  0  0  0  0  0  0  0  0  0
   15.8581   -9.7892  -12.9703 C   0  0  0  0  0  0  0  0  0  0  0  0
   14.8729   -9.5510  -14.0448 C   0  0  0  0  0  0  0  0  0  0  0  0
   14.4827   -8.3591  -14.6022 C   0  0  0  0  0  0  0  0  0  0  0  0
   13.5545   -8.6300  -15.5553 N   0  0  0  0  0  0  0  0  0  0  0  0
   13.3654   -9.9541  -15.5974 C   0  0  0  0  0  0  0  0  0  0  0  0
   14.1664  -10.4938  -14.6820 N   0  0  0  0  0  0  0  0  0  0  0  0
   17.8972   -8.6557  -12.1240 C   0  0  0  0  0  0  0  0  0  0  0  0
   18.3525   -9.4156  -11.2334 O   0  0  0  0  0  0  0  0  0  0  0  0
   19.6688   -4.8618  -12.1544 C   0  0  0  0  0  0  0  0  0  0  0  0
   19.9349   -5.9712  -11.1712 C   0  0  2  0  0  0  0  0  0  0  0  0
   20.9117   -6.9452  -11.7719 C   0  0  0  0  0  0  0  0  0  0  0  0
   18.6844   -6.7025  -10.7681 C   0  0  2  0  0  0  0  0  0  0  0  0
   18.0926   -7.2482  -11.9789 N   0  0  0  0  0  0  0  0  0  0  0  0
   17.7051   -5.8134  -10.1108 C   0  0  0  0  0  0  0  0  0  0  0  0
   16.7440   -5.3256  -10.7589 O   0  0  0  0  0  0  0  0  0  0  0  0
   17.8003   -5.4808   -8.7668 O   0  0  0  0  0  0  0  0  0  0  0  0
  2  1  1  0
  2  3  2  0
  4  2  1  0
  5  4  1  0
  5  6  1  1
  7  5  1  0
  8  7  2  0
  9  7  1  0
 10  9  1  0
 11 12  1  0
 10 11  1  1
 12 13  2  0
 13 14  1  0
 15 14  1  0
 16 12  1  0
 16 15  2  0
 17 23  1  0
 17 10  1  0
 18 17  2  0
 20 19  1  6
 21 20  1  0
 22 20  1  0
 22 23  1  6
 24 22  1  0
 25 24  2  0
 26 24  1  0
M  END
$$$$
