NHV.pdb
     RDKit          3D

 26 26  0  0  1  0  0  0  0  0999 V2000
   24.0241  -11.3742  -22.1948 N   0  0  0  0  0  0  0  0  0  0  0  0
   22.6279  -11.6293  -22.2356 C   0  0  0  0  0  0  0  0  0  0  0  0
   22.1834  -12.2685  -23.2214 O   0  0  0  0  0  0  0  0  0  0  0  0
   21.7505  -11.1500  -21.1464 C   0  0  0  0  0  0  0  0  0  0  0  0
   22.5842  -10.5004  -20.0691 C   0  0  2  0  0  0  0  0  0  0  0  0
   23.3767  -11.4725  -19.3658 N   0  0  0  0  0  0  0  0  0  0  0  0
   21.6686   -9.7709  -19.1325 C   0  0  0  0  0  0  0  0  0  0  0  0
   20.9442   -8.8581  -19.5940 O   0  0  0  0  0  0  0  0  0  0  0  0
   21.6488  -10.1331  -17.7584 N   0  0  0  0  0  0  0  0  0  0  0  0
   20.8126   -9.4603  -16.8197 C   0  0  1  0  0  0  0  0  0  0  0  0
   20.1419  -10.3971  -15.8424 C   0  0  0  0  0  0  0  0  0  0  0  0
   19.1427   -9.6553  -15.0468 C   0  0  0  0  0  0  0  0  0  0  0  0
   17.9010   -9.2113  -15.4272 C   0  0  0  0  0  0  0  0  0  0  0  0
   17.3411   -8.5802  -14.3634 N   0  0  0  0  0  0  0  0  0  0  0  0
   18.2049   -8.6253  -13.3422 C   0  0  0  0  0  0  0  0  0  0  0  0
   19.2841   -9.2757  -13.7700 N   0  0  0  0  0  0  0  0  0  0  0  0
   21.6142   -8.4215  -16.1389 C   0  0  0  0  0  0  0  0  0  0  0  0
   22.7597   -8.6128  -15.6603 O   0  0  0  0  0  0  0  0  0  0  0  0
   22.0977   -4.7556  -17.4769 C   0  0  0  0  0  0  0  0  0  0  0  0
   21.4720   -4.7770  -16.1072 C   0  0  2  0  0  0  0  0  0  0  0  0
   21.9723   -3.6012  -15.3128 C   0  0  0  0  0  0  0  0  0  0  0  0
   21.7618   -6.0469  -15.3560 C   0  0  2  0  0  0  0  0  0  0  0  0
   21.0401   -7.1186  -16.0227 N   0  0  0  0  0  0  0  0  0  0  0  0
   21.3244   -5.9743  -13.9472 C   0  0  0  0  0  0  0  0  0  0  0  0
   22.0838   -5.5035  -13.0621 O   0  0  0  0  0  0  0  0  0  0  0  0
   20.0728   -6.4163  -13.5422 O   0  0  0  0  0  0  0  0  0  0  0  0
  2  1  1  0
  2  3  2  0
  4  2  1  0
  5  4  1  0
  5  6  1  1
  7  5  1  0
  8  7  2  0
  9  7  1  0
 10  9  1  0
 11 12  1  0
 10 11  1  1
 12 13  2  0
 13 14  1  0
 15 14  1  0
 16 12  1  0
 16 15  2  0
 17 23  1  0
 17 10  1  0
 18 17  2  0
 20 19  1  6
 21 20  1  0
 22 20  1  0
 22 23  1  6
 24 22  1  0
 25 24  2  0
 26 24  1  0
M  END
$$$$
