NHV.pdb
     RDKit          3D

 26 26  0  0  1  0  0  0  0  0999 V2000
   35.3102  -15.6212  -21.2113 N   0  0  0  0  0  0  0  0  0  0  0  0
   35.8294  -15.1514  -19.9760 C   0  0  0  0  0  0  0  0  0  0  0  0
   36.8368  -15.7388  -19.5091 O   0  0  0  0  0  0  0  0  0  0  0  0
   35.1905  -14.0114  -19.2843 C   0  0  0  0  0  0  0  0  0  0  0  0
   33.9795  -13.5573  -20.0621 C   0  0  2  0  0  0  0  0  0  0  0  0
   34.3588  -12.7768  -21.2087 N   0  0  0  0  0  0  0  0  0  0  0  0
   33.0906  -12.7723  -19.1448 C   0  0  0  0  0  0  0  0  0  0  0  0
   32.6100  -13.3478  -18.1404 O   0  0  0  0  0  0  0  0  0  0  0  0
   32.8208  -11.4083  -19.4388 N   0  0  0  0  0  0  0  0  0  0  0  0
   31.9919  -10.6114  -18.5956 C   0  0  1  0  0  0  0  0  0  0  0  0
   32.1788   -9.1274  -18.8089 C   0  0  0  0  0  0  0  0  0  0  0  0
   32.8715   -8.5399  -17.6441 C   0  0  0  0  0  0  0  0  0  0  0  0
   33.2735   -9.1550  -16.4850 C   0  0  0  0  0  0  0  0  0  0  0  0
   33.8689   -8.2189  -15.7024 N   0  0  0  0  0  0  0  0  0  0  0  0
   33.8429   -7.0478  -16.3496 C   0  0  0  0  0  0  0  0  0  0  0  0
   33.2392   -7.2583  -17.5167 N   0  0  0  0  0  0  0  0  0  0  0  0
   30.5877  -11.0319  -18.7867 C   0  0  0  0  0  0  0  0  0  0  0  0
   30.1103  -11.4269  -19.8793 O   0  0  0  0  0  0  0  0  0  0  0  0
   28.5505  -13.3024  -16.3069 C   0  0  0  0  0  0  0  0  0  0  0  0
   27.8817  -11.9679  -16.5062 C   0  0  2  0  0  0  0  0  0  0  0  0
   26.3890  -12.1558  -16.5185 C   0  0  0  0  0  0  0  0  0  0  0  0
   28.3099  -11.2876  -17.7770 C   0  0  2  0  0  0  0  0  0  0  0  0
   29.7256  -10.9822  -17.6488 N   0  0  0  0  0  0  0  0  0  0  0  0
   27.5659  -10.0346  -18.0174 C   0  0  0  0  0  0  0  0  0  0  0  0
   27.9296   -8.9579  -17.4789 O   0  0  0  0  0  0  0  0  0  0  0  0
   26.4470   -9.9896  -18.8374 O   0  0  0  0  0  0  0  0  0  0  0  0
  2  1  1  0
  2  3  2  0
  4  2  1  0
  5  4  1  0
  5  6  1  6
  7  5  1  0
  8  7  2  0
  9  7  1  0
 10  9  1  0
 11 12  1  0
 10 11  1  6
 12 13  2  0
 13 14  1  0
 15 14  1  0
 16 12  1  0
 16 15  2  0
 17 23  1  0
 17 10  1  0
 18 17  2  0
 20 19  1  6
 21 20  1  0
 22 20  1  0
 22 23  1  1
 24 22  1  0
 25 24  2  0
 26 24  1  0
M  END
$$$$
