NHV.pdb
     RDKit          3D

 26 26  0  0  1  0  0  0  0  0999 V2000
   19.1765  -12.4785  -20.1474 N   0  0  0  0  0  0  0  0  0  0  0  0
   18.0481  -11.9492  -19.4671 C   0  0  0  0  0  0  0  0  0  0  0  0
   16.9107  -12.2859  -19.8807 O   0  0  0  0  0  0  0  0  0  0  0  0
   18.2308  -11.0375  -18.3175 C   0  0  0  0  0  0  0  0  0  0  0  0
   19.7033  -10.8526  -18.0430 C   0  0  2  0  0  0  0  0  0  0  0  0
   20.2785  -12.0368  -17.4647 N   0  0  0  0  0  0  0  0  0  0  0  0
   19.8744   -9.6712  -17.1360 C   0  0  0  0  0  0  0  0  0  0  0  0
   19.2898   -9.6786  -16.0273 O   0  0  0  0  0  0  0  0  0  0  0  0
   20.6887   -8.5850  -17.5567 N   0  0  0  0  0  0  0  0  0  0  0  0
   20.9310   -7.4615  -16.7130 C   0  0  1  0  0  0  0  0  0  0  0  0
   22.3469   -7.4060  -16.1887 C   0  0  0  0  0  0  0  0  0  0  0  0
   22.5741   -8.5223  -15.2485 C   0  0  0  0  0  0  0  0  0  0  0  0
   22.0650   -8.6981  -13.9862 C   0  0  0  0  0  0  0  0  0  0  0  0
   22.5493   -9.8704  -13.5019 N   0  0  0  0  0  0  0  0  0  0  0  0
   23.3407  -10.4175  -14.4321 C   0  0  0  0  0  0  0  0  0  0  0  0
   23.3449   -9.5936  -15.4771 N   0  0  0  0  0  0  0  0  0  0  0  0
   20.5580   -6.2346  -17.4483 C   0  0  0  0  0  0  0  0  0  0  0  0
   20.9691   -5.9480  -18.6002 O   0  0  0  0  0  0  0  0  0  0  0  0
   17.2546   -5.4015  -18.4744 C   0  0  0  0  0  0  0  0  0  0  0  0
   17.6888   -4.2639  -17.5882 C   0  0  2  0  0  0  0  0  0  0  0  0
   17.1142   -2.9763  -18.1133 C   0  0  0  0  0  0  0  0  0  0  0  0
   19.1842   -4.1407  -17.4918 C   0  0  2  0  0  0  0  0  0  0  0  0
   19.6722   -5.3218  -16.7983 N   0  0  0  0  0  0  0  0  0  0  0  0
   19.5981   -2.9365  -16.7435 C   0  0  0  0  0  0  0  0  0  0  0  0
   19.5146   -2.8992  -15.4892 O   0  0  0  0  0  0  0  0  0  0  0  0
   20.0910   -1.8072  -17.3822 O   0  0  0  0  0  0  0  0  0  0  0  0
  2  1  1  0
  2  3  2  0
  4  2  1  0
  5  4  1  0
  5  6  1  1
  7  5  1  0
  8  7  2  0
  9  7  1  0
 10  9  1  0
 11 12  1  0
 10 11  1  6
 12 13  2  0
 13 14  1  0
 15 14  1  0
 16 12  1  0
 16 15  2  0
 17 23  1  0
 17 10  1  0
 18 17  2  0
 20 19  1  6
 21 20  1  0
 22 20  1  0
 22 23  1  1
 24 22  1  0
 25 24  2  0
 26 24  1  0
M  END
$$$$
