NHV.pdb
     RDKit          3D

 26 26  0  0  1  0  0  0  0  0999 V2000
   13.3128  -11.6815  -13.5701 N   0  0  0  0  0  0  0  0  0  0  0  0
   13.6417  -10.4576  -14.2105 C   0  0  0  0  0  0  0  0  0  0  0  0
   13.4185  -10.3696  -15.4436 O   0  0  0  0  0  0  0  0  0  0  0  0
   14.2243   -9.3428  -13.4333 C   0  0  0  0  0  0  0  0  0  0  0  0
   15.7289   -9.4604  -13.4232 C   0  0  2  0  0  0  0  0  0  0  0  0
   16.1582  -10.5910  -12.6453 N   0  0  0  0  0  0  0  0  0  0  0  0
   16.3031   -8.1848  -12.8839 C   0  0  0  0  0  0  0  0  0  0  0  0
   16.0550   -7.1148  -13.4878 O   0  0  0  0  0  0  0  0  0  0  0  0
   17.1061   -8.2256  -11.7121 N   0  0  0  0  0  0  0  0  0  0  0  0
   17.7206   -7.0517  -11.1854 C   0  0  1  0  0  0  0  0  0  0  0  0
   17.4997   -6.8801   -9.7007 C   0  0  0  0  0  0  0  0  0  0  0  0
   16.1362   -6.3677   -9.4557 C   0  0  0  0  0  0  0  0  0  0  0  0
   15.1420   -6.1054  -10.3647 C   0  0  0  0  0  0  0  0  0  0  0  0
   14.0620   -5.6496   -9.6798 N   0  0  0  0  0  0  0  0  0  0  0  0
   14.3666   -5.6255   -8.3769 C   0  0  0  0  0  0  0  0  0  0  0  0
   15.6187   -6.0607   -8.2590 N   0  0  0  0  0  0  0  0  0  0  0  0
   19.1557   -7.0756  -11.5387 C   0  0  0  0  0  0  0  0  0  0  0  0
   20.0137   -7.7905  -10.9637 O   0  0  0  0  0  0  0  0  0  0  0  0
   20.4813   -7.8310  -14.8672 C   0  0  0  0  0  0  0  0  0  0  0  0
   21.0028   -6.4655  -14.5045 C   0  0  2  0  0  0  0  0  0  0  0  0
   22.4113   -6.3192  -15.0128 C   0  0  0  0  0  0  0  0  0  0  0  0
   20.9771   -6.2084  -13.0233 C   0  0  2  0  0  0  0  0  0  0  0  0
   19.5849   -6.2270  -12.6046 N   0  0  0  0  0  0  0  0  0  0  0  0
   21.5688   -4.9012  -12.6733 C   0  0  0  0  0  0  0  0  0  0  0  0
   20.9049   -3.8407  -12.8007 O   0  0  0  0  0  0  0  0  0  0  0  0
   22.8663   -4.7859  -12.1946 O   0  0  0  0  0  0  0  0  0  0  0  0
  2  1  1  0
  2  3  2  0
  4  2  1  0
  5  4  1  0
  5  6  1  1
  7  5  1  0
  8  7  2  0
  9  7  1  0
 10  9  1  0
 11 12  1  0
 10 11  1  1
 12 13  2  0
 13 14  1  0
 15 14  1  0
 16 12  1  0
 16 15  2  0
 17 23  1  0
 17 10  1  0
 18 17  2  0
 20 19  1  1
 21 20  1  0
 22 20  1  0
 22 23  1  6
 24 22  1  0
 25 24  2  0
 26 24  1  0
M  END
$$$$
