MPK.pdb
     RDKit          3D

 25 25  0  0  1  0  0  0  0  0999 V2000
    6.7053  -11.9243   26.6606 C   0  0  0  0  0  0  0  0  0  0  0  0
    7.1202  -13.4864   27.4410 S   0  0  0  0  0  0  0  0  0  0  0  0
    7.4405  -14.7847   26.2154 C   0  0  0  0  0  0  0  0  0  0  0  0
    6.3152  -14.8899   25.2144 C   0  0  0  0  0  0  0  0  0  0  0  0
    6.2637  -16.3585   24.7611 C   0  0  2  0  0  0  0  0  0  0  0  0
    6.4465  -17.1383   26.0018 N   0  0  0  0  0  0  0  0  0  0  0  0
    7.3711  -16.6448   23.8164 C   0  0  0  0  0  0  0  0  0  0  0  0
    7.9508  -17.7534   23.8912 O   0  0  0  0  0  0  0  0  0  0  0  0
    7.7700  -15.7098   22.8567 N   0  0  0  0  0  0  0  0  0  0  0  0
    7.1253  -14.4005   22.6801 C   0  0  0  0  0  0  0  0  0  0  0  0
    7.7556  -13.7749   21.4769 C   0  0  0  0  0  0  0  0  0  0  0  0
    8.4570  -14.8900   20.7649 C   0  0  0  0  0  0  0  0  0  0  0  0
    8.8485  -15.8267   21.9216 C   0  0  1  0  0  0  0  0  0  0  0  0
   10.1132  -15.2201   22.4658 C   0  0  0  0  0  0  0  0  0  0  0  0
   10.0109  -14.1621   23.1345 O   0  0  0  0  0  0  0  0  0  0  0  0
   11.3800  -15.7702   22.2660 N   0  0  0  0  0  0  0  0  0  0  0  0
   12.4069  -15.8668   23.3230 C   0  0  1  0  0  0  0  0  0  0  0  0
   11.8750  -16.6301   24.4934 C   0  0  0  0  0  0  0  0  0  0  0  0
   11.5991  -18.0526   24.1713 C   0  0  0  0  0  0  0  0  0  0  0  0
   11.0733  -18.8365   25.3566 C   0  0  0  0  0  0  0  0  0  0  0  0
   10.7514  -20.2643   24.9742 C   0  0  0  0  0  0  0  0  0  0  0  0
   10.2672  -21.0399   26.0743 N   0  0  0  0  0  0  0  0  0  0  0  0
   13.5724  -16.5193   22.7074 C   0  0  0  0  0  0  0  0  0  0  0  0
   14.6607  -16.5607   23.3156 O   0  0  0  0  0  0  0  0  0  0  0  0
   13.4957  -17.0965   21.4556 O   0  0  0  0  0  0  0  0  0  0  0  0
  2  1  1  0
  3  2  1  0
  4  3  1  0
  4  5  1  0
  5  6  1  1
  7  5  1  0
  7  8  2  0
  9  7  1  0
 10  9  1  0
 11 12  1  0
 11 10  1  0
 12 13  1  0
 13  9  1  0
 14 16  1  0
 13 14  1  1
 15 14  2  0
 17 16  1  0
 17 23  1  0
 17 18  1  1
 19 18  1  0
 20 19  1  0
 21 20  1  0
 22 21  1  0
 23 24  2  0
 23 25  1  0
M  END
$$$$
