MPK.pdb
     RDKit          3D

 25 25  0  0  1  0  0  0  0  0999 V2000
    7.7751  -11.2914   26.3716 C   0  0  0  0  0  0  0  0  0  0  0  0
    6.5294  -12.1473   27.3397 S   0  0  0  0  0  0  0  0  0  0  0  0
    5.8294  -13.5566   26.4374 C   0  0  0  0  0  0  0  0  0  0  0  0
    6.8946  -14.3121   25.6796 C   0  0  0  0  0  0  0  0  0  0  0  0
    6.1676  -15.3728   24.8362 C   0  0  2  0  0  0  0  0  0  0  0  0
    5.6597  -16.3487   25.8214 N   0  0  0  0  0  0  0  0  0  0  0  0
    7.1195  -16.0365   23.9119 C   0  0  0  0  0  0  0  0  0  0  0  0
    7.3819  -17.2489   24.0911 O   0  0  0  0  0  0  0  0  0  0  0  0
    7.7176  -15.3394   22.8582 N   0  0  0  0  0  0  0  0  0  0  0  0
    7.4370  -13.9288   22.5536 C   0  0  0  0  0  0  0  0  0  0  0  0
    8.1676  -13.6136   21.2874 C   0  0  0  0  0  0  0  0  0  0  0  0
    8.5229  -14.9390   20.6876 C   0  0  0  0  0  0  0  0  0  0  0  0
    8.6929  -15.8299   21.9310 C   0  0  1  0  0  0  0  0  0  0  0  0
   10.0915  -15.5336   22.3997 C   0  0  0  0  0  0  0  0  0  0  0  0
   10.3267  -14.3810   22.8391 O   0  0  0  0  0  0  0  0  0  0  0  0
   11.1283  -16.4672   22.3702 N   0  0  0  0  0  0  0  0  0  0  0  0
   12.2944  -16.4249   23.2756 C   0  0  1  0  0  0  0  0  0  0  0  0
   12.1351  -17.4284   24.3722 C   0  0  0  0  0  0  0  0  0  0  0  0
   11.5256  -18.6977   23.9023 C   0  0  0  0  0  0  0  0  0  0  0  0
   11.5086  -19.7758   24.9669 C   0  0  0  0  0  0  0  0  0  0  0  0
   11.0738  -21.1076   24.3959 C   0  0  0  0  0  0  0  0  0  0  0  0
   11.1931  -22.1812   25.3336 N   0  0  0  0  0  0  0  0  0  0  0  0
   13.4756  -16.6868   22.4393 C   0  0  0  0  0  0  0  0  0  0  0  0
   14.6182  -16.6414   22.9377 O   0  0  0  0  0  0  0  0  0  0  0  0
   13.3545  -16.9860   21.0970 O   0  0  0  0  0  0  0  0  0  0  0  0
  2  1  1  0
  3  2  1  0
  4  3  1  0
  4  5  1  0
  5  6  1  1
  7  5  1  0
  7  8  2  0
  9  7  1  0
 10  9  1  0
 11 12  1  0
 11 10  1  0
 12 13  1  0
 13  9  1  0
 14 16  1  0
 13 14  1  1
 15 14  2  0
 17 16  1  0
 17 23  1  0
 17 18  1  1
 19 18  1  0
 20 19  1  0
 21 20  1  0
 22 21  1  0
 23 24  2  0
 23 25  1  0
M  END
$$$$
