MPK.pdb
     RDKit          3D

 25 25  0  0  1  0  0  0  0  0999 V2000
    3.6385  -16.5713   21.7886 C   0  0  0  0  0  0  0  0  0  0  0  0
    5.1217  -17.4021   22.3643 S   0  0  0  0  0  0  0  0  0  0  0  0
    6.5898  -16.3506   22.1919 C   0  0  0  0  0  0  0  0  0  0  0  0
    6.2129  -14.8985   22.0219 C   0  0  0  0  0  0  0  0  0  0  0  0
    7.5227  -14.0941   22.0708 C   0  0  2  0  0  0  0  0  0  0  0  0
    8.3027  -14.5809   20.9151 N   0  0  0  0  0  0  0  0  0  0  0  0
    8.2542  -14.3778   23.3299 C   0  0  0  0  0  0  0  0  0  0  0  0
    9.2893  -15.0822   23.2757 O   0  0  0  0  0  0  0  0  0  0  0  0
    7.8127  -13.8761   24.5578 N   0  0  0  0  0  0  0  0  0  0  0  0
    6.5393  -13.1629   24.7341 C   0  0  0  0  0  0  0  0  0  0  0  0
    6.5133  -12.6826   26.1500 C   0  0  0  0  0  0  0  0  0  0  0  0
    7.9264  -12.7844   26.6351 C   0  0  0  0  0  0  0  0  0  0  0  0
    8.4685  -13.9768   25.8271 C   0  0  1  0  0  0  0  0  0  0  0  0
    7.9931  -15.1800   26.5950 C   0  0  0  0  0  0  0  0  0  0  0  0
    6.7942  -15.5255   26.4527 O   0  0  0  0  0  0  0  0  0  0  0  0
    8.8107  -15.9224   27.4481 N   0  0  0  0  0  0  0  0  0  0  0  0
    9.2278  -17.3131   27.1778 C   0  0  1  0  0  0  0  0  0  0  0  0
   10.0223  -17.3788   25.9130 C   0  0  0  0  0  0  0  0  0  0  0  0
   10.5243  -18.7453   25.6230 C   0  0  0  0  0  0  0  0  0  0  0  0
   11.3311  -18.8200   24.3426 C   0  0  0  0  0  0  0  0  0  0  0  0
   11.8641  -20.2162   24.1076 C   0  0  0  0  0  0  0  0  0  0  0  0
   12.7841  -20.2843   23.0143 N   0  0  0  0  0  0  0  0  0  0  0  0
   10.0001  -17.7476   28.3517 C   0  0  0  0  0  0  0  0  0  0  0  0
    9.6921  -18.7980   28.9501 O   0  0  0  0  0  0  0  0  0  0  0  0
   11.0732  -17.0150   28.8180 O   0  0  0  0  0  0  0  0  0  0  0  0
  2  1  1  0
  3  2  1  0
  4  3  1  0
  4  5  1  0
  5  6  1  6
  7  5  1  0
  7  8  2  0
  9  7  1  0
 10  9  1  0
 11 12  1  0
 11 10  1  0
 12 13  1  0
 13  9  1  0
 14 16  1  0
 13 14  1  1
 15 14  2  0
 17 16  1  0
 17 23  1  0
 17 18  1  6
 19 18  1  0
 20 19  1  0
 21 20  1  0
 22 21  1  0
 23 24  2  0
 23 25  1  0
M  END
$$$$
