MPK.pdb
     RDKit          3D

 25 25  0  0  1  0  0  0  0  0999 V2000
    7.6365  -11.9649   26.3881 C   0  0  0  0  0  0  0  0  0  0  0  0
    6.9711  -13.3744   27.2783 S   0  0  0  0  0  0  0  0  0  0  0  0
    6.8831  -14.8508   26.2281 C   0  0  0  0  0  0  0  0  0  0  0  0
    5.8341  -14.7023   25.1524 C   0  0  0  0  0  0  0  0  0  0  0  0
    5.6828  -16.0820   24.4902 C   0  0  2  0  0  0  0  0  0  0  0  0
    5.4997  -17.0185   25.6174 N   0  0  0  0  0  0  0  0  0  0  0  0
    6.9136  -16.4301   23.7387 C   0  0  0  0  0  0  0  0  0  0  0  0
    7.3875  -17.5833   23.8663 O   0  0  0  0  0  0  0  0  0  0  0  0
    7.5421  -15.5040   22.9011 N   0  0  0  0  0  0  0  0  0  0  0  0
    7.1969  -14.0754   22.8647 C   0  0  0  0  0  0  0  0  0  0  0  0
    7.9964  -13.4728   21.7539 C   0  0  0  0  0  0  0  0  0  0  0  0
    8.4762  -14.6284   20.9311 C   0  0  0  0  0  0  0  0  0  0  0  0
    8.6107  -15.7474   21.9791 C   0  0  1  0  0  0  0  0  0  0  0  0
    9.9504  -15.4897   22.6134 C   0  0  0  0  0  0  0  0  0  0  0  0
   10.0766  -14.4500   23.3062 O   0  0  0  0  0  0  0  0  0  0  0  0
   11.0473  -16.3406   22.4708 N   0  0  0  0  0  0  0  0  0  0  0  0
   12.2079  -16.3407   23.3841 C   0  0  1  0  0  0  0  0  0  0  0  0
   12.4213  -17.7079   23.9501 C   0  0  0  0  0  0  0  0  0  0  0  0
   11.3730  -18.0922   24.9283 C   0  0  0  0  0  0  0  0  0  0  0  0
   11.5685  -19.4867   25.4878 C   0  0  0  0  0  0  0  0  0  0  0  0
   10.4439  -19.8671   26.4255 C   0  0  0  0  0  0  0  0  0  0  0  0
   10.5989  -21.1774   26.9783 N   0  0  0  0  0  0  0  0  0  0  0  0
   13.3558  -15.8731   22.5923 C   0  0  0  0  0  0  0  0  0  0  0  0
   13.3122  -15.9069   21.3460 O   0  0  0  0  0  0  0  0  0  0  0  0
   14.4984  -15.3901   23.1980 O   0  0  0  0  0  0  0  0  0  0  0  0
  2  1  1  0
  3  2  1  0
  4  3  1  0
  4  5  1  0
  5  6  1  1
  7  5  1  0
  7  8  2  0
  9  7  1  0
 10  9  1  0
 11 12  1  0
 11 10  1  0
 12 13  1  0
 13  9  1  0
 14 16  1  0
 13 14  1  1
 15 14  2  0
 17 16  1  0
 17 23  1  0
 17 18  1  6
 19 18  1  0
 20 19  1  0
 21 20  1  0
 22 21  1  0
 23 24  2  0
 23 25  1  0
M  END
$$$$
