MPK.pdb
     RDKit          3D

 25 25  0  0  1  0  0  0  0  0999 V2000
    5.9236  -11.8563   26.9102 C   0  0  0  0  0  0  0  0  0  0  0  0
    7.4243  -12.8406   26.8887 S   0  0  0  0  0  0  0  0  0  0  0  0
    7.0951  -14.5554   26.3970 C   0  0  0  0  0  0  0  0  0  0  0  0
    6.3811  -14.6223   25.0684 C   0  0  0  0  0  0  0  0  0  0  0  0
    6.2718  -16.1114   24.7007 C   0  0  2  0  0  0  0  0  0  0  0  0
    6.4657  -16.8262   25.9784 N   0  0  0  0  0  0  0  0  0  0  0  0
    7.3428  -16.4855   23.7447 C   0  0  0  0  0  0  0  0  0  0  0  0
    7.8892  -17.6069   23.8659 O   0  0  0  0  0  0  0  0  0  0  0  0
    7.7439  -15.6182   22.7243 N   0  0  0  0  0  0  0  0  0  0  0  0
    7.1444  -14.2949   22.4996 C   0  0  0  0  0  0  0  0  0  0  0  0
    7.7563  -13.7582   21.2451 C   0  0  0  0  0  0  0  0  0  0  0  0
    8.3892  -14.9360   20.5707 C   0  0  0  0  0  0  0  0  0  0  0  0
    8.7842  -15.8266   21.7621 C   0  0  1  0  0  0  0  0  0  0  0  0
   10.0893  -15.2442   22.2320 C   0  0  0  0  0  0  0  0  0  0  0  0
   10.0525  -14.1430   22.8345 O   0  0  0  0  0  0  0  0  0  0  0  0
   11.3250  -15.8614   22.0330 N   0  0  0  0  0  0  0  0  0  0  0  0
   12.2290  -16.2574   23.1317 C   0  0  1  0  0  0  0  0  0  0  0  0
   11.5397  -17.2153   24.0496 C   0  0  0  0  0  0  0  0  0  0  0  0
   12.4685  -17.8468   25.0201 C   0  0  0  0  0  0  0  0  0  0  0  0
   11.7908  -18.8713   25.9072 C   0  0  0  0  0  0  0  0  0  0  0  0
   12.7457  -19.4204   26.9441 C   0  0  0  0  0  0  0  0  0  0  0  0
   12.1215  -20.3405   27.8442 N   0  0  0  0  0  0  0  0  0  0  0  0
   13.4188  -16.8433   22.4959 C   0  0  0  0  0  0  0  0  0  0  0  0
   13.2937  -17.6105   21.5202 O   0  0  0  0  0  0  0  0  0  0  0  0
   14.6905  -16.5645   22.9550 O   0  0  0  0  0  0  0  0  0  0  0  0
  2  1  1  0
  3  2  1  0
  4  3  1  0
  4  5  1  0
  5  6  1  1
  7  5  1  0
  7  8  2  0
  9  7  1  0
 10  9  1  0
 11 12  1  0
 11 10  1  0
 12 13  1  0
 13  9  1  0
 14 16  1  0
 13 14  1  1
 15 14  2  0
 17 16  1  0
 17 23  1  0
 17 18  1  1
 19 18  1  0
 20 19  1  0
 21 20  1  0
 22 21  1  0
 23 24  2  0
 23 25  1  0
M  END
$$$$
