MPK.pdb
     RDKit          3D

 25 25  0  0  1  0  0  0  0  0999 V2000
   10.7778  -13.7219   27.4865 C   0  0  0  0  0  0  0  0  0  0  0  0
   10.5052  -14.8517   28.8543 S   0  0  0  0  0  0  0  0  0  0  0  0
    9.3351  -16.1666   28.4155 C   0  0  0  0  0  0  0  0  0  0  0  0
    8.6997  -15.9147   27.0693 C   0  0  0  0  0  0  0  0  0  0  0  0
    7.7318  -17.0819   26.8129 C   0  0  2  0  0  0  0  0  0  0  0  0
    8.3047  -18.2142   27.5684 N   0  0  0  0  0  0  0  0  0  0  0  0
    7.6910  -17.4085   25.3663 C   0  0  0  0  0  0  0  0  0  0  0  0
    7.9864  -18.5721   25.0063 O   0  0  0  0  0  0  0  0  0  0  0  0
    7.3311  -16.4512   24.4133 N   0  0  0  0  0  0  0  0  0  0  0  0
    7.1699  -15.0219   24.7173 C   0  0  0  0  0  0  0  0  0  0  0  0
    6.6539  -14.3774   23.4706 C   0  0  0  0  0  0  0  0  0  0  0  0
    6.1592  -15.5006   22.6124 C   0  0  0  0  0  0  0  0  0  0  0  0
    7.0870  -16.6598   23.0175 C   0  0  1  0  0  0  0  0  0  0  0  0
    8.3311  -16.4285   22.2037 C   0  0  0  0  0  0  0  0  0  0  0  0
    8.3209  -16.8027   21.0049 O   0  0  0  0  0  0  0  0  0  0  0  0
    9.4828  -15.8251   22.7106 N   0  0  0  0  0  0  0  0  0  0  0  0
   10.7431  -15.6985   21.9512 C   0  0  1  0  0  0  0  0  0  0  0  0
   10.7015  -14.4862   21.0772 C   0  0  0  0  0  0  0  0  0  0  0  0
    9.7012  -14.6012   19.9865 C   0  0  0  0  0  0  0  0  0  0  0  0
    9.6709  -13.3868   19.0809 C   0  0  0  0  0  0  0  0  0  0  0  0
    8.6489  -13.5476   17.9771 C   0  0  0  0  0  0  0  0  0  0  0  0
    8.5969  -12.4206   17.0977 N   0  0  0  0  0  0  0  0  0  0  0  0
   11.8216  -15.6369   22.9493 C   0  0  0  0  0  0  0  0  0  0  0  0
   13.0129  -15.5927   22.5820 O   0  0  0  0  0  0  0  0  0  0  0  0
   11.5494  -15.6265   24.3027 O   0  0  0  0  0  0  0  0  0  0  0  0
  2  1  1  0
  3  2  1  0
  4  3  1  0
  4  5  1  0
  5  6  1  1
  7  5  1  0
  7  8  2  0
  9  7  1  0
 10  9  1  0
 11 12  1  0
 11 10  1  0
 12 13  1  0
 13  9  1  0
 14 16  1  0
 13 14  1  6
 15 14  2  0
 17 16  1  0
 17 23  1  0
 17 18  1  1
 19 18  1  0
 20 19  1  0
 21 20  1  0
 22 21  1  0
 23 24  2  0
 23 25  1  0
M  END
$$$$
