MPK.pdb
     RDKit          3D

 25 25  0  0  1  0  0  0  0  0999 V2000
    6.0898  -11.4721   26.3789 C   0  0  0  0  0  0  0  0  0  0  0  0
    7.4935  -12.5710   26.5874 S   0  0  0  0  0  0  0  0  0  0  0  0
    7.0673  -14.2878   26.1858 C   0  0  0  0  0  0  0  0  0  0  0  0
    6.0672  -14.3596   25.0569 C   0  0  0  0  0  0  0  0  0  0  0  0
    5.8885  -15.8493   24.7198 C   0  0  2  0  0  0  0  0  0  0  0  0
    5.8285  -16.5240   26.0322 N   0  0  0  0  0  0  0  0  0  0  0  0
    7.0546  -16.3462   23.9490 C   0  0  0  0  0  0  0  0  0  0  0  0
    7.4646  -17.5104   24.1665 O   0  0  0  0  0  0  0  0  0  0  0  0
    7.6921  -15.5464   22.9960 N   0  0  0  0  0  0  0  0  0  0  0  0
    7.3606  -14.1324   22.7683 C   0  0  0  0  0  0  0  0  0  0  0  0
    8.1661  -13.6914   21.5881 C   0  0  0  0  0  0  0  0  0  0  0  0
    8.6351  -14.9511   20.9280 C   0  0  0  0  0  0  0  0  0  0  0  0
    8.7586  -15.9211   22.1165 C   0  0  1  0  0  0  0  0  0  0  0  0
   10.1006  -15.5935   22.7127 C   0  0  0  0  0  0  0  0  0  0  0  0
   10.2248  -14.4882   23.2957 O   0  0  0  0  0  0  0  0  0  0  0  0
   11.2015  -16.4488   22.6500 N   0  0  0  0  0  0  0  0  0  0  0  0
   12.3668  -16.3512   23.5520 C   0  0  1  0  0  0  0  0  0  0  0  0
   12.5489  -17.6310   24.3030 C   0  0  0  0  0  0  0  0  0  0  0  0
   11.5262  -17.8239   25.3615 C   0  0  0  0  0  0  0  0  0  0  0  0
   11.5987  -19.1902   26.0126 C   0  0  0  0  0  0  0  0  0  0  0  0
   10.4813  -19.3836   27.0139 C   0  0  0  0  0  0  0  0  0  0  0  0
   10.4427  -20.7067   27.5565 N   0  0  0  0  0  0  0  0  0  0  0  0
   13.5216  -16.0283   22.7004 C   0  0  0  0  0  0  0  0  0  0  0  0
   13.4689  -16.2311   21.4707 O   0  0  0  0  0  0  0  0  0  0  0  0
   14.6809  -15.4989   23.2310 O   0  0  0  0  0  0  0  0  0  0  0  0
  2  1  1  0
  3  2  1  0
  4  3  1  0
  4  5  1  0
  5  6  1  1
  7  5  1  0
  7  8  2  0
  9  7  1  0
 10  9  1  0
 11 12  1  0
 11 10  1  0
 12 13  1  0
 13  9  1  0
 14 16  1  0
 13 14  1  1
 15 14  2  0
 17 16  1  0
 17 23  1  0
 17 18  1  6
 19 18  1  0
 20 19  1  0
 21 20  1  0
 22 21  1  0
 23 24  2  0
 23 25  1  0
M  END
$$$$
