MPK.pdb
     RDKit          3D

 25 25  0  0  1  0  0  0  0  0999 V2000
    9.2716  -12.9944   28.5224 C   0  0  0  0  0  0  0  0  0  0  0  0
    8.0981  -12.6319   27.2136 S   0  0  0  0  0  0  0  0  0  0  0  0
    7.3469  -14.1430   26.5482 C   0  0  0  0  0  0  0  0  0  0  0  0
    6.4485  -13.8425   25.3726 C   0  0  0  0  0  0  0  0  0  0  0  0
    5.8992  -15.1920   24.8807 C   0  0  2  0  0  0  0  0  0  0  0  0
    5.7030  -15.9854   26.1108 N   0  0  0  0  0  0  0  0  0  0  0  0
    6.8887  -15.8605   24.0005 C   0  0  0  0  0  0  0  0  0  0  0  0
    7.1319  -17.0757   24.1871 O   0  0  0  0  0  0  0  0  0  0  0  0
    7.5426  -15.1647   22.9794 N   0  0  0  0  0  0  0  0  0  0  0  0
    7.3878  -13.7207   22.7512 C   0  0  0  0  0  0  0  0  0  0  0  0
    8.1387  -13.4054   21.4971 C   0  0  0  0  0  0  0  0  0  0  0  0
    8.3721  -14.7237   20.8260 C   0  0  0  0  0  0  0  0  0  0  0  0
    8.4667  -15.6905   22.0197 C   0  0  1  0  0  0  0  0  0  0  0  0
    9.8879  -15.5448   22.4913 C   0  0  0  0  0  0  0  0  0  0  0  0
   10.1959  -14.4876   23.0950 O   0  0  0  0  0  0  0  0  0  0  0  0
   10.8694  -16.5167   22.2927 N   0  0  0  0  0  0  0  0  0  0  0  0
   12.0683  -16.6557   23.1439 C   0  0  1  0  0  0  0  0  0  0  0  0
   12.0412  -17.9641   23.8669 C   0  0  0  0  0  0  0  0  0  0  0  0
   11.3137  -17.8890   25.1586 C   0  0  0  0  0  0  0  0  0  0  0  0
   11.2190  -19.2271   25.8631 C   0  0  0  0  0  0  0  0  0  0  0  0
   10.6500  -19.0773   27.2568 C   0  0  0  0  0  0  0  0  0  0  0  0
   10.5644  -20.3201   27.9600 N   0  0  0  0  0  0  0  0  0  0  0  0
   13.2275  -16.5314   22.2471 C   0  0  0  0  0  0  0  0  0  0  0  0
   13.1210  -16.8313   21.0409 O   0  0  0  0  0  0  0  0  0  0  0  0
   14.4496  -16.0854   22.7089 O   0  0  0  0  0  0  0  0  0  0  0  0
  2  1  1  0
  3  2  1  0
  4  3  1  0
  4  5  1  0
  5  6  1  1
  7  5  1  0
  7  8  2  0
  9  7  1  0
 10  9  1  0
 11 12  1  0
 11 10  1  0
 12 13  1  0
 13  9  1  0
 14 16  1  0
 13 14  1  1
 15 14  2  0
 17 16  1  0
 17 23  1  0
 17 18  1  6
 19 18  1  0
 20 19  1  0
 21 20  1  0
 22 21  1  0
 23 24  2  0
 23 25  1  0
M  END
$$$$
