VDY.pdb
     RDKit          3D

 28 28  0  0  1  0  0  0  0  0999 V2000
   20.0617  -14.8776  -20.7227 C   0  0  0  0  0  0  0  0  0  0  0  0
   20.8880  -15.6441  -19.7411 C   0  0  1  0  0  0  0  0  0  0  0  0
   22.3164  -15.8175  -20.2295 C   0  0  0  0  0  0  0  0  0  0  0  0
   20.9776  -14.9468  -18.3774 C   0  0  2  0  0  0  0  0  0  0  0  0
   19.6523  -14.9882  -17.8225 N   0  0  0  0  0  0  0  0  0  0  0  0
   21.4004  -13.5383  -18.6092 C   0  0  0  0  0  0  0  0  0  0  0  0
   22.5457  -13.2426  -18.9957 O   0  0  0  0  0  0  0  0  0  0  0  0
   20.4815  -12.4697  -18.3887 N   0  0  0  0  0  0  0  0  0  0  0  0
   20.8805  -11.0743  -18.6279 C   0  0  1  0  0  0  0  0  0  0  0  0
   19.7601  -10.4962  -19.5059 C   0  0  0  0  0  0  0  0  0  0  0  0
   20.0229  -10.8171  -20.9141 C   0  0  0  0  0  0  0  0  0  0  0  0
   21.1498  -10.6122  -21.4479 O   0  0  0  0  0  0  0  0  0  0  0  0
   20.8155  -10.3426  -17.3458 C   0  0  0  0  0  0  0  0  0  0  0  0
   19.8477  -10.6100  -16.5822 O   0  0  0  0  0  0  0  0  0  0  0  0
   19.0427  -11.3635  -21.7331 O   0  0  0  0  0  0  0  0  0  0  0  0
   22.1444   -2.6518  -13.5600 O   0  0  0  0  0  0  0  0  0  0  0  0
   22.3223   -3.9668  -13.9702 C   0  0  0  0  0  0  0  0  0  0  0  0
   22.1917   -5.0350  -13.1077 C   0  0  0  0  0  0  0  0  0  0  0  0
   22.3692   -6.3221  -13.5241 C   0  0  0  0  0  0  0  0  0  0  0  0
   22.6882   -6.5364  -14.8514 C   0  0  0  0  0  0  0  0  0  0  0  0
   22.9066   -7.8908  -15.4088 C   0  0  0  0  0  0  0  0  0  0  0  0
   21.6464   -8.6675  -15.6556 C   0  0  2  0  0  0  0  0  0  0  0  0
   21.7402   -9.3797  -16.9137 N   0  0  0  0  0  0  0  0  0  0  0  0
   20.4194   -7.8453  -15.6581 C   0  0  0  0  0  0  0  0  0  0  0  0
   20.0313   -7.2891  -16.7138 O   0  0  0  0  0  0  0  0  0  0  0  0
   22.8207   -5.4717  -15.7187 C   0  0  0  0  0  0  0  0  0  0  0  0
   22.6410   -4.1711  -15.2979 C   0  0  0  0  0  0  0  0  0  0  0  0
   19.6240   -7.6293  -14.5356 O   0  0  0  0  0  0  0  0  0  0  0  0
  2  1  1  6
  2  4  1  0
  3  2  1  0
  4  5  1  6
  6  4  1  0
  7  6  2  0
  8  6  1  0
  9 13  1  0
  9  8  1  0
  9 10  1  6
 11 10  1  0
 12 11  2  0
 13 23  1  0
 14 13  2  0
 15 11  1  0
 17 18  2  0
 17 16  1  0
 19 18  1  0
 20 19  2  0
 22 21  1  6
 21 20  1  0
 22 24  1  0
 23 22  1  0
 24 25  2  0
 24 28  1  0
 26 20  1  0
 26 27  2  0
 27 17  1  0
M  END
$$$$
