VDY.pdb
     RDKit          3D

 28 28  0  0  1  0  0  0  0  0999 V2000
   24.7538  -14.2097  -14.7635 C   0  0  0  0  0  0  0  0  0  0  0  0
   23.8319  -13.1880  -15.3466 C   0  0  1  0  0  0  0  0  0  0  0  0
   24.5237  -12.3573  -16.4144 C   0  0  0  0  0  0  0  0  0  0  0  0
   22.6036  -13.8185  -16.0157 C   0  0  2  0  0  0  0  0  0  0  0  0
   23.1120  -14.6745  -17.0525 N   0  0  0  0  0  0  0  0  0  0  0  0
   21.7863  -12.7209  -16.6020 C   0  0  0  0  0  0  0  0  0  0  0  0
   21.9136  -12.3558  -17.7848 O   0  0  0  0  0  0  0  0  0  0  0  0
   20.8158  -12.0463  -15.8034 N   0  0  0  0  0  0  0  0  0  0  0  0
   19.9701  -10.9905  -16.3811 C   0  0  1  0  0  0  0  0  0  0  0  0
   18.5506  -11.3229  -15.8964 C   0  0  0  0  0  0  0  0  0  0  0  0
   17.6069  -10.3249  -16.4149 C   0  0  0  0  0  0  0  0  0  0  0  0
   17.7473   -9.8012  -17.5564 O   0  0  0  0  0  0  0  0  0  0  0  0
   20.3289   -9.7045  -15.7479 C   0  0  0  0  0  0  0  0  0  0  0  0
   20.6418   -9.7354  -14.5262 O   0  0  0  0  0  0  0  0  0  0  0  0
   16.5093   -9.9047  -15.6742 O   0  0  0  0  0  0  0  0  0  0  0  0
   22.1281   -1.1052  -14.7599 O   0  0  0  0  0  0  0  0  0  0  0  0
   21.9380   -2.3835  -15.2690 C   0  0  0  0  0  0  0  0  0  0  0  0
   21.1521   -2.6300  -16.3750 C   0  0  0  0  0  0  0  0  0  0  0  0
   20.9739   -3.8910  -16.8647 C   0  0  0  0  0  0  0  0  0  0  0  0
   21.6087   -4.9339  -16.2177 C   0  0  0  0  0  0  0  0  0  0  0  0
   21.4814   -6.3410  -16.6612 C   0  0  0  0  0  0  0  0  0  0  0  0
   20.6715   -7.2074  -15.7416 C   0  0  2  0  0  0  0  0  0  0  0  0
   20.3489   -8.4596  -16.3949 N   0  0  0  0  0  0  0  0  0  0  0  0
   19.4239   -6.5796  -15.2611 C   0  0  0  0  0  0  0  0  0  0  0  0
   18.3553   -6.7205  -15.9035 O   0  0  0  0  0  0  0  0  0  0  0  0
   22.3959   -4.6934  -15.1105 C   0  0  0  0  0  0  0  0  0  0  0  0
   22.5761   -3.4191  -14.6158 C   0  0  0  0  0  0  0  0  0  0  0  0
   19.3340   -5.8119  -14.1027 O   0  0  0  0  0  0  0  0  0  0  0  0
  2  1  1  6
  2  4  1  0
  3  2  1  0
  4  5  1  6
  6  4  1  0
  7  6  2  0
  8  6  1  0
  9 13  1  0
  9  8  1  0
  9 10  1  1
 11 10  1  0
 12 11  2  0
 13 23  1  0
 14 13  2  0
 15 11  1  0
 17 18  2  0
 17 16  1  0
 19 18  1  0
 20 19  2  0
 22 21  1  6
 21 20  1  0
 22 24  1  0
 23 22  1  0
 24 25  2  0
 24 28  1  0
 26 20  1  0
 26 27  2  0
 27 17  1  0
M  END
$$$$
