VDY.pdb
     RDKit          3D

 28 28  0  0  1  0  0  0  0  0999 V2000
   18.6558  -19.8685  -17.1369 C   0  0  0  0  0  0  0  0  0  0  0  0
   18.2926  -21.2722  -16.7741 C   0  0  1  0  0  0  0  0  0  0  0  0
   19.0335  -22.2806  -17.6361 C   0  0  0  0  0  0  0  0  0  0  0  0
   18.6369  -21.6105  -15.3178 C   0  0  2  0  0  0  0  0  0  0  0  0
   19.9999  -21.1965  -15.1256 N   0  0  0  0  0  0  0  0  0  0  0  0
   18.5124  -23.0843  -15.1474 C   0  0  0  0  0  0  0  0  0  0  0  0
   17.4619  -23.6978  -15.4097 O   0  0  0  0  0  0  0  0  0  0  0  0
   19.6196  -23.8455  -14.6683 N   0  0  0  0  0  0  0  0  0  0  0  0
   19.4528  -25.2564  -14.2874 C   0  0  1  0  0  0  0  0  0  0  0  0
   20.7512  -25.9375  -14.7465 C   0  0  0  0  0  0  0  0  0  0  0  0
   20.6971  -26.1757  -16.1941 C   0  0  0  0  0  0  0  0  0  0  0  0
   19.6179  -26.4647  -16.7846 O   0  0  0  0  0  0  0  0  0  0  0  0
   19.4426  -25.3449  -12.8125 C   0  0  0  0  0  0  0  0  0  0  0  0
   20.2165  -24.5697  -12.1869 O   0  0  0  0  0  0  0  0  0  0  0  0
   21.8332  -26.0955  -16.9896 O   0  0  0  0  0  0  0  0  0  0  0  0
   17.1955  -24.9354   -4.5392 O   0  0  0  0  0  0  0  0  0  0  0  0
   17.3679  -24.9556   -5.9173 C   0  0  0  0  0  0  0  0  0  0  0  0
   16.3664  -25.3432   -6.7826 C   0  0  0  0  0  0  0  0  0  0  0  0
   16.5493  -25.3582   -8.1346 C   0  0  0  0  0  0  0  0  0  0  0  0
   17.7807  -24.9701   -8.6269 C   0  0  0  0  0  0  0  0  0  0  0  0
   18.0891  -24.9524  -10.0752 C   0  0  0  0  0  0  0  0  0  0  0  0
   18.6181  -26.2511  -10.6098 C   0  0  2  0  0  0  0  0  0  0  0  0
   18.6447  -26.2182  -12.0580 N   0  0  0  0  0  0  0  0  0  0  0  0
   17.8610  -27.4403  -10.1691 C   0  0  0  0  0  0  0  0  0  0  0  0
   18.0902  -27.9586   -9.0496 O   0  0  0  0  0  0  0  0  0  0  0  0
   18.7864  -24.5817   -7.7662 C   0  0  0  0  0  0  0  0  0  0  0  0
   18.6015  -24.5664   -6.3999 C   0  0  0  0  0  0  0  0  0  0  0  0
   16.8703  -28.0584  -10.9278 O   0  0  0  0  0  0  0  0  0  0  0  0
  2  1  1  6
  2  4  1  0
  3  2  1  0
  4  5  1  6
  6  4  1  0
  7  6  2  0
  8  6  1  0
  9 13  1  0
  9  8  1  0
  9 10  1  6
 11 10  1  0
 12 11  2  0
 13 23  1  0
 14 13  2  0
 15 11  1  0
 17 18  2  0
 17 16  1  0
 19 18  1  0
 20 19  2  0
 22 21  1  6
 21 20  1  0
 22 24  1  0
 23 22  1  0
 24 25  2  0
 24 28  1  0
 26 20  1  0
 26 27  2  0
 27 17  1  0
M  END
$$$$
