VDY.pdb
     RDKit          3D

 28 28  0  0  1  0  0  0  0  0999 V2000
   17.9964  -13.5345  -16.7814 C   0  0  0  0  0  0  0  0  0  0  0  0
   18.5548  -14.8428  -16.3225 C   0  0  1  0  0  0  0  0  0  0  0  0
   17.6086  -15.9915  -16.6294 C   0  0  0  0  0  0  0  0  0  0  0  0
   19.8867  -15.1843  -17.0033 C   0  0  2  0  0  0  0  0  0  0  0  0
   20.3362  -16.4107  -16.4034 N   0  0  0  0  0  0  0  0  0  0  0  0
   20.8453  -14.0824  -16.7146 C   0  0  0  0  0  0  0  0  0  0  0  0
   21.3260  -13.8988  -15.5815 O   0  0  0  0  0  0  0  0  0  0  0  0
   21.2448  -13.1906  -17.7538 N   0  0  0  0  0  0  0  0  0  0  0  0
   22.1634  -12.0760  -17.4755 C   0  0  1  0  0  0  0  0  0  0  0  0
   23.1058  -12.0388  -18.6883 C   0  0  0  0  0  0  0  0  0  0  0  0
   24.2245  -12.9644  -18.4712 C   0  0  0  0  0  0  0  0  0  0  0  0
   24.8012  -13.0656  -17.3513 O   0  0  0  0  0  0  0  0  0  0  0  0
   21.3944  -10.8149  -17.5149 C   0  0  0  0  0  0  0  0  0  0  0  0
   20.5833  -10.6683  -18.4699 O   0  0  0  0  0  0  0  0  0  0  0  0
   24.7068  -13.7774  -19.4891 O   0  0  0  0  0  0  0  0  0  0  0  0
   17.2640   -3.3572  -15.4404 O   0  0  0  0  0  0  0  0  0  0  0  0
   17.8668   -4.6074  -15.4928 C   0  0  0  0  0  0  0  0  0  0  0  0
   17.2715   -5.6908  -16.1042 C   0  0  0  0  0  0  0  0  0  0  0  0
   17.8751   -6.9136  -16.1484 C   0  0  0  0  0  0  0  0  0  0  0  0
   19.1170   -7.0458  -15.5574 C   0  0  0  0  0  0  0  0  0  0  0  0
   19.8594   -8.3270  -15.5434 C   0  0  0  0  0  0  0  0  0  0  0  0
   20.8049   -8.5054  -16.6951 C   0  0  2  0  0  0  0  0  0  0  0  0
   21.4951   -9.7740  -16.5794 N   0  0  0  0  0  0  0  0  0  0  0  0
   21.8029   -7.4251  -16.8319 C   0  0  0  0  0  0  0  0  0  0  0  0
   21.4693   -6.3096  -17.2995 O   0  0  0  0  0  0  0  0  0  0  0  0
   19.7173   -5.9657  -14.9439 C   0  0  0  0  0  0  0  0  0  0  0  0
   19.1074   -4.7300  -14.8994 C   0  0  0  0  0  0  0  0  0  0  0  0
   23.1410   -7.5500  -16.4671 O   0  0  0  0  0  0  0  0  0  0  0  0
  2  1  1  6
  2  4  1  0
  3  2  1  0
  4  5  1  1
  6  4  1  0
  7  6  2  0
  8  6  1  0
  9 13  1  0
  9  8  1  0
  9 10  1  6
 11 10  1  0
 12 11  2  0
 13 23  1  0
 14 13  2  0
 15 11  1  0
 17 18  2  0
 17 16  1  0
 19 18  1  0
 20 19  2  0
 22 21  1  1
 21 20  1  0
 22 24  1  0
 23 22  1  0
 24 25  2  0
 24 28  1  0
 26 20  1  0
 26 27  2  0
 27 17  1  0
M  END
$$$$
