VDY.pdb
     RDKit          3D

 28 28  0  0  1  0  0  0  0  0999 V2000
   24.9187  -15.8334  -17.2771 C   0  0  0  0  0  0  0  0  0  0  0  0
   24.4831  -17.1262  -16.6667 C   0  0  1  0  0  0  0  0  0  0  0  0
   24.8842  -18.3125  -17.5274 C   0  0  0  0  0  0  0  0  0  0  0  0
   25.1060  -17.3628  -15.2847 C   0  0  2  0  0  0  0  0  0  0  0  0
   26.5294  -17.3069  -15.4759 N   0  0  0  0  0  0  0  0  0  0  0  0
   24.6963  -18.7175  -14.8226 C   0  0  0  0  0  0  0  0  0  0  0  0
   23.5038  -19.0297  -14.6520 O   0  0  0  0  0  0  0  0  0  0  0  0
   25.6837  -19.7125  -14.5584 N   0  0  0  0  0  0  0  0  0  0  0  0
   25.3041  -21.0160  -13.9924 C   0  0  1  0  0  0  0  0  0  0  0  0
   26.0009  -22.0471  -14.8935 C   0  0  0  0  0  0  0  0  0  0  0  0
   27.3430  -21.5669  -15.2446 C   0  0  0  0  0  0  0  0  0  0  0  0
   27.5202  -20.5574  -15.9839 O   0  0  0  0  0  0  0  0  0  0  0  0
   25.9288  -21.1475  -12.6599 C   0  0  0  0  0  0  0  0  0  0  0  0
   27.1884  -21.1002  -12.6107 O   0  0  0  0  0  0  0  0  0  0  0  0
   28.4891  -22.2004  -14.7807 O   0  0  0  0  0  0  0  0  0  0  0  0
   29.1796  -19.6796   -4.9745 O   0  0  0  0  0  0  0  0  0  0  0  0
   28.5735  -19.7683   -6.2211 C   0  0  0  0  0  0  0  0  0  0  0  0
   27.5574  -18.9217   -6.6116 C   0  0  0  0  0  0  0  0  0  0  0  0
   26.9706  -19.0199   -7.8395 C   0  0  0  0  0  0  0  0  0  0  0  0
   27.4241  -20.0028   -8.6983 C   0  0  0  0  0  0  0  0  0  0  0  0
   26.8565  -20.2009  -10.0516 C   0  0  0  0  0  0  0  0  0  0  0  0
   25.8619  -21.3208  -10.1462 C   0  0  2  0  0  0  0  0  0  0  0  0
   25.2352  -21.3197  -11.4524 N   0  0  0  0  0  0  0  0  0  0  0  0
   24.8116  -21.2868   -9.1083 C   0  0  0  0  0  0  0  0  0  0  0  0
   23.7533  -20.6401   -9.2985 O   0  0  0  0  0  0  0  0  0  0  0  0
   28.4400  -20.8529   -8.3131 C   0  0  0  0  0  0  0  0  0  0  0  0
   29.0330  -20.7535   -7.0723 C   0  0  0  0  0  0  0  0  0  0  0  0
   24.9048  -21.9433   -7.8837 O   0  0  0  0  0  0  0  0  0  0  0  0
  2  1  1  6
  2  4  1  0
  3  2  1  0
  4  5  1  6
  6  4  1  0
  7  6  2  0
  8  6  1  0
  9 13  1  0
  9  8  1  0
  9 10  1  6
 11 10  1  0
 12 11  2  0
 13 23  1  0
 14 13  2  0
 15 11  1  0
 17 18  2  0
 17 16  1  0
 19 18  1  0
 20 19  2  0
 22 21  1  6
 21 20  1  0
 22 24  1  0
 23 22  1  0
 24 25  2  0
 24 28  1  0
 26 20  1  0
 26 27  2  0
 27 17  1  0
M  END
$$$$
