VDY.pdb
     RDKit          3D

 28 28  0  0  1  0  0  0  0  0999 V2000
   25.8882  -11.7791  -18.9820 C   0  0  0  0  0  0  0  0  0  0  0  0
   26.3332  -12.2886  -20.3148 C   0  0  1  0  0  0  0  0  0  0  0  0
   27.2496  -11.2978  -21.0131 C   0  0  0  0  0  0  0  0  0  0  0  0
   27.1162  -13.6038  -20.2095 C   0  0  2  0  0  0  0  0  0  0  0  0
   26.2354  -14.5398  -19.5661 N   0  0  0  0  0  0  0  0  0  0  0  0
   28.3176  -13.3562  -19.3657 C   0  0  0  0  0  0  0  0  0  0  0  0
   28.3022  -13.4955  -18.1292 O   0  0  0  0  0  0  0  0  0  0  0  0
   29.5429  -12.9438  -19.9686 N   0  0  0  0  0  0  0  0  0  0  0  0
   30.7756  -12.8435  -19.1722 C   0  0  1  0  0  0  0  0  0  0  0  0
   31.8109  -13.6643  -19.9563 C   0  0  0  0  0  0  0  0  0  0  0  0
   33.0411  -13.7902  -19.1650 C   0  0  0  0  0  0  0  0  0  0  0  0
   33.1562  -13.2681  -18.0199 O   0  0  0  0  0  0  0  0  0  0  0  0
   31.2463  -11.4435  -19.2129 C   0  0  0  0  0  0  0  0  0  0  0  0
   31.1954  -10.8543  -20.3271 O   0  0  0  0  0  0  0  0  0  0  0  0
   34.1437  -14.4912  -19.6370 O   0  0  0  0  0  0  0  0  0  0  0  0
   26.2019   -7.4973  -19.5367 O   0  0  0  0  0  0  0  0  0  0  0  0
   27.4294   -7.7844  -18.9536 C   0  0  0  0  0  0  0  0  0  0  0  0
   27.5833   -8.7687  -18.0000 C   0  0  0  0  0  0  0  0  0  0  0  0
   28.7953   -9.0405  -17.4353 C   0  0  0  0  0  0  0  0  0  0  0  0
   29.8841   -8.2957  -17.8464 C   0  0  0  0  0  0  0  0  0  0  0  0
   31.2436   -8.5037  -17.2974 C   0  0  0  0  0  0  0  0  0  0  0  0
   32.1419   -9.3309  -18.1698 C   0  0  2  0  0  0  0  0  0  0  0  0
   31.7425  -10.7225  -18.1162 N   0  0  0  0  0  0  0  0  0  0  0  0
   33.5760   -9.2283  -17.8315 C   0  0  0  0  0  0  0  0  0  0  0  0
   34.1706  -10.1927  -17.2921 O   0  0  0  0  0  0  0  0  0  0  0  0
   29.7362   -7.3095  -18.7997 C   0  0  0  0  0  0  0  0  0  0  0  0
   28.5115   -7.0350  -19.3704 C   0  0  0  0  0  0  0  0  0  0  0  0
   34.3549   -8.0998  -18.0743 O   0  0  0  0  0  0  0  0  0  0  0  0
  2  1  1  1
  2  4  1  0
  3  2  1  0
  4  5  1  1
  6  4  1  0
  7  6  2  0
  8  6  1  0
  9 13  1  0
  9  8  1  0
  9 10  1  6
 11 10  1  0
 12 11  2  0
 13 23  1  0
 14 13  2  0
 15 11  1  0
 17 18  2  0
 17 16  1  0
 19 18  1  0
 20 19  2  0
 22 21  1  1
 21 20  1  0
 22 24  1  0
 23 22  1  0
 24 25  2  0
 24 28  1  0
 26 20  1  0
 26 27  2  0
 27 17  1  0
M  END
$$$$
