VDY.pdb
     RDKit          3D

 28 28  0  0  1  0  0  0  0  0999 V2000
   31.4910  -33.0094   -5.7498 C   0  0  0  0  0  0  0  0  0  0  0  0
   31.4945  -34.4209   -6.2412 C   0  0  1  0  0  0  0  0  0  0  0  0
   32.7899  -35.1317   -5.8868 C   0  0  0  0  0  0  0  0  0  0  0  0
   30.3607  -35.2572   -5.6337 C   0  0  2  0  0  0  0  0  0  0  0  0
   29.1367  -34.6337   -6.0570 N   0  0  0  0  0  0  0  0  0  0  0  0
   30.4894  -35.1970   -4.1517 C   0  0  0  0  0  0  0  0  0  0  0  0
   29.5987  -34.7193   -3.4256 O   0  0  0  0  0  0  0  0  0  0  0  0
   31.6636  -35.6968   -3.5144 N   0  0  0  0  0  0  0  0  0  0  0  0
   31.7944  -35.6659   -2.0496 C   0  0  1  0  0  0  0  0  0  0  0  0
   30.7373  -36.6603   -1.5454 C   0  0  0  0  0  0  0  0  0  0  0  0
   30.6068  -36.5433   -0.0878 C   0  0  0  0  0  0  0  0  0  0  0  0
   30.8100  -35.4523    0.5166 O   0  0  0  0  0  0  0  0  0  0  0  0
   33.1055  -36.2410   -1.6845 C   0  0  0  0  0  0  0  0  0  0  0  0
   33.8002  -36.7229   -2.6208 O   0  0  0  0  0  0  0  0  0  0  0  0
   30.2527  -37.6296    0.7025 O   0  0  0  0  0  0  0  0  0  0  0  0
   40.2241  -37.4500   -3.6822 O   0  0  0  0  0  0  0  0  0  0  0  0
   39.1081  -36.9599   -3.0160 C   0  0  0  0  0  0  0  0  0  0  0  0
   37.8439  -36.9945   -3.5659 C   0  0  0  0  0  0  0  0  0  0  0  0
   36.7561  -36.5095   -2.9004 C   0  0  0  0  0  0  0  0  0  0  0  0
   36.9514  -35.9737   -1.6418 C   0  0  0  0  0  0  0  0  0  0  0  0
   35.8430  -35.4162   -0.8333 C   0  0  0  0  0  0  0  0  0  0  0  0
   35.0447  -36.4450   -0.0873 C   0  0  2  0  0  0  0  0  0  0  0  0
   33.6353  -36.2929   -0.3863 N   0  0  0  0  0  0  0  0  0  0  0  0
   35.2325  -36.4115    1.3773 C   0  0  0  0  0  0  0  0  0  0  0  0
   34.4304  -35.7777    2.1049 O   0  0  0  0  0  0  0  0  0  0  0  0
   38.2138  -35.9360   -1.0867 C   0  0  0  0  0  0  0  0  0  0  0  0
   39.3131  -36.4263   -1.7593 C   0  0  0  0  0  0  0  0  0  0  0  0
   36.2718  -37.0550    2.0444 O   0  0  0  0  0  0  0  0  0  0  0  0
  2  1  1  1
  2  4  1  0
  3  2  1  0
  4  5  1  1
  6  4  1  0
  7  6  2  0
  8  6  1  0
  9 13  1  0
  9  8  1  0
  9 10  1  1
 11 10  1  0
 12 11  2  0
 13 23  1  0
 14 13  2  0
 15 11  1  0
 17 18  2  0
 17 16  1  0
 19 18  1  0
 20 19  2  0
 22 21  1  6
 21 20  1  0
 22 24  1  0
 23 22  1  0
 24 25  2  0
 24 28  1  0
 26 20  1  0
 26 27  2  0
 27 17  1  0
M  END
$$$$
