ALL.pdb
     RDKit          3D

 22 21  0  0  1  0  0  0  0  0999 V2000
   28.6920  -22.0369  -14.2658 C   0  0  0  0  0  0  0  0  0  0  0  0
   27.4009  -21.6704  -14.9509 C   0  0  2  0  0  0  0  0  0  0  0  0
   27.6701  -21.1422  -16.2792 N   0  0  0  0  0  0  0  0  0  0  0  0
   26.6222  -20.7267  -14.1334 C   0  0  0  0  0  0  0  0  0  0  0  0
   26.9333  -19.5095  -14.1864 O   0  0  0  0  0  0  0  0  0  0  0  0
   21.5530  -20.3643  -14.6854 C   0  0  0  0  0  0  0  0  0  0  0  0
   23.0077  -20.0564  -14.4162 C   0  0  1  0  0  0  0  0  0  0  0  0
   23.1799  -18.5544  -14.6977 C   0  0  0  0  0  0  0  0  0  0  0  0
   23.2915  -20.2614  -12.9547 C   0  0  0  0  0  0  0  0  0  0  0  0
   24.7450  -20.1244  -12.5917 C   0  0  2  0  0  0  0  0  0  0  0  0
   25.5492  -21.1181  -13.2987 N   0  0  0  0  0  0  0  0  0  0  0  0
   24.9796  -20.3123  -11.1399 C   0  0  0  0  0  0  0  0  0  0  0  0
   24.4983  -19.4479  -10.3579 O   0  0  0  0  0  0  0  0  0  0  0  0
   28.4925  -20.6902   -6.9683 C   0  0  0  0  0  0  0  0  0  0  0  0
   27.3548  -19.9145   -7.5309 C   0  0  1  0  0  0  0  0  0  0  0  0
   27.6065  -18.4120   -7.3524 C   0  0  0  0  0  0  0  0  0  0  0  0
   26.8791  -20.2529   -8.8709 C   0  0  0  0  0  0  0  0  0  0  0  0
   26.0284  -21.4242   -9.1446 C   0  0  2  0  0  0  0  0  0  0  0  0
   25.7004  -21.3906  -10.6068 N   0  0  0  0  0  0  0  0  0  0  0  0
   24.7259  -21.5283   -8.4847 C   0  0  0  0  0  0  0  0  0  0  0  0
   24.6192  -21.8208   -7.2698 O   0  0  0  0  0  0  0  0  0  0  0  0
   23.5380  -21.3033   -9.1892 O   0  0  0  0  0  0  0  0  0  0  0  0
  2  1  1  1
  2  3  1  0
  4  2  1  0
  4  5  2  0
  7  6  1  1
  7  8  1  0
  7  9  1  0
 10  9  1  1
 10 11  1  0
 10 12  1  0
 11  4  1  0
 12 13  2  0
 12 19  1  0
 15 14  1  6
 15 16  1  0
 17 15  1  0
 18 17  1  1
 19 18  1  0
 20 22  1  0
 20 18  1  0
 21 20  2  0
M  END
$$$$
