ALL.pdb
     RDKit          3D

 22 21  0  0  1  0  0  0  0  0999 V2000
   24.5107  -22.3171  -17.6186 C   0  0  0  0  0  0  0  0  0  0  0  0
   23.3840  -21.3187  -17.6845 C   0  0  2  0  0  0  0  0  0  0  0  0
   23.1843  -20.8774  -19.0561 N   0  0  0  0  0  0  0  0  0  0  0  0
   23.6304  -20.1881  -16.7755 C   0  0  0  0  0  0  0  0  0  0  0  0
   23.6703  -20.4257  -15.5414 O   0  0  0  0  0  0  0  0  0  0  0  0
   26.5179  -16.0870  -14.7347 C   0  0  0  0  0  0  0  0  0  0  0  0
   25.4367  -15.7566  -15.7374 C   0  0  1  0  0  0  0  0  0  0  0  0
   26.0080  -14.6333  -16.6187 C   0  0  0  0  0  0  0  0  0  0  0  0
   25.2165  -16.9436  -16.6323 C   0  0  0  0  0  0  0  0  0  0  0  0
   24.0132  -17.7683  -16.2646 C   0  0  2  0  0  0  0  0  0  0  0  0
   23.8239  -18.8586  -17.2182 N   0  0  0  0  0  0  0  0  0  0  0  0
   22.7668  -16.9655  -16.2522 C   0  0  0  0  0  0  0  0  0  0  0  0
   22.6578  -16.0771  -15.3638 O   0  0  0  0  0  0  0  0  0  0  0  0
   20.6969  -14.5570  -20.5451 C   0  0  0  0  0  0  0  0  0  0  0  0
   21.0262  -14.8807  -19.1311 C   0  0  1  0  0  0  0  0  0  0  0  0
   21.2653  -13.5884  -18.3403 C   0  0  0  0  0  0  0  0  0  0  0  0
   20.1725  -15.8297  -18.4192 C   0  0  0  0  0  0  0  0  0  0  0  0
   20.4777  -16.3176  -17.0631 C   0  0  2  0  0  0  0  0  0  0  0  0
   21.7217  -17.1469  -17.1695 N   0  0  0  0  0  0  0  0  0  0  0  0
   19.5174  -17.1921  -16.3879 C   0  0  0  0  0  0  0  0  0  0  0  0
   18.4055  -16.7725  -15.9873 O   0  0  0  0  0  0  0  0  0  0  0  0
   19.8043  -18.5428  -16.1609 O   0  0  0  0  0  0  0  0  0  0  0  0
  2  1  1  6
  2  3  1  0
  4  2  1  0
  4  5  2  0
  7  6  1  1
  7  8  1  0
  7  9  1  0
 10  9  1  6
 10 11  1  0
 10 12  1  0
 11  4  1  0
 12 13  2  0
 12 19  1  0
 15 14  1  6
 15 16  1  0
 17 15  1  0
 18 17  1  6
 19 18  1  0
 20 22  1  0
 20 18  1  0
 21 20  2  0
M  END
$$$$
