ALL.pdb
     RDKit          3D

 22 21  0  0  1  0  0  0  0  0999 V2000
   26.4949  -18.9592  -11.6052 C   0  0  0  0  0  0  0  0  0  0  0  0
   27.6838  -19.7199  -12.1328 C   0  0  2  0  0  0  0  0  0  0  0  0
   27.4188  -20.1914  -13.4831 N   0  0  0  0  0  0  0  0  0  0  0  0
   28.0451  -20.8229  -11.2283 C   0  0  0  0  0  0  0  0  0  0  0  0
   27.4592  -21.9245  -11.3835 O   0  0  0  0  0  0  0  0  0  0  0  0
   32.2857  -20.8702   -7.1034 C   0  0  0  0  0  0  0  0  0  0  0  0
   30.8371  -20.9416   -7.5277 C   0  0  1  0  0  0  0  0  0  0  0  0
   30.4207  -19.4968   -7.8505 C   0  0  0  0  0  0  0  0  0  0  0  0
   30.7377  -21.7205   -8.8090 C   0  0  0  0  0  0  0  0  0  0  0  0
   29.3358  -21.8407   -9.3412 C   0  0  2  0  0  0  0  0  0  0  0  0
   29.0116  -20.7059  -10.2020 N   0  0  0  0  0  0  0  0  0  0  0  0
   28.3264  -21.8796   -8.2559 C   0  0  0  0  0  0  0  0  0  0  0  0
   28.3423  -22.8771   -7.4845 O   0  0  0  0  0  0  0  0  0  0  0  0
   27.7366  -18.5759   -4.5137 C   0  0  0  0  0  0  0  0  0  0  0  0
   27.8459  -19.5453   -5.6367 C   0  0  1  0  0  0  0  0  0  0  0  0
   29.2815  -20.0770   -5.7314 C   0  0  0  0  0  0  0  0  0  0  0  0
   26.8429  -20.6033   -5.7405 C   0  0  0  0  0  0  0  0  0  0  0  0
   26.2922  -21.0587   -7.0288 C   0  0  2  0  0  0  0  0  0  0  0  0
   27.3713  -20.8731   -8.0524 N   0  0  0  0  0  0  0  0  0  0  0  0
   25.1348  -20.3634   -7.5943 C   0  0  0  0  0  0  0  0  0  0  0  0
   25.2153  -19.6909   -8.6498 O   0  0  0  0  0  0  0  0  0  0  0  0
   23.8816  -20.4224   -6.9744 O   0  0  0  0  0  0  0  0  0  0  0  0
  2  1  1  1
  2  3  1  0
  4  2  1  0
  4  5  2  0
  7  6  1  6
  7  8  1  0
  7  9  1  0
 10  9  1  1
 10 11  1  0
 10 12  1  0
 11  4  1  0
 12 13  2  0
 12 19  1  0
 15 14  1  1
 15 16  1  0
 17 15  1  0
 18 17  1  1
 19 18  1  0
 20 22  1  0
 20 18  1  0
 21 20  2  0
M  END
$$$$
