ALL.pdb
     RDKit          3D

 22 21  0  0  1  0  0  0  0  0999 V2000
   27.2016  -18.3329  -16.0650 C   0  0  0  0  0  0  0  0  0  0  0  0
   28.3937  -19.2336  -15.8695 C   0  0  2  0  0  0  0  0  0  0  0  0
   28.6515  -19.9950  -17.0819 N   0  0  0  0  0  0  0  0  0  0  0  0
   28.2044  -20.1094  -14.7023 C   0  0  0  0  0  0  0  0  0  0  0  0
   27.5195  -21.1525  -14.8567 O   0  0  0  0  0  0  0  0  0  0  0  0
   31.8587  -20.8812  -10.5582 C   0  0  0  0  0  0  0  0  0  0  0  0
   30.8308  -21.1864  -11.6230 C   0  0  1  0  0  0  0  0  0  0  0  0
   30.6349  -22.7114  -11.5952 C   0  0  0  0  0  0  0  0  0  0  0  0
   29.5175  -20.5709  -11.2295 C   0  0  0  0  0  0  0  0  0  0  0  0
   28.4486  -20.6931  -12.2810 C   0  0  2  0  0  0  0  0  0  0  0  0
   28.7512  -19.8382  -13.4262 N   0  0  0  0  0  0  0  0  0  0  0  0
   27.1136  -20.2986  -11.7708 C   0  0  0  0  0  0  0  0  0  0  0  0
   26.8407  -19.0676  -11.7508 O   0  0  0  0  0  0  0  0  0  0  0  0
   22.3081  -21.1467  -13.8955 C   0  0  0  0  0  0  0  0  0  0  0  0
   23.1818  -20.4725  -12.8981 C   0  0  1  0  0  0  0  0  0  0  0  0
   22.4562  -19.2601  -12.3013 C   0  0  0  0  0  0  0  0  0  0  0  0
   23.8395  -21.2938  -11.8837 C   0  0  0  0  0  0  0  0  0  0  0  0
   24.7956  -20.7440  -10.9071 C   0  0  2  0  0  0  0  0  0  0  0  0
   26.1569  -21.2183  -11.3175 N   0  0  0  0  0  0  0  0  0  0  0  0
   24.6843  -21.1383   -9.5018 C   0  0  0  0  0  0  0  0  0  0  0  0
   25.3405  -22.0962   -9.0275 O   0  0  0  0  0  0  0  0  0  0  0  0
   23.8344  -20.4561   -8.6241 O   0  0  0  0  0  0  0  0  0  0  0  0
  2  1  1  6
  2  3  1  0
  4  2  1  0
  4  5  2  0
  7  6  1  1
  7  8  1  0
  7  9  1  0
 10  9  1  1
 10 11  1  0
 10 12  1  0
 11  4  1  0
 12 13  2  0
 12 19  1  0
 15 14  1  1
 15 16  1  0
 17 15  1  0
 18 17  1  6
 19 18  1  0
 20 22  1  0
 20 18  1  0
 21 20  2  0
M  END
$$$$
