DQC.pdb
     RDKit          3D

 24 23  0  0  1  0  0  0  0  0999 V2000
   11.9137  -16.3376   20.3039 N   0  0  0  0  0  0  0  0  0  0  0  0
   11.3956  -17.2663   21.3042 C   0  0  1  0  0  0  0  0  0  0  0  0
   12.5843  -18.0405   21.8268 C   0  0  0  0  0  0  0  0  0  0  0  0
   13.0668  -19.0341   20.8313 C   0  0  0  0  0  0  0  0  0  0  0  0
   14.2209  -18.9743   20.3307 O   0  0  0  0  0  0  0  0  0  0  0  0
   10.8290  -16.4528   22.4088 C   0  0  0  0  0  0  0  0  0  0  0  0
   11.4250  -15.3818   22.7264 O   0  0  0  0  0  0  0  0  0  0  0  0
   12.2566  -20.0743   20.4122 O   0  0  0  0  0  0  0  0  0  0  0  0
    7.0352  -13.0841   23.9852 N   0  0  0  0  0  0  0  0  0  0  0  0
    6.7179  -13.8009   25.1983 C   0  0  0  0  0  0  0  0  0  0  0  0
    6.2294  -13.1230   26.0996 O   0  0  0  0  0  0  0  0  0  0  0  0
    6.9740  -15.2355   25.3174 C   0  0  0  0  0  0  0  0  0  0  0  0
    7.6560  -15.9060   24.1933 C   0  0  0  0  0  0  0  0  0  0  0  0
    9.1340  -16.0048   24.2144 C   0  0  2  0  0  0  0  0  0  0  0  0
    9.6633  -16.7962   23.1324 N   0  0  0  0  0  0  0  0  0  0  0  0
    9.7975  -16.3230   25.4860 C   0  0  0  0  0  0  0  0  0  0  0  0
   10.0611  -17.5219   25.8270 O   0  0  0  0  0  0  0  0  0  0  0  0
   10.1954  -15.3049   26.4143 N   0  0  0  0  0  0  0  0  0  0  0  0
   10.8590  -15.4696   27.6517 C   0  0  1  0  0  0  0  0  0  0  0  0
   11.0829  -14.2293   28.4616 C   0  0  0  0  0  0  0  0  0  0  0  0
    9.5425  -13.2348   28.3916 S   0  0  0  0  0  0  0  0  0  0  0  0
   10.3868  -16.6186   28.4876 C   0  0  0  0  0  0  0  0  0  0  0  0
   11.1422  -17.0453   29.5376 O   0  0  0  0  0  0  0  0  0  0  0  0
    9.3113  -17.1716   28.2161 O   0  0  0  0  0  0  0  0  0  0  0  0
  2  1  1  6
  2  3  1  0
  4  3  1  0
  4  8  1  0
  5  4  2  0
  6  2  1  0
  7  6  2  0
  9 10  1  0
 10 12  1  0
 11 10  2  0
 12 13  1  0
 14 13  1  1
 14 15  1  0
 15  6  1  0
 16 14  1  0
 16 18  1  0
 17 16  2  0
 19 18  1  0
 19 22  1  0
 19 20  1  1
 20 21  1  0
 22 23  1  0
 24 22  2  0
M  END
$$$$
