DQC.pdb
     RDKit          3D

 24 23  0  0  1  0  0  0  0  0999 V2000
    9.8598  -18.4096   22.1717 N   0  0  0  0  0  0  0  0  0  0  0  0
   10.9590  -17.4750   21.9479 C   0  0  1  0  0  0  0  0  0  0  0  0
   11.2882  -17.5454   20.4741 C   0  0  0  0  0  0  0  0  0  0  0  0
   11.9155  -18.8458   20.1182 C   0  0  0  0  0  0  0  0  0  0  0  0
   12.7367  -19.4235   20.8785 O   0  0  0  0  0  0  0  0  0  0  0  0
   10.4523  -16.1159   22.2625 C   0  0  0  0  0  0  0  0  0  0  0  0
   11.2442  -15.1378   22.1241 O   0  0  0  0  0  0  0  0  0  0  0  0
   11.6174  -19.4778   18.9242 O   0  0  0  0  0  0  0  0  0  0  0  0
    8.1403  -12.5109   20.2815 N   0  0  0  0  0  0  0  0  0  0  0  0
    7.4789  -13.7633   19.9987 C   0  0  0  0  0  0  0  0  0  0  0  0
    7.3249  -14.0217   18.8071 O   0  0  0  0  0  0  0  0  0  0  0  0
    7.0318  -14.6425   21.0781 C   0  0  0  0  0  0  0  0  0  0  0  0
    7.3241  -14.2293   22.4646 C   0  0  0  0  0  0  0  0  0  0  0  0
    8.6649  -14.5168   23.0253 C   0  0  2  0  0  0  0  0  0  0  0  0
    9.1384  -15.8405   22.7082 N   0  0  0  0  0  0  0  0  0  0  0  0
    8.9249  -14.1766   24.4307 C   0  0  0  0  0  0  0  0  0  0  0  0
    8.6463  -13.0291   24.9090 O   0  0  0  0  0  0  0  0  0  0  0  0
    9.4990  -15.1165   25.3492 N   0  0  0  0  0  0  0  0  0  0  0  0
    9.7940  -14.9231   26.7182 C   0  0  1  0  0  0  0  0  0  0  0  0
    8.7560  -14.2138   27.5330 C   0  0  0  0  0  0  0  0  0  0  0  0
    9.4437  -12.5805   28.0085 S   0  0  0  0  0  0  0  0  0  0  0  0
   10.3617  -16.1123   27.4290 C   0  0  0  0  0  0  0  0  0  0  0  0
   10.5910  -17.2649   26.7403 O   0  0  0  0  0  0  0  0  0  0  0  0
   10.6183  -16.0370   28.6393 O   0  0  0  0  0  0  0  0  0  0  0  0
  2  1  1  6
  2  3  1  0
  4  3  1  0
  4  8  1  0
  5  4  2  0
  6  2  1  0
  7  6  2  0
  9 10  1  0
 10 12  1  0
 11 10  2  0
 12 13  1  0
 14 13  1  1
 14 15  1  0
 15  6  1  0
 16 14  1  0
 16 18  1  0
 17 16  2  0
 19 18  1  0
 19 22  1  0
 19 20  1  1
 20 21  1  0
 22 23  1  0
 24 22  2  0
M  END
$$$$
