DQC.pdb
     RDKit          3D

 24 23  0  0  1  0  0  0  0  0999 V2000
   13.5630  -15.9449   17.4521 N   0  0  0  0  0  0  0  0  0  0  0  0
   13.9766  -14.9579   18.4455 C   0  0  1  0  0  0  0  0  0  0  0  0
   14.7844  -13.9167   17.7046 C   0  0  0  0  0  0  0  0  0  0  0  0
   16.0482  -14.4883   17.1688 C   0  0  0  0  0  0  0  0  0  0  0  0
   16.6843  -15.3913   17.7740 O   0  0  0  0  0  0  0  0  0  0  0  0
   12.7440  -14.3226   18.9746 C   0  0  0  0  0  0  0  0  0  0  0  0
   12.1125  -13.5265   18.2193 O   0  0  0  0  0  0  0  0  0  0  0  0
   16.5795  -14.0447   15.9709 O   0  0  0  0  0  0  0  0  0  0  0  0
    7.2472  -12.3780   18.6677 N   0  0  0  0  0  0  0  0  0  0  0  0
    7.7025  -13.7486   18.6630 C   0  0  0  0  0  0  0  0  0  0  0  0
    7.4028  -14.4010   17.6655 O   0  0  0  0  0  0  0  0  0  0  0  0
    8.4645  -14.2956   19.7846 C   0  0  0  0  0  0  0  0  0  0  0  0
    9.8935  -14.5916   19.5634 C   0  0  0  0  0  0  0  0  0  0  0  0
   10.8599  -14.2817   20.6426 C   0  0  2  0  0  0  0  0  0  0  0  0
   12.2267  -14.5486   20.2715 N   0  0  0  0  0  0  0  0  0  0  0  0
   10.5703  -14.7590   22.0016 C   0  0  0  0  0  0  0  0  0  0  0  0
    9.5073  -14.4265   22.6203 O   0  0  0  0  0  0  0  0  0  0  0  0
   11.4606  -15.6328   22.7089 N   0  0  0  0  0  0  0  0  0  0  0  0
   11.1714  -16.4457   23.8289 C   0  0  1  0  0  0  0  0  0  0  0  0
    9.9123  -17.2547   23.7616 C   0  0  0  0  0  0  0  0  0  0  0  0
    9.6556  -18.0205   25.4092 S   0  0  0  0  0  0  0  0  0  0  0  0
   12.3255  -17.2315   24.3695 C   0  0  0  0  0  0  0  0  0  0  0  0
   13.5114  -17.2378   23.6995 O   0  0  0  0  0  0  0  0  0  0  0  0
   12.1910  -17.8700   25.4233 O   0  0  0  0  0  0  0  0  0  0  0  0
  2  1  1  6
  2  3  1  0
  4  3  1  0
  4  8  1  0
  5  4  2  0
  6  2  1  0
  7  6  2  0
  9 10  1  0
 10 12  1  0
 11 10  2  0
 12 13  1  0
 14 13  1  6
 14 15  1  0
 15  6  1  0
 16 14  1  0
 16 18  1  0
 17 16  2  0
 19 18  1  0
 19 22  1  0
 19 20  1  6
 20 21  1  0
 22 23  1  0
 24 22  2  0
M  END
$$$$
