DQC.pdb
     RDKit          3D

 24 23  0  0  1  0  0  0  0  0999 V2000
   10.1190  -17.8710   19.4257 N   0  0  0  0  0  0  0  0  0  0  0  0
   11.0339  -16.7728   19.1280 C   0  0  1  0  0  0  0  0  0  0  0  0
   10.8593  -16.4553   17.6603 C   0  0  0  0  0  0  0  0  0  0  0  0
   12.1281  -16.6436   16.9081 C   0  0  0  0  0  0  0  0  0  0  0  0
   13.1830  -17.0477   17.4648 O   0  0  0  0  0  0  0  0  0  0  0  0
   10.5930  -15.6032   19.9283 C   0  0  0  0  0  0  0  0  0  0  0  0
   11.4180  -14.6600   20.1096 O   0  0  0  0  0  0  0  0  0  0  0  0
   12.1987  -16.3790   15.5520 O   0  0  0  0  0  0  0  0  0  0  0  0
    8.3754  -11.7738   19.0646 N   0  0  0  0  0  0  0  0  0  0  0  0
    7.8752  -13.0980   18.7777 C   0  0  0  0  0  0  0  0  0  0  0  0
    8.1806  -13.5505   17.6766 O   0  0  0  0  0  0  0  0  0  0  0  0
    7.0611  -13.8255   19.7503 C   0  0  0  0  0  0  0  0  0  0  0  0
    7.5552  -13.9000   21.1391 C   0  0  0  0  0  0  0  0  0  0  0  0
    8.9320  -14.3911   21.3794 C   0  0  2  0  0  0  0  0  0  0  0  0
    9.3076  -15.4723   20.5037 N   0  0  0  0  0  0  0  0  0  0  0  0
    9.3525  -14.6508   22.7629 C   0  0  0  0  0  0  0  0  0  0  0  0
    8.9438  -13.9379   23.7365 O   0  0  0  0  0  0  0  0  0  0  0  0
   10.2396  -15.7256   23.1014 N   0  0  0  0  0  0  0  0  0  0  0  0
   10.6300  -16.1558   24.3903 C   0  0  1  0  0  0  0  0  0  0  0  0
    9.5381  -16.3068   25.4049 C   0  0  0  0  0  0  0  0  0  0  0  0
   10.3209  -16.7726   26.9978 S   0  0  0  0  0  0  0  0  0  0  0  0
   11.5993  -17.2965   24.4222 C   0  0  0  0  0  0  0  0  0  0  0  0
   12.1775  -17.6589   25.6011 O   0  0  0  0  0  0  0  0  0  0  0  0
   11.8672  -17.9015   23.3741 O   0  0  0  0  0  0  0  0  0  0  0  0
  2  1  1  1
  2  3  1  0
  4  3  1  0
  4  8  1  0
  5  4  2  0
  6  2  1  0
  7  6  2  0
  9 10  1  0
 10 12  1  0
 11 10  2  0
 12 13  1  0
 14 13  1  1
 14 15  1  0
 15  6  1  0
 16 14  1  0
 16 18  1  0
 17 16  2  0
 19 18  1  0
 19 22  1  0
 19 20  1  1
 20 21  1  0
 22 23  1  0
 24 22  2  0
M  END
$$$$
