DQC.pdb
     RDKit          3D

 24 23  0  0  1  0  0  0  0  0999 V2000
   13.1728  -15.7311   17.7248 N   0  0  0  0  0  0  0  0  0  0  0  0
   13.9449  -15.3267   18.8962 C   0  0  1  0  0  0  0  0  0  0  0  0
   14.7825  -14.1426   18.4696 C   0  0  0  0  0  0  0  0  0  0  0  0
   15.7893  -14.5290   17.4458 C   0  0  0  0  0  0  0  0  0  0  0  0
   16.6109  -15.4647   17.6342 O   0  0  0  0  0  0  0  0  0  0  0  0
   12.9768  -14.8827   19.9298 C   0  0  0  0  0  0  0  0  0  0  0  0
   13.4343  -14.4529   21.0294 O   0  0  0  0  0  0  0  0  0  0  0  0
   15.8626  -13.8672   16.2330 O   0  0  0  0  0  0  0  0  0  0  0  0
    7.2295  -12.1910   19.4620 N   0  0  0  0  0  0  0  0  0  0  0  0
    7.7175  -13.2767   18.6440 C   0  0  0  0  0  0  0  0  0  0  0  0
    7.1117  -13.4570   17.5899 O   0  0  0  0  0  0  0  0  0  0  0  0
    8.8558  -14.0903   19.0684 C   0  0  0  0  0  0  0  0  0  0  0  0
    9.5098  -13.7418   20.3448 C   0  0  0  0  0  0  0  0  0  0  0  0
   10.6413  -14.5743   20.8154 C   0  0  2  0  0  0  0  0  0  0  0  0
   11.5720  -14.9082   19.7669 N   0  0  0  0  0  0  0  0  0  0  0  0
   10.3506  -15.7373   21.6648 C   0  0  0  0  0  0  0  0  0  0  0  0
   10.2477  -16.9131   21.1852 O   0  0  0  0  0  0  0  0  0  0  0  0
   10.1740  -15.6206   23.0832 N   0  0  0  0  0  0  0  0  0  0  0  0
   10.0256  -16.6617   24.0280 C   0  0  1  0  0  0  0  0  0  0  0  0
   11.0782  -17.7278   24.0203 C   0  0  0  0  0  0  0  0  0  0  0  0
   12.5869  -17.0242   24.7922 S   0  0  0  0  0  0  0  0  0  0  0  0
    9.6656  -16.2264   25.4147 C   0  0  0  0  0  0  0  0  0  0  0  0
    9.3594  -17.1603   26.3577 O   0  0  0  0  0  0  0  0  0  0  0  0
    9.6494  -15.0185   25.6920 O   0  0  0  0  0  0  0  0  0  0  0  0
  2  1  1  6
  2  3  1  0
  4  3  1  0
  4  8  1  0
  5  4  2  0
  6  2  1  0
  7  6  2  0
  9 10  1  0
 10 12  1  0
 11 10  2  0
 12 13  1  0
 14 13  1  6
 14 15  1  0
 15  6  1  0
 16 14  1  0
 16 18  1  0
 17 16  2  0
 19 18  1  0
 19 22  1  0
 19 20  1  1
 20 21  1  0
 22 23  1  0
 24 22  2  0
M  END
$$$$
