DQC.pdb
     RDKit          3D

 24 23  0  0  1  0  0  0  0  0999 V2000
   13.8481  -19.4102   16.6018 N   0  0  0  0  0  0  0  0  0  0  0  0
   12.5195  -18.8541   16.8416 C   0  0  1  0  0  0  0  0  0  0  0  0
   11.5525  -19.6918   16.0362 C   0  0  0  0  0  0  0  0  0  0  0  0
   11.7007  -19.4429   14.5777 C   0  0  0  0  0  0  0  0  0  0  0  0
   12.6263  -18.7275   14.1112 O   0  0  0  0  0  0  0  0  0  0  0  0
   12.2219  -19.0311   18.2848 C   0  0  0  0  0  0  0  0  0  0  0  0
   11.1624  -18.5109   18.7430 O   0  0  0  0  0  0  0  0  0  0  0  0
   10.8171  -19.9944   13.6672 O   0  0  0  0  0  0  0  0  0  0  0  0
   12.9134  -23.4315   23.7880 N   0  0  0  0  0  0  0  0  0  0  0  0
   13.7817  -22.3812   23.3095 C   0  0  0  0  0  0  0  0  0  0  0  0
   14.9853  -22.5866   23.4494 O   0  0  0  0  0  0  0  0  0  0  0  0
   13.2364  -21.1661   22.7062 C   0  0  0  0  0  0  0  0  0  0  0  0
   13.3236  -21.0303   21.2391 C   0  0  0  0  0  0  0  0  0  0  0  0
   12.8255  -19.7856   20.6086 C   0  0  2  0  0  0  0  0  0  0  0  0
   13.0466  -19.7452   19.1851 N   0  0  0  0  0  0  0  0  0  0  0  0
   13.1543  -18.5000   21.2390 C   0  0  0  0  0  0  0  0  0  0  0  0
   14.2046  -17.8477   20.9314 O   0  0  0  0  0  0  0  0  0  0  0  0
   12.3104  -17.8987   22.2304 N   0  0  0  0  0  0  0  0  0  0  0  0
   12.5304  -16.6997   22.9463 C   0  0  1  0  0  0  0  0  0  0  0  0
   11.3109  -15.9640   23.4110 C   0  0  0  0  0  0  0  0  0  0  0  0
   10.0950  -15.9809   22.0369 S   0  0  0  0  0  0  0  0  0  0  0  0
   13.5928  -16.7642   23.9995 C   0  0  0  0  0  0  0  0  0  0  0  0
   14.1027  -15.6116   24.5161 O   0  0  0  0  0  0  0  0  0  0  0  0
   13.9991  -17.8674   24.3920 O   0  0  0  0  0  0  0  0  0  0  0  0
  2  1  1  1
  2  3  1  0
  4  3  1  0
  4  8  1  0
  5  4  2  0
  6  2  1  0
  7  6  2  0
  9 10  1  0
 10 12  1  0
 11 10  2  0
 12 13  1  0
 14 13  1  1
 14 15  1  0
 15  6  1  0
 16 14  1  0
 16 18  1  0
 17 16  2  0
 19 18  1  0
 19 22  1  0
 19 20  1  1
 20 21  1  0
 22 23  1  0
 24 22  2  0
M  END
$$$$
