DQC.pdb
     RDKit          3D

 24 23  0  0  1  0  0  0  0  0999 V2000
   12.6706  -16.3651   16.3172 N   0  0  0  0  0  0  0  0  0  0  0  0
   13.0648  -16.7284   17.6753 C   0  0  1  0  0  0  0  0  0  0  0  0
   14.5743  -16.6543   17.7177 C   0  0  0  0  0  0  0  0  0  0  0  0
   15.1955  -17.7837   16.9763 C   0  0  0  0  0  0  0  0  0  0  0  0
   14.5358  -18.5101   16.1869 O   0  0  0  0  0  0  0  0  0  0  0  0
   12.5076  -15.6976   18.5862 C   0  0  0  0  0  0  0  0  0  0  0  0
   13.3072  -14.8606   19.0992 O   0  0  0  0  0  0  0  0  0  0  0  0
   16.5378  -18.0828   17.1274 O   0  0  0  0  0  0  0  0  0  0  0  0
    7.0607  -12.5438   18.3648 N   0  0  0  0  0  0  0  0  0  0  0  0
    7.6225  -12.1802   19.6446 C   0  0  0  0  0  0  0  0  0  0  0  0
    7.0447  -11.2706   20.2356 O   0  0  0  0  0  0  0  0  0  0  0  0
    8.8010  -12.8645   20.1746 C   0  0  0  0  0  0  0  0  0  0  0  0
    9.3869  -13.9492   19.3630 C   0  0  0  0  0  0  0  0  0  0  0  0
   10.6178  -14.6158   19.8481 C   0  0  2  0  0  0  0  0  0  0  0  0
   11.1375  -15.5883   18.9201 N   0  0  0  0  0  0  0  0  0  0  0  0
   10.6438  -15.1229   21.2268 C   0  0  0  0  0  0  0  0  0  0  0  0
    9.5799  -15.2632   21.9134 O   0  0  0  0  0  0  0  0  0  0  0  0
   11.8650  -15.4979   21.8785 N   0  0  0  0  0  0  0  0  0  0  0  0
   12.0264  -16.0421   23.1733 C   0  0  1  0  0  0  0  0  0  0  0  0
   11.0397  -17.0910   23.5863 C   0  0  0  0  0  0  0  0  0  0  0  0
   11.3100  -18.5588   22.5188 S   0  0  0  0  0  0  0  0  0  0  0  0
   13.4303  -16.4002   23.5509 C   0  0  0  0  0  0  0  0  0  0  0  0
   13.7305  -16.6774   24.8502 O   0  0  0  0  0  0  0  0  0  0  0  0
   14.3077  -16.4411   22.6764 O   0  0  0  0  0  0  0  0  0  0  0  0
  2  1  1  6
  2  3  1  0
  4  3  1  0
  4  8  1  0
  5  4  2  0
  6  2  1  0
  7  6  2  0
  9 10  1  0
 10 12  1  0
 11 10  2  0
 12 13  1  0
 14 13  1  6
 14 15  1  0
 15  6  1  0
 16 14  1  0
 16 18  1  0
 17 16  2  0
 19 18  1  0
 19 22  1  0
 19 20  1  6
 20 21  1  0
 22 23  1  0
 24 22  2  0
M  END
$$$$
