DQC.pdb
     RDKit          3D

 24 23  0  0  1  0  0  0  0  0999 V2000
   13.9646  -19.6957   16.3780 N   0  0  0  0  0  0  0  0  0  0  0  0
   14.8574  -19.1669   17.4051 C   0  0  1  0  0  0  0  0  0  0  0  0
   14.9855  -17.6841   17.1396 C   0  0  0  0  0  0  0  0  0  0  0  0
   15.7182  -17.4194   15.8730 C   0  0  0  0  0  0  0  0  0  0  0  0
   16.0628  -18.3458   15.0925 O   0  0  0  0  0  0  0  0  0  0  0  0
   14.1877  -19.3642   18.7148 C   0  0  0  0  0  0  0  0  0  0  0  0
   13.0052  -19.8167   18.7173 O   0  0  0  0  0  0  0  0  0  0  0  0
   16.0532  -16.1301   15.4996 O   0  0  0  0  0  0  0  0  0  0  0  0
   15.7113  -22.1691   24.2585 N   0  0  0  0  0  0  0  0  0  0  0  0
   16.1322  -22.1595   22.8769 C   0  0  0  0  0  0  0  0  0  0  0  0
   17.1430  -22.8130   22.6285 O   0  0  0  0  0  0  0  0  0  0  0  0
   15.3873  -21.4118   21.8650 C   0  0  0  0  0  0  0  0  0  0  0  0
   14.9661  -20.0373   22.1998 C   0  0  0  0  0  0  0  0  0  0  0  0
   14.1295  -19.2931   21.2298 C   0  0  2  0  0  0  0  0  0  0  0  0
   14.7855  -19.0791   19.9646 N   0  0  0  0  0  0  0  0  0  0  0  0
   13.4367  -18.0807   21.6866 C   0  0  0  0  0  0  0  0  0  0  0  0
   13.3987  -17.0203   20.9814 O   0  0  0  0  0  0  0  0  0  0  0  0
   12.7556  -18.0206   22.9472 N   0  0  0  0  0  0  0  0  0  0  0  0
   11.9738  -16.9611   23.4618 C   0  0  1  0  0  0  0  0  0  0  0  0
   10.7821  -16.5532   22.6507 C   0  0  0  0  0  0  0  0  0  0  0  0
   11.3999  -15.7382   21.1272 S   0  0  0  0  0  0  0  0  0  0  0  0
   11.6674  -17.0388   24.9253 C   0  0  0  0  0  0  0  0  0  0  0  0
   12.0698  -18.1243   25.6430 O   0  0  0  0  0  0  0  0  0  0  0  0
   11.0496  -16.1132   25.4712 O   0  0  0  0  0  0  0  0  0  0  0  0
  2  1  1  6
  2  3  1  0
  4  3  1  0
  4  8  1  0
  5  4  2  0
  6  2  1  0
  7  6  2  0
  9 10  1  0
 10 12  1  0
 11 10  2  0
 12 13  1  0
 14 13  1  1
 14 15  1  0
 15  6  1  0
 16 14  1  0
 16 18  1  0
 17 16  2  0
 19 18  1  0
 19 22  1  0
 19 20  1  6
 20 21  1  0
 22 23  1  0
 24 22  2  0
M  END
$$$$
