GSQ.pdb
     RDKit          3D

 20 19  0  0  1  0  0  0  0  0999 V2000
   10.3613  -20.6955   21.2533 N   0  0  0  0  0  0  0  0  0  0  0  0
    9.5239  -20.9593   22.3815 C   0  0  0  0  0  0  0  0  0  0  0  0
    9.9009  -20.0571   23.5213 C   0  0  0  0  0  0  0  0  0  0  0  0
   10.8969  -19.2929   23.4452 O   0  0  0  0  0  0  0  0  0  0  0  0
    7.1930  -19.3701   26.4965 O   0  0  0  0  0  0  0  0  0  0  0  0
    8.1746  -18.4220   26.2777 C   0  0  0  0  0  0  0  0  0  0  0  0
    9.4344  -19.1036   25.8250 C   0  0  2  0  0  0  0  0  0  0  0  0
    9.1556  -20.0270   24.7258 N   0  0  0  0  0  0  0  0  0  0  0  0
   10.0581  -19.8051   26.9504 C   0  0  0  0  0  0  0  0  0  0  0  0
    9.6724  -20.9663   27.3222 O   0  0  0  0  0  0  0  0  0  0  0  0
   15.4840  -18.3099   29.4162 N   0  0  0  0  0  0  0  0  0  0  0  0
   15.1510  -19.3806   30.2898 C   0  0  0  0  0  0  0  0  0  0  0  0
   15.9447  -19.6708   31.1984 O   0  0  0  0  0  0  0  0  0  0  0  0
   13.8625  -20.0971   30.0648 C   0  0  0  0  0  0  0  0  0  0  0  0
   13.1131  -19.4178   28.9663 C   0  0  0  0  0  0  0  0  0  0  0  0
   11.7695  -20.0414   28.7725 C   0  0  2  0  0  0  0  0  0  0  0  0
   11.1223  -19.2533   27.6961 N   0  0  0  0  0  0  0  0  0  0  0  0
   10.8904  -19.9559   29.9660 C   0  0  0  0  0  0  0  0  0  0  0  0
   10.9225  -20.9524   30.9576 O   0  0  0  0  0  0  0  0  0  0  0  0
   10.0783  -19.0137   30.1694 O   0  0  0  0  0  0  0  0  0  0  0  0
  2  1  1  0
  3  2  1  0
  4  3  2  0
  6  5  1  0
  7  8  1  0
  7  6  1  1
  8  3  1  0
  9  7  1  0
 10  9  2  0
 12 14  1  0
 12 11  1  0
 13 12  2  0
 15 14  1  0
 16 15  1  1
 16 17  1  0
 17  9  1  0
 18 19  1  0
 18 16  1  0
 20 18  2  0
M  END
$$$$
