GSQ.pdb
     RDKit          3D

 20 19  0  0  1  0  0  0  0  0999 V2000
    8.1956  -12.7154   17.7505 N   0  0  0  0  0  0  0  0  0  0  0  0
    8.9294  -13.8288   18.2658 C   0  0  0  0  0  0  0  0  0  0  0  0
    8.3185  -14.2916   19.5571 C   0  0  0  0  0  0  0  0  0  0  0  0
    7.8777  -13.4694   20.4007 O   0  0  0  0  0  0  0  0  0  0  0  0
    6.6790  -18.0967   20.0146 O   0  0  0  0  0  0  0  0  0  0  0  0
    7.4714  -17.6672   21.0624 C   0  0  0  0  0  0  0  0  0  0  0  0
    7.5199  -16.1658   21.0683 C   0  0  2  0  0  0  0  0  0  0  0  0
    8.2122  -15.6668   19.8806 N   0  0  0  0  0  0  0  0  0  0  0  0
    8.1719  -15.6891   22.2911 C   0  0  0  0  0  0  0  0  0  0  0  0
    9.4264  -15.4456   22.3390 O   0  0  0  0  0  0  0  0  0  0  0  0
    6.7146  -11.5050   28.0898 N   0  0  0  0  0  0  0  0  0  0  0  0
    6.4248  -12.3557   26.9886 C   0  0  0  0  0  0  0  0  0  0  0  0
    5.2625  -12.3861   26.5550 O   0  0  0  0  0  0  0  0  0  0  0  0
    7.5370  -13.1664   26.4143 C   0  0  0  0  0  0  0  0  0  0  0  0
    7.0424  -13.8795   25.1991 C   0  0  0  0  0  0  0  0  0  0  0  0
    8.1114  -14.7460   24.6175 C   0  0  2  0  0  0  0  0  0  0  0  0
    7.4655  -15.4648   23.4928 N   0  0  0  0  0  0  0  0  0  0  0  0
    8.6265  -15.7750   25.5558 C   0  0  0  0  0  0  0  0  0  0  0  0
    9.6484  -15.4682   26.4717 O   0  0  0  0  0  0  0  0  0  0  0  0
    8.1983  -16.9597   25.5971 O   0  0  0  0  0  0  0  0  0  0  0  0
  2  1  1  0
  3  2  1  0
  4  3  2  0
  6  5  1  0
  7  8  1  0
  7  6  1  1
  8  3  1  0
  9  7  1  0
 10  9  2  0
 12 14  1  0
 12 11  1  0
 13 12  2  0
 15 14  1  0
 16 15  1  1
 16 17  1  0
 17  9  1  0
 18 19  1  0
 18 16  1  0
 20 18  2  0
M  END
$$$$
