GSQ.pdb
     RDKit          3D

 20 19  0  0  1  0  0  0  0  0999 V2000
    8.9091  -15.2698   15.0725 N   0  0  0  0  0  0  0  0  0  0  0  0
    8.0668  -14.6568   16.0514 C   0  0  0  0  0  0  0  0  0  0  0  0
    8.7771  -14.5967   17.3731 C   0  0  0  0  0  0  0  0  0  0  0  0
    9.8640  -15.2025   17.5566 O   0  0  0  0  0  0  0  0  0  0  0  0
    7.0067  -12.9753   20.8749 O   0  0  0  0  0  0  0  0  0  0  0  0
    8.3194  -12.6544   20.5848 C   0  0  0  0  0  0  0  0  0  0  0  0
    8.9303  -13.7509   19.7595 C   0  0  2  0  0  0  0  0  0  0  0  0
    8.2576  -13.8592   18.4655 N   0  0  0  0  0  0  0  0  0  0  0  0
    8.8688  -15.0212   20.4876 C   0  0  0  0  0  0  0  0  0  0  0  0
    7.8557  -15.7978   20.4101 O   0  0  0  0  0  0  0  0  0  0  0  0
   13.8780  -19.0184   21.5728 N   0  0  0  0  0  0  0  0  0  0  0  0
   13.2794  -17.9415   20.8640 C   0  0  0  0  0  0  0  0  0  0  0  0
   13.6261  -17.7417   19.6894 O   0  0  0  0  0  0  0  0  0  0  0  0
   12.2652  -17.1098   21.5738 C   0  0  0  0  0  0  0  0  0  0  0  0
   10.9014  -17.6264   21.2532 C   0  0  0  0  0  0  0  0  0  0  0  0
    9.8499  -16.8183   21.9412 C   0  0  2  0  0  0  0  0  0  0  0  0
    9.9169  -15.4745   21.3178 N   0  0  0  0  0  0  0  0  0  0  0  0
   10.0876  -16.6379   23.3956 C   0  0  0  0  0  0  0  0  0  0  0  0
   10.0049  -17.7280   24.2800 O   0  0  0  0  0  0  0  0  0  0  0  0
   10.3715  -15.5298   23.9250 O   0  0  0  0  0  0  0  0  0  0  0  0
  2  1  1  0
  3  2  1  0
  4  3  2  0
  6  5  1  0
  7  8  1  0
  7  6  1  1
  8  3  1  0
  9  7  1  0
 10  9  2  0
 12 14  1  0
 12 11  1  0
 13 12  2  0
 15 14  1  0
 16 15  1  6
 16 17  1  0
 17  9  1  0
 18 19  1  0
 18 16  1  0
 20 18  2  0
M  END
$$$$
