GSQ.pdb
     RDKit          3D

 20 19  0  0  1  0  0  0  0  0999 V2000
    8.0575  -12.1013   18.4367 N   0  0  0  0  0  0  0  0  0  0  0  0
    8.9278  -13.1719   18.8108 C   0  0  0  0  0  0  0  0  0  0  0  0
    8.3645  -13.8991   19.9977 C   0  0  0  0  0  0  0  0  0  0  0  0
    7.3473  -13.4712   20.6013 O   0  0  0  0  0  0  0  0  0  0  0  0
    7.8975  -18.1003   22.2499 O   0  0  0  0  0  0  0  0  0  0  0  0
    8.5615  -17.3628   21.2878 C   0  0  0  0  0  0  0  0  0  0  0  0
    8.3660  -15.8983   21.5589 C   0  0  2  0  0  0  0  0  0  0  0  0
    8.9505  -15.0924   20.4876 N   0  0  0  0  0  0  0  0  0  0  0  0
    8.9503  -15.5451   22.8557 C   0  0  0  0  0  0  0  0  0  0  0  0
   10.2070  -15.3609   23.0046 O   0  0  0  0  0  0  0  0  0  0  0  0
    6.1278  -10.9791   26.5282 N   0  0  0  0  0  0  0  0  0  0  0  0
    6.2898  -12.3894   26.4567 C   0  0  0  0  0  0  0  0  0  0  0  0
    5.4704  -13.1092   27.0484 O   0  0  0  0  0  0  0  0  0  0  0  0
    7.4389  -12.9265   25.6723 C   0  0  0  0  0  0  0  0  0  0  0  0
    7.6985  -14.3358   26.0922 C   0  0  0  0  0  0  0  0  0  0  0  0
    8.8045  -14.9366   25.2875 C   0  0  2  0  0  0  0  0  0  0  0  0
    8.1722  -15.3825   24.0225 N   0  0  0  0  0  0  0  0  0  0  0  0
    9.4207  -16.1335   25.9139 C   0  0  0  0  0  0  0  0  0  0  0  0
   10.4051  -15.9999   26.9090 O   0  0  0  0  0  0  0  0  0  0  0  0
    9.1152  -17.3175   25.6080 O   0  0  0  0  0  0  0  0  0  0  0  0
  2  1  1  0
  3  2  1  0
  4  3  2  0
  6  5  1  0
  7  8  1  0
  7  6  1  6
  8  3  1  0
  9  7  1  0
 10  9  2  0
 12 14  1  0
 12 11  1  0
 13 12  2  0
 15 14  1  0
 16 15  1  1
 16 17  1  0
 17  9  1  0
 18 19  1  0
 18 16  1  0
 20 18  2  0
M  END
$$$$
