GSQ.pdb
     RDKit          3D

 20 19  0  0  1  0  0  0  0  0999 V2000
    8.4924  -14.4084   13.9570 N   0  0  0  0  0  0  0  0  0  0  0  0
    7.8109  -14.5249   15.2082 C   0  0  0  0  0  0  0  0  0  0  0  0
    8.7369  -14.1583   16.3321 C   0  0  0  0  0  0  0  0  0  0  0  0
    9.9726  -14.0233   16.1403 O   0  0  0  0  0  0  0  0  0  0  0  0
    7.4919  -14.3636   20.3197 O   0  0  0  0  0  0  0  0  0  0  0  0
    8.3275  -13.3092   20.0028 C   0  0  0  0  0  0  0  0  0  0  0  0
    9.1367  -13.6620   18.7873 C   0  0  2  0  0  0  0  0  0  0  0  0
    8.2625  -13.9495   17.6507 N   0  0  0  0  0  0  0  0  0  0  0  0
   10.0076  -14.8043   19.0778 C   0  0  0  0  0  0  0  0  0  0  0  0
   10.0311  -15.8443   18.3341 O   0  0  0  0  0  0  0  0  0  0  0  0
   14.9551  -14.2667   17.2125 N   0  0  0  0  0  0  0  0  0  0  0  0
   14.9000  -14.6579   18.5779 C   0  0  0  0  0  0  0  0  0  0  0  0
   15.9260  -15.1181   19.1028 O   0  0  0  0  0  0  0  0  0  0  0  0
   13.6086  -14.4928   19.3053 C   0  0  0  0  0  0  0  0  0  0  0  0
   12.8075  -15.7451   19.1650 C   0  0  0  0  0  0  0  0  0  0  0  0
   11.8813  -15.9181   20.3243 C   0  0  2  0  0  0  0  0  0  0  0  0
   10.8771  -14.8354   20.1896 N   0  0  0  0  0  0  0  0  0  0  0  0
   12.5355  -15.7458   21.6460 C   0  0  0  0  0  0  0  0  0  0  0  0
   13.3004  -16.7811   22.2120 O   0  0  0  0  0  0  0  0  0  0  0  0
   12.4545  -14.6925   22.3336 O   0  0  0  0  0  0  0  0  0  0  0  0
  2  1  1  0
  3  2  1  0
  4  3  2  0
  6  5  1  0
  7  8  1  0
  7  6  1  1
  8  3  1  0
  9  7  1  0
 10  9  2  0
 12 14  1  0
 12 11  1  0
 13 12  2  0
 15 14  1  0
 16 15  1  6
 16 17  1  0
 17  9  1  0
 18 19  1  0
 18 16  1  0
 20 18  2  0
M  END
$$$$
