GSQ.pdb
     RDKit          3D

 20 19  0  0  1  0  0  0  0  0999 V2000
   12.7951  -22.6336   25.7099 N   0  0  0  0  0  0  0  0  0  0  0  0
   12.3503  -23.1387   26.9711 C   0  0  0  0  0  0  0  0  0  0  0  0
   13.0059  -22.3781   28.0876 C   0  0  0  0  0  0  0  0  0  0  0  0
   14.1444  -21.8630   27.9444 O   0  0  0  0  0  0  0  0  0  0  0  0
   10.8849  -21.6246   31.5475 O   0  0  0  0  0  0  0  0  0  0  0  0
   11.8817  -20.7258   31.2174 C   0  0  0  0  0  0  0  0  0  0  0  0
   12.9554  -21.4344   30.4416 C   0  0  2  0  0  0  0  0  0  0  0  0
   12.3747  -22.2078   29.3446 N   0  0  0  0  0  0  0  0  0  0  0  0
   13.7333  -22.2979   31.3343 C   0  0  0  0  0  0  0  0  0  0  0  0
   13.4040  -23.5133   31.5575 O   0  0  0  0  0  0  0  0  0  0  0  0
   19.9560  -23.0323   30.4658 N   0  0  0  0  0  0  0  0  0  0  0  0
   19.1555  -22.5573   31.5399 C   0  0  0  0  0  0  0  0  0  0  0  0
   19.6729  -21.7937   32.3700 O   0  0  0  0  0  0  0  0  0  0  0  0
   17.7344  -23.0044   31.6093 C   0  0  0  0  0  0  0  0  0  0  0  0
   17.0747  -22.3500   32.7782 C   0  0  0  0  0  0  0  0  0  0  0  0
   15.6463  -22.7731   32.8899 C   0  0  2  0  0  0  0  0  0  0  0  0
   14.8937  -21.8525   32.0039 N   0  0  0  0  0  0  0  0  0  0  0  0
   15.0815  -22.6251   34.2551 C   0  0  0  0  0  0  0  0  0  0  0  0
   15.4084  -23.5384   35.2730 O   0  0  0  0  0  0  0  0  0  0  0  0
   14.2936  -21.6996   34.5886 O   0  0  0  0  0  0  0  0  0  0  0  0
  2  1  1  0
  3  2  1  0
  4  3  2  0
  6  5  1  0
  7  8  1  0
  7  6  1  1
  8  3  1  0
  9  7  1  0
 10  9  2  0
 12 14  1  0
 12 11  1  0
 13 12  2  0
 15 14  1  0
 16 15  1  1
 16 17  1  0
 17  9  1  0
 18 19  1  0
 18 16  1  0
 20 18  2  0
M  END
$$$$
