DQW.pdb
     RDKit          3D

 32 33  0  0  1  0  0  0  0  0999 V2000
   26.4644  -18.0725  -17.2158 N   0  0  0  0  0  0  0  0  0  0  0  0
   27.2946  -17.5696  -16.1411 C   0  0  1  0  0  0  0  0  0  0  0  0
   27.4333  -16.0884  -16.2848 C   0  0  0  0  0  0  0  0  0  0  0  0
   27.9555  -15.7094  -17.6250 C   0  0  0  0  0  0  0  0  0  0  0  0
   27.3665  -16.1992  -18.6217 O   0  0  0  0  0  0  0  0  0  0  0  0
   26.6883  -17.9025  -14.8157 C   0  0  0  0  0  0  0  0  0  0  0  0
   27.1671  -17.4692  -13.7550 O   0  0  0  0  0  0  0  0  0  0  0  0
   29.0386  -14.8595  -17.7822 O   0  0  0  0  0  0  0  0  0  0  0  0
   20.9876  -19.1472  -13.7297 N   0  0  0  0  0  0  0  0  0  0  0  0
   21.4999  -19.9693  -12.7139 C   0  0  0  0  0  0  0  0  0  0  0  0
   20.7621  -20.2655  -11.7407 O   0  0  0  0  0  0  0  0  0  0  0  0
   22.8747  -20.5032  -12.7435 C   0  0  0  0  0  0  0  0  0  0  0  0
   23.6821  -20.0918  -13.9167 C   0  0  0  0  0  0  0  0  0  0  0  0
   24.8647  -19.1960  -13.6001 C   0  0  2  0  0  0  0  0  0  0  0  0
   25.5481  -18.7285  -14.7873 N   0  0  0  0  0  0  0  0  0  0  0  0
   25.7697  -19.9220  -12.6984 C   0  0  0  0  0  0  0  0  0  0  0  0
   26.5875  -20.7356  -13.1504 O   0  0  0  0  0  0  0  0  0  0  0  0
   25.7067  -19.6860  -11.2995 N   0  0  0  0  0  0  0  0  0  0  0  0
   26.6210  -20.3312  -10.3929 C   0  0  1  0  0  0  0  0  0  0  0  0
   26.9490  -19.4723   -9.2352 C   0  0  0  0  0  0  0  0  0  0  0  0
   26.6833  -20.1161   -7.9414 C   0  0  0  0  0  0  0  0  0  0  0  0
   25.7626  -21.0350   -7.5145 C   0  0  0  0  0  0  0  0  0  0  0  0
   25.9349  -21.2964   -6.1889 N   0  0  0  0  0  0  0  0  0  0  0  0
   26.9629  -20.5529   -5.7478 C   0  0  0  0  0  0  0  0  0  0  0  0
   27.5730  -20.4109   -4.4965 C   0  0  0  0  0  0  0  0  0  0  0  0
   28.6351  -19.5532   -4.3117 C   0  0  0  0  0  0  0  0  0  0  0  0
   29.1117  -18.8141   -5.3872 C   0  0  0  0  0  0  0  0  0  0  0  0
   28.5071  -18.9662   -6.5906 C   0  0  0  0  0  0  0  0  0  0  0  0
   27.4384  -19.8180   -6.8109 C   0  0  0  0  0  0  0  0  0  0  0  0
   26.1071  -21.6756   -9.9733 C   0  0  0  0  0  0  0  0  0  0  0  0
   26.9748  -22.7119   -9.7829 O   0  0  0  0  0  0  0  0  0  0  0  0
   24.8774  -21.8553   -9.7932 O   0  0  0  0  0  0  0  0  0  0  0  0
  2  1  1  6
  2  6  1  0
  3  4  1  0
  3  2  1  0
  4  5  2  0
  6  7  2  0
  8  4  1  0
 10 11  2  0
 10  9  1  0
 12 10  1  0
 13 12  1  0
 14 13  1  6
 14 16  1  0
 15  6  1  0
 15 14  1  0
 16 17  2  0
 18 16  1  0
 19 30  1  0
 19 18  1  0
 19 20  1  1
 21 20  1  0
 21 29  1  0
 22 23  1  0
 22 21  2  0
 23 24  1  0
 24 29  2  0
 24 25  1  0
 25 26  2  0
 26 27  1  0
 28 27  2  0
 29 28  1  0
 30 31  1  0
 32 30  2  0
M  END
$$$$
