DQW.pdb
     RDKit          3D

 32 33  0  0  1  0  0  0  0  0999 V2000
   28.0932  -21.8905  -17.2264 N   0  0  0  0  0  0  0  0  0  0  0  0
   27.7452  -20.7027  -16.4746 C   0  0  1  0  0  0  0  0  0  0  0  0
   27.2118  -19.6701  -17.4143 C   0  0  0  0  0  0  0  0  0  0  0  0
   28.2835  -19.0960  -18.2712 C   0  0  0  0  0  0  0  0  0  0  0  0
   28.6855  -19.8061  -19.2274 O   0  0  0  0  0  0  0  0  0  0  0  0
   26.7225  -21.0270  -15.4335 C   0  0  0  0  0  0  0  0  0  0  0  0
   25.7345  -21.7337  -15.6912 O   0  0  0  0  0  0  0  0  0  0  0  0
   28.8227  -17.8410  -18.0377 O   0  0  0  0  0  0  0  0  0  0  0  0
   26.1186  -22.3762  -10.3927 N   0  0  0  0  0  0  0  0  0  0  0  0
   25.3357  -21.2727  -10.0194 C   0  0  0  0  0  0  0  0  0  0  0  0
   24.4742  -21.4156   -9.1157 O   0  0  0  0  0  0  0  0  0  0  0  0
   25.4848  -19.9459  -10.6467 C   0  0  0  0  0  0  0  0  0  0  0  0
   26.4263  -19.8954  -11.7907 C   0  0  0  0  0  0  0  0  0  0  0  0
   25.9394  -20.5806  -13.0535 C   0  0  2  0  0  0  0  0  0  0  0  0
   26.8985  -20.5104  -14.1353 N   0  0  0  0  0  0  0  0  0  0  0  0
   24.6457  -19.9953  -13.4309 C   0  0  0  0  0  0  0  0  0  0  0  0
   24.5435  -18.7782  -13.6392 O   0  0  0  0  0  0  0  0  0  0  0  0
   23.5061  -20.8327  -13.5601 N   0  0  0  0  0  0  0  0  0  0  0  0
   22.2465  -20.3109  -14.0244 C   0  0  1  0  0  0  0  0  0  0  0  0
   22.3484  -19.7572  -15.3914 C   0  0  0  0  0  0  0  0  0  0  0  0
   21.0880  -19.1807  -15.8794 C   0  0  0  0  0  0  0  0  0  0  0  0
   20.1757  -18.3126  -15.3425 C   0  0  0  0  0  0  0  0  0  0  0  0
   19.1505  -18.1048  -16.2149 N   0  0  0  0  0  0  0  0  0  0  0  0
   19.3883  -18.8329  -17.3183 C   0  0  0  0  0  0  0  0  0  0  0  0
   18.6878  -19.0101  -18.5166 C   0  0  0  0  0  0  0  0  0  0  0  0
   19.1644  -19.8397  -19.5079 C   0  0  0  0  0  0  0  0  0  0  0  0
   20.3638  -20.5141  -19.3165 C   0  0  0  0  0  0  0  0  0  0  0  0
   21.0269  -20.3287  -18.1490 C   0  0  0  0  0  0  0  0  0  0  0  0
   20.5765  -19.5037  -17.1328 C   0  0  0  0  0  0  0  0  0  0  0  0
   21.1607  -21.3381  -13.9088 C   0  0  0  0  0  0  0  0  0  0  0  0
   19.9063  -20.9680  -13.5178 O   0  0  0  0  0  0  0  0  0  0  0  0
   21.3980  -22.5427  -14.1721 O   0  0  0  0  0  0  0  0  0  0  0  0
  2  1  1  6
  2  6  1  0
  3  4  1  0
  3  2  1  0
  4  5  2  0
  6  7  2  0
  8  4  1  0
 10 11  2  0
 10  9  1  0
 12 10  1  0
 13 12  1  0
 14 13  1  1
 14 16  1  0
 15  6  1  0
 15 14  1  0
 16 17  2  0
 18 16  1  0
 19 30  1  0
 19 18  1  0
 19 20  1  6
 21 20  1  0
 21 29  1  0
 22 23  1  0
 22 21  2  0
 23 24  1  0
 24 29  2  0
 24 25  1  0
 25 26  2  0
 26 27  1  0
 28 27  2  0
 29 28  1  0
 30 31  1  0
 32 30  2  0
M  END
$$$$
