DQW.pdb
     RDKit          3D

 32 33  0  0  1  0  0  0  0  0999 V2000
   26.8246  -24.9709  -18.4442 N   0  0  0  0  0  0  0  0  0  0  0  0
   26.2212  -23.7550  -17.9398 C   0  0  1  0  0  0  0  0  0  0  0  0
   24.7712  -24.0038  -17.6758 C   0  0  0  0  0  0  0  0  0  0  0  0
   24.0175  -24.2646  -18.9312 C   0  0  0  0  0  0  0  0  0  0  0  0
   23.2086  -25.2268  -18.9167 O   0  0  0  0  0  0  0  0  0  0  0  0
   26.9042  -23.3172  -16.6840 C   0  0  0  0  0  0  0  0  0  0  0  0
   27.6093  -24.0965  -16.0224 O   0  0  0  0  0  0  0  0  0  0  0  0
   24.1893  -23.4933  -20.0695 O   0  0  0  0  0  0  0  0  0  0  0  0
   28.1632  -17.4455  -14.1035 N   0  0  0  0  0  0  0  0  0  0  0  0
   27.0304  -17.6805  -14.8983 C   0  0  0  0  0  0  0  0  0  0  0  0
   26.1625  -16.7777  -15.0028 O   0  0  0  0  0  0  0  0  0  0  0  0
   26.8173  -18.9492  -15.6201 C   0  0  0  0  0  0  0  0  0  0  0  0
   27.8851  -19.9612  -15.4380 C   0  0  0  0  0  0  0  0  0  0  0  0
   27.3950  -21.3633  -15.1291 C   0  0  2  0  0  0  0  0  0  0  0  0
   26.7329  -21.9869  -16.2550 N   0  0  0  0  0  0  0  0  0  0  0  0
   26.5235  -21.3015  -13.9478 C   0  0  0  0  0  0  0  0  0  0  0  0
   25.3333  -20.9764  -14.0614 O   0  0  0  0  0  0  0  0  0  0  0  0
   27.0503  -21.6196  -12.6681 N   0  0  0  0  0  0  0  0  0  0  0  0
   26.2156  -21.6074  -11.4944 C   0  0  1  0  0  0  0  0  0  0  0  0
   26.9848  -21.9016  -10.2667 C   0  0  0  0  0  0  0  0  0  0  0  0
   26.7317  -20.9452   -9.1802 C   0  0  0  0  0  0  0  0  0  0  0  0
   25.6417  -20.2057   -8.8072 C   0  0  0  0  0  0  0  0  0  0  0  0
   25.9359  -19.4479   -7.7143 N   0  0  0  0  0  0  0  0  0  0  0  0
   27.2123  -19.6882   -7.3721 C   0  0  0  0  0  0  0  0  0  0  0  0
   28.0379  -19.1986   -6.3538 C   0  0  0  0  0  0  0  0  0  0  0  0
   29.3439  -19.6186   -6.2277 C   0  0  0  0  0  0  0  0  0  0  0  0
   29.8532  -20.5463   -7.1277 C   0  0  0  0  0  0  0  0  0  0  0  0
   29.0373  -21.0082   -8.1064 C   0  0  0  0  0  0  0  0  0  0  0  0
   27.7215  -20.6074   -8.2621 C   0  0  0  0  0  0  0  0  0  0  0  0
   25.4504  -20.3225  -11.3891 C   0  0  0  0  0  0  0  0  0  0  0  0
   26.0211  -19.1501  -11.7929 O   0  0  0  0  0  0  0  0  0  0  0  0
   24.2812  -20.3176  -10.9312 O   0  0  0  0  0  0  0  0  0  0  0  0
  2  1  1  1
  2  6  1  0
  3  4  1  0
  3  2  1  0
  4  5  2  0
  6  7  2  0
  8  4  1  0
 10 11  2  0
 10  9  1  0
 12 10  1  0
 13 12  1  0
 14 13  1  6
 14 16  1  0
 15  6  1  0
 15 14  1  0
 16 17  2  0
 18 16  1  0
 19 30  1  0
 19 18  1  0
 19 20  1  1
 21 20  1  0
 21 29  1  0
 22 23  1  0
 22 21  2  0
 23 24  1  0
 24 29  2  0
 24 25  1  0
 25 26  2  0
 26 27  1  0
 28 27  2  0
 29 28  1  0
 30 31  1  0
 32 30  2  0
M  END
$$$$
