DQW.pdb
     RDKit          3D

 32 33  0  0  1  0  0  0  0  0999 V2000
   21.0207  -12.5412  -16.5903 N   0  0  0  0  0  0  0  0  0  0  0  0
   19.8973  -11.6375  -16.4545 C   0  0  1  0  0  0  0  0  0  0  0  0
   18.6298  -12.4293  -16.4757 C   0  0  0  0  0  0  0  0  0  0  0  0
   18.3271  -12.9521  -17.8349 C   0  0  0  0  0  0  0  0  0  0  0  0
   19.1313  -12.6464  -18.7514 O   0  0  0  0  0  0  0  0  0  0  0  0
   20.0005  -10.8672  -15.1774 C   0  0  0  0  0  0  0  0  0  0  0  0
   20.3691  -11.4066  -14.1213 O   0  0  0  0  0  0  0  0  0  0  0  0
   17.2154  -13.7381  -18.0931 O   0  0  0  0  0  0  0  0  0  0  0  0
   21.5219   -4.6982  -14.9008 N   0  0  0  0  0  0  0  0  0  0  0  0
   21.0233   -4.9894  -13.6215 C   0  0  0  0  0  0  0  0  0  0  0  0
   21.1049   -4.1147  -12.7230 O   0  0  0  0  0  0  0  0  0  0  0  0
   20.4036   -6.2858  -13.2881 C   0  0  0  0  0  0  0  0  0  0  0  0
   20.3851   -7.2746  -14.3924 C   0  0  0  0  0  0  0  0  0  0  0  0
   19.7245   -8.5986  -14.0578 C   0  0  2  0  0  0  0  0  0  0  0  0
   19.6675   -9.4990  -15.1896 N   0  0  0  0  0  0  0  0  0  0  0  0
   18.3894   -8.3263  -13.5079 C   0  0  0  0  0  0  0  0  0  0  0  0
   17.4806   -7.9114  -14.2409 O   0  0  0  0  0  0  0  0  0  0  0  0
   18.1402   -8.5433  -12.1269 N   0  0  0  0  0  0  0  0  0  0  0  0
   16.8567   -8.2454  -11.5453 C   0  0  1  0  0  0  0  0  0  0  0  0
   16.6711   -8.9191  -10.2425 C   0  0  0  0  0  0  0  0  0  0  0  0
   15.3099   -8.7812   -9.7067 C   0  0  0  0  0  0  0  0  0  0  0  0
   14.1133   -9.3774  -10.0017 C   0  0  0  0  0  0  0  0  0  0  0  0
   13.1267   -8.8758   -9.2079 N   0  0  0  0  0  0  0  0  0  0  0  0
   13.6724   -7.9550   -8.3965 C   0  0  0  0  0  0  0  0  0  0  0  0
   13.1464   -7.1290   -7.3968 C   0  0  0  0  0  0  0  0  0  0  0  0
   13.9463   -6.2478   -6.7027 C   0  0  0  0  0  0  0  0  0  0  0  0
   15.3017   -6.1764   -6.9991 C   0  0  0  0  0  0  0  0  0  0  0  0
   15.7913   -6.9849   -7.9704 C   0  0  0  0  0  0  0  0  0  0  0  0
   15.0164   -7.8805   -8.6871 C   0  0  0  0  0  0  0  0  0  0  0  0
   16.6353   -6.7655  -11.4543 C   0  0  0  0  0  0  0  0  0  0  0  0
   15.4246   -6.2320  -11.7902 O   0  0  0  0  0  0  0  0  0  0  0  0
   17.5603   -6.0095  -11.0676 O   0  0  0  0  0  0  0  0  0  0  0  0
  2  1  1  1
  2  6  1  0
  3  4  1  0
  3  2  1  0
  4  5  2  0
  6  7  2  0
  8  4  1  0
 10 11  2  0
 10  9  1  0
 12 10  1  0
 13 12  1  0
 14 13  1  6
 14 16  1  0
 15  6  1  0
 15 14  1  0
 16 17  2  0
 18 16  1  0
 19 30  1  0
 19 18  1  0
 19 20  1  1
 21 20  1  0
 21 29  1  0
 22 23  1  0
 22 21  2  0
 23 24  1  0
 24 29  2  0
 24 25  1  0
 25 26  2  0
 26 27  1  0
 28 27  2  0
 29 28  1  0
 30 31  1  0
 32 30  2  0
M  END
$$$$
