DQW.pdb
     RDKit          3D

 32 33  0  0  1  0  0  0  0  0999 V2000
   24.8682  -18.1810  -16.2644 N   0  0  0  0  0  0  0  0  0  0  0  0
   24.5288  -18.2772  -14.8599 C   0  0  1  0  0  0  0  0  0  0  0  0
   23.0429  -18.2127  -14.7121 C   0  0  0  0  0  0  0  0  0  0  0  0
   22.4808  -16.9734  -15.3125 C   0  0  0  0  0  0  0  0  0  0  0  0
   23.2669  -16.2667  -15.9928 O   0  0  0  0  0  0  0  0  0  0  0  0
   25.0471  -19.5565  -14.2857 C   0  0  0  0  0  0  0  0  0  0  0  0
   24.3767  -20.6013  -14.3169 O   0  0  0  0  0  0  0  0  0  0  0  0
   21.1570  -16.6029  -15.1377 O   0  0  0  0  0  0  0  0  0  0  0  0
   27.9031  -22.9530  -15.4118 N   0  0  0  0  0  0  0  0  0  0  0  0
   28.3481  -21.7403  -15.9609 C   0  0  0  0  0  0  0  0  0  0  0  0
   28.4598  -21.6421  -17.2087 O   0  0  0  0  0  0  0  0  0  0  0  0
   28.6901  -20.5711  -15.1290 C   0  0  0  0  0  0  0  0  0  0  0  0
   28.4868  -20.7569  -13.6724 C   0  0  0  0  0  0  0  0  0  0  0  0
   27.0403  -20.7229  -13.2165 C   0  0  2  0  0  0  0  0  0  0  0  0
   26.3273  -19.5593  -13.6989 N   0  0  0  0  0  0  0  0  0  0  0  0
   27.0126  -20.8121  -11.7502 C   0  0  0  0  0  0  0  0  0  0  0  0
   28.0671  -20.9061  -11.1064 O   0  0  0  0  0  0  0  0  0  0  0  0
   25.7676  -20.7875  -11.0677 N   0  0  0  0  0  0  0  0  0  0  0  0
   25.6945  -20.9859   -9.6431 C   0  0  1  0  0  0  0  0  0  0  0  0
   26.6616  -20.1357   -8.9169 C   0  0  0  0  0  0  0  0  0  0  0  0
   26.6003  -20.3029   -7.4583 C   0  0  0  0  0  0  0  0  0  0  0  0
   25.6768  -20.8486   -6.6077 C   0  0  0  0  0  0  0  0  0  0  0  0
   26.0990  -20.7384   -5.3175 N   0  0  0  0  0  0  0  0  0  0  0  0
   27.2930  -20.1232   -5.3209 C   0  0  0  0  0  0  0  0  0  0  0  0
   28.1780  -19.7469   -4.3044 C   0  0  0  0  0  0  0  0  0  0  0  0
   29.3645  -19.1073   -4.5893 C   0  0  0  0  0  0  0  0  0  0  0  0
   29.6909  -18.8298   -5.9109 C   0  0  0  0  0  0  0  0  0  0  0  0
   28.8203  -19.2026   -6.8805 C   0  0  0  0  0  0  0  0  0  0  0  0
   27.6205  -19.8457   -6.6294 C   0  0  0  0  0  0  0  0  0  0  0  0
   24.2928  -20.8032   -9.1434 C   0  0  0  0  0  0  0  0  0  0  0  0
   23.9253  -21.3136   -7.9320 O   0  0  0  0  0  0  0  0  0  0  0  0
   23.4506  -20.1791   -9.8347 O   0  0  0  0  0  0  0  0  0  0  0  0
  2  1  1  6
  2  6  1  0
  3  4  1  0
  3  2  1  0
  4  5  2  0
  6  7  2  0
  8  4  1  0
 10 11  2  0
 10  9  1  0
 12 10  1  0
 13 12  1  0
 14 13  1  1
 14 16  1  0
 15  6  1  0
 15 14  1  0
 16 17  2  0
 18 16  1  0
 19 30  1  0
 19 18  1  0
 19 20  1  1
 21 20  1  0
 21 29  1  0
 22 23  1  0
 22 21  2  0
 23 24  1  0
 24 29  2  0
 24 25  1  0
 25 26  2  0
 26 27  1  0
 28 27  2  0
 29 28  1  0
 30 31  1  0
 32 30  2  0
M  END
$$$$
