DQW.pdb
     RDKit          3D

 32 33  0  0  1  0  0  0  0  0999 V2000
   29.3012  -20.6854  -17.7066 N   0  0  0  0  0  0  0  0  0  0  0  0
   28.8134  -21.5934  -16.6894 C   0  0  1  0  0  0  0  0  0  0  0  0
   29.9682  -22.3513  -16.1185 C   0  0  0  0  0  0  0  0  0  0  0  0
   30.4460  -23.4119  -17.0454 C   0  0  0  0  0  0  0  0  0  0  0  0
   29.8596  -23.5018  -18.1537 O   0  0  0  0  0  0  0  0  0  0  0  0
   28.1116  -20.8355  -15.6086 C   0  0  0  0  0  0  0  0  0  0  0  0
   28.6403  -19.8603  -15.0505 O   0  0  0  0  0  0  0  0  0  0  0  0
   31.4854  -24.2671  -16.7161 O   0  0  0  0  0  0  0  0  0  0  0  0
   21.7517  -20.3177  -15.3118 N   0  0  0  0  0  0  0  0  0  0  0  0
   22.2109  -19.8048  -14.0886 C   0  0  0  0  0  0  0  0  0  0  0  0
   21.3877  -19.2644  -13.3080 O   0  0  0  0  0  0  0  0  0  0  0  0
   23.6266  -19.8760  -13.6802 C   0  0  0  0  0  0  0  0  0  0  0  0
   24.5312  -20.5192  -14.6629 C   0  0  0  0  0  0  0  0  0  0  0  0
   25.9825  -20.6163  -14.2320 C   0  0  2  0  0  0  0  0  0  0  0  0
   26.8216  -21.2509  -15.2260 N   0  0  0  0  0  0  0  0  0  0  0  0
   26.0385  -21.3164  -12.9414 C   0  0  0  0  0  0  0  0  0  0  0  0
   25.9425  -22.5507  -12.8915 O   0  0  0  0  0  0  0  0  0  0  0  0
   26.2066  -20.5715  -11.7442 N   0  0  0  0  0  0  0  0  0  0  0  0
   26.0470  -21.1897  -10.4532 C   0  0  1  0  0  0  0  0  0  0  0  0
   27.2655  -21.0625   -9.6257 C   0  0  0  0  0  0  0  0  0  0  0  0
   27.0202  -20.4216   -8.3264 C   0  0  0  0  0  0  0  0  0  0  0  0
   25.9294  -19.8166   -7.7621 C   0  0  0  0  0  0  0  0  0  0  0  0
   26.2332  -19.3624   -6.5145 N   0  0  0  0  0  0  0  0  0  0  0  0
   27.5166  -19.6671   -6.2612 C   0  0  0  0  0  0  0  0  0  0  0  0
   28.3530  -19.4463   -5.1612 C   0  0  0  0  0  0  0  0  0  0  0  0
   29.6644  -19.8684   -5.1636 C   0  0  0  0  0  0  0  0  0  0  0  0
   30.1684  -20.5266   -6.2785 C   0  0  0  0  0  0  0  0  0  0  0  0
   29.3420  -20.7306   -7.3332 C   0  0  0  0  0  0  0  0  0  0  0  0
   28.0206  -20.3195   -7.3642 C   0  0  0  0  0  0  0  0  0  0  0  0
   24.8289  -20.6686   -9.7516 C   0  0  0  0  0  0  0  0  0  0  0  0
   24.3240  -21.3324   -8.6710 O   0  0  0  0  0  0  0  0  0  0  0  0
   24.2679  -19.6191  -10.1523 O   0  0  0  0  0  0  0  0  0  0  0  0
  2  1  1  6
  2  6  1  0
  3  4  1  0
  3  2  1  0
  4  5  2  0
  6  7  2  0
  8  4  1  0
 10 11  2  0
 10  9  1  0
 12 10  1  0
 13 12  1  0
 14 13  1  6
 14 16  1  0
 15  6  1  0
 15 14  1  0
 16 17  2  0
 18 16  1  0
 19 30  1  0
 19 18  1  0
 19 20  1  1
 21 20  1  0
 21 29  1  0
 22 23  1  0
 22 21  2  0
 23 24  1  0
 24 29  2  0
 24 25  1  0
 25 26  2  0
 26 27  1  0
 28 27  2  0
 29 28  1  0
 30 31  1  0
 32 30  2  0
M  END
$$$$
