DQW.pdb
     RDKit          3D

 32 33  0  0  1  0  0  0  0  0999 V2000
   22.5365  -16.7804  -16.8460 N   0  0  0  0  0  0  0  0  0  0  0  0
   23.6563  -17.5566  -16.3553 C   0  0  1  0  0  0  0  0  0  0  0  0
   24.9033  -16.7411  -16.4736 C   0  0  0  0  0  0  0  0  0  0  0  0
   25.3974  -16.6865  -17.8754 C   0  0  0  0  0  0  0  0  0  0  0  0
   24.6205  -17.1133  -18.7668 O   0  0  0  0  0  0  0  0  0  0  0  0
   23.4327  -17.9493  -14.9302 C   0  0  0  0  0  0  0  0  0  0  0  0
   23.1157  -17.1137  -14.0681 O   0  0  0  0  0  0  0  0  0  0  0  0
   26.6513  -16.1927  -18.1978 O   0  0  0  0  0  0  0  0  0  0  0  0
   20.1503  -20.1035  -11.7253 N   0  0  0  0  0  0  0  0  0  0  0  0
   21.0097  -21.0681  -11.1767 C   0  0  0  0  0  0  0  0  0  0  0  0
   20.7978  -21.4772  -10.0075 O   0  0  0  0  0  0  0  0  0  0  0  0
   22.1557  -21.6243  -11.9206 C   0  0  0  0  0  0  0  0  0  0  0  0
   22.3980  -21.0118  -13.2487 C   0  0  0  0  0  0  0  0  0  0  0  0
   23.3907  -19.8647  -13.2552 C   0  0  2  0  0  0  0  0  0  0  0  0
   23.5899  -19.3027  -14.5741 N   0  0  0  0  0  0  0  0  0  0  0  0
   24.6511  -20.3372  -12.6661 C   0  0  0  0  0  0  0  0  0  0  0  0
   25.4065  -21.0788  -13.3099 O   0  0  0  0  0  0  0  0  0  0  0  0
   25.0054  -19.9376  -11.3503 N   0  0  0  0  0  0  0  0  0  0  0  0
   26.2015  -20.4315  -10.7180 C   0  0  1  0  0  0  0  0  0  0  0  0
   26.4400  -19.7879   -9.4086 C   0  0  0  0  0  0  0  0  0  0  0  0
   27.6209  -20.3138   -8.7101 C   0  0  0  0  0  0  0  0  0  0  0  0
   28.7347  -20.9966   -9.1194 C   0  0  0  0  0  0  0  0  0  0  0  0
   29.5394  -21.2701   -8.0551 N   0  0  0  0  0  0  0  0  0  0  0  0
   28.9569  -20.7700   -6.9530 C   0  0  0  0  0  0  0  0  0  0  0  0
   29.3194  -20.7575   -5.6014 C   0  0  0  0  0  0  0  0  0  0  0  0
   28.5169  -20.1653   -4.6510 C   0  0  0  0  0  0  0  0  0  0  0  0
   27.3244  -19.5678   -5.0398 C   0  0  0  0  0  0  0  0  0  0  0  0
   26.9918  -19.5906   -6.3534 C   0  0  0  0  0  0  0  0  0  0  0  0
   27.7738  -20.1770   -7.3336 C   0  0  0  0  0  0  0  0  0  0  0  0
   26.1818  -21.9273  -10.6188 C   0  0  0  0  0  0  0  0  0  0  0  0
   27.3019  -22.6485  -10.9158 O   0  0  0  0  0  0  0  0  0  0  0  0
   25.1367  -22.5243  -10.2607 O   0  0  0  0  0  0  0  0  0  0  0  0
  2  1  1  1
  2  6  1  0
  3  4  1  0
  3  2  1  0
  4  5  2  0
  6  7  2  0
  8  4  1  0
 10 11  2  0
 10  9  1  0
 12 10  1  0
 13 12  1  0
 14 13  1  6
 14 16  1  0
 15  6  1  0
 15 14  1  0
 16 17  2  0
 18 16  1  0
 19 30  1  0
 19 18  1  0
 19 20  1  1
 21 20  1  0
 21 29  1  0
 22 23  1  0
 22 21  2  0
 23 24  1  0
 24 29  2  0
 24 25  1  0
 25 26  2  0
 26 27  1  0
 28 27  2  0
 29 28  1  0
 30 31  1  0
 32 30  2  0
M  END
$$$$
