DQW.pdb
     RDKit          3D

 32 33  0  0  1  0  0  0  0  0999 V2000
   23.2625  -19.3921  -16.8740 N   0  0  0  0  0  0  0  0  0  0  0  0
   24.1807  -18.4198  -16.3185 C   0  0  1  0  0  0  0  0  0  0  0  0
   23.7732  -17.0534  -16.7665 C   0  0  0  0  0  0  0  0  0  0  0  0
   23.7752  -16.9341  -18.2491 C   0  0  0  0  0  0  0  0  0  0  0  0
   24.8046  -17.3362  -18.8483 O   0  0  0  0  0  0  0  0  0  0  0  0
   24.1760  -18.4935  -14.8253 C   0  0  0  0  0  0  0  0  0  0  0  0
   24.7755  -17.6559  -14.1317 O   0  0  0  0  0  0  0  0  0  0  0  0
   22.7020  -16.4063  -18.9489 O   0  0  0  0  0  0  0  0  0  0  0  0
   20.5003  -19.2935  -11.0144 N   0  0  0  0  0  0  0  0  0  0  0  0
   21.2432  -20.2571  -10.3146 C   0  0  0  0  0  0  0  0  0  0  0  0
   21.0568  -20.3898   -9.0789 O   0  0  0  0  0  0  0  0  0  0  0  0
   22.2370  -21.1250  -10.9741 C   0  0  0  0  0  0  0  0  0  0  0  0
   22.4106  -20.8880  -12.4271 C   0  0  0  0  0  0  0  0  0  0  0  0
   23.4242  -19.8180  -12.7865 C   0  0  2  0  0  0  0  0  0  0  0  0
   23.4709  -19.5440  -14.2070 N   0  0  0  0  0  0  0  0  0  0  0  0
   24.7358  -20.2259  -12.2648 C   0  0  0  0  0  0  0  0  0  0  0  0
   25.4208  -21.0617  -12.8709 O   0  0  0  0  0  0  0  0  0  0  0  0
   25.2211  -19.6549  -11.0586 N   0  0  0  0  0  0  0  0  0  0  0  0
   26.5440  -19.9521  -10.5728 C   0  0  1  0  0  0  0  0  0  0  0  0
   26.8716  -19.1800   -9.3554 C   0  0  0  0  0  0  0  0  0  0  0  0
   26.7017  -19.9511   -8.1161 C   0  0  0  0  0  0  0  0  0  0  0  0
   25.8541  -20.9573   -7.7380 C   0  0  0  0  0  0  0  0  0  0  0  0
   26.1013  -21.3250   -6.4500 N   0  0  0  0  0  0  0  0  0  0  0  0
   27.1056  -20.5640   -5.9850 C   0  0  0  0  0  0  0  0  0  0  0  0
   27.7638  -20.4979   -4.7518 C   0  0  0  0  0  0  0  0  0  0  0  0
   28.7841  -19.5985   -4.5327 C   0  0  0  0  0  0  0  0  0  0  0  0
   29.1689  -18.7396   -5.5546 C   0  0  0  0  0  0  0  0  0  0  0  0
   28.5191  -18.8196   -6.7413 C   0  0  0  0  0  0  0  0  0  0  0  0
   27.4903  -19.7104   -6.9948 C   0  0  0  0  0  0  0  0  0  0  0  0
   26.7282  -21.4268  -10.3750 C   0  0  0  0  0  0  0  0  0  0  0  0
   27.9834  -21.9622  -10.3428 O   0  0  0  0  0  0  0  0  0  0  0  0
   25.7305  -22.1765  -10.2365 O   0  0  0  0  0  0  0  0  0  0  0  0
  2  1  1  6
  2  6  1  0
  3  4  1  0
  3  2  1  0
  4  5  2  0
  6  7  2  0
  8  4  1  0
 10 11  2  0
 10  9  1  0
 12 10  1  0
 13 12  1  0
 14 13  1  6
 14 16  1  0
 15  6  1  0
 15 14  1  0
 16 17  2  0
 18 16  1  0
 19 30  1  0
 19 18  1  0
 19 20  1  1
 21 20  1  0
 21 29  1  0
 22 23  1  0
 22 21  2  0
 23 24  1  0
 24 29  2  0
 24 25  1  0
 25 26  2  0
 26 27  1  0
 28 27  2  0
 29 28  1  0
 30 31  1  0
 32 30  2  0
M  END
$$$$
