DQW.pdb
     RDKit          3D

 32 33  0  0  1  0  0  0  0  0999 V2000
   32.8499  -28.9162  -19.7376 N   0  0  0  0  0  0  0  0  0  0  0  0
   33.3155  -30.0185  -20.5533 C   0  0  1  0  0  0  0  0  0  0  0  0
   34.7036  -29.7247  -21.0230 C   0  0  0  0  0  0  0  0  0  0  0  0
   34.7058  -28.8838  -22.2499 C   0  0  0  0  0  0  0  0  0  0  0  0
   34.1263  -29.3554  -23.2608 O   0  0  0  0  0  0  0  0  0  0  0  0
   33.2973  -31.2907  -19.7683 C   0  0  0  0  0  0  0  0  0  0  0  0
   33.9919  -32.2665  -20.0963 O   0  0  0  0  0  0  0  0  0  0  0  0
   35.3142  -27.6394  -22.2911 O   0  0  0  0  0  0  0  0  0  0  0  0
   35.1053  -33.0489  -14.5620 N   0  0  0  0  0  0  0  0  0  0  0  0
   35.1181  -31.8214  -15.2426 C   0  0  0  0  0  0  0  0  0  0  0  0
   35.7437  -30.8539  -14.7408 O   0  0  0  0  0  0  0  0  0  0  0  0
   34.4250  -31.6206  -16.5292 C   0  0  0  0  0  0  0  0  0  0  0  0
   33.6849  -32.8019  -17.0338 C   0  0  0  0  0  0  0  0  0  0  0  0
   32.3705  -32.4894  -17.7237 C   0  0  2  0  0  0  0  0  0  0  0  0
   32.4672  -31.3677  -18.6334 N   0  0  0  0  0  0  0  0  0  0  0  0
   31.3452  -32.2716  -16.6940 C   0  0  0  0  0  0  0  0  0  0  0  0
   31.3798  -31.2621  -15.9764 O   0  0  0  0  0  0  0  0  0  0  0  0
   30.3065  -33.2247  -16.5235 N   0  0  0  0  0  0  0  0  0  0  0  0
   29.3065  -33.0622  -15.4998 C   0  0  1  0  0  0  0  0  0  0  0  0
   27.9362  -33.1601  -16.0460 C   0  0  0  0  0  0  0  0  0  0  0  0
   27.5327  -31.9759  -16.8166 C   0  0  0  0  0  0  0  0  0  0  0  0
   28.1931  -31.1346  -17.6712 C   0  0  0  0  0  0  0  0  0  0  0  0
   27.3528  -30.1609  -18.1196 N   0  0  0  0  0  0  0  0  0  0  0  0
   26.1474  -30.3616  -17.5620 C   0  0  0  0  0  0  0  0  0  0  0  0
   24.9264  -29.6841  -17.6537 C   0  0  0  0  0  0  0  0  0  0  0  0
   23.8182  -30.1093  -16.9544 C   0  0  0  0  0  0  0  0  0  0  0  0
   23.9121  -31.2325  -16.1423 C   0  0  0  0  0  0  0  0  0  0  0  0
   25.1035  -31.8745  -16.0675 C   0  0  0  0  0  0  0  0  0  0  0  0
   26.2360  -31.4742  -16.7554 C   0  0  0  0  0  0  0  0  0  0  0  0
   29.5339  -34.0165  -14.3661 C   0  0  0  0  0  0  0  0  0  0  0  0
   28.7690  -33.9356  -13.2385 O   0  0  0  0  0  0  0  0  0  0  0  0
   30.4269  -34.8955  -14.4480 O   0  0  0  0  0  0  0  0  0  0  0  0
  2  1  1  1
  2  6  1  0
  3  4  1  0
  3  2  1  0
  4  5  2  0
  6  7  2  0
  8  4  1  0
 10 11  2  0
 10  9  1  0
 12 10  1  0
 13 12  1  0
 14 13  1  1
 14 16  1  0
 15  6  1  0
 15 14  1  0
 16 17  2  0
 18 16  1  0
 19 30  1  0
 19 18  1  0
 19 20  1  6
 21 20  1  0
 21 29  1  0
 22 23  1  0
 22 21  2  0
 23 24  1  0
 24 29  2  0
 24 25  1  0
 25 26  2  0
 26 27  1  0
 28 27  2  0
 29 28  1  0
 30 31  1  0
 32 30  2  0
M  END
$$$$
