DQW.pdb
     RDKit          3D

 32 33  0  0  1  0  0  0  0  0999 V2000
   19.5578  -10.4591  -16.1408 N   0  0  0  0  0  0  0  0  0  0  0  0
   19.0145   -9.1276  -16.3113 C   0  0  1  0  0  0  0  0  0  0  0  0
   18.6398   -8.9343  -17.7453 C   0  0  0  0  0  0  0  0  0  0  0  0
   19.8378   -8.8157  -18.6187 C   0  0  0  0  0  0  0  0  0  0  0  0
   20.3429   -9.8886  -19.0361 O   0  0  0  0  0  0  0  0  0  0  0  0
   17.8164   -8.9386  -15.4373 C   0  0  0  0  0  0  0  0  0  0  0  0
   17.1396   -7.8982  -15.4788 O   0  0  0  0  0  0  0  0  0  0  0  0
   20.3822   -7.5888  -18.9630 O   0  0  0  0  0  0  0  0  0  0  0  0
   16.4846  -14.1964  -13.2792 N   0  0  0  0  0  0  0  0  0  0  0  0
   15.5697  -13.6577  -14.1973 C   0  0  0  0  0  0  0  0  0  0  0  0
   15.0019  -14.4268  -15.0129 O   0  0  0  0  0  0  0  0  0  0  0  0
   15.2455  -12.2194  -14.2428 C   0  0  0  0  0  0  0  0  0  0  0  0
   15.9327  -11.3891  -13.2249 C   0  0  0  0  0  0  0  0  0  0  0  0
   16.3047   -9.9911  -13.6814 C   0  0  2  0  0  0  0  0  0  0  0  0
   17.4611   -9.9742  -14.5516 N   0  0  0  0  0  0  0  0  0  0  0  0
   16.5028   -9.1510  -12.4923 C   0  0  0  0  0  0  0  0  0  0  0  0
   17.6152   -9.0799  -11.9514 O   0  0  0  0  0  0  0  0  0  0  0  0
   15.4108   -8.4139  -11.9624 N   0  0  0  0  0  0  0  0  0  0  0  0
   15.5298   -7.6945  -10.7204 C   0  0  1  0  0  0  0  0  0  0  0  0
   14.4522   -6.6961  -10.5551 C   0  0  0  0  0  0  0  0  0  0  0  0
   14.5799   -5.9027   -9.3249 C   0  0  0  0  0  0  0  0  0  0  0  0
   15.4777   -4.9626   -8.8958 C   0  0  0  0  0  0  0  0  0  0  0  0
   15.1510   -4.5328   -7.6453 N   0  0  0  0  0  0  0  0  0  0  0  0
   14.0450   -5.1875   -7.2554 C   0  0  0  0  0  0  0  0  0  0  0  0
   13.2766   -5.1554   -6.0863 C   0  0  0  0  0  0  0  0  0  0  0  0
   12.1641   -5.9546   -5.9394 C   0  0  0  0  0  0  0  0  0  0  0  0
   11.7958   -6.8095   -6.9707 C   0  0  0  0  0  0  0  0  0  0  0  0
   12.5531   -6.8254   -8.0945 C   0  0  0  0  0  0  0  0  0  0  0  0
   13.6764   -6.0367   -8.2749 C   0  0  0  0  0  0  0  0  0  0  0  0
   15.6130   -8.6360   -9.5567 C   0  0  0  0  0  0  0  0  0  0  0  0
   16.4614   -8.3715   -8.5206 O   0  0  0  0  0  0  0  0  0  0  0  0
   14.9026   -9.6710   -9.5276 O   0  0  0  0  0  0  0  0  0  0  0  0
  2  1  1  6
  2  6  1  0
  3  4  1  0
  3  2  1  0
  4  5  2  0
  6  7  2  0
  8  4  1  0
 10 11  2  0
 10  9  1  0
 12 10  1  0
 13 12  1  0
 14 13  1  1
 14 16  1  0
 15  6  1  0
 15 14  1  0
 16 17  2  0
 18 16  1  0
 19 30  1  0
 19 18  1  0
 19 20  1  1
 21 20  1  0
 21 29  1  0
 22 23  1  0
 22 21  2  0
 23 24  1  0
 24 29  2  0
 24 25  1  0
 25 26  2  0
 26 27  1  0
 28 27  2  0
 29 28  1  0
 30 31  1  0
 32 30  2  0
M  END
$$$$
