HPR.pdb
     RDKit          3D

 29 30  0  0  1  0  0  0  0  0999 V2000
    9.8661  -14.2797   21.0542 N   0  0  0  0  0  0  0  0  0  0  0  0
    8.7163  -14.0493   21.9547 C   0  0  1  0  0  0  0  0  0  0  0  0
    7.6046  -14.9358   21.4328 C   0  0  0  0  0  0  0  0  0  0  0  0
    7.3662  -14.6849   19.9869 C   0  0  0  0  0  0  0  0  0  0  0  0
    6.9970  -13.4906   19.3724 C   0  0  0  0  0  0  0  0  0  0  0  0
    6.8858  -13.6839   18.0473 N   0  0  0  0  0  0  0  0  0  0  0  0
    7.1735  -14.9561   17.8221 C   0  0  0  0  0  0  0  0  0  0  0  0
    7.4676  -15.5789   18.9892 N   0  0  0  0  0  0  0  0  0  0  0  0
    9.0959  -14.3432   23.3510 C   0  0  0  0  0  0  0  0  0  0  0  0
   10.0562  -15.1468   23.5557 O   0  0  0  0  0  0  0  0  0  0  0  0
    8.3940  -13.7308   24.4072 N   0  0  0  0  0  0  0  0  0  0  0  0
    6.9908  -13.3870   24.4165 C   0  0  0  0  0  0  0  0  0  0  0  0
    6.9173  -12.1117   25.2589 C   0  0  0  0  0  0  0  0  0  0  0  0
    8.2002  -12.0901   26.0359 C   0  0  0  0  0  0  0  0  0  0  0  0
    8.9765  -13.3266   25.6665 C   0  0  1  0  0  0  0  0  0  0  0  0
    8.8759  -14.3887   26.7005 C   0  0  0  0  0  0  0  0  0  0  0  0
    7.8292  -15.0716   26.8310 O   0  0  0  0  0  0  0  0  0  0  0  0
   14.5999  -20.5487   29.4957 N   0  0  0  0  0  0  0  0  0  0  0  0
   13.4856  -20.5800   30.3791 C   0  0  0  0  0  0  0  0  0  0  0  0
   13.4887  -21.4624   31.3412 N   0  0  0  0  0  0  0  0  0  0  0  0
   12.3892  -19.6993   30.2514 N   0  0  0  0  0  0  0  0  0  0  0  0
   12.3453  -18.6342   29.2143 C   0  0  0  0  0  0  0  0  0  0  0  0
   11.1711  -17.7659   29.4229 C   0  0  0  0  0  0  0  0  0  0  0  0
   10.8628  -16.6784   28.5213 C   0  0  0  0  0  0  0  0  0  0  0  0
    9.7685  -15.6982   28.6893 C   0  0  2  0  0  0  0  0  0  0  0  0
    9.9460  -14.6784   27.5788 N   0  0  0  0  0  0  0  0  0  0  0  0
    9.7548  -14.8914   29.9135 C   0  0  0  0  0  0  0  0  0  0  0  0
   10.0412  -13.6908   29.9556 O   0  0  0  0  0  0  0  0  0  0  0  0
    9.3895  -15.5191   31.1392 O   0  0  0  0  0  0  0  0  0  0  0  0
  2  1  1  6
  2  3  1  0
  3  4  1  0
  4  8  1  0
  5  4  2  0
  5  6  1  0
  6  7  1  0
  8  7  2  0
  9  2  1  0
  9 10  2  0
 11  9  1  0
 12 11  1  0
 13 12  1  0
 14 15  1  0
 14 13  1  0
 15 11  1  0
 15 16  1  1
 16 17  2  0
 19 18  1  0
 20 19  2  0
 21 19  1  0
 22 21  1  0
 23 22  1  0
 25 24  1  1
 24 23  1  0
 25 26  1  0
 26 16  1  0
 27 25  1  0
 28 27  2  0
 29 27  1  0
M  END
$$$$
