HPR.pdb
     RDKit          3D

 29 30  0  0  1  0  0  0  0  0999 V2000
    9.7725  -13.8785   21.5571 N   0  0  0  0  0  0  0  0  0  0  0  0
    8.6111  -13.7862   22.4674 C   0  0  1  0  0  0  0  0  0  0  0  0
    7.5261  -14.6310   21.8323 C   0  0  0  0  0  0  0  0  0  0  0  0
    7.3351  -14.2571   20.4061 C   0  0  0  0  0  0  0  0  0  0  0  0
    7.1837  -12.9822   19.8658 C   0  0  0  0  0  0  0  0  0  0  0  0
    7.0389  -13.0745   18.5330 N   0  0  0  0  0  0  0  0  0  0  0  0
    7.0957  -14.3620   18.2315 C   0  0  0  0  0  0  0  0  0  0  0  0
    7.2753  -15.0947   19.3573 N   0  0  0  0  0  0  0  0  0  0  0  0
    8.9888  -14.2359   23.8222 C   0  0  0  0  0  0  0  0  0  0  0  0
   10.0277  -14.9530   23.9488 O   0  0  0  0  0  0  0  0  0  0  0  0
    8.1987  -13.8609   24.9259 N   0  0  0  0  0  0  0  0  0  0  0  0
    6.7746  -13.6178   24.9159 C   0  0  0  0  0  0  0  0  0  0  0  0
    6.5701  -12.5129   25.9545 C   0  0  0  0  0  0  0  0  0  0  0  0
    7.8136  -12.5389   26.7931 C   0  0  0  0  0  0  0  0  0  0  0  0
    8.6952  -13.6397   26.2650 C   0  0  1  0  0  0  0  0  0  0  0  0
    8.6305  -14.8670   27.0997 C   0  0  0  0  0  0  0  0  0  0  0  0
    7.5772  -15.5486   27.1728 O   0  0  0  0  0  0  0  0  0  0  0  0
   13.3979  -19.7164   23.4335 N   0  0  0  0  0  0  0  0  0  0  0  0
   11.9838  -19.8514   23.3617 C   0  0  0  0  0  0  0  0  0  0  0  0
   11.4867  -20.6273   22.4370 N   0  0  0  0  0  0  0  0  0  0  0  0
   11.1103  -19.1819   24.2465 N   0  0  0  0  0  0  0  0  0  0  0  0
   11.5941  -18.1685   25.2216 C   0  0  0  0  0  0  0  0  0  0  0  0
   10.4870  -17.7257   26.0902 C   0  0  0  0  0  0  0  0  0  0  0  0
   10.6778  -17.4992   27.5054 C   0  0  0  0  0  0  0  0  0  0  0  0
    9.7701  -16.7383   28.3907 C   0  0  2  0  0  0  0  0  0  0  0  0
    9.7432  -15.3220   27.8448 N   0  0  0  0  0  0  0  0  0  0  0  0
   10.1638  -16.5711   29.7931 C   0  0  0  0  0  0  0  0  0  0  0  0
   10.1704  -17.4841   30.6247 O   0  0  0  0  0  0  0  0  0  0  0  0
   10.5666  -15.2790   30.2384 O   0  0  0  0  0  0  0  0  0  0  0  0
  2  1  1  6
  2  3  1  0
  3  4  1  0
  4  8  1  0
  5  4  2  0
  5  6  1  0
  6  7  1  0
  8  7  2  0
  9  2  1  0
  9 10  2  0
 11  9  1  0
 12 11  1  0
 13 12  1  0
 14 15  1  0
 14 13  1  0
 15 11  1  0
 15 16  1  1
 16 17  2  0
 19 18  1  0
 20 19  2  0
 21 19  1  0
 22 21  1  0
 23 22  1  0
 25 24  1  6
 24 23  1  0
 25 26  1  0
 26 16  1  0
 27 25  1  0
 28 27  2  0
 29 27  1  0
M  END
$$$$
