HPR.pdb
     RDKit          3D

 29 30  0  0  1  0  0  0  0  0999 V2000
   10.7837  -15.4069   16.2819 N   0  0  0  0  0  0  0  0  0  0  0  0
    9.6624  -14.9469   17.1288 C   0  0  1  0  0  0  0  0  0  0  0  0
    8.5049  -15.8707   16.8110 C   0  0  0  0  0  0  0  0  0  0  0  0
    8.1332  -15.7739   15.3747 C   0  0  0  0  0  0  0  0  0  0  0  0
    7.8694  -16.8122   14.4845 C   0  0  0  0  0  0  0  0  0  0  0  0
    7.5673  -16.3027   13.2783 N   0  0  0  0  0  0  0  0  0  0  0  0
    7.6354  -14.9858   13.3928 C   0  0  0  0  0  0  0  0  0  0  0  0
    7.9778  -14.6473   14.6595 N   0  0  0  0  0  0  0  0  0  0  0  0
   10.0570  -14.9672   18.5515 C   0  0  0  0  0  0  0  0  0  0  0  0
   11.2037  -15.4206   18.8501 O   0  0  0  0  0  0  0  0  0  0  0  0
    9.1640  -14.4868   19.5287 N   0  0  0  0  0  0  0  0  0  0  0  0
    7.8259  -13.9937   19.2970 C   0  0  0  0  0  0  0  0  0  0  0  0
    7.6370  -12.8980   20.3482 C   0  0  0  0  0  0  0  0  0  0  0  0
    8.6937  -13.1675   21.3782 C   0  0  0  0  0  0  0  0  0  0  0  0
    9.4519  -14.3933   20.9419 C   0  0  1  0  0  0  0  0  0  0  0  0
    9.0349  -15.6112   21.6836 C   0  0  0  0  0  0  0  0  0  0  0  0
    7.9007  -16.1229   21.5076 O   0  0  0  0  0  0  0  0  0  0  0  0
   13.7891  -19.4742   18.7584 N   0  0  0  0  0  0  0  0  0  0  0  0
   13.9297  -19.1361   20.1328 C   0  0  0  0  0  0  0  0  0  0  0  0
   14.6368  -18.0818   20.4371 N   0  0  0  0  0  0  0  0  0  0  0  0
   13.3371  -19.8939   21.1665 N   0  0  0  0  0  0  0  0  0  0  0  0
   11.8635  -19.9580   21.3570 C   0  0  0  0  0  0  0  0  0  0  0  0
   11.4114  -18.8521   22.2222 C   0  0  0  0  0  0  0  0  0  0  0  0
   10.0101  -18.6344   22.5042 C   0  0  0  0  0  0  0  0  0  0  0  0
    9.4503  -17.5251   23.3058 C   0  0  2  0  0  0  0  0  0  0  0  0
    9.8891  -16.2465   22.6147 N   0  0  0  0  0  0  0  0  0  0  0  0
    9.9286  -17.3668   24.6827 C   0  0  0  0  0  0  0  0  0  0  0  0
   10.5879  -16.4013   25.0807 O   0  0  0  0  0  0  0  0  0  0  0  0
    9.6205  -18.3833   25.6322 O   0  0  0  0  0  0  0  0  0  0  0  0
  2  1  1  6
  2  3  1  0
  3  4  1  0
  4  8  1  0
  5  4  2  0
  5  6  1  0
  6  7  1  0
  8  7  2  0
  9  2  1  0
  9 10  2  0
 11  9  1  0
 12 11  1  0
 13 12  1  0
 14 15  1  0
 14 13  1  0
 15 11  1  0
 15 16  1  1
 16 17  2  0
 19 18  1  0
 20 19  2  0
 21 19  1  0
 22 21  1  0
 23 22  1  0
 25 24  1  6
 24 23  1  0
 25 26  1  0
 26 16  1  0
 27 25  1  0
 28 27  2  0
 29 27  1  0
M  END
$$$$
