HPR.pdb
     RDKit          3D

 29 30  0  0  1  0  0  0  0  0999 V2000
    9.9186  -14.4487   21.2630 N   0  0  0  0  0  0  0  0  0  0  0  0
    8.7143  -14.0528   22.0239 C   0  0  1  0  0  0  0  0  0  0  0  0
    7.5414  -14.6422   21.2680 C   0  0  0  0  0  0  0  0  0  0  0  0
    7.4510  -14.0627   19.9018 C   0  0  0  0  0  0  0  0  0  0  0  0
    8.2352  -13.0566   19.3426 C   0  0  0  0  0  0  0  0  0  0  0  0
    7.8336  -12.8239   18.0815 N   0  0  0  0  0  0  0  0  0  0  0  0
    6.8285  -13.6514   17.8426 C   0  0  0  0  0  0  0  0  0  0  0  0
    6.5828  -14.4112   18.9375 N   0  0  0  0  0  0  0  0  0  0  0  0
    8.8136  -14.5283   23.4183 C   0  0  0  0  0  0  0  0  0  0  0  0
    9.7662  -15.3102   23.7195 O   0  0  0  0  0  0  0  0  0  0  0  0
    7.8629  -14.1059   24.3674 N   0  0  0  0  0  0  0  0  0  0  0  0
    6.7863  -13.1692   24.1420 C   0  0  0  0  0  0  0  0  0  0  0  0
    6.6326  -12.4379   25.4773 C   0  0  0  0  0  0  0  0  0  0  0  0
    7.3108  -13.3232   26.4805 C   0  0  0  0  0  0  0  0  0  0  0  0
    7.8192  -14.5359   25.7465 C   0  0  1  0  0  0  0  0  0  0  0  0
    6.9460  -15.7223   25.9393 C   0  0  0  0  0  0  0  0  0  0  0  0
    5.9694  -15.9409   25.1792 O   0  0  0  0  0  0  0  0  0  0  0  0
   10.6961  -19.5601   20.7431 N   0  0  0  0  0  0  0  0  0  0  0  0
   10.5088  -20.6257   21.6662 C   0  0  0  0  0  0  0  0  0  0  0  0
   10.9894  -21.7992   21.3560 N   0  0  0  0  0  0  0  0  0  0  0  0
    9.8282  -20.4588   22.8922 N   0  0  0  0  0  0  0  0  0  0  0  0
    9.2255  -19.1596   23.2931 C   0  0  0  0  0  0  0  0  0  0  0  0
    8.6745  -19.2514   24.6584 C   0  0  0  0  0  0  0  0  0  0  0  0
    8.0441  -18.1189   25.2993 C   0  0  0  0  0  0  0  0  0  0  0  0
    7.4503  -18.1103   26.6534 C   0  0  2  0  0  0  0  0  0  0  0  0
    7.1721  -16.6539   26.9791 N   0  0  0  0  0  0  0  0  0  0  0  0
    8.2833  -18.5708   27.7686 C   0  0  0  0  0  0  0  0  0  0  0  0
    9.2350  -17.9344   28.2318 O   0  0  0  0  0  0  0  0  0  0  0  0
    7.9875  -19.8303   28.3654 O   0  0  0  0  0  0  0  0  0  0  0  0
  2  1  1  6
  2  3  1  0
  3  4  1  0
  4  8  1  0
  5  4  2  0
  5  6  1  0
  6  7  1  0
  8  7  2  0
  9  2  1  0
  9 10  2  0
 11  9  1  0
 12 11  1  0
 13 12  1  0
 14 15  1  0
 14 13  1  0
 15 11  1  0
 15 16  1  6
 16 17  2  0
 19 18  1  0
 20 19  2  0
 21 19  1  0
 22 21  1  0
 23 22  1  0
 25 24  1  6
 24 23  1  0
 25 26  1  0
 26 16  1  0
 27 25  1  0
 28 27  2  0
 29 27  1  0
M  END
$$$$
