HPR.pdb
     RDKit          3D

 29 30  0  0  1  0  0  0  0  0999 V2000
    7.0799  -16.2029   25.6452 N   0  0  0  0  0  0  0  0  0  0  0  0
    7.7176  -15.2241   24.7390 C   0  0  1  0  0  0  0  0  0  0  0  0
    9.1872  -15.2249   25.1059 C   0  0  0  0  0  0  0  0  0  0  0  0
    9.3903  -14.6617   26.4668 C   0  0  0  0  0  0  0  0  0  0  0  0
    9.2201  -13.3438   26.8845 C   0  0  0  0  0  0  0  0  0  0  0  0
    9.5033  -13.2488   28.1947 N   0  0  0  0  0  0  0  0  0  0  0  0
    9.8424  -14.4621   28.6005 C   0  0  0  0  0  0  0  0  0  0  0  0
    9.7792  -15.3327   27.5638 N   0  0  0  0  0  0  0  0  0  0  0  0
    7.4629  -15.5916   23.3318 C   0  0  0  0  0  0  0  0  0  0  0  0
    6.8563  -16.6806   23.0960 O   0  0  0  0  0  0  0  0  0  0  0  0
    7.8916  -14.7347   22.2997 N   0  0  0  0  0  0  0  0  0  0  0  0
    8.4745  -13.4229   22.4632 C   0  0  0  0  0  0  0  0  0  0  0  0
    7.9864  -12.6354   21.2455 C   0  0  0  0  0  0  0  0  0  0  0  0
    7.5509  -13.6804   20.2614 C   0  0  0  0  0  0  0  0  0  0  0  0
    7.8019  -15.0270   20.8873 C   0  0  1  0  0  0  0  0  0  0  0  0
    9.0340  -15.6732   20.3663 C   0  0  0  0  0  0  0  0  0  0  0  0
   10.1739  -15.2526   20.6872 O   0  0  0  0  0  0  0  0  0  0  0  0
    8.7676  -13.4842   13.5358 N   0  0  0  0  0  0  0  0  0  0  0  0
    8.7437  -14.7865   12.9644 C   0  0  0  0  0  0  0  0  0  0  0  0
    8.2320  -14.9249   11.7714 N   0  0  0  0  0  0  0  0  0  0  0  0
    9.2486  -15.9210   13.6367 N   0  0  0  0  0  0  0  0  0  0  0  0
    8.8129  -16.2866   15.0109 C   0  0  0  0  0  0  0  0  0  0  0  0
    9.4695  -15.4155   16.0040 C   0  0  0  0  0  0  0  0  0  0  0  0
    9.2928  -15.6182   17.4247 C   0  0  0  0  0  0  0  0  0  0  0  0
    9.7803  -16.7785   18.2010 C   0  0  2  0  0  0  0  0  0  0  0  0
    8.9814  -16.7836   19.4920 N   0  0  0  0  0  0  0  0  0  0  0  0
   11.1768  -16.7648   18.6475 C   0  0  0  0  0  0  0  0  0  0  0  0
   11.6295  -15.9762   19.4832 O   0  0  0  0  0  0  0  0  0  0  0  0
   12.0796  -17.7159   18.0906 O   0  0  0  0  0  0  0  0  0  0  0  0
  2  1  1  1
  2  3  1  0
  3  4  1  0
  4  8  1  0
  5  4  2  0
  5  6  1  0
  6  7  1  0
  8  7  2  0
  9  2  1  0
  9 10  2  0
 11  9  1  0
 12 11  1  0
 13 12  1  0
 14 15  1  0
 14 13  1  0
 15 11  1  0
 15 16  1  6
 16 17  2  0
 19 18  1  0
 20 19  2  0
 21 19  1  0
 22 21  1  0
 23 22  1  0
 25 24  1  6
 24 23  1  0
 25 26  1  0
 26 16  1  0
 27 25  1  0
 28 27  2  0
 29 27  1  0
M  END
$$$$
