HPR.pdb
     RDKit          3D

 29 30  0  0  1  0  0  0  0  0999 V2000
    8.6551  -18.1916   17.8634 N   0  0  0  0  0  0  0  0  0  0  0  0
    7.6813  -17.5945   18.8021 C   0  0  1  0  0  0  0  0  0  0  0  0
    6.9145  -18.7602   19.3915 C   0  0  0  0  0  0  0  0  0  0  0  0
    5.8976  -18.2828   20.3654 C   0  0  0  0  0  0  0  0  0  0  0  0
    4.5171  -18.2060   20.1967 C   0  0  0  0  0  0  0  0  0  0  0  0
    3.9547  -17.7222   21.3172 N   0  0  0  0  0  0  0  0  0  0  0  0
    4.9401  -17.4976   22.1719 C   0  0  0  0  0  0  0  0  0  0  0  0
    6.1270  -17.8326   21.6103 N   0  0  0  0  0  0  0  0  0  0  0  0
    8.3831  -16.7806   19.8146 C   0  0  0  0  0  0  0  0  0  0  0  0
    9.4406  -17.2502   20.3348 O   0  0  0  0  0  0  0  0  0  0  0  0
    7.8696  -15.5187   20.1715 N   0  0  0  0  0  0  0  0  0  0  0  0
    6.6612  -14.9115   19.6634 C   0  0  0  0  0  0  0  0  0  0  0  0
    6.9705  -13.4132   19.6369 C   0  0  0  0  0  0  0  0  0  0  0  0
    8.1458  -13.2473   20.5542 C   0  0  0  0  0  0  0  0  0  0  0  0
    8.4866  -14.6060   21.1069 C   0  0  1  0  0  0  0  0  0  0  0  0
    7.9860  -14.7958   22.4927 C   0  0  0  0  0  0  0  0  0  0  0  0
    6.7900  -15.1114   22.7143 O   0  0  0  0  0  0  0  0  0  0  0  0
    7.1825  -21.4249   27.7584 N   0  0  0  0  0  0  0  0  0  0  0  0
    8.1343  -21.2882   26.7104 C   0  0  0  0  0  0  0  0  0  0  0  0
    8.3631  -22.3237   25.9490 N   0  0  0  0  0  0  0  0  0  0  0  0
    8.8318  -20.0844   26.4692 N   0  0  0  0  0  0  0  0  0  0  0  0
    8.4516  -19.1546   25.3724 C   0  0  0  0  0  0  0  0  0  0  0  0
    9.2831  -17.9371   25.4232 C   0  0  0  0  0  0  0  0  0  0  0  0
    9.0810  -16.8421   24.5010 C   0  0  0  0  0  0  0  0  0  0  0  0
    8.6187  -15.4836   24.8578 C   0  0  2  0  0  0  0  0  0  0  0  0
    8.8264  -14.6318   23.6184 N   0  0  0  0  0  0  0  0  0  0  0  0
    9.3486  -14.7665   25.9080 C   0  0  0  0  0  0  0  0  0  0  0  0
    9.0485  -14.7978   27.1056 O   0  0  0  0  0  0  0  0  0  0  0  0
   10.4776  -13.9803   25.5379 O   0  0  0  0  0  0  0  0  0  0  0  0
  2  1  1  6
  2  3  1  0
  3  4  1  0
  4  8  1  0
  5  4  2  0
  5  6  1  0
  6  7  1  0
  8  7  2  0
  9  2  1  0
  9 10  2  0
 11  9  1  0
 12 11  1  0
 13 12  1  0
 14 15  1  0
 14 13  1  0
 15 11  1  0
 15 16  1  1
 16 17  2  0
 19 18  1  0
 20 19  2  0
 21 19  1  0
 22 21  1  0
 23 22  1  0
 25 24  1  6
 24 23  1  0
 25 26  1  0
 26 16  1  0
 27 25  1  0
 28 27  2  0
 29 27  1  0
M  END
$$$$
