HPR.pdb
     RDKit          3D

 29 30  0  0  1  0  0  0  0  0999 V2000
    8.2036  -15.9785   20.2224 N   0  0  0  0  0  0  0  0  0  0  0  0
    7.5294  -15.7850   21.5240 C   0  0  1  0  0  0  0  0  0  0  0  0
    6.7788  -17.0732   21.7907 C   0  0  0  0  0  0  0  0  0  0  0  0
    5.8129  -17.3559   20.6963 C   0  0  0  0  0  0  0  0  0  0  0  0
    4.5577  -16.7879   20.4913 C   0  0  0  0  0  0  0  0  0  0  0  0
    4.0032  -17.3129   19.3855 N   0  0  0  0  0  0  0  0  0  0  0  0
    4.8724  -18.1854   18.9006 C   0  0  0  0  0  0  0  0  0  0  0  0
    5.9773  -18.2242   19.6844 N   0  0  0  0  0  0  0  0  0  0  0  0
    8.5210  -15.4558   22.5673 C   0  0  0  0  0  0  0  0  0  0  0  0
    9.7446  -15.6912   22.3284 O   0  0  0  0  0  0  0  0  0  0  0  0
    8.0905  -14.8936   23.7846 N   0  0  0  0  0  0  0  0  0  0  0  0
    6.7730  -14.3729   24.0683 C   0  0  0  0  0  0  0  0  0  0  0  0
    7.0223  -13.2146   25.0365 C   0  0  0  0  0  0  0  0  0  0  0  0
    8.3985  -13.4585   25.5812 C   0  0  0  0  0  0  0  0  0  0  0  0
    8.9144  -14.7299   24.9606 C   0  0  1  0  0  0  0  0  0  0  0  0
    8.8171  -15.8907   25.8828 C   0  0  0  0  0  0  0  0  0  0  0  0
    7.7030  -16.3820   26.1938 O   0  0  0  0  0  0  0  0  0  0  0  0
   15.3550  -19.9072   22.2668 N   0  0  0  0  0  0  0  0  0  0  0  0
   15.1566  -19.5526   23.6298 C   0  0  0  0  0  0  0  0  0  0  0  0
   16.0515  -19.9336   24.5006 N   0  0  0  0  0  0  0  0  0  0  0  0
   14.0371  -18.8113   24.0673 N   0  0  0  0  0  0  0  0  0  0  0  0
   12.7426  -19.4589   24.4091 C   0  0  0  0  0  0  0  0  0  0  0  0
   12.1208  -18.7811   25.5623 C   0  0  0  0  0  0  0  0  0  0  0  0
   10.6863  -18.6395   25.6753 C   0  0  0  0  0  0  0  0  0  0  0  0
    9.9665  -17.9733   26.7819 C   0  0  2  0  0  0  0  0  0  0  0  0
    9.9652  -16.4922   26.4487 N   0  0  0  0  0  0  0  0  0  0  0  0
   10.5615  -18.0356   28.1206 C   0  0  0  0  0  0  0  0  0  0  0  0
   11.0776  -17.0719   28.6952 O   0  0  0  0  0  0  0  0  0  0  0  0
   10.5505  -19.2802   28.8139 O   0  0  0  0  0  0  0  0  0  0  0  0
  2  1  1  6
  2  3  1  0
  3  4  1  0
  4  8  1  0
  5  4  2  0
  5  6  1  0
  6  7  1  0
  8  7  2  0
  9  2  1  0
  9 10  2  0
 11  9  1  0
 12 11  1  0
 13 12  1  0
 14 15  1  0
 14 13  1  0
 15 11  1  0
 15 16  1  1
 16 17  2  0
 19 18  1  0
 20 19  2  0
 21 19  1  0
 22 21  1  0
 23 22  1  0
 25 24  1  6
 24 23  1  0
 25 26  1  0
 26 16  1  0
 27 25  1  0
 28 27  2  0
 29 27  1  0
M  END
$$$$
