HPR.pdb
     RDKit          3D

 29 30  0  0  1  0  0  0  0  0999 V2000
    7.9732  -17.5735   19.3452 N   0  0  0  0  0  0  0  0  0  0  0  0
    8.9873  -16.6757   19.9383 C   0  0  1  0  0  0  0  0  0  0  0  0
    8.2107  -15.5206   20.5357 C   0  0  0  0  0  0  0  0  0  0  0  0
    7.6497  -14.6541   19.4657 C   0  0  0  0  0  0  0  0  0  0  0  0
    7.7527  -14.8181   18.0863 C   0  0  0  0  0  0  0  0  0  0  0  0
    7.1031  -13.8183   17.4663 N   0  0  0  0  0  0  0  0  0  0  0  0
    6.6027  -13.0427   18.4149 C   0  0  0  0  0  0  0  0  0  0  0  0
    6.9251  -13.5356   19.6354 N   0  0  0  0  0  0  0  0  0  0  0  0
    9.8019  -17.4101   20.9269 C   0  0  0  0  0  0  0  0  0  0  0  0
    9.2781  -18.4034   21.5173 O   0  0  0  0  0  0  0  0  0  0  0  0
   11.1232  -16.9970   21.1849 N   0  0  0  0  0  0  0  0  0  0  0  0
   11.8040  -15.8770   20.5771 C   0  0  0  0  0  0  0  0  0  0  0  0
   13.2647  -16.3235   20.4864 C   0  0  0  0  0  0  0  0  0  0  0  0
   13.3800  -17.4605   21.4581 C   0  0  0  0  0  0  0  0  0  0  0  0
   12.0316  -17.6464   22.1024 C   0  0  1  0  0  0  0  0  0  0  0  0
   11.9696  -17.0601   23.4662 C   0  0  0  0  0  0  0  0  0  0  0  0
   11.7178  -15.8411   23.6387 O   0  0  0  0  0  0  0  0  0  0  0  0
   13.0154  -20.9492   31.7930 N   0  0  0  0  0  0  0  0  0  0  0  0
   12.9700  -21.5600   30.5093 C   0  0  0  0  0  0  0  0  0  0  0  0
   12.8070  -22.8539   30.4498 N   0  0  0  0  0  0  0  0  0  0  0  0
   13.0941  -20.8223   29.3116 N   0  0  0  0  0  0  0  0  0  0  0  0
   12.0523  -19.8610   28.8617 C   0  0  0  0  0  0  0  0  0  0  0  0
   12.4263  -19.2735   27.5613 C   0  0  0  0  0  0  0  0  0  0  0  0
   11.5759  -18.3169   26.8889 C   0  0  0  0  0  0  0  0  0  0  0  0
   12.0328  -17.2246   26.0031 C   0  0  2  0  0  0  0  0  0  0  0  0
   12.1889  -17.8413   24.6246 N   0  0  0  0  0  0  0  0  0  0  0  0
   13.3435  -16.6263   26.2750 C   0  0  0  0  0  0  0  0  0  0  0  0
   14.3615  -16.8579   25.6153 O   0  0  0  0  0  0  0  0  0  0  0  0
   13.4649  -15.7184   27.3663 O   0  0  0  0  0  0  0  0  0  0  0  0
  2  1  1  1
  2  3  1  0
  3  4  1  0
  4  8  1  0
  5  4  2  0
  5  6  1  0
  6  7  1  0
  8  7  2  0
  9  2  1  0
  9 10  2  0
 11  9  1  0
 12 11  1  0
 13 12  1  0
 14 15  1  0
 14 13  1  0
 15 11  1  0
 15 16  1  1
 16 17  2  0
 19 18  1  0
 20 19  2  0
 21 19  1  0
 22 21  1  0
 23 22  1  0
 25 24  1  1
 24 23  1  0
 25 26  1  0
 26 16  1  0
 27 25  1  0
 28 27  2  0
 29 27  1  0
M  END
$$$$
