HPR.pdb
     RDKit          3D

 29 30  0  0  1  0  0  0  0  0999 V2000
   10.7043  -15.7633   16.2754 N   0  0  0  0  0  0  0  0  0  0  0  0
    9.6054  -16.0899   17.2091 C   0  0  1  0  0  0  0  0  0  0  0  0
    9.4885  -17.5999   17.1900 C   0  0  0  0  0  0  0  0  0  0  0  0
    8.3487  -18.0502   18.0319 C   0  0  0  0  0  0  0  0  0  0  0  0
    7.4030  -17.2652   18.6873 C   0  0  0  0  0  0  0  0  0  0  0  0
    6.5368  -18.0585   19.3402 N   0  0  0  0  0  0  0  0  0  0  0  0
    6.9149  -19.3060   19.1108 C   0  0  0  0  0  0  0  0  0  0  0  0
    8.0138  -19.3195   18.3179 N   0  0  0  0  0  0  0  0  0  0  0  0
    9.8947  -15.5397   18.5485 C   0  0  0  0  0  0  0  0  0  0  0  0
   11.0126  -15.8142   19.0817 O   0  0  0  0  0  0  0  0  0  0  0  0
    8.9365  -14.7324   19.1914 N   0  0  0  0  0  0  0  0  0  0  0  0
    7.6844  -14.2792   18.6310 C   0  0  0  0  0  0  0  0  0  0  0  0
    7.4675  -12.8977   19.2521 C   0  0  0  0  0  0  0  0  0  0  0  0
    8.3653  -12.8716   20.4536 C   0  0  0  0  0  0  0  0  0  0  0  0
    9.0598  -14.2055   20.5315 C   0  0  1  0  0  0  0  0  0  0  0  0
    8.4515  -15.1025   21.5477 C   0  0  0  0  0  0  0  0  0  0  0  0
    7.4977  -15.8658   21.2533 O   0  0  0  0  0  0  0  0  0  0  0  0
   15.2286  -18.9138   20.4534 N   0  0  0  0  0  0  0  0  0  0  0  0
   14.7130  -19.6133   21.5793 C   0  0  0  0  0  0  0  0  0  0  0  0
   15.3242  -20.7026   21.9588 N   0  0  0  0  0  0  0  0  0  0  0  0
   13.5754  -19.1742   22.2914 N   0  0  0  0  0  0  0  0  0  0  0  0
   12.7584  -18.0154   21.8426 C   0  0  0  0  0  0  0  0  0  0  0  0
   11.6538  -17.7714   22.7894 C   0  0  0  0  0  0  0  0  0  0  0  0
   10.6985  -16.7062   22.5817 C   0  0  0  0  0  0  0  0  0  0  0  0
    9.5346  -16.4066   23.4432 C   0  0  2  0  0  0  0  0  0  0  0  0
    8.9149  -15.1388   22.8835 N   0  0  0  0  0  0  0  0  0  0  0  0
    9.7902  -16.0856   24.8509 C   0  0  0  0  0  0  0  0  0  0  0  0
   10.1446  -16.9124   25.6970 O   0  0  0  0  0  0  0  0  0  0  0  0
    9.6231  -14.7385   25.2837 O   0  0  0  0  0  0  0  0  0  0  0  0
  2  1  1  6
  2  3  1  0
  3  4  1  0
  4  8  1  0
  5  4  2  0
  5  6  1  0
  6  7  1  0
  8  7  2  0
  9  2  1  0
  9 10  2  0
 11  9  1  0
 12 11  1  0
 13 12  1  0
 14 15  1  0
 14 13  1  0
 15 11  1  0
 15 16  1  1
 16 17  2  0
 19 18  1  0
 20 19  2  0
 21 19  1  0
 22 21  1  0
 23 22  1  0
 25 24  1  6
 24 23  1  0
 25 26  1  0
 26 16  1  0
 27 25  1  0
 28 27  2  0
 29 27  1  0
M  END
$$$$
