HPR.pdb
     RDKit          3D

 29 30  0  0  1  0  0  0  0  0999 V2000
   10.5072  -15.4798   15.7429 N   0  0  0  0  0  0  0  0  0  0  0  0
    9.3352  -15.2560   16.6160 C   0  0  1  0  0  0  0  0  0  0  0  0
    8.4734  -16.4927   16.4680 C   0  0  0  0  0  0  0  0  0  0  0  0
    8.0264  -16.6572   15.0596 C   0  0  0  0  0  0  0  0  0  0  0  0
    7.6201  -15.6682   14.1669 C   0  0  0  0  0  0  0  0  0  0  0  0
    7.2976  -16.2313   12.9902 N   0  0  0  0  0  0  0  0  0  0  0  0
    7.4907  -17.5338   13.1252 C   0  0  0  0  0  0  0  0  0  0  0  0
    7.9334  -17.8101   14.3759 N   0  0  0  0  0  0  0  0  0  0  0  0
    9.7740  -15.0081   18.0040 C   0  0  0  0  0  0  0  0  0  0  0  0
   10.9263  -15.4105   18.3502 O   0  0  0  0  0  0  0  0  0  0  0  0
    8.9153  -14.3379   18.8965 N   0  0  0  0  0  0  0  0  0  0  0  0
    7.6367  -13.7478   18.5738 C   0  0  0  0  0  0  0  0  0  0  0  0
    7.5379  -12.5283   19.4927 C   0  0  0  0  0  0  0  0  0  0  0  0
    8.5444  -12.7809   20.5759 C   0  0  0  0  0  0  0  0  0  0  0  0
    9.1857  -14.1149   20.2986 C   0  0  1  0  0  0  0  0  0  0  0  0
    8.6376  -15.1965   21.1571 C   0  0  0  0  0  0  0  0  0  0  0  0
    7.7018  -15.9333   20.7561 O   0  0  0  0  0  0  0  0  0  0  0  0
   15.1194  -19.3446   19.4435 N   0  0  0  0  0  0  0  0  0  0  0  0
   14.4963  -20.1848   20.4072 C   0  0  0  0  0  0  0  0  0  0  0  0
   14.9819  -21.3837   20.5829 N   0  0  0  0  0  0  0  0  0  0  0  0
   13.3831  -19.7703   21.1708 N   0  0  0  0  0  0  0  0  0  0  0  0
   12.7262  -18.4523   20.9627 C   0  0  0  0  0  0  0  0  0  0  0  0
   11.6375  -18.2638   21.9401 C   0  0  0  0  0  0  0  0  0  0  0  0
   10.7868  -17.0951   21.9112 C   0  0  0  0  0  0  0  0  0  0  0  0
    9.6553  -16.8251   22.8241 C   0  0  2  0  0  0  0  0  0  0  0  0
    9.1402  -15.4454   22.4554 N   0  0  0  0  0  0  0  0  0  0  0  0
    9.9423  -16.7254   24.2585 C   0  0  0  0  0  0  0  0  0  0  0  0
    9.9610  -17.6895   25.0302 O   0  0  0  0  0  0  0  0  0  0  0  0
   10.2192  -15.4415   24.8104 O   0  0  0  0  0  0  0  0  0  0  0  0
  2  1  1  6
  2  3  1  0
  3  4  1  0
  4  8  1  0
  5  4  2  0
  5  6  1  0
  6  7  1  0
  8  7  2  0
  9  2  1  0
  9 10  2  0
 11  9  1  0
 12 11  1  0
 13 12  1  0
 14 15  1  0
 14 13  1  0
 15 11  1  0
 15 16  1  1
 16 17  2  0
 19 18  1  0
 20 19  2  0
 21 19  1  0
 22 21  1  0
 23 22  1  0
 25 24  1  6
 24 23  1  0
 25 26  1  0
 26 16  1  0
 27 25  1  0
 28 27  2  0
 29 27  1  0
M  END
$$$$
