YLS.pdb
     RDKit          3D

 27 27  0  0  1  0  0  0  0  0999 V2000
   26.3294  -16.7251  -20.7562 O   0  0  0  0  0  0  0  0  0  0  0  0
   25.7540  -17.4182  -19.7210 C   0  0  0  0  0  0  0  0  0  0  0  0
   25.8994  -16.9792  -18.3990 C   0  0  0  0  0  0  0  0  0  0  0  0
   25.3186  -17.6810  -17.3666 C   0  0  0  0  0  0  0  0  0  0  0  0
   24.5907  -18.8185  -17.6210 C   0  0  0  0  0  0  0  0  0  0  0  0
   23.9797  -19.5520  -16.5338 C   0  0  0  0  0  0  0  0  0  0  0  0
   24.9141  -20.3385  -15.6585 C   0  0  2  0  0  0  0  0  0  0  0  0
   25.6660  -21.3117  -16.4790 N   0  0  0  0  0  0  0  0  0  0  0  0
   24.2749  -21.0064  -14.5135 C   0  0  0  0  0  0  0  0  0  0  0  0
   23.9686  -22.2284  -14.6434 O   0  0  0  0  0  0  0  0  0  0  0  0
   24.4373  -19.2648  -18.9160 C   0  0  0  0  0  0  0  0  0  0  0  0
   25.0269  -18.5537  -19.9715 C   0  0  0  0  0  0  0  0  0  0  0  0
   26.0177  -22.1544  -10.8960 C   0  0  0  0  0  0  0  0  0  0  0  0
   25.4793  -20.7747  -10.8310 C   0  0  2  0  0  0  0  0  0  0  0  0
   25.9379  -20.1622   -9.4834 C   0  0  0  0  0  0  0  0  0  0  0  0
   24.0178  -20.5852  -10.9142 C   0  0  0  0  0  0  0  0  0  0  0  0
   23.3512  -21.0710  -12.1352 C   0  0  2  0  0  0  0  0  0  0  0  0
   23.9877  -20.3924  -13.3038 N   0  0  0  0  0  0  0  0  0  0  0  0
   21.9313  -20.8535  -12.3228 C   0  0  0  0  0  0  0  0  0  0  0  0
   21.1224  -21.2212  -11.3928 O   0  0  0  0  0  0  0  0  0  0  0  0
   20.1691  -19.6125  -15.8296 O   0  0  0  0  0  0  0  0  0  0  0  0
   19.5465  -19.1525  -14.6795 C   0  0  0  0  0  0  0  0  0  0  0  0
   19.8438  -20.0557  -13.4759 C   0  0  2  0  0  0  0  0  0  0  0  0
   21.2703  -20.2523  -13.4380 N   0  0  0  0  0  0  0  0  0  0  0  0
   19.0385  -21.2644  -13.6596 C   0  0  0  0  0  0  0  0  0  0  0  0
   17.8053  -21.3582  -13.6208 O   0  0  0  0  0  0  0  0  0  0  0  0
   19.7674  -22.4472  -13.9083 O   0  0  0  0  0  0  0  0  0  0  0  0
  2  1  1  0
  3  2  2  0
  4  3  1  0
  5 11  1  0
  5  4  2  0
  6  5  1  0
  7  9  1  0
  7  6  1  0
  7  8  1  6
  9 10  2  0
 11 12  2  0
 12  2  1  0
 14 13  1  1
 15 14  1  0
 16 14  1  0
 17 16  1  1
 18  9  1  0
 18 17  1  0
 19 24  1  0
 19 17  1  0
 20 19  2  0
 22 21  1  0
 23 22  1  6
 23 24  1  0
 25 23  1  0
 25 27  1  0
 26 25  2  0
M  END
$$$$
