YLS.pdb
     RDKit          3D

 27 27  0  0  1  0  0  0  0  0999 V2000
   13.2719  -11.6699  -20.0934 O   0  0  0  0  0  0  0  0  0  0  0  0
   14.2955  -11.2363  -19.2887 C   0  0  0  0  0  0  0  0  0  0  0  0
   14.1330  -11.1701  -17.8993 C   0  0  0  0  0  0  0  0  0  0  0  0
   15.1655  -10.7338  -17.0996 C   0  0  0  0  0  0  0  0  0  0  0  0
   16.3653  -10.3589  -17.6549 C   0  0  0  0  0  0  0  0  0  0  0  0
   17.4489   -9.9032  -16.8113 C   0  0  0  0  0  0  0  0  0  0  0  0
   18.4849  -10.9305  -16.4518 C   0  0  2  0  0  0  0  0  0  0  0  0
   17.8429  -12.0620  -15.7496 N   0  0  0  0  0  0  0  0  0  0  0  0
   19.6246  -10.4153  -15.6764 C   0  0  0  0  0  0  0  0  0  0  0  0
   19.5309  -10.4330  -14.4136 O   0  0  0  0  0  0  0  0  0  0  0  0
   16.5426  -10.4178  -19.0205 C   0  0  0  0  0  0  0  0  0  0  0  0
   15.4941  -10.8615  -19.8397 C   0  0  0  0  0  0  0  0  0  0  0  0
   25.6506  -10.4295  -15.5394 C   0  0  0  0  0  0  0  0  0  0  0  0
   24.4093   -9.7058  -15.1744 C   0  0  2  0  0  0  0  0  0  0  0  0
   24.2442   -9.8165  -13.6375 C   0  0  0  0  0  0  0  0  0  0  0  0
   23.1354  -10.1458  -15.7765 C   0  0  0  0  0  0  0  0  0  0  0  0
   21.9355   -9.3561  -15.4487 C   0  0  2  0  0  0  0  0  0  0  0  0
   20.7928   -9.9153  -16.2316 N   0  0  0  0  0  0  0  0  0  0  0  0
   21.9023   -7.9353  -15.7292 C   0  0  0  0  0  0  0  0  0  0  0  0
   22.2773   -7.5263  -16.8897 O   0  0  0  0  0  0  0  0  0  0  0  0
   20.2475   -3.4678  -15.1021 O   0  0  0  0  0  0  0  0  0  0  0  0
   20.2707   -4.8152  -14.7769 C   0  0  0  0  0  0  0  0  0  0  0  0
   21.5637   -5.4894  -15.2530 C   0  0  2  0  0  0  0  0  0  0  0  0
   21.4838   -6.8750  -14.8674 N   0  0  0  0  0  0  0  0  0  0  0  0
   22.6661   -4.7266  -14.6647 C   0  0  0  0  0  0  0  0  0  0  0  0
   23.3408   -5.0264  -13.6717 O   0  0  0  0  0  0  0  0  0  0  0  0
   22.9814   -3.5150  -15.3164 O   0  0  0  0  0  0  0  0  0  0  0  0
  2  1  1  0
  3  2  2  0
  4  3  1  0
  5 11  1  0
  5  4  2  0
  6  5  1  0
  7  9  1  0
  7  6  1  0
  7  8  1  1
  9 10  2  0
 11 12  2  0
 12  2  1  0
 14 13  1  6
 15 14  1  0
 16 14  1  0
 17 16  1  6
 18  9  1  0
 18 17  1  0
 19 24  1  0
 19 17  1  0
 20 19  2  0
 22 21  1  0
 23 22  1  1
 23 24  1  0
 25 23  1  0
 25 27  1  0
 26 25  2  0
M  END
$$$$
