YLS.pdb
     RDKit          3D

 27 27  0  0  1  0  0  0  0  0999 V2000
   14.9893   -9.9092  -22.9529 O   0  0  0  0  0  0  0  0  0  0  0  0
   15.8245   -9.6885  -21.8866 C   0  0  0  0  0  0  0  0  0  0  0  0
   15.3063   -9.5135  -20.5974 C   0  0  0  0  0  0  0  0  0  0  0  0
   16.1518   -9.2926  -19.5334 C   0  0  0  0  0  0  0  0  0  0  0  0
   17.5117   -9.2414  -19.7240 C   0  0  0  0  0  0  0  0  0  0  0  0
   18.3974   -9.0114  -18.6032 C   0  0  0  0  0  0  0  0  0  0  0  0
   19.2599  -10.1712  -18.1924 C   0  0  2  0  0  0  0  0  0  0  0  0
   18.4076  -11.3270  -17.8408 N   0  0  0  0  0  0  0  0  0  0  0  0
   20.2148   -9.8801  -17.1111 C   0  0  0  0  0  0  0  0  0  0  0  0
   19.7940   -9.9609  -15.9194 O   0  0  0  0  0  0  0  0  0  0  0  0
   18.0389   -9.4115  -20.9861 C   0  0  0  0  0  0  0  0  0  0  0  0
   17.1821   -9.6369  -22.0735 C   0  0  0  0  0  0  0  0  0  0  0  0
   26.3075  -10.0026  -16.1382 C   0  0  0  0  0  0  0  0  0  0  0  0
   24.9614   -9.5491  -15.7137 C   0  0  2  0  0  0  0  0  0  0  0  0
   24.6498  -10.2313  -14.3576 C   0  0  0  0  0  0  0  0  0  0  0  0
   23.8152   -9.8185  -16.6039 C   0  0  0  0  0  0  0  0  0  0  0  0
   22.5166   -9.2439  -16.2108 C   0  0  2  0  0  0  0  0  0  0  0  0
   21.5414   -9.5269  -17.3064 N   0  0  0  0  0  0  0  0  0  0  0  0
   22.3933   -7.8193  -15.9790 C   0  0  0  0  0  0  0  0  0  0  0  0
   22.6463   -7.0120  -16.9479 O   0  0  0  0  0  0  0  0  0  0  0  0
   19.9002   -5.9457  -13.4704 O   0  0  0  0  0  0  0  0  0  0  0  0
   20.5242   -5.2884  -14.5195 C   0  0  0  0  0  0  0  0  0  0  0  0
   21.9906   -5.7154  -14.6617 C   0  0  2  0  0  0  0  0  0  0  0  0
   22.0028   -7.1511  -14.7776 N   0  0  0  0  0  0  0  0  0  0  0  0
   22.6940   -5.1635  -13.5023 C   0  0  0  0  0  0  0  0  0  0  0  0
   22.8858   -3.9699  -13.2386 O   0  0  0  0  0  0  0  0  0  0  0  0
   23.2045   -6.1147  -12.5930 O   0  0  0  0  0  0  0  0  0  0  0  0
  2  1  1  0
  3  2  2  0
  4  3  1  0
  5 11  1  0
  5  4  2  0
  6  5  1  0
  7  9  1  0
  7  6  1  0
  7  8  1  1
  9 10  2  0
 11 12  2  0
 12  2  1  0
 14 13  1  6
 15 14  1  0
 16 14  1  0
 17 16  1  6
 18  9  1  0
 18 17  1  0
 19 24  1  0
 19 17  1  0
 20 19  2  0
 22 21  1  0
 23 22  1  1
 23 24  1  0
 25 23  1  0
 25 27  1  0
 26 25  2  0
M  END
$$$$
