YLS.pdb
     RDKit          3D

 27 27  0  0  1  0  0  0  0  0999 V2000
   23.3478  -11.3323  -24.2832 O   0  0  0  0  0  0  0  0  0  0  0  0
   22.8562  -10.8862  -23.0821 C   0  0  0  0  0  0  0  0  0  0  0  0
   23.7248  -10.4954  -22.0554 C   0  0  0  0  0  0  0  0  0  0  0  0
   23.2227  -10.0491  -20.8536 C   0  0  0  0  0  0  0  0  0  0  0  0
   21.8656   -9.9821  -20.6480 C   0  0  0  0  0  0  0  0  0  0  0  0
   21.3415   -9.5103  -19.3846 C   0  0  0  0  0  0  0  0  0  0  0  0
   21.4132  -10.4765  -18.2360 C   0  0  2  0  0  0  0  0  0  0  0  0
   20.6382  -11.6935  -18.5586 N   0  0  0  0  0  0  0  0  0  0  0  0
   20.9993   -9.9247  -16.9361 C   0  0  0  0  0  0  0  0  0  0  0  0
   19.7845  -10.0557  -16.6032 O   0  0  0  0  0  0  0  0  0  0  0  0
   20.9963  -10.3627  -21.6476 C   0  0  0  0  0  0  0  0  0  0  0  0
   21.5024  -10.8181  -22.8738 C   0  0  0  0  0  0  0  0  0  0  0  0
   22.7411   -9.5888  -11.2121 C   0  0  0  0  0  0  0  0  0  0  0  0
   21.9990   -8.9101  -12.3013 C   0  0  2  0  0  0  0  0  0  0  0  0
   20.4924   -8.9736  -11.9440 C   0  0  0  0  0  0  0  0  0  0  0  0
   22.1370   -9.4291  -13.6762 C   0  0  0  0  0  0  0  0  0  0  0  0
   21.4255   -8.6976  -14.7391 C   0  0  2  0  0  0  0  0  0  0  0  0
   21.8463   -9.2748  -16.0511 N   0  0  0  0  0  0  0  0  0  0  0  0
   21.6212   -7.2707  -14.8948 C   0  0  0  0  0  0  0  0  0  0  0  0
   22.7335   -6.8502  -15.3852 O   0  0  0  0  0  0  0  0  0  0  0  0
   20.0411   -2.6461  -14.5666 O   0  0  0  0  0  0  0  0  0  0  0  0
   19.7872   -4.0090  -14.5578 C   0  0  0  0  0  0  0  0  0  0  0  0
   21.0815   -4.8258  -14.6618 C   0  0  2  0  0  0  0  0  0  0  0  0
   20.7114   -6.2153  -14.5780 N   0  0  0  0  0  0  0  0  0  0  0  0
   21.9634   -4.3359  -13.6009 C   0  0  0  0  0  0  0  0  0  0  0  0
   22.0068   -4.7174  -12.4246 O   0  0  0  0  0  0  0  0  0  0  0  0
   22.8589   -3.3130  -13.9802 O   0  0  0  0  0  0  0  0  0  0  0  0
  2  1  1  0
  3  2  2  0
  4  3  1  0
  5 11  1  0
  5  4  2  0
  6  5  1  0
  7  9  1  0
  7  6  1  0
  7  8  1  6
  9 10  2  0
 11 12  2  0
 12  2  1  0
 14 13  1  1
 15 14  1  0
 16 14  1  0
 17 16  1  1
 18  9  1  0
 18 17  1  0
 19 24  1  0
 19 17  1  0
 20 19  2  0
 22 21  1  0
 23 22  1  1
 23 24  1  0
 25 23  1  0
 25 27  1  0
 26 25  2  0
M  END
$$$$
