YLS.pdb
     RDKit          3D

 27 27  0  0  1  0  0  0  0  0999 V2000
   20.7128  -14.8874  -19.6545 O   0  0  0  0  0  0  0  0  0  0  0  0
   20.8674  -15.8263  -18.6656 C   0  0  0  0  0  0  0  0  0  0  0  0
   20.1902  -17.0504  -18.7305 C   0  0  0  0  0  0  0  0  0  0  0  0
   20.3513  -17.9866  -17.7338 C   0  0  0  0  0  0  0  0  0  0  0  0
   21.1771  -17.7309  -16.6655 C   0  0  0  0  0  0  0  0  0  0  0  0
   21.3458  -18.7180  -15.6212 C   0  0  0  0  0  0  0  0  0  0  0  0
   22.7007  -19.3613  -15.5311 C   0  0  2  0  0  0  0  0  0  0  0  0
   22.9990  -20.0749  -16.7910 N   0  0  0  0  0  0  0  0  0  0  0  0
   22.8887  -20.2490  -14.3726 C   0  0  0  0  0  0  0  0  0  0  0  0
   22.5659  -21.4661  -14.5076 O   0  0  0  0  0  0  0  0  0  0  0  0
   21.8513  -16.5314  -16.5857 C   0  0  0  0  0  0  0  0  0  0  0  0
   21.6909  -15.5742  -17.5982 C   0  0  0  0  0  0  0  0  0  0  0  0
   25.5697  -20.1166   -8.7449 C   0  0  0  0  0  0  0  0  0  0  0  0
   24.7484  -20.8168   -9.7611 C   0  0  2  0  0  0  0  0  0  0  0  0
   25.4062  -22.1965  -10.0169 C   0  0  0  0  0  0  0  0  0  0  0  0
   24.5639  -20.1776  -11.0787 C   0  0  0  0  0  0  0  0  0  0  0  0
   23.4983  -20.7205  -11.9394 C   0  0  2  0  0  0  0  0  0  0  0  0
   23.3965  -19.8465  -13.1466 N   0  0  0  0  0  0  0  0  0  0  0  0
   22.1397  -20.8094  -11.4445 C   0  0  0  0  0  0  0  0  0  0  0  0
   21.3942  -19.7626  -11.4962 O   0  0  0  0  0  0  0  0  0  0  0  0
   18.9336  -22.8390  -12.4406 O   0  0  0  0  0  0  0  0  0  0  0  0
   19.2812  -21.6584  -11.8024 C   0  0  0  0  0  0  0  0  0  0  0  0
   20.0826  -21.9230  -10.5215 C   0  0  2  0  0  0  0  0  0  0  0  0
   21.4744  -21.9470  -10.8919 N   0  0  0  0  0  0  0  0  0  0  0  0
   19.5526  -23.1640   -9.9536 C   0  0  0  0  0  0  0  0  0  0  0  0
   20.1464  -24.2410   -9.8174 O   0  0  0  0  0  0  0  0  0  0  0  0
   18.2115  -23.1075   -9.5174 O   0  0  0  0  0  0  0  0  0  0  0  0
  2  1  1  0
  3  2  2  0
  4  3  1  0
  5 11  1  0
  5  4  2  0
  6  5  1  0
  7  9  1  0
  7  6  1  0
  7  8  1  6
  9 10  2  0
 11 12  2  0
 12  2  1  0
 14 13  1  1
 15 14  1  0
 16 14  1  0
 17 16  1  1
 18  9  1  0
 18 17  1  0
 19 24  1  0
 19 17  1  0
 20 19  2  0
 22 21  1  0
 23 22  1  6
 23 24  1  0
 25 23  1  0
 25 27  1  0
 26 25  2  0
M  END
$$$$
