YLS.pdb
     RDKit          3D

 27 27  0  0  1  0  0  0  0  0999 V2000
   19.9176  -13.0488  -24.3064 O   0  0  0  0  0  0  0  0  0  0  0  0
   19.7981  -12.2692  -23.1833 C   0  0  0  0  0  0  0  0  0  0  0  0
   20.8275  -12.2198  -22.2350 C   0  0  0  0  0  0  0  0  0  0  0  0
   20.6989  -11.4350  -21.1111 C   0  0  0  0  0  0  0  0  0  0  0  0
   19.5608  -10.6922  -20.9073 C   0  0  0  0  0  0  0  0  0  0  0  0
   19.4302   -9.8667  -19.7263 C   0  0  0  0  0  0  0  0  0  0  0  0
   19.4942  -10.5835  -18.4072 C   0  0  2  0  0  0  0  0  0  0  0  0
   18.2593  -11.3713  -18.2070 N   0  0  0  0  0  0  0  0  0  0  0  0
   19.7548   -9.7192  -17.2450 C   0  0  0  0  0  0  0  0  0  0  0  0
   18.7640   -9.3780  -16.5338 O   0  0  0  0  0  0  0  0  0  0  0  0
   18.5379  -10.7289  -21.8304 C   0  0  0  0  0  0  0  0  0  0  0  0
   18.6637  -11.5268  -22.9770 C   0  0  0  0  0  0  0  0  0  0  0  0
   21.9510   -9.7956  -12.9337 C   0  0  0  0  0  0  0  0  0  0  0  0
   22.6336   -9.8935  -14.2460 C   0  0  2  0  0  0  0  0  0  0  0  0
   24.1286  -10.1930  -13.9685 C   0  0  0  0  0  0  0  0  0  0  0  0
   22.5894   -8.7281  -15.1508 C   0  0  0  0  0  0  0  0  0  0  0  0
   21.2736   -8.3643  -15.7050 C   0  0  2  0  0  0  0  0  0  0  0  0
   21.0079   -9.2558  -16.8738 N   0  0  0  0  0  0  0  0  0  0  0  0
   21.0442   -7.0273  -16.2134 C   0  0  0  0  0  0  0  0  0  0  0  0
   21.9210   -6.5060  -16.9969 O   0  0  0  0  0  0  0  0  0  0  0  0
   17.4335   -5.1169  -16.5421 O   0  0  0  0  0  0  0  0  0  0  0  0
   18.5275   -4.7857  -17.3265 C   0  0  0  0  0  0  0  0  0  0  0  0
   19.8351   -4.8447  -16.5267 C   0  0  2  0  0  0  0  0  0  0  0  0
   19.9285   -6.1689  -15.9676 N   0  0  0  0  0  0  0  0  0  0  0  0
   19.7756   -3.7472  -15.5596 C   0  0  0  0  0  0  0  0  0  0  0  0
   19.7512   -2.5339  -15.8013 O   0  0  0  0  0  0  0  0  0  0  0  0
   19.7431   -4.1350  -14.2029 O   0  0  0  0  0  0  0  0  0  0  0  0
  2  1  1  0
  3  2  2  0
  4  3  1  0
  5 11  1  0
  5  4  2  0
  6  5  1  0
  7  9  1  0
  7  6  1  0
  7  8  1  1
  9 10  2  0
 11 12  2  0
 12  2  1  0
 14 13  1  1
 15 14  1  0
 16 14  1  0
 17 16  1  6
 18  9  1  0
 18 17  1  0
 19 24  1  0
 19 17  1  0
 20 19  2  0
 22 21  1  0
 23 22  1  1
 23 24  1  0
 25 23  1  0
 25 27  1  0
 26 25  2  0
M  END
$$$$
