YLS.pdb
     RDKit          3D

 27 27  0  0  1  0  0  0  0  0999 V2000
   20.6523  -15.8701  -18.9522 O   0  0  0  0  0  0  0  0  0  0  0  0
   21.3217  -16.6068  -18.0076 C   0  0  0  0  0  0  0  0  0  0  0  0
   20.6501  -17.5708  -17.2454 C   0  0  0  0  0  0  0  0  0  0  0  0
   21.3298  -18.3052  -16.2997 C   0  0  0  0  0  0  0  0  0  0  0  0
   22.6729  -18.1012  -16.0932 C   0  0  0  0  0  0  0  0  0  0  0  0
   23.3845  -18.8766  -15.1003 C   0  0  0  0  0  0  0  0  0  0  0  0
   24.3877  -19.8641  -15.6259 C   0  0  2  0  0  0  0  0  0  0  0  0
   23.7090  -20.8520  -16.4916 N   0  0  0  0  0  0  0  0  0  0  0  0
   25.1902  -20.5401  -14.5940 C   0  0  0  0  0  0  0  0  0  0  0  0
   24.7508  -21.6346  -14.1328 O   0  0  0  0  0  0  0  0  0  0  0  0
   23.3497  -17.1566  -16.8345 C   0  0  0  0  0  0  0  0  0  0  0  0
   22.6622  -16.4056  -17.7991 C   0  0  0  0  0  0  0  0  0  0  0  0
   30.7643  -20.0078  -11.8226 C   0  0  0  0  0  0  0  0  0  0  0  0
   29.3853  -20.5513  -11.8508 C   0  0  2  0  0  0  0  0  0  0  0  0
   29.4961  -22.0965  -11.8074 C   0  0  0  0  0  0  0  0  0  0  0  0
   28.5196  -20.2145  -12.9979 C   0  0  0  0  0  0  0  0  0  0  0  0
   27.1095  -20.6335  -12.9144 C   0  0  2  0  0  0  0  0  0  0  0  0
   26.3930  -20.0638  -14.0948 N   0  0  0  0  0  0  0  0  0  0  0  0
   26.3010  -20.2397  -11.7787 C   0  0  0  0  0  0  0  0  0  0  0  0
   25.4623  -19.2752  -11.9229 O   0  0  0  0  0  0  0  0  0  0  0  0
   22.9705  -20.5001   -9.0268 O   0  0  0  0  0  0  0  0  0  0  0  0
   23.9636  -20.8675   -9.9217 C   0  0  0  0  0  0  0  0  0  0  0  0
   25.3466  -20.3935   -9.4573 C   0  0  2  0  0  0  0  0  0  0  0  0
   26.2924  -20.8008  -10.4645 N   0  0  0  0  0  0  0  0  0  0  0  0
   25.5503  -20.9630   -8.1241 C   0  0  0  0  0  0  0  0  0  0  0  0
   26.3707  -21.8288   -7.7948 O   0  0  0  0  0  0  0  0  0  0  0  0
   24.7072  -20.4558   -7.1122 O   0  0  0  0  0  0  0  0  0  0  0  0
  2  1  1  0
  3  2  2  0
  4  3  1  0
  5 11  1  0
  5  4  2  0
  6  5  1  0
  7  9  1  0
  7  6  1  0
  7  8  1  1
  9 10  2  0
 11 12  2  0
 12  2  1  0
 14 13  1  6
 15 14  1  0
 16 14  1  0
 17 16  1  1
 18  9  1  0
 18 17  1  0
 19 24  1  0
 19 17  1  0
 20 19  2  0
 22 21  1  0
 23 22  1  6
 23 24  1  0
 25 23  1  0
 25 27  1  0
 26 25  2  0
M  END
$$$$
