MST.pdb
     RDKit          3D

 22 21  0  0  1  0  0  0  0  0999 V2000
   17.5120  -11.6758  -20.9214 C   0  0  0  0  0  0  0  0  0  0  0  0
   17.3641  -13.2612  -20.0160 S   0  0  0  0  0  0  0  0  0  0  0  0
   18.5179  -13.1953  -18.6380 C   0  0  0  0  0  0  0  0  0  0  0  0
   18.0666  -12.1767  -17.5845 C   0  0  0  0  0  0  0  0  0  0  0  0
   19.1428  -12.1589  -16.5217 C   0  0  2  0  0  0  0  0  0  0  0  0
   18.9608  -13.3412  -15.7107 N   0  0  0  0  0  0  0  0  0  0  0  0
   19.0913  -10.9639  -15.6796 C   0  0  0  0  0  0  0  0  0  0  0  0
   18.1728  -10.7161  -14.8537 O   0  0  0  0  0  0  0  0  0  0  0  0
   21.2167   -8.7810  -12.8867 O   0  0  0  0  0  0  0  0  0  0  0  0
   21.5196   -8.8102  -14.2582 C   0  0  0  0  0  0  0  0  0  0  0  0
   20.1592   -8.8046  -14.9686 C   0  0  2  0  0  0  0  0  0  0  0  0
   20.1307  -10.0032  -15.7776 N   0  0  0  0  0  0  0  0  0  0  0  0
   20.0441   -7.6347  -15.8666 C   0  0  0  0  0  0  0  0  0  0  0  0
   20.7249   -7.6014  -16.9129 O   0  0  0  0  0  0  0  0  0  0  0  0
   16.9237   -6.0620  -17.5047 C   0  0  0  0  0  0  0  0  0  0  0  0
   17.6934   -5.0261  -16.7509 C   0  0  1  0  0  0  0  0  0  0  0  0
   17.0497   -4.7916  -15.5418 O   0  0  0  0  0  0  0  0  0  0  0  0
   19.1344   -5.4433  -16.5394 C   0  0  2  0  0  0  0  0  0  0  0  0
   19.1898   -6.5341  -15.5981 N   0  0  0  0  0  0  0  0  0  0  0  0
   19.9747   -4.3041  -16.1488 C   0  0  0  0  0  0  0  0  0  0  0  0
   20.1019   -3.2781  -16.8631 O   0  0  0  0  0  0  0  0  0  0  0  0
   20.6623   -4.3446  -14.9478 O   0  0  0  0  0  0  0  0  0  0  0  0
  2  1  1  0
  3  2  1  0
  3  4  1  0
  4  5  1  0
  5  7  1  0
  5  6  1  1
  7 12  1  0
  7  8  2  0
  9 10  1  0
 11 10  1  6
 11 13  1  0
 12 11  1  0
 13 14  2  0
 16 15  1  1
 16 18  1  0
 16 17  1  0
 18 20  1  0
 19 13  1  0
 18 19  1  1
 20 22  1  0
 21 20  2  0
M  END
$$$$
