MST.pdb
     RDKit          3D

 22 21  0  0  1  0  0  0  0  0999 V2000
   14.6983  -15.0997  -15.4488 C   0  0  0  0  0  0  0  0  0  0  0  0
   16.4470  -14.7344  -15.0443 S   0  0  0  0  0  0  0  0  0  0  0  0
   16.8367  -13.1349  -15.7685 C   0  0  0  0  0  0  0  0  0  0  0  0
   18.2784  -12.7193  -15.4527 C   0  0  0  0  0  0  0  0  0  0  0  0
   18.4657  -11.3438  -16.0537 C   0  0  2  0  0  0  0  0  0  0  0  0
   18.6230  -11.5195  -17.4797 N   0  0  0  0  0  0  0  0  0  0  0  0
   19.6242  -10.6371  -15.5077 C   0  0  0  0  0  0  0  0  0  0  0  0
   19.8465  -10.4820  -14.2773 O   0  0  0  0  0  0  0  0  0  0  0  0
   22.0498   -8.8393  -18.2068 O   0  0  0  0  0  0  0  0  0  0  0  0
   22.7279   -9.3178  -17.0732 C   0  0  0  0  0  0  0  0  0  0  0  0
   21.6920   -9.2791  -15.9414 C   0  0  2  0  0  0  0  0  0  0  0  0
   20.5771  -10.0791  -16.3984 N   0  0  0  0  0  0  0  0  0  0  0  0
   21.2128   -7.8972  -15.7197 C   0  0  0  0  0  0  0  0  0  0  0  0
   20.2714   -7.4608  -16.4143 O   0  0  0  0  0  0  0  0  0  0  0  0
   20.4589   -6.1268  -12.3059 C   0  0  0  0  0  0  0  0  0  0  0  0
   21.3109   -5.2561  -13.1718 C   0  0  1  0  0  0  0  0  0  0  0  0
   22.6103   -5.2811  -12.6793 O   0  0  0  0  0  0  0  0  0  0  0  0
   21.2602   -5.6888  -14.6228 C   0  0  2  0  0  0  0  0  0  0  0  0
   21.7739   -7.0304  -14.7466 N   0  0  0  0  0  0  0  0  0  0  0  0
   21.9453   -4.7283  -15.4971 C   0  0  0  0  0  0  0  0  0  0  0  0
   22.9598   -5.0306  -16.1743 O   0  0  0  0  0  0  0  0  0  0  0  0
   21.4680   -3.4321  -15.5917 O   0  0  0  0  0  0  0  0  0  0  0  0
  2  1  1  0
  3  2  1  0
  3  4  1  0
  4  5  1  0
  5  7  1  0
  5  6  1  6
  7 12  1  0
  7  8  2  0
  9 10  1  0
 11 10  1  6
 11 13  1  0
 12 11  1  0
 13 14  2  0
 16 15  1  1
 16 18  1  0
 16 17  1  0
 18 20  1  0
 19 13  1  0
 18 19  1  1
 20 22  1  0
 21 20  2  0
M  END
$$$$
