MST.pdb
     RDKit          3D

 22 21  0  0  1  0  0  0  0  0999 V2000
   14.8977   -8.9225  -18.5121 C   0  0  0  0  0  0  0  0  0  0  0  0
   15.2229  -10.6857  -18.8871 S   0  0  0  0  0  0  0  0  0  0  0  0
   16.9877  -10.9576  -18.6720 C   0  0  0  0  0  0  0  0  0  0  0  0
   17.4996  -10.2906  -17.3898 C   0  0  0  0  0  0  0  0  0  0  0  0
   18.6989  -11.0961  -16.9412 C   0  0  2  0  0  0  0  0  0  0  0  0
   18.2342  -12.4376  -16.6700 N   0  0  0  0  0  0  0  0  0  0  0  0
   19.3439  -10.5418  -15.7511 C   0  0  0  0  0  0  0  0  0  0  0  0
   19.0048  -10.8123  -14.5682 O   0  0  0  0  0  0  0  0  0  0  0  0
   22.9473   -9.9947  -15.6965 O   0  0  0  0  0  0  0  0  0  0  0  0
   22.3071   -9.7991  -14.4613 C   0  0  0  0  0  0  0  0  0  0  0  0
   21.0537   -8.9753  -14.7863 C   0  0  2  0  0  0  0  0  0  0  0  0
   20.4255   -9.6372  -15.9083 N   0  0  0  0  0  0  0  0  0  0  0  0
   21.4235   -7.6047  -15.2025 C   0  0  0  0  0  0  0  0  0  0  0  0
   22.0309   -7.4392  -16.2808 O   0  0  0  0  0  0  0  0  0  0  0  0
   19.4412   -4.9448  -16.2909 C   0  0  0  0  0  0  0  0  0  0  0  0
   20.2765   -4.3286  -15.2157 C   0  0  1  0  0  0  0  0  0  0  0  0
   19.4895   -4.1722  -14.0810 O   0  0  0  0  0  0  0  0  0  0  0  0
   21.5116   -5.1559  -14.9233 C   0  0  2  0  0  0  0  0  0  0  0  0
   21.1203   -6.4533  -14.4308 N   0  0  0  0  0  0  0  0  0  0  0  0
   22.4317   -4.4523  -14.0206 C   0  0  0  0  0  0  0  0  0  0  0  0
   22.7046   -4.8716  -12.8678 O   0  0  0  0  0  0  0  0  0  0  0  0
   23.0323   -3.2775  -14.4398 O   0  0  0  0  0  0  0  0  0  0  0  0
  2  1  1  0
  3  2  1  0
  3  4  1  0
  4  5  1  0
  5  7  1  0
  5  6  1  1
  7 12  1  0
  7  8  2  0
  9 10  1  0
 11 10  1  6
 11 13  1  0
 12 11  1  0
 13 14  2  0
 16 15  1  6
 16 18  1  0
 16 17  1  0
 18 20  1  0
 19 13  1  0
 18 19  1  1
 20 22  1  0
 21 20  2  0
M  END
$$$$
