MST.pdb
     RDKit          3D

 22 21  0  0  1  0  0  0  0  0999 V2000
   25.2132  -32.2091   -3.6130 C   0  0  0  0  0  0  0  0  0  0  0  0
   26.9997  -32.2569   -4.0146 S   0  0  0  0  0  0  0  0  0  0  0  0
   27.1489  -32.0631   -5.7964 C   0  0  0  0  0  0  0  0  0  0  0  0
   26.4386  -33.2007   -6.5396 C   0  0  0  0  0  0  0  0  0  0  0  0
   26.6371  -32.9336   -8.0153 C   0  0  2  0  0  0  0  0  0  0  0  0
   25.7952  -31.8114   -8.3625 N   0  0  0  0  0  0  0  0  0  0  0  0
   26.3025  -34.0857   -8.8522 C   0  0  0  0  0  0  0  0  0  0  0  0
   25.1532  -34.3194   -9.3124 O   0  0  0  0  0  0  0  0  0  0  0  0
   28.1734  -37.7767  -11.2962 O   0  0  0  0  0  0  0  0  0  0  0  0
   28.4409  -36.7266  -10.4020 C   0  0  0  0  0  0  0  0  0  0  0  0
   27.0628  -36.1928   -9.9881 C   0  0  2  0  0  0  0  0  0  0  0  0
   27.3189  -35.0182   -9.1841 N   0  0  0  0  0  0  0  0  0  0  0  0
   26.3495  -37.1825   -9.1515 C   0  0  0  0  0  0  0  0  0  0  0  0
   26.6435  -37.2815   -7.9420 O   0  0  0  0  0  0  0  0  0  0  0  0
   22.6266  -37.6601   -8.3897 C   0  0  0  0  0  0  0  0  0  0  0  0
   23.2012  -38.9216   -8.9482 C   0  0  1  0  0  0  0  0  0  0  0  0
   22.8461  -39.0121  -10.2888 O   0  0  0  0  0  0  0  0  0  0  0  0
   24.7044  -38.9796   -8.7682 C   0  0  2  0  0  0  0  0  0  0  0  0
   25.3355  -38.0363   -9.6576 N   0  0  0  0  0  0  0  0  0  0  0  0
   25.2148  -40.3475   -8.9254 C   0  0  0  0  0  0  0  0  0  0  0  0
   26.0396  -40.6657   -9.8186 O   0  0  0  0  0  0  0  0  0  0  0  0
   24.7808  -41.3401   -8.0634 O   0  0  0  0  0  0  0  0  0  0  0  0
  2  1  1  0
  3  2  1  0
  3  4  1  0
  4  5  1  0
  5  7  1  0
  5  6  1  6
  7 12  1  0
  7  8  2  0
  9 10  1  0
 11 10  1  1
 11 13  1  0
 12 11  1  0
 13 14  2  0
 16 15  1  6
 16 18  1  0
 16 17  1  0
 18 20  1  0
 19 13  1  0
 18 19  1  6
 20 22  1  0
 21 20  2  0
M  END
$$$$
