MST.pdb
     RDKit          3D

 22 21  0  0  1  0  0  0  0  0999 V2000
   19.2554  -14.7275  -21.7712 C   0  0  0  0  0  0  0  0  0  0  0  0
   18.3799  -13.6173  -20.6066 S   0  0  0  0  0  0  0  0  0  0  0  0
   19.4807  -13.3356  -19.2125 C   0  0  0  0  0  0  0  0  0  0  0  0
   18.8443  -12.3923  -18.1848 C   0  0  0  0  0  0  0  0  0  0  0  0
   19.8940  -12.1498  -17.1229 C   0  0  2  0  0  0  0  0  0  0  0  0
   20.0536  -13.3859  -16.3911 N   0  0  0  0  0  0  0  0  0  0  0  0
   19.5354  -11.0694  -16.2044 C   0  0  0  0  0  0  0  0  0  0  0  0
   18.4393  -10.9960  -15.5875 O   0  0  0  0  0  0  0  0  0  0  0  0
   20.9005   -7.7563  -13.2362 O   0  0  0  0  0  0  0  0  0  0  0  0
   21.2672   -8.8104  -14.0896 C   0  0  0  0  0  0  0  0  0  0  0  0
   20.1530   -8.8785  -15.1429 C   0  0  2  0  0  0  0  0  0  0  0  0
   20.4632  -10.0213  -15.9733 N   0  0  0  0  0  0  0  0  0  0  0  0
   20.1647   -7.6685  -15.9938 C   0  0  0  0  0  0  0  0  0  0  0  0
   21.0846   -7.5176  -16.8246 O   0  0  0  0  0  0  0  0  0  0  0  0
   17.4027   -6.3654  -18.3265 C   0  0  0  0  0  0  0  0  0  0  0  0
   17.8398   -5.2844  -17.3917 C   0  0  1  0  0  0  0  0  0  0  0  0
   16.8984   -5.1728  -16.3755 O   0  0  0  0  0  0  0  0  0  0  0  0
   19.2244   -5.5501  -16.8371 C   0  0  2  0  0  0  0  0  0  0  0  0
   19.1727   -6.6571  -15.9147 N   0  0  0  0  0  0  0  0  0  0  0  0
   19.8124   -4.3396  -16.2494 C   0  0  0  0  0  0  0  0  0  0  0  0
   20.1390   -4.2629  -15.0383 O   0  0  0  0  0  0  0  0  0  0  0  0
   20.0227   -3.2278  -17.0470 O   0  0  0  0  0  0  0  0  0  0  0  0
  2  1  1  0
  3  2  1  0
  3  4  1  0
  4  5  1  0
  5  7  1  0
  5  6  1  1
  7 12  1  0
  7  8  2  0
  9 10  1  0
 11 10  1  1
 11 13  1  0
 12 11  1  0
 13 14  2  0
 16 15  1  6
 16 18  1  0
 16 17  1  0
 18 20  1  0
 19 13  1  0
 18 19  1  1
 20 22  1  0
 21 20  2  0
M  END
$$$$
