MST.pdb
     RDKit          3D

 22 21  0  0  1  0  0  0  0  0999 V2000
   19.7179    3.7859    5.4471 C   0  0  0  0  0  0  0  0  0  0  0  0
   19.6017    2.5879    4.0663 S   0  0  0  0  0  0  0  0  0  0  0  0
   20.9978    1.4644    4.2192 C   0  0  0  0  0  0  0  0  0  0  0  0
   22.1700    1.9130    3.3383 C   0  0  0  0  0  0  0  0  0  0  0  0
   23.3000    0.9444    3.6086 C   0  0  2  0  0  0  0  0  0  0  0  0
   23.7905    1.2220    4.9395 N   0  0  0  0  0  0  0  0  0  0  0  0
   24.3912    1.0586    2.6412 C   0  0  0  0  0  0  0  0  0  0  0  0
   25.2928    1.9374    2.6879 O   0  0  0  0  0  0  0  0  0  0  0  0
   24.4079   -1.7213   -0.2177 O   0  0  0  0  0  0  0  0  0  0  0  0
   25.7018   -1.2827    0.1102 C   0  0  0  0  0  0  0  0  0  0  0  0
   25.5247    0.1658    0.5853 C   0  0  2  0  0  0  0  0  0  0  0  0
   24.4648    0.1325    1.5689 N   0  0  0  0  0  0  0  0  0  0  0  0
   25.0941    1.0330   -0.5331 C   0  0  0  0  0  0  0  0  0  0  0  0
   23.9114    0.9732   -0.9290 O   0  0  0  0  0  0  0  0  0  0  0  0
   27.0561    4.6030   -1.6066 C   0  0  0  0  0  0  0  0  0  0  0  0
   25.6138    4.2559   -1.7881 C   0  0  1  0  0  0  0  0  0  0  0  0
   25.0645    5.1278   -2.7206 O   0  0  0  0  0  0  0  0  0  0  0  0
   25.4345    2.8113   -2.2078 C   0  0  2  0  0  0  0  0  0  0  0  0
   25.9656    1.9410   -1.1882 N   0  0  0  0  0  0  0  0  0  0  0  0
   26.0096    2.5591   -3.5352 C   0  0  0  0  0  0  0  0  0  0  0  0
   25.5606    3.0907   -4.5816 O   0  0  0  0  0  0  0  0  0  0  0  0
   27.0909    1.7034   -3.6580 O   0  0  0  0  0  0  0  0  0  0  0  0
  2  1  1  0
  3  2  1  0
  3  4  1  0
  4  5  1  0
  5  7  1  0
  5  6  1  1
  7 12  1  0
  7  8  2  0
  9 10  1  0
 11 10  1  6
 11 13  1  0
 12 11  1  0
 13 14  2  0
 16 15  1  6
 16 18  1  0
 16 17  1  0
 18 20  1  0
 19 13  1  0
 18 19  1  1
 20 22  1  0
 21 20  2  0
M  END
$$$$
