FDY.pdb
     RDKit          3D

 32 33  0  0  1  0  0  0  0  0999 V2000
    6.1511  -17.8323   25.2868 N   0  0  0  0  0  0  0  0  0  0  0  0
    6.8652  -16.6425   24.8878 C   0  0  1  0  0  0  0  0  0  0  0  0
    7.1978  -15.8651   26.1536 C   0  0  0  0  0  0  0  0  0  0  0  0
    7.0732  -14.4072   25.9681 C   0  0  0  0  0  0  0  0  0  0  0  0
    6.6857  -13.5411   26.9539 C   0  0  0  0  0  0  0  0  0  0  0  0
    6.5753  -12.1883   26.7645 C   0  0  0  0  0  0  0  0  0  0  0  0
    6.8686  -11.6593   25.5152 C   0  0  0  0  0  0  0  0  0  0  0  0
    7.2613  -12.5077   24.5038 C   0  0  0  0  0  0  0  0  0  0  0  0
    7.3631  -13.8662   24.7252 C   0  0  0  0  0  0  0  0  0  0  0  0
    8.1549  -16.9845   24.2408 C   0  0  0  0  0  0  0  0  0  0  0  0
    8.8933  -17.8252   24.8021 O   0  0  0  0  0  0  0  0  0  0  0  0
    8.6000  -16.4114   23.0190 N   0  0  0  0  0  0  0  0  0  0  0  0
    9.8743  -16.7071   22.4296 C   0  0  1  0  0  0  0  0  0  0  0  0
    9.9189  -16.3981   20.9695 C   0  0  0  0  0  0  0  0  0  0  0  0
   11.1136  -16.9537   20.2891 C   0  0  0  0  0  0  0  0  0  0  0  0
   11.9742  -17.6305   20.9049 O   0  0  0  0  0  0  0  0  0  0  0  0
   10.9803  -16.0090   23.1755 C   0  0  0  0  0  0  0  0  0  0  0  0
   11.2582  -14.8048   22.8853 O   0  0  0  0  0  0  0  0  0  0  0  0
   11.3344  -16.7493   18.9348 O   0  0  0  0  0  0  0  0  0  0  0  0
    8.8962  -14.7331   29.7650 O   0  0  0  0  0  0  0  0  0  0  0  0
    9.8914  -15.1854   28.8988 C   0  0  0  0  0  0  0  0  0  0  0  0
   10.2681  -16.5106   28.8457 C   0  0  0  0  0  0  0  0  0  0  0  0
   11.2459  -16.9795   28.0003 C   0  0  0  0  0  0  0  0  0  0  0  0
   11.9064  -16.1192   27.1489 C   0  0  0  0  0  0  0  0  0  0  0  0
   12.9700  -16.5952   26.2401 C   0  0  0  0  0  0  0  0  0  0  0  0
   12.8807  -16.0321   24.8428 C   0  0  2  0  0  0  0  0  0  0  0  0
   11.7211  -16.6372   24.1840 N   0  0  0  0  0  0  0  0  0  0  0  0
   14.0839  -16.4331   24.0898 C   0  0  0  0  0  0  0  0  0  0  0  0
   14.0870  -17.3533   23.0508 O   0  0  0  0  0  0  0  0  0  0  0  0
   11.5416  -14.7825   27.1879 C   0  0  0  0  0  0  0  0  0  0  0  0
   10.5588  -14.3352   28.0431 C   0  0  0  0  0  0  0  0  0  0  0  0
   15.1946  -15.9293   24.3829 O   0  0  0  0  0  0  0  0  0  0  0  0
  2  1  1  1
  3  2  1  0
  4  3  1  0
  4  9  1  0
  5  4  2  0
  6  5  1  0
  6  7  2  0
  7  8  1  0
  8  9  2  0
 10  2  1  0
 10 11  2  0
 12 10  1  0
 13 12  1  0
 13 14  1  6
 15 14  1  0
 15 19  1  0
 16 15  2  0
 17 13  1  0
 18 17  2  0
 20 21  1  0
 21 22  2  0
 22 23  1  0
 24 23  2  0
 24 25  1  0
 26 25  1  1
 26 28  1  0
 26 27  1  0
 27 17  1  0
 28 29  1  0
 30 24  1  0
 31 21  1  0
 31 30  2  0
 32 28  2  0
M  END
$$$$
