FDY.pdb
     RDKit          3D

 32 33  0  0  1  0  0  0  0  0999 V2000
    6.4106  -17.9391   20.4629 N   0  0  0  0  0  0  0  0  0  0  0  0
    7.2119  -16.7878   20.8055 C   0  0  1  0  0  0  0  0  0  0  0  0
    6.3047  -15.7998   21.5253 C   0  0  0  0  0  0  0  0  0  0  0  0
    6.9233  -14.4684   21.6681 C   0  0  0  0  0  0  0  0  0  0  0  0
    7.0643  -13.8147   22.8619 C   0  0  0  0  0  0  0  0  0  0  0  0
    7.6421  -12.5773   22.9769 C   0  0  0  0  0  0  0  0  0  0  0  0
    8.1110  -11.9465   21.8329 C   0  0  0  0  0  0  0  0  0  0  0  0
    7.9823  -12.5812   20.6174 C   0  0  0  0  0  0  0  0  0  0  0  0
    7.3956  -13.8276   20.5334 C   0  0  0  0  0  0  0  0  0  0  0  0
    8.2920  -17.1511   21.7543 C   0  0  0  0  0  0  0  0  0  0  0  0
    8.0511  -18.0246   22.6180 O   0  0  0  0  0  0  0  0  0  0  0  0
    9.5857  -16.5634   21.7382 N   0  0  0  0  0  0  0  0  0  0  0  0
   10.6674  -17.0198   22.5630 C   0  0  1  0  0  0  0  0  0  0  0  0
   11.9998  -16.8501   21.9110 C   0  0  0  0  0  0  0  0  0  0  0  0
   13.0935  -17.5571   22.6201 C   0  0  0  0  0  0  0  0  0  0  0  0
   14.0431  -16.9384   23.1617 O   0  0  0  0  0  0  0  0  0  0  0  0
   10.6247  -16.3540   23.9128 C   0  0  0  0  0  0  0  0  0  0  0  0
   11.0879  -15.1787   24.0379 O   0  0  0  0  0  0  0  0  0  0  0  0
   13.1160  -18.9409   22.7171 O   0  0  0  0  0  0  0  0  0  0  0  0
    6.0005  -11.5857   25.4270 O   0  0  0  0  0  0  0  0  0  0  0  0
    6.6830  -12.7440   25.7985 C   0  0  0  0  0  0  0  0  0  0  0  0
    6.2496  -13.9992   25.4277 C   0  0  0  0  0  0  0  0  0  0  0  0
    6.9057  -15.1545   25.7818 C   0  0  0  0  0  0  0  0  0  0  0  0
    8.0544  -15.1019   26.5426 C   0  0  0  0  0  0  0  0  0  0  0  0
    8.7710  -16.3291   26.9477 C   0  0  0  0  0  0  0  0  0  0  0  0
   10.1733  -16.4303   26.3993 C   0  0  2  0  0  0  0  0  0  0  0  0
   10.0912  -16.9818   25.0449 N   0  0  0  0  0  0  0  0  0  0  0  0
   10.9402  -17.3820   27.2249 C   0  0  0  0  0  0  0  0  0  0  0  0
   11.4448  -18.5897   26.7632 O   0  0  0  0  0  0  0  0  0  0  0  0
    8.5058  -13.8485   26.9254 C   0  0  0  0  0  0  0  0  0  0  0  0
    7.8323  -12.7043   26.5588 C   0  0  0  0  0  0  0  0  0  0  0  0
   11.1684  -17.1137   28.4288 O   0  0  0  0  0  0  0  0  0  0  0  0
  2  1  1  1
  3  2  1  0
  4  3  1  0
  4  9  1  0
  5  4  2  0
  6  5  1  0
  6  7  2  0
  7  8  1  0
  8  9  2  0
 10  2  1  0
 10 11  2  0
 12 10  1  0
 13 12  1  0
 13 14  1  6
 15 14  1  0
 15 19  1  0
 16 15  2  0
 17 13  1  0
 18 17  2  0
 20 21  1  0
 21 22  2  0
 22 23  1  0
 24 23  2  0
 24 25  1  0
 26 25  1  1
 26 28  1  0
 26 27  1  0
 27 17  1  0
 28 29  1  0
 30 24  1  0
 31 21  1  0
 31 30  2  0
 32 28  2  0
M  END
$$$$
