FDY.pdb
     RDKit          3D

 32 33  0  0  1  0  0  0  0  0999 V2000
    6.5643  -16.6048   25.8163 N   0  0  0  0  0  0  0  0  0  0  0  0
    6.6403  -16.6637   24.3756 C   0  0  1  0  0  0  0  0  0  0  0  0
    6.0624  -15.3630   23.8357 C   0  0  0  0  0  0  0  0  0  0  0  0
    6.4550  -14.1939   24.6446 C   0  0  0  0  0  0  0  0  0  0  0  0
    7.6337  -13.5167   24.4885 C   0  0  0  0  0  0  0  0  0  0  0  0
    7.9828  -12.4314   25.2490 C   0  0  0  0  0  0  0  0  0  0  0  0
    7.1055  -11.9882   26.2289 C   0  0  0  0  0  0  0  0  0  0  0  0
    5.9115  -12.6507   26.4084 C   0  0  0  0  0  0  0  0  0  0  0  0
    5.5877  -13.7411   25.6266 C   0  0  0  0  0  0  0  0  0  0  0  0
    8.0487  -16.7327   23.9167 C   0  0  0  0  0  0  0  0  0  0  0  0
    8.9334  -16.9987   24.7615 O   0  0  0  0  0  0  0  0  0  0  0  0
    8.4508  -16.5138   22.5715 N   0  0  0  0  0  0  0  0  0  0  0  0
    9.7468  -16.8708   22.0698 C   0  0  1  0  0  0  0  0  0  0  0  0
    9.7845  -16.9539   20.5795 C   0  0  0  0  0  0  0  0  0  0  0  0
   11.0829  -17.4386   20.0522 C   0  0  0  0  0  0  0  0  0  0  0  0
   11.5002  -18.6012   20.2802 O   0  0  0  0  0  0  0  0  0  0  0  0
   10.7986  -15.9311   22.5969 C   0  0  0  0  0  0  0  0  0  0  0  0
   10.6595  -14.6824   22.4156 O   0  0  0  0  0  0  0  0  0  0  0  0
   11.8983  -16.6245   19.2795 O   0  0  0  0  0  0  0  0  0  0  0  0
   11.2776  -15.1694   31.0353 O   0  0  0  0  0  0  0  0  0  0  0  0
   11.1886  -15.4445   29.6708 C   0  0  0  0  0  0  0  0  0  0  0  0
   11.3004  -14.4557   28.7165 C   0  0  0  0  0  0  0  0  0  0  0  0
   11.2162  -14.7029   27.3666 C   0  0  0  0  0  0  0  0  0  0  0  0
   11.0109  -15.9845   26.9012 C   0  0  0  0  0  0  0  0  0  0  0  0
   10.9034  -16.2751   25.4563 C   0  0  0  0  0  0  0  0  0  0  0  0
   12.1959  -16.0995   24.6972 C   0  0  2  0  0  0  0  0  0  0  0  0
   11.9328  -16.3804   23.2841 N   0  0  0  0  0  0  0  0  0  0  0  0
   13.1703  -17.0967   25.1785 C   0  0  0  0  0  0  0  0  0  0  0  0
   12.8499  -18.4032   25.5203 O   0  0  0  0  0  0  0  0  0  0  0  0
   10.8957  -16.9924   27.8458 C   0  0  0  0  0  0  0  0  0  0  0  0
   10.9835  -16.7214   29.1934 C   0  0  0  0  0  0  0  0  0  0  0  0
   14.3767  -16.7754   25.3000 O   0  0  0  0  0  0  0  0  0  0  0  0
  2  1  1  1
  3  2  1  0
  4  3  1  0
  4  9  1  0
  5  4  2  0
  6  5  1  0
  6  7  2  0
  7  8  1  0
  8  9  2  0
 10  2  1  0
 10 11  2  0
 12 10  1  0
 13 12  1  0
 13 14  1  6
 15 14  1  0
 15 19  1  0
 16 15  2  0
 17 13  1  0
 18 17  2  0
 20 21  1  0
 21 22  2  0
 22 23  1  0
 24 23  2  0
 24 25  1  0
 26 25  1  1
 26 28  1  0
 26 27  1  0
 27 17  1  0
 28 29  1  0
 30 24  1  0
 31 21  1  0
 31 30  2  0
 32 28  2  0
M  END
$$$$
