FDY.pdb
     RDKit          3D

 32 33  0  0  1  0  0  0  0  0999 V2000
    6.1585  -18.2636   21.5497 N   0  0  0  0  0  0  0  0  0  0  0  0
    7.0014  -17.0915   21.5249 C   0  0  1  0  0  0  0  0  0  0  0  0
    6.1780  -15.9274   22.0580 C   0  0  0  0  0  0  0  0  0  0  0  0
    6.8260  -14.6239   21.8200 C   0  0  0  0  0  0  0  0  0  0  0  0
    7.1766  -13.7513   22.8139 C   0  0  0  0  0  0  0  0  0  0  0  0
    7.7786  -12.5435   22.5751 C   0  0  0  0  0  0  0  0  0  0  0  0
    8.0510  -12.1767   21.2644 C   0  0  0  0  0  0  0  0  0  0  0  0
    7.7090  -13.0356   20.2436 C   0  0  0  0  0  0  0  0  0  0  0  0
    7.1034  -14.2457   20.5156 C   0  0  0  0  0  0  0  0  0  0  0  0
    8.1632  -17.2490   22.4328 C   0  0  0  0  0  0  0  0  0  0  0  0
    8.1080  -18.1348   23.3155 O   0  0  0  0  0  0  0  0  0  0  0  0
    9.3363  -16.4505   22.3571 N   0  0  0  0  0  0  0  0  0  0  0  0
   10.6539  -16.9633   22.6008 C   0  0  1  0  0  0  0  0  0  0  0  0
   11.6020  -16.6683   21.4856 C   0  0  0  0  0  0  0  0  0  0  0  0
   12.9878  -17.1188   21.7599 C   0  0  0  0  0  0  0  0  0  0  0  0
   13.9765  -16.3602   21.6023 O   0  0  0  0  0  0  0  0  0  0  0  0
   11.1824  -16.4666   23.9203 C   0  0  0  0  0  0  0  0  0  0  0  0
   12.3601  -16.7827   24.2736 O   0  0  0  0  0  0  0  0  0  0  0  0
   13.2548  -18.4054   22.2053 O   0  0  0  0  0  0  0  0  0  0  0  0
    5.7723  -11.2769   26.1557 O   0  0  0  0  0  0  0  0  0  0  0  0
    6.5106  -12.4580   26.2311 C   0  0  0  0  0  0  0  0  0  0  0  0
    5.9375  -13.6937   26.0181 C   0  0  0  0  0  0  0  0  0  0  0  0
    6.6448  -14.8707   26.0870 C   0  0  0  0  0  0  0  0  0  0  0  0
    7.9922  -14.8615   26.3797 C   0  0  0  0  0  0  0  0  0  0  0  0
    8.7724  -16.1130   26.4726 C   0  0  0  0  0  0  0  0  0  0  0  0
   10.2479  -15.9373   26.2091 C   0  0  2  0  0  0  0  0  0  0  0  0
   10.4235  -15.6643   24.7809 N   0  0  0  0  0  0  0  0  0  0  0  0
   10.9401  -17.2042   26.5116 C   0  0  0  0  0  0  0  0  0  0  0  0
   10.8927  -18.3340   25.7068 O   0  0  0  0  0  0  0  0  0  0  0  0
    8.5864  -13.6282   26.5973 C   0  0  0  0  0  0  0  0  0  0  0  0
    7.8579  -12.4615   26.5229 C   0  0  0  0  0  0  0  0  0  0  0  0
   11.6244  -17.3016   27.5583 O   0  0  0  0  0  0  0  0  0  0  0  0
  2  1  1  1
  3  2  1  0
  4  3  1  0
  4  9  1  0
  5  4  2  0
  6  5  1  0
  6  7  2  0
  7  8  1  0
  8  9  2  0
 10  2  1  0
 10 11  2  0
 12 10  1  0
 13 12  1  0
 13 14  1  6
 15 14  1  0
 15 19  1  0
 16 15  2  0
 17 13  1  0
 18 17  2  0
 20 21  1  0
 21 22  2  0
 22 23  1  0
 24 23  2  0
 24 25  1  0
 26 25  1  6
 26 28  1  0
 26 27  1  0
 27 17  1  0
 28 29  1  0
 30 24  1  0
 31 21  1  0
 31 30  2  0
 32 28  2  0
M  END
$$$$
