FDY.pdb
     RDKit          3D

 32 33  0  0  1  0  0  0  0  0999 V2000
    5.8592  -17.6683   22.0943 N   0  0  0  0  0  0  0  0  0  0  0  0
    6.8428  -16.7016   22.5220 C   0  0  1  0  0  0  0  0  0  0  0  0
    6.7267  -16.5726   24.0343 C   0  0  0  0  0  0  0  0  0  0  0  0
    6.9651  -15.1942   24.5018 C   0  0  0  0  0  0  0  0  0  0  0  0
    6.5069  -14.7006   25.6929 C   0  0  0  0  0  0  0  0  0  0  0  0
    6.7378  -13.4165   26.1124 C   0  0  0  0  0  0  0  0  0  0  0  0
    7.4714  -12.5657   25.2972 C   0  0  0  0  0  0  0  0  0  0  0  0
    7.9452  -13.0357   24.0924 C   0  0  0  0  0  0  0  0  0  0  0  0
    7.6963  -14.3344   23.6971 C   0  0  0  0  0  0  0  0  0  0  0  0
    8.2182  -17.1749   22.2342 C   0  0  0  0  0  0  0  0  0  0  0  0
    8.5273  -18.3381   22.5783 O   0  0  0  0  0  0  0  0  0  0  0  0
    9.2057  -16.3820   21.5895 N   0  0  0  0  0  0  0  0  0  0  0  0
   10.5982  -16.7268   21.5643 C   0  0  1  0  0  0  0  0  0  0  0  0
   11.3562  -15.9850   20.5134 C   0  0  0  0  0  0  0  0  0  0  0  0
   10.9206  -16.3137   19.1346 C   0  0  0  0  0  0  0  0  0  0  0  0
   10.8768  -15.4463   18.2271 O   0  0  0  0  0  0  0  0  0  0  0  0
   11.2166  -16.5422   22.9247 C   0  0  0  0  0  0  0  0  0  0  0  0
   12.4289  -16.8740   23.1035 O   0  0  0  0  0  0  0  0  0  0  0  0
   10.5402  -17.6012   18.7844 O   0  0  0  0  0  0  0  0  0  0  0  0
   11.4302  -15.0825   31.7554 O   0  0  0  0  0  0  0  0  0  0  0  0
   11.0733  -15.1319   30.4079 C   0  0  0  0  0  0  0  0  0  0  0  0
   10.6685  -16.3016   29.8008 C   0  0  0  0  0  0  0  0  0  0  0  0
   10.3121  -16.3744   28.4748 C   0  0  0  0  0  0  0  0  0  0  0  0
   10.3463  -15.2496   27.6781 C   0  0  0  0  0  0  0  0  0  0  0  0
    9.9810  -15.3035   26.2473 C   0  0  0  0  0  0  0  0  0  0  0  0
   11.0535  -15.8893   25.3617 C   0  0  2  0  0  0  0  0  0  0  0  0
   10.5051  -16.0156   24.0095 N   0  0  0  0  0  0  0  0  0  0  0  0
   11.3795  -17.2453   25.8417 C   0  0  0  0  0  0  0  0  0  0  0  0
   10.5640  -18.3548   25.6675 O   0  0  0  0  0  0  0  0  0  0  0  0
   10.7511  -14.0637   28.2707 C   0  0  0  0  0  0  0  0  0  0  0  0
   11.1036  -14.0143   29.6013 C   0  0  0  0  0  0  0  0  0  0  0  0
   12.4567  -17.4438   26.4528 O   0  0  0  0  0  0  0  0  0  0  0  0
  2  1  1  1
  3  2  1  0
  4  3  1  0
  4  9  1  0
  5  4  2  0
  6  5  1  0
  6  7  2  0
  7  8  1  0
  8  9  2  0
 10  2  1  0
 10 11  2  0
 12 10  1  0
 13 12  1  0
 13 14  1  6
 15 14  1  0
 15 19  1  0
 16 15  2  0
 17 13  1  0
 18 17  2  0
 20 21  1  0
 21 22  2  0
 22 23  1  0
 24 23  2  0
 24 25  1  0
 26 25  1  1
 26 28  1  0
 26 27  1  0
 27 17  1  0
 28 29  1  0
 30 24  1  0
 31 21  1  0
 31 30  2  0
 32 28  2  0
M  END
$$$$
