FDY.pdb
     RDKit          3D

 32 33  0  0  1  0  0  0  0  0999 V2000
    6.7710  -17.5424   21.5348 N   0  0  0  0  0  0  0  0  0  0  0  0
    7.3978  -16.6143   22.4462 C   0  0  1  0  0  0  0  0  0  0  0  0
    6.5371  -16.5564   23.7004 C   0  0  0  0  0  0  0  0  0  0  0  0
    6.8567  -15.3935   24.5494 C   0  0  0  0  0  0  0  0  0  0  0  0
    6.6300  -15.3457   25.8980 C   0  0  0  0  0  0  0  0  0  0  0  0
    6.9334  -14.2565   26.6725 C   0  0  0  0  0  0  0  0  0  0  0  0
    7.4990  -13.1411   26.0702 C   0  0  0  0  0  0  0  0  0  0  0  0
    7.7384  -13.1612   24.7141 C   0  0  0  0  0  0  0  0  0  0  0  0
    7.4218  -14.2732   23.9603 C   0  0  0  0  0  0  0  0  0  0  0  0
    8.7363  -17.0965   22.8640 C   0  0  0  0  0  0  0  0  0  0  0  0
    8.8091  -18.1927   23.4641 O   0  0  0  0  0  0  0  0  0  0  0  0
    9.9417  -16.3840   22.6214 N   0  0  0  0  0  0  0  0  0  0  0  0
   11.2341  -16.8677   23.0145 C   0  0  1  0  0  0  0  0  0  0  0  0
   12.3359  -16.3181   22.1700 C   0  0  0  0  0  0  0  0  0  0  0  0
   13.6429  -16.9757   22.4110 C   0  0  0  0  0  0  0  0  0  0  0  0
   13.7695  -18.2254   22.4022 O   0  0  0  0  0  0  0  0  0  0  0  0
   11.4773  -16.6067   24.4773 C   0  0  0  0  0  0  0  0  0  0  0  0
   12.2670  -15.6723   24.8162 O   0  0  0  0  0  0  0  0  0  0  0  0
   14.7898  -16.2353   22.6582 O   0  0  0  0  0  0  0  0  0  0  0  0
    9.3771  -11.3959   28.1187 O   0  0  0  0  0  0  0  0  0  0  0  0
    9.5907  -12.7719   28.0378 C   0  0  0  0  0  0  0  0  0  0  0  0
    8.9257  -13.5630   27.1252 C   0  0  0  0  0  0  0  0  0  0  0  0
    9.1199  -14.9206   27.0270 C   0  0  0  0  0  0  0  0  0  0  0  0
   10.0118  -15.5621   27.8602 C   0  0  0  0  0  0  0  0  0  0  0  0
   10.2292  -17.0218   27.7841 C   0  0  0  0  0  0  0  0  0  0  0  0
   11.3558  -17.4274   26.8656 C   0  0  2  0  0  0  0  0  0  0  0  0
   10.8642  -17.3574   25.4877 N   0  0  0  0  0  0  0  0  0  0  0  0
   11.7145  -18.8310   27.1428 C   0  0  0  0  0  0  0  0  0  0  0  0
   11.4750  -19.8867   26.2742 O   0  0  0  0  0  0  0  0  0  0  0  0
   10.6900  -14.7834   28.7849 C   0  0  0  0  0  0  0  0  0  0  0  0
   10.4795  -13.4245   28.8652 C   0  0  0  0  0  0  0  0  0  0  0  0
   12.2732  -19.1251   28.2266 O   0  0  0  0  0  0  0  0  0  0  0  0
  2  1  1  6
  3  2  1  0
  4  3  1  0
  4  9  1  0
  5  4  2  0
  6  5  1  0
  6  7  2  0
  7  8  1  0
  8  9  2  0
 10  2  1  0
 10 11  2  0
 12 10  1  0
 13 12  1  0
 13 14  1  6
 15 14  1  0
 15 19  1  0
 16 15  2  0
 17 13  1  0
 18 17  2  0
 20 21  1  0
 21 22  2  0
 22 23  1  0
 24 23  2  0
 24 25  1  0
 26 25  1  1
 26 28  1  0
 26 27  1  0
 27 17  1  0
 28 29  1  0
 30 24  1  0
 31 21  1  0
 31 30  2  0
 32 28  2  0
M  END
$$$$
