FDY.pdb
     RDKit          3D

 32 33  0  0  1  0  0  0  0  0999 V2000
    7.0163  -17.2433   20.7384 N   0  0  0  0  0  0  0  0  0  0  0  0
    7.5770  -16.3643   21.7372 C   0  0  1  0  0  0  0  0  0  0  0  0
    6.5610  -16.2499   22.8650 C   0  0  0  0  0  0  0  0  0  0  0  0
    6.8989  -15.1784   23.8206 C   0  0  0  0  0  0  0  0  0  0  0  0
    6.6934  -15.2649   25.1707 C   0  0  0  0  0  0  0  0  0  0  0  0
    7.0136  -14.2594   26.0451 C   0  0  0  0  0  0  0  0  0  0  0  0
    7.5746  -13.0911   25.5482 C   0  0  0  0  0  0  0  0  0  0  0  0
    7.7928  -12.9763   24.1932 C   0  0  0  0  0  0  0  0  0  0  0  0
    7.4597  -14.0065   23.3374 C   0  0  0  0  0  0  0  0  0  0  0  0
    8.8103  -16.9406   22.3251 C   0  0  0  0  0  0  0  0  0  0  0  0
    8.7394  -18.0721   22.8559 O   0  0  0  0  0  0  0  0  0  0  0  0
   10.0687  -16.2805   22.3199 N   0  0  0  0  0  0  0  0  0  0  0  0
   11.2690  -16.8712   22.8387 C   0  0  1  0  0  0  0  0  0  0  0  0
   12.4874  -16.4609   22.0794 C   0  0  0  0  0  0  0  0  0  0  0  0
   13.6877  -17.2622   22.4200 C   0  0  0  0  0  0  0  0  0  0  0  0
   14.8246  -16.7403   22.5337 O   0  0  0  0  0  0  0  0  0  0  0  0
   11.4117  -16.5817   24.3093 C   0  0  0  0  0  0  0  0  0  0  0  0
   12.1416  -15.6118   24.6810 O   0  0  0  0  0  0  0  0  0  0  0  0
   13.6071  -18.6313   22.6294 O   0  0  0  0  0  0  0  0  0  0  0  0
    9.3107  -11.2457   27.8791 O   0  0  0  0  0  0  0  0  0  0  0  0
    9.4556  -12.6298   27.7862 C   0  0  0  0  0  0  0  0  0  0  0  0
   10.3963  -13.3179   28.5227 C   0  0  0  0  0  0  0  0  0  0  0  0
   10.5573  -14.6813   28.4478 C   0  0  0  0  0  0  0  0  0  0  0  0
    9.7626  -15.4350   27.6102 C   0  0  0  0  0  0  0  0  0  0  0  0
    9.9241  -16.8998   27.5013 C   0  0  0  0  0  0  0  0  0  0  0  0
   11.1360  -17.3264   26.7096 C   0  0  2  0  0  0  0  0  0  0  0  0
   10.7679  -17.3433   25.2921 N   0  0  0  0  0  0  0  0  0  0  0  0
   11.4964  -18.7037   27.0956 C   0  0  0  0  0  0  0  0  0  0  0  0
   11.3763  -19.8072   26.2625 O   0  0  0  0  0  0  0  0  0  0  0  0
    8.8109  -14.7608   26.8612 C   0  0  0  0  0  0  0  0  0  0  0  0
    8.6672  -13.3939   26.9525 C   0  0  0  0  0  0  0  0  0  0  0  0
   11.9430  -18.9278   28.2461 O   0  0  0  0  0  0  0  0  0  0  0  0
  2  1  1  6
  3  2  1  0
  4  3  1  0
  4  9  1  0
  5  4  2  0
  6  5  1  0
  6  7  2  0
  7  8  1  0
  8  9  2  0
 10  2  1  0
 10 11  2  0
 12 10  1  0
 13 12  1  0
 13 14  1  6
 15 14  1  0
 15 19  1  0
 16 15  2  0
 17 13  1  0
 18 17  2  0
 20 21  1  0
 21 22  2  0
 22 23  1  0
 24 23  2  0
 24 25  1  0
 26 25  1  1
 26 28  1  0
 26 27  1  0
 27 17  1  0
 28 29  1  0
 30 24  1  0
 31 21  1  0
 31 30  2  0
 32 28  2  0
M  END
$$$$
