FDY.pdb
     RDKit          3D

 32 33  0  0  1  0  0  0  0  0999 V2000
    6.0916  -18.5291   24.6449 N   0  0  0  0  0  0  0  0  0  0  0  0
    6.6675  -17.2252   24.4147 C   0  0  1  0  0  0  0  0  0  0  0  0
    6.7313  -16.5120   25.7581 C   0  0  0  0  0  0  0  0  0  0  0  0
    6.9358  -15.0584   25.6147 C   0  0  0  0  0  0  0  0  0  0  0  0
    7.1174  -14.4263   24.4148 C   0  0  0  0  0  0  0  0  0  0  0  0
    7.3059  -13.0737   24.2994 C   0  0  0  0  0  0  0  0  0  0  0  0
    7.3150  -12.2967   25.4494 C   0  0  0  0  0  0  0  0  0  0  0  0
    7.1345  -12.9063   26.6712 C   0  0  0  0  0  0  0  0  0  0  0  0
    6.9470  -14.2710   26.7554 C   0  0  0  0  0  0  0  0  0  0  0  0
    8.0606  -17.3358   23.9190 C   0  0  0  0  0  0  0  0  0  0  0  0
    8.8778  -18.0002   24.5954 O   0  0  0  0  0  0  0  0  0  0  0  0
    8.5204  -16.7297   22.7187 N   0  0  0  0  0  0  0  0  0  0  0  0
    9.8627  -16.8689   22.2313 C   0  0  1  0  0  0  0  0  0  0  0  0
    9.9634  -16.6648   20.7556 C   0  0  0  0  0  0  0  0  0  0  0  0
    9.1233  -17.6049   19.9752 C   0  0  0  0  0  0  0  0  0  0  0  0
    8.9958  -18.8108   20.3029 O   0  0  0  0  0  0  0  0  0  0  0  0
   10.7978  -15.9565   22.9797 C   0  0  0  0  0  0  0  0  0  0  0  0
   11.1284  -14.8471   22.4588 O   0  0  0  0  0  0  0  0  0  0  0  0
    8.4374  -17.1915   18.8424 O   0  0  0  0  0  0  0  0  0  0  0  0
    9.5204  -16.9628   30.5790 O   0  0  0  0  0  0  0  0  0  0  0  0
   10.0180  -16.3590   29.4244 C   0  0  0  0  0  0  0  0  0  0  0  0
    9.3711  -16.4566   28.2108 C   0  0  0  0  0  0  0  0  0  0  0  0
    9.8424  -15.8700   27.0600 C   0  0  0  0  0  0  0  0  0  0  0  0
   11.0127  -15.1410   27.0746 C   0  0  0  0  0  0  0  0  0  0  0  0
   11.5476  -14.5118   25.8492 C   0  0  0  0  0  0  0  0  0  0  0  0
   12.3017  -15.4614   24.9508 C   0  0  2  0  0  0  0  0  0  0  0  0
   11.3222  -16.2830   24.2363 N   0  0  0  0  0  0  0  0  0  0  0  0
   13.1173  -16.3620   25.7870 C   0  0  0  0  0  0  0  0  0  0  0  0
   12.8710  -17.7184   25.9476 O   0  0  0  0  0  0  0  0  0  0  0  0
   11.6778  -15.0317   28.2858 C   0  0  0  0  0  0  0  0  0  0  0  0
   11.1868  -15.6279   29.4264 C   0  0  0  0  0  0  0  0  0  0  0  0
   14.1055  -15.9040   26.4091 O   0  0  0  0  0  0  0  0  0  0  0  0
  2  1  1  1
  3  2  1  0
  4  3  1  0
  4  9  1  0
  5  4  2  0
  6  5  1  0
  6  7  2  0
  7  8  1  0
  8  9  2  0
 10  2  1  0
 10 11  2  0
 12 10  1  0
 13 12  1  0
 13 14  1  6
 15 14  1  0
 15 19  1  0
 16 15  2  0
 17 13  1  0
 18 17  2  0
 20 21  1  0
 21 22  2  0
 22 23  1  0
 24 23  2  0
 24 25  1  0
 26 25  1  1
 26 28  1  0
 26 27  1  0
 27 17  1  0
 28 29  1  0
 30 24  1  0
 31 21  1  0
 31 30  2  0
 32 28  2  0
M  END
$$$$
