FDY.pdb
     RDKit          3D

 32 33  0  0  1  0  0  0  0  0999 V2000
    6.6771  -17.9992   21.2005 N   0  0  0  0  0  0  0  0  0  0  0  0
    7.4706  -16.8308   21.5002 C   0  0  1  0  0  0  0  0  0  0  0  0
    6.5476  -15.8071   22.1463 C   0  0  0  0  0  0  0  0  0  0  0  0
    7.1281  -14.4512   22.1537 C   0  0  0  0  0  0  0  0  0  0  0  0
    7.7502  -13.8796   21.0773 C   0  0  0  0  0  0  0  0  0  0  0  0
    8.2841  -12.6177   21.1013 C   0  0  0  0  0  0  0  0  0  0  0  0
    8.1955  -11.8733   22.2695 C   0  0  0  0  0  0  0  0  0  0  0  0
    7.5746  -12.4235   23.3689 C   0  0  0  0  0  0  0  0  0  0  0  0
    7.0463  -13.6974   23.3141 C   0  0  0  0  0  0  0  0  0  0  0  0
    8.5288  -17.1428   22.4910 C   0  0  0  0  0  0  0  0  0  0  0  0
    8.2200  -17.8342   23.4879 O   0  0  0  0  0  0  0  0  0  0  0  0
    9.8742  -16.7009   22.3727 N   0  0  0  0  0  0  0  0  0  0  0  0
   10.9206  -17.1194   23.2606 C   0  0  1  0  0  0  0  0  0  0  0  0
   12.2739  -17.0367   22.6351 C   0  0  0  0  0  0  0  0  0  0  0  0
   12.3685  -17.7613   21.3449 C   0  0  0  0  0  0  0  0  0  0  0  0
   11.8408  -18.8886   21.1758 O   0  0  0  0  0  0  0  0  0  0  0  0
   10.8618  -16.3488   24.5528 C   0  0  0  0  0  0  0  0  0  0  0  0
   11.1638  -15.1158   24.5521 O   0  0  0  0  0  0  0  0  0  0  0  0
   13.0480  -17.2229   20.2617 O   0  0  0  0  0  0  0  0  0  0  0  0
    6.4841  -11.6426   25.8212 O   0  0  0  0  0  0  0  0  0  0  0  0
    7.1930  -12.7473   26.2931 C   0  0  0  0  0  0  0  0  0  0  0  0
    7.8711  -12.7230   27.4932 C   0  0  0  0  0  0  0  0  0  0  0  0
    8.5762  -13.7991   27.9785 C   0  0  0  0  0  0  0  0  0  0  0  0
    8.6345  -14.9772   27.2645 C   0  0  0  0  0  0  0  0  0  0  0  0
    9.3960  -16.1438   27.7573 C   0  0  0  0  0  0  0  0  0  0  0  0
   10.7293  -16.3379   27.0775 C   0  0  2  0  0  0  0  0  0  0  0  0
   10.4850  -16.9398   25.7649 N   0  0  0  0  0  0  0  0  0  0  0  0
   11.5315  -17.2922   27.8659 C   0  0  0  0  0  0  0  0  0  0  0  0
   12.0973  -17.0068   29.1007 O   0  0  0  0  0  0  0  0  0  0  0  0
    7.9589  -15.0209   26.0549 C   0  0  0  0  0  0  0  0  0  0  0  0
    7.2586  -13.9303   25.5884 C   0  0  0  0  0  0  0  0  0  0  0  0
   11.7363  -18.4463   27.4194 O   0  0  0  0  0  0  0  0  0  0  0  0
  2  1  1  1
  3  2  1  0
  4  3  1  0
  4  9  1  0
  5  4  2  0
  6  5  1  0
  6  7  2  0
  7  8  1  0
  8  9  2  0
 10  2  1  0
 10 11  2  0
 12 10  1  0
 13 12  1  0
 13 14  1  6
 15 14  1  0
 15 19  1  0
 16 15  2  0
 17 13  1  0
 18 17  2  0
 20 21  1  0
 21 22  2  0
 22 23  1  0
 24 23  2  0
 24 25  1  0
 26 25  1  1
 26 28  1  0
 26 27  1  0
 27 17  1  0
 28 29  1  0
 30 24  1  0
 31 21  1  0
 31 30  2  0
 32 28  2  0
M  END
$$$$
