MQK.pdb
     RDKit          3D

 27 26  0  0  1  0  0  0  0  0999 V2000
    7.9103  -11.9644   25.8512 C   0  0  0  0  0  0  0  0  0  0  0  0
    6.8840  -12.7456   27.0997 S   0  0  0  0  0  0  0  0  0  0  0  0
    5.9982  -14.1824   26.4276 C   0  0  0  0  0  0  0  0  0  0  0  0
    6.8606  -14.8790   25.4318 C   0  0  0  0  0  0  0  0  0  0  0  0
    6.1046  -15.7479   24.4829 C   0  0  2  0  0  0  0  0  0  0  0  0
    5.4303  -16.7949   25.2211 N   0  0  0  0  0  0  0  0  0  0  0  0
    7.0473  -16.3753   23.5164 C   0  0  0  0  0  0  0  0  0  0  0  0
    6.6639  -17.2977   22.7214 O   0  0  0  0  0  0  0  0  0  0  0  0
    6.3633  -13.5922   19.7224 N   0  0  0  0  0  0  0  0  0  0  0  0
    7.7419  -13.7681   19.4243 C   0  0  0  0  0  0  0  0  0  0  0  0
    8.0936  -14.1123   18.2852 O   0  0  0  0  0  0  0  0  0  0  0  0
    8.7187  -13.5239   20.5229 C   0  0  0  0  0  0  0  0  0  0  0  0
    8.2262  -14.2008   21.7501 C   0  0  0  0  0  0  0  0  0  0  0  0
    8.9703  -15.3828   22.2216 C   0  0  2  0  0  0  0  0  0  0  0  0
    8.4150  -15.9986   23.4128 N   0  0  0  0  0  0  0  0  0  0  0  0
   10.4501  -15.1583   22.3900 C   0  0  0  0  0  0  0  0  0  0  0  0
   10.9179  -14.0152   22.1636 O   0  0  0  0  0  0  0  0  0  0  0  0
   11.2489  -16.2359   22.7942 N   0  0  0  0  0  0  0  0  0  0  0  0
   12.3842  -16.2575   23.6494 C   0  0  1  0  0  0  0  0  0  0  0  0
   12.5351  -17.5271   24.4122 C   0  0  0  0  0  0  0  0  0  0  0  0
   11.2398  -17.9646   25.0221 C   0  0  0  0  0  0  0  0  0  0  0  0
   11.4570  -18.4148   26.4645 C   0  0  0  0  0  0  0  0  0  0  0  0
   10.0903  -18.2980   27.1386 C   0  0  0  0  0  0  0  0  0  0  0  0
   10.1894  -18.7138   28.5296 N   0  0  0  0  0  0  0  0  0  0  0  0
   13.6144  -15.8277   22.9625 C   0  0  0  0  0  0  0  0  0  0  0  0
   13.6980  -15.6395   21.7423 O   0  0  0  0  0  0  0  0  0  0  0  0
   14.7520  -15.6206   23.7342 O   0  0  0  0  0  0  0  0  0  0  0  0
  2  1  1  0
  3  4  1  0
  3  2  1  0
  4  5  1  0
  5  6  1  1
  7  5  1  0
  8  7  2  0
 10  9  1  0
 11 10  2  0
 12 10  1  0
 14 13  1  1
 13 12  1  0
 14 15  1  0
 15  7  1  0
 16 14  1  0
 17 16  2  0
 18 16  1  0
 19 25  1  0
 19 18  1  0
 19 20  1  6
 21 20  1  0
 22 21  1  0
 22 23  1  0
 23 24  1  0
 25 27  1  0
 26 25  2  0
M  END
$$$$
