MQK.pdb
     RDKit          3D

 27 26  0  0  1  0  0  0  0  0999 V2000
    8.0500  -12.1839   27.9236 C   0  0  0  0  0  0  0  0  0  0  0  0
    6.3207  -12.1667   27.4429 S   0  0  0  0  0  0  0  0  0  0  0  0
    6.1072  -12.6763   25.7122 C   0  0  0  0  0  0  0  0  0  0  0  0
    5.8224  -14.1378   25.6541 C   0  0  0  0  0  0  0  0  0  0  0  0
    7.0348  -14.9799   25.4353 C   0  0  2  0  0  0  0  0  0  0  0  0
    8.2186  -14.2159   25.7679 N   0  0  0  0  0  0  0  0  0  0  0  0
    7.1135  -15.3851   24.0049 C   0  0  0  0  0  0  0  0  0  0  0  0
    6.2610  -16.1880   23.4963 O   0  0  0  0  0  0  0  0  0  0  0  0
    8.0918  -12.4315   18.8402 N   0  0  0  0  0  0  0  0  0  0  0  0
    7.9448  -13.7777   18.4087 C   0  0  0  0  0  0  0  0  0  0  0  0
    7.4198  -14.0263   17.3122 O   0  0  0  0  0  0  0  0  0  0  0  0
    8.4414  -14.8486   19.3184 C   0  0  0  0  0  0  0  0  0  0  0  0
    8.2416  -14.4045   20.7218 C   0  0  0  0  0  0  0  0  0  0  0  0
    8.2922  -15.4337   21.7759 C   0  0  2  0  0  0  0  0  0  0  0  0
    8.1244  -14.9155   23.1213 N   0  0  0  0  0  0  0  0  0  0  0  0
    9.4987  -16.3328   21.7083 C   0  0  0  0  0  0  0  0  0  0  0  0
    9.7215  -16.9670   20.6477 O   0  0  0  0  0  0  0  0  0  0  0  0
   10.3277  -16.4264   22.8338 N   0  0  0  0  0  0  0  0  0  0  0  0
   11.4733  -17.2382   23.0560 C   0  0  1  0  0  0  0  0  0  0  0  0
   12.7626  -16.5283   22.8322 C   0  0  0  0  0  0  0  0  0  0  0  0
   13.9368  -17.4344   23.0355 C   0  0  0  0  0  0  0  0  0  0  0  0
   15.2407  -16.6723   22.8131 C   0  0  0  0  0  0  0  0  0  0  0  0
   16.3533  -17.7031   23.0023 C   0  0  0  0  0  0  0  0  0  0  0  0
   17.6503  -17.0662   22.8302 N   0  0  0  0  0  0  0  0  0  0  0  0
   11.4092  -17.9635   24.3366 C   0  0  0  0  0  0  0  0  0  0  0  0
   10.6261  -17.6848   25.2533 O   0  0  0  0  0  0  0  0  0  0  0  0
   12.2835  -19.0275   24.5262 O   0  0  0  0  0  0  0  0  0  0  0  0
  2  1  1  0
  3  4  1  0
  3  2  1  0
  4  5  1  0
  5  6  1  6
  7  5  1  0
  8  7  2  0
 10  9  1  0
 11 10  2  0
 12 10  1  0
 14 13  1  6
 13 12  1  0
 14 15  1  0
 15  7  1  0
 16 14  1  0
 17 16  2  0
 18 16  1  0
 19 25  1  0
 19 18  1  0
 19 20  1  1
 21 20  1  0
 22 21  1  0
 22 23  1  0
 23 24  1  0
 25 27  1  0
 26 25  2  0
M  END
$$$$
