MQK.pdb
     RDKit          3D

 27 26  0  0  1  0  0  0  0  0999 V2000
    6.3815  -10.9991   27.6083 C   0  0  0  0  0  0  0  0  0  0  0  0
    6.6536  -12.0269   26.1621 S   0  0  0  0  0  0  0  0  0  0  0  0
    5.7337  -13.5895   26.2751 C   0  0  0  0  0  0  0  0  0  0  0  0
    6.0432  -14.4373   25.0894 C   0  0  0  0  0  0  0  0  0  0  0  0
    7.4661  -14.8818   25.0210 C   0  0  2  0  0  0  0  0  0  0  0  0
    8.3361  -13.7543   25.2807 N   0  0  0  0  0  0  0  0  0  0  0  0
    7.7622  -15.4112   23.6614 C   0  0  0  0  0  0  0  0  0  0  0  0
    7.1540  -16.4357   23.2028 O   0  0  0  0  0  0  0  0  0  0  0  0
    9.3141  -13.4268   18.1568 N   0  0  0  0  0  0  0  0  0  0  0  0
    8.0331  -13.4271   18.7724 C   0  0  0  0  0  0  0  0  0  0  0  0
    7.0872  -12.8243   18.2419 O   0  0  0  0  0  0  0  0  0  0  0  0
    7.8882  -14.1702   20.0560 C   0  0  0  0  0  0  0  0  0  0  0  0
    9.1913  -14.8039   20.3831 C   0  0  0  0  0  0  0  0  0  0  0  0
    9.2938  -15.5309   21.6614 C   0  0  2  0  0  0  0  0  0  0  0  0
    8.7251  -14.8242   22.7944 N   0  0  0  0  0  0  0  0  0  0  0  0
   10.6812  -16.0160   21.9902 C   0  0  0  0  0  0  0  0  0  0  0  0
   11.3259  -15.4349   22.8976 O   0  0  0  0  0  0  0  0  0  0  0  0
   11.1996  -17.0998   21.2695 N   0  0  0  0  0  0  0  0  0  0  0  0
   12.0071  -18.1837   21.7099 C   0  0  1  0  0  0  0  0  0  0  0  0
   11.4224  -18.9410   22.8506 C   0  0  0  0  0  0  0  0  0  0  0  0
   12.4498  -19.2525   23.8939 C   0  0  0  0  0  0  0  0  0  0  0  0
   11.8409  -20.1113   24.9993 C   0  0  0  0  0  0  0  0  0  0  0  0
   12.9927  -20.4243   25.9541 C   0  0  0  0  0  0  0  0  0  0  0  0
   12.5023  -21.2066   27.0788 N   0  0  0  0  0  0  0  0  0  0  0  0
   12.4567  -19.0387   20.5978 C   0  0  0  0  0  0  0  0  0  0  0  0
   11.7093  -19.4797   19.7157 O   0  0  0  0  0  0  0  0  0  0  0  0
   13.8054  -19.3702   20.5361 O   0  0  0  0  0  0  0  0  0  0  0  0
  2  1  1  0
  3  4  1  0
  3  2  1  0
  4  5  1  0
  5  6  1  6
  7  5  1  0
  8  7  2  0
 10  9  1  0
 11 10  2  0
 12 10  1  0
 14 13  1  6
 13 12  1  0
 14 15  1  0
 15  7  1  0
 16 14  1  0
 17 16  2  0
 18 16  1  0
 19 25  1  0
 19 18  1  0
 19 20  1  1
 21 20  1  0
 22 21  1  0
 22 23  1  0
 23 24  1  0
 25 27  1  0
 26 25  2  0
M  END
$$$$
