MQK.pdb
     RDKit          3D

 27 26  0  0  1  0  0  0  0  0999 V2000
    8.4274  -12.7987   17.5004 C   0  0  0  0  0  0  0  0  0  0  0  0
    7.8904  -11.8104   18.8993 S   0  0  0  0  0  0  0  0  0  0  0  0
    7.7205  -12.8203   20.3999 C   0  0  0  0  0  0  0  0  0  0  0  0
    7.3293  -14.2085   20.0252 C   0  0  0  0  0  0  0  0  0  0  0  0
    7.1292  -15.1146   21.1939 C   0  0  2  0  0  0  0  0  0  0  0  0
    7.0051  -14.3245   22.4005 N   0  0  0  0  0  0  0  0  0  0  0  0
    8.3024  -16.0203   21.3339 C   0  0  0  0  0  0  0  0  0  0  0  0
    8.3619  -17.1290   20.7038 O   0  0  0  0  0  0  0  0  0  0  0  0
   14.0442  -15.5214   21.0474 N   0  0  0  0  0  0  0  0  0  0  0  0
   12.9915  -15.0098   20.2410 C   0  0  0  0  0  0  0  0  0  0  0  0
   13.2340  -14.1714   19.3591 O   0  0  0  0  0  0  0  0  0  0  0  0
   11.6159  -15.5196   20.5029 C   0  0  0  0  0  0  0  0  0  0  0  0
   11.6812  -16.5012   21.6159 C   0  0  0  0  0  0  0  0  0  0  0  0
   10.4713  -16.6801   22.4388 C   0  0  2  0  0  0  0  0  0  0  0  0
    9.4180  -15.7201   22.1637 N   0  0  0  0  0  0  0  0  0  0  0  0
   10.7338  -16.7588   23.9197 C   0  0  0  0  0  0  0  0  0  0  0  0
   10.9336  -15.6947   24.5559 O   0  0  0  0  0  0  0  0  0  0  0  0
   10.7444  -18.0190   24.5316 N   0  0  0  0  0  0  0  0  0  0  0  0
   11.0254  -18.3749   25.8789 C   0  0  1  0  0  0  0  0  0  0  0  0
   10.4313  -19.6764   26.2907 C   0  0  0  0  0  0  0  0  0  0  0  0
    8.9451  -19.5835   26.4442 C   0  0  0  0  0  0  0  0  0  0  0  0
    8.3699  -20.9313   26.8720 C   0  0  0  0  0  0  0  0  0  0  0  0
    6.8683  -20.6998   27.0386 C   0  0  0  0  0  0  0  0  0  0  0  0
    6.2151  -21.9466   27.4080 N   0  0  0  0  0  0  0  0  0  0  0  0
   12.4549  -18.2437   26.2093 C   0  0  0  0  0  0  0  0  0  0  0  0
   13.3571  -18.1625   25.3662 O   0  0  0  0  0  0  0  0  0  0  0  0
   12.8118  -18.2088   27.5523 O   0  0  0  0  0  0  0  0  0  0  0  0
  2  1  1  0
  3  4  1  0
  3  2  1  0
  4  5  1  0
  5  6  1  1
  7  5  1  0
  8  7  2  0
 10  9  1  0
 11 10  2  0
 12 10  1  0
 14 13  1  6
 13 12  1  0
 14 15  1  0
 15  7  1  0
 16 14  1  0
 17 16  2  0
 18 16  1  0
 19 25  1  0
 19 18  1  0
 19 20  1  6
 21 20  1  0
 22 21  1  0
 22 23  1  0
 23 24  1  0
 25 27  1  0
 26 25  2  0
M  END
$$$$
