MQK.pdb
     RDKit          3D

 27 26  0  0  1  0  0  0  0  0999 V2000
    7.7567  -12.7830   27.3471 C   0  0  0  0  0  0  0  0  0  0  0  0
    6.5627  -11.9016   26.3374 S   0  0  0  0  0  0  0  0  0  0  0  0
    5.9926  -12.9177   24.9435 C   0  0  0  0  0  0  0  0  0  0  0  0
    6.8564  -14.1257   24.8207 C   0  0  0  0  0  0  0  0  0  0  0  0
    7.9559  -13.9815   23.8221 C   0  0  2  0  0  0  0  0  0  0  0  0
    7.3902  -13.6984   22.5200 N   0  0  0  0  0  0  0  0  0  0  0  0
    8.7306  -15.2503   23.7413 C   0  0  0  0  0  0  0  0  0  0  0  0
    9.0046  -15.9267   24.7888 O   0  0  0  0  0  0  0  0  0  0  0  0
   12.3276  -19.7255   19.1848 N   0  0  0  0  0  0  0  0  0  0  0  0
   11.1066  -19.0550   19.4673 C   0  0  0  0  0  0  0  0  0  0  0  0
   10.4021  -18.6272   18.5398 O   0  0  0  0  0  0  0  0  0  0  0  0
   10.7256  -18.8962   20.8993 C   0  0  0  0  0  0  0  0  0  0  0  0
   10.0521  -17.5826   21.0646 C   0  0  0  0  0  0  0  0  0  0  0  0
    9.9050  -17.0600   22.4352 C   0  0  2  0  0  0  0  0  0  0  0  0
    9.2107  -15.7879   22.5150 N   0  0  0  0  0  0  0  0  0  0  0  0
   11.1893  -17.0052   23.2199 C   0  0  0  0  0  0  0  0  0  0  0  0
   11.9602  -16.0285   23.0508 O   0  0  0  0  0  0  0  0  0  0  0  0
   11.4745  -18.0483   24.1106 N   0  0  0  0  0  0  0  0  0  0  0  0
   12.6125  -18.2544   24.9374 C   0  0  1  0  0  0  0  0  0  0  0  0
   12.4331  -19.3365   25.9440 C   0  0  0  0  0  0  0  0  0  0  0  0
   12.1757  -18.7845   27.3114 C   0  0  0  0  0  0  0  0  0  0  0  0
   11.9053  -19.9165   28.2992 C   0  0  0  0  0  0  0  0  0  0  0  0
   11.7076  -19.2375   29.6541 C   0  0  0  0  0  0  0  0  0  0  0  0
   11.2829  -20.2193   30.6406 N   0  0  0  0  0  0  0  0  0  0  0  0
   13.8593  -18.3663   24.1610 C   0  0  0  0  0  0  0  0  0  0  0  0
   13.9393  -18.9081   23.0513 O   0  0  0  0  0  0  0  0  0  0  0  0
   15.0181  -17.8293   24.7100 O   0  0  0  0  0  0  0  0  0  0  0  0
  2  1  1  0
  3  4  1  0
  3  2  1  0
  4  5  1  0
  5  6  1  6
  7  5  1  0
  8  7  2  0
 10  9  1  0
 11 10  2  0
 12 10  1  0
 14 13  1  6
 13 12  1  0
 14 15  1  0
 15  7  1  0
 16 14  1  0
 17 16  2  0
 18 16  1  0
 19 25  1  0
 19 18  1  0
 19 20  1  6
 21 20  1  0
 22 21  1  0
 22 23  1  0
 23 24  1  0
 25 27  1  0
 26 25  2  0
M  END
$$$$
