MQK.pdb
     RDKit          3D

 27 26  0  0  1  0  0  0  0  0999 V2000
    8.0332  -11.9442   28.3361 C   0  0  0  0  0  0  0  0  0  0  0  0
    6.5936  -11.6121   27.3167 S   0  0  0  0  0  0  0  0  0  0  0  0
    5.8547  -13.1488   26.6897 C   0  0  0  0  0  0  0  0  0  0  0  0
    6.7059  -13.7029   25.5993 C   0  0  0  0  0  0  0  0  0  0  0  0
    6.1799  -14.9678   25.0075 C   0  0  2  0  0  0  0  0  0  0  0  0
    6.1022  -15.9846   26.0350 N   0  0  0  0  0  0  0  0  0  0  0  0
    7.0981  -15.4406   23.9353 C   0  0  0  0  0  0  0  0  0  0  0  0
    7.7125  -16.5554   24.0337 O   0  0  0  0  0  0  0  0  0  0  0  0
    7.6521  -13.0429   18.2446 N   0  0  0  0  0  0  0  0  0  0  0  0
    8.5843  -14.1033   18.0810 C   0  0  0  0  0  0  0  0  0  0  0  0
    9.0428  -14.3615   16.9573 O   0  0  0  0  0  0  0  0  0  0  0  0
    8.9729  -14.8700   19.2984 C   0  0  0  0  0  0  0  0  0  0  0  0
    8.0668  -14.4807   20.4093 C   0  0  0  0  0  0  0  0  0  0  0  0
    8.2348  -15.1728   21.7001 C   0  0  2  0  0  0  0  0  0  0  0  0
    7.3506  -14.6981   22.7486 N   0  0  0  0  0  0  0  0  0  0  0  0
    9.6557  -15.2235   22.1969 C   0  0  0  0  0  0  0  0  0  0  0  0
   10.2490  -14.1447   22.4434 O   0  0  0  0  0  0  0  0  0  0  0  0
   10.2615  -16.4754   22.3657 N   0  0  0  0  0  0  0  0  0  0  0  0
   11.5634  -16.8014   22.8342 C   0  0  1  0  0  0  0  0  0  0  0  0
   11.6528  -18.1461   23.4668 C   0  0  0  0  0  0  0  0  0  0  0  0
   11.2840  -18.1021   24.9170 C   0  0  0  0  0  0  0  0  0  0  0  0
   11.5237  -19.4621   25.5677 C   0  0  0  0  0  0  0  0  0  0  0  0
   11.0084  -19.3256   27.0001 C   0  0  0  0  0  0  0  0  0  0  0  0
   11.1356  -20.5988   27.6934 N   0  0  0  0  0  0  0  0  0  0  0  0
   12.6046  -16.5505   21.8229 C   0  0  0  0  0  0  0  0  0  0  0  0
   12.3908  -16.4985   20.6051 O   0  0  0  0  0  0  0  0  0  0  0  0
   13.9088  -16.3604   22.2650 O   0  0  0  0  0  0  0  0  0  0  0  0
  2  1  1  0
  3  4  1  0
  3  2  1  0
  4  5  1  0
  5  6  1  1
  7  5  1  0
  8  7  2  0
 10  9  1  0
 11 10  2  0
 12 10  1  0
 14 13  1  6
 13 12  1  0
 14 15  1  0
 15  7  1  0
 16 14  1  0
 17 16  2  0
 18 16  1  0
 19 25  1  0
 19 18  1  0
 19 20  1  6
 21 20  1  0
 22 21  1  0
 22 23  1  0
 23 24  1  0
 25 27  1  0
 26 25  2  0
M  END
$$$$
