MQK.pdb
     RDKit          3D

 27 26  0  0  1  0  0  0  0  0999 V2000
    6.7922  -10.6557   27.5570 C   0  0  0  0  0  0  0  0  0  0  0  0
    5.7856  -11.6736   26.4741 S   0  0  0  0  0  0  0  0  0  0  0  0
    6.5673  -13.2831   26.1592 C   0  0  0  0  0  0  0  0  0  0  0  0
    5.6598  -14.1244   25.3290 C   0  0  0  0  0  0  0  0  0  0  0  0
    6.2032  -15.4813   25.0281 C   0  0  2  0  0  0  0  0  0  0  0  0
    7.0589  -15.9094   26.1144 N   0  0  0  0  0  0  0  0  0  0  0  0
    7.0073  -15.4340   23.7761 C   0  0  0  0  0  0  0  0  0  0  0  0
    6.4738  -15.1268   22.6577 O   0  0  0  0  0  0  0  0  0  0  0  0
    9.0502  -12.6993   19.5860 N   0  0  0  0  0  0  0  0  0  0  0  0
    8.0834  -13.7410   19.6016 C   0  0  0  0  0  0  0  0  0  0  0  0
    7.5935  -14.1518   18.5382 O   0  0  0  0  0  0  0  0  0  0  0  0
    7.6981  -14.3005   20.9280 C   0  0  0  0  0  0  0  0  0  0  0  0
    8.8912  -14.2792   21.8128 C   0  0  0  0  0  0  0  0  0  0  0  0
    9.2120  -15.5123   22.5541 C   0  0  2  0  0  0  0  0  0  0  0  0
    8.3997  -15.7223   23.7385 N   0  0  0  0  0  0  0  0  0  0  0  0
   10.6721  -15.6753   22.8854 C   0  0  0  0  0  0  0  0  0  0  0  0
   11.3056  -14.6862   23.3294 O   0  0  0  0  0  0  0  0  0  0  0  0
   11.2681  -16.9273   22.6854 N   0  0  0  0  0  0  0  0  0  0  0  0
   12.4400  -17.4818   23.2687 C   0  0  1  0  0  0  0  0  0  0  0  0
   12.2853  -18.9015   23.6892 C   0  0  0  0  0  0  0  0  0  0  0  0
   12.1675  -19.0294   25.1761 C   0  0  0  0  0  0  0  0  0  0  0  0
   12.0825  -20.4998   25.5777 C   0  0  0  0  0  0  0  0  0  0  0  0
   12.1636  -20.5113   27.1039 C   0  0  0  0  0  0  0  0  0  0  0  0
   12.1337  -21.8829   27.5891 N   0  0  0  0  0  0  0  0  0  0  0  0
   13.6447  -17.2301   22.4591 C   0  0  0  0  0  0  0  0  0  0  0  0
   14.7973  -17.4781   22.8348 O   0  0  0  0  0  0  0  0  0  0  0  0
   13.4750  -16.6797   21.1939 O   0  0  0  0  0  0  0  0  0  0  0  0
  2  1  1  0
  3  4  1  0
  3  2  1  0
  4  5  1  0
  5  6  1  1
  7  5  1  0
  8  7  2  0
 10  9  1  0
 11 10  2  0
 12 10  1  0
 14 13  1  1
 13 12  1  0
 14 15  1  0
 15  7  1  0
 16 14  1  0
 17 16  2  0
 18 16  1  0
 19 25  1  0
 19 18  1  0
 19 20  1  6
 21 20  1  0
 22 21  1  0
 22 23  1  0
 23 24  1  0
 25 27  1  0
 26 25  2  0
M  END
$$$$
