MQK.pdb
     RDKit          3D

 27 26  0  0  1  0  0  0  0  0999 V2000
    5.1246  -11.6867   27.2136 C   0  0  0  0  0  0  0  0  0  0  0  0
    6.6105  -12.2597   26.3855 S   0  0  0  0  0  0  0  0  0  0  0  0
    6.2233  -13.0428   24.7925 C   0  0  0  0  0  0  0  0  0  0  0  0
    5.4713  -14.3075   25.0282 C   0  0  0  0  0  0  0  0  0  0  0  0
    6.3209  -15.5331   24.9730 C   0  0  2  0  0  0  0  0  0  0  0  0
    7.2951  -15.4927   26.0429 N   0  0  0  0  0  0  0  0  0  0  0  0
    7.0418  -15.5864   23.6715 C   0  0  0  0  0  0  0  0  0  0  0  0
    6.4075  -15.6299   22.5645 O   0  0  0  0  0  0  0  0  0  0  0  0
    7.6801  -12.7806   19.0234 N   0  0  0  0  0  0  0  0  0  0  0  0
    8.2471  -14.0829   19.0736 C   0  0  0  0  0  0  0  0  0  0  0  0
    7.8452  -14.9671   18.3014 O   0  0  0  0  0  0  0  0  0  0  0  0
    9.3224  -14.3256   20.0764 C   0  0  0  0  0  0  0  0  0  0  0  0
    8.6980  -14.4323   21.4200 C   0  0  0  0  0  0  0  0  0  0  0  0
    9.1575  -15.5217   22.3005 C   0  0  2  0  0  0  0  0  0  0  0  0
    8.4607  -15.5926   23.5718 N   0  0  0  0  0  0  0  0  0  0  0  0
   10.6475  -15.5576   22.5177 C   0  0  0  0  0  0  0  0  0  0  0  0
   11.4064  -15.3371   21.5419 O   0  0  0  0  0  0  0  0  0  0  0  0
   11.1299  -15.8359   23.8032 N   0  0  0  0  0  0  0  0  0  0  0  0
   12.3138  -16.5127   24.2049 C   0  0  1  0  0  0  0  0  0  0  0  0
   12.3190  -16.9096   25.6398 C   0  0  0  0  0  0  0  0  0  0  0  0
   11.6241  -15.8981   26.4972 C   0  0  0  0  0  0  0  0  0  0  0  0
   11.6129  -16.3544   27.9539 C   0  0  0  0  0  0  0  0  0  0  0  0
   10.2665  -15.8970   28.5144 C   0  0  0  0  0  0  0  0  0  0  0  0
   10.4110  -14.5916   29.1410 N   0  0  0  0  0  0  0  0  0  0  0  0
   12.6772  -17.6046   23.2854 C   0  0  0  0  0  0  0  0  0  0  0  0
   11.8953  -18.4897   22.9159 O   0  0  0  0  0  0  0  0  0  0  0  0
   13.9805  -17.6424   22.8030 O   0  0  0  0  0  0  0  0  0  0  0  0
  2  1  1  0
  3  4  1  0
  3  2  1  0
  4  5  1  0
  5  6  1  1
  7  5  1  0
  8  7  2  0
 10  9  1  0
 11 10  2  0
 12 10  1  0
 14 13  1  1
 13 12  1  0
 14 15  1  0
 15  7  1  0
 16 14  1  0
 17 16  2  0
 18 16  1  0
 19 25  1  0
 19 18  1  0
 19 20  1  1
 21 20  1  0
 22 21  1  0
 22 23  1  0
 23 24  1  0
 25 27  1  0
 26 25  2  0
M  END
$$$$
