MQK.pdb
     RDKit          3D

 27 26  0  0  1  0  0  0  0  0999 V2000
    8.0351  -12.0887   27.4335 C   0  0  0  0  0  0  0  0  0  0  0  0
    6.4174  -11.8785   26.6847 S   0  0  0  0  0  0  0  0  0  0  0  0
    5.9301  -13.3470   25.7325 C   0  0  0  0  0  0  0  0  0  0  0  0
    7.1485  -14.0437   25.2320 C   0  0  0  0  0  0  0  0  0  0  0  0
    6.8556  -15.2163   24.3566 C   0  0  2  0  0  0  0  0  0  0  0  0
    6.2153  -16.2530   25.1382 N   0  0  0  0  0  0  0  0  0  0  0  0
    8.1256  -15.7550   23.7969 C   0  0  0  0  0  0  0  0  0  0  0  0
    8.7035  -16.7660   24.3200 O   0  0  0  0  0  0  0  0  0  0  0  0
   11.0203  -13.7966   18.6645 N   0  0  0  0  0  0  0  0  0  0  0  0
   12.0051  -14.7438   19.0559 C   0  0  0  0  0  0  0  0  0  0  0  0
   13.0276  -14.8983   18.3702 O   0  0  0  0  0  0  0  0  0  0  0  0
   11.7525  -15.5222   20.3013 C   0  0  0  0  0  0  0  0  0  0  0  0
   10.4905  -15.0340   20.9142 C   0  0  0  0  0  0  0  0  0  0  0  0
   10.0432  -15.6815   22.1607 C   0  0  2  0  0  0  0  0  0  0  0  0
    8.7720  -15.1920   22.6618 N   0  0  0  0  0  0  0  0  0  0  0  0
   11.0719  -15.6878   23.2607 C   0  0  0  0  0  0  0  0  0  0  0  0
   11.2429  -14.6423   23.9347 O   0  0  0  0  0  0  0  0  0  0  0  0
   11.7994  -16.8629   23.4901 N   0  0  0  0  0  0  0  0  0  0  0  0
   12.4442  -17.3188   24.6722 C   0  0  1  0  0  0  0  0  0  0  0  0
   11.6118  -18.2436   25.4896 C   0  0  0  0  0  0  0  0  0  0  0  0
   12.3624  -18.7628   26.6762 C   0  0  0  0  0  0  0  0  0  0  0  0
   11.5013  -19.7508   27.4589 C   0  0  0  0  0  0  0  0  0  0  0  0
   12.3738  -20.2198   28.6228 C   0  0  0  0  0  0  0  0  0  0  0  0
   11.5854  -21.0384   29.5316 N   0  0  0  0  0  0  0  0  0  0  0  0
   13.8062  -17.8169   24.4139 C   0  0  0  0  0  0  0  0  0  0  0  0
   14.6451  -18.0327   25.2976 O   0  0  0  0  0  0  0  0  0  0  0  0
   14.1709  -18.0596   23.0946 O   0  0  0  0  0  0  0  0  0  0  0  0
  2  1  1  0
  3  4  1  0
  3  2  1  0
  4  5  1  0
  5  6  1  1
  7  5  1  0
  8  7  2  0
 10  9  1  0
 11 10  2  0
 12 10  1  0
 14 13  1  6
 13 12  1  0
 14 15  1  0
 15  7  1  0
 16 14  1  0
 17 16  2  0
 18 16  1  0
 19 25  1  0
 19 18  1  0
 19 20  1  6
 21 20  1  0
 22 21  1  0
 22 23  1  0
 23 24  1  0
 25 27  1  0
 26 25  2  0
M  END
$$$$
