MQK.pdb
     RDKit          3D

 27 26  0  0  1  0  0  0  0  0999 V2000
    8.2886  -11.5982   21.3493 C   0  0  0  0  0  0  0  0  0  0  0  0
    7.2207  -11.9517   19.9505 S   0  0  0  0  0  0  0  0  0  0  0  0
    7.5071  -13.6244   19.3021 C   0  0  0  0  0  0  0  0  0  0  0  0
    8.1100  -14.4755   20.3663 C   0  0  0  0  0  0  0  0  0  0  0  0
    8.4707  -15.8489   19.9077 C   0  0  2  0  0  0  0  0  0  0  0  0
    7.2891  -16.5132   19.3997 N   0  0  0  0  0  0  0  0  0  0  0  0
    9.0070  -16.6360   21.0520 C   0  0  0  0  0  0  0  0  0  0  0  0
    8.2686  -17.4535   21.6973 O   0  0  0  0  0  0  0  0  0  0  0  0
   14.4836  -19.1461   21.9899 N   0  0  0  0  0  0  0  0  0  0  0  0
   13.6148  -19.2907   20.8744 C   0  0  0  0  0  0  0  0  0  0  0  0
   13.9940  -19.9056   19.8655 O   0  0  0  0  0  0  0  0  0  0  0  0
   12.2589  -18.6808   20.9763 C   0  0  0  0  0  0  0  0  0  0  0  0
   12.1385  -18.0189   22.3007 C   0  0  0  0  0  0  0  0  0  0  0  0
   10.8755  -17.3207   22.6012 C   0  0  2  0  0  0  0  0  0  0  0  0
   10.3538  -16.5345   21.4983 N   0  0  0  0  0  0  0  0  0  0  0  0
   10.9060  -16.4976   23.8622 C   0  0  0  0  0  0  0  0  0  0  0  0
   11.9362  -15.8288   24.1230 O   0  0  0  0  0  0  0  0  0  0  0  0
    9.7808  -16.5097   24.6968 N   0  0  0  0  0  0  0  0  0  0  0  0
    9.6646  -16.1753   26.0736 C   0  0  1  0  0  0  0  0  0  0  0  0
    8.3496  -15.5786   26.4358 C   0  0  0  0  0  0  0  0  0  0  0  0
    8.1734  -14.2189   25.8348 C   0  0  0  0  0  0  0  0  0  0  0  0
    6.8314  -13.6232   26.2525 C   0  0  0  0  0  0  0  0  0  0  0  0
    6.8160  -12.2078   25.6759 C   0  0  0  0  0  0  0  0  0  0  0  0
    5.5427  -11.5685   25.9719 N   0  0  0  0  0  0  0  0  0  0  0  0
   10.0800  -17.2780   26.9575 C   0  0  0  0  0  0  0  0  0  0  0  0
   10.1956  -18.4545   26.5917 O   0  0  0  0  0  0  0  0  0  0  0  0
   10.3596  -16.9772   28.2856 O   0  0  0  0  0  0  0  0  0  0  0  0
  2  1  1  0
  3  4  1  0
  3  2  1  0
  4  5  1  0
  5  6  1  1
  7  5  1  0
  8  7  2  0
 10  9  1  0
 11 10  2  0
 12 10  1  0
 14 13  1  6
 13 12  1  0
 14 15  1  0
 15  7  1  0
 16 14  1  0
 17 16  2  0
 18 16  1  0
 19 25  1  0
 19 18  1  0
 19 20  1  1
 21 20  1  0
 22 21  1  0
 22 23  1  0
 23 24  1  0
 25 27  1  0
 26 25  2  0
M  END
$$$$
