LPA.pdb
     RDKit          3D

 21 21  0  0  1  0  0  0  0  0999 V2000
    5.4623  -15.4098   20.8280 C   0  0  0  0  0  0  0  0  0  0  0  0
    6.4443  -16.4804   21.2736 C   0  0  2  0  0  0  0  0  0  0  0  0
    5.7393  -17.8100   21.4398 C   0  0  0  0  0  0  0  0  0  0  0  0
    7.0882  -16.0846   22.6084 C   0  0  0  0  0  0  0  0  0  0  0  0
    7.9468  -14.8580   22.3985 C   0  0  2  0  0  0  0  0  0  0  0  0
    8.7508  -14.9822   21.2374 N   0  0  0  0  0  0  0  0  0  0  0  0
    8.6555  -14.5178   23.6489 C   0  0  0  0  0  0  0  0  0  0  0  0
    9.8454  -14.9073   23.7136 O   0  0  0  0  0  0  0  0  0  0  0  0
    8.0401  -13.7961   24.7161 N   0  0  0  0  0  0  0  0  0  0  0  0
    6.9007  -12.9009   24.4763 C   0  0  0  0  0  0  0  0  0  0  0  0
    6.4334  -12.4255   25.8455 C   0  0  0  0  0  0  0  0  0  0  0  0
    6.9227  -13.5911   26.7216 C   0  0  0  0  0  0  0  0  0  0  0  0
    8.3269  -13.7281   26.0946 C   0  0  1  0  0  0  0  0  0  0  0  0
    9.0031  -14.8465   26.7375 C   0  0  0  0  0  0  0  0  0  0  0  0
    8.8538  -16.0676   26.5507 O   0  0  0  0  0  0  0  0  0  0  0  0
   11.7772  -14.9222   29.3471 C   0  0  0  0  0  0  0  0  0  0  0  0
   10.7353  -15.5215   28.4099 C   0  0  2  0  0  0  0  0  0  0  0  0
    9.9844  -14.4884   27.7309 N   0  0  0  0  0  0  0  0  0  0  0  0
    9.8071  -16.3014   29.2460 C   0  0  0  0  0  0  0  0  0  0  0  0
    8.6872  -15.8284   29.5262 O   0  0  0  0  0  0  0  0  0  0  0  0
   10.1578  -17.5426   29.7216 O   0  0  0  0  0  0  0  0  0  0  0  0
  2  3  1  1
  2  1  1  0
  4  2  1  0
  5  4  1  0
  5  6  1  6
  7  5  1  0
  7  9  1  0
  8  7  2  0
  9 13  1  0
 10  9  1  0
 10 11  1  0
 11 12  1  0
 13 14  1  1
 13 12  1  0
 14 18  1  0
 15 14  2  0
 17 16  1  1
 17 19  1  0
 18 17  1  0
 19 20  2  0
 19 21  1  0
M  END
$$$$
