LPA.pdb
     RDKit          3D

 21 21  0  0  1  0  0  0  0  0999 V2000
    5.8055  -12.3311   25.8560 C   0  0  0  0  0  0  0  0  0  0  0  0
    6.8039  -13.0522   26.7461 C   0  0  2  0  0  0  0  0  0  0  0  0
    7.7009  -12.0568   27.4510 C   0  0  0  0  0  0  0  0  0  0  0  0
    7.6700  -14.0013   25.9083 C   0  0  0  0  0  0  0  0  0  0  0  0
    6.7956  -15.0955   25.3389 C   0  0  2  0  0  0  0  0  0  0  0  0
    6.1470  -15.8260   26.3663 N   0  0  0  0  0  0  0  0  0  0  0  0
    7.5583  -15.8907   24.3553 C   0  0  0  0  0  0  0  0  0  0  0  0
    8.0993  -16.9271   24.8079 O   0  0  0  0  0  0  0  0  0  0  0  0
    7.6780  -15.5164   22.9827 N   0  0  0  0  0  0  0  0  0  0  0  0
    6.6506  -14.7027   22.3199 C   0  0  0  0  0  0  0  0  0  0  0  0
    7.1816  -14.3933   20.9265 C   0  0  0  0  0  0  0  0  0  0  0  0
    8.6948  -14.5020   21.1799 C   0  0  0  0  0  0  0  0  0  0  0  0
    8.6587  -15.8025   22.0113 C   0  0  1  0  0  0  0  0  0  0  0  0
   10.0178  -16.1049   22.4387 C   0  0  0  0  0  0  0  0  0  0  0  0
   10.8507  -15.3645   22.9923 O   0  0  0  0  0  0  0  0  0  0  0  0
   11.9516  -19.3746   22.5015 C   0  0  0  0  0  0  0  0  0  0  0  0
   11.7937  -17.8603   22.5730 C   0  0  2  0  0  0  0  0  0  0  0  0
   10.4612  -17.4528   22.1846 N   0  0  0  0  0  0  0  0  0  0  0  0
   12.7557  -17.2852   21.6176 C   0  0  0  0  0  0  0  0  0  0  0  0
   12.3473  -16.8456   20.5239 O   0  0  0  0  0  0  0  0  0  0  0  0
   14.0967  -17.2262   21.9146 O   0  0  0  0  0  0  0  0  0  0  0  0
  2  3  1  6
  2  1  1  0
  4  2  1  0
  5  4  1  0
  5  6  1  1
  7  5  1  0
  7  9  1  0
  8  7  2  0
  9 13  1  0
 10  9  1  0
 10 11  1  0
 11 12  1  0
 13 14  1  1
 13 12  1  0
 14 18  1  0
 15 14  2  0
 17 16  1  6
 17 19  1  0
 18 17  1  0
 19 20  2  0
 19 21  1  0
M  END
$$$$
