LPA.pdb
     RDKit          3D

 21 21  0  0  1  0  0  0  0  0999 V2000
    5.7630  -12.4492   25.9081 C   0  0  0  0  0  0  0  0  0  0  0  0
    6.9034  -13.0457   26.7159 C   0  0  2  0  0  0  0  0  0  0  0  0
    7.7649  -11.9492   27.3060 C   0  0  0  0  0  0  0  0  0  0  0  0
    7.7727  -13.9399   25.8229 C   0  0  0  0  0  0  0  0  0  0  0  0
    6.9617  -15.1381   25.3842 C   0  0  2  0  0  0  0  0  0  0  0  0
    6.4731  -15.8673   26.4975 N   0  0  0  0  0  0  0  0  0  0  0  0
    7.7117  -15.9134   24.3753 C   0  0  0  0  0  0  0  0  0  0  0  0
    8.3132  -16.9224   24.8132 O   0  0  0  0  0  0  0  0  0  0  0  0
    7.7559  -15.5500   22.9953 N   0  0  0  0  0  0  0  0  0  0  0  0
    6.6855  -14.7550   22.3795 C   0  0  0  0  0  0  0  0  0  0  0  0
    7.1401  -14.4517   20.9581 C   0  0  0  0  0  0  0  0  0  0  0  0
    8.6656  -14.5395   21.1341 C   0  0  0  0  0  0  0  0  0  0  0  0
    8.6888  -15.8328   21.9771 C   0  0  1  0  0  0  0  0  0  0  0  0
   10.0719  -16.1147   22.3364 C   0  0  0  0  0  0  0  0  0  0  0  0
   10.8742  -15.4161   22.9818 O   0  0  0  0  0  0  0  0  0  0  0  0
   11.9175  -19.3663   22.4283 C   0  0  0  0  0  0  0  0  0  0  0  0
   11.8766  -17.8456   22.3348 C   0  0  2  0  0  0  0  0  0  0  0  0
   10.5841  -17.3824   21.8797 N   0  0  0  0  0  0  0  0  0  0  0  0
   12.8907  -17.4514   21.3421 C   0  0  0  0  0  0  0  0  0  0  0  0
   12.5672  -17.3467   20.1418 O   0  0  0  0  0  0  0  0  0  0  0  0
   14.1878  -17.1976   21.7200 O   0  0  0  0  0  0  0  0  0  0  0  0
  2  3  1  6
  2  1  1  0
  4  2  1  0
  5  4  1  0
  5  6  1  1
  7  5  1  0
  7  9  1  0
  8  7  2  0
  9 13  1  0
 10  9  1  0
 10 11  1  0
 11 12  1  0
 13 14  1  1
 13 12  1  0
 14 18  1  0
 15 14  2  0
 17 16  1  6
 17 19  1  0
 18 17  1  0
 19 20  2  0
 19 21  1  0
M  END
$$$$
