LPA.pdb
     RDKit          3D

 21 21  0  0  1  0  0  0  0  0999 V2000
    8.5595  -12.8666   27.1729 C   0  0  0  0  0  0  0  0  0  0  0  0
    7.5677  -13.4533   26.1823 C   0  0  2  0  0  0  0  0  0  0  0  0
    6.4654  -12.4590   25.8843 C   0  0  0  0  0  0  0  0  0  0  0  0
    6.9460  -14.7344   26.7524 C   0  0  0  0  0  0  0  0  0  0  0  0
    6.4735  -15.6051   25.6102 C   0  0  2  0  0  0  0  0  0  0  0  0
    5.6849  -16.6869   26.0769 N   0  0  0  0  0  0  0  0  0  0  0  0
    7.6130  -15.9572   24.7389 C   0  0  0  0  0  0  0  0  0  0  0  0
    8.5115  -16.6421   25.2822 O   0  0  0  0  0  0  0  0  0  0  0  0
    7.6968  -15.5525   23.3723 N   0  0  0  0  0  0  0  0  0  0  0  0
    6.5549  -14.9331   22.6871 C   0  0  0  0  0  0  0  0  0  0  0  0
    7.0553  -14.5169   21.3104 C   0  0  0  0  0  0  0  0  0  0  0  0
    8.5559  -14.3499   21.6036 C   0  0  0  0  0  0  0  0  0  0  0  0
    8.7374  -15.6441   22.4258 C   0  0  1  0  0  0  0  0  0  0  0  0
   10.1177  -15.6977   22.8877 C   0  0  0  0  0  0  0  0  0  0  0  0
   10.7854  -14.8253   23.4720 O   0  0  0  0  0  0  0  0  0  0  0  0
   12.4650  -18.6418   23.2347 C   0  0  0  0  0  0  0  0  0  0  0  0
   12.1269  -17.1565   23.1848 C   0  0  2  0  0  0  0  0  0  0  0  0
   10.8085  -16.9368   22.6318 N   0  0  0  0  0  0  0  0  0  0  0  0
   13.1175  -16.5226   22.2982 C   0  0  0  0  0  0  0  0  0  0  0  0
   12.8207  -16.2963   21.1078 O   0  0  0  0  0  0  0  0  0  0  0  0
   14.3638  -16.1773   22.7644 O   0  0  0  0  0  0  0  0  0  0  0  0
  2  3  1  1
  2  1  1  0
  4  2  1  0
  5  4  1  0
  5  6  1  1
  7  5  1  0
  7  9  1  0
  8  7  2  0
  9 13  1  0
 10  9  1  0
 10 11  1  0
 11 12  1  0
 13 14  1  1
 13 12  1  0
 14 18  1  0
 15 14  2  0
 17 16  1  6
 17 19  1  0
 18 17  1  0
 19 20  2  0
 19 21  1  0
M  END
$$$$
