LPA.pdb
     RDKit          3D

 21 21  0  0  1  0  0  0  0  0999 V2000
    8.1207  -12.6840   27.1595 C   0  0  0  0  0  0  0  0  0  0  0  0
    7.2061  -13.4268   26.2000 C   0  0  2  0  0  0  0  0  0  0  0  0
    5.9392  -12.6345   25.9552 C   0  0  0  0  0  0  0  0  0  0  0  0
    6.8353  -14.7984   26.7779 C   0  0  0  0  0  0  0  0  0  0  0  0
    6.5097  -15.7417   25.6421 C   0  0  2  0  0  0  0  0  0  0  0  0
    5.8716  -16.9169   26.1129 N   0  0  0  0  0  0  0  0  0  0  0  0
    7.7027  -15.9423   24.7947 C   0  0  0  0  0  0  0  0  0  0  0  0
    8.6685  -16.5122   25.3551 O   0  0  0  0  0  0  0  0  0  0  0  0
    7.7639  -15.5219   23.4316 N   0  0  0  0  0  0  0  0  0  0  0  0
    6.6189  -14.8732   22.7796 C   0  0  0  0  0  0  0  0  0  0  0  0
    7.0965  -14.4487   21.3973 C   0  0  0  0  0  0  0  0  0  0  0  0
    8.6060  -14.3127   21.6592 C   0  0  0  0  0  0  0  0  0  0  0  0
    8.7817  -15.6203   22.4613 C   0  0  1  0  0  0  0  0  0  0  0  0
   10.1706  -15.7047   22.8917 C   0  0  0  0  0  0  0  0  0  0  0  0
   10.8598  -14.8608   23.4925 O   0  0  0  0  0  0  0  0  0  0  0  0
   12.4821  -18.6833   23.1151 C   0  0  0  0  0  0  0  0  0  0  0  0
   12.1716  -17.1913   23.0891 C   0  0  2  0  0  0  0  0  0  0  0  0
   10.8420  -16.9410   22.5774 N   0  0  0  0  0  0  0  0  0  0  0  0
   13.1478  -16.5678   22.1796 C   0  0  0  0  0  0  0  0  0  0  0  0
   12.8237  -16.3325   20.9981 O   0  0  0  0  0  0  0  0  0  0  0  0
   14.4105  -16.2418   22.6146 O   0  0  0  0  0  0  0  0  0  0  0  0
  2  3  1  1
  2  1  1  0
  4  2  1  0
  5  4  1  0
  5  6  1  1
  7  5  1  0
  7  9  1  0
  8  7  2  0
  9 13  1  0
 10  9  1  0
 10 11  1  0
 11 12  1  0
 13 14  1  1
 13 12  1  0
 14 18  1  0
 15 14  2  0
 17 16  1  6
 17 19  1  0
 18 17  1  0
 19 20  2  0
 19 21  1  0
M  END
$$$$
