LPA.pdb
     RDKit          3D

 21 21  0  0  1  0  0  0  0  0999 V2000
    2.8639  -17.8490   20.5253 C   0  0  0  0  0  0  0  0  0  0  0  0
    4.1635  -18.4013   19.9641 C   0  0  2  0  0  0  0  0  0  0  0  0
    4.1493  -19.9152   19.9865 C   0  0  0  0  0  0  0  0  0  0  0  0
    5.3528  -17.8991   20.7925 C   0  0  0  0  0  0  0  0  0  0  0  0
    6.4581  -17.4640   19.8570 C   0  0  2  0  0  0  0  0  0  0  0  0
    6.6373  -18.3929   18.8011 N   0  0  0  0  0  0  0  0  0  0  0  0
    7.6668  -17.1157   20.6312 C   0  0  0  0  0  0  0  0  0  0  0  0
    8.4636  -18.0618   20.8353 O   0  0  0  0  0  0  0  0  0  0  0  0
    7.9215  -15.7979   21.1180 N   0  0  0  0  0  0  0  0  0  0  0  0
    7.3151  -14.6191   20.4860 C   0  0  0  0  0  0  0  0  0  0  0  0
    7.6981  -13.4248   21.3497 C   0  0  0  0  0  0  0  0  0  0  0  0
    7.9158  -14.1239   22.7024 C   0  0  0  0  0  0  0  0  0  0  0  0
    8.7296  -15.3236   22.1712 C   0  0  1  0  0  0  0  0  0  0  0  0
    9.0254  -16.2032   23.2938 C   0  0  0  0  0  0  0  0  0  0  0  0
    8.2449  -16.7245   24.1107 O   0  0  0  0  0  0  0  0  0  0  0  0
   11.9289  -18.3753   24.0087 C   0  0  0  0  0  0  0  0  0  0  0  0
   10.8151  -17.4611   24.5054 C   0  0  2  0  0  0  0  0  0  0  0  0
   10.4199  -16.5140   23.4860 N   0  0  0  0  0  0  0  0  0  0  0  0
   11.3560  -16.7140   25.6535 C   0  0  0  0  0  0  0  0  0  0  0  0
   11.4972  -15.4773   25.5702 O   0  0  0  0  0  0  0  0  0  0  0  0
   11.7071  -17.3605   26.8148 O   0  0  0  0  0  0  0  0  0  0  0  0
  2  3  1  1
  2  1  1  0
  4  2  1  0
  5  4  1  0
  5  6  1  6
  7  5  1  0
  7  9  1  0
  8  7  2  0
  9 13  1  0
 10  9  1  0
 10 11  1  0
 11 12  1  0
 13 14  1  1
 13 12  1  0
 14 18  1  0
 15 14  2  0
 17 16  1  6
 17 19  1  0
 18 17  1  0
 19 20  2  0
 19 21  1  0
M  END
$$$$
