LPA.pdb
     RDKit          3D

 21 21  0  0  1  0  0  0  0  0999 V2000
    8.3171  -12.7387   27.2044 C   0  0  0  0  0  0  0  0  0  0  0  0
    7.3795  -13.3781   26.1941 C   0  0  2  0  0  0  0  0  0  0  0  0
    6.2336  -12.4433   25.8690 C   0  0  0  0  0  0  0  0  0  0  0  0
    6.8130  -14.6889   26.7541 C   0  0  0  0  0  0  0  0  0  0  0  0
    6.3831  -15.5725   25.6050 C   0  0  2  0  0  0  0  0  0  0  0  0
    5.6089  -16.6702   26.0585 N   0  0  0  0  0  0  0  0  0  0  0  0
    7.5476  -15.9016   24.7581 C   0  0  0  0  0  0  0  0  0  0  0  0
    8.4786  -16.5075   25.3391 O   0  0  0  0  0  0  0  0  0  0  0  0
    7.6196  -15.5595   23.3738 N   0  0  0  0  0  0  0  0  0  0  0  0
    6.4659  -14.9891   22.6663 C   0  0  0  0  0  0  0  0  0  0  0  0
    6.9543  -14.6301   21.2693 C   0  0  0  0  0  0  0  0  0  0  0  0
    8.4536  -14.4280   21.5471 C   0  0  0  0  0  0  0  0  0  0  0  0
    8.6575  -15.6799   22.4275 C   0  0  1  0  0  0  0  0  0  0  0  0
   10.0404  -15.6920   22.8845 C   0  0  0  0  0  0  0  0  0  0  0  0
   10.6597  -14.8331   23.5380 O   0  0  0  0  0  0  0  0  0  0  0  0
   12.3776  -18.4920   23.4662 C   0  0  0  0  0  0  0  0  0  0  0  0
   12.1365  -17.0454   23.0511 C   0  0  2  0  0  0  0  0  0  0  0  0
   10.7994  -16.8651   22.5298 N   0  0  0  0  0  0  0  0  0  0  0  0
   13.1009  -16.7421   21.9802 C   0  0  0  0  0  0  0  0  0  0  0  0
   12.7377  -16.8110   20.7887 O   0  0  0  0  0  0  0  0  0  0  0  0
   14.3950  -16.3844   22.2755 O   0  0  0  0  0  0  0  0  0  0  0  0
  2  3  1  1
  2  1  1  0
  4  2  1  0
  5  4  1  0
  5  6  1  1
  7  5  1  0
  7  9  1  0
  8  7  2  0
  9 13  1  0
 10  9  1  0
 10 11  1  0
 11 12  1  0
 13 14  1  1
 13 12  1  0
 14 18  1  0
 15 14  2  0
 17 16  1  6
 17 19  1  0
 18 17  1  0
 19 20  2  0
 19 21  1  0
M  END
$$$$
