LPA.pdb
     RDKit          3D

 21 21  0  0  1  0  0  0  0  0999 V2000
    5.3915  -12.2167   26.6297 C   0  0  0  0  0  0  0  0  0  0  0  0
    6.6434  -13.0444   26.8675 C   0  0  2  0  0  0  0  0  0  0  0  0
    7.6911  -12.2249   27.5908 C   0  0  0  0  0  0  0  0  0  0  0  0
    7.2200  -13.5271   25.5305 C   0  0  0  0  0  0  0  0  0  0  0  0
    6.5832  -14.8490   25.1661 C   0  0  2  0  0  0  0  0  0  0  0  0
    6.0147  -15.4795   26.3015 N   0  0  0  0  0  0  0  0  0  0  0  0
    7.5271  -15.6624   24.3730 C   0  0  0  0  0  0  0  0  0  0  0  0
    8.1143  -16.5714   25.0060 O   0  0  0  0  0  0  0  0  0  0  0  0
    7.7627  -15.4396   22.9826 N   0  0  0  0  0  0  0  0  0  0  0  0
    6.8140  -14.6791   22.1588 C   0  0  0  0  0  0  0  0  0  0  0  0
    7.4590  -14.5320   20.7872 C   0  0  0  0  0  0  0  0  0  0  0  0
    8.9444  -14.6459   21.1697 C   0  0  0  0  0  0  0  0  0  0  0  0
    8.8057  -15.8491   22.1273 C   0  0  1  0  0  0  0  0  0  0  0  0
   10.1185  -16.1338   22.6904 C   0  0  0  0  0  0  0  0  0  0  0  0
   10.8283  -15.4250   23.4267 O   0  0  0  0  0  0  0  0  0  0  0  0
   12.2985  -19.2469   22.5299 C   0  0  0  0  0  0  0  0  0  0  0  0
   12.0003  -17.7768   22.7999 C   0  0  2  0  0  0  0  0  0  0  0  0
   10.6744  -17.4185   22.3463 N   0  0  0  0  0  0  0  0  0  0  0  0
   12.9844  -16.9938   22.0334 C   0  0  0  0  0  0  0  0  0  0  0  0
   14.0809  -16.7064   22.5544 O   0  0  0  0  0  0  0  0  0  0  0  0
   12.7113  -16.5757   20.7527 O   0  0  0  0  0  0  0  0  0  0  0  0
  2  3  1  6
  2  1  1  0
  4  2  1  0
  5  4  1  0
  5  6  1  1
  7  5  1  0
  7  9  1  0
  8  7  2  0
  9 13  1  0
 10  9  1  0
 10 11  1  0
 11 12  1  0
 13 14  1  1
 13 12  1  0
 14 18  1  0
 15 14  2  0
 17 16  1  6
 17 19  1  0
 18 17  1  0
 19 20  2  0
 19 21  1  0
M  END
$$$$
