LPA.pdb
     RDKit          3D

 21 21  0  0  1  0  0  0  0  0999 V2000
    5.7086  -12.3231   25.8903 C   0  0  0  0  0  0  0  0  0  0  0  0
    6.7258  -13.0261   26.7734 C   0  0  2  0  0  0  0  0  0  0  0  0
    7.5825  -12.0138   27.5042 C   0  0  0  0  0  0  0  0  0  0  0  0
    7.6304  -13.9274   25.9237 C   0  0  0  0  0  0  0  0  0  0  0  0
    6.8171  -15.0879   25.3967 C   0  0  2  0  0  0  0  0  0  0  0  0
    6.1910  -15.8010   26.4499 N   0  0  0  0  0  0  0  0  0  0  0  0
    7.6298  -15.8896   24.4594 C   0  0  0  0  0  0  0  0  0  0  0  0
    8.1435  -16.9247   24.9457 O   0  0  0  0  0  0  0  0  0  0  0  0
    7.8240  -15.5225   23.0934 N   0  0  0  0  0  0  0  0  0  0  0  0
    6.8203  -14.7380   22.3627 C   0  0  0  0  0  0  0  0  0  0  0  0
    7.4275  -14.4264   21.0014 C   0  0  0  0  0  0  0  0  0  0  0  0
    8.9246  -14.4977   21.3467 C   0  0  0  0  0  0  0  0  0  0  0  0
    8.8680  -15.7927   22.1856 C   0  0  1  0  0  0  0  0  0  0  0  0
   10.2053  -16.0601   22.6970 C   0  0  0  0  0  0  0  0  0  0  0  0
   10.9034  -15.3763   23.4674 O   0  0  0  0  0  0  0  0  0  0  0  0
   12.4290  -19.1240   22.3861 C   0  0  0  0  0  0  0  0  0  0  0  0
   12.1189  -17.6697   22.7203 C   0  0  2  0  0  0  0  0  0  0  0  0
   10.8054  -17.2911   22.2472 N   0  0  0  0  0  0  0  0  0  0  0  0
   13.1222  -16.8479   22.0225 C   0  0  0  0  0  0  0  0  0  0  0  0
   12.8772  -16.4214   20.8760 O   0  0  0  0  0  0  0  0  0  0  0  0
   14.3241  -16.5446   22.6168 O   0  0  0  0  0  0  0  0  0  0  0  0
  2  3  1  6
  2  1  1  0
  4  2  1  0
  5  4  1  0
  5  6  1  1
  7  5  1  0
  7  9  1  0
  8  7  2  0
  9 13  1  0
 10  9  1  0
 10 11  1  0
 11 12  1  0
 13 14  1  1
 13 12  1  0
 14 18  1  0
 15 14  2  0
 17 16  1  6
 17 19  1  0
 18 17  1  0
 19 20  2  0
 19 21  1  0
M  END
$$$$
