YAE.pdb
     RDKit          3D

 27 27  0  0  1  0  0  0  0  0999 V2000
   19.1538  -12.2502  -24.2455 O   0  0  0  0  0  0  0  0  0  0  0  0
   19.2796  -11.6209  -23.0061 C   0  0  0  0  0  0  0  0  0  0  0  0
   20.4760  -11.6899  -22.3255 C   0  0  0  0  0  0  0  0  0  0  0  0
   20.5974  -11.0567  -21.0821 C   0  0  0  0  0  0  0  0  0  0  0  0
   19.5341  -10.3695  -20.5390 C   0  0  0  0  0  0  0  0  0  0  0  0
   19.7250   -9.7240  -19.2238 C   0  0  0  0  0  0  0  0  0  0  0  0
   19.6712  -10.6878  -18.0785 C   0  0  2  0  0  0  0  0  0  0  0  0
   18.4238  -11.3916  -17.9445 N   0  0  0  0  0  0  0  0  0  0  0  0
   20.0415   -9.9716  -16.8268 C   0  0  0  0  0  0  0  0  0  0  0  0
   19.1524   -9.3341  -16.1799 O   0  0  0  0  0  0  0  0  0  0  0  0
   18.3409  -10.3027  -21.2216 C   0  0  0  0  0  0  0  0  0  0  0  0
   18.2181  -10.9272  -22.4501 C   0  0  0  0  0  0  0  0  0  0  0  0
   23.0577   -9.7294  -14.6299 C   0  0  0  0  0  0  0  0  0  0  0  0
   21.6967   -9.2468  -15.0796 C   0  0  2  0  0  0  0  0  0  0  0  0
   21.3567   -9.9531  -16.2951 N   0  0  0  0  0  0  0  0  0  0  0  0
   21.7983   -7.7668  -15.3248 C   0  0  0  0  0  0  0  0  0  0  0  0
   22.1869   -7.4422  -16.4708 O   0  0  0  0  0  0  0  0  0  0  0  0
   21.4623   -6.8909  -14.2919 N   0  0  0  0  0  0  0  0  0  0  0  0
   21.5119   -5.4687  -14.3870 C   0  0  1  0  0  0  0  0  0  0  0  0
   20.1559   -4.7998  -14.4233 C   0  0  0  0  0  0  0  0  0  0  0  0
   20.1640   -3.3201  -14.5599 C   0  0  0  0  0  0  0  0  0  0  0  0
   18.8007   -2.7646  -14.5295 C   0  0  0  0  0  0  0  0  0  0  0  0
   18.5916   -1.5469  -14.5089 O   0  0  0  0  0  0  0  0  0  0  0  0
   22.3765   -4.8378  -13.3675 C   0  0  0  0  0  0  0  0  0  0  0  0
   22.5454   -5.3352  -12.2295 O   0  0  0  0  0  0  0  0  0  0  0  0
   17.6672   -3.5968  -14.5218 O   0  0  0  0  0  0  0  0  0  0  0  0
   23.0354   -3.6431  -13.6709 O   0  0  0  0  0  0  0  0  0  0  0  0
  2  1  1  0
  3  2  2  0
  4  3  1  0
  5  4  2  0
  5 11  1  0
  6  5  1  0
  6  7  1  0
  7  9  1  0
  7  8  1  1
  9 10  2  0
  9 15  1  0
 11 12  2  0
 12  2  1  0
 14 13  1  6
 15 14  1  0
 16 14  1  0
 16 17  2  0
 18 19  1  0
 18 16  1  0
 19 20  1  1
 19 24  1  0
 20 21  1  0
 22 21  1  0
 23 22  2  0
 24 25  2  0
 24 27  1  0
 26 22  1  0
M  END
$$$$
