YAE.pdb
     RDKit          3D

 27 27  0  0  1  0  0  0  0  0999 V2000
   29.7875  -26.9256  -16.3930 O   0  0  0  0  0  0  0  0  0  0  0  0
   29.1576  -25.6802  -16.3715 C   0  0  0  0  0  0  0  0  0  0  0  0
   29.9175  -24.5340  -16.2806 C   0  0  0  0  0  0  0  0  0  0  0  0
   29.2808  -23.2867  -16.2595 C   0  0  0  0  0  0  0  0  0  0  0  0
   27.9076  -23.1997  -16.3285 C   0  0  0  0  0  0  0  0  0  0  0  0
   27.2960  -21.8550  -16.3006 C   0  0  0  0  0  0  0  0  0  0  0  0
   27.1144  -21.2595  -17.6629 C   0  0  2  0  0  0  0  0  0  0  0  0
   28.2868  -20.6226  -18.2007 N   0  0  0  0  0  0  0  0  0  0  0  0
   25.9455  -20.3377  -17.6352 C   0  0  0  0  0  0  0  0  0  0  0  0
   26.0916  -19.1489  -17.2100 O   0  0  0  0  0  0  0  0  0  0  0  0
   27.1521  -24.3464  -16.4191 C   0  0  0  0  0  0  0  0  0  0  0  0
   27.7784  -25.5800  -16.4403 C   0  0  0  0  0  0  0  0  0  0  0  0
   22.6110  -20.1596  -19.1931 C   0  0  0  0  0  0  0  0  0  0  0  0
   23.5269  -19.7919  -18.0470 C   0  0  2  0  0  0  0  0  0  0  0  0
   24.6449  -20.7093  -18.0629 N   0  0  0  0  0  0  0  0  0  0  0  0
   22.7370  -19.9244  -16.7745 C   0  0  0  0  0  0  0  0  0  0  0  0
   22.8708  -21.0168  -16.1758 O   0  0  0  0  0  0  0  0  0  0  0  0
   21.9389  -18.8553  -16.3657 N   0  0  0  0  0  0  0  0  0  0  0  0
   21.1342  -18.8485  -15.1882 C   0  0  1  0  0  0  0  0  0  0  0  0
   20.4401  -17.5325  -14.9164 C   0  0  0  0  0  0  0  0  0  0  0  0
   19.6693  -17.4534  -13.6485 C   0  0  0  0  0  0  0  0  0  0  0  0
   18.8549  -16.2283  -13.5837 C   0  0  0  0  0  0  0  0  0  0  0  0
   18.0799  -16.0077  -12.6470 O   0  0  0  0  0  0  0  0  0  0  0  0
   20.1712  -19.9681  -15.1238 C   0  0  0  0  0  0  0  0  0  0  0  0
   19.5221  -20.3537  -16.1242 O   0  0  0  0  0  0  0  0  0  0  0  0
   18.9203  -15.2474  -14.5892 O   0  0  0  0  0  0  0  0  0  0  0  0
   19.9679  -20.6291  -13.9092 O   0  0  0  0  0  0  0  0  0  0  0  0
  2  1  1  0
  3  2  2  0
  4  3  1  0
  5  4  2  0
  5 11  1  0
  6  5  1  0
  6  7  1  0
  7  9  1  0
  7  8  1  1
  9 10  2  0
  9 15  1  0
 11 12  2  0
 12  2  1  0
 14 13  1  6
 15 14  1  0
 16 14  1  0
 16 17  2  0
 18 19  1  0
 18 16  1  0
 19 20  1  6
 19 24  1  0
 20 21  1  0
 22 21  1  0
 23 22  2  0
 24 25  2  0
 24 27  1  0
 26 22  1  0
M  END
$$$$
