YAE.pdb
     RDKit          3D

 27 27  0  0  1  0  0  0  0  0999 V2000
   27.5209  -18.6578  -14.8182 O   0  0  0  0  0  0  0  0  0  0  0  0
   27.0352  -17.4329  -15.2786 C   0  0  0  0  0  0  0  0  0  0  0  0
   26.2616  -16.6512  -14.4480 C   0  0  0  0  0  0  0  0  0  0  0  0
   25.7767  -15.4228  -14.9146 C   0  0  0  0  0  0  0  0  0  0  0  0
   26.0669  -14.9944  -16.1914 C   0  0  0  0  0  0  0  0  0  0  0  0
   25.5250  -13.6899  -16.6247 C   0  0  0  0  0  0  0  0  0  0  0  0
   24.1510  -13.7863  -17.2131 C   0  0  2  0  0  0  0  0  0  0  0  0
   24.0379  -14.6864  -18.3295 N   0  0  0  0  0  0  0  0  0  0  0  0
   23.6742  -12.4174  -17.5534 C   0  0  0  0  0  0  0  0  0  0  0  0
   24.0042  -11.8940  -18.6635 O   0  0  0  0  0  0  0  0  0  0  0  0
   26.8398  -15.7776  -17.0179 C   0  0  0  0  0  0  0  0  0  0  0  0
   27.3202  -16.9915  -16.5597 C   0  0  0  0  0  0  0  0  0  0  0  0
   20.8679  -10.6847  -17.6242 C   0  0  0  0  0  0  0  0  0  0  0  0
   22.2597  -10.3872  -17.1123 C   0  0  2  0  0  0  0  0  0  0  0  0
   22.8546  -11.6383  -16.6967 N   0  0  0  0  0  0  0  0  0  0  0  0
   22.1236   -9.4413  -15.9515 C   0  0  0  0  0  0  0  0  0  0  0  0
   22.0395   -9.9871  -14.8268 O   0  0  0  0  0  0  0  0  0  0  0  0
   22.1026   -8.0690  -16.2029 N   0  0  0  0  0  0  0  0  0  0  0  0
   21.8927   -7.0664  -15.2106 C   0  0  1  0  0  0  0  0  0  0  0  0
   22.0112   -5.6485  -15.7236 C   0  0  0  0  0  0  0  0  0  0  0  0
   21.8516   -4.5743  -14.7094 C   0  0  0  0  0  0  0  0  0  0  0  0
   21.9799   -3.2364  -15.3108 C   0  0  0  0  0  0  0  0  0  0  0  0
   22.2631   -3.0805  -16.5034 O   0  0  0  0  0  0  0  0  0  0  0  0
   20.6377   -7.2415  -14.4495 C   0  0  0  0  0  0  0  0  0  0  0  0
   20.5526   -6.9817  -13.2262 O   0  0  0  0  0  0  0  0  0  0  0  0
   21.7859   -2.0676  -14.5532 O   0  0  0  0  0  0  0  0  0  0  0  0
   19.4973   -7.7130  -15.1058 O   0  0  0  0  0  0  0  0  0  0  0  0
  2  1  1  0
  3  2  2  0
  4  3  1  0
  5  4  2  0
  5 11  1  0
  6  5  1  0
  6  7  1  0
  7  9  1  0
  7  8  1  6
  9 10  2  0
  9 15  1  0
 11 12  2  0
 12  2  1  0
 14 13  1  1
 15 14  1  0
 16 14  1  0
 16 17  2  0
 18 19  1  0
 18 16  1  0
 19 20  1  6
 19 24  1  0
 20 21  1  0
 22 21  1  0
 23 22  2  0
 24 25  2  0
 24 27  1  0
 26 22  1  0
M  END
$$$$
