YAE.pdb
     RDKit          3D

 27 27  0  0  1  0  0  0  0  0999 V2000
   31.0932  -12.8982  -17.1149 O   0  0  0  0  0  0  0  0  0  0  0  0
   29.8946  -12.2317  -16.8556 C   0  0  0  0  0  0  0  0  0  0  0  0
   29.5498  -11.1315  -17.6106 C   0  0  0  0  0  0  0  0  0  0  0  0
   28.3459  -10.4661  -17.3466 C   0  0  0  0  0  0  0  0  0  0  0  0
   27.5097  -10.9026  -16.3425 C   0  0  0  0  0  0  0  0  0  0  0  0
   26.2548  -10.1574  -16.1127 C   0  0  0  0  0  0  0  0  0  0  0  0
   25.0262  -10.9800  -16.3520 C   0  0  2  0  0  0  0  0  0  0  0  0
   25.0626  -11.7795  -17.5473 N   0  0  0  0  0  0  0  0  0  0  0  0
   23.8339  -10.0889  -16.3165 C   0  0  0  0  0  0  0  0  0  0  0  0
   23.5142   -9.4240  -17.3514 O   0  0  0  0  0  0  0  0  0  0  0  0
   27.8574  -12.0016  -15.5907 C   0  0  0  0  0  0  0  0  0  0  0  0
   29.0460  -12.6609  -15.8493 C   0  0  0  0  0  0  0  0  0  0  0  0
   21.0547   -9.3767  -13.9123 C   0  0  0  0  0  0  0  0  0  0  0  0
   21.8459   -9.0702  -15.1643 C   0  0  2  0  0  0  0  0  0  0  0  0
   23.0098   -9.9287  -15.1728 N   0  0  0  0  0  0  0  0  0  0  0  0
   22.2434   -7.6213  -15.1066 C   0  0  0  0  0  0  0  0  0  0  0  0
   23.3372   -7.3912  -14.5405 O   0  0  0  0  0  0  0  0  0  0  0  0
   21.3932   -6.6693  -15.6704 N   0  0  0  0  0  0  0  0  0  0  0  0
   21.6366   -5.2640  -15.6702 C   0  0  1  0  0  0  0  0  0  0  0  0
   20.8297   -4.4925  -16.6907 C   0  0  0  0  0  0  0  0  0  0  0  0
   21.1921   -3.0613  -16.8592 C   0  0  0  0  0  0  0  0  0  0  0  0
   20.3096   -2.3881  -17.8267 C   0  0  0  0  0  0  0  0  0  0  0  0
   19.4166   -2.9942  -18.4285 O   0  0  0  0  0  0  0  0  0  0  0  0
   21.5163   -4.6433  -14.3341 C   0  0  0  0  0  0  0  0  0  0  0  0
   20.6328   -4.9838  -13.5128 O   0  0  0  0  0  0  0  0  0  0  0  0
   20.4419   -1.0178  -18.1135 O   0  0  0  0  0  0  0  0  0  0  0  0
   22.4139   -3.6391  -13.9607 O   0  0  0  0  0  0  0  0  0  0  0  0
  2  1  1  0
  3  2  2  0
  4  3  1  0
  5  4  2  0
  5 11  1  0
  6  5  1  0
  6  7  1  0
  7  9  1  0
  7  8  1  6
  9 10  2  0
  9 15  1  0
 11 12  2  0
 12  2  1  0
 14 13  1  1
 15 14  1  0
 16 14  1  0
 16 17  2  0
 18 19  1  0
 18 16  1  0
 19 20  1  6
 19 24  1  0
 20 21  1  0
 22 21  1  0
 23 22  2  0
 24 25  2  0
 24 27  1  0
 26 22  1  0
M  END
$$$$
