YAE.pdb
     RDKit          3D

 27 27  0  0  1  0  0  0  0  0999 V2000
   28.9593  -20.3050   -3.2859 O   0  0  0  0  0  0  0  0  0  0  0  0
   28.4333  -20.1962   -4.5742 C   0  0  0  0  0  0  0  0  0  0  0  0
   27.3129  -20.9223   -4.9161 C   0  0  0  0  0  0  0  0  0  0  0  0
   26.7889  -20.8097   -6.2101 C   0  0  0  0  0  0  0  0  0  0  0  0
   27.3835  -19.9823   -7.1373 C   0  0  0  0  0  0  0  0  0  0  0  0
   26.7835  -19.9079   -8.4854 C   0  0  0  0  0  0  0  0  0  0  0  0
   27.1733  -21.0519   -9.3702 C   0  0  2  0  0  0  0  0  0  0  0  0
   28.5910  -21.2151   -9.5508 N   0  0  0  0  0  0  0  0  0  0  0  0
   26.4596  -20.9218  -10.6704 C   0  0  0  0  0  0  0  0  0  0  0  0
   26.8569  -20.0677  -11.5236 O   0  0  0  0  0  0  0  0  0  0  0  0
   28.5021  -19.2587   -6.7923 C   0  0  0  0  0  0  0  0  0  0  0  0
   29.0220  -19.3679   -5.5147 C   0  0  0  0  0  0  0  0  0  0  0  0
   24.4553  -22.8741  -12.9220 C   0  0  0  0  0  0  0  0  0  0  0  0
   24.6132  -21.5197  -12.2675 C   0  0  2  0  0  0  0  0  0  0  0  0
   25.3350  -21.7091  -11.0286 N   0  0  0  0  0  0  0  0  0  0  0  0
   23.2350  -20.9756  -12.0125 C   0  0  0  0  0  0  0  0  0  0  0  0
   22.7491  -21.2592  -10.8929 O   0  0  0  0  0  0  0  0  0  0  0  0
   22.6176  -20.2181  -13.0085 N   0  0  0  0  0  0  0  0  0  0  0  0
   21.3063  -19.6659  -12.9111 C   0  0  1  0  0  0  0  0  0  0  0  0
   20.8801  -18.8580  -14.1166 C   0  0  0  0  0  0  0  0  0  0  0  0
   20.0864  -19.5862  -15.1402 C   0  0  0  0  0  0  0  0  0  0  0  0
   19.8274  -18.7489  -16.3234 C   0  0  0  0  0  0  0  0  0  0  0  0
   20.1987  -17.5720  -16.3849 O   0  0  0  0  0  0  0  0  0  0  0  0
   20.2709  -20.6600  -12.5581 C   0  0  0  0  0  0  0  0  0  0  0  0
   20.3013  -21.8398  -12.9802 O   0  0  0  0  0  0  0  0  0  0  0  0
   19.1417  -19.2507  -17.4439 O   0  0  0  0  0  0  0  0  0  0  0  0
   19.2142  -20.2836  -11.7243 O   0  0  0  0  0  0  0  0  0  0  0  0
  2  1  1  0
  3  2  2  0
  4  3  1  0
  5  4  2  0
  5 11  1  0
  6  5  1  0
  6  7  1  0
  7  9  1  0
  7  8  1  6
  9 10  2  0
  9 15  1  0
 11 12  2  0
 12  2  1  0
 14 13  1  1
 15 14  1  0
 16 14  1  0
 16 17  2  0
 18 19  1  0
 18 16  1  0
 19 20  1  6
 19 24  1  0
 20 21  1  0
 22 21  1  0
 23 22  2  0
 24 25  2  0
 24 27  1  0
 26 22  1  0
M  END
$$$$
