CHQ.pdb
     RDKit          3D

 26 26  0  0  1  0  0  0  0  0999 V2000
   27.0941  -21.1322  -11.5700 N   0  0  0  0  0  0  0  0  0  0  0  0
   25.6716  -21.3987  -11.5146 C   0  0  1  0  0  0  0  0  0  0  0  0
   25.0209  -20.2179  -10.8368 C   0  0  0  0  0  0  0  0  0  0  0  0
   25.3325  -20.3695   -9.0533 S   0  0  0  0  0  0  0  0  0  0  0  0
   25.1771  -21.6346  -12.8690 C   0  0  0  0  0  0  0  0  0  0  0  0
   25.3358  -20.7587  -13.7471 O   0  0  0  0  0  0  0  0  0  0  0  0
   24.5075  -22.8213  -13.2805 N   0  0  0  0  0  0  0  0  0  0  0  0
   24.0602  -23.0343  -14.6469 C   0  0  1  0  0  0  0  0  0  0  0  0
   24.3616  -24.4377  -15.1187 C   0  0  0  0  0  0  0  0  0  0  0  0
   25.7108  -24.6103  -15.6426 C   0  0  0  0  0  0  0  0  0  0  0  0
   26.6099  -23.6033  -15.9099 C   0  0  0  0  0  0  0  0  0  0  0  0
   27.7640  -24.1444  -16.3868 N   0  0  0  0  0  0  0  0  0  0  0  0
   27.5869  -25.4720  -16.4166 C   0  0  0  0  0  0  0  0  0  0  0  0
   26.3323  -25.7564  -15.9618 N   0  0  0  0  0  0  0  0  0  0  0  0
   22.6061  -22.7193  -14.7514 C   0  0  0  0  0  0  0  0  0  0  0  0
   21.8369  -22.7331  -13.7699 O   0  0  0  0  0  0  0  0  0  0  0  0
   18.5369  -21.2646  -13.6987 N   0  0  0  0  0  0  0  0  0  0  0  0
   18.4690  -20.0513  -14.4165 C   0  0  0  0  0  0  0  0  0  0  0  0
   17.4260  -19.3617  -14.3433 O   0  0  0  0  0  0  0  0  0  0  0  0
   19.6233  -19.6234  -15.2261 C   0  0  0  0  0  0  0  0  0  0  0  0
   20.7817  -20.5466  -15.2421 C   0  0  0  0  0  0  0  0  0  0  0  0
   20.7358  -21.7326  -16.1392 C   0  0  2  0  0  0  0  0  0  0  0  0
   22.0558  -22.3863  -16.0192 N   0  0  0  0  0  0  0  0  0  0  0  0
   20.3286  -21.5434  -17.5161 C   0  0  0  0  0  0  0  0  0  0  0  0
   21.1664  -21.3742  -18.4732 O   0  0  0  0  0  0  0  0  0  0  0  0
   18.9921  -21.5368  -17.9244 O   0  0  0  0  0  0  0  0  0  0  0  0
  2  1  1  6
  3  4  1  0
  3  2  1  0
  5  6  2  0
  5  2  1  0
  7  5  1  0
  8  7  1  0
  8  9  1  1
 10  9  1  0
 10 14  1  0
 11 12  1  0
 11 10  2  0
 12 13  1  0
 13 14  2  0
 15  8  1  0
 16 15  2  0
 18 17  1  0
 18 20  1  0
 19 18  2  0
 21 20  1  0
 22 21  1  6
 22 23  1  0
 23 15  1  0
 24 22  1  0
 24 26  1  0
 25 24  2  0
M  END
$$$$
