CHQ.pdb
     RDKit          3D

 26 26  0  0  1  0  0  0  0  0999 V2000
   16.0260  -13.6552    3.0917 N   0  0  0  0  0  0  0  0  0  0  0  0
   16.9974  -14.7233    3.2057 C   0  0  1  0  0  0  0  0  0  0  0  0
   18.3542  -14.1267    2.9225 C   0  0  0  0  0  0  0  0  0  0  0  0
   18.8257  -14.6126    1.2366 S   0  0  0  0  0  0  0  0  0  0  0  0
   16.8936  -15.3233    4.5338 C   0  0  0  0  0  0  0  0  0  0  0  0
   15.7714  -15.6456    4.9813 O   0  0  0  0  0  0  0  0  0  0  0  0
   18.0053  -15.5778    5.3854 N   0  0  0  0  0  0  0  0  0  0  0  0
   17.8624  -16.1799    6.7006 C   0  0  1  0  0  0  0  0  0  0  0  0
   17.6094  -17.6666    6.6076 C   0  0  0  0  0  0  0  0  0  0  0  0
   16.2945  -18.0127    6.0826 C   0  0  0  0  0  0  0  0  0  0  0  0
   15.0849  -17.6077    6.5991 C   0  0  0  0  0  0  0  0  0  0  0  0
   14.0769  -18.1266    5.8463 N   0  0  0  0  0  0  0  0  0  0  0  0
   14.6505  -18.8462    4.8726 C   0  0  0  0  0  0  0  0  0  0  0  0
   16.0055  -18.7764    5.0173 N   0  0  0  0  0  0  0  0  0  0  0  0
   19.0701  -15.8778    7.5221 C   0  0  0  0  0  0  0  0  0  0  0  0
   20.2017  -16.3291    7.2558 O   0  0  0  0  0  0  0  0  0  0  0  0
   20.2566  -10.3056    9.3898 N   0  0  0  0  0  0  0  0  0  0  0  0
   20.9772  -10.9820    8.3822 C   0  0  0  0  0  0  0  0  0  0  0  0
   21.6280  -10.3110    7.5486 O   0  0  0  0  0  0  0  0  0  0  0  0
   20.9522  -12.4546    8.3387 C   0  0  0  0  0  0  0  0  0  0  0  0
   20.1330  -13.1199    9.3783 C   0  0  0  0  0  0  0  0  0  0  0  0
   20.1256  -14.6066    9.4371 C   0  0  2  0  0  0  0  0  0  0  0  0
   18.9434  -15.0396    8.6633 N   0  0  0  0  0  0  0  0  0  0  0  0
   20.2118  -15.2483   10.7325 C   0  0  0  0  0  0  0  0  0  0  0  0
   19.1843  -15.6936   11.3590 O   0  0  0  0  0  0  0  0  0  0  0  0
   21.4185  -15.4464   11.4091 O   0  0  0  0  0  0  0  0  0  0  0  0
  2  1  1  1
  3  4  1  0
  3  2  1  0
  5  6  2  0
  5  2  1  0
  7  5  1  0
  8  7  1  0
  8  9  1  6
 10  9  1  0
 10 14  1  0
 11 12  1  0
 11 10  2  0
 12 13  1  0
 13 14  2  0
 15  8  1  0
 16 15  2  0
 18 17  1  0
 18 20  1  0
 19 18  2  0
 21 20  1  0
 22 21  1  1
 22 23  1  0
 23 15  1  0
 24 22  1  0
 24 26  1  0
 25 24  2  0
M  END
$$$$
