CHQ.pdb
     RDKit          3D

 26 26  0  0  1  0  0  0  0  0999 V2000
   27.2161  -16.1758  -17.0754 N   0  0  0  0  0  0  0  0  0  0  0  0
   26.6096  -16.2697  -15.7635 C   0  0  1  0  0  0  0  0  0  0  0  0
   25.8135  -15.0062  -15.5468 C   0  0  0  0  0  0  0  0  0  0  0  0
   26.9130  -13.7940  -14.7580 S   0  0  0  0  0  0  0  0  0  0  0  0
   25.7996  -17.4838  -15.6979 C   0  0  0  0  0  0  0  0  0  0  0  0
   24.9411  -17.7034  -16.5801 O   0  0  0  0  0  0  0  0  0  0  0  0
   25.9147  -18.4677  -14.6759 N   0  0  0  0  0  0  0  0  0  0  0  0
   25.1260  -19.6886  -14.6718 C   0  0  1  0  0  0  0  0  0  0  0  0
   25.8480  -20.8152  -13.9702 C   0  0  0  0  0  0  0  0  0  0  0  0
   25.0814  -22.0524  -13.8908 C   0  0  0  0  0  0  0  0  0  0  0  0
   23.8290  -22.2635  -14.4209 C   0  0  0  0  0  0  0  0  0  0  0  0
   23.4332  -23.5369  -14.1486 N   0  0  0  0  0  0  0  0  0  0  0  0
   24.4261  -24.1126  -13.4575 C   0  0  0  0  0  0  0  0  0  0  0  0
   25.4330  -23.2053  -13.3001 N   0  0  0  0  0  0  0  0  0  0  0  0
   23.7942  -19.4208  -14.0559 C   0  0  0  0  0  0  0  0  0  0  0  0
   23.6597  -18.9491  -12.9095 O   0  0  0  0  0  0  0  0  0  0  0  0
   18.3012  -16.9963  -14.8531 N   0  0  0  0  0  0  0  0  0  0  0  0
   19.5627  -16.4207  -15.1162 C   0  0  0  0  0  0  0  0  0  0  0  0
   19.6528  -15.1749  -15.2089 O   0  0  0  0  0  0  0  0  0  0  0  0
   20.7396  -17.2942  -15.2688 C   0  0  0  0  0  0  0  0  0  0  0  0
   20.4829  -18.7501  -15.1732 C   0  0  0  0  0  0  0  0  0  0  0  0
   21.2723  -19.5507  -14.1989 C   0  0  2  0  0  0  0  0  0  0  0  0
   22.6150  -19.7106  -14.7952 N   0  0  0  0  0  0  0  0  0  0  0  0
   20.7195  -20.8016  -13.7223 C   0  0  0  0  0  0  0  0  0  0  0  0
   21.0046  -21.9355  -14.2511 O   0  0  0  0  0  0  0  0  0  0  0  0
   19.8362  -20.8854  -12.6426 O   0  0  0  0  0  0  0  0  0  0  0  0
  2  1  1  6
  3  4  1  0
  3  2  1  0
  5  6  2  0
  5  2  1  0
  7  5  1  0
  8  7  1  0
  8  9  1  1
 10  9  1  0
 10 14  1  0
 11 12  1  0
 11 10  2  0
 12 13  1  0
 13 14  2  0
 15  8  1  0
 16 15  2  0
 18 17  1  0
 18 20  1  0
 19 18  2  0
 21 20  1  0
 22 21  1  6
 22 23  1  0
 23 15  1  0
 24 22  1  0
 24 26  1  0
 25 24  2  0
M  END
$$$$
