CHQ.pdb
     RDKit          3D

 26 26  0  0  1  0  0  0  0  0999 V2000
   32.1701  -21.3594  -19.6519 N   0  0  0  0  0  0  0  0  0  0  0  0
   32.4554  -22.5183  -20.4723 C   0  0  1  0  0  0  0  0  0  0  0  0
   33.9320  -22.8032  -20.3468 C   0  0  0  0  0  0  0  0  0  0  0  0
   34.2628  -23.2280  -18.6116 S   0  0  0  0  0  0  0  0  0  0  0  0
   31.6117  -23.6295  -20.0389 C   0  0  0  0  0  0  0  0  0  0  0  0
   31.5948  -24.6892  -20.7024 O   0  0  0  0  0  0  0  0  0  0  0  0
   30.7809  -23.5995  -18.8836 N   0  0  0  0  0  0  0  0  0  0  0  0
   29.8888  -24.6918  -18.5320 C   0  0  1  0  0  0  0  0  0  0  0  0
   29.4296  -24.5950  -17.0957 C   0  0  0  0  0  0  0  0  0  0  0  0
   28.4790  -25.6290  -16.7061 C   0  0  0  0  0  0  0  0  0  0  0  0
   28.7854  -26.9343  -16.3959 C   0  0  0  0  0  0  0  0  0  0  0  0
   27.6426  -27.6027  -16.0803 N   0  0  0  0  0  0  0  0  0  0  0  0
   26.6363  -26.7254  -16.1924 C   0  0  0  0  0  0  0  0  0  0  0  0
   27.1477  -25.5195  -16.5747 N   0  0  0  0  0  0  0  0  0  0  0  0
   28.7355  -24.7189  -19.4774 C   0  0  0  0  0  0  0  0  0  0  0  0
   28.1549  -23.6870  -19.8686 O   0  0  0  0  0  0  0  0  0  0  0  0
   27.2389  -22.8306  -23.5023 N   0  0  0  0  0  0  0  0  0  0  0  0
   26.7362  -24.0084  -24.0956 C   0  0  0  0  0  0  0  0  0  0  0  0
   26.1272  -23.9247  -25.1868 O   0  0  0  0  0  0  0  0  0  0  0  0
   26.9441  -25.3032  -23.4237 C   0  0  0  0  0  0  0  0  0  0  0  0
   27.7078  -25.2599  -22.1551 C   0  0  0  0  0  0  0  0  0  0  0  0
   27.2080  -26.0460  -20.9949 C   0  0  2  0  0  0  0  0  0  0  0  0
   28.2644  -25.9686  -19.9643 N   0  0  0  0  0  0  0  0  0  0  0  0
   26.7477  -27.4000  -21.2234 C   0  0  0  0  0  0  0  0  0  0  0  0
   27.4255  -28.4336  -20.8786 O   0  0  0  0  0  0  0  0  0  0  0  0
   25.5249  -27.7000  -21.8297 O   0  0  0  0  0  0  0  0  0  0  0  0
  2  1  1  1
  3  4  1  0
  3  2  1  0
  5  6  2  0
  5  2  1  0
  7  5  1  0
  8  7  1  0
  8  9  1  1
 10  9  1  0
 10 14  1  0
 11 12  1  0
 11 10  2  0
 12 13  1  0
 13 14  2  0
 15  8  1  0
 16 15  2  0
 18 17  1  0
 18 20  1  0
 19 18  2  0
 21 20  1  0
 22 21  1  6
 22 23  1  0
 23 15  1  0
 24 22  1  0
 24 26  1  0
 25 24  2  0
M  END
$$$$
