CHQ.pdb
     RDKit          3D

 26 26  0  0  1  0  0  0  0  0999 V2000
   23.2060  -13.0547  -18.1015 N   0  0  0  0  0  0  0  0  0  0  0  0
   23.0236  -12.0530  -19.1315 C   0  0  1  0  0  0  0  0  0  0  0  0
   21.6533  -12.2667  -19.7263 C   0  0  0  0  0  0  0  0  0  0  0  0
   21.6864  -13.8445  -20.6264 S   0  0  0  0  0  0  0  0  0  0  0  0
   23.2004  -10.7269  -18.5443 C   0  0  0  0  0  0  0  0  0  0  0  0
   22.3699  -10.3033  -17.7112 O   0  0  0  0  0  0  0  0  0  0  0  0
   24.2784   -9.8514  -18.8563 N   0  0  0  0  0  0  0  0  0  0  0  0
   24.3817   -8.5098  -18.3069 C   0  0  1  0  0  0  0  0  0  0  0  0
   25.7611   -7.9286  -18.5132 C   0  0  0  0  0  0  0  0  0  0  0  0
   25.9347   -6.5973  -17.9456 C   0  0  0  0  0  0  0  0  0  0  0  0
   25.7798   -6.2559  -16.6215 C   0  0  0  0  0  0  0  0  0  0  0  0
   26.0231   -4.9257  -16.4676 N   0  0  0  0  0  0  0  0  0  0  0  0
   26.3259   -4.4437  -17.6804 C   0  0  0  0  0  0  0  0  0  0  0  0
   26.2718   -5.4653  -18.5832 N   0  0  0  0  0  0  0  0  0  0  0  0
   23.3248   -7.6429  -18.9036 C   0  0  0  0  0  0  0  0  0  0  0  0
   23.1226   -7.5680  -20.1318 O   0  0  0  0  0  0  0  0  0  0  0  0
   17.7650   -7.9718  -18.7796 N   0  0  0  0  0  0  0  0  0  0  0  0
   17.7497   -6.5871  -19.0523 C   0  0  0  0  0  0  0  0  0  0  0  0
   16.6715   -6.0487  -19.3933 O   0  0  0  0  0  0  0  0  0  0  0  0
   18.9951   -5.8101  -18.9241 C   0  0  0  0  0  0  0  0  0  0  0  0
   20.2073   -6.5829  -18.5669 C   0  0  0  0  0  0  0  0  0  0  0  0
   21.5254   -5.8931  -18.5910 C   0  0  2  0  0  0  0  0  0  0  0  0
   22.5020   -6.8603  -18.0482 N   0  0  0  0  0  0  0  0  0  0  0  0
   21.6333   -4.5856  -17.9778 C   0  0  0  0  0  0  0  0  0  0  0  0
   21.2662   -3.5070  -18.5682 O   0  0  0  0  0  0  0  0  0  0  0  0
   22.1372   -4.3840  -16.6901 O   0  0  0  0  0  0  0  0  0  0  0  0
  2  1  1  1
  3  4  1  0
  3  2  1  0
  5  6  2  0
  5  2  1  0
  7  5  1  0
  8  7  1  0
  8  9  1  6
 10  9  1  0
 10 14  1  0
 11 12  1  0
 11 10  2  0
 12 13  1  0
 13 14  2  0
 15  8  1  0
 16 15  2  0
 18 17  1  0
 18 20  1  0
 19 18  2  0
 21 20  1  0
 22 21  1  1
 22 23  1  0
 23 15  1  0
 24 22  1  0
 24 26  1  0
 25 24  2  0
M  END
$$$$
