CHQ.pdb
     RDKit          3D

 26 26  0  0  1  0  0  0  0  0999 V2000
   28.6625  -22.9812  -16.9491 N   0  0  0  0  0  0  0  0  0  0  0  0
   27.2944  -23.4472  -17.0424 C   0  0  1  0  0  0  0  0  0  0  0  0
   27.1845  -24.6873  -16.1896 C   0  0  0  0  0  0  0  0  0  0  0  0
   28.2502  -25.9584  -16.9308 S   0  0  0  0  0  0  0  0  0  0  0  0
   26.3952  -22.3744  -16.6242 C   0  0  0  0  0  0  0  0  0  0  0  0
   26.0080  -22.3192  -15.4365 O   0  0  0  0  0  0  0  0  0  0  0  0
   25.9097  -21.3545  -17.4903 N   0  0  0  0  0  0  0  0  0  0  0  0
   24.9793  -20.3291  -17.0482 C   0  0  1  0  0  0  0  0  0  0  0  0
   25.1271  -19.0591  -17.8533 C   0  0  0  0  0  0  0  0  0  0  0  0
   24.1516  -18.0287  -17.5198 C   0  0  0  0  0  0  0  0  0  0  0  0
   23.1994  -18.1063  -16.5293 C   0  0  0  0  0  0  0  0  0  0  0  0
   22.4709  -16.9568  -16.5134 N   0  0  0  0  0  0  0  0  0  0  0  0
   22.9626  -16.1722  -17.4816 C   0  0  0  0  0  0  0  0  0  0  0  0
   23.9896  -16.8274  -18.0964 N   0  0  0  0  0  0  0  0  0  0  0  0
   23.5865  -20.8592  -17.1077 C   0  0  0  0  0  0  0  0  0  0  0  0
   23.1633  -21.5489  -18.0565 O   0  0  0  0  0  0  0  0  0  0  0  0
   19.9024  -24.5572  -14.2977 N   0  0  0  0  0  0  0  0  0  0  0  0
   20.7701  -23.8264  -13.4579 C   0  0  0  0  0  0  0  0  0  0  0  0
   20.8784  -24.1650  -12.2570 O   0  0  0  0  0  0  0  0  0  0  0  0
   21.5292  -22.6919  -14.0127 C   0  0  0  0  0  0  0  0  0  0  0  0
   21.4430  -22.5100  -15.4803 C   0  0  0  0  0  0  0  0  0  0  0  0
   21.3183  -21.1298  -16.0216 C   0  0  2  0  0  0  0  0  0  0  0  0
   22.6878  -20.5749  -16.0435 N   0  0  0  0  0  0  0  0  0  0  0  0
   20.3605  -20.2311  -15.4113 C   0  0  0  0  0  0  0  0  0  0  0  0
   20.7033  -19.2795  -14.6217 O   0  0  0  0  0  0  0  0  0  0  0  0
   18.9834  -20.3150  -15.6342 O   0  0  0  0  0  0  0  0  0  0  0  0
  2  1  1  1
  3  4  1  0
  3  2  1  0
  5  6  2  0
  5  2  1  0
  7  5  1  0
  8  7  1  0
  8  9  1  6
 10  9  1  0
 10 14  1  0
 11 12  1  0
 11 10  2  0
 12 13  1  0
 13 14  2  0
 15  8  1  0
 16 15  2  0
 18 17  1  0
 18 20  1  0
 19 18  2  0
 21 20  1  0
 22 21  1  1
 22 23  1  0
 23 15  1  0
 24 22  1  0
 24 26  1  0
 25 24  2  0
M  END
$$$$
