RMD.pdb
     RDKit          3D

 28 27  0  0  1  0  0  0  0  0999 V2000
   26.8058  -19.0547  -19.3161 N   0  0  0  0  0  0  0  0  0  0  0  0
   25.6534  -19.3351  -18.5088 C   0  0  0  0  0  0  0  0  0  0  0  0
   24.6780  -20.0450  -19.0104 N   0  0  0  0  0  0  0  0  0  0  0  0
   25.5319  -18.8736  -17.1817 N   0  0  0  0  0  0  0  0  0  0  0  0
   26.5747  -18.1261  -16.5496 C   0  0  0  0  0  0  0  0  0  0  0  0
   27.7562  -19.0704  -16.3231 C   0  0  0  0  0  0  0  0  0  0  0  0
   27.9559  -19.1285  -14.8228 C   0  0  0  0  0  0  0  0  0  0  0  0
   28.1323  -20.5590  -14.3449 C   0  0  2  0  0  0  0  0  0  0  0  0
   28.3906  -21.4914  -15.4027 N   0  0  0  0  0  0  0  0  0  0  0  0
   26.8702  -20.9442  -13.6668 C   0  0  0  0  0  0  0  0  0  0  0  0
   25.9850  -21.6177  -14.2975 O   0  0  0  0  0  0  0  0  0  0  0  0
   23.8588  -20.2884  -18.3976 C   0  0  0  0  0  0  0  0  0  0  0  0
   26.1515  -19.4671   -7.3512 S   0  0  0  0  0  0  0  0  0  0  0  0
   27.3129  -20.7407   -7.9542 C   0  0  0  0  0  0  0  0  0  0  0  0
   26.6801  -21.5612   -9.4482 C   0  0  0  0  0  0  0  0  0  0  0  0
   25.6783  -20.6801  -10.1636 C   0  0  2  0  0  0  0  0  0  0  0  0
   25.5087  -21.0687  -11.6077 N   0  0  0  0  0  0  0  0  0  0  0  0
   26.6535  -20.5685  -12.3424 C   0  0  0  0  0  0  0  0  0  0  0  0
   24.3022  -20.5055  -12.2192 O   0  0  0  0  0  0  0  0  0  0  0  0
   24.1835  -19.2899  -12.5059 N   0  0  0  0  0  0  0  0  0  0  0  0
   23.1993  -21.3504  -12.5124 C   0  0  1  0  0  0  0  0  0  0  0  0
   22.1069  -20.9580  -13.3721 C   0  0  0  0  0  0  0  0  0  0  0  0
   22.1457  -21.8578  -14.5901 C   0  0  0  0  0  0  0  0  0  0  0  0
   21.0145  -21.5975  -15.5049 O   0  0  0  0  0  0  0  0  0  0  0  0
   20.1585  -20.7011  -15.2995 C   0  0  0  0  0  0  0  0  0  0  0  0
   20.8358  -21.0745  -12.6377 O   0  0  0  0  0  0  0  0  0  0  0  0
   19.6488  -20.4957  -13.0282 O   0  0  0  0  0  0  0  0  0  0  0  0
   20.8813  -22.3766  -16.6441 O   0  0  0  0  0  0  0  0  0  0  0  0
  2  1  1  0
  3  2  2  0
  4  2  1  0
  5  4  1  0
  6  5  1  0
  7  6  1  0
  8  7  1  0
  8  9  1  6
 10 11  2  0
 10  8  1  0
 12 13  1  0
 14 13  1  0
 15 14  1  0
 16 17  1  0
 16 15  1  1
 17 10  1  0
 18 16  1  0
 19 18  2  0
 20 18  1  0
 21 20  1  0
 21 22  1  1
 22 23  1  0
 23 24  2  0
 25 21  1  0
 25 26  1  0
 27 23  1  0
 28 25  2  0
M  END
$$$$
