RMD.pdb
     RDKit          3D

 28 27  0  0  1  0  0  0  0  0999 V2000
   31.0559  -24.9481  -15.8116 N   0  0  0  0  0  0  0  0  0  0  0  0
   31.4375  -24.5148  -17.1250 C   0  0  0  0  0  0  0  0  0  0  0  0
   32.6159  -24.8371  -17.5881 N   0  0  0  0  0  0  0  0  0  0  0  0
   30.5820  -23.7505  -17.9452 N   0  0  0  0  0  0  0  0  0  0  0  0
   29.3599  -23.1997  -17.4462 C   0  0  0  0  0  0  0  0  0  0  0  0
   29.6925  -22.3727  -16.2033 C   0  0  0  0  0  0  0  0  0  0  0  0
   28.5779  -22.6472  -15.2151 C   0  0  0  0  0  0  0  0  0  0  0  0
   27.3947  -21.7244  -15.4481 C   0  0  2  0  0  0  0  0  0  0  0  0
   27.7460  -20.3349  -15.4798 N   0  0  0  0  0  0  0  0  0  0  0  0
   26.4461  -21.9513  -14.3302 C   0  0  0  0  0  0  0  0  0  0  0  0
   26.0611  -23.1377  -14.0488 O   0  0  0  0  0  0  0  0  0  0  0  0
   32.8816  -24.5327  -18.5589 C   0  0  0  0  0  0  0  0  0  0  0  0
   25.4875  -20.2358   -7.5799 S   0  0  0  0  0  0  0  0  0  0  0  0
   26.7742  -20.2066   -8.8754 C   0  0  0  0  0  0  0  0  0  0  0  0
   26.2660  -21.1618  -10.3366 C   0  0  0  0  0  0  0  0  0  0  0  0
   25.5163  -20.2868  -11.3184 C   0  0  2  0  0  0  0  0  0  0  0  0
   25.0273  -21.0618  -12.5123 N   0  0  0  0  0  0  0  0  0  0  0  0
   25.9763  -20.8678  -13.5903 C   0  0  0  0  0  0  0  0  0  0  0  0
   23.7128  -20.6219  -12.9872 O   0  0  0  0  0  0  0  0  0  0  0  0
   23.5344  -19.5480  -13.6108 N   0  0  0  0  0  0  0  0  0  0  0  0
   22.5690  -21.4275  -12.7449 C   0  0  1  0  0  0  0  0  0  0  0  0
   21.2478  -21.0922  -13.2228 C   0  0  0  0  0  0  0  0  0  0  0  0
   20.4117  -22.3539  -13.1607 C   0  0  0  0  0  0  0  0  0  0  0  0
   19.0353  -22.1286  -13.6495 O   0  0  0  0  0  0  0  0  0  0  0  0
   18.6495  -21.0353  -14.1335 C   0  0  0  0  0  0  0  0  0  0  0  0
   20.6837  -20.0127  -12.3950 O   0  0  0  0  0  0  0  0  0  0  0  0
   19.9041  -18.9834  -12.8736 O   0  0  0  0  0  0  0  0  0  0  0  0
   18.1185  -23.1658  -13.5710 O   0  0  0  0  0  0  0  0  0  0  0  0
  2  1  1  0
  3  2  2  0
  4  2  1  0
  5  4  1  0
  6  5  1  0
  7  6  1  0
  8  7  1  0
  8  9  1  1
 10 11  2  0
 10  8  1  0
 12 13  1  0
 14 13  1  0
 15 14  1  0
 16 17  1  0
 16 15  1  1
 17 10  1  0
 18 16  1  0
 19 18  2  0
 20 18  1  0
 21 20  1  0
 21 22  1  1
 22 23  1  0
 23 24  2  0
 25 21  1  0
 25 26  1  0
 27 23  1  0
 28 25  2  0
M  END
$$$$
