RMD.pdb
     RDKit          3D

 28 27  0  0  1  0  0  0  0  0999 V2000
   27.5524  -25.8823  -17.5299 N   0  0  0  0  0  0  0  0  0  0  0  0
   27.6470  -25.5866  -18.9305 C   0  0  0  0  0  0  0  0  0  0  0  0
   27.7242  -26.5690  -19.7883 N   0  0  0  0  0  0  0  0  0  0  0  0
   27.6565  -24.2653  -19.4233 N   0  0  0  0  0  0  0  0  0  0  0  0
   27.9418  -23.1504  -18.5739 C   0  0  0  0  0  0  0  0  0  0  0  0
   26.6117  -22.4947  -18.1998 C   0  0  0  0  0  0  0  0  0  0  0  0
   26.9664  -21.3201  -17.3118 C   0  0  0  0  0  0  0  0  0  0  0  0
   27.6847  -21.7766  -16.0542 C   0  0  2  0  0  0  0  0  0  0  0  0
   28.2774  -23.0767  -16.1699 N   0  0  0  0  0  0  0  0  0  0  0  0
   26.6733  -21.8081  -14.9691 C   0  0  0  0  0  0  0  0  0  0  0  0
   25.8096  -22.7499  -14.9268 O   0  0  0  0  0  0  0  0  0  0  0  0
   27.8250  -26.3449  -20.8107 C   0  0  0  0  0  0  0  0  0  0  0  0
   24.6089  -21.0906   -8.0369 S   0  0  0  0  0  0  0  0  0  0  0  0
   25.7409  -21.0506   -9.4693 C   0  0  0  0  0  0  0  0  0  0  0  0
   25.2336  -19.7930  -10.6805 C   0  0  0  0  0  0  0  0  0  0  0  0
   26.1430  -19.8125  -11.8906 C   0  0  2  0  0  0  0  0  0  0  0  0
   25.7206  -20.8434  -12.9026 N   0  0  0  0  0  0  0  0  0  0  0  0
   26.6681  -20.8079  -13.9987 C   0  0  0  0  0  0  0  0  0  0  0  0
   24.3861  -20.5970  -13.4550 O   0  0  0  0  0  0  0  0  0  0  0  0
   24.1188  -19.6134  -14.1866 N   0  0  0  0  0  0  0  0  0  0  0  0
   23.3256  -21.4959  -13.1662 C   0  0  1  0  0  0  0  0  0  0  0  0
   21.9654  -21.2837  -13.6034 C   0  0  0  0  0  0  0  0  0  0  0  0
   21.3499  -22.6473  -13.8412 C   0  0  0  0  0  0  0  0  0  0  0  0
   21.4898  -23.0783  -15.2479 O   0  0  0  0  0  0  0  0  0  0  0  0
   22.0120  -22.3602  -16.1367 C   0  0  0  0  0  0  0  0  0  0  0  0
   21.2335  -20.5164  -12.5815 O   0  0  0  0  0  0  0  0  0  0  0  0
   21.4283  -20.6346  -11.2233 O   0  0  0  0  0  0  0  0  0  0  0  0
   21.0223  -24.3312  -15.6142 O   0  0  0  0  0  0  0  0  0  0  0  0
  2  1  1  0
  3  2  2  0
  4  2  1  0
  5  4  1  0
  6  5  1  0
  7  6  1  0
  8  7  1  0
  8  9  1  6
 10 11  2  0
 10  8  1  0
 12 13  1  0
 14 13  1  0
 15 14  1  0
 16 17  1  0
 16 15  1  1
 17 10  1  0
 18 16  1  0
 19 18  2  0
 20 18  1  0
 21 20  1  0
 21 22  1  1
 22 23  1  0
 23 24  2  0
 25 21  1  0
 25 26  1  0
 27 23  1  0
 28 25  2  0
M  END
$$$$
