RMD.pdb
     RDKit          3D

 28 27  0  0  1  0  0  0  0  0999 V2000
   29.7362  -27.6184  -16.9357 N   0  0  0  0  0  0  0  0  0  0  0  0
   28.3350  -27.6729  -17.2388 C   0  0  0  0  0  0  0  0  0  0  0  0
   27.7464  -28.8351  -17.3373 N   0  0  0  0  0  0  0  0  0  0  0  0
   27.5597  -26.5111  -17.4332 N   0  0  0  0  0  0  0  0  0  0  0  0
   28.1332  -25.2037  -17.3457 C   0  0  0  0  0  0  0  0  0  0  0  0
   27.9284  -24.6975  -15.9171 C   0  0  0  0  0  0  0  0  0  0  0  0
   26.4348  -24.7503  -15.6711 C   0  0  0  0  0  0  0  0  0  0  0  0
   25.7909  -23.3933  -15.8943 C   0  0  2  0  0  0  0  0  0  0  0  0
   26.7287  -22.3095  -15.9258 N   0  0  0  0  0  0  0  0  0  0  0  0
   24.8473  -23.1753  -14.7703 C   0  0  0  0  0  0  0  0  0  0  0  0
   23.9600  -24.0554  -14.5002 O   0  0  0  0  0  0  0  0  0  0  0  0
   26.7230  -28.8683  -17.5768 C   0  0  0  0  0  0  0  0  0  0  0  0
   26.1126  -19.2522   -9.7510 S   0  0  0  0  0  0  0  0  0  0  0  0
   25.9700  -21.0223   -9.3256 C   0  0  0  0  0  0  0  0  0  0  0  0
   25.0824  -21.9451  -10.6165 C   0  0  0  0  0  0  0  0  0  0  0  0
   24.8146  -21.0662  -11.8196 C   0  0  2  0  0  0  0  0  0  0  0  0
   24.0413  -21.7882  -12.8902 N   0  0  0  0  0  0  0  0  0  0  0  0
   24.9313  -22.0088  -14.0125 C   0  0  0  0  0  0  0  0  0  0  0  0
   22.8849  -21.0313  -13.3768 O   0  0  0  0  0  0  0  0  0  0  0  0
   22.9710  -20.1376  -14.2531 N   0  0  0  0  0  0  0  0  0  0  0  0
   21.5937  -21.2995  -12.8506 C   0  0  1  0  0  0  0  0  0  0  0  0
   20.4018  -20.6082  -13.2842 C   0  0  0  0  0  0  0  0  0  0  0  0
   19.2126  -21.3994  -12.7797 C   0  0  0  0  0  0  0  0  0  0  0  0
   19.0309  -22.6606  -13.5284 O   0  0  0  0  0  0  0  0  0  0  0  0
   19.6254  -22.9099  -14.6068 C   0  0  0  0  0  0  0  0  0  0  0  0
   20.4131  -19.2315  -12.7613 O   0  0  0  0  0  0  0  0  0  0  0  0
   19.8814  -18.1410  -13.4129 O   0  0  0  0  0  0  0  0  0  0  0  0
   18.1626  -23.6182  -13.0269 O   0  0  0  0  0  0  0  0  0  0  0  0
  2  1  1  0
  3  2  2  0
  4  2  1  0
  5  4  1  0
  6  5  1  0
  7  6  1  0
  8  7  1  0
  8  9  1  1
 10 11  2  0
 10  8  1  0
 12 13  1  0
 14 13  1  0
 15 14  1  0
 16 17  1  0
 16 15  1  1
 17 10  1  0
 18 16  1  0
 19 18  2  0
 20 18  1  0
 21 20  1  0
 21 22  1  1
 22 23  1  0
 23 24  2  0
 25 21  1  0
 25 26  1  0
 27 23  1  0
 28 25  2  0
M  END
$$$$
