RMD.pdb
     RDKit          3D

 28 27  0  0  1  0  0  0  0  0999 V2000
   24.9895  -25.0712  -15.3394 N   0  0  0  0  0  0  0  0  0  0  0  0
   25.7339  -23.8632  -15.5512 C   0  0  0  0  0  0  0  0  0  0  0  0
   26.7123  -23.8580  -16.4169 N   0  0  0  0  0  0  0  0  0  0  0  0
   25.4468  -22.6691  -14.8581 N   0  0  0  0  0  0  0  0  0  0  0  0
   24.4121  -22.6044  -13.8727 C   0  0  0  0  0  0  0  0  0  0  0  0
   23.0727  -22.5147  -14.6057 C   0  0  0  0  0  0  0  0  0  0  0  0
   22.3996  -21.2626  -14.0829 C   0  0  0  0  0  0  0  0  0  0  0  0
   21.9821  -20.3456  -15.2190 C   0  0  2  0  0  0  0  0  0  0  0  0
   22.1528  -20.9254  -16.5189 N   0  0  0  0  0  0  0  0  0  0  0  0
   22.8282  -19.1306  -15.1236 C   0  0  0  0  0  0  0  0  0  0  0  0
   22.7317  -18.3622  -14.1063 O   0  0  0  0  0  0  0  0  0  0  0  0
   27.1750  -22.9444  -16.6560 C   0  0  0  0  0  0  0  0  0  0  0  0
   27.8016  -14.2410  -15.0278 S   0  0  0  0  0  0  0  0  0  0  0  0
   26.6727  -15.6752  -14.9702 C   0  0  0  0  0  0  0  0  0  0  0  0
   26.7620  -16.6514  -16.5015 C   0  0  0  0  0  0  0  0  0  0  0  0
   25.9134  -17.9004  -16.3946 C   0  0  1  0  0  0  0  0  0  0  0  0
   24.4639  -17.5830  -16.1427 N   0  0  0  0  0  0  0  0  0  0  0  0
   23.7261  -18.8305  -16.1463 C   0  0  0  0  0  0  0  0  0  0  0  0
   23.8775  -16.7121  -17.1647 O   0  0  0  0  0  0  0  0  0  0  0  0
   23.7886  -17.0381  -18.3730 N   0  0  0  0  0  0  0  0  0  0  0  0
   23.3784  -15.4336  -16.8008 C   0  0  1  0  0  0  0  0  0  0  0  0
   22.7522  -14.5310  -17.7386 C   0  0  0  0  0  0  0  0  0  0  0  0
   22.0467  -13.4603  -16.9319 C   0  0  0  0  0  0  0  0  0  0  0  0
   21.2942  -12.5253  -17.7943 O   0  0  0  0  0  0  0  0  0  0  0  0
   21.2314  -12.6438  -19.0435 C   0  0  0  0  0  0  0  0  0  0  0  0
   23.7742  -13.9654  -18.6355 O   0  0  0  0  0  0  0  0  0  0  0  0
   23.6211  -13.8021  -19.9943 O   0  0  0  0  0  0  0  0  0  0  0  0
   20.6261  -11.4621  -17.2065 O   0  0  0  0  0  0  0  0  0  0  0  0
  2  1  1  0
  3  2  2  0
  4  2  1  0
  5  4  1  0
  6  5  1  0
  7  6  1  0
  8  7  1  0
  8  9  1  6
 10 11  2  0
 10  8  1  0
 12 13  1  0
 14 13  1  0
 15 14  1  0
 16 17  1  0
 16 15  1  1
 17 10  1  0
 18 16  1  0
 19 18  2  0
 20 18  1  0
 21 20  1  0
 21 22  1  6
 22 23  1  0
 23 24  2  0
 25 21  1  0
 25 26  1  0
 27 23  1  0
 28 25  2  0
M  END
$$$$
