RMD.pdb
     RDKit          3D

 28 27  0  0  1  0  0  0  0  0999 V2000
   24.5585  -22.6977  -16.8660 N   0  0  0  0  0  0  0  0  0  0  0  0
   25.8642  -23.2187  -16.5797 C   0  0  0  0  0  0  0  0  0  0  0  0
   26.0460  -24.5123  -16.5558 N   0  0  0  0  0  0  0  0  0  0  0  0
   26.9705  -22.3823  -16.3241 N   0  0  0  0  0  0  0  0  0  0  0  0
   26.8778  -20.9598  -16.4415 C   0  0  0  0  0  0  0  0  0  0  0  0
   26.0125  -20.4505  -15.2878 C   0  0  0  0  0  0  0  0  0  0  0  0
   25.5134  -19.0866  -15.7176 C   0  0  0  0  0  0  0  0  0  0  0  0
   24.6368  -18.4581  -14.6488 C   0  0  2  0  0  0  0  0  0  0  0  0
   23.4501  -19.2097  -14.3626 N   0  0  0  0  0  0  0  0  0  0  0  0
   24.2436  -17.1178  -15.1490 C   0  0  0  0  0  0  0  0  0  0  0  0
   23.0478  -16.9107  -15.5515 O   0  0  0  0  0  0  0  0  0  0  0  0
   26.9824  -24.8889  -16.2607 C   0  0  0  0  0  0  0  0  0  0  0  0
   26.3828   -9.4971  -15.4092 S   0  0  0  0  0  0  0  0  0  0  0  0
   26.7946  -11.2208  -14.9691 C   0  0  0  0  0  0  0  0  0  0  0  0
   25.5935  -12.3901  -15.6734 C   0  0  0  0  0  0  0  0  0  0  0  0
   25.8078  -13.7822  -15.1188 C   0  0  1  0  0  0  0  0  0  0  0  0
   24.8259  -14.7752  -15.6802 N   0  0  0  0  0  0  0  0  0  0  0  0
   25.1818  -16.0877  -15.1792 C   0  0  0  0  0  0  0  0  0  0  0  0
   24.8387  -14.8352  -17.1441 O   0  0  0  0  0  0  0  0  0  0  0  0
   25.3600  -15.7787  -17.7862 N   0  0  0  0  0  0  0  0  0  0  0  0
   24.2413  -13.7912  -17.8986 C   0  0  1  0  0  0  0  0  0  0  0  0
   23.6070  -14.0016  -19.1791 C   0  0  0  0  0  0  0  0  0  0  0  0
   22.4234  -14.9192  -18.9510 C   0  0  0  0  0  0  0  0  0  0  0  0
   22.2654  -15.8989  -20.0462 O   0  0  0  0  0  0  0  0  0  0  0  0
   22.9998  -15.9127  -21.0654 C   0  0  0  0  0  0  0  0  0  0  0  0
   23.2010  -12.7048  -19.7467 O   0  0  0  0  0  0  0  0  0  0  0  0
   23.2189  -12.3962  -21.0887 O   0  0  0  0  0  0  0  0  0  0  0  0
   21.2597  -16.8490  -19.9550 O   0  0  0  0  0  0  0  0  0  0  0  0
  2  1  1  0
  3  2  2  0
  4  2  1  0
  5  4  1  0
  6  5  1  0
  7  6  1  0
  8  7  1  0
  8  9  1  6
 10 11  2  0
 10  8  1  0
 12 13  1  0
 14 13  1  0
 15 14  1  0
 16 17  1  0
 16 15  1  1
 17 10  1  0
 18 16  1  0
 19 18  2  0
 20 18  1  0
 21 20  1  0
 21 22  1  6
 22 23  1  0
 23 24  2  0
 25 21  1  0
 25 26  1  0
 27 23  1  0
 28 25  2  0
M  END
$$$$
