RMD.pdb
     RDKit          3D

 28 27  0  0  1  0  0  0  0  0999 V2000
   30.0776  -24.9450  -16.3370 N   0  0  0  0  0  0  0  0  0  0  0  0
   30.3941  -23.7435  -17.0542 C   0  0  0  0  0  0  0  0  0  0  0  0
   31.1017  -23.8198  -18.1498 N   0  0  0  0  0  0  0  0  0  0  0  0
   29.9649  -22.4717  -16.6216 N   0  0  0  0  0  0  0  0  0  0  0  0
   29.0924  -22.3168  -15.4989 C   0  0  0  0  0  0  0  0  0  0  0  0
   27.6532  -22.3982  -16.0100 C   0  0  0  0  0  0  0  0  0  0  0  0
   26.7895  -22.5917  -14.7809 C   0  0  0  0  0  0  0  0  0  0  0  0
   26.2351  -21.2688  -14.2826 C   0  0  2  0  0  0  0  0  0  0  0  0
   27.1859  -20.1965  -14.3179 N   0  0  0  0  0  0  0  0  0  0  0  0
   25.8095  -21.4832  -12.8775 C   0  0  0  0  0  0  0  0  0  0  0  0
   25.0379  -22.4598  -12.5848 O   0  0  0  0  0  0  0  0  0  0  0  0
   31.3500  -22.9331  -18.6578 C   0  0  0  0  0  0  0  0  0  0  0  0
   26.9555  -20.2774   -5.3811 S   0  0  0  0  0  0  0  0  0  0  0  0
   27.4824  -20.0844   -7.1189 C   0  0  0  0  0  0  0  0  0  0  0  0
   26.0588  -19.8166   -8.2177 C   0  0  0  0  0  0  0  0  0  0  0  0
   26.4991  -19.7553   -9.6648 C   0  0  2  0  0  0  0  0  0  0  0  0
   25.7020  -20.6835  -10.5413 N   0  0  0  0  0  0  0  0  0  0  0  0
   26.2526  -20.6164  -11.8803 C   0  0  0  0  0  0  0  0  0  0  0  0
   24.2834  -20.3258  -10.6212 O   0  0  0  0  0  0  0  0  0  0  0  0
   23.8777  -19.2344  -11.0884 N   0  0  0  0  0  0  0  0  0  0  0  0
   23.2986  -21.2366  -10.1556 C   0  0  1  0  0  0  0  0  0  0  0  0
   21.8797  -20.9777  -10.2332 C   0  0  0  0  0  0  0  0  0  0  0  0
   21.3740  -21.6143  -11.5114 C   0  0  0  0  0  0  0  0  0  0  0  0
   20.2842  -20.8278  -12.1262 O   0  0  0  0  0  0  0  0  0  0  0  0
   20.3656  -19.5923  -12.3391 C   0  0  0  0  0  0  0  0  0  0  0  0
   21.2129  -21.5260   -9.0401 O   0  0  0  0  0  0  0  0  0  0  0  0
   19.8811  -21.3514   -8.7363 O   0  0  0  0  0  0  0  0  0  0  0  0
   19.1114  -21.4746  -12.4847 O   0  0  0  0  0  0  0  0  0  0  0  0
  2  1  1  0
  3  2  2  0
  4  2  1  0
  5  4  1  0
  6  5  1  0
  7  6  1  0
  8  7  1  0
  8  9  1  1
 10 11  2  0
 10  8  1  0
 12 13  1  0
 14 13  1  0
 15 14  1  0
 16 17  1  0
 16 15  1  1
 17 10  1  0
 18 16  1  0
 19 18  2  0
 20 18  1  0
 21 20  1  0
 21 22  1  1
 22 23  1  0
 23 24  2  0
 25 21  1  0
 25 26  1  0
 27 23  1  0
 28 25  2  0
M  END
$$$$
