LTT.pdb
     RDKit          3D

 23 22  0  0  1  0  0  0  0  0999 V2000
   23.4619  -21.0280  -10.1001 C   0  0  0  0  0  0  0  0  0  0  0  0
   24.9067  -21.1433   -9.5923 C   0  0  2  0  0  0  0  0  0  0  0  0
   24.9826  -20.2994   -8.3634 C   0  0  0  0  0  0  0  0  0  0  0  0
   25.7818  -20.6979  -10.7245 C   0  0  0  0  0  0  0  0  0  0  0  0
   25.5647  -21.5569  -11.9334 C   0  0  2  0  0  0  0  0  0  0  0  0
   26.4560  -22.6933  -11.8606 N   0  0  0  0  0  0  0  0  0  0  0  0
   25.8600  -20.7324  -13.1555 C   0  0  0  0  0  0  0  0  0  0  0  0
   26.8065  -19.9040  -13.1409 O   0  0  0  0  0  0  0  0  0  0  0  0
   27.5909  -21.5916  -15.4768 C   0  0  0  0  0  0  0  0  0  0  0  0
   26.3664  -21.2413  -16.3179 C   0  0  1  0  0  0  0  0  0  0  0  0
   25.5994  -22.3691  -16.5351 O   0  0  0  0  0  0  0  0  0  0  0  0
   25.5751  -20.1987  -15.5530 C   0  0  2  0  0  0  0  0  0  0  0  0
   25.1014  -20.8506  -14.3493 N   0  0  0  0  0  0  0  0  0  0  0  0
   24.3802  -19.7744  -16.3182 C   0  0  0  0  0  0  0  0  0  0  0  0
   23.2156  -20.1848  -16.0531 O   0  0  0  0  0  0  0  0  0  0  0  0
   23.7726  -15.9951  -17.6664 C   0  0  0  0  0  0  0  0  0  0  0  0
   23.7458  -17.0628  -18.7122 C   0  0  1  0  0  0  0  0  0  0  0  0
   25.0122  -17.1527  -19.2874 O   0  0  0  0  0  0  0  0  0  0  0  0
   23.3745  -18.4212  -18.1636 C   0  0  2  0  0  0  0  0  0  0  0  0
   24.5295  -18.8784  -17.3864 N   0  0  0  0  0  0  0  0  0  0  0  0
   23.0529  -19.3961  -19.2034 C   0  0  0  0  0  0  0  0  0  0  0  0
   23.8218  -20.3631  -19.4206 O   0  0  0  0  0  0  0  0  0  0  0  0
   21.9101  -19.2975  -19.9778 O   0  0  0  0  0  0  0  0  0  0  0  0
  2  1  1  6
  3  2  1  0
  4  2  1  0
  5  6  1  1
  5  4  1  0
  7  5  1  0
  8  7  2  0
 10  9  1  1
 10 12  1  0
 11 10  1  0
 12 14  1  0
 12 13  1  1
 13  7  1  0
 14 20  1  0
 15 14  2  0
 17 18  1  0
 17 16  1  1
 19 17  1  0
 19 21  1  0
 19 20  1  6
 21 22  2  0
 21 23  1  0
M  END
$$$$
