LTT.pdb
     RDKit          3D

 23 22  0  0  1  0  0  0  0  0999 V2000
   18.7182  -17.2614  -17.4485 C   0  0  0  0  0  0  0  0  0  0  0  0
   17.4993  -16.3314  -17.3582 C   0  0  2  0  0  0  0  0  0  0  0  0
   16.4134  -16.9946  -18.1385 C   0  0  0  0  0  0  0  0  0  0  0  0
   17.9480  -15.0054  -17.8933 C   0  0  0  0  0  0  0  0  0  0  0  0
   18.9312  -14.3621  -16.9627 C   0  0  2  0  0  0  0  0  0  0  0  0
   18.6499  -14.8028  -15.6145 N   0  0  0  0  0  0  0  0  0  0  0  0
   18.7768  -12.8706  -17.0731 C   0  0  0  0  0  0  0  0  0  0  0  0
   18.9026  -12.3069  -18.1906 O   0  0  0  0  0  0  0  0  0  0  0  0
   15.9084  -10.8232  -16.3126 C   0  0  0  0  0  0  0  0  0  0  0  0
   17.0380  -10.2405  -15.4676 C   0  0  1  0  0  0  0  0  0  0  0  0
   16.9807  -10.7447  -14.1831 O   0  0  0  0  0  0  0  0  0  0  0  0
   18.3451  -10.6250  -16.1323 C   0  0  2  0  0  0  0  0  0  0  0  0
   18.4897  -12.0545  -15.9479 N   0  0  0  0  0  0  0  0  0  0  0  0
   19.4934   -9.9797  -15.4553 C   0  0  0  0  0  0  0  0  0  0  0  0
   20.0692  -10.4852  -14.4514 O   0  0  0  0  0  0  0  0  0  0  0  0
   22.7920   -8.9611  -16.8073 C   0  0  0  0  0  0  0  0  0  0  0  0
   22.0972   -7.7376  -16.3027 C   0  0  1  0  0  0  0  0  0  0  0  0
   21.4684   -7.1096  -17.3765 O   0  0  0  0  0  0  0  0  0  0  0  0
   21.0551   -8.0387  -15.2504 C   0  0  2  0  0  0  0  0  0  0  0  0
   19.9757   -8.7540  -15.9363 N   0  0  0  0  0  0  0  0  0  0  0  0
   20.5281   -6.8413  -14.5999 C   0  0  0  0  0  0  0  0  0  0  0  0
   19.3435   -6.4824  -14.8038 O   0  0  0  0  0  0  0  0  0  0  0  0
   21.2963   -6.0668  -13.7481 O   0  0  0  0  0  0  0  0  0  0  0  0
  2  1  1  6
  3  2  1  0
  4  2  1  0
  5  6  1  1
  5  4  1  0
  7  5  1  0
  8  7  2  0
 10  9  1  6
 10 12  1  0
 11 10  1  0
 12 14  1  0
 12 13  1  1
 13  7  1  0
 14 20  1  0
 15 14  2  0
 17 18  1  0
 17 16  1  6
 19 17  1  0
 19 21  1  0
 19 20  1  6
 21 22  2  0
 21 23  1  0
M  END
$$$$
