LTT.pdb
     RDKit          3D

 23 22  0  0  1  0  0  0  0  0999 V2000
   21.5920  -28.6301   -9.9564 C   0  0  0  0  0  0  0  0  0  0  0  0
   20.5637  -29.7476  -10.1849 C   0  0  2  0  0  0  0  0  0  0  0  0
   19.3520  -29.3621   -9.4031 C   0  0  0  0  0  0  0  0  0  0  0  0
   21.2263  -31.0180   -9.7455 C   0  0  0  0  0  0  0  0  0  0  0  0
   22.4297  -31.3093  -10.5902 C   0  0  2  0  0  0  0  0  0  0  0  0
   21.9901  -31.6135  -11.9338 N   0  0  0  0  0  0  0  0  0  0  0  0
   23.1507  -32.4853   -9.9921 C   0  0  0  0  0  0  0  0  0  0  0  0
   22.8702  -33.6522  -10.3689 O   0  0  0  0  0  0  0  0  0  0  0  0
   26.7352  -32.9648  -10.0283 C   0  0  0  0  0  0  0  0  0  0  0  0
   26.3409  -33.1445   -8.5648 C   0  0  1  0  0  0  0  0  0  0  0  0
   26.5702  -31.9773   -7.8631 O   0  0  0  0  0  0  0  0  0  0  0  0
   24.8683  -33.5035   -8.5337 C   0  0  2  0  0  0  0  0  0  0  0  0
   24.1547  -32.3326   -9.0005 N   0  0  0  0  0  0  0  0  0  0  0  0
   24.4164  -33.7659   -7.1480 C   0  0  0  0  0  0  0  0  0  0  0  0
   23.7667  -32.9230   -6.4681 O   0  0  0  0  0  0  0  0  0  0  0  0
   23.7280  -37.3185   -3.7797 C   0  0  0  0  0  0  0  0  0  0  0  0
   24.2185  -36.8230   -5.1020 C   0  0  1  0  0  0  0  0  0  0  0  0
   23.3682  -37.3002   -6.0981 O   0  0  0  0  0  0  0  0  0  0  0  0
   24.2587  -35.3150   -5.1925 C   0  0  2  0  0  0  0  0  0  0  0  0
   24.7138  -34.9984   -6.5489 N   0  0  0  0  0  0  0  0  0  0  0  0
   25.1483  -34.7006   -4.2096 C   0  0  0  0  0  0  0  0  0  0  0  0
   26.3795  -34.6211   -4.4364 O   0  0  0  0  0  0  0  0  0  0  0  0
   24.6816  -34.1903   -3.0108 O   0  0  0  0  0  0  0  0  0  0  0  0
  2  1  1  1
  3  2  1  0
  4  2  1  0
  5  6  1  6
  5  4  1  0
  7  5  1  0
  8  7  2  0
 10  9  1  6
 10 12  1  0
 11 10  1  0
 12 14  1  0
 12 13  1  1
 13  7  1  0
 14 20  1  0
 15 14  2  0
 17 18  1  0
 17 16  1  1
 19 17  1  0
 19 21  1  0
 19 20  1  6
 21 22  2  0
 21 23  1  0
M  END
$$$$
