LTT.pdb
     RDKit          3D

 23 22  0  0  1  0  0  0  0  0999 V2000
   16.4175  -14.4347  -18.4474 C   0  0  0  0  0  0  0  0  0  0  0  0
   17.2132  -13.9712  -17.2182 C   0  0  2  0  0  0  0  0  0  0  0  0
   16.3405  -14.2344  -16.0362 C   0  0  0  0  0  0  0  0  0  0  0  0
   17.5429  -12.5289  -17.4566 C   0  0  0  0  0  0  0  0  0  0  0  0
   18.7032  -12.1021  -16.6092 C   0  0  2  0  0  0  0  0  0  0  0  0
   18.5014  -12.5951  -15.2649 N   0  0  0  0  0  0  0  0  0  0  0  0
   18.7636  -10.5998  -16.6165 C   0  0  0  0  0  0  0  0  0  0  0  0
   18.8823   -9.9810  -17.7052 O   0  0  0  0  0  0  0  0  0  0  0  0
   16.2788   -8.0420  -15.8155 C   0  0  0  0  0  0  0  0  0  0  0  0
   17.4246   -7.9228  -14.8142 C   0  0  1  0  0  0  0  0  0  0  0  0
   17.1696   -8.7031  -13.7036 O   0  0  0  0  0  0  0  0  0  0  0  0
   18.6868   -8.3883  -15.5132 C   0  0  2  0  0  0  0  0  0  0  0  0
   18.6911   -9.8340  -15.4236 N   0  0  0  0  0  0  0  0  0  0  0  0
   19.8937   -7.9038  -14.8048 C   0  0  0  0  0  0  0  0  0  0  0  0
   20.3240   -8.4345  -13.7426 O   0  0  0  0  0  0  0  0  0  0  0  0
   23.3282   -7.6573  -16.0574 C   0  0  0  0  0  0  0  0  0  0  0  0
   22.8985   -6.2813  -15.6620 C   0  0  1  0  0  0  0  0  0  0  0  0
   22.4517   -5.6116  -16.7998 O   0  0  0  0  0  0  0  0  0  0  0  0
   21.7854   -6.2782  -14.6398 C   0  0  2  0  0  0  0  0  0  0  0  0
   20.6022   -6.8096  -15.3215 N   0  0  0  0  0  0  0  0  0  0  0  0
   21.4991   -4.9505  -14.1012 C   0  0  0  0  0  0  0  0  0  0  0  0
   20.4351   -4.3615  -14.4084 O   0  0  0  0  0  0  0  0  0  0  0  0
   22.3707   -4.2983  -13.2466 O   0  0  0  0  0  0  0  0  0  0  0  0
  2  1  1  6
  3  2  1  0
  4  2  1  0
  5  6  1  1
  5  4  1  0
  7  5  1  0
  8  7  2  0
 10  9  1  6
 10 12  1  0
 11 10  1  0
 12 14  1  0
 12 13  1  1
 13  7  1  0
 14 20  1  0
 15 14  2  0
 17 18  1  0
 17 16  1  6
 19 17  1  0
 19 21  1  0
 19 20  1  6
 21 22  2  0
 21 23  1  0
M  END
$$$$
