LTT.pdb
     RDKit          3D

 23 22  0  0  1  0  0  0  0  0999 V2000
   15.7972  -16.2299  -18.0407 C   0  0  0  0  0  0  0  0  0  0  0  0
   16.3667  -16.7710  -16.7211 C   0  0  2  0  0  0  0  0  0  0  0  0
   15.1893  -17.0774  -15.8563 C   0  0  0  0  0  0  0  0  0  0  0  0
   17.2815  -15.7064  -16.1959 C   0  0  0  0  0  0  0  0  0  0  0  0
   18.4352  -15.4902  -17.1278 C   0  0  2  0  0  0  0  0  0  0  0  0
   19.3076  -16.6415  -17.0601 N   0  0  0  0  0  0  0  0  0  0  0  0
   19.1648  -14.2494  -16.6932 C   0  0  0  0  0  0  0  0  0  0  0  0
   19.7963  -14.2404  -15.6054 O   0  0  0  0  0  0  0  0  0  0  0  0
   22.0058  -12.8224  -17.8723 C   0  0  0  0  0  0  0  0  0  0  0  0
   21.0162  -11.6674  -17.9994 C   0  0  1  0  0  0  0  0  0  0  0  0
   20.5071  -11.6154  -19.2821 O   0  0  0  0  0  0  0  0  0  0  0  0
   19.9061  -11.9100  -16.9958 C   0  0  2  0  0  0  0  0  0  0  0  0
   19.1717  -13.0637  -17.4733 N   0  0  0  0  0  0  0  0  0  0  0  0
   18.9595  -10.7715  -16.9677 C   0  0  0  0  0  0  0  0  0  0  0  0
   18.1720  -10.5116  -17.9202 O   0  0  0  0  0  0  0  0  0  0  0  0
   16.3118  -10.1404  -14.4544 C   0  0  0  0  0  0  0  0  0  0  0  0
   17.2430   -8.9712  -14.4571 C   0  0  1  0  0  0  0  0  0  0  0  0
   18.1770   -9.1450  -13.4371 O   0  0  0  0  0  0  0  0  0  0  0  0
   17.9878   -8.8091  -15.7621 C   0  0  2  0  0  0  0  0  0  0  0  0
   18.9220   -9.9352  -15.8428 N   0  0  0  0  0  0  0  0  0  0  0  0
   18.7163   -7.5462  -15.8588 C   0  0  0  0  0  0  0  0  0  0  0  0
   19.9704   -7.5420  -15.8825 O   0  0  0  0  0  0  0  0  0  0  0  0
   18.0683   -6.3252  -15.9270 O   0  0  0  0  0  0  0  0  0  0  0  0
  2  1  1  6
  3  2  1  0
  4  2  1  0
  5  6  1  1
  5  4  1  0
  7  5  1  0
  8  7  2  0
 10  9  1  6
 10 12  1  0
 11 10  1  0
 12 14  1  0
 12 13  1  6
 13  7  1  0
 14 20  1  0
 15 14  2  0
 17 18  1  0
 17 16  1  6
 19 17  1  0
 19 21  1  0
 19 20  1  1
 21 22  2  0
 21 23  1  0
M  END
$$$$
