LTT.pdb
     RDKit          3D

 23 22  0  0  1  0  0  0  0  0999 V2000
   28.8728  -18.1704  -15.7273 C   0  0  0  0  0  0  0  0  0  0  0  0
   28.0372  -18.9147  -16.7792 C   0  0  2  0  0  0  0  0  0  0  0  0
   27.5977  -17.8835  -17.7649 C   0  0  0  0  0  0  0  0  0  0  0  0
   26.9295  -19.5894  -16.0283 C   0  0  0  0  0  0  0  0  0  0  0  0
   27.4774  -20.6081  -15.0751 C   0  0  2  0  0  0  0  0  0  0  0  0
   28.1458  -21.6412  -15.8347 N   0  0  0  0  0  0  0  0  0  0  0  0
   26.3302  -21.1864  -14.2940 C   0  0  0  0  0  0  0  0  0  0  0  0
   25.6198  -22.0932  -14.7994 O   0  0  0  0  0  0  0  0  0  0  0  0
   25.4904  -19.7208  -10.5617 C   0  0  0  0  0  0  0  0  0  0  0  0
   25.1757  -21.1938  -10.8086 C   0  0  1  0  0  0  0  0  0  0  0  0
   24.0801  -21.5784  -10.0611 O   0  0  0  0  0  0  0  0  0  0  0  0
   24.8925  -21.3540  -12.2893 C   0  0  2  0  0  0  0  0  0  0  0  0
   26.0074  -20.7442  -12.9845 N   0  0  0  0  0  0  0  0  0  0  0  0
   23.6744  -20.6073  -12.6793 C   0  0  0  0  0  0  0  0  0  0  0  0
   23.6391  -19.3474  -12.7583 O   0  0  0  0  0  0  0  0  0  0  0  0
   20.6436  -22.7501  -14.6560 C   0  0  0  0  0  0  0  0  0  0  0  0
   20.9751  -21.3003  -14.8056 C   0  0  1  0  0  0  0  0  0  0  0  0
   19.8759  -20.6487  -15.3625 O   0  0  0  0  0  0  0  0  0  0  0  0
   21.3111  -20.6301  -13.4933 C   0  0  2  0  0  0  0  0  0  0  0  0
   22.5003  -21.3135  -12.9775 N   0  0  0  0  0  0  0  0  0  0  0  0
   20.2287  -20.7009  -12.5144 C   0  0  0  0  0  0  0  0  0  0  0  0
   20.3999  -21.3033  -11.4275 O   0  0  0  0  0  0  0  0  0  0  0  0
   18.9932  -20.1189  -12.7386 O   0  0  0  0  0  0  0  0  0  0  0  0
  2  1  1  1
  3  2  1  0
  4  2  1  0
  5  6  1  6
  5  4  1  0
  7  5  1  0
  8  7  2  0
 10  9  1  6
 10 12  1  0
 11 10  1  0
 12 14  1  0
 12 13  1  6
 13  7  1  0
 14 20  1  0
 15 14  2  0
 17 18  1  0
 17 16  1  1
 19 17  1  0
 19 21  1  0
 19 20  1  1
 21 22  2  0
 21 23  1  0
M  END
$$$$
