KCS.pdb
     RDKit          3D

 22 21  0  0  1  0  0  0  0  0999 V2000
   17.7522  -13.0514  -16.1846 N   0  0  0  0  0  0  0  0  0  0  0  0
   17.4856  -11.6232  -16.0290 C   0  0  1  0  0  0  0  0  0  0  0  0
   16.7485  -11.4331  -14.7599 C   0  0  0  0  0  0  0  0  0  0  0  0
   15.3598  -11.9225  -14.7554 C   0  0  0  0  0  0  0  0  0  0  0  0
   14.3996  -11.6115  -13.7005 C   0  0  0  0  0  0  0  0  0  0  0  0
   13.0240  -12.1566  -13.7096 C   0  0  0  0  0  0  0  0  0  0  0  0
   12.2642  -11.6056  -12.5360 N   0  0  0  0  0  0  0  0  0  0  0  0
   18.8412  -10.9521  -15.9607 C   0  0  0  0  0  0  0  0  0  0  0  0
   19.8320  -11.5528  -15.4481 O   0  0  0  0  0  0  0  0  0  0  0  0
   19.0056   -9.6596  -16.4659 N   0  0  0  0  0  0  0  0  0  0  0  0
   20.3122   -8.9942  -16.5407 C   0  0  1  0  0  0  0  0  0  0  0  0
   20.6262   -8.6745  -17.9907 C   0  0  0  0  0  0  0  0  0  0  0  0
   21.3546  -10.1122  -18.7937 S   0  0  0  0  0  0  0  0  0  0  0  0
   20.1986   -7.7871  -15.6862 C   0  0  0  0  0  0  0  0  0  0  0  0
   19.1235   -7.0812  -15.6842 O   0  0  0  0  0  0  0  0  0  0  0  0
   22.0848   -4.8219  -12.2681 O   0  0  0  0  0  0  0  0  0  0  0  0
   22.2196   -5.9254  -13.1068 C   0  0  0  0  0  0  0  0  0  0  0  0
   21.0308   -6.0861  -14.0347 C   0  0  2  0  0  0  0  0  0  0  0  0
   21.2121   -7.3027  -14.8176 N   0  0  0  0  0  0  0  0  0  0  0  0
   20.8754   -4.9003  -14.9316 C   0  0  0  0  0  0  0  0  0  0  0  0
   19.9794   -3.8987  -14.5905 O   0  0  0  0  0  0  0  0  0  0  0  0
   21.5293   -4.7823  -15.9824 O   0  0  0  0  0  0  0  0  0  0  0  0
  2  1  1  1
  2  3  1  0
  2  8  1  0
  4  3  1  0
  5  4  1  0
  6  5  1  0
  6  7  1  0
  8  9  2  0
 10  8  1  0
 10 11  1  0
 11 12  1  6
 12 13  1  0
 14 11  1  0
 14 15  2  0
 17 16  1  0
 18 17  1  1
 18 19  1  0
 19 14  1  0
 20 18  1  0
 20 21  1  0
 22 20  2  0
M  END
$$$$
