KCS.pdb
     RDKit          3D

 22 21  0  0  1  0  0  0  0  0999 V2000
   17.0143  -12.4200    4.8207 N   0  0  0  0  0  0  0  0  0  0  0  0
   16.1588  -13.4693    5.3703 C   0  0  1  0  0  0  0  0  0  0  0  0
   15.2092  -13.8829    4.3133 C   0  0  0  0  0  0  0  0  0  0  0  0
   13.8069  -14.0195    4.7408 C   0  0  0  0  0  0  0  0  0  0  0  0
   12.7501  -14.5442    3.8809 C   0  0  0  0  0  0  0  0  0  0  0  0
   11.3533  -14.6770    4.3508 C   0  0  0  0  0  0  0  0  0  0  0  0
   10.5146  -15.2680    3.2529 N   0  0  0  0  0  0  0  0  0  0  0  0
   17.0832  -14.6134    5.7302 C   0  0  0  0  0  0  0  0  0  0  0  0
   18.1880  -14.7624    5.1282 O   0  0  0  0  0  0  0  0  0  0  0  0
   16.7187  -15.5149    6.7338 N   0  0  0  0  0  0  0  0  0  0  0  0
   17.5512  -16.6633    7.1131 C   0  0  1  0  0  0  0  0  0  0  0  0
   18.2655  -16.3523    8.4155 C   0  0  0  0  0  0  0  0  0  0  0  0
   19.3020  -17.7440    8.8961 S   0  0  0  0  0  0  0  0  0  0  0  0
   16.6236  -17.8165    7.2147 C   0  0  0  0  0  0  0  0  0  0  0  0
   15.5547  -17.7405    7.9258 O   0  0  0  0  0  0  0  0  0  0  0  0
   15.6496  -22.5260    6.2480 O   0  0  0  0  0  0  0  0  0  0  0  0
   16.4929  -21.4241    6.1296 C   0  0  0  0  0  0  0  0  0  0  0  0
   15.9724  -20.2219    6.8937 C   0  0  2  0  0  0  0  0  0  0  0  0
   16.8029  -19.0683    6.5689 N   0  0  0  0  0  0  0  0  0  0  0  0
   15.9706  -20.4719    8.3675 C   0  0  0  0  0  0  0  0  0  0  0  0
   14.8009  -20.8815    8.9894 O   0  0  0  0  0  0  0  0  0  0  0  0
   16.9927  -20.3231    9.0595 O   0  0  0  0  0  0  0  0  0  0  0  0
  2  1  1  6
  2  3  1  0
  2  8  1  0
  4  3  1  0
  5  4  1  0
  6  5  1  0
  6  7  1  0
  8  9  2  0
 10  8  1  0
 10 11  1  0
 11 12  1  1
 12 13  1  0
 14 11  1  0
 14 15  2  0
 17 16  1  0
 18 17  1  6
 18 19  1  0
 19 14  1  0
 20 18  1  0
 20 21  1  0
 22 20  2  0
M  END
$$$$
