KCS.pdb
     RDKit          3D

 22 21  0  0  1  0  0  0  0  0999 V2000
   23.2199  -20.5126  -13.9997 N   0  0  0  0  0  0  0  0  0  0  0  0
   22.7784  -19.7917  -12.8079 C   0  0  1  0  0  0  0  0  0  0  0  0
   21.5077  -19.1070  -13.1345 C   0  0  0  0  0  0  0  0  0  0  0  0
   20.5204  -19.9199  -13.8640 C   0  0  0  0  0  0  0  0  0  0  0  0
   19.2765  -19.3813  -14.4065 C   0  0  0  0  0  0  0  0  0  0  0  0
   18.2907  -20.2382  -15.1017 C   0  0  0  0  0  0  0  0  0  0  0  0
   17.1181  -19.4005  -15.5274 N   0  0  0  0  0  0  0  0  0  0  0  0
   22.5547  -20.8454  -11.7436 C   0  0  0  0  0  0  0  0  0  0  0  0
   22.1648  -22.0084  -12.0608 O   0  0  0  0  0  0  0  0  0  0  0  0
   22.7790  -20.5370  -10.3992 N   0  0  0  0  0  0  0  0  0  0  0  0
   22.7112  -21.5409   -9.3300 C   0  0  1  0  0  0  0  0  0  0  0  0
   23.6324  -21.1257   -8.1977 C   0  0  0  0  0  0  0  0  0  0  0  0
   25.3506  -21.3234   -8.6987 S   0  0  0  0  0  0  0  0  0  0  0  0
   21.2844  -21.6071   -8.9300 C   0  0  0  0  0  0  0  0  0  0  0  0
   20.5936  -20.5332   -8.7764 O   0  0  0  0  0  0  0  0  0  0  0  0
   18.9913  -24.9663   -9.2950 O   0  0  0  0  0  0  0  0  0  0  0  0
   18.3797  -23.7200   -9.1862 C   0  0  0  0  0  0  0  0  0  0  0  0
   19.1571  -22.7790   -8.2861 C   0  0  2  0  0  0  0  0  0  0  0  0
   20.5588  -22.8032   -8.6867 N   0  0  0  0  0  0  0  0  0  0  0  0
   19.0134  -23.1581   -6.8473 C   0  0  0  0  0  0  0  0  0  0  0  0
   17.7537  -23.1752   -6.2680 O   0  0  0  0  0  0  0  0  0  0  0  0
   19.9952  -23.4611   -6.1474 O   0  0  0  0  0  0  0  0  0  0  0  0
  2  1  1  6
  2  3  1  0
  2  8  1  0
  4  3  1  0
  5  4  1  0
  6  5  1  0
  6  7  1  0
  8  9  2  0
 10  8  1  0
 10 11  1  0
 11 12  1  1
 12 13  1  0
 14 11  1  0
 14 15  2  0
 17 16  1  0
 18 17  1  6
 18 19  1  0
 19 14  1  0
 20 18  1  0
 20 21  1  0
 22 20  2  0
M  END
$$$$
