KCS.pdb
     RDKit          3D

 22 21  0  0  1  0  0  0  0  0999 V2000
   16.5045  -25.5490   -3.1183 N   0  0  0  0  0  0  0  0  0  0  0  0
   17.6209  -25.9405   -3.9758 C   0  0  1  0  0  0  0  0  0  0  0  0
   17.8122  -27.4013   -3.8358 C   0  0  0  0  0  0  0  0  0  0  0  0
   18.5478  -27.8307   -2.6348 C   0  0  0  0  0  0  0  0  0  0  0  0
   18.7269  -29.2297   -2.2572 C   0  0  0  0  0  0  0  0  0  0  0  0
   19.4041  -29.6201   -1.0009 C   0  0  0  0  0  0  0  0  0  0  0  0
   19.3397  -31.1134   -0.8459 N   0  0  0  0  0  0  0  0  0  0  0  0
   17.2015  -25.5935   -5.3888 C   0  0  0  0  0  0  0  0  0  0  0  0
   15.9747  -25.5193   -5.6965 O   0  0  0  0  0  0  0  0  0  0  0  0
   18.1721  -25.3523   -6.3648 N   0  0  0  0  0  0  0  0  0  0  0  0
   17.8377  -24.9914   -7.7481 C   0  0  1  0  0  0  0  0  0  0  0  0
   18.1713  -23.5286   -7.9759 C   0  0  0  0  0  0  0  0  0  0  0  0
   18.0071  -23.1251   -9.7231 S   0  0  0  0  0  0  0  0  0  0  0  0
   18.6240  -25.9119   -8.6053 C   0  0  0  0  0  0  0  0  0  0  0  0
   19.8714  -26.1224   -8.3737 O   0  0  0  0  0  0  0  0  0  0  0  0
   18.8910  -29.3471  -12.0451 O   0  0  0  0  0  0  0  0  0  0  0  0
   18.1228  -28.4599  -11.2954 C   0  0  0  0  0  0  0  0  0  0  0  0
   18.9762  -27.4364  -10.5713 C   0  0  2  0  0  0  0  0  0  0  0  0
   18.1120  -26.6283   -9.7193 N   0  0  0  0  0  0  0  0  0  0  0  0
   19.7247  -26.5718  -11.5341 C   0  0  0  0  0  0  0  0  0  0  0  0
   20.8884  -27.0487  -12.1180 O   0  0  0  0  0  0  0  0  0  0  0  0
   19.3341  -25.4294  -11.8306 O   0  0  0  0  0  0  0  0  0  0  0  0
  2  1  1  1
  2  3  1  0
  2  8  1  0
  4  3  1  0
  5  4  1  0
  6  5  1  0
  6  7  1  0
  8  9  2  0
 10  8  1  0
 10 11  1  0
 11 12  1  6
 12 13  1  0
 14 11  1  0
 14 15  2  0
 17 16  1  0
 18 17  1  6
 18 19  1  0
 19 14  1  0
 20 18  1  0
 20 21  1  0
 22 20  2  0
M  END
$$$$
