KCS.pdb
     RDKit          3D

 22 21  0  0  1  0  0  0  0  0999 V2000
   26.3903  -21.3652  -14.7984 N   0  0  0  0  0  0  0  0  0  0  0  0
   25.1162  -22.0409  -15.0332 C   0  0  1  0  0  0  0  0  0  0  0  0
   25.2024  -23.3942  -14.4404 C   0  0  0  0  0  0  0  0  0  0  0  0
   25.8017  -24.4258  -15.3032 C   0  0  0  0  0  0  0  0  0  0  0  0
   26.8109  -24.1398  -16.3188 C   0  0  0  0  0  0  0  0  0  0  0  0
   27.3132  -25.1846  -17.2382 C   0  0  0  0  0  0  0  0  0  0  0  0
   28.2923  -24.5711  -18.1990 N   0  0  0  0  0  0  0  0  0  0  0  0
   24.0689  -21.2140  -14.3174 C   0  0  0  0  0  0  0  0  0  0  0  0
   24.3643  -20.5701  -13.2670 O   0  0  0  0  0  0  0  0  0  0  0  0
   22.7647  -21.1578  -14.8159 N   0  0  0  0  0  0  0  0  0  0  0  0
   21.7006  -20.3748  -14.1752 C   0  0  1  0  0  0  0  0  0  0  0  0
   21.4283  -19.1328  -15.0037 C   0  0  0  0  0  0  0  0  0  0  0  0
   20.1333  -18.1494  -14.2304 S   0  0  0  0  0  0  0  0  0  0  0  0
   20.5325  -21.2843  -14.0818 C   0  0  0  0  0  0  0  0  0  0  0  0
   20.1149  -21.9272  -15.1144 O   0  0  0  0  0  0  0  0  0  0  0  0
   17.0914  -23.5086  -11.3940 O   0  0  0  0  0  0  0  0  0  0  0  0
   18.1878  -22.6537  -11.4738 C   0  0  0  0  0  0  0  0  0  0  0  0
   18.6134  -22.4031  -12.9078 C   0  0  2  0  0  0  0  0  0  0  0  0
   19.7848  -21.5350  -12.9010 N   0  0  0  0  0  0  0  0  0  0  0  0
   17.5075  -21.7901  -13.7052 C   0  0  0  0  0  0  0  0  0  0  0  0
   17.3806  -20.4100  -13.7485 O   0  0  0  0  0  0  0  0  0  0  0  0
   16.6912  -22.4836  -14.3362 O   0  0  0  0  0  0  0  0  0  0  0  0
  2  1  1  1
  2  3  1  0
  2  8  1  0
  4  3  1  0
  5  4  1  0
  6  5  1  0
  6  7  1  0
  8  9  2  0
 10  8  1  0
 10 11  1  0
 11 12  1  6
 12 13  1  0
 14 11  1  0
 14 15  2  0
 17 16  1  0
 18 17  1  1
 18 19  1  0
 19 14  1  0
 20 18  1  0
 20 21  1  0
 22 20  2  0
M  END
$$$$
