KCS.pdb
     RDKit          3D

 22 21  0  0  1  0  0  0  0  0999 V2000
   25.9126  -21.5528  -10.9720 N   0  0  0  0  0  0  0  0  0  0  0  0
   25.1011  -21.3091  -12.1624 C   0  0  1  0  0  0  0  0  0  0  0  0
   23.8852  -20.5774  -11.7426 C   0  0  0  0  0  0  0  0  0  0  0  0
   22.6084  -21.1787  -12.1625 C   0  0  0  0  0  0  0  0  0  0  0  0
   21.3059  -20.5821  -11.8811 C   0  0  0  0  0  0  0  0  0  0  0  0
   20.0504  -21.1600  -12.4094 C   0  0  0  0  0  0  0  0  0  0  0  0
   18.8837  -20.3625  -11.8986 N   0  0  0  0  0  0  0  0  0  0  0  0
   25.9495  -20.4485  -13.0749 C   0  0  0  0  0  0  0  0  0  0  0  0
   26.6282  -19.4871  -12.6057 O   0  0  0  0  0  0  0  0  0  0  0  0
   25.9871  -20.7133  -14.4465 N   0  0  0  0  0  0  0  0  0  0  0  0
   26.8556  -19.9796  -15.3755 C   0  0  1  0  0  0  0  0  0  0  0  0
   27.5140  -20.9639  -16.3247 C   0  0  0  0  0  0  0  0  0  0  0  0
   29.1203  -21.4597  -15.6797 S   0  0  0  0  0  0  0  0  0  0  0  0
   25.9759  -19.0025  -16.0623 C   0  0  0  0  0  0  0  0  0  0  0  0
   24.7129  -19.2184  -16.1726 O   0  0  0  0  0  0  0  0  0  0  0  0
   24.9317  -14.4840  -17.2464 O   0  0  0  0  0  0  0  0  0  0  0  0
   25.7426  -15.4584  -16.6698 C   0  0  0  0  0  0  0  0  0  0  0  0
   25.4651  -16.8389  -17.2331 C   0  0  2  0  0  0  0  0  0  0  0  0
   26.4085  -17.7810  -16.6429 N   0  0  0  0  0  0  0  0  0  0  0  0
   25.5716  -16.8506  -18.7241 C   0  0  0  0  0  0  0  0  0  0  0  0
   24.4394  -16.6228  -19.4915 O   0  0  0  0  0  0  0  0  0  0  0  0
   26.6517  -17.0598  -19.3032 O   0  0  0  0  0  0  0  0  0  0  0  0
  2  1  1  1
  2  3  1  0
  2  8  1  0
  4  3  1  0
  5  4  1  0
  6  5  1  0
  6  7  1  0
  8  9  2  0
 10  8  1  0
 10 11  1  0
 11 12  1  6
 12 13  1  0
 14 11  1  0
 14 15  2  0
 17 16  1  0
 18 17  1  1
 18 19  1  0
 19 14  1  0
 20 18  1  0
 20 21  1  0
 22 20  2  0
M  END
$$$$
