KCS.pdb
     RDKit          3D

 22 21  0  0  1  0  0  0  0  0999 V2000
   19.8573  -12.4533  -16.0462 N   0  0  0  0  0  0  0  0  0  0  0  0
   19.8790  -11.2279  -16.8417 C   0  0  1  0  0  0  0  0  0  0  0  0
   18.6855  -11.2317  -17.7167 C   0  0  0  0  0  0  0  0  0  0  0  0
   18.6614  -12.2811  -18.7492 C   0  0  0  0  0  0  0  0  0  0  0  0
   17.5658  -12.4516  -19.6990 C   0  0  0  0  0  0  0  0  0  0  0  0
   17.5543  -13.5495  -20.6909 C   0  0  0  0  0  0  0  0  0  0  0  0
   18.0452  -14.8116  -20.0397 N   0  0  0  0  0  0  0  0  0  0  0  0
   19.8055  -10.0866  -15.8493 C   0  0  0  0  0  0  0  0  0  0  0  0
   18.9603  -10.1071  -14.9058 O   0  0  0  0  0  0  0  0  0  0  0  0
   20.6752   -8.9995  -15.9713 N   0  0  0  0  0  0  0  0  0  0  0  0
   20.6690   -7.8663  -15.0378 C   0  0  1  0  0  0  0  0  0  0  0  0
   22.0751   -7.6476  -14.5104 C   0  0  0  0  0  0  0  0  0  0  0  0
   22.1311   -6.1513  -13.5103 S   0  0  0  0  0  0  0  0  0  0  0  0
   20.1467   -6.7122  -15.8096 C   0  0  0  0  0  0  0  0  0  0  0  0
   20.6509   -6.4018  -16.9513 O   0  0  0  0  0  0  0  0  0  0  0  0
   16.7825   -4.4906  -14.6803 O   0  0  0  0  0  0  0  0  0  0  0  0
   17.1214   -4.6059  -16.0260 C   0  0  0  0  0  0  0  0  0  0  0  0
   18.6163   -4.7636  -16.2270 C   0  0  2  0  0  0  0  0  0  0  0  0
   19.0843   -5.8660  -15.3953 N   0  0  0  0  0  0  0  0  0  0  0  0
   19.3472   -3.5034  -15.8920 C   0  0  0  0  0  0  0  0  0  0  0  0
   19.1054   -2.3562  -16.6324 O   0  0  0  0  0  0  0  0  0  0  0  0
   20.1719   -3.4503  -14.9632 O   0  0  0  0  0  0  0  0  0  0  0  0
  2  1  1  1
  2  3  1  0
  2  8  1  0
  4  3  1  0
  5  4  1  0
  6  5  1  0
  6  7  1  0
  8  9  2  0
 10  8  1  0
 10 11  1  0
 11 12  1  6
 12 13  1  0
 14 11  1  0
 14 15  2  0
 17 16  1  0
 18 17  1  1
 18 19  1  0
 19 14  1  0
 20 18  1  0
 20 21  1  0
 22 20  2  0
M  END
$$$$
