KCS.pdb
     RDKit          3D

 22 21  0  0  1  0  0  0  0  0999 V2000
   21.7913  -20.7662  -10.4658 N   0  0  0  0  0  0  0  0  0  0  0  0
   22.0638  -20.8337  -11.8998 C   0  0  1  0  0  0  0  0  0  0  0  0
   21.0983  -19.9490  -12.5891 C   0  0  0  0  0  0  0  0  0  0  0  0
   19.9111  -20.6195  -13.1449 C   0  0  0  0  0  0  0  0  0  0  0  0
   19.9195  -21.9933  -13.6392 C   0  0  0  0  0  0  0  0  0  0  0  0
   18.7281  -22.6055  -14.2679 C   0  0  0  0  0  0  0  0  0  0  0  0
   19.0375  -24.0293  -14.6354 N   0  0  0  0  0  0  0  0  0  0  0  0
   23.4765  -20.3189  -12.0792 C   0  0  0  0  0  0  0  0  0  0  0  0
   23.8477  -19.2469  -11.5150 O   0  0  0  0  0  0  0  0  0  0  0  0
   24.3817  -21.0287  -12.8727 N   0  0  0  0  0  0  0  0  0  0  0  0
   25.7717  -20.6002  -13.0726 C   0  0  1  0  0  0  0  0  0  0  0  0
   26.6994  -21.7640  -12.7758 C   0  0  0  0  0  0  0  0  0  0  0  0
   26.3067  -22.4684  -11.1658 S   0  0  0  0  0  0  0  0  0  0  0  0
   25.8503  -20.1321  -14.4780 C   0  0  0  0  0  0  0  0  0  0  0  0
   25.1813  -20.7201  -15.4057 O   0  0  0  0  0  0  0  0  0  0  0  0
   27.6350  -16.9956  -17.8019 O   0  0  0  0  0  0  0  0  0  0  0  0
   27.4596  -17.3690  -16.4719 C   0  0  0  0  0  0  0  0  0  0  0  0
   26.6776  -18.6617  -16.3399 C   0  0  2  0  0  0  0  0  0  0  0  0
   26.6317  -19.0367  -14.9317 N   0  0  0  0  0  0  0  0  0  0  0  0
   27.2889  -19.7543  -17.1568 C   0  0  0  0  0  0  0  0  0  0  0  0
   26.9024  -19.9168  -18.4785 O   0  0  0  0  0  0  0  0  0  0  0  0
   28.1398  -20.5284  -16.6853 O   0  0  0  0  0  0  0  0  0  0  0  0
  2  1  1  1
  2  3  1  0
  2  8  1  0
  4  3  1  0
  5  4  1  0
  6  5  1  0
  6  7  1  0
  8  9  2  0
 10  8  1  0
 10 11  1  0
 11 12  1  6
 12 13  1  0
 14 11  1  0
 14 15  2  0
 17 16  1  0
 18 17  1  1
 18 19  1  0
 19 14  1  0
 20 18  1  0
 20 21  1  0
 22 20  2  0
M  END
$$$$
