KCS.pdb
     RDKit          3D

 22 21  0  0  1  0  0  0  0  0999 V2000
   22.7317  -11.5048  -18.6408 N   0  0  0  0  0  0  0  0  0  0  0  0
   21.8542  -10.5198  -19.2691 C   0  0  1  0  0  0  0  0  0  0  0  0
   21.0467  -11.2175  -20.2945 C   0  0  0  0  0  0  0  0  0  0  0  0
   20.5424  -12.5454  -19.9068 C   0  0  0  0  0  0  0  0  0  0  0  0
   21.4013  -13.7124  -19.7276 C   0  0  0  0  0  0  0  0  0  0  0  0
   20.8473  -15.0777  -19.5917 C   0  0  0  0  0  0  0  0  0  0  0  0
   21.9680  -16.0443  -19.3316 N   0  0  0  0  0  0  0  0  0  0  0  0
   20.9650   -9.9901  -18.1638 C   0  0  0  0  0  0  0  0  0  0  0  0
   19.7055  -10.1031  -18.2408 O   0  0  0  0  0  0  0  0  0  0  0  0
   21.5340   -9.3707  -17.0478 N   0  0  0  0  0  0  0  0  0  0  0  0
   20.7338   -8.8445  -15.9350 C   0  0  1  0  0  0  0  0  0  0  0  0
   20.6388   -9.8988  -14.8475 C   0  0  0  0  0  0  0  0  0  0  0  0
   19.8558   -9.2028  -13.3829 S   0  0  0  0  0  0  0  0  0  0  0  0
   21.4234   -7.6077  -15.4931 C   0  0  0  0  0  0  0  0  0  0  0  0
   22.6984   -7.5890  -15.3263 O   0  0  0  0  0  0  0  0  0  0  0  0
   21.2862   -2.7918  -14.6099 O   0  0  0  0  0  0  0  0  0  0  0  0
   20.6359   -3.9707  -14.9656 C   0  0  0  0  0  0  0  0  0  0  0  0
   21.5462   -5.1792  -14.8601 C   0  0  2  0  0  0  0  0  0  0  0  0
   20.7846   -6.3689  -15.2213 N   0  0  0  0  0  0  0  0  0  0  0  0
   22.1147   -5.3148  -13.4842 C   0  0  0  0  0  0  0  0  0  0  0  0
   23.3185   -4.6982  -13.1789 O   0  0  0  0  0  0  0  0  0  0  0  0
   21.5381   -5.9681  -12.5975 O   0  0  0  0  0  0  0  0  0  0  0  0
  2  1  1  1
  2  3  1  0
  2  8  1  0
  4  3  1  0
  5  4  1  0
  6  5  1  0
  6  7  1  0
  8  9  2  0
 10  8  1  0
 10 11  1  0
 11 12  1  1
 12 13  1  0
 14 11  1  0
 14 15  2  0
 17 16  1  0
 18 17  1  1
 18 19  1  0
 19 14  1  0
 20 18  1  0
 20 21  1  0
 22 20  2  0
M  END
$$$$
