PCG.pdb
     RDKit          3D

 18 18  0  0  1  0  0  0  0  0999 V2000
   23.4866  -11.2613  -18.7972 N   0  0  0  0  0  0  0  0  0  0  0  0
   23.7634  -12.2046  -19.8676 C   0  0  0  0  0  0  0  0  0  0  0  0
   22.4023  -12.6929  -20.2413 C   0  0  0  0  0  0  0  0  0  0  0  0
   21.4908  -11.5331  -19.8984 C   0  0  0  0  0  0  0  0  0  0  0  0
   22.4475  -10.4489  -19.3836 C   0  0  1  0  0  0  0  0  0  0  0  0
   21.7244   -9.6409  -18.3793 C   0  0  0  0  0  0  0  0  0  0  0  0
   20.7027   -8.9466  -18.6457 O   0  0  0  0  0  0  0  0  0  0  0  0
   22.2011   -9.6439  -17.0459 N   0  0  0  0  0  0  0  0  0  0  0  0
   21.6047   -8.9061  -15.9698 C   0  0  1  0  0  0  0  0  0  0  0  0
   21.3414   -9.9047  -14.8380 C   0  0  0  0  0  0  0  0  0  0  0  0
   19.7387  -10.6959  -15.1149 S   0  0  0  0  0  0  0  0  0  0  0  0
   22.4497   -7.7914  -15.5081 C   0  0  0  0  0  0  0  0  0  0  0  0
   23.6974   -7.8421  -15.6228 O   0  0  0  0  0  0  0  0  0  0  0  0
   21.8532   -6.6423  -14.9252 N   0  0  0  0  0  0  0  0  0  0  0  0
   22.6317   -5.4817  -14.5248 C   0  0  0  0  0  0  0  0  0  0  0  0
   21.7313   -4.4320  -13.9751 C   0  0  0  0  0  0  0  0  0  0  0  0
   22.1158   -3.7164  -12.8670 O   0  0  0  0  0  0  0  0  0  0  0  0
   20.6205   -4.1879  -14.5097 O   0  0  0  0  0  0  0  0  0  0  0  0
  1  2  1  0
  2  3  1  0
  4  3  1  0
  5  1  1  0
  5  4  1  0
  5  6  1  1
  7  6  2  0
  8  6  1  0
  9  8  1  0
  9 12  1  0
  9 10  1  1
 11 10  1  0
 12 14  1  0
 13 12  2  0
 14 15  1  0
 15 16  1  0
 16 18  2  0
 16 17  1  0
M  END
$$$$
