PCG.pdb
     RDKit          3D

 18 18  0  0  1  0  0  0  0  0999 V2000
   24.0896  -11.2189  -17.6530 N   0  0  0  0  0  0  0  0  0  0  0  0
   24.9539  -12.2095  -18.2727 C   0  0  0  0  0  0  0  0  0  0  0  0
   25.0237  -13.2843  -17.2381 C   0  0  0  0  0  0  0  0  0  0  0  0
   23.7076  -13.1658  -16.4983 C   0  0  0  0  0  0  0  0  0  0  0  0
   22.9748  -12.0294  -17.2245 C   0  0  1  0  0  0  0  0  0  0  0  0
   22.1156  -11.3378  -16.2408 C   0  0  0  0  0  0  0  0  0  0  0  0
   21.1211  -11.8790  -15.6795 O   0  0  0  0  0  0  0  0  0  0  0  0
   22.4221   -9.9958  -15.9082 N   0  0  0  0  0  0  0  0  0  0  0  0
   21.6667   -9.1956  -14.9877 C   0  0  1  0  0  0  0  0  0  0  0  0
   21.9989   -9.7031  -13.5807 C   0  0  0  0  0  0  0  0  0  0  0  0
   21.1054   -8.7001  -12.3694 S   0  0  0  0  0  0  0  0  0  0  0  0
   21.9561   -7.7570  -15.1151 C   0  0  0  0  0  0  0  0  0  0  0  0
   23.1383   -7.3432  -15.1736 O   0  0  0  0  0  0  0  0  0  0  0  0
   20.8902   -6.8207  -15.1730 N   0  0  0  0  0  0  0  0  0  0  0  0
   21.1160   -5.3982  -15.3704 C   0  0  0  0  0  0  0  0  0  0  0  0
   21.5888   -4.7790  -14.1024 C   0  0  0  0  0  0  0  0  0  0  0  0
   22.5269   -3.7759  -14.1424 O   0  0  0  0  0  0  0  0  0  0  0  0
   21.1426   -5.1596  -12.9910 O   0  0  0  0  0  0  0  0  0  0  0  0
  1  2  1  0
  2  3  1  0
  4  3  1  0
  5  1  1  0
  5  4  1  0
  5  6  1  1
  7  6  2  0
  8  6  1  0
  9  8  1  0
  9 12  1  0
  9 10  1  1
 11 10  1  0
 12 14  1  0
 13 12  2  0
 14 15  1  0
 15 16  1  0
 16 18  2  0
 16 17  1  0
M  END
$$$$
