PCG.pdb
     RDKit          3D

 18 18  0  0  1  0  0  0  0  0999 V2000
   29.8761  -20.6428  -10.8798 N   0  0  0  0  0  0  0  0  0  0  0  0
   31.3122  -20.8181  -11.0181 C   0  0  0  0  0  0  0  0  0  0  0  0
   31.5934  -21.9797  -10.1225 C   0  0  0  0  0  0  0  0  0  0  0  0
   30.3026  -22.7716  -10.1342 C   0  0  0  0  0  0  0  0  0  0  0  0
   29.3948  -21.9870  -11.0914 C   0  0  1  0  0  0  0  0  0  0  0  0
   27.9972  -22.1661  -10.6453 C   0  0  0  0  0  0  0  0  0  0  0  0
   27.3993  -23.2794  -10.6513 O   0  0  0  0  0  0  0  0  0  0  0  0
   27.2885  -21.0295  -10.1858 N   0  0  0  0  0  0  0  0  0  0  0  0
   25.8689  -20.9861   -9.9834 C   0  0  1  0  0  0  0  0  0  0  0  0
   25.6364  -20.3982   -8.5877 C   0  0  0  0  0  0  0  0  0  0  0  0
   26.7982  -19.0374   -8.3234 S   0  0  0  0  0  0  0  0  0  0  0  0
   25.1717  -20.1979  -11.0141 C   0  0  0  0  0  0  0  0  0  0  0  0
   25.5657  -19.0467  -11.3171 O   0  0  0  0  0  0  0  0  0  0  0  0
   24.0394  -20.7401  -11.6774 N   0  0  0  0  0  0  0  0  0  0  0  0
   23.3625  -20.0398  -12.7567 C   0  0  0  0  0  0  0  0  0  0  0  0
   22.1695  -20.8144  -13.1943 C   0  0  0  0  0  0  0  0  0  0  0  0
   21.3652  -20.3207  -14.1930 O   0  0  0  0  0  0  0  0  0  0  0  0
   21.8839  -21.9172  -12.6636 O   0  0  0  0  0  0  0  0  0  0  0  0
  1  2  1  0
  2  3  1  0
  4  3  1  0
  5  1  1  0
  5  4  1  0
  5  6  1  1
  7  6  2  0
  8  6  1  0
  9  8  1  0
  9 12  1  0
  9 10  1  1
 11 10  1  0
 12 14  1  0
 13 12  2  0
 14 15  1  0
 15 16  1  0
 16 18  2  0
 16 17  1  0
M  END
$$$$
