PCG.pdb
     RDKit          3D

 18 18  0  0  1  0  0  0  0  0999 V2000
   23.7214  -12.9845  -16.9051 N   0  0  0  0  0  0  0  0  0  0  0  0
   23.4019  -14.4023  -16.9000 C   0  0  0  0  0  0  0  0  0  0  0  0
   24.0840  -14.8928  -15.6652 C   0  0  0  0  0  0  0  0  0  0  0  0
   24.1006  -13.6847  -14.7521 C   0  0  0  0  0  0  0  0  0  0  0  0
   23.3726  -12.6003  -15.5583 C   0  0  1  0  0  0  0  0  0  0  0  0
   23.9395  -11.2897  -15.1773 C   0  0  0  0  0  0  0  0  0  0  0  0
   23.9023  -10.8277  -14.0017 O   0  0  0  0  0  0  0  0  0  0  0  0
   24.5583  -10.5082  -16.1831 N   0  0  0  0  0  0  0  0  0  0  0  0
   25.1588   -9.2248  -15.9582 C   0  0  1  0  0  0  0  0  0  0  0  0
   26.4377   -9.1783  -16.8008 C   0  0  0  0  0  0  0  0  0  0  0  0
   27.6521  -10.3127  -16.0866 S   0  0  0  0  0  0  0  0  0  0  0  0
   24.2590   -8.1091  -16.2974 C   0  0  0  0  0  0  0  0  0  0  0  0
   23.6271   -8.1011  -17.3804 O   0  0  0  0  0  0  0  0  0  0  0  0
   24.0993   -7.0257  -15.3935 N   0  0  0  0  0  0  0  0  0  0  0  0
   23.1549   -5.9469  -15.6335 C   0  0  0  0  0  0  0  0  0  0  0  0
   21.9701   -6.1032  -14.7465 C   0  0  0  0  0  0  0  0  0  0  0  0
   21.8814   -5.3643  -13.5915 O   0  0  0  0  0  0  0  0  0  0  0  0
   21.0455   -6.9031  -15.0372 O   0  0  0  0  0  0  0  0  0  0  0  0
  1  2  1  0
  2  3  1  0
  4  3  1  0
  5  1  1  0
  5  4  1  0
  5  6  1  1
  7  6  2  0
  8  6  1  0
  9  8  1  0
  9 12  1  0
  9 10  1  6
 11 10  1  0
 12 14  1  0
 13 12  2  0
 14 15  1  0
 15 16  1  0
 16 18  2  0
 16 17  1  0
M  END
$$$$
