PCG.pdb
     RDKit          3D

 18 18  0  0  1  0  0  0  0  0999 V2000
   20.2050  -11.4678  -17.7379 N   0  0  0  0  0  0  0  0  0  0  0  0
   19.6127  -12.6742  -18.2911 C   0  0  0  0  0  0  0  0  0  0  0  0
   19.2540  -13.4583  -17.0717 C   0  0  0  0  0  0  0  0  0  0  0  0
   19.0068  -12.4007  -16.0163 C   0  0  0  0  0  0  0  0  0  0  0  0
   19.2157  -11.0759  -16.7628 C   0  0  1  0  0  0  0  0  0  0  0  0
   19.7329  -10.0839  -15.7970 C   0  0  0  0  0  0  0  0  0  0  0  0
   19.0981   -9.7130  -14.7691 O   0  0  0  0  0  0  0  0  0  0  0  0
   21.0088   -9.5176  -16.0349 N   0  0  0  0  0  0  0  0  0  0  0  0
   21.5964   -8.4791  -15.2384 C   0  0  1  0  0  0  0  0  0  0  0  0
   23.0429   -8.8989  -14.9570 C   0  0  0  0  0  0  0  0  0  0  0  0
   23.0850   -9.8734  -13.4338 S   0  0  0  0  0  0  0  0  0  0  0  0
   21.5444   -7.1613  -15.8945 C   0  0  0  0  0  0  0  0  0  0  0  0
   21.7707   -7.0467  -17.1224 O   0  0  0  0  0  0  0  0  0  0  0  0
   21.2352   -6.0019  -15.1353 N   0  0  0  0  0  0  0  0  0  0  0  0
   21.1235   -4.6847  -15.7401 C   0  0  0  0  0  0  0  0  0  0  0  0
   20.7255   -3.6861  -14.7109 C   0  0  0  0  0  0  0  0  0  0  0  0
   20.4249   -4.1035  -13.4368 O   0  0  0  0  0  0  0  0  0  0  0  0
   20.6594   -2.4623  -14.9886 O   0  0  0  0  0  0  0  0  0  0  0  0
  1  2  1  0
  2  3  1  0
  4  3  1  0
  5  1  1  0
  5  4  1  0
  5  6  1  1
  7  6  2  0
  8  6  1  0
  9  8  1  0
  9 12  1  0
  9 10  1  6
 11 10  1  0
 12 14  1  0
 13 12  2  0
 14 15  1  0
 15 16  1  0
 16 18  2  0
 16 17  1  0
M  END
$$$$
