PCG.pdb
     RDKit          3D

 18 18  0  0  1  0  0  0  0  0999 V2000
   23.6744  -16.6895  -17.6432 N   0  0  0  0  0  0  0  0  0  0  0  0
   23.2607  -18.0026  -18.1087 C   0  0  0  0  0  0  0  0  0  0  0  0
   22.7825  -18.6638  -16.8578 C   0  0  0  0  0  0  0  0  0  0  0  0
   22.3045  -17.5139  -15.9961 C   0  0  0  0  0  0  0  0  0  0  0  0
   22.5250  -16.2750  -16.8749 C   0  0  1  0  0  0  0  0  0  0  0  0
   22.8189  -15.1311  -15.9865 C   0  0  0  0  0  0  0  0  0  0  0  0
   22.0429  -14.7428  -15.0678 O   0  0  0  0  0  0  0  0  0  0  0  0
   24.0356  -14.4312  -16.1737 N   0  0  0  0  0  0  0  0  0  0  0  0
   24.4257  -13.2691  -15.4283 C   0  0  1  0  0  0  0  0  0  0  0  0
   25.9562  -13.2802  -15.3559 C   0  0  0  0  0  0  0  0  0  0  0  0
   26.4905  -14.7611  -14.4655 S   0  0  0  0  0  0  0  0  0  0  0  0
   23.9319  -12.0174  -16.0274 C   0  0  0  0  0  0  0  0  0  0  0  0
   24.1363  -11.7612  -17.2377 O   0  0  0  0  0  0  0  0  0  0  0  0
   23.2151  -11.0843  -15.2326 N   0  0  0  0  0  0  0  0  0  0  0  0
   22.6922   -9.8414  -15.7760 C   0  0  0  0  0  0  0  0  0  0  0  0
   21.9204   -9.1158  -14.7307 C   0  0  0  0  0  0  0  0  0  0  0  0
   20.6430   -9.5184  -14.4242 O   0  0  0  0  0  0  0  0  0  0  0  0
   22.4195   -8.1368  -14.1209 O   0  0  0  0  0  0  0  0  0  0  0  0
  1  2  1  0
  2  3  1  0
  4  3  1  0
  5  1  1  0
  5  4  1  0
  5  6  1  1
  7  6  2  0
  8  6  1  0
  9  8  1  0
  9 12  1  0
  9 10  1  6
 11 10  1  0
 12 14  1  0
 13 12  2  0
 14 15  1  0
 15 16  1  0
 16 18  2  0
 16 17  1  0
M  END
$$$$
