HYE.pdb
     RDKit          3D

 32 33  0  0  1  0  0  0  0  0999 V2000
   44.9398  -12.0560   -7.5993 N   0  0  0  0  0  0  0  0  0  0  0  0
   44.2451  -11.3867   -6.4888 C   0  0  1  0  0  0  0  0  0  0  0  0
   45.3147  -10.5355   -5.8134 C   0  0  0  0  0  0  0  0  0  0  0  0
   44.6670   -9.9259   -4.6228 C   0  0  0  0  0  0  0  0  0  0  0  0
   45.1138   -8.9143   -3.7972 C   0  0  0  0  0  0  0  0  0  0  0  0
   44.2197   -8.6715   -2.8238 N   0  0  0  0  0  0  0  0  0  0  0  0
   43.1785   -9.5323   -3.0154 C   0  0  0  0  0  0  0  0  0  0  0  0
   43.4662  -10.2731   -4.0953 N   0  0  0  0  0  0  0  0  0  0  0  0
   43.1476  -10.5414   -7.0148 C   0  0  0  0  0  0  0  0  0  0  0  0
   43.3728   -9.7838   -7.9812 O   0  0  0  0  0  0  0  0  0  0  0  0
   35.3322   -6.6130   -7.8118 O   0  0  0  0  0  0  0  0  0  0  0  0
   36.3358   -7.5155   -7.4979 C   0  0  0  0  0  0  0  0  0  0  0  0
   36.6944   -7.6334   -6.1648 C   0  0  0  0  0  0  0  0  0  0  0  0
   37.7132   -8.5529   -5.8681 C   0  0  0  0  0  0  0  0  0  0  0  0
   38.3333   -9.3056   -6.8384 C   0  0  0  0  0  0  0  0  0  0  0  0
   39.4086  -10.2677   -6.4466 C   0  0  0  0  0  0  0  0  0  0  0  0
   40.7709   -9.7237   -6.8371 C   0  0  2  0  0  0  0  0  0  0  0  0
   41.8417  -10.5807   -6.4369 N   0  0  0  0  0  0  0  0  0  0  0  0
   40.9223   -8.3111   -6.4160 C   0  0  0  0  0  0  0  0  0  0  0  0
   41.4156   -8.0589   -5.2635 O   0  0  0  0  0  0  0  0  0  0  0  0
   37.9543   -9.1680   -8.1720 C   0  0  0  0  0  0  0  0  0  0  0  0
   36.9600   -8.2715   -8.4686 C   0  0  0  0  0  0  0  0  0  0  0  0
   40.5254   -7.2720   -7.2811 N   0  0  0  0  0  0  0  0  0  0  0  0
   40.8273   -5.8804   -6.8976 C   0  0  1  0  0  0  0  0  0  0  0  0
   42.2919   -5.6879   -6.8712 C   0  0  0  0  0  0  0  0  0  0  0  0
   42.8235   -4.8449   -5.7828 C   0  0  0  0  0  0  0  0  0  0  0  0
   44.2574   -4.5542   -5.7801 C   0  0  0  0  0  0  0  0  0  0  0  0
   44.7230   -3.6921   -6.5645 O   0  0  0  0  0  0  0  0  0  0  0  0
   40.0896   -5.0278   -7.7973 C   0  0  0  0  0  0  0  0  0  0  0  0
   39.8513   -5.3442   -9.0063 O   0  0  0  0  0  0  0  0  0  0  0  0
   45.1674   -5.1913   -4.9293 O   0  0  0  0  0  0  0  0  0  0  0  0
   39.6058   -3.7852   -7.3265 O   0  0  0  0  0  0  0  0  0  0  0  0
  2  1  1  6
  3  4  1  0
  3  2  1  0
  4  5  2  0
  5  6  1  0
  7  6  1  0
  8  4  1  0
  8  7  2  0
  9  2  1  0
  9 18  1  0
 10  9  2  0
 12 11  1  0
 13 12  2  0
 14 13  1  0
 15 14  2  0
 15 21  1  0
 17 16  1  1
 16 15  1  0
 17 18  1  0
 19 17  1  0
 20 19  2  0
 21 22  2  0
 22 12  1  0
 23 19  1  0
 24 23  1  0
 24 29  1  0
 25 26  1  0
 24 25  1  6
 26 27  1  0
 27 28  2  0
 29 32  1  0
 30 29  2  0
 31 27  1  0
M  END
$$$$
