HYE.pdb
     RDKit          3D

 32 33  0  0  1  0  0  0  0  0999 V2000
   28.4008  -22.2042  -17.1162 N   0  0  0  0  0  0  0  0  0  0  0  0
   27.8533  -20.9524  -16.5712 C   0  0  1  0  0  0  0  0  0  0  0  0
   27.1426  -20.2908  -17.7468 C   0  0  0  0  0  0  0  0  0  0  0  0
   28.2119  -19.8349  -18.6728 C   0  0  0  0  0  0  0  0  0  0  0  0
   28.4499  -20.1862  -19.9860 C   0  0  0  0  0  0  0  0  0  0  0  0
   29.5342  -19.5462  -20.4556 N   0  0  0  0  0  0  0  0  0  0  0  0
   30.0092  -18.7691  -19.4396 C   0  0  0  0  0  0  0  0  0  0  0  0
   29.2047  -18.9568  -18.3834 N   0  0  0  0  0  0  0  0  0  0  0  0
   26.9017  -21.2513  -15.4754 C   0  0  0  0  0  0  0  0  0  0  0  0
   26.0594  -22.1594  -15.6318 O   0  0  0  0  0  0  0  0  0  0  0  0
   22.6048  -20.9893   -7.8443 O   0  0  0  0  0  0  0  0  0  0  0  0
   23.5325  -20.7495   -8.8454 C   0  0  0  0  0  0  0  0  0  0  0  0
   24.6910  -21.5093   -8.8376 C   0  0  0  0  0  0  0  0  0  0  0  0
   25.6178  -21.2505   -9.8602 C   0  0  0  0  0  0  0  0  0  0  0  0
   25.4021  -20.2960  -10.8272 C   0  0  0  0  0  0  0  0  0  0  0  0
   26.4336  -20.0784  -11.8876 C   0  0  0  0  0  0  0  0  0  0  0  0
   25.9758  -20.6860  -13.2012 C   0  0  2  0  0  0  0  0  0  0  0  0
   26.9338  -20.5208  -14.2481 N   0  0  0  0  0  0  0  0  0  0  0  0
   24.6046  -20.2421  -13.5455 C   0  0  0  0  0  0  0  0  0  0  0  0
   24.4423  -19.0891  -14.0741 O   0  0  0  0  0  0  0  0  0  0  0  0
   24.2287  -19.5451  -10.8125 C   0  0  0  0  0  0  0  0  0  0  0  0
   23.3195  -19.7928   -9.8164 C   0  0  0  0  0  0  0  0  0  0  0  0
   23.5059  -21.0866  -13.2894 N   0  0  0  0  0  0  0  0  0  0  0  0
   22.1571  -20.6232  -13.6646 C   0  0  1  0  0  0  0  0  0  0  0  0
   21.8568  -21.0597  -15.0437 C   0  0  0  0  0  0  0  0  0  0  0  0
   20.4911  -20.7911  -15.5344 C   0  0  0  0  0  0  0  0  0  0  0  0
   20.1414  -21.2586  -16.8759 C   0  0  0  0  0  0  0  0  0  0  0  0
   19.2381  -22.1173  -17.0240 O   0  0  0  0  0  0  0  0  0  0  0  0
   21.2542  -21.0865  -12.6397 C   0  0  0  0  0  0  0  0  0  0  0  0
   21.3671  -22.2263  -12.0858 O   0  0  0  0  0  0  0  0  0  0  0  0
   20.7649  -20.7906  -18.0379 O   0  0  0  0  0  0  0  0  0  0  0  0
   20.1947  -20.2467  -12.2247 O   0  0  0  0  0  0  0  0  0  0  0  0
  2  1  1  6
  3  4  1  0
  3  2  1  0
  4  5  2  0
  5  6  1  0
  7  6  1  0
  8  4  1  0
  8  7  2  0
  9  2  1  0
  9 18  1  0
 10  9  2  0
 12 11  1  0
 13 12  2  0
 14 13  1  0
 15 14  2  0
 15 21  1  0
 17 16  1  1
 16 15  1  0
 17 18  1  0
 19 17  1  0
 20 19  2  0
 21 22  2  0
 22 12  1  0
 23 19  1  0
 24 23  1  0
 24 29  1  0
 25 26  1  0
 24 25  1  6
 26 27  1  0
 27 28  2  0
 29 32  1  0
 30 29  2  0
 31 27  1  0
M  END
$$$$
