HYE.pdb
     RDKit          3D

 32 33  0  0  1  0  0  0  0  0999 V2000
   23.2644   -8.7657  -20.5358 N   0  0  0  0  0  0  0  0  0  0  0  0
   23.8182   -9.4311  -19.3465 C   0  0  1  0  0  0  0  0  0  0  0  0
   25.1748   -9.9655  -19.7924 C   0  0  0  0  0  0  0  0  0  0  0  0
   24.8910  -11.1065  -20.7014 C   0  0  0  0  0  0  0  0  0  0  0  0
   24.8896  -11.1558  -22.0805 C   0  0  0  0  0  0  0  0  0  0  0  0
   24.5675  -12.3886  -22.5073 N   0  0  0  0  0  0  0  0  0  0  0  0
   24.3568  -13.1524  -21.3964 C   0  0  0  0  0  0  0  0  0  0  0  0
   24.5550  -12.3668  -20.3281 N   0  0  0  0  0  0  0  0  0  0  0  0
   23.9691   -8.4528  -18.2439 C   0  0  0  0  0  0  0  0  0  0  0  0
   24.5457   -8.8039  -17.1936 O   0  0  0  0  0  0  0  0  0  0  0  0
   29.3619   -5.3868  -19.8328 O   0  0  0  0  0  0  0  0  0  0  0  0
   28.0639   -5.2519  -19.3666 C   0  0  0  0  0  0  0  0  0  0  0  0
   27.8957   -4.8029  -18.0668 C   0  0  0  0  0  0  0  0  0  0  0  0
   26.5729   -4.6734  -17.6139 C   0  0  0  0  0  0  0  0  0  0  0  0
   25.4891   -4.9724  -18.4067 C   0  0  0  0  0  0  0  0  0  0  0  0
   24.1086   -4.8067  -17.8568 C   0  0  0  0  0  0  0  0  0  0  0  0
   23.5853   -6.1335  -17.3371 C   0  0  2  0  0  0  0  0  0  0  0  0
   23.4688   -7.1200  -18.3638 N   0  0  0  0  0  0  0  0  0  0  0  0
   22.3611   -5.9429  -16.5243 C   0  0  0  0  0  0  0  0  0  0  0  0
   21.2802   -5.5877  -17.1082 O   0  0  0  0  0  0  0  0  0  0  0  0
   25.6854   -5.4225  -19.7105 C   0  0  0  0  0  0  0  0  0  0  0  0
   26.9748   -5.5512  -20.1589 C   0  0  0  0  0  0  0  0  0  0  0  0
   22.4007   -6.1530  -15.1314 N   0  0  0  0  0  0  0  0  0  0  0  0
   21.1684   -5.9390  -14.3501 C   0  0  1  0  0  0  0  0  0  0  0  0
   20.5922   -7.2477  -13.9786 C   0  0  0  0  0  0  0  0  0  0  0  0
   19.8616   -7.9679  -15.0394 C   0  0  0  0  0  0  0  0  0  0  0  0
   19.3010   -9.2798  -14.7151 C   0  0  0  0  0  0  0  0  0  0  0  0
   19.4331   -9.7486  -13.5583 O   0  0  0  0  0  0  0  0  0  0  0  0
   21.5114   -5.0616  -13.2578 C   0  0  0  0  0  0  0  0  0  0  0  0
   22.7106   -4.8691  -12.8792 O   0  0  0  0  0  0  0  0  0  0  0  0
   18.6019  -10.0647  -15.6388 O   0  0  0  0  0  0  0  0  0  0  0  0
   20.4791   -4.3812  -12.5712 O   0  0  0  0  0  0  0  0  0  0  0  0
  2  1  1  6
  3  4  1  0
  3  2  1  0
  4  5  2  0
  5  6  1  0
  7  6  1  0
  8  4  1  0
  8  7  2  0
  9  2  1  0
  9 18  1  0
 10  9  2  0
 12 11  1  0
 13 12  2  0
 14 13  1  0
 15 14  2  0
 15 21  1  0
 17 16  1  6
 16 15  1  0
 17 18  1  0
 19 17  1  0
 20 19  2  0
 21 22  2  0
 22 12  1  0
 23 19  1  0
 24 23  1  0
 24 29  1  0
 25 26  1  0
 24 25  1  1
 26 27  1  0
 27 28  2  0
 29 32  1  0
 30 29  2  0
 31 27  1  0
M  END
$$$$
