HYE.pdb
     RDKit          3D

 32 33  0  0  1  0  0  0  0  0999 V2000
   24.9902  -34.6093  -13.0617 N   0  0  0  0  0  0  0  0  0  0  0  0
   24.8544  -35.2240  -11.7323 C   0  0  1  0  0  0  0  0  0  0  0  0
   25.3014  -36.6695  -11.9213 C   0  0  0  0  0  0  0  0  0  0  0  0
   24.1621  -37.3735  -12.5654 C   0  0  0  0  0  0  0  0  0  0  0  0
   24.0882  -37.9853  -13.8003 C   0  0  0  0  0  0  0  0  0  0  0  0
   22.8616  -38.4965  -13.9999 N   0  0  0  0  0  0  0  0  0  0  0  0
   22.1269  -38.2164  -12.8847 C   0  0  0  0  0  0  0  0  0  0  0  0
   22.9229  -37.5446  -12.0403 N   0  0  0  0  0  0  0  0  0  0  0  0
   25.7241  -34.5221  -10.7593 C   0  0  0  0  0  0  0  0  0  0  0  0
   26.9134  -34.2923  -11.0615 O   0  0  0  0  0  0  0  0  0  0  0  0
   20.4781  -30.8278   -9.9492 O   0  0  0  0  0  0  0  0  0  0  0  0
   21.7827  -31.1101   -9.5770 C   0  0  0  0  0  0  0  0  0  0  0  0
   22.0038  -31.4895   -8.2629 C   0  0  0  0  0  0  0  0  0  0  0  0
   23.3324  -31.7709   -7.9062 C   0  0  0  0  0  0  0  0  0  0  0  0
   24.3721  -31.6797   -8.8026 C   0  0  0  0  0  0  0  0  0  0  0  0
   25.7614  -31.9983   -8.3511 C   0  0  0  0  0  0  0  0  0  0  0  0
   26.0306  -33.4865   -8.4828 C   0  0  2  0  0  0  0  0  0  0  0  0
   25.2249  -34.1052   -9.4873 N   0  0  0  0  0  0  0  0  0  0  0  0
   25.9889  -34.1555   -7.1614 C   0  0  0  0  0  0  0  0  0  0  0  0
   24.9242  -34.7726   -6.8140 O   0  0  0  0  0  0  0  0  0  0  0  0
   24.1230  -31.2957  -10.1184 C   0  0  0  0  0  0  0  0  0  0  0  0
   22.8277  -31.0193  -10.4732 C   0  0  0  0  0  0  0  0  0  0  0  0
   27.1114  -34.1050   -6.3108 N   0  0  0  0  0  0  0  0  0  0  0  0
   27.0112  -34.7176   -4.9731 C   0  0  1  0  0  0  0  0  0  0  0  0
   28.3688  -34.9324   -4.4313 C   0  0  0  0  0  0  0  0  0  0  0  0
   28.4512  -35.5363   -3.0874 C   0  0  0  0  0  0  0  0  0  0  0  0
   29.7803  -35.7919   -2.5319 C   0  0  0  0  0  0  0  0  0  0  0  0
   29.8957  -36.2481   -1.3684 O   0  0  0  0  0  0  0  0  0  0  0  0
   26.1396  -33.8759   -4.1905 C   0  0  0  0  0  0  0  0  0  0  0  0
   26.0092  -32.6291   -4.4069 O   0  0  0  0  0  0  0  0  0  0  0  0
   30.9649  -35.5582   -3.2392 O   0  0  0  0  0  0  0  0  0  0  0  0
   25.3934  -34.4502   -3.1353 O   0  0  0  0  0  0  0  0  0  0  0  0
  2  1  1  6
  3  4  1  0
  3  2  1  0
  4  5  2  0
  5  6  1  0
  7  6  1  0
  8  4  1  0
  8  7  2  0
  9  2  1  0
  9 18  1  0
 10  9  2  0
 12 11  1  0
 13 12  2  0
 14 13  1  0
 15 14  2  0
 15 21  1  0
 17 16  1  1
 16 15  1  0
 17 18  1  0
 19 17  1  0
 20 19  2  0
 21 22  2  0
 22 12  1  0
 23 19  1  0
 24 23  1  0
 24 29  1  0
 25 26  1  0
 24 25  1  1
 26 27  1  0
 27 28  2  0
 29 32  1  0
 30 29  2  0
 31 27  1  0
M  END
$$$$
