HYE.pdb
     RDKit          3D

 32 33  0  0  1  0  0  0  0  0999 V2000
   25.4374  -21.3649  -19.8061 N   0  0  0  0  0  0  0  0  0  0  0  0
   24.0771  -20.8621  -19.5602 C   0  0  1  0  0  0  0  0  0  0  0  0
   23.1539  -21.9474  -20.1029 C   0  0  0  0  0  0  0  0  0  0  0  0
   23.2159  -21.8403  -21.5840 C   0  0  0  0  0  0  0  0  0  0  0  0
   22.7451  -20.8454  -22.4164 C   0  0  0  0  0  0  0  0  0  0  0  0
   22.9998  -21.1465  -23.7010 N   0  0  0  0  0  0  0  0  0  0  0  0
   23.6437  -22.3495  -23.7081 C   0  0  0  0  0  0  0  0  0  0  0  0
   23.7623  -22.7466  -22.4329 N   0  0  0  0  0  0  0  0  0  0  0  0
   23.8663  -20.6634  -18.1070 C   0  0  0  0  0  0  0  0  0  0  0  0
   24.1139  -21.6023  -17.3223 O   0  0  0  0  0  0  0  0  0  0  0  0
   22.8057  -13.5060  -19.0716 O   0  0  0  0  0  0  0  0  0  0  0  0
   23.1390  -14.5935  -18.2800 C   0  0  0  0  0  0  0  0  0  0  0  0
   22.4144  -14.7803  -17.1140 C   0  0  0  0  0  0  0  0  0  0  0  0
   22.7679  -15.8875  -16.3262 C   0  0  0  0  0  0  0  0  0  0  0  0
   23.7784  -16.7517  -16.6793 C   0  0  0  0  0  0  0  0  0  0  0  0
   24.0965  -17.9121  -15.7916 C   0  0  0  0  0  0  0  0  0  0  0  0
   23.2812  -19.1263  -16.1982 C   0  0  2  0  0  0  0  0  0  0  0  0
   23.3876  -19.4196  -17.5923 N   0  0  0  0  0  0  0  0  0  0  0  0
   21.8914  -19.0293  -15.6935 C   0  0  0  0  0  0  0  0  0  0  0  0
   21.6992  -18.8418  -14.4432 O   0  0  0  0  0  0  0  0  0  0  0  0
   24.4922  -16.5415  -17.8571 C   0  0  0  0  0  0  0  0  0  0  0  0
   24.1520  -15.4618  -18.6310 C   0  0  0  0  0  0  0  0  0  0  0  0
   20.8080  -19.1435  -16.5874 N   0  0  0  0  0  0  0  0  0  0  0  0
   19.4377  -19.1149  -16.0428 C   0  0  1  0  0  0  0  0  0  0  0  0
   18.7220  -17.9407  -16.5829 C   0  0  0  0  0  0  0  0  0  0  0  0
   17.2998  -17.8108  -16.2111 C   0  0  0  0  0  0  0  0  0  0  0  0
   16.5340  -16.7152  -16.8057 C   0  0  0  0  0  0  0  0  0  0  0  0
   15.5506  -16.9670  -17.5439 O   0  0  0  0  0  0  0  0  0  0  0  0
   18.8490  -20.4021  -16.3205 C   0  0  0  0  0  0  0  0  0  0  0  0
   17.7359  -20.7714  -15.8275 O   0  0  0  0  0  0  0  0  0  0  0  0
   16.8345  -15.3653  -16.5923 O   0  0  0  0  0  0  0  0  0  0  0  0
   19.5290  -21.2998  -17.1759 O   0  0  0  0  0  0  0  0  0  0  0  0
  2  1  1  1
  3  4  1  0
  3  2  1  0
  4  5  2  0
  5  6  1  0
  7  6  1  0
  8  4  1  0
  8  7  2  0
  9  2  1  0
  9 18  1  0
 10  9  2  0
 12 11  1  0
 13 12  2  0
 14 13  1  0
 15 14  2  0
 15 21  1  0
 17 16  1  6
 16 15  1  0
 17 18  1  0
 19 17  1  0
 20 19  2  0
 21 22  2  0
 22 12  1  0
 23 19  1  0
 24 23  1  0
 24 29  1  0
 25 26  1  0
 24 25  1  6
 26 27  1  0
 27 28  2  0
 29 32  1  0
 30 29  2  0
 31 27  1  0
M  END
$$$$
