HYE.pdb
     RDKit          3D

 32 33  0  0  1  0  0  0  0  0999 V2000
   18.7049  -12.3685  -17.9241 N   0  0  0  0  0  0  0  0  0  0  0  0
   19.1863  -11.0040  -18.1892 C   0  0  1  0  0  0  0  0  0  0  0  0
   17.9233  -10.1776  -18.4049 C   0  0  0  0  0  0  0  0  0  0  0  0
   17.3830  -10.5861  -19.7277 C   0  0  0  0  0  0  0  0  0  0  0  0
   17.7092  -10.1354  -20.9907 C   0  0  0  0  0  0  0  0  0  0  0  0
   16.9712  -10.7650  -21.9206 N   0  0  0  0  0  0  0  0  0  0  0  0
   16.1552  -11.6359  -21.2591 C   0  0  0  0  0  0  0  0  0  0  0  0
   16.4171  -11.5126  -19.9498 N   0  0  0  0  0  0  0  0  0  0  0  0
   19.9557  -10.5042  -17.0256 C   0  0  0  0  0  0  0  0  0  0  0  0
   19.4727  -10.6229  -15.8804 O   0  0  0  0  0  0  0  0  0  0  0  0
   23.0065  -15.5347  -15.1272 O   0  0  0  0  0  0  0  0  0  0  0  0
   23.1082  -14.1676  -15.3295 C   0  0  0  0  0  0  0  0  0  0  0  0
   22.8864  -13.6938  -16.6124 C   0  0  0  0  0  0  0  0  0  0  0  0
   22.9945  -12.3059  -16.7960 C   0  0  0  0  0  0  0  0  0  0  0  0
   23.3034  -11.4473  -15.7665 C   0  0  0  0  0  0  0  0  0  0  0  0
   23.3980   -9.9798  -16.0370 C   0  0  0  0  0  0  0  0  0  0  0  0
   22.0112   -9.3673  -16.1139 C   0  0  2  0  0  0  0  0  0  0  0  0
   21.2360   -9.8927  -17.1928 N   0  0  0  0  0  0  0  0  0  0  0  0
   22.0778   -7.8878  -16.0667 C   0  0  0  0  0  0  0  0  0  0  0  0
   22.2621   -7.2420  -17.1550 O   0  0  0  0  0  0  0  0  0  0  0  0
   23.5221  -11.9493  -14.4854 C   0  0  0  0  0  0  0  0  0  0  0  0
   23.4182  -13.3038  -14.2993 C   0  0  0  0  0  0  0  0  0  0  0  0
   21.9387   -7.2155  -14.8361 N   0  0  0  0  0  0  0  0  0  0  0  0
   21.9284   -5.7408  -14.8348 C   0  0  1  0  0  0  0  0  0  0  0  0
   20.7985   -5.2595  -15.6560 C   0  0  0  0  0  0  0  0  0  0  0  0
   19.4468   -5.4820  -15.1071 C   0  0  0  0  0  0  0  0  0  0  0  0
   18.3142   -4.8814  -15.8120 C   0  0  0  0  0  0  0  0  0  0  0  0
   18.4879   -3.8603  -16.5208 O   0  0  0  0  0  0  0  0  0  0  0  0
   21.9354   -5.3224  -13.4544 C   0  0  0  0  0  0  0  0  0  0  0  0
   21.7883   -6.1357  -12.4873 O   0  0  0  0  0  0  0  0  0  0  0  0
   17.0130   -5.3921  -15.7482 O   0  0  0  0  0  0  0  0  0  0  0  0
   22.1126   -3.9525  -13.1513 O   0  0  0  0  0  0  0  0  0  0  0  0
  2  1  1  1
  3  4  1  0
  3  2  1  0
  4  5  2  0
  5  6  1  0
  7  6  1  0
  8  4  1  0
  8  7  2  0
  9  2  1  0
  9 18  1  0
 10  9  2  0
 12 11  1  0
 13 12  2  0
 14 13  1  0
 15 14  2  0
 15 21  1  0
 17 16  1  6
 16 15  1  0
 17 18  1  0
 19 17  1  0
 20 19  2  0
 21 22  2  0
 22 12  1  0
 23 19  1  0
 24 23  1  0
 24 29  1  0
 25 26  1  0
 24 25  1  1
 26 27  1  0
 27 28  2  0
 29 32  1  0
 30 29  2  0
 31 27  1  0
M  END
$$$$
