TYS.pdb
     RDKit          3D

 26 26  0  0  1  0  0  0  0  0999 V2000
    9.5863  -20.6369   19.8511 C   0  0  0  0  0  0  0  0  0  0  0  0
    9.4298  -19.9683   18.5040 C   0  0  1  0  0  0  0  0  0  0  0  0
    8.4810  -20.7288   17.7924 O   0  0  0  0  0  0  0  0  0  0  0  0
    8.7969  -18.6116   18.7275 C   0  0  2  0  0  0  0  0  0  0  0  0
    8.3421  -17.9892   17.5243 N   0  0  0  0  0  0  0  0  0  0  0  0
    9.6982  -17.6866   19.4566 C   0  0  0  0  0  0  0  0  0  0  0  0
   10.7270  -17.2013   18.9132 O   0  0  0  0  0  0  0  0  0  0  0  0
    6.8015  -11.9356   18.3237 O   0  0  0  0  0  0  0  0  0  0  0  0
    7.3451  -12.7960   19.2681 C   0  0  0  0  0  0  0  0  0  0  0  0
    8.6557  -12.6491   19.6693 C   0  0  0  0  0  0  0  0  0  0  0  0
    9.2160  -13.4919   20.6056 C   0  0  0  0  0  0  0  0  0  0  0  0
    8.4921  -14.5256   21.1885 C   0  0  0  0  0  0  0  0  0  0  0  0
    9.1119  -15.4252   22.1967 C   0  0  0  0  0  0  0  0  0  0  0  0
   10.1463  -16.3402   21.5455 C   0  0  2  0  0  0  0  0  0  0  0  0
    9.4177  -17.3315   20.7800 N   0  0  0  0  0  0  0  0  0  0  0  0
   10.8534  -17.0559   22.6379 C   0  0  0  0  0  0  0  0  0  0  0  0
   10.2334  -17.6178   23.5790 O   0  0  0  0  0  0  0  0  0  0  0  0
    7.1830  -14.6556   20.7737 C   0  0  0  0  0  0  0  0  0  0  0  0
    6.6159  -13.8168   19.8380 C   0  0  0  0  0  0  0  0  0  0  0  0
   14.5086  -18.3958   22.0495 O   0  0  0  0  0  0  0  0  0  0  0  0
   13.7632  -18.9809   23.0810 C   0  0  0  0  0  0  0  0  0  0  0  0
   12.9774  -17.8483   23.7333 C   0  0  2  0  0  0  0  0  0  0  0  0
   12.2831  -17.1450   22.6787 N   0  0  0  0  0  0  0  0  0  0  0  0
   13.8608  -16.9473   24.5130 C   0  0  0  0  0  0  0  0  0  0  0  0
   14.4843  -17.4236   25.6570 O   0  0  0  0  0  0  0  0  0  0  0  0
   14.0814  -15.7522   24.1898 O   0  0  0  0  0  0  0  0  0  0  0  0
  2  4  1  0
  2  1  1  1
  3  2  1  0
  4  5  1  6
  6  7  2  0
  6  4  1  0
  8  9  1  0
  9 19  2  0
  9 10  1  0
 10 11  2  0
 11 12  1  0
 12 13  1  0
 14 13  1  1
 14 16  1  0
 14 15  1  0
 15  6  1  0
 16 23  1  0
 17 16  2  0
 18 12  2  0
 19 18  1  0
 21 20  1  0
 22 21  1  6
 23 22  1  0
 24 25  1  0
 24 22  1  0
 26 24  2  0
M  END
$$$$
