TYS.pdb
     RDKit          3D

 26 26  0  0  1  0  0  0  0  0999 V2000
    9.4860  -20.5982   17.7119 C   0  0  0  0  0  0  0  0  0  0  0  0
   10.2339  -19.6944   18.6658 C   0  0  1  0  0  0  0  0  0  0  0  0
   11.6033  -19.9679   18.4788 O   0  0  0  0  0  0  0  0  0  0  0  0
   10.0266  -18.2650   18.2133 C   0  0  2  0  0  0  0  0  0  0  0  0
   10.4188  -18.0331   16.8589 N   0  0  0  0  0  0  0  0  0  0  0  0
   10.7068  -17.2920   19.1021 C   0  0  0  0  0  0  0  0  0  0  0  0
   11.6962  -16.6171   18.7087 O   0  0  0  0  0  0  0  0  0  0  0  0
    7.1064  -12.0352   18.0597 O   0  0  0  0  0  0  0  0  0  0  0  0
    7.6900  -12.8622   19.0100 C   0  0  0  0  0  0  0  0  0  0  0  0
    9.0379  -12.7654   19.2819 C   0  0  0  0  0  0  0  0  0  0  0  0
    9.6383  -13.5764   20.2215 C   0  0  0  0  0  0  0  0  0  0  0  0
    8.9191  -14.5265   20.9372 C   0  0  0  0  0  0  0  0  0  0  0  0
    9.5824  -15.3929   21.9469 C   0  0  0  0  0  0  0  0  0  0  0  0
   10.7791  -16.1193   21.3375 C   0  0  2  0  0  0  0  0  0  0  0  0
   10.2552  -17.1038   20.4124 N   0  0  0  0  0  0  0  0  0  0  0  0
   11.4538  -16.8577   22.4352 C   0  0  0  0  0  0  0  0  0  0  0  0
   10.8834  -17.7884   23.0633 O   0  0  0  0  0  0  0  0  0  0  0  0
    7.5723  -14.6075   20.6505 C   0  0  0  0  0  0  0  0  0  0  0  0
    6.9651  -13.8000   19.7125 C   0  0  0  0  0  0  0  0  0  0  0  0
   15.2306  -15.7520   23.9129 O   0  0  0  0  0  0  0  0  0  0  0  0
   14.9747  -17.1039   23.6505 C   0  0  0  0  0  0  0  0  0  0  0  0
   13.4780  -17.3030   23.8647 C   0  0  2  0  0  0  0  0  0  0  0  0
   12.7938  -16.5492   22.8388 N   0  0  0  0  0  0  0  0  0  0  0  0
   13.0604  -16.8914   25.2273 C   0  0  0  0  0  0  0  0  0  0  0  0
   13.5550  -17.5740   26.3290 O   0  0  0  0  0  0  0  0  0  0  0  0
   12.2676  -15.9399   25.4452 O   0  0  0  0  0  0  0  0  0  0  0  0
  2  4  1  0
  2  1  1  6
  3  2  1  0
  4  5  1  6
  6  7  2  0
  6  4  1  0
  8  9  1  0
  9 19  2  0
  9 10  1  0
 10 11  2  0
 11 12  1  0
 12 13  1  0
 14 13  1  1
 14 16  1  0
 14 15  1  0
 15  6  1  0
 16 23  1  0
 17 16  2  0
 18 12  2  0
 19 18  1  0
 21 20  1  0
 22 21  1  1
 23 22  1  0
 24 25  1  0
 24 22  1  0
 26 24  2  0
M  END
$$$$
