TYS.pdb
     RDKit          3D

 26 26  0  0  1  0  0  0  0  0999 V2000
    6.5126  -17.0226   19.3063 C   0  0  0  0  0  0  0  0  0  0  0  0
    7.4495  -16.9243   20.4890 C   0  0  1  0  0  0  0  0  0  0  0  0
    8.5731  -17.7124   20.1705 O   0  0  0  0  0  0  0  0  0  0  0  0
    7.9482  -15.4976   20.5715 C   0  0  2  0  0  0  0  0  0  0  0  0
    8.5970  -15.0504   19.3794 N   0  0  0  0  0  0  0  0  0  0  0  0
    8.8423  -15.2835   21.7352 C   0  0  0  0  0  0  0  0  0  0  0  0
   10.0927  -15.1966   21.6007 O   0  0  0  0  0  0  0  0  0  0  0  0
   10.7915  -14.7747   30.4084 O   0  0  0  0  0  0  0  0  0  0  0  0
   10.1378  -14.7809   29.1835 C   0  0  0  0  0  0  0  0  0  0  0  0
   10.1147  -13.6455   28.4022 C   0  0  0  0  0  0  0  0  0  0  0  0
    9.4717  -13.6292   27.1827 C   0  0  0  0  0  0  0  0  0  0  0  0
    8.8184  -14.7497   26.6829 C   0  0  0  0  0  0  0  0  0  0  0  0
    8.1298  -14.7147   25.3658 C   0  0  0  0  0  0  0  0  0  0  0  0
    9.0815  -15.1237   24.2441 C   0  0  2  0  0  0  0  0  0  0  0  0
    8.3050  -15.1725   23.0218 N   0  0  0  0  0  0  0  0  0  0  0  0
    9.5382  -16.5067   24.5343 C   0  0  0  0  0  0  0  0  0  0  0  0
    8.7385  -17.4785   24.5796 O   0  0  0  0  0  0  0  0  0  0  0  0
    8.8530  -15.8752   27.4796 C   0  0  0  0  0  0  0  0  0  0  0  0
    9.4939  -15.8990   28.7000 C   0  0  0  0  0  0  0  0  0  0  0  0
   13.3106  -17.4996   23.9742 O   0  0  0  0  0  0  0  0  0  0  0  0
   12.3858  -18.5493   24.0444 C   0  0  0  0  0  0  0  0  0  0  0  0
   11.3635  -18.1456   25.1016 C   0  0  2  0  0  0  0  0  0  0  0  0
   10.9175  -16.8092   24.7788 N   0  0  0  0  0  0  0  0  0  0  0  0
   11.9300  -18.2261   26.4700 C   0  0  0  0  0  0  0  0  0  0  0  0
   12.3291  -19.4557   26.9732 O   0  0  0  0  0  0  0  0  0  0  0  0
   12.0722  -17.2232   27.2153 O   0  0  0  0  0  0  0  0  0  0  0  0
  2  4  1  0
  2  1  1  6
  3  2  1  0
  4  5  1  6
  6  7  2  0
  6  4  1  0
  8  9  1  0
  9 19  2  0
  9 10  1  0
 10 11  2  0
 11 12  1  0
 12 13  1  0
 14 13  1  1
 14 16  1  0
 14 15  1  0
 15  6  1  0
 16 23  1  0
 17 16  2  0
 18 12  2  0
 19 18  1  0
 21 20  1  0
 22 21  1  6
 23 22  1  0
 24 25  1  0
 24 22  1  0
 26 24  2  0
M  END
$$$$
