TYS.pdb
     RDKit          3D

 26 26  0  0  1  0  0  0  0  0999 V2000
    6.1860  -17.5113   20.4872 C   0  0  0  0  0  0  0  0  0  0  0  0
    7.4189  -17.5904   19.6154 C   0  0  1  0  0  0  0  0  0  0  0  0
    6.9644  -17.8698   18.3114 O   0  0  0  0  0  0  0  0  0  0  0  0
    8.0378  -16.2104   19.5568 C   0  0  2  0  0  0  0  0  0  0  0  0
    9.0241  -16.0708   18.5323 N   0  0  0  0  0  0  0  0  0  0  0  0
    8.6124  -15.7986   20.8605 C   0  0  0  0  0  0  0  0  0  0  0  0
    9.7480  -16.1959   21.2372 O   0  0  0  0  0  0  0  0  0  0  0  0
    8.1616  -12.6479   29.1420 O   0  0  0  0  0  0  0  0  0  0  0  0
    7.9050  -12.8976   27.8006 C   0  0  0  0  0  0  0  0  0  0  0  0
    8.9367  -13.2128   26.9425 C   0  0  0  0  0  0  0  0  0  0  0  0
    8.7048  -13.4644   25.6068 C   0  0  0  0  0  0  0  0  0  0  0  0
    7.4271  -13.4133   25.0619 C   0  0  0  0  0  0  0  0  0  0  0  0
    7.1948  -13.6874   23.6192 C   0  0  0  0  0  0  0  0  0  0  0  0
    8.2871  -14.5932   23.0557 C   0  0  2  0  0  0  0  0  0  0  0  0
    7.8930  -14.9493   21.7075 N   0  0  0  0  0  0  0  0  0  0  0  0
    8.2862  -15.8407   23.8615 C   0  0  0  0  0  0  0  0  0  0  0  0
    7.2465  -16.5337   24.0185 O   0  0  0  0  0  0  0  0  0  0  0  0
    6.4089  -13.0962   25.9368 C   0  0  0  0  0  0  0  0  0  0  0  0
    6.6331  -12.8434   27.2734 C   0  0  0  0  0  0  0  0  0  0  0  0
   10.2928  -19.8034   24.8669 O   0  0  0  0  0  0  0  0  0  0  0  0
   10.1745  -18.5872   24.1823 C   0  0  0  0  0  0  0  0  0  0  0  0
    9.5206  -17.6126   25.1560 C   0  0  2  0  0  0  0  0  0  0  0  0
    9.4723  -16.3231   24.5049 N   0  0  0  0  0  0  0  0  0  0  0  0
   10.2501  -17.5556   26.4463 C   0  0  0  0  0  0  0  0  0  0  0  0
   10.3019  -18.6833   27.2524 O   0  0  0  0  0  0  0  0  0  0  0  0
   10.8362  -16.5226   26.8596 O   0  0  0  0  0  0  0  0  0  0  0  0
  2  4  1  0
  2  1  1  1
  3  2  1  0
  4  5  1  6
  6  7  2  0
  6  4  1  0
  8  9  1  0
  9 19  2  0
  9 10  1  0
 10 11  2  0
 11 12  1  0
 12 13  1  0
 14 13  1  1
 14 16  1  0
 14 15  1  0
 15  6  1  0
 16 23  1  0
 17 16  2  0
 18 12  2  0
 19 18  1  0
 21 20  1  0
 22 21  1  6
 23 22  1  0
 24 25  1  0
 24 22  1  0
 26 24  2  0
M  END
$$$$
