TYS.pdb
     RDKit          3D

 26 26  0  0  1  0  0  0  0  0999 V2000
    6.4659  -17.4133   19.1531 C   0  0  0  0  0  0  0  0  0  0  0  0
    7.3544  -17.1647   20.3509 C   0  0  1  0  0  0  0  0  0  0  0  0
    8.5439  -17.8827   20.1174 O   0  0  0  0  0  0  0  0  0  0  0  0
    7.7412  -15.7014   20.3489 C   0  0  2  0  0  0  0  0  0  0  0  0
    8.3666  -15.2784   19.1357 N   0  0  0  0  0  0  0  0  0  0  0  0
    8.6036  -15.3486   21.5028 C   0  0  0  0  0  0  0  0  0  0  0  0
    9.8403  -15.1460   21.3659 O   0  0  0  0  0  0  0  0  0  0  0  0
   10.4583  -14.3763   30.1576 O   0  0  0  0  0  0  0  0  0  0  0  0
    9.8189  -14.4507   28.9274 C   0  0  0  0  0  0  0  0  0  0  0  0
    9.2768  -15.6427   28.4968 C   0  0  0  0  0  0  0  0  0  0  0  0
    8.6375  -15.7394   27.2791 C   0  0  0  0  0  0  0  0  0  0  0  0
    8.5083  -14.6467   26.4297 C   0  0  0  0  0  0  0  0  0  0  0  0
    7.8158  -14.7686   25.1198 C   0  0  0  0  0  0  0  0  0  0  0  0
    8.8129  -15.0724   24.0043 C   0  0  2  0  0  0  0  0  0  0  0  0
    8.0508  -15.2328   22.7824 N   0  0  0  0  0  0  0  0  0  0  0  0
    9.4357  -16.3846   24.3134 C   0  0  0  0  0  0  0  0  0  0  0  0
    8.7631  -17.4481   24.3625 O   0  0  0  0  0  0  0  0  0  0  0  0
    9.0573  -13.4637   26.8788 C   0  0  0  0  0  0  0  0  0  0  0  0
    9.6979  -13.3593   28.0951 C   0  0  0  0  0  0  0  0  0  0  0  0
   13.2083  -16.8149   23.5057 O   0  0  0  0  0  0  0  0  0  0  0  0
   12.4342  -17.9808   23.5644 C   0  0  0  0  0  0  0  0  0  0  0  0
   11.4765  -17.7971   24.7369 C   0  0  2  0  0  0  0  0  0  0  0  0
   10.8395  -16.5101   24.5729 N   0  0  0  0  0  0  0  0  0  0  0  0
   12.1780  -17.9071   26.0392 C   0  0  0  0  0  0  0  0  0  0  0  0
   12.1562  -16.8356   26.9198 O   0  0  0  0  0  0  0  0  0  0  0  0
   12.8042  -18.9370   26.3979 O   0  0  0  0  0  0  0  0  0  0  0  0
  2  4  1  0
  2  1  1  6
  3  2  1  0
  4  5  1  6
  6  7  2  0
  6  4  1  0
  8  9  1  0
  9 19  2  0
  9 10  1  0
 10 11  2  0
 11 12  1  0
 12 13  1  0
 14 13  1  1
 14 16  1  0
 14 15  1  0
 15  6  1  0
 16 23  1  0
 17 16  2  0
 18 12  2  0
 19 18  1  0
 21 20  1  0
 22 21  1  6
 23 22  1  0
 24 25  1  0
 24 22  1  0
 26 24  2  0
M  END
$$$$
