TYS.pdb
     RDKit          3D

 26 26  0  0  1  0  0  0  0  0999 V2000
    6.8294  -20.1244   24.1453 C   0  0  0  0  0  0  0  0  0  0  0  0
    6.2442  -20.0040   22.7564 C   0  0  1  0  0  0  0  0  0  0  0  0
    5.2604  -21.0072   22.6529 O   0  0  0  0  0  0  0  0  0  0  0  0
    5.5073  -18.6845   22.6737 C   0  0  2  0  0  0  0  0  0  0  0  0
    4.6885  -18.5605   21.5092 N   0  0  0  0  0  0  0  0  0  0  0  0
    6.4261  -17.5236   22.7621 C   0  0  0  0  0  0  0  0  0  0  0  0
    6.9938  -17.0509   21.7406 O   0  0  0  0  0  0  0  0  0  0  0  0
   11.1368  -14.5041   29.4399 O   0  0  0  0  0  0  0  0  0  0  0  0
   10.1766  -14.6478   28.4473 C   0  0  0  0  0  0  0  0  0  0  0  0
    8.9386  -14.0581   28.5873 C   0  0  0  0  0  0  0  0  0  0  0  0
    7.9703  -14.1877   27.6144 C   0  0  0  0  0  0  0  0  0  0  0  0
    8.1924  -14.9149   26.4508 C   0  0  0  0  0  0  0  0  0  0  0  0
    7.1371  -15.0445   25.4117 C   0  0  0  0  0  0  0  0  0  0  0  0
    7.6410  -15.8613   24.2243 C   0  0  2  0  0  0  0  0  0  0  0  0
    6.6824  -16.9243   23.9996 N   0  0  0  0  0  0  0  0  0  0  0  0
    8.9188  -16.4967   24.6354 C   0  0  0  0  0  0  0  0  0  0  0  0
    8.9788  -17.3241   25.5829 O   0  0  0  0  0  0  0  0  0  0  0  0
    9.4371  -15.4969   26.3300 C   0  0  0  0  0  0  0  0  0  0  0  0
   10.4102  -15.3717   27.2985 C   0  0  0  0  0  0  0  0  0  0  0  0
   11.7826  -16.3263   21.9266 O   0  0  0  0  0  0  0  0  0  0  0  0
   11.7129  -17.4931   22.6985 C   0  0  0  0  0  0  0  0  0  0  0  0
   11.3165  -17.0510   24.1031 C   0  0  2  0  0  0  0  0  0  0  0  0
   10.1549  -16.2008   23.9734 N   0  0  0  0  0  0  0  0  0  0  0  0
   12.4330  -16.3631   24.7962 C   0  0  0  0  0  0  0  0  0  0  0  0
   13.5991  -17.0614   25.0733 O   0  0  0  0  0  0  0  0  0  0  0  0
   12.3820  -15.1587   25.1541 O   0  0  0  0  0  0  0  0  0  0  0  0
  2  4  1  0
  2  1  1  1
  3  2  1  0
  4  5  1  6
  6  7  2  0
  6  4  1  0
  8  9  1  0
  9 19  2  0
  9 10  1  0
 10 11  2  0
 11 12  1  0
 12 13  1  0
 14 13  1  1
 14 16  1  0
 14 15  1  0
 15  6  1  0
 16 23  1  0
 17 16  2  0
 18 12  2  0
 19 18  1  0
 21 20  1  0
 22 21  1  6
 23 22  1  0
 24 25  1  0
 24 22  1  0
 26 24  2  0
M  END
$$$$
