TYS.pdb
     RDKit          3D

 26 26  0  0  1  0  0  0  0  0999 V2000
    6.7695  -16.0136   20.0765 C   0  0  0  0  0  0  0  0  0  0  0  0
    7.5134  -14.9273   19.3331 C   0  0  1  0  0  0  0  0  0  0  0  0
    6.7705  -14.6673   18.1646 O   0  0  0  0  0  0  0  0  0  0  0  0
    7.4448  -13.6634   20.1630 C   0  0  2  0  0  0  0  0  0  0  0  0
    7.7260  -12.4764   19.4187 N   0  0  0  0  0  0  0  0  0  0  0  0
    8.3283  -13.7261   21.3526 C   0  0  0  0  0  0  0  0  0  0  0  0
    9.5794  -13.6064   21.2536 O   0  0  0  0  0  0  0  0  0  0  0  0
   10.2720  -15.0952   29.9286 O   0  0  0  0  0  0  0  0  0  0  0  0
    9.6185  -14.8376   28.7310 C   0  0  0  0  0  0  0  0  0  0  0  0
    9.0639  -15.8702   28.0057 C   0  0  0  0  0  0  0  0  0  0  0  0
    8.4105  -15.6373   26.8142 C   0  0  0  0  0  0  0  0  0  0  0  0
    8.2791  -14.3576   26.2876 C   0  0  0  0  0  0  0  0  0  0  0  0
    7.5713  -14.1243   25.0012 C   0  0  0  0  0  0  0  0  0  0  0  0
    8.5452  -14.1822   23.8269 C   0  0  2  0  0  0  0  0  0  0  0  0
    7.7800  -13.9222   22.6243 N   0  0  0  0  0  0  0  0  0  0  0  0
    9.0489  -15.5765   23.7388 C   0  0  0  0  0  0  0  0  0  0  0  0
    8.3181  -16.5276   23.3550 O   0  0  0  0  0  0  0  0  0  0  0  0
    8.8408  -13.3385   27.0284 C   0  0  0  0  0  0  0  0  0  0  0  0
    9.4955  -13.5637   28.2205 C   0  0  0  0  0  0  0  0  0  0  0  0
   11.7174  -18.5378   22.0137 O   0  0  0  0  0  0  0  0  0  0  0  0
   11.1359  -17.2906   22.2749 C   0  0  0  0  0  0  0  0  0  0  0  0
   10.9647  -17.2094   23.7881 C   0  0  2  0  0  0  0  0  0  0  0  0
   10.3975  -15.9141   24.0868 N   0  0  0  0  0  0  0  0  0  0  0  0
   12.2490  -17.4296   24.4970 C   0  0  0  0  0  0  0  0  0  0  0  0
   12.8991  -18.6485   24.3706 O   0  0  0  0  0  0  0  0  0  0  0  0
   12.7932  -16.5569   25.2206 O   0  0  0  0  0  0  0  0  0  0  0  0
  2  4  1  0
  2  1  1  1
  3  2  1  0
  4  5  1  6
  6  7  2  0
  6  4  1  0
  8  9  1  0
  9 19  2  0
  9 10  1  0
 10 11  2  0
 11 12  1  0
 12 13  1  0
 14 13  1  1
 14 16  1  0
 14 15  1  0
 15  6  1  0
 16 23  1  0
 17 16  2  0
 18 12  2  0
 19 18  1  0
 21 20  1  0
 22 21  1  6
 23 22  1  0
 24 25  1  0
 24 22  1  0
 26 24  2  0
M  END
$$$$
