TYS.pdb
     RDKit          3D

 26 26  0  0  1  0  0  0  0  0999 V2000
    7.7448  -16.1523   19.1029 C   0  0  0  0  0  0  0  0  0  0  0  0
    8.3843  -14.8472   18.6861 C   0  0  1  0  0  0  0  0  0  0  0  0
    7.8190  -14.5094   17.4406 O   0  0  0  0  0  0  0  0  0  0  0  0
    7.9327  -13.7761   19.6555 C   0  0  2  0  0  0  0  0  0  0  0  0
    8.1965  -12.4473   19.2007 N   0  0  0  0  0  0  0  0  0  0  0  0
    8.5128  -13.9640   21.0074 C   0  0  0  0  0  0  0  0  0  0  0  0
    9.6809  -13.5793   21.2846 O   0  0  0  0  0  0  0  0  0  0  0  0
    6.4765  -10.7424   27.8453 O   0  0  0  0  0  0  0  0  0  0  0  0
    6.6378  -11.8099   26.9724 C   0  0  0  0  0  0  0  0  0  0  0  0
    5.5755  -12.2553   26.2153 C   0  0  0  0  0  0  0  0  0  0  0  0
    5.7131  -13.3135   25.3422 C   0  0  0  0  0  0  0  0  0  0  0  0
    6.9223  -13.9802   25.1826 C   0  0  0  0  0  0  0  0  0  0  0  0
    7.0531  -15.1196   24.2365 C   0  0  0  0  0  0  0  0  0  0  0  0
    8.2645  -14.9334   23.3260 C   0  0  2  0  0  0  0  0  0  0  0  0
    7.7620  -14.5807   22.0135 N   0  0  0  0  0  0  0  0  0  0  0  0
    8.9330  -16.2539   23.2043 C   0  0  0  0  0  0  0  0  0  0  0  0
    8.3389  -17.2631   22.7412 O   0  0  0  0  0  0  0  0  0  0  0  0
    7.9725  -13.5194   25.9489 C   0  0  0  0  0  0  0  0  0  0  0  0
    7.8425  -12.4620   26.8239 C   0  0  0  0  0  0  0  0  0  0  0  0
   12.7698  -16.6491   22.7119 O   0  0  0  0  0  0  0  0  0  0  0  0
   11.9520  -17.7650   22.4932 C   0  0  0  0  0  0  0  0  0  0  0  0
   10.9127  -17.7561   23.6091 C   0  0  2  0  0  0  0  0  0  0  0  0
   10.2938  -16.4499   23.6085 N   0  0  0  0  0  0  0  0  0  0  0  0
   11.5177  -18.0828   24.9234 C   0  0  0  0  0  0  0  0  0  0  0  0
   12.1349  -19.3118   25.1050 O   0  0  0  0  0  0  0  0  0  0  0  0
   11.5028  -17.2935   25.9023 O   0  0  0  0  0  0  0  0  0  0  0  0
  2  4  1  0
  2  1  1  1
  3  2  1  0
  4  5  1  6
  6  7  2  0
  6  4  1  0
  8  9  1  0
  9 19  2  0
  9 10  1  0
 10 11  2  0
 11 12  1  0
 12 13  1  0
 14 13  1  1
 14 16  1  0
 14 15  1  0
 15  6  1  0
 16 23  1  0
 17 16  2  0
 18 12  2  0
 19 18  1  0
 21 20  1  0
 22 21  1  6
 23 22  1  0
 24 25  1  0
 24 22  1  0
 26 24  2  0
M  END
$$$$
