TYS.pdb
     RDKit          3D

 26 26  0  0  1  0  0  0  0  0999 V2000
   11.8735  -16.7508   16.5683 C   0  0  0  0  0  0  0  0  0  0  0  0
   11.9647  -16.6776   15.0609 C   0  0  1  0  0  0  0  0  0  0  0  0
   10.6447  -16.5291   14.5911 O   0  0  0  0  0  0  0  0  0  0  0  0
   12.6847  -15.3964   14.6990 C   0  0  2  0  0  0  0  0  0  0  0  0
   12.6754  -15.1129   13.2984 N   0  0  0  0  0  0  0  0  0  0  0  0
   14.0800  -15.3772   15.2015 C   0  0  0  0  0  0  0  0  0  0  0  0
   14.9452  -16.1917   14.7806 O   0  0  0  0  0  0  0  0  0  0  0  0
   18.4902  -11.1229   11.9157 O   0  0  0  0  0  0  0  0  0  0  0  0
   17.9395  -11.5541   13.1150 C   0  0  0  0  0  0  0  0  0  0  0  0
   16.5945  -11.3829   13.3636 C   0  0  0  0  0  0  0  0  0  0  0  0
   16.0265  -11.8034   14.5475 C   0  0  0  0  0  0  0  0  0  0  0  0
   16.7769  -12.4174   15.5436 C   0  0  0  0  0  0  0  0  0  0  0  0
   16.1483  -12.8648   16.8144 C   0  0  0  0  0  0  0  0  0  0  0  0
   15.7883  -14.3472   16.7500 C   0  0  2  0  0  0  0  0  0  0  0  0
   14.4656  -14.4405   16.1659 N   0  0  0  0  0  0  0  0  0  0  0  0
   15.6911  -14.8395   18.1478 C   0  0  0  0  0  0  0  0  0  0  0  0
   15.0426  -14.2187   19.0309 O   0  0  0  0  0  0  0  0  0  0  0  0
   18.1202  -12.5794   15.2754 C   0  0  0  0  0  0  0  0  0  0  0  0
   18.6951  -12.1615   14.0942 C   0  0  0  0  0  0  0  0  0  0  0  0
   15.9429  -18.5872   18.8584 O   0  0  0  0  0  0  0  0  0  0  0  0
   15.4343  -17.8147   19.9103 C   0  0  0  0  0  0  0  0  0  0  0  0
   16.2534  -16.5285   19.9283 C   0  0  2  0  0  0  0  0  0  0  0  0
   16.3321  -16.0509   18.5665 N   0  0  0  0  0  0  0  0  0  0  0  0
   17.5967  -16.7431   20.5196 C   0  0  0  0  0  0  0  0  0  0  0  0
   18.7249  -16.5835   19.7286 O   0  0  0  0  0  0  0  0  0  0  0  0
   17.7749  -17.0682   21.7213 O   0  0  0  0  0  0  0  0  0  0  0  0
  2  4  1  0
  2  1  1  1
  3  2  1  0
  4  5  1  6
  6  7  2  0
  6  4  1  0
  8  9  1  0
  9 19  2  0
  9 10  1  0
 10 11  2  0
 11 12  1  0
 12 13  1  0
 14 13  1  1
 14 16  1  0
 14 15  1  0
 15  6  1  0
 16 23  1  0
 17 16  2  0
 18 12  2  0
 19 18  1  0
 21 20  1  0
 22 21  1  6
 23 22  1  0
 24 25  1  0
 24 22  1  0
 26 24  2  0
M  END
$$$$
