MES.pdb
     RDKit          3D

 24 23  0  0  1  0  0  0  0  0999 V2000
    7.3173  -11.0185   19.2508 C   0  0  0  0  0  0  0  0  0  0  0  0
    8.6403  -12.1992   19.3460 S   0  0  0  0  0  0  0  0  0  0  0  0
    8.1138  -13.8872   19.1152 C   0  0  0  0  0  0  0  0  0  0  0  0
    9.2081  -14.8909   19.2211 C   0  0  0  0  0  0  0  0  0  0  0  0
   10.0557  -14.9462   18.0065 C   0  0  2  0  0  0  0  0  0  0  0  0
    9.3335  -15.7109   16.9979 N   0  0  0  0  0  0  0  0  0  0  0  0
   11.3621  -15.6508   18.3098 C   0  0  0  0  0  0  0  0  0  0  0  0
   11.3185  -16.8865   18.5121 O   0  0  0  0  0  0  0  0  0  0  0  0
   12.5461  -14.8880   18.3484 N   0  0  0  0  0  0  0  0  0  0  0  0
   13.8445  -15.5592   18.5998 C   0  0  1  0  0  0  0  0  0  0  0  0
   14.9092  -14.9146   17.7634 C   0  0  0  0  0  0  0  0  0  0  0  0
   14.8381  -15.3716   16.3473 C   0  0  0  0  0  0  0  0  0  0  0  0
   15.9805  -14.7879   15.5803 C   0  0  0  0  0  0  0  0  0  0  0  0
   16.0893  -13.5442   15.4398 O   0  0  0  0  0  0  0  0  0  0  0  0
   14.1476  -15.3517   20.0339 C   0  0  0  0  0  0  0  0  0  0  0  0
   14.0988  -14.2480   20.6359 O   0  0  0  0  0  0  0  0  0  0  0  0
   16.9277  -15.6228   15.0196 O   0  0  0  0  0  0  0  0  0  0  0  0
   14.7122  -17.5843   24.2939 O   0  0  0  0  0  0  0  0  0  0  0  0
   14.4124  -17.6408   22.9525 C   0  0  0  0  0  0  0  0  0  0  0  0
   14.8234  -16.3271   22.2751 C   0  0  2  0  0  0  0  0  0  0  0  0
   14.5393  -16.4389   20.8926 N   0  0  0  0  0  0  0  0  0  0  0  0
   16.1963  -16.0590   22.6401 C   0  0  0  0  0  0  0  0  0  0  0  0
   16.5173  -15.8003   23.8142 O   0  0  0  0  0  0  0  0  0  0  0  0
   17.1876  -16.0846   21.6858 O   0  0  0  0  0  0  0  0  0  0  0  0
  1  2  1  0
  3  2  1  0
  4  3  1  0
  5  4  1  0
  5  7  1  0
  5  6  1  6
  7  8  2  0
  9  7  1  0
  9 10  1  0
 10 11  1  6
 11 12  1  0
 12 13  1  0
 13 17  1  0
 13 14  2  0
 15 10  1  0
 15 16  2  0
 18 19  1  0
 20 19  1  1
 20 22  1  0
 20 21  1  0
 21 15  1  0
 22 24  1  0
 23 22  2  0
M  END
$$$$
