MES.pdb
     RDKit          3D

 24 23  0  0  1  0  0  0  0  0999 V2000
    7.7382  -11.4458   26.3297 C   0  0  0  0  0  0  0  0  0  0  0  0
    6.3498  -12.5442   26.1914 S   0  0  0  0  0  0  0  0  0  0  0  0
    6.6238  -13.9108   25.0792 C   0  0  0  0  0  0  0  0  0  0  0  0
    7.3063  -13.5407   23.8090 C   0  0  0  0  0  0  0  0  0  0  0  0
    7.4625  -14.6894   22.8855 C   0  0  2  0  0  0  0  0  0  0  0  0
    6.1623  -15.3353   22.7598 N   0  0  0  0  0  0  0  0  0  0  0  0
    8.4504  -15.6882   23.4526 C   0  0  0  0  0  0  0  0  0  0  0  0
    7.9977  -16.5913   24.1937 O   0  0  0  0  0  0  0  0  0  0  0  0
    9.8129  -15.5512   23.1209 N   0  0  0  0  0  0  0  0  0  0  0  0
   10.7612  -16.6448   23.4437 C   0  0  1  0  0  0  0  0  0  0  0  0
   12.1193  -16.3013   22.9088 C   0  0  0  0  0  0  0  0  0  0  0  0
   13.0835  -17.4174   23.1182 C   0  0  0  0  0  0  0  0  0  0  0  0
   14.4153  -17.0331   22.5588 C   0  0  0  0  0  0  0  0  0  0  0  0
   15.2625  -16.4392   23.2714 O   0  0  0  0  0  0  0  0  0  0  0  0
   10.8158  -16.7235   24.9209 C   0  0  0  0  0  0  0  0  0  0  0  0
   10.8887  -15.7384   25.7002 O   0  0  0  0  0  0  0  0  0  0  0  0
   14.7198  -17.3332   21.2451 O   0  0  0  0  0  0  0  0  0  0  0  0
    9.6934  -19.1745   28.8193 O   0  0  0  0  0  0  0  0  0  0  0  0
    9.5815  -18.8421   27.4891 C   0  0  0  0  0  0  0  0  0  0  0  0
   10.8653  -18.1448   27.0207 C   0  0  2  0  0  0  0  0  0  0  0  0
   10.7895  -17.9842   25.6161 N   0  0  0  0  0  0  0  0  0  0  0  0
   11.9850  -18.9031   27.5318 C   0  0  0  0  0  0  0  0  0  0  0  0
   12.1605  -19.0578   28.7540 O   0  0  0  0  0  0  0  0  0  0  0  0
   12.8899  -19.4758   26.6675 O   0  0  0  0  0  0  0  0  0  0  0  0
  1  2  1  0
  3  2  1  0
  4  3  1  0
  5  4  1  0
  5  7  1  0
  5  6  1  1
  7  8  2  0
  9  7  1  0
  9 10  1  0
 10 11  1  1
 11 12  1  0
 12 13  1  0
 13 17  1  0
 13 14  2  0
 15 10  1  0
 15 16  2  0
 18 19  1  0
 20 19  1  6
 20 22  1  0
 20 21  1  0
 21 15  1  0
 22 24  1  0
 23 22  2  0
M  END
$$$$
