MES.pdb
     RDKit          3D

 24 23  0  0  1  0  0  0  0  0999 V2000
    7.9246  -11.8083   27.0797 C   0  0  0  0  0  0  0  0  0  0  0  0
    6.5201  -11.9472   26.0020 S   0  0  0  0  0  0  0  0  0  0  0  0
    5.9480  -13.6216   25.7807 C   0  0  0  0  0  0  0  0  0  0  0  0
    7.0281  -14.6460   25.7964 C   0  0  0  0  0  0  0  0  0  0  0  0
    6.8831  -15.6496   24.7155 C   0  0  2  0  0  0  0  0  0  0  0  0
    5.6367  -16.3691   24.9447 N   0  0  0  0  0  0  0  0  0  0  0  0
    8.0312  -16.6372   24.7587 C   0  0  0  0  0  0  0  0  0  0  0  0
    7.8990  -17.6450   25.4911 O   0  0  0  0  0  0  0  0  0  0  0  0
    9.1764  -16.3737   23.9813 N   0  0  0  0  0  0  0  0  0  0  0  0
   10.2876  -17.3554   23.9541 C   0  0  1  0  0  0  0  0  0  0  0  0
   11.3025  -16.9316   22.9347 C   0  0  0  0  0  0  0  0  0  0  0  0
   12.4727  -17.8533   22.9179 C   0  0  0  0  0  0  0  0  0  0  0  0
   13.4041  -17.4516   21.8201 C   0  0  0  0  0  0  0  0  0  0  0  0
   14.4388  -18.1225   21.5799 O   0  0  0  0  0  0  0  0  0  0  0  0
   10.8982  -17.3278   25.3024 C   0  0  0  0  0  0  0  0  0  0  0  0
   11.6301  -16.4083   25.7514 O   0  0  0  0  0  0  0  0  0  0  0  0
   13.1262  -16.3317   21.0605 O   0  0  0  0  0  0  0  0  0  0  0  0
    9.1631  -19.2905   28.0608 O   0  0  0  0  0  0  0  0  0  0  0  0
   10.4911  -19.4193   28.3961 C   0  0  0  0  0  0  0  0  0  0  0  0
   11.3403  -18.5028   27.5059 C   0  0  2  0  0  0  0  0  0  0  0  0
   10.6975  -18.3939   26.2491 N   0  0  0  0  0  0  0  0  0  0  0  0
   12.6894  -19.0220   27.5065 C   0  0  0  0  0  0  0  0  0  0  0  0
   13.3337  -19.1541   28.5630 O   0  0  0  0  0  0  0  0  0  0  0  0
   13.2958  -19.3848   26.3256 O   0  0  0  0  0  0  0  0  0  0  0  0
  1  2  1  0
  3  2  1  0
  4  3  1  0
  5  4  1  0
  5  7  1  0
  5  6  1  1
  7  8  2  0
  9  7  1  0
  9 10  1  0
 10 11  1  6
 11 12  1  0
 12 13  1  0
 13 17  1  0
 13 14  2  0
 15 10  1  0
 15 16  2  0
 18 19  1  0
 20 19  1  1
 20 22  1  0
 20 21  1  0
 21 15  1  0
 22 24  1  0
 23 22  2  0
M  END
$$$$
