MES.pdb
     RDKit          3D

 24 23  0  0  1  0  0  0  0  0999 V2000
    8.4167  -12.1811   21.6635 C   0  0  0  0  0  0  0  0  0  0  0  0
    7.7077  -12.4038   20.0507 S   0  0  0  0  0  0  0  0  0  0  0  0
    8.2019  -13.9198   19.2524 C   0  0  0  0  0  0  0  0  0  0  0  0
    8.6331  -14.9938   20.1887 C   0  0  0  0  0  0  0  0  0  0  0  0
    9.1169  -16.2066   19.4874 C   0  0  2  0  0  0  0  0  0  0  0  0
    8.0131  -16.7260   18.6903 N   0  0  0  0  0  0  0  0  0  0  0  0
    9.5328  -17.2625   20.4910 C   0  0  0  0  0  0  0  0  0  0  0  0
    8.6376  -18.0119   20.9455 O   0  0  0  0  0  0  0  0  0  0  0  0
   10.8907  -17.3461   20.8576 N   0  0  0  0  0  0  0  0  0  0  0  0
   11.3328  -18.3996   21.8031 C   0  0  1  0  0  0  0  0  0  0  0  0
   12.6237  -18.9918   21.3219 C   0  0  0  0  0  0  0  0  0  0  0  0
   13.6246  -17.9329   21.0120 C   0  0  0  0  0  0  0  0  0  0  0  0
   14.9112  -18.5726   20.6000 C   0  0  0  0  0  0  0  0  0  0  0  0
   15.2596  -18.5921   19.3931 O   0  0  0  0  0  0  0  0  0  0  0  0
   11.5511  -17.7251   23.1027 C   0  0  0  0  0  0  0  0  0  0  0  0
   12.0489  -16.5795   23.2537 O   0  0  0  0  0  0  0  0  0  0  0  0
   15.7270  -19.1488   21.5544 O   0  0  0  0  0  0  0  0  0  0  0  0
   10.2181  -16.6049   27.3360 O   0  0  0  0  0  0  0  0  0  0  0  0
   10.0582  -17.1934   26.1028 C   0  0  0  0  0  0  0  0  0  0  0  0
   11.3951  -17.7815   25.6333 C   0  0  2  0  0  0  0  0  0  0  0  0
   11.1983  -18.3492   24.3513 N   0  0  0  0  0  0  0  0  0  0  0  0
   11.8719  -18.6656   26.6729 C   0  0  0  0  0  0  0  0  0  0  0  0
   12.1867  -18.2353   27.7973 O   0  0  0  0  0  0  0  0  0  0  0  0
   11.9888  -20.0165   26.4377 O   0  0  0  0  0  0  0  0  0  0  0  0
  1  2  1  0
  3  2  1  0
  4  3  1  0
  5  4  1  0
  5  7  1  0
  5  6  1  6
  7  8  2  0
  9  7  1  0
  9 10  1  0
 10 11  1  6
 11 12  1  0
 12 13  1  0
 13 17  1  0
 13 14  2  0
 15 10  1  0
 15 16  2  0
 18 19  1  0
 20 19  1  1
 20 22  1  0
 20 21  1  0
 21 15  1  0
 22 24  1  0
 23 22  2  0
M  END
$$$$
