MES.pdb
     RDKit          3D

 24 23  0  0  1  0  0  0  0  0999 V2000
    7.6978  -12.0411   26.2409 C   0  0  0  0  0  0  0  0  0  0  0  0
    6.5456  -13.2452   26.8539 S   0  0  0  0  0  0  0  0  0  0  0  0
    6.6905  -14.8409   26.0713 C   0  0  0  0  0  0  0  0  0  0  0  0
    6.9860  -14.7845   24.6134 C   0  0  0  0  0  0  0  0  0  0  0  0
    7.0577  -16.1273   23.9899 C   0  0  2  0  0  0  0  0  0  0  0  0
    5.8841  -16.8770   24.4191 N   0  0  0  0  0  0  0  0  0  0  0  0
    8.3003  -16.8573   24.4571 C   0  0  0  0  0  0  0  0  0  0  0  0
    8.1616  -17.7143   25.3604 O   0  0  0  0  0  0  0  0  0  0  0  0
    9.5349  -16.5378   23.8579 N   0  0  0  0  0  0  0  0  0  0  0  0
   10.7315  -17.3613   24.1568 C   0  0  1  0  0  0  0  0  0  0  0  0
   11.8813  -16.8942   23.3151 C   0  0  0  0  0  0  0  0  0  0  0  0
   11.6137  -17.1056   21.8650 C   0  0  0  0  0  0  0  0  0  0  0  0
   12.8957  -16.9985   21.1039 C   0  0  0  0  0  0  0  0  0  0  0  0
   13.9726  -16.7372   21.6959 O   0  0  0  0  0  0  0  0  0  0  0  0
   11.0415  -17.1382   25.5870 C   0  0  0  0  0  0  0  0  0  0  0  0
   11.2989  -16.0237   26.1108 O   0  0  0  0  0  0  0  0  0  0  0  0
   12.8987  -17.1885   19.7356 O   0  0  0  0  0  0  0  0  0  0  0  0
    9.6453  -19.4769   28.5031 O   0  0  0  0  0  0  0  0  0  0  0  0
   10.2642  -18.2798   28.7800 C   0  0  0  0  0  0  0  0  0  0  0  0
   11.4974  -18.1155   27.8824 C   0  0  2  0  0  0  0  0  0  0  0  0
   11.0761  -18.2216   26.5348 N   0  0  0  0  0  0  0  0  0  0  0  0
   12.4932  -19.0623   28.3316 C   0  0  0  0  0  0  0  0  0  0  0  0
   12.9406  -19.0321   29.4925 O   0  0  0  0  0  0  0  0  0  0  0  0
   12.9724  -20.0270   27.4752 O   0  0  0  0  0  0  0  0  0  0  0  0
  1  2  1  0
  3  2  1  0
  4  3  1  0
  5  4  1  0
  5  7  1  0
  5  6  1  1
  7  8  2  0
  9  7  1  0
  9 10  1  0
 10 11  1  6
 11 12  1  0
 12 13  1  0
 13 17  1  0
 13 14  2  0
 15 10  1  0
 15 16  2  0
 18 19  1  0
 20 19  1  1
 20 22  1  0
 20 21  1  0
 21 15  1  0
 22 24  1  0
 23 22  2  0
M  END
$$$$
