MES.pdb
     RDKit          3D

 24 23  0  0  1  0  0  0  0  0999 V2000
    7.9916  -11.5110   26.6463 C   0  0  0  0  0  0  0  0  0  0  0  0
    6.5998  -12.2377   25.8168 S   0  0  0  0  0  0  0  0  0  0  0  0
    6.8172  -13.9644   25.4281 C   0  0  0  0  0  0  0  0  0  0  0  0
    6.3402  -14.3528   24.0724 C   0  0  0  0  0  0  0  0  0  0  0  0
    7.4443  -14.4909   23.0933 C   0  0  2  0  0  0  0  0  0  0  0  0
    6.8559  -14.8653   21.8137 N   0  0  0  0  0  0  0  0  0  0  0  0
    8.3989  -15.5835   23.5293 C   0  0  0  0  0  0  0  0  0  0  0  0
    7.9091  -16.7045   23.7997 O   0  0  0  0  0  0  0  0  0  0  0  0
    9.7738  -15.2855   23.6074 N   0  0  0  0  0  0  0  0  0  0  0  0
   10.7481  -16.3740   23.8629 C   0  0  1  0  0  0  0  0  0  0  0  0
   12.1161  -15.9282   23.4404 C   0  0  0  0  0  0  0  0  0  0  0  0
   13.1367  -16.9798   23.7084 C   0  0  0  0  0  0  0  0  0  0  0  0
   14.4837  -16.4789   23.2975 C   0  0  0  0  0  0  0  0  0  0  0  0
   15.4196  -16.3991   24.1319 O   0  0  0  0  0  0  0  0  0  0  0  0
   10.7330  -16.6093   25.3244 C   0  0  0  0  0  0  0  0  0  0  0  0
   10.9001  -15.7269   26.2055 O   0  0  0  0  0  0  0  0  0  0  0  0
   14.7041  -16.0995   21.9876 O   0  0  0  0  0  0  0  0  0  0  0  0
    9.8809  -20.4044   26.5459 O   0  0  0  0  0  0  0  0  0  0  0  0
    9.6685  -19.4459   27.5095 C   0  0  0  0  0  0  0  0  0  0  0  0
   10.5898  -18.2455   27.2567 C   0  0  2  0  0  0  0  0  0  0  0  0
   10.5178  -17.9197   25.8807 N   0  0  0  0  0  0  0  0  0  0  0  0
   11.8949  -18.5791   27.7813 C   0  0  0  0  0  0  0  0  0  0  0  0
   12.8957  -18.6364   27.0440 O   0  0  0  0  0  0  0  0  0  0  0  0
   12.0591  -18.8430   29.1219 O   0  0  0  0  0  0  0  0  0  0  0  0
  1  2  1  0
  3  2  1  0
  4  3  1  0
  5  4  1  0
  5  7  1  0
  5  6  1  6
  7  8  2  0
  9  7  1  0
  9 10  1  0
 10 11  1  1
 11 12  1  0
 12 13  1  0
 13 17  1  0
 13 14  2  0
 15 10  1  0
 15 16  2  0
 18 19  1  0
 20 19  1  6
 20 22  1  0
 20 21  1  0
 21 15  1  0
 22 24  1  0
 23 22  2  0
M  END
$$$$
