MES.pdb
     RDKit          3D

 24 23  0  0  1  0  0  0  0  0999 V2000
    5.3524  -10.6221   26.1154 C   0  0  0  0  0  0  0  0  0  0  0  0
    6.5969  -11.8714   26.3247 S   0  0  0  0  0  0  0  0  0  0  0  0
    6.3853  -13.2818   25.2544 C   0  0  0  0  0  0  0  0  0  0  0  0
    7.4247  -14.3354   25.4153 C   0  0  0  0  0  0  0  0  0  0  0  0
    7.2160  -15.4905   24.5103 C   0  0  2  0  0  0  0  0  0  0  0  0
    6.0068  -16.1786   24.9436 N   0  0  0  0  0  0  0  0  0  0  0  0
    8.3842  -16.4502   24.6064 C   0  0  0  0  0  0  0  0  0  0  0  0
    8.3236  -17.3486   25.4775 O   0  0  0  0  0  0  0  0  0  0  0  0
    9.4672  -16.2845   23.7204 N   0  0  0  0  0  0  0  0  0  0  0  0
   10.5397  -17.3077   23.6716 C   0  0  1  0  0  0  0  0  0  0  0  0
   11.5892  -16.8835   22.6881 C   0  0  0  0  0  0  0  0  0  0  0  0
   12.7232  -17.8489   22.6540 C   0  0  0  0  0  0  0  0  0  0  0  0
   13.6690  -17.4640   21.5625 C   0  0  0  0  0  0  0  0  0  0  0  0
   14.7537  -16.8884   21.8278 O   0  0  0  0  0  0  0  0  0  0  0  0
   11.1256  -17.3591   25.0301 C   0  0  0  0  0  0  0  0  0  0  0  0
   11.5448  -16.3669   25.6801 O   0  0  0  0  0  0  0  0  0  0  0  0
   13.3491  -17.7431   20.2478 O   0  0  0  0  0  0  0  0  0  0  0  0
   11.2993  -19.8738   29.1077 O   0  0  0  0  0  0  0  0  0  0  0  0
   10.8480  -19.7126   27.8182 C   0  0  0  0  0  0  0  0  0  0  0  0
   11.7540  -18.7237   27.0733 C   0  0  2  0  0  0  0  0  0  0  0  0
   11.2706  -18.5985   25.7484 N   0  0  0  0  0  0  0  0  0  0  0  0
   13.1175  -19.1775   27.2307 C   0  0  0  0  0  0  0  0  0  0  0  0
   13.6422  -19.2791   28.3545 O   0  0  0  0  0  0  0  0  0  0  0  0
   13.8717  -19.5101   26.1287 O   0  0  0  0  0  0  0  0  0  0  0  0
  1  2  1  0
  3  2  1  0
  4  3  1  0
  5  4  1  0
  5  7  1  0
  5  6  1  1
  7  8  2  0
  9  7  1  0
  9 10  1  0
 10 11  1  6
 11 12  1  0
 12 13  1  0
 13 17  1  0
 13 14  2  0
 15 10  1  0
 15 16  2  0
 18 19  1  0
 20 19  1  1
 20 22  1  0
 20 21  1  0
 21 15  1  0
 22 24  1  0
 23 22  2  0
M  END
$$$$
