MES.pdb
     RDKit          3D

 24 23  0  0  1  0  0  0  0  0999 V2000
    7.5232  -11.5860   26.8521 C   0  0  0  0  0  0  0  0  0  0  0  0
    6.0125  -11.9208   25.9808 S   0  0  0  0  0  0  0  0  0  0  0  0
    6.1981  -13.0857   24.6436 C   0  0  0  0  0  0  0  0  0  0  0  0
    7.1146  -14.2204   24.9414 C   0  0  0  0  0  0  0  0  0  0  0  0
    7.2453  -15.1656   23.8071 C   0  0  2  0  0  0  0  0  0  0  0  0
    5.9319  -15.7483   23.5639 N   0  0  0  0  0  0  0  0  0  0  0  0
    8.2140  -16.2762   24.1583 C   0  0  0  0  0  0  0  0  0  0  0  0
    7.7609  -17.2606   24.7868 O   0  0  0  0  0  0  0  0  0  0  0  0
    9.5604  -16.1457   23.7640 N   0  0  0  0  0  0  0  0  0  0  0  0
   10.5001  -17.2736   23.9743 C   0  0  1  0  0  0  0  0  0  0  0  0
   11.7772  -17.0028   23.2366 C   0  0  0  0  0  0  0  0  0  0  0  0
   11.6565  -17.3560   21.7944 C   0  0  0  0  0  0  0  0  0  0  0  0
   12.9435  -17.0478   21.0994 C   0  0  0  0  0  0  0  0  0  0  0  0
   13.1304  -15.9265   20.5645 O   0  0  0  0  0  0  0  0  0  0  0  0
   10.7691  -17.3233   25.4291 C   0  0  0  0  0  0  0  0  0  0  0  0
   11.0473  -16.3320   26.1522 O   0  0  0  0  0  0  0  0  0  0  0  0
   13.9389  -18.0041   21.0436 O   0  0  0  0  0  0  0  0  0  0  0  0
    8.9937  -19.7687   28.0051 O   0  0  0  0  0  0  0  0  0  0  0  0
   10.3555  -19.9526   28.0690 C   0  0  0  0  0  0  0  0  0  0  0  0
   11.0713  -18.7057   27.5337 C   0  0  2  0  0  0  0  0  0  0  0  0
   10.7339  -18.5595   26.1664 N   0  0  0  0  0  0  0  0  0  0  0  0
   12.4757  -18.8397   27.8490 C   0  0  0  0  0  0  0  0  0  0  0  0
   13.3455  -18.8208   26.9593 O   0  0  0  0  0  0  0  0  0  0  0  0
   12.8841  -18.9928   29.1543 O   0  0  0  0  0  0  0  0  0  0  0  0
  1  2  1  0
  3  2  1  0
  4  3  1  0
  5  4  1  0
  5  7  1  0
  5  6  1  1
  7  8  2  0
  9  7  1  0
  9 10  1  0
 10 11  1  6
 11 12  1  0
 12 13  1  0
 13 17  1  0
 13 14  2  0
 15 10  1  0
 15 16  2  0
 18 19  1  0
 20 19  1  6
 20 22  1  0
 20 21  1  0
 21 15  1  0
 22 24  1  0
 23 22  2  0
M  END
$$$$
