QQW.pdb
     RDKit          3D

 33 34  0  0  1  0  0  0  0  0999 V2000
   25.6962  -29.5304  -16.4117 N   0  0  0  0  0  0  0  0  0  0  0  0
   24.4341  -30.1908  -16.2081 C   0  0  0  0  0  0  0  0  0  0  0  0
   24.4529  -31.3492  -15.7357 O   0  0  0  0  0  0  0  0  0  0  0  0
   23.2356  -29.4422  -16.5723 C   0  0  0  0  0  0  0  0  0  0  0  0
   23.5695  -28.0457  -17.0148 C   0  0  0  0  0  0  0  0  0  0  0  0
   22.8788  -27.0390  -16.1743 C   0  0  2  0  0  0  0  0  0  0  0  0
   21.4380  -27.0461  -16.3424 N   0  0  0  0  0  0  0  0  0  0  0  0
   23.3574  -25.6477  -16.4147 C   0  0  0  0  0  0  0  0  0  0  0  0
   23.5089  -25.2802  -17.5950 O   0  0  0  0  0  0  0  0  0  0  0  0
   20.9114  -20.8170  -15.8312 N   0  0  0  0  0  0  0  0  0  0  0  0
   22.1936  -20.2474  -16.0003 C   0  0  0  0  0  0  0  0  0  0  0  0
   22.3901  -18.9965  -15.9327 O   0  0  0  0  0  0  0  0  0  0  0  0
   23.3499  -21.1344  -16.2653 C   0  0  0  0  0  0  0  0  0  0  0  0
   22.9648  -22.5910  -16.2647 C   0  0  0  0  0  0  0  0  0  0  0  0
   23.8638  -23.3832  -15.3366 C   0  0  2  0  0  0  0  0  0  0  0  0
   23.6237  -24.7927  -15.3321 N   0  0  0  0  0  0  0  0  0  0  0  0
   24.0744  -22.7857  -14.0258 C   0  0  0  0  0  0  0  0  0  0  0  0
   23.4683  -23.1646  -12.9789 O   0  0  0  0  0  0  0  0  0  0  0  0
   24.9979  -21.7198  -13.8651 N   0  0  0  0  0  0  0  0  0  0  0  0
   25.0895  -21.0075  -12.5751 C   0  0  1  0  0  0  0  0  0  0  0  0
   25.6583  -21.9702  -11.5682 C   0  0  0  0  0  0  0  0  0  0  0  0
   25.9444  -21.3026  -10.2888 C   0  0  0  0  0  0  0  0  0  0  0  0
   24.9678  -20.8024   -9.4297 C   0  0  0  0  0  0  0  0  0  0  0  0
   25.5578  -20.3144   -8.3470 N   0  0  0  0  0  0  0  0  0  0  0  0
   26.8900  -20.4764   -8.4665 C   0  0  0  0  0  0  0  0  0  0  0  0
   27.9233  -20.1336   -7.6341 C   0  0  0  0  0  0  0  0  0  0  0  0
   29.2315  -20.3950   -7.9896 C   0  0  0  0  0  0  0  0  0  0  0  0
   29.4819  -21.0020   -9.1874 C   0  0  0  0  0  0  0  0  0  0  0  0
   28.4638  -21.3516  -10.0311 C   0  0  0  0  0  0  0  0  0  0  0  0
   27.1419  -21.0958   -9.6844 C   0  0  0  0  0  0  0  0  0  0  0  0
   25.8778  -19.8053  -12.7946 C   0  0  0  0  0  0  0  0  0  0  0  0
   25.5156  -18.7131  -12.2942 O   0  0  0  0  0  0  0  0  0  0  0  0
   27.0487  -19.7647  -13.5380 O   0  0  0  0  0  0  0  0  0  0  0  0
  2  1  1  0
  3  2  2  0
  4  2  1  0
  5  4  1  0
  6  5  1  0
  6  7  1  6
  8  9  2  0
  8  6  1  0
 10 11  1  0
 11 12  2  0
 11 13  1  0
 13 14  1  0
 15 14  1  1
 15 16  1  0
 16  8  1  0
 17 15  1  0
 17 19  1  0
 18 17  2  0
 20 19  1  0
 20 31  1  0
 20 21  1  1
 22 21  1  0
 23 22  2  0
 24 23  1  0
 24 25  1  0
 25 30  2  0
 26 25  1  0
 26 27  2  0
 27 28  1  0
 28 29  2  0
 30 22  1  0
 30 29  1  0
 31 33  1  0
 32 31  2  0
M  END
$$$$
