QQW.pdb
     RDKit          3D

 33 34  0  0  1  0  0  0  0  0999 V2000
   20.9605  -20.1566  -16.4510 N   0  0  0  0  0  0  0  0  0  0  0  0
   21.3881  -19.0146  -17.2147 C   0  0  0  0  0  0  0  0  0  0  0  0
   20.5512  -18.4742  -17.9717 O   0  0  0  0  0  0  0  0  0  0  0  0
   22.7708  -18.5847  -17.0339 C   0  0  0  0  0  0  0  0  0  0  0  0
   23.4895  -19.4422  -16.0311 C   0  0  0  0  0  0  0  0  0  0  0  0
   24.9529  -19.4273  -16.2661 C   0  0  2  0  0  0  0  0  0  0  0  0
   25.3108  -19.6484  -17.6544 N   0  0  0  0  0  0  0  0  0  0  0  0
   25.6886  -20.4286  -15.4423 C   0  0  0  0  0  0  0  0  0  0  0  0
   25.4865  -21.6352  -15.6755 O   0  0  0  0  0  0  0  0  0  0  0  0
   30.5457  -22.9590  -14.2463 N   0  0  0  0  0  0  0  0  0  0  0  0
   29.9907  -22.3463  -15.3925 C   0  0  0  0  0  0  0  0  0  0  0  0
   30.2751  -22.7304  -16.5670 O   0  0  0  0  0  0  0  0  0  0  0  0
   29.0454  -21.2184  -15.2237 C   0  0  0  0  0  0  0  0  0  0  0  0
   28.7951  -20.8947  -13.7737 C   0  0  0  0  0  0  0  0  0  0  0  0
   27.3087  -20.7925  -13.4957 C   0  0  2  0  0  0  0  0  0  0  0  0
   26.5774  -20.0061  -14.4396 N   0  0  0  0  0  0  0  0  0  0  0  0
   26.9575  -20.5717  -12.1001 C   0  0  0  0  0  0  0  0  0  0  0  0
   27.2134  -19.4984  -11.4759 O   0  0  0  0  0  0  0  0  0  0  0  0
   26.2925  -21.5844  -11.3605 N   0  0  0  0  0  0  0  0  0  0  0  0
   25.8798  -21.3325   -9.9655 C   0  0  1  0  0  0  0  0  0  0  0  0
   27.1203  -20.9988   -9.1818 C   0  0  0  0  0  0  0  0  0  0  0  0
   26.7951  -20.6135   -7.7998 C   0  0  0  0  0  0  0  0  0  0  0  0
   25.5434  -20.7852   -7.2117 C   0  0  0  0  0  0  0  0  0  0  0  0
   25.6039  -20.3851   -5.9489 N   0  0  0  0  0  0  0  0  0  0  0  0
   26.8539  -19.9552   -5.6877 C   0  0  0  0  0  0  0  0  0  0  0  0
   27.4160  -19.4400   -4.5490 C   0  0  0  0  0  0  0  0  0  0  0  0
   28.7399  -19.0487   -4.5312 C   0  0  0  0  0  0  0  0  0  0  0  0
   29.4837  -19.1824   -5.6690 C   0  0  0  0  0  0  0  0  0  0  0  0
   28.9402  -19.6947   -6.8147 C   0  0  0  0  0  0  0  0  0  0  0  0
   27.6089  -20.0944   -6.8458 C   0  0  0  0  0  0  0  0  0  0  0  0
   24.8658  -20.2905   -9.9910 C   0  0  0  0  0  0  0  0  0  0  0  0
   25.1098  -19.1858  -10.5338 O   0  0  0  0  0  0  0  0  0  0  0  0
   23.5963  -20.4233   -9.4471 O   0  0  0  0  0  0  0  0  0  0  0  0
  2  1  1  0
  3  2  2  0
  4  2  1  0
  5  4  1  0
  6  5  1  0
  6  7  1  6
  8  9  2  0
  8  6  1  0
 10 11  1  0
 11 12  2  0
 11 13  1  0
 13 14  1  0
 15 14  1  1
 15 16  1  0
 16  8  1  0
 17 15  1  0
 17 19  1  0
 18 17  2  0
 20 19  1  0
 20 31  1  0
 20 21  1  1
 22 21  1  0
 23 22  2  0
 24 23  1  0
 24 25  1  0
 25 30  2  0
 26 25  1  0
 26 27  2  0
 27 28  1  0
 28 29  2  0
 30 22  1  0
 30 29  1  0
 31 33  1  0
 32 31  2  0
M  END
$$$$
