QQW.pdb
     RDKit          3D

 33 34  0  0  1  0  0  0  0  0999 V2000
   18.6975  -26.6645  -12.7269 N   0  0  0  0  0  0  0  0  0  0  0  0
   18.3982  -26.7262  -14.1330 C   0  0  0  0  0  0  0  0  0  0  0  0
   17.2846  -27.1852  -14.4714 O   0  0  0  0  0  0  0  0  0  0  0  0
   19.4289  -26.2414  -15.0451 C   0  0  0  0  0  0  0  0  0  0  0  0
   20.6432  -25.7613  -14.3018 C   0  0  0  0  0  0  0  0  0  0  0  0
   21.8883  -26.2561  -14.9357 C   0  0  2  0  0  0  0  0  0  0  0  0
   22.0138  -27.7008  -14.8973 N   0  0  0  0  0  0  0  0  0  0  0  0
   23.1226  -25.6768  -14.3327 C   0  0  0  0  0  0  0  0  0  0  0  0
   23.5400  -26.1746  -13.2702 O   0  0  0  0  0  0  0  0  0  0  0  0
   27.8389  -22.2816  -16.9679 N   0  0  0  0  0  0  0  0  0  0  0  0
   27.8887  -21.9058  -15.6064 C   0  0  0  0  0  0  0  0  0  0  0  0
   28.8336  -21.2041  -15.1346 O   0  0  0  0  0  0  0  0  0  0  0  0
   26.8052  -22.3422  -14.6955 C   0  0  0  0  0  0  0  0  0  0  0  0
   25.8164  -23.2515  -15.3780 C   0  0  0  0  0  0  0  0  0  0  0  0
   24.7373  -23.6936  -14.4099 C   0  0  2  0  0  0  0  0  0  0  0  0
   23.7805  -24.6040  -14.9574 N   0  0  0  0  0  0  0  0  0  0  0  0
   24.1812  -22.6328  -13.5822 C   0  0  0  0  0  0  0  0  0  0  0  0
   22.9968  -22.1979  -13.7051 O   0  0  0  0  0  0  0  0  0  0  0  0
   24.9713  -22.0246  -12.5718 N   0  0  0  0  0  0  0  0  0  0  0  0
   24.3990  -20.9585  -11.7257 C   0  0  1  0  0  0  0  0  0  0  0  0
   24.7583  -21.2739  -10.2990 C   0  0  0  0  0  0  0  0  0  0  0  0
   26.1904  -21.0537  -10.0444 C   0  0  0  0  0  0  0  0  0  0  0  0
   27.1982  -21.2899  -10.9775 C   0  0  0  0  0  0  0  0  0  0  0  0
   28.3630  -20.9401  -10.4491 N   0  0  0  0  0  0  0  0  0  0  0  0
   28.1544  -20.4828   -9.1990 C   0  0  0  0  0  0  0  0  0  0  0  0
   29.0235  -20.0181   -8.2468 C   0  0  0  0  0  0  0  0  0  0  0  0
   28.5632  -19.6119   -7.0102 C   0  0  0  0  0  0  0  0  0  0  0  0
   27.2243  -19.6807   -6.7485 C   0  0  0  0  0  0  0  0  0  0  0  0
   26.3417  -20.1413   -7.6863 C   0  0  0  0  0  0  0  0  0  0  0  0
   26.7918  -20.5516   -8.9362 C   0  0  0  0  0  0  0  0  0  0  0  0
   24.9022  -19.6881  -12.2234 C   0  0  0  0  0  0  0  0  0  0  0  0
   24.4926  -18.6100  -11.7293 O   0  0  0  0  0  0  0  0  0  0  0  0
   25.8404  -19.5639  -13.2381 O   0  0  0  0  0  0  0  0  0  0  0  0
  2  1  1  0
  3  2  2  0
  4  2  1  0
  5  4  1  0
  6  5  1  0
  6  7  1  1
  8  9  2  0
  8  6  1  0
 10 11  1  0
 11 12  2  0
 11 13  1  0
 13 14  1  0
 15 14  1  6
 15 16  1  0
 16  8  1  0
 17 15  1  0
 17 19  1  0
 18 17  2  0
 20 19  1  0
 20 31  1  0
 20 21  1  1
 22 21  1  0
 23 22  2  0
 24 23  1  0
 24 25  1  0
 25 30  2  0
 26 25  1  0
 26 27  2  0
 27 28  1  0
 28 29  2  0
 30 22  1  0
 30 29  1  0
 31 33  1  0
 32 31  2  0
M  END
$$$$
