QQW.pdb
     RDKit          3D

 33 34  0  0  1  0  0  0  0  0999 V2000
   26.6846  -19.3559  -19.1526 N   0  0  0  0  0  0  0  0  0  0  0  0
   26.4406  -17.9416  -19.0492 C   0  0  0  0  0  0  0  0  0  0  0  0
   27.2812  -17.1672  -19.5581 O   0  0  0  0  0  0  0  0  0  0  0  0
   25.2228  -17.5348  -18.3558 C   0  0  0  0  0  0  0  0  0  0  0  0
   24.4874  -18.7171  -17.7909 C   0  0  0  0  0  0  0  0  0  0  0  0
   23.1786  -18.3121  -17.2252 C   0  0  2  0  0  0  0  0  0  0  0  0
   22.8144  -16.9458  -17.5489 N   0  0  0  0  0  0  0  0  0  0  0  0
   23.1096  -18.4616  -15.7434 C   0  0  0  0  0  0  0  0  0  0  0  0
   23.5934  -17.5520  -15.0437 O   0  0  0  0  0  0  0  0  0  0  0  0
   19.2502  -19.4734  -11.8991 N   0  0  0  0  0  0  0  0  0  0  0  0
   20.1869  -20.2461  -11.1762 C   0  0  0  0  0  0  0  0  0  0  0  0
   20.1823  -20.2999   -9.9093 O   0  0  0  0  0  0  0  0  0  0  0  0
   21.2099  -21.0209  -11.9160 C   0  0  0  0  0  0  0  0  0  0  0  0
   21.1996  -20.7178  -13.3918 C   0  0  0  0  0  0  0  0  0  0  0  0
   22.4696  -19.9986  -13.8006 C   0  0  2  0  0  0  0  0  0  0  0  0
   22.5142  -19.5990  -15.1727 N   0  0  0  0  0  0  0  0  0  0  0  0
   23.6999  -20.5809  -13.2839 C   0  0  0  0  0  0  0  0  0  0  0  0
   24.1921  -21.6684  -13.7106 O   0  0  0  0  0  0  0  0  0  0  0  0
   24.4193  -19.9305  -12.2474 N   0  0  0  0  0  0  0  0  0  0  0  0
   25.6601  -20.5306  -11.7179 C   0  0  1  0  0  0  0  0  0  0  0  0
   26.3664  -19.4713  -10.9159 C   0  0  0  0  0  0  0  0  0  0  0  0
   27.4590  -20.0438  -10.1141 C   0  0  0  0  0  0  0  0  0  0  0  0
   28.5331  -20.7545  -10.6464 C   0  0  0  0  0  0  0  0  0  0  0  0
   29.3604  -21.0821   -9.6633 N   0  0  0  0  0  0  0  0  0  0  0  0
   28.8651  -20.6111   -8.5021 C   0  0  0  0  0  0  0  0  0  0  0  0
   29.3327  -20.6947   -7.2167 C   0  0  0  0  0  0  0  0  0  0  0  0
   28.6259  -20.1344   -6.1715 C   0  0  0  0  0  0  0  0  0  0  0  0
   27.4493  -19.4937   -6.4380 C   0  0  0  0  0  0  0  0  0  0  0  0
   26.9669  -19.3999   -7.7143 C   0  0  0  0  0  0  0  0  0  0  0  0
   27.6697  -19.9580   -8.7762 C   0  0  0  0  0  0  0  0  0  0  0  0
   25.2861  -21.7227  -10.9737 C   0  0  0  0  0  0  0  0  0  0  0  0
   24.2149  -21.7488  -10.3209 O   0  0  0  0  0  0  0  0  0  0  0  0
   26.0442  -22.8838  -10.9276 O   0  0  0  0  0  0  0  0  0  0  0  0
  2  1  1  0
  3  2  2  0
  4  2  1  0
  5  4  1  0
  6  5  1  0
  6  7  1  1
  8  9  2  0
  8  6  1  0
 10 11  1  0
 11 12  2  0
 11 13  1  0
 13 14  1  0
 15 14  1  6
 15 16  1  0
 16  8  1  0
 17 15  1  0
 17 19  1  0
 18 17  2  0
 20 19  1  0
 20 31  1  0
 20 21  1  1
 22 21  1  0
 23 22  2  0
 24 23  1  0
 24 25  1  0
 25 30  2  0
 26 25  1  0
 26 27  2  0
 27 28  1  0
 28 29  2  0
 30 22  1  0
 30 29  1  0
 31 33  1  0
 32 31  2  0
M  END
$$$$
