QQW.pdb
     RDKit          3D

 33 34  0  0  1  0  0  0  0  0999 V2000
   30.4538  -19.4203  -20.6212 N   0  0  0  0  0  0  0  0  0  0  0  0
   30.7151  -20.8261  -20.7822 C   0  0  0  0  0  0  0  0  0  0  0  0
   30.8479  -21.2638  -21.9468 O   0  0  0  0  0  0  0  0  0  0  0  0
   30.8049  -21.6208  -19.5617 C   0  0  0  0  0  0  0  0  0  0  0  0
   30.5658  -20.7827  -18.3377 C   0  0  0  0  0  0  0  0  0  0  0  0
   29.2479  -21.0860  -17.7311 C   0  0  2  0  0  0  0  0  0  0  0  0
   28.1391  -20.8882  -18.6453 N   0  0  0  0  0  0  0  0  0  0  0  0
   28.9713  -20.2884  -16.5023 C   0  0  0  0  0  0  0  0  0  0  0  0
   29.5344  -19.1835  -16.3867 O   0  0  0  0  0  0  0  0  0  0  0  0
   25.7936  -16.3328  -15.5036 N   0  0  0  0  0  0  0  0  0  0  0  0
   25.0491  -17.4967  -15.8009 C   0  0  0  0  0  0  0  0  0  0  0  0
   23.9197  -17.4464  -16.3751 O   0  0  0  0  0  0  0  0  0  0  0  0
   25.6000  -18.8214  -15.4325 C   0  0  0  0  0  0  0  0  0  0  0  0
   26.9506  -18.7155  -14.7732 C   0  0  0  0  0  0  0  0  0  0  0  0
   27.4879  -20.0897  -14.4271 C   0  0  2  0  0  0  0  0  0  0  0  0
   28.1005  -20.7832  -15.5171 N   0  0  0  0  0  0  0  0  0  0  0  0
   26.6141  -20.8990  -13.5896 C   0  0  0  0  0  0  0  0  0  0  0  0
   25.8029  -21.7576  -14.0498 O   0  0  0  0  0  0  0  0  0  0  0  0
   26.6384  -20.7521  -12.1780 N   0  0  0  0  0  0  0  0  0  0  0  0
   25.8697  -21.6790  -11.3237 C   0  0  1  0  0  0  0  0  0  0  0  0
   26.6959  -21.9498  -10.0955 C   0  0  0  0  0  0  0  0  0  0  0  0
   26.7044  -20.7921   -9.1878 C   0  0  0  0  0  0  0  0  0  0  0  0
   25.7284  -19.7975   -9.1763 C   0  0  0  0  0  0  0  0  0  0  0  0
   26.0057  -18.9352   -8.2078 N   0  0  0  0  0  0  0  0  0  0  0  0
   27.1323  -19.3296   -7.5829 C   0  0  0  0  0  0  0  0  0  0  0  0
   27.8301  -18.7801   -6.5393 C   0  0  0  0  0  0  0  0  0  0  0  0
   28.9883  -19.3720   -6.0762 C   0  0  0  0  0  0  0  0  0  0  0  0
   29.4304  -20.5169   -6.6758 C   0  0  0  0  0  0  0  0  0  0  0  0
   28.7474  -21.0801   -7.7183 C   0  0  0  0  0  0  0  0  0  0  0  0
   27.5787  -20.4954   -8.1931 C   0  0  0  0  0  0  0  0  0  0  0  0
   24.5729  -21.0700  -11.0744 C   0  0  0  0  0  0  0  0  0  0  0  0
   24.4048  -19.8418  -11.2685 O   0  0  0  0  0  0  0  0  0  0  0  0
   23.4582  -21.7637  -10.6259 O   0  0  0  0  0  0  0  0  0  0  0  0
  2  1  1  0
  3  2  2  0
  4  2  1  0
  5  4  1  0
  6  5  1  0
  6  7  1  6
  8  9  2  0
  8  6  1  0
 10 11  1  0
 11 12  2  0
 11 13  1  0
 13 14  1  0
 15 14  1  6
 15 16  1  0
 16  8  1  0
 17 15  1  0
 17 19  1  0
 18 17  2  0
 20 19  1  0
 20 31  1  0
 20 21  1  1
 22 21  1  0
 23 22  2  0
 24 23  1  0
 24 25  1  0
 25 30  2  0
 26 25  1  0
 26 27  2  0
 27 28  1  0
 28 29  2  0
 30 22  1  0
 30 29  1  0
 31 33  1  0
 32 31  2  0
M  END
$$$$
