QQW.pdb
     RDKit          3D

 33 34  0  0  1  0  0  0  0  0999 V2000
   23.2499  -19.6666   -8.3205 N   0  0  0  0  0  0  0  0  0  0  0  0
   23.1703  -21.0916   -8.1371 C   0  0  0  0  0  0  0  0  0  0  0  0
   22.8667  -21.5160   -7.0001 O   0  0  0  0  0  0  0  0  0  0  0  0
   23.4512  -21.9200   -9.3051 C   0  0  0  0  0  0  0  0  0  0  0  0
   23.7959  -21.0845  -10.5054 C   0  0  0  0  0  0  0  0  0  0  0  0
   24.0953  -21.9358  -11.6812 C   0  0  2  0  0  0  0  0  0  0  0  0
   25.2088  -22.8396  -11.4634 N   0  0  0  0  0  0  0  0  0  0  0  0
   24.3827  -21.1499  -12.9151 C   0  0  0  0  0  0  0  0  0  0  0  0
   25.4605  -20.5283  -12.9712 O   0  0  0  0  0  0  0  0  0  0  0  0
   23.4633  -24.2050  -16.0109 N   0  0  0  0  0  0  0  0  0  0  0  0
   24.8003  -23.7576  -15.9137 C   0  0  0  0  0  0  0  0  0  0  0  0
   25.7606  -24.5495  -15.6718 O   0  0  0  0  0  0  0  0  0  0  0  0
   25.0966  -22.3182  -16.0996 C   0  0  0  0  0  0  0  0  0  0  0  0
   23.8567  -21.5119  -16.3870 C   0  0  0  0  0  0  0  0  0  0  0  0
   23.5832  -20.5301  -15.2652 C   0  0  2  0  0  0  0  0  0  0  0  0
   23.4558  -21.1232  -13.9705 N   0  0  0  0  0  0  0  0  0  0  0  0
   22.6021  -19.4999  -15.5748 C   0  0  0  0  0  0  0  0  0  0  0  0
   21.3670  -19.6083  -15.3107 O   0  0  0  0  0  0  0  0  0  0  0  0
   23.0055  -18.2940  -16.2057 N   0  0  0  0  0  0  0  0  0  0  0  0
   22.0017  -17.2684  -16.5531 C   0  0  1  0  0  0  0  0  0  0  0  0
   22.7393  -15.9787  -16.7916 C   0  0  0  0  0  0  0  0  0  0  0  0
   21.8230  -14.9043  -17.2043 C   0  0  0  0  0  0  0  0  0  0  0  0
   21.2665  -13.9703  -16.3325 C   0  0  0  0  0  0  0  0  0  0  0  0
   20.5337  -13.1141  -17.0314 N   0  0  0  0  0  0  0  0  0  0  0  0
   20.5893  -13.4551  -18.3337 C   0  0  0  0  0  0  0  0  0  0  0  0
   20.0033  -12.9012  -19.4417 C   0  0  0  0  0  0  0  0  0  0  0  0
   20.2020  -13.4497  -20.6931 C   0  0  0  0  0  0  0  0  0  0  0  0
   20.9936  -14.5566  -20.8110 C   0  0  0  0  0  0  0  0  0  0  0  0
   21.5870  -15.1231  -19.7168 C   0  0  0  0  0  0  0  0  0  0  0  0
   21.3967  -14.5797  -18.4513 C   0  0  0  0  0  0  0  0  0  0  0  0
   21.2436  -17.7662  -17.6898 C   0  0  0  0  0  0  0  0  0  0  0  0
   21.7844  -18.5347  -18.5213 O   0  0  0  0  0  0  0  0  0  0  0  0
   19.9151  -17.4531  -17.9393 O   0  0  0  0  0  0  0  0  0  0  0  0
  2  1  1  0
  3  2  2  0
  4  2  1  0
  5  4  1  0
  6  5  1  0
  6  7  1  1
  8  9  2  0
  8  6  1  0
 10 11  1  0
 11 12  2  0
 11 13  1  0
 13 14  1  0
 15 14  1  6
 15 16  1  0
 16  8  1  0
 17 15  1  0
 17 19  1  0
 18 17  2  0
 20 19  1  0
 20 31  1  0
 20 21  1  6
 22 21  1  0
 23 22  2  0
 24 23  1  0
 24 25  1  0
 25 30  2  0
 26 25  1  0
 26 27  2  0
 27 28  1  0
 28 29  2  0
 30 22  1  0
 30 29  1  0
 31 33  1  0
 32 31  2  0
M  END
$$$$
