QQW.pdb
     RDKit          3D

 33 34  0  0  1  0  0  0  0  0999 V2000
   30.3960  -26.2512  -15.9729 N   0  0  0  0  0  0  0  0  0  0  0  0
   30.3884  -25.4363  -17.1588 C   0  0  0  0  0  0  0  0  0  0  0  0
   29.5888  -25.7432  -18.0707 O   0  0  0  0  0  0  0  0  0  0  0  0
   31.3208  -24.3142  -17.1897 C   0  0  0  0  0  0  0  0  0  0  0  0
   30.6794  -23.0488  -16.6950 C   0  0  0  0  0  0  0  0  0  0  0  0
   29.5158  -22.6758  -17.5340 C   0  0  2  0  0  0  0  0  0  0  0  0
   29.8932  -22.1213  -18.8202 N   0  0  0  0  0  0  0  0  0  0  0  0
   28.6029  -21.7021  -16.8698 C   0  0  0  0  0  0  0  0  0  0  0  0
   29.0367  -20.5560  -16.6477 O   0  0  0  0  0  0  0  0  0  0  0  0
   24.2449  -18.2631  -16.1078 N   0  0  0  0  0  0  0  0  0  0  0  0
   25.2502  -18.6277  -17.0316 C   0  0  0  0  0  0  0  0  0  0  0  0
   26.1001  -17.7938  -17.4675 O   0  0  0  0  0  0  0  0  0  0  0  0
   25.3193  -20.0279  -17.5103 C   0  0  0  0  0  0  0  0  0  0  0  0
   25.0592  -21.0220  -16.4085 C   0  0  0  0  0  0  0  0  0  0  0  0
   26.3486  -21.3883  -15.7011 C   0  0  2  0  0  0  0  0  0  0  0  0
   27.2985  -22.0830  -16.5130 N   0  0  0  0  0  0  0  0  0  0  0  0
   26.1831  -21.9134  -14.3532 C   0  0  0  0  0  0  0  0  0  0  0  0
   26.7396  -22.9760  -13.9434 O   0  0  0  0  0  0  0  0  0  0  0  0
   25.3645  -21.2317  -13.4151 N   0  0  0  0  0  0  0  0  0  0  0  0
   25.2592  -21.7255  -12.0276 C   0  0  1  0  0  0  0  0  0  0  0  0
   26.6332  -21.6535  -11.4183 C   0  0  0  0  0  0  0  0  0  0  0  0
   26.6075  -20.9722  -10.1146 C   0  0  0  0  0  0  0  0  0  0  0  0
   25.4630  -20.4241   -9.5387 C   0  0  0  0  0  0  0  0  0  0  0  0
   25.7744  -19.9359   -8.3457 N   0  0  0  0  0  0  0  0  0  0  0  0
   27.0861  -20.1442   -8.1188 C   0  0  0  0  0  0  0  0  0  0  0  0
   27.8845  -19.8205   -7.0531 C   0  0  0  0  0  0  0  0  0  0  0  0
   29.2296  -20.1317   -7.0596 C   0  0  0  0  0  0  0  0  0  0  0  0
   29.7550  -20.7686   -8.1477 C   0  0  0  0  0  0  0  0  0  0  0  0
   28.9740  -21.0999   -9.2204 C   0  0  0  0  0  0  0  0  0  0  0  0
   27.6177  -20.7941   -9.2259 C   0  0  0  0  0  0  0  0  0  0  0  0
   24.2430  -20.9307  -11.3567 C   0  0  0  0  0  0  0  0  0  0  0  0
   23.9517  -19.7877  -11.7844 O   0  0  0  0  0  0  0  0  0  0  0  0
   23.5356  -21.3505  -10.2393 O   0  0  0  0  0  0  0  0  0  0  0  0
  2  1  1  0
  3  2  2  0
  4  2  1  0
  5  4  1  0
  6  5  1  0
  6  7  1  6
  8  9  2  0
  8  6  1  0
 10 11  1  0
 11 12  2  0
 11 13  1  0
 13 14  1  0
 15 14  1  6
 15 16  1  0
 16  8  1  0
 17 15  1  0
 17 19  1  0
 18 17  2  0
 20 19  1  0
 20 31  1  0
 20 21  1  1
 22 21  1  0
 23 22  2  0
 24 23  1  0
 24 25  1  0
 25 30  2  0
 26 25  1  0
 26 27  2  0
 27 28  1  0
 28 29  2  0
 30 22  1  0
 30 29  1  0
 31 33  1  0
 32 31  2  0
M  END
$$$$
