KHK.pdb
     RDKit          3D

 29 29  0  0  1  0  0  0  0  0999 V2000
    9.0599  -16.1755   15.5275 N   0  0  0  0  0  0  0  0  0  0  0  0
    9.9638  -17.0178   16.2802 C   0  0  1  0  0  0  0  0  0  0  0  0
   11.1358  -17.3291   15.3763 C   0  0  0  0  0  0  0  0  0  0  0  0
   11.4749  -18.7887   15.5851 C   0  0  0  0  0  0  0  0  0  0  0  0
   12.5684  -19.2915   14.7026 C   0  0  0  0  0  0  0  0  0  0  0  0
   12.7728  -20.7709   14.9096 C   0  0  0  0  0  0  0  0  0  0  0  0
   13.7796  -21.1861   13.9282 N   0  0  0  0  0  0  0  0  0  0  0  0
   10.3737  -16.2941   17.5013 C   0  0  0  0  0  0  0  0  0  0  0  0
   10.8748  -15.1538   17.3974 O   0  0  0  0  0  0  0  0  0  0  0  0
   10.2288  -16.8287   18.8099 N   0  0  0  0  0  0  0  0  0  0  0  0
   10.5648  -16.0644   20.0123 C   0  0  1  0  0  0  0  0  0  0  0  0
    9.3463  -15.8438   20.8478 C   0  0  0  0  0  0  0  0  0  0  0  0
    8.3933  -14.8596   20.3160 C   0  0  0  0  0  0  0  0  0  0  0  0
    7.1606  -15.1356   19.7901 C   0  0  0  0  0  0  0  0  0  0  0  0
    6.6287  -13.9415   19.4179 N   0  0  0  0  0  0  0  0  0  0  0  0
    7.5132  -12.9713   19.7098 C   0  0  0  0  0  0  0  0  0  0  0  0
    8.6053  -13.5184   20.2633 N   0  0  0  0  0  0  0  0  0  0  0  0
   11.6761  -16.7387   20.7519 C   0  0  0  0  0  0  0  0  0  0  0  0
   11.6810  -17.9903   20.8507 O   0  0  0  0  0  0  0  0  0  0  0  0
   12.6917  -15.9569   21.3218 N   0  0  0  0  0  0  0  0  0  0  0  0
   13.8144  -16.5614   22.0098 C   0  0  1  0  0  0  0  0  0  0  0  0
   14.9143  -15.5297   22.0171 C   0  0  0  0  0  0  0  0  0  0  0  0
   16.2107  -16.0503   22.5801 C   0  0  0  0  0  0  0  0  0  0  0  0
   17.2416  -14.9339   22.6439 C   0  0  0  0  0  0  0  0  0  0  0  0
   18.5453  -15.5810   23.0870 C   0  0  0  0  0  0  0  0  0  0  0  0
   19.5766  -14.5506   23.1236 N   0  0  0  0  0  0  0  0  0  0  0  0
   13.4106  -17.0357   23.3350 C   0  0  0  0  0  0  0  0  0  0  0  0
   13.9418  -18.0274   23.8793 O   0  0  0  0  0  0  0  0  0  0  0  0
   12.4105  -16.3802   24.0241 O   0  0  0  0  0  0  0  0  0  0  0  0
  2  8  1  0
  2  1  1  6
  3  2  1  0
  4  3  1  0
  4  5  1  0
  5  6  1  0
  7  6  1  0
  8  9  2  0
 10 11  1  0
 10  8  1  0
 12 13  1  0
 11 12  1  1
 13 14  2  0
 14 15  1  0
 16 15  1  0
 17 13  1  0
 17 16  2  0
 18 11  1  0
 19 18  2  0
 20 18  1  0
 21 20  1  0
 21 27  1  0
 21 22  1  1
 23 22  1  0
 23 24  1  0
 25 24  1  0
 26 25  1  0
 27 29  1  0
 28 27  2  0
M  END
$$$$
