KHK.pdb
     RDKit          3D

 29 29  0  0  1  0  0  0  0  0999 V2000
    8.2310  -16.0882   19.5008 N   0  0  0  0  0  0  0  0  0  0  0  0
    9.4215  -15.3355   19.8309 C   0  0  1  0  0  0  0  0  0  0  0  0
    9.4323  -14.1111   18.9431 C   0  0  0  0  0  0  0  0  0  0  0  0
    8.8560  -14.5318   17.6089 C   0  0  0  0  0  0  0  0  0  0  0  0
    8.8005  -13.4359   16.5974 C   0  0  0  0  0  0  0  0  0  0  0  0
    8.2901  -13.9620   15.2798 C   0  0  0  0  0  0  0  0  0  0  0  0
    8.3483  -12.8380   14.3404 N   0  0  0  0  0  0  0  0  0  0  0  0
    9.3746  -14.9874   21.2661 C   0  0  0  0  0  0  0  0  0  0  0  0
   10.3489  -14.4016   21.7856 O   0  0  0  0  0  0  0  0  0  0  0  0
    8.2669  -15.2852   22.1047 N   0  0  0  0  0  0  0  0  0  0  0  0
    8.2598  -14.9774   23.5358 C   0  0  1  0  0  0  0  0  0  0  0  0
    7.0878  -14.1170   23.8787 C   0  0  0  0  0  0  0  0  0  0  0  0
    6.9904  -13.7275   25.2923 C   0  0  0  0  0  0  0  0  0  0  0  0
    7.7493  -12.7771   25.9195 C   0  0  0  0  0  0  0  0  0  0  0  0
    7.3325  -12.7487   27.2129 N   0  0  0  0  0  0  0  0  0  0  0  0
    6.3504  -13.6551   27.3642 C   0  0  0  0  0  0  0  0  0  0  0  0
    6.1267  -14.2670   26.1921 N   0  0  0  0  0  0  0  0  0  0  0  0
    8.3183  -16.2430   24.3305 C   0  0  0  0  0  0  0  0  0  0  0  0
    7.6111  -17.2213   23.9854 O   0  0  0  0  0  0  0  0  0  0  0  0
    9.1632  -16.3105   25.4480 N   0  0  0  0  0  0  0  0  0  0  0  0
    9.2770  -17.5202   26.2373 C   0  0  1  0  0  0  0  0  0  0  0  0
   10.4676  -17.3272   27.1424 C   0  0  0  0  0  0  0  0  0  0  0  0
   10.7593  -18.5294   28.0015 C   0  0  0  0  0  0  0  0  0  0  0  0
   11.9845  -18.2729   28.8654 C   0  0  0  0  0  0  0  0  0  0  0  0
   12.1447  -19.4974   29.7542 C   0  0  0  0  0  0  0  0  0  0  0  0
   13.2601  -19.2588   30.6628 N   0  0  0  0  0  0  0  0  0  0  0  0
    8.0188  -17.8014   26.9316 C   0  0  0  0  0  0  0  0  0  0  0  0
    7.6408  -18.9659   27.1823 O   0  0  0  0  0  0  0  0  0  0  0  0
    7.2068  -16.7595   27.3312 O   0  0  0  0  0  0  0  0  0  0  0  0
  2  8  1  0
  2  1  1  6
  3  2  1  0
  4  3  1  0
  4  5  1  0
  5  6  1  0
  7  6  1  0
  8  9  2  0
 10 11  1  0
 10  8  1  0
 12 13  1  0
 11 12  1  1
 13 14  2  0
 14 15  1  0
 16 15  1  0
 17 13  1  0
 17 16  2  0
 18 11  1  0
 19 18  2  0
 20 18  1  0
 21 20  1  0
 21 27  1  0
 21 22  1  1
 23 22  1  0
 23 24  1  0
 25 24  1  0
 26 25  1  0
 27 29  1  0
 28 27  2  0
M  END
$$$$
