KHK.pdb
     RDKit          3D

 29 29  0  0  1  0  0  0  0  0999 V2000
   10.4168  -16.2953   16.0871 N   0  0  0  0  0  0  0  0  0  0  0  0
   10.4301  -15.3437   17.1767 C   0  0  1  0  0  0  0  0  0  0  0  0
    9.0690  -15.4029   17.8335 C   0  0  0  0  0  0  0  0  0  0  0  0
    8.2690  -14.2394   17.2902 C   0  0  0  0  0  0  0  0  0  0  0  0
    7.1046  -13.8522   18.1397 C   0  0  0  0  0  0  0  0  0  0  0  0
    6.4199  -12.6356   17.5702 C   0  0  0  0  0  0  0  0  0  0  0  0
    5.2679  -12.3710   18.4374 N   0  0  0  0  0  0  0  0  0  0  0  0
   11.5183  -15.7092   18.1068 C   0  0  0  0  0  0  0  0  0  0  0  0
   11.7371  -16.9159   18.3483 O   0  0  0  0  0  0  0  0  0  0  0  0
   12.3449  -14.7518   18.7541 N   0  0  0  0  0  0  0  0  0  0  0  0
   13.3998  -15.1328   19.6949 C   0  0  1  0  0  0  0  0  0  0  0  0
   14.4404  -14.0639   19.7729 C   0  0  0  0  0  0  0  0  0  0  0  0
   15.4418  -14.0865   18.6977 C   0  0  0  0  0  0  0  0  0  0  0  0
   15.7483  -15.1594   17.9057 C   0  0  0  0  0  0  0  0  0  0  0  0
   16.7256  -14.7413   17.0586 N   0  0  0  0  0  0  0  0  0  0  0  0
   17.0026  -13.4535   17.3298 C   0  0  0  0  0  0  0  0  0  0  0  0
   16.2217  -13.0340   18.3362 N   0  0  0  0  0  0  0  0  0  0  0  0
   12.8011  -15.4748   21.0221 C   0  0  0  0  0  0  0  0  0  0  0  0
   11.9506  -14.7046   21.5320 O   0  0  0  0  0  0  0  0  0  0  0  0
   13.2037  -16.6509   21.6715 N   0  0  0  0  0  0  0  0  0  0  0  0
   12.6434  -17.0377   22.9504 C   0  0  1  0  0  0  0  0  0  0  0  0
   12.5175  -18.5402   22.9229 C   0  0  0  0  0  0  0  0  0  0  0  0
   11.9340  -19.1088   24.1897 C   0  0  0  0  0  0  0  0  0  0  0  0
   11.8223  -20.6219   24.0836 C   0  0  0  0  0  0  0  0  0  0  0  0
   11.2118  -21.0981   25.3933 C   0  0  0  0  0  0  0  0  0  0  0  0
   11.2356  -22.5562   25.4040 N   0  0  0  0  0  0  0  0  0  0  0  0
   13.4564  -16.5110   24.0485 C   0  0  0  0  0  0  0  0  0  0  0  0
   14.6401  -16.1446   23.8861 O   0  0  0  0  0  0  0  0  0  0  0  0
   12.9170  -16.4076   25.3146 O   0  0  0  0  0  0  0  0  0  0  0  0
  2  8  1  0
  2  1  1  6
  3  2  1  0
  4  3  1  0
  4  5  1  0
  5  6  1  0
  7  6  1  0
  8  9  2  0
 10 11  1  0
 10  8  1  0
 12 13  1  0
 11 12  1  1
 13 14  2  0
 14 15  1  0
 16 15  1  0
 17 13  1  0
 17 16  2  0
 18 11  1  0
 19 18  2  0
 20 18  1  0
 21 20  1  0
 21 27  1  0
 21 22  1  6
 23 22  1  0
 23 24  1  0
 25 24  1  0
 26 25  1  0
 27 29  1  0
 28 27  2  0
M  END
$$$$
