KHK.pdb
     RDKit          3D

 29 29  0  0  1  0  0  0  0  0999 V2000
   11.1161  -16.5521   19.8621 N   0  0  0  0  0  0  0  0  0  0  0  0
    9.7729  -16.6227   20.3947 C   0  0  1  0  0  0  0  0  0  0  0  0
    9.3522  -18.0746   20.3456 C   0  0  0  0  0  0  0  0  0  0  0  0
   10.4596  -18.8284   19.6424 C   0  0  0  0  0  0  0  0  0  0  0  0
   10.2392  -20.3026   19.5667 C   0  0  0  0  0  0  0  0  0  0  0  0
   11.3836  -20.9688   18.8457 C   0  0  0  0  0  0  0  0  0  0  0  0
   11.1052  -22.4078   18.8782 N   0  0  0  0  0  0  0  0  0  0  0  0
    9.7846  -16.0882   21.7721 C   0  0  0  0  0  0  0  0  0  0  0  0
   10.8172  -16.2086   22.4661 O   0  0  0  0  0  0  0  0  0  0  0  0
    8.6708  -15.4339   22.3638 N   0  0  0  0  0  0  0  0  0  0  0  0
    8.6704  -14.9905   23.7590 C   0  0  1  0  0  0  0  0  0  0  0  0
    7.4015  -14.2692   24.0768 C   0  0  0  0  0  0  0  0  0  0  0  0
    7.3587  -13.6329   25.4008 C   0  0  0  0  0  0  0  0  0  0  0  0
    8.3346  -13.6994   26.3577 C   0  0  0  0  0  0  0  0  0  0  0  0
    7.8798  -12.9793   27.4170 N   0  0  0  0  0  0  0  0  0  0  0  0
    6.6645  -12.4915   27.1104 C   0  0  0  0  0  0  0  0  0  0  0  0
    6.3279  -12.8839   25.8731 N   0  0  0  0  0  0  0  0  0  0  0  0
    8.9344  -16.1518   24.6637 C   0  0  0  0  0  0  0  0  0  0  0  0
    8.3248  -17.2329   24.4736 O   0  0  0  0  0  0  0  0  0  0  0  0
    9.8587  -16.0083   25.7088 N   0  0  0  0  0  0  0  0  0  0  0  0
   10.1930  -17.1172   26.5794 C   0  0  1  0  0  0  0  0  0  0  0  0
   11.2857  -17.8896   25.8841 C   0  0  0  0  0  0  0  0  0  0  0  0
   11.8337  -19.0193   26.7159 C   0  0  0  0  0  0  0  0  0  0  0  0
   12.9248  -19.7531   25.9517 C   0  0  0  0  0  0  0  0  0  0  0  0
   13.3756  -20.8991   26.8453 C   0  0  0  0  0  0  0  0  0  0  0  0
   14.5119  -21.5545   26.2082 N   0  0  0  0  0  0  0  0  0  0  0  0
   10.5405  -16.6340   27.9173 C   0  0  0  0  0  0  0  0  0  0  0  0
   10.2800  -17.2863   28.9509 O   0  0  0  0  0  0  0  0  0  0  0  0
   11.1774  -15.4185   28.0648 O   0  0  0  0  0  0  0  0  0  0  0  0
  2  8  1  0
  2  1  1  1
  3  2  1  0
  4  3  1  0
  4  5  1  0
  5  6  1  0
  7  6  1  0
  8  9  2  0
 10 11  1  0
 10  8  1  0
 12 13  1  0
 11 12  1  1
 13 14  2  0
 14 15  1  0
 16 15  1  0
 17 13  1  0
 17 16  2  0
 18 11  1  0
 19 18  2  0
 20 18  1  0
 21 20  1  0
 21 27  1  0
 21 22  1  6
 23 22  1  0
 23 24  1  0
 25 24  1  0
 26 25  1  0
 27 29  1  0
 28 27  2  0
M  END
$$$$
