KHK.pdb
     RDKit          3D

 29 29  0  0  1  0  0  0  0  0999 V2000
    9.9045  -17.4166   17.3169 N   0  0  0  0  0  0  0  0  0  0  0  0
    9.7495  -18.2425   18.4945 C   0  0  1  0  0  0  0  0  0  0  0  0
   10.7929  -19.3342   18.4107 C   0  0  0  0  0  0  0  0  0  0  0  0
   10.5683  -20.0558   17.1000 C   0  0  0  0  0  0  0  0  0  0  0  0
    9.5588  -21.1524   17.1744 C   0  0  0  0  0  0  0  0  0  0  0  0
    9.4382  -21.8472   15.8418 C   0  0  0  0  0  0  0  0  0  0  0  0
    8.4402  -22.9061   16.0213 N   0  0  0  0  0  0  0  0  0  0  0  0
    9.9216  -17.3925   19.6907 C   0  0  0  0  0  0  0  0  0  0  0  0
   11.0715  -17.1897   20.1367 O   0  0  0  0  0  0  0  0  0  0  0  0
    8.8368  -16.7816   20.3755 N   0  0  0  0  0  0  0  0  0  0  0  0
    9.0257  -15.9624   21.5739 C   0  0  1  0  0  0  0  0  0  0  0  0
    7.9680  -14.9109   21.6591 C   0  0  0  0  0  0  0  0  0  0  0  0
    7.9557  -13.9451   20.5515 C   0  0  0  0  0  0  0  0  0  0  0  0
    6.9996  -13.8501   19.5772 C   0  0  0  0  0  0  0  0  0  0  0  0
    7.3863  -12.8340   18.7613 N   0  0  0  0  0  0  0  0  0  0  0  0
    8.5422  -12.3291   19.2279 C   0  0  0  0  0  0  0  0  0  0  0  0
    8.9075  -13.0010   20.3295 N   0  0  0  0  0  0  0  0  0  0  0  0
    9.0906  -16.8370   22.7853 C   0  0  0  0  0  0  0  0  0  0  0  0
    8.1324  -17.6065   23.0425 O   0  0  0  0  0  0  0  0  0  0  0  0
   10.2226  -16.7787   23.6112 N   0  0  0  0  0  0  0  0  0  0  0  0
   10.3784  -17.6689   24.7437 C   0  0  1  0  0  0  0  0  0  0  0  0
   11.5824  -18.5273   24.4477 C   0  0  0  0  0  0  0  0  0  0  0  0
   11.9238  -19.4749   25.5675 C   0  0  0  0  0  0  0  0  0  0  0  0
   13.1976  -20.2384   25.2395 C   0  0  0  0  0  0  0  0  0  0  0  0
   13.5079  -21.0952   26.4579 C   0  0  0  0  0  0  0  0  0  0  0  0
   14.5916  -22.0071   26.1102 N   0  0  0  0  0  0  0  0  0  0  0  0
   10.4620  -16.9053   25.9903 C   0  0  0  0  0  0  0  0  0  0  0  0
   10.8217  -15.7087   26.0171 O   0  0  0  0  0  0  0  0  0  0  0  0
   10.1376  -17.5084   27.1885 O   0  0  0  0  0  0  0  0  0  0  0  0
  2  8  1  0
  2  1  1  6
  3  2  1  0
  4  3  1  0
  4  5  1  0
  5  6  1  0
  7  6  1  0
  8  9  2  0
 10 11  1  0
 10  8  1  0
 12 13  1  0
 11 12  1  1
 13 14  2  0
 14 15  1  0
 16 15  1  0
 17 13  1  0
 17 16  2  0
 18 11  1  0
 19 18  2  0
 20 18  1  0
 21 20  1  0
 21 27  1  0
 21 22  1  6
 23 22  1  0
 23 24  1  0
 25 24  1  0
 26 25  1  0
 27 29  1  0
 28 27  2  0
M  END
$$$$
