KHK.pdb
     RDKit          3D

 29 29  0  0  1  0  0  0  0  0999 V2000
    7.7297  -15.7682   19.5253 N   0  0  0  0  0  0  0  0  0  0  0  0
    8.9269  -14.9810   19.7248 C   0  0  1  0  0  0  0  0  0  0  0  0
    8.7864  -13.7373   18.8757 C   0  0  0  0  0  0  0  0  0  0  0  0
    8.1432  -14.1650   17.5747 C   0  0  0  0  0  0  0  0  0  0  0  0
    8.7255  -13.5130   16.3651 C   0  0  0  0  0  0  0  0  0  0  0  0
    7.9393  -13.8901   15.1349 C   0  0  0  0  0  0  0  0  0  0  0  0
    8.5097  -13.1125   14.0307 N   0  0  0  0  0  0  0  0  0  0  0  0
    9.0490  -14.6673   21.1634 C   0  0  0  0  0  0  0  0  0  0  0  0
   10.0789  -14.0940   21.5793 O   0  0  0  0  0  0  0  0  0  0  0  0
    8.0459  -14.9851   22.1184 N   0  0  0  0  0  0  0  0  0  0  0  0
    8.1995  -14.6954   23.5451 C   0  0  1  0  0  0  0  0  0  0  0  0
    6.9515  -14.0815   24.0901 C   0  0  0  0  0  0  0  0  0  0  0  0
    7.0158  -13.6842   25.5036 C   0  0  0  0  0  0  0  0  0  0  0  0
    6.2415  -14.1827   26.5157 C   0  0  0  0  0  0  0  0  0  0  0  0
    6.6283  -13.5347   27.6462 N   0  0  0  0  0  0  0  0  0  0  0  0
    7.6076  -12.6696   27.3278 C   0  0  0  0  0  0  0  0  0  0  0  0
    7.8590  -12.7482   26.0129 N   0  0  0  0  0  0  0  0  0  0  0  0
    8.6193  -15.9315   24.2747 C   0  0  0  0  0  0  0  0  0  0  0  0
    8.1619  -17.0446   23.9165 O   0  0  0  0  0  0  0  0  0  0  0  0
    9.5166  -15.8214   25.3470 N   0  0  0  0  0  0  0  0  0  0  0  0
   10.1312  -16.9912   25.9413 C   0  0  1  0  0  0  0  0  0  0  0  0
   11.4401  -17.1964   25.2209 C   0  0  0  0  0  0  0  0  0  0  0  0
   11.6924  -18.6340   24.8493 C   0  0  0  0  0  0  0  0  0  0  0  0
   12.9396  -18.7422   23.9858 C   0  0  0  0  0  0  0  0  0  0  0  0
   13.1028  -20.2181   23.6538 C   0  0  0  0  0  0  0  0  0  0  0  0
   14.2280  -20.3576   22.7366 N   0  0  0  0  0  0  0  0  0  0  0  0
   10.2490  -16.8294   27.3918 C   0  0  0  0  0  0  0  0  0  0  0  0
   10.1078  -17.7859   28.1836 O   0  0  0  0  0  0  0  0  0  0  0  0
   10.5245  -15.5864   27.9244 O   0  0  0  0  0  0  0  0  0  0  0  0
  2  8  1  0
  2  1  1  1
  3  2  1  0
  4  3  1  0
  4  5  1  0
  5  6  1  0
  7  6  1  0
  8  9  2  0
 10 11  1  0
 10  8  1  0
 12 13  1  0
 11 12  1  1
 13 14  2  0
 14 15  1  0
 16 15  1  0
 17 13  1  0
 17 16  2  0
 18 11  1  0
 19 18  2  0
 20 18  1  0
 21 20  1  0
 21 27  1  0
 21 22  1  6
 23 22  1  0
 23 24  1  0
 25 24  1  0
 26 25  1  0
 27 29  1  0
 28 27  2  0
M  END
$$$$
