KHK.pdb
     RDKit          3D

 29 29  0  0  1  0  0  0  0  0999 V2000
    7.2443  -15.9694   20.8863 N   0  0  0  0  0  0  0  0  0  0  0  0
    8.4671  -15.2369   21.1333 C   0  0  1  0  0  0  0  0  0  0  0  0
    8.2616  -13.8376   20.5972 C   0  0  0  0  0  0  0  0  0  0  0  0
    7.5282  -13.9756   19.2811 C   0  0  0  0  0  0  0  0  0  0  0  0
    8.0072  -13.0450   18.2171 C   0  0  0  0  0  0  0  0  0  0  0  0
    8.3557  -13.8114   16.9663 C   0  0  0  0  0  0  0  0  0  0  0  0
    8.7439  -12.8104   15.9681 N   0  0  0  0  0  0  0  0  0  0  0  0
    8.7360  -15.2472   22.5860 C   0  0  0  0  0  0  0  0  0  0  0  0
    9.7760  -14.7061   23.0194 O   0  0  0  0  0  0  0  0  0  0  0  0
    7.8658  -15.8471   23.5356 N   0  0  0  0  0  0  0  0  0  0  0  0
    8.1492  -15.8455   24.9718 C   0  0  1  0  0  0  0  0  0  0  0  0
    6.9325  -15.4508   25.7433 C   0  0  0  0  0  0  0  0  0  0  0  0
    6.7656  -14.0056   25.9516 C   0  0  0  0  0  0  0  0  0  0  0  0
    7.6539  -13.0317   25.5844 C   0  0  0  0  0  0  0  0  0  0  0  0
    7.1056  -11.8499   25.9717 N   0  0  0  0  0  0  0  0  0  0  0  0
    5.9205  -12.1009   26.5561 C   0  0  0  0  0  0  0  0  0  0  0  0
    5.6951  -13.4229   26.5524 N   0  0  0  0  0  0  0  0  0  0  0  0
    8.7078  -17.1704   25.3834 C   0  0  0  0  0  0  0  0  0  0  0  0
    8.1268  -18.2235   25.0231 O   0  0  0  0  0  0  0  0  0  0  0  0
    9.8710  -17.2089   26.1660 N   0  0  0  0  0  0  0  0  0  0  0  0
   10.4586  -18.4653   26.5850 C   0  0  1  0  0  0  0  0  0  0  0  0
   11.7910  -18.5659   25.8859 C   0  0  0  0  0  0  0  0  0  0  0  0
   12.5406  -19.8291   26.2190 C   0  0  0  0  0  0  0  0  0  0  0  0
   13.8854  -19.8446   25.5088 C   0  0  0  0  0  0  0  0  0  0  0  0
   14.5208  -21.1901   25.8265 C   0  0  0  0  0  0  0  0  0  0  0  0
   15.7726  -21.2898   25.0850 N   0  0  0  0  0  0  0  0  0  0  0  0
   10.5260  -18.5397   28.0458 C   0  0  0  0  0  0  0  0  0  0  0  0
   10.5746  -17.5185   28.7645 O   0  0  0  0  0  0  0  0  0  0  0  0
   10.5382  -19.7699   28.6713 O   0  0  0  0  0  0  0  0  0  0  0  0
  2  8  1  0
  2  1  1  1
  3  2  1  0
  4  3  1  0
  4  5  1  0
  5  6  1  0
  7  6  1  0
  8  9  2  0
 10 11  1  0
 10  8  1  0
 12 13  1  0
 11 12  1  1
 13 14  2  0
 14 15  1  0
 16 15  1  0
 17 13  1  0
 17 16  2  0
 18 11  1  0
 19 18  2  0
 20 18  1  0
 21 20  1  0
 21 27  1  0
 21 22  1  6
 23 22  1  0
 23 24  1  0
 25 24  1  0
 26 25  1  0
 27 29  1  0
 28 27  2  0
M  END
$$$$
