WAP.pdb
     RDKit          3D

 27 29  0  0  1  0  0  0  0  0999 V2000
    9.6013  -16.1947   25.1336 N   0  0  0  0  0  0  0  0  0  0  0  0
    8.7994  -15.9377   23.9708 C   0  0  1  0  0  0  0  0  0  0  0  0
    8.1520  -14.5785   24.0548 C   0  0  0  0  0  0  0  0  0  0  0  0
    7.2842  -14.3678   25.2101 C   0  0  0  0  0  0  0  0  0  0  0  0
    6.4229  -15.2827   25.8195 C   0  0  0  0  0  0  0  0  0  0  0  0
    5.7673  -14.7122   26.8383 N   0  0  0  0  0  0  0  0  0  0  0  0
    6.1796  -13.4305   26.9170 C   0  0  0  0  0  0  0  0  0  0  0  0
    5.8707  -12.3815   27.7533 C   0  0  0  0  0  0  0  0  0  0  0  0
    6.4533  -11.1439   27.6286 C   0  0  0  0  0  0  0  0  0  0  0  0
    7.3884  -10.9056   26.6391 C   0  0  0  0  0  0  0  0  0  0  0  0
    7.7078  -11.9336   25.7992 C   0  0  0  0  0  0  0  0  0  0  0  0
    7.1224  -13.1888   25.9178 C   0  0  0  0  0  0  0  0  0  0  0  0
    9.6967  -15.9010   22.7803 C   0  0  0  0  0  0  0  0  0  0  0  0
   10.5486  -14.9680   22.7579 O   0  0  0  0  0  0  0  0  0  0  0  0
   11.0752  -17.4107   19.8098 C   0  0  0  0  0  0  0  0  0  0  0  0
   10.1535  -16.3681   20.3984 C   0  0  2  0  0  0  0  0  0  0  0  0
    9.6778  -16.7919   21.7062 N   0  0  0  0  0  0  0  0  0  0  0  0
    9.0058  -16.0585   19.5123 C   0  0  0  0  0  0  0  0  0  0  0  0
    7.9542  -16.7348   19.6628 O   0  0  0  0  0  0  0  0  0  0  0  0
    9.0356  -15.0493   18.5161 N   0  0  0  0  0  0  0  0  0  0  0  0
   10.1656  -14.1446   18.3088 C   0  0  0  0  0  0  0  0  0  0  0  0
    9.4649  -12.8431   18.0004 C   0  0  0  0  0  0  0  0  0  0  0  0
    8.0725  -13.1759   17.5793 C   0  0  0  0  0  0  0  0  0  0  0  0
    8.0660  -14.6800   17.5288 C   0  0  1  0  0  0  0  0  0  0  0  0
    8.4689  -15.0961   16.1559 C   0  0  0  0  0  0  0  0  0  0  0  0
    7.5683  -15.1030   15.1095 O   0  0  0  0  0  0  0  0  0  0  0  0
    9.6430  -15.4569   15.8948 O   0  0  0  0  0  0  0  0  0  0  0  0
  2  1  1  1
  3  2  1  0
  4  5  2  0
  4  3  1  0
  6  5  1  0
  7 12  2  0
  7  6  1  0
  8  7  1  0
  9  8  2  0
  9 10  1  0
 10 11  2  0
 11 12  1  0
 12  4  1  0
 13  2  1  0
 14 13  2  0
 16 17  1  0
 16 15  1  6
 17 13  1  0
 18 16  1  0
 19 18  2  0
 20 18  1  0
 21 22  1  0
 21 20  1  0
 23 24  1  0
 23 22  1  0
 24 20  1  0
 24 25  1  6
 26 25  1  0
 27 25  2  0
M  END
$$$$
