WAP.pdb
     RDKit          3D

 27 29  0  0  1  0  0  0  0  0999 V2000
    9.6088  -18.0560   24.9750 N   0  0  0  0  0  0  0  0  0  0  0  0
    8.9251  -16.8264   24.6893 C   0  0  1  0  0  0  0  0  0  0  0  0
    8.9016  -15.9308   25.9022 C   0  0  0  0  0  0  0  0  0  0  0  0
    7.6494  -15.2146   26.1285 C   0  0  0  0  0  0  0  0  0  0  0  0
    6.3541  -15.7351   26.1704 C   0  0  0  0  0  0  0  0  0  0  0  0
    5.4571  -14.7613   26.3715 N   0  0  0  0  0  0  0  0  0  0  0  0
    6.1358  -13.5996   26.4650 C   0  0  0  0  0  0  0  0  0  0  0  0
    5.7593  -12.2922   26.6746 C   0  0  0  0  0  0  0  0  0  0  0  0
    6.6692  -11.2653   26.7410 C   0  0  0  0  0  0  0  0  0  0  0  0
    8.0208  -11.5156   26.5968 C   0  0  0  0  0  0  0  0  0  0  0  0
    8.4140  -12.8063   26.3876 C   0  0  0  0  0  0  0  0  0  0  0  0
    7.4999  -13.8512   26.3181 C   0  0  0  0  0  0  0  0  0  0  0  0
    9.6940  -16.0935   23.6428 C   0  0  0  0  0  0  0  0  0  0  0  0
   10.2094  -14.9967   24.0008 O   0  0  0  0  0  0  0  0  0  0  0  0
   11.4894  -15.6968   20.6745 C   0  0  0  0  0  0  0  0  0  0  0  0
   10.1152  -15.5210   21.2774 C   0  0  2  0  0  0  0  0  0  0  0  0
    9.8908  -16.5060   22.3241 N   0  0  0  0  0  0  0  0  0  0  0  0
    9.0358  -15.5967   20.2639 C   0  0  0  0  0  0  0  0  0  0  0  0
    8.2338  -16.5649   20.3376 O   0  0  0  0  0  0  0  0  0  0  0  0
    8.8653  -14.6422   19.2286 N   0  0  0  0  0  0  0  0  0  0  0  0
    9.7627  -13.5080   19.0126 C   0  0  0  0  0  0  0  0  0  0  0  0
    8.7917  -12.4153   18.6346 C   0  0  0  0  0  0  0  0  0  0  0  0
    7.5282  -13.0753   18.1932 C   0  0  0  0  0  0  0  0  0  0  0  0
    7.8701  -14.5409   18.2037 C   0  0  1  0  0  0  0  0  0  0  0  0
    8.4035  -14.8986   16.8591 C   0  0  0  0  0  0  0  0  0  0  0  0
    7.5656  -15.2485   15.8190 O   0  0  0  0  0  0  0  0  0  0  0  0
    9.6357  -14.8961   16.6171 O   0  0  0  0  0  0  0  0  0  0  0  0
  2  1  1  1
  3  2  1  0
  4  5  2  0
  4  3  1  0
  6  5  1  0
  7 12  2  0
  7  6  1  0
  8  7  1  0
  9  8  2  0
  9 10  1  0
 10 11  2  0
 11 12  1  0
 12  4  1  0
 13  2  1  0
 14 13  2  0
 16 17  1  0
 16 15  1  6
 17 13  1  0
 18 16  1  0
 19 18  2  0
 20 18  1  0
 21 22  1  0
 21 20  1  0
 23 24  1  0
 23 22  1  0
 24 20  1  0
 24 25  1  6
 26 25  1  0
 27 25  2  0
M  END
$$$$
