WAP.pdb
     RDKit          3D

 27 29  0  0  1  0  0  0  0  0999 V2000
    6.5609  -17.9112   24.5131 N   0  0  0  0  0  0  0  0  0  0  0  0
    6.8720  -16.6633   23.8751 C   0  0  1  0  0  0  0  0  0  0  0  0
    7.7900  -15.8338   24.7369 C   0  0  0  0  0  0  0  0  0  0  0  0
    7.1266  -14.9769   25.7155 C   0  0  0  0  0  0  0  0  0  0  0  0
    6.2315  -15.3489   26.7208 C   0  0  0  0  0  0  0  0  0  0  0  0
    5.8102  -14.2763   27.4028 N   0  0  0  0  0  0  0  0  0  0  0  0
    6.4120  -13.1947   26.8669 C   0  0  0  0  0  0  0  0  0  0  0  0
    6.3756  -11.8480   27.1499 C   0  0  0  0  0  0  0  0  0  0  0  0
    7.1103  -10.9269   26.4439 C   0  0  0  0  0  0  0  0  0  0  0  0
    7.9276  -11.3297   25.4046 C   0  0  0  0  0  0  0  0  0  0  0  0
    7.9768  -12.6616   25.1083 C   0  0  0  0  0  0  0  0  0  0  0  0
    7.2360  -13.6003   25.8170 C   0  0  0  0  0  0  0  0  0  0  0  0
    7.6237  -16.9520   22.6200 C   0  0  0  0  0  0  0  0  0  0  0  0
    8.3641  -17.9759   22.6414 O   0  0  0  0  0  0  0  0  0  0  0  0
    8.2675  -15.5805   19.1906 C   0  0  0  0  0  0  0  0  0  0  0  0
    8.3646  -16.6143   20.2882 C   0  0  2  0  0  0  0  0  0  0  0  0
    7.5822  -16.2026   21.4434 N   0  0  0  0  0  0  0  0  0  0  0  0
    9.7653  -16.8870   20.6900 C   0  0  0  0  0  0  0  0  0  0  0  0
   10.2094  -16.2836   21.7022 O   0  0  0  0  0  0  0  0  0  0  0  0
   10.6181  -17.7845   19.9976 N   0  0  0  0  0  0  0  0  0  0  0  0
   10.1881  -18.6050   18.8661 C   0  0  0  0  0  0  0  0  0  0  0  0
   10.9164  -19.9008   19.1318 C   0  0  0  0  0  0  0  0  0  0  0  0
   12.0424  -19.5961   20.0625 C   0  0  0  0  0  0  0  0  0  0  0  0
   12.0024  -18.0971   20.1905 C   0  0  1  0  0  0  0  0  0  0  0  0
   12.8672  -17.5208   19.1227 C   0  0  0  0  0  0  0  0  0  0  0  0
   14.2038  -17.2526   19.3417 O   0  0  0  0  0  0  0  0  0  0  0  0
   12.4163  -17.2561   17.9810 O   0  0  0  0  0  0  0  0  0  0  0  0
  2  1  1  1
  3  2  1  0
  4  5  2  0
  4  3  1  0
  6  5  1  0
  7 12  2  0
  7  6  1  0
  8  7  1  0
  9  8  2  0
  9 10  1  0
 10 11  2  0
 11 12  1  0
 12  4  1  0
 13  2  1  0
 14 13  2  0
 16 17  1  0
 16 15  1  6
 17 13  1  0
 18 16  1  0
 19 18  2  0
 20 18  1  0
 21 22  1  0
 21 20  1  0
 23 24  1  0
 23 22  1  0
 24 20  1  0
 24 25  1  6
 26 25  1  0
 27 25  2  0
M  END
$$$$
