WAP.pdb
     RDKit          3D

 27 29  0  0  1  0  0  0  0  0999 V2000
    6.1597  -17.0291   24.0383 N   0  0  0  0  0  0  0  0  0  0  0  0
    6.6910  -15.7312   23.7318 C   0  0  1  0  0  0  0  0  0  0  0  0
    8.0269  -15.5262   24.4004 C   0  0  0  0  0  0  0  0  0  0  0  0
    7.9759  -14.9370   25.7355 C   0  0  0  0  0  0  0  0  0  0  0  0
    8.2935  -15.5378   26.9555 C   0  0  0  0  0  0  0  0  0  0  0  0
    8.0935  -14.6872   27.9703 N   0  0  0  0  0  0  0  0  0  0  0  0
    7.6479  -13.5280   27.4441 C   0  0  0  0  0  0  0  0  0  0  0  0
    7.2895  -12.3137   27.9845 C   0  0  0  0  0  0  0  0  0  0  0  0
    6.8677  -11.2594   27.2118 C   0  0  0  0  0  0  0  0  0  0  0  0
    6.7876  -11.3849   25.8377 C   0  0  0  0  0  0  0  0  0  0  0  0
    7.1386  -12.5821   25.2828 C   0  0  0  0  0  0  0  0  0  0  0  0
    7.5655  -13.6544   26.0574 C   0  0  0  0  0  0  0  0  0  0  0  0
    6.9428  -15.6614   22.2636 C   0  0  0  0  0  0  0  0  0  0  0  0
    7.0193  -16.7700   21.6620 O   0  0  0  0  0  0  0  0  0  0  0  0
    7.5569  -13.2052   19.4960 C   0  0  0  0  0  0  0  0  0  0  0  0
    7.3729  -14.5855   20.0825 C   0  0  2  0  0  0  0  0  0  0  0  0
    7.0992  -14.4983   21.5085 N   0  0  0  0  0  0  0  0  0  0  0  0
    8.5397  -15.4670   19.8385 C   0  0  0  0  0  0  0  0  0  0  0  0
    9.3302  -15.6666   20.7984 O   0  0  0  0  0  0  0  0  0  0  0  0
    8.8043  -16.0888   18.5914 N   0  0  0  0  0  0  0  0  0  0  0  0
    7.9502  -15.9440   17.4133 C   0  0  0  0  0  0  0  0  0  0  0  0
    7.9878  -17.3375   16.8332 C   0  0  0  0  0  0  0  0  0  0  0  0
    9.1890  -18.0216   17.3952 C   0  0  0  0  0  0  0  0  0  0  0  0
    9.8806  -16.9391   18.1793 C   0  0  1  0  0  0  0  0  0  0  0  0
   10.8322  -16.2458   17.2660 C   0  0  0  0  0  0  0  0  0  0  0  0
   10.5207  -15.0339   16.6825 O   0  0  0  0  0  0  0  0  0  0  0  0
   11.9555  -16.7348   16.9903 O   0  0  0  0  0  0  0  0  0  0  0  0
  2  1  1  6
  3  2  1  0
  4  5  2  0
  4  3  1  0
  6  5  1  0
  7 12  2  0
  7  6  1  0
  8  7  1  0
  9  8  2  0
  9 10  1  0
 10 11  2  0
 11 12  1  0
 12  4  1  0
 13  2  1  0
 14 13  2  0
 16 17  1  0
 16 15  1  1
 17 13  1  0
 18 16  1  0
 19 18  2  0
 20 18  1  0
 21 22  1  0
 21 20  1  0
 23 24  1  0
 23 22  1  0
 24 20  1  0
 24 25  1  6
 26 25  1  0
 27 25  2  0
M  END
$$$$
