WAP.pdb
     RDKit          3D

 27 29  0  0  1  0  0  0  0  0999 V2000
    6.1001  -17.3003   25.2054 N   0  0  0  0  0  0  0  0  0  0  0  0
    7.3676  -16.8992   24.6635 C   0  0  1  0  0  0  0  0  0  0  0  0
    7.9320  -15.7283   25.4278 C   0  0  0  0  0  0  0  0  0  0  0  0
    7.2966  -14.4409   25.1614 C   0  0  0  0  0  0  0  0  0  0  0  0
    6.4978  -13.6802   26.0180 C   0  0  0  0  0  0  0  0  0  0  0  0
    6.0704  -12.5682   25.4065 N   0  0  0  0  0  0  0  0  0  0  0  0
    6.5732  -12.5764   24.1550 C   0  0  0  0  0  0  0  0  0  0  0  0
    6.4857  -11.7099   23.0890 C   0  0  0  0  0  0  0  0  0  0  0  0
    7.1171  -11.9479   21.8926 C   0  0  0  0  0  0  0  0  0  0  0  0
    7.8772  -13.0885   21.7155 C   0  0  0  0  0  0  0  0  0  0  0  0
    7.9758  -13.9607   22.7615 C   0  0  0  0  0  0  0  0  0  0  0  0
    7.3394  -13.7281   23.9752 C   0  0  0  0  0  0  0  0  0  0  0  0
    8.3325  -18.0217   24.8451 C   0  0  0  0  0  0  0  0  0  0  0  0
    8.5387  -18.3869   26.0371 O   0  0  0  0  0  0  0  0  0  0  0  0
   10.6822  -20.2253   22.9313 C   0  0  0  0  0  0  0  0  0  0  0  0
   10.2330  -19.4302   24.1350 C   0  0  2  0  0  0  0  0  0  0  0  0
    9.0166  -18.6927   23.8305 N   0  0  0  0  0  0  0  0  0  0  0  0
   11.2814  -18.5058   24.6293 C   0  0  0  0  0  0  0  0  0  0  0  0
   11.2089  -17.2994   24.2752 O   0  0  0  0  0  0  0  0  0  0  0  0
   12.3484  -18.9104   25.4718 N   0  0  0  0  0  0  0  0  0  0  0  0
   12.5703  -20.2922   25.8959 C   0  0  0  0  0  0  0  0  0  0  0  0
   13.0083  -20.1073   27.3291 C   0  0  0  0  0  0  0  0  0  0  0  0
   13.4676  -18.6951   27.4757 C   0  0  0  0  0  0  0  0  0  0  0  0
   13.4048  -18.1531   26.0732 C   0  0  1  0  0  0  0  0  0  0  0  0
   14.7222  -18.4039   25.4235 C   0  0  0  0  0  0  0  0  0  0  0  0
   15.8037  -17.5731   25.6386 O   0  0  0  0  0  0  0  0  0  0  0  0
   14.9024  -19.3804   24.6549 O   0  0  0  0  0  0  0  0  0  0  0  0
  2  1  1  1
  3  2  1  0
  4  5  2  0
  4  3  1  0
  6  5  1  0
  7 12  2  0
  7  6  1  0
  8  7  1  0
  9  8  2  0
  9 10  1  0
 10 11  2  0
 11 12  1  0
 12  4  1  0
 13  2  1  0
 14 13  2  0
 16 17  1  0
 16 15  1  6
 17 13  1  0
 18 16  1  0
 19 18  2  0
 20 18  1  0
 21 22  1  0
 21 20  1  0
 23 24  1  0
 23 22  1  0
 24 20  1  0
 24 25  1  6
 26 25  1  0
 27 25  2  0
M  END
$$$$
