WAP.pdb
     RDKit          3D

 27 29  0  0  1  0  0  0  0  0999 V2000
    6.2649  -18.6858   25.9888 N   0  0  0  0  0  0  0  0  0  0  0  0
    7.0967  -17.5373   26.2126 C   0  0  1  0  0  0  0  0  0  0  0  0
    8.5414  -17.9418   26.3627 C   0  0  0  0  0  0  0  0  0  0  0  0
    9.2503  -17.3309   27.4836 C   0  0  0  0  0  0  0  0  0  0  0  0
    9.7192  -17.9470   28.6459 C   0  0  0  0  0  0  0  0  0  0  0  0
   10.2944  -17.0521   29.4592 N   0  0  0  0  0  0  0  0  0  0  0  0
   10.2163  -15.8485   28.8555 C   0  0  0  0  0  0  0  0  0  0  0  0
   10.6352  -14.5830   29.1991 C   0  0  0  0  0  0  0  0  0  0  0  0
   10.4398  -13.4956   28.3830 C   0  0  0  0  0  0  0  0  0  0  0  0
    9.8032  -13.6386   27.1645 C   0  0  0  0  0  0  0  0  0  0  0  0
    9.3799  -14.8863   26.8061 C   0  0  0  0  0  0  0  0  0  0  0  0
    9.5727  -15.9919   27.6263 C   0  0  0  0  0  0  0  0  0  0  0  0
    7.0294  -16.6659   25.0044 C   0  0  0  0  0  0  0  0  0  0  0  0
    6.7922  -17.2532   23.9109 O   0  0  0  0  0  0  0  0  0  0  0  0
    7.3144  -13.0821   23.9355 C   0  0  0  0  0  0  0  0  0  0  0  0
    7.1907  -14.5706   23.7068 C   0  0  2  0  0  0  0  0  0  0  0  0
    7.2030  -15.2814   24.9759 N   0  0  0  0  0  0  0  0  0  0  0  0
    8.2503  -15.0986   22.8144 C   0  0  0  0  0  0  0  0  0  0  0  0
    9.0451  -15.9500   23.2935 O   0  0  0  0  0  0  0  0  0  0  0  0
    8.4091  -14.6959   21.4636 N   0  0  0  0  0  0  0  0  0  0  0  0
    7.7106  -13.5583   20.8670 C   0  0  0  0  0  0  0  0  0  0  0  0
    7.3894  -14.0835   19.4882 C   0  0  0  0  0  0  0  0  0  0  0  0
    8.3075  -15.2296   19.2232 C   0  0  0  0  0  0  0  0  0  0  0  0
    9.2246  -15.2340   20.4164 C   0  0  1  0  0  0  0  0  0  0  0  0
   10.3918  -14.3623   20.1030 C   0  0  0  0  0  0  0  0  0  0  0  0
   10.5366  -13.1148   20.6765 O   0  0  0  0  0  0  0  0  0  0  0  0
   11.2907  -14.7266   19.3054 O   0  0  0  0  0  0  0  0  0  0  0  0
  2  1  1  6
  3  2  1  0
  4  5  2  0
  4  3  1  0
  6  5  1  0
  7 12  2  0
  7  6  1  0
  8  7  1  0
  9  8  2  0
  9 10  1  0
 10 11  2  0
 11 12  1  0
 12  4  1  0
 13  2  1  0
 14 13  2  0
 16 17  1  0
 16 15  1  1
 17 13  1  0
 18 16  1  0
 19 18  2  0
 20 18  1  0
 21 22  1  0
 21 20  1  0
 23 24  1  0
 23 22  1  0
 24 20  1  0
 24 25  1  6
 26 25  1  0
 27 25  2  0
M  END
$$$$
