LMV.pdb
     RDKit          3D

 24 23  0  0  1  0  0  0  0  0999 V2000
    8.4052  -14.4222   17.8520 C   0  0  0  0  0  0  0  0  0  0  0  0
    7.6087  -13.6283   18.8616 C   0  0  2  0  0  0  0  0  0  0  0  0
    7.4575  -12.2108   18.3240 C   0  0  0  0  0  0  0  0  0  0  0  0
    8.2620  -13.5563   20.2092 C   0  0  0  0  0  0  0  0  0  0  0  0
    8.3459  -14.9468   20.8053 C   0  0  2  0  0  0  0  0  0  0  0  0
    7.0527  -15.5982   20.8210 N   0  0  0  0  0  0  0  0  0  0  0  0
    8.8372  -14.8459   22.2242 C   0  0  0  0  0  0  0  0  0  0  0  0
   10.0166  -14.4814   22.4697 O   0  0  0  0  0  0  0  0  0  0  0  0
    6.4224  -11.5708   25.9661 C   0  0  0  0  0  0  0  0  0  0  0  0
    7.4597  -12.4701   27.1638 S   0  0  0  0  0  0  0  0  0  0  0  0
    7.2921  -14.2820   26.8840 C   0  0  0  0  0  0  0  0  0  0  0  0
    7.1407  -14.4399   25.4075 C   0  0  0  0  0  0  0  0  0  0  0  0
    8.3222  -15.0168   24.6906 C   0  0  2  0  0  0  0  0  0  0  0  0
    7.9636  -15.1628   23.2741 N   0  0  0  0  0  0  0  0  0  0  0  0
    8.6773  -16.3403   25.1990 C   0  0  0  0  0  0  0  0  0  0  0  0
    7.8528  -17.3025   25.0380 O   0  0  0  0  0  0  0  0  0  0  0  0
   12.6179  -17.7454   25.8333 C   0  0  0  0  0  0  0  0  0  0  0  0
   11.3749  -18.5783   25.4754 C   0  0  2  0  0  0  0  0  0  0  0  0
   11.2355  -18.6401   23.9691 C   0  0  0  0  0  0  0  0  0  0  0  0
   10.1737  -18.0372   26.1573 C   0  0  2  0  0  0  0  0  0  0  0  0
    9.8969  -16.6570   25.8760 N   0  0  0  0  0  0  0  0  0  0  0  0
   10.4907  -18.1544   27.6652 C   0  0  0  0  0  0  0  0  0  0  0  0
   10.6128  -19.2201   28.2439 O   0  0  0  0  0  0  0  0  0  0  0  0
   10.6236  -16.9485   28.3195 O   0  0  0  0  0  0  0  0  0  0  0  0
  2  1  1  6
  3  2  1  0
  4  5  1  0
  4  2  1  0
  5  6  1  1
  7  5  1  0
  7  8  2  0
 10  9  1  0
 11 10  1  0
 12 11  1  0
 13 12  1  1
 13 14  1  0
 14  7  1  0
 15 13  1  0
 16 15  2  0
 18 17  1  6
 18 20  1  0
 19 18  1  0
 20 21  1  6
 20 22  1  0
 21 15  1  0
 22 24  1  0
 23 22  2  0
M  END
$$$$
