LMV.pdb
     RDKit          3D

 24 23  0  0  1  0  0  0  0  0999 V2000
    4.4151  -17.5874   20.2045 C   0  0  0  0  0  0  0  0  0  0  0  0
    5.7436  -18.3075   20.2182 C   0  0  2  0  0  0  0  0  0  0  0  0
    5.4705  -19.7823   20.4861 C   0  0  0  0  0  0  0  0  0  0  0  0
    6.6828  -17.8011   21.2716 C   0  0  0  0  0  0  0  0  0  0  0  0
    7.0354  -16.3563   20.9820 C   0  0  2  0  0  0  0  0  0  0  0  0
    7.7519  -16.2237   19.7306 N   0  0  0  0  0  0  0  0  0  0  0  0
    7.9167  -15.8336   22.0842 C   0  0  0  0  0  0  0  0  0  0  0  0
    9.1700  -15.8646   21.9720 O   0  0  0  0  0  0  0  0  0  0  0  0
    6.2886  -10.8741   26.1990 C   0  0  0  0  0  0  0  0  0  0  0  0
    6.4867  -12.3661   27.2255 S   0  0  0  0  0  0  0  0  0  0  0  0
    7.7847  -13.4477   26.4944 C   0  0  0  0  0  0  0  0  0  0  0  0
    7.1978  -13.9619   25.2219 C   0  0  0  0  0  0  0  0  0  0  0  0
    8.0987  -14.8227   24.3913 C   0  0  2  0  0  0  0  0  0  0  0  0
    7.3248  -15.3089   23.2420 N   0  0  0  0  0  0  0  0  0  0  0  0
    8.5762  -15.9887   25.1321 C   0  0  0  0  0  0  0  0  0  0  0  0
    7.7559  -16.9345   25.3859 O   0  0  0  0  0  0  0  0  0  0  0  0
   12.6671  -17.1644   25.5176 C   0  0  0  0  0  0  0  0  0  0  0  0
   11.4373  -18.0872   25.4612 C   0  0  2  0  0  0  0  0  0  0  0  0
   11.1646  -18.4634   24.0203 C   0  0  0  0  0  0  0  0  0  0  0  0
   10.2789  -17.4497   26.1339 C   0  0  2  0  0  0  0  0  0  0  0  0
    9.9138  -16.1651   25.6072 N   0  0  0  0  0  0  0  0  0  0  0  0
   10.7363  -17.2449   27.5956 C   0  0  0  0  0  0  0  0  0  0  0  0
   10.9532  -18.1646   28.3655 O   0  0  0  0  0  0  0  0  0  0  0  0
   10.8795  -15.9270   27.9733 O   0  0  0  0  0  0  0  0  0  0  0  0
  2  1  1  1
  3  2  1  0
  4  5  1  0
  4  2  1  0
  5  6  1  6
  7  5  1  0
  7  8  2  0
 10  9  1  0
 11 10  1  0
 12 11  1  0
 13 12  1  1
 13 14  1  0
 14  7  1  0
 15 13  1  0
 16 15  2  0
 18 17  1  6
 18 20  1  0
 19 18  1  0
 20 21  1  6
 20 22  1  0
 21 15  1  0
 22 24  1  0
 23 22  2  0
M  END
$$$$
