LMV.pdb
     RDKit          3D

 24 23  0  0  1  0  0  0  0  0999 V2000
    9.6853  -19.8079   20.6443 C   0  0  0  0  0  0  0  0  0  0  0  0
   11.0277  -19.1179   20.7167 C   0  0  2  0  0  0  0  0  0  0  0  0
   12.0357  -20.1181   21.2688 C   0  0  0  0  0  0  0  0  0  0  0  0
   11.0268  -17.9086   21.6032 C   0  0  0  0  0  0  0  0  0  0  0  0
    9.9755  -16.9296   21.1215 C   0  0  2  0  0  0  0  0  0  0  0  0
   10.4257  -16.1947   19.9578 N   0  0  0  0  0  0  0  0  0  0  0  0
    9.6848  -15.9399   22.2173 C   0  0  0  0  0  0  0  0  0  0  0  0
   10.3061  -14.8467   22.2750 O   0  0  0  0  0  0  0  0  0  0  0  0
    5.8043  -12.0164   24.5818 C   0  0  0  0  0  0  0  0  0  0  0  0
    7.0262  -13.0097   25.4981 S   0  0  0  0  0  0  0  0  0  0  0  0
    6.3824  -14.7194   25.7259 C   0  0  0  0  0  0  0  0  0  0  0  0
    6.9036  -15.4946   24.5617 C   0  0  0  0  0  0  0  0  0  0  0  0
    8.3707  -15.3587   24.2941 C   0  0  2  0  0  0  0  0  0  0  0  0
    8.7101  -16.2489   23.1767 N   0  0  0  0  0  0  0  0  0  0  0  0
    9.1759  -15.7619   25.4453 C   0  0  0  0  0  0  0  0  0  0  0  0
    9.6387  -16.9518   25.4858 O   0  0  0  0  0  0  0  0  0  0  0  0
   10.5698  -13.1846   28.6045 C   0  0  0  0  0  0  0  0  0  0  0  0
   10.3780  -14.6932   28.8376 C   0  0  2  0  0  0  0  0  0  0  0  0
   11.4175  -15.1790   29.8253 C   0  0  0  0  0  0  0  0  0  0  0  0
   10.4028  -15.4250   27.5474 C   0  0  2  0  0  0  0  0  0  0  0  0
    9.4977  -14.9184   26.5548 N   0  0  0  0  0  0  0  0  0  0  0  0
    9.9556  -16.8613   27.9009 C   0  0  0  0  0  0  0  0  0  0  0  0
   10.7322  -17.7486   28.2093 O   0  0  0  0  0  0  0  0  0  0  0  0
    8.5947  -17.0711   27.8374 O   0  0  0  0  0  0  0  0  0  0  0  0
  2  1  1  1
  3  2  1  0
  4  5  1  0
  4  2  1  0
  5  6  1  6
  7  5  1  0
  7  8  2  0
 10  9  1  0
 11 10  1  0
 12 11  1  0
 13 12  1  1
 13 14  1  0
 14  7  1  0
 15 13  1  0
 16 15  2  0
 18 17  1  6
 18 20  1  0
 19 18  1  0
 20 21  1  6
 20 22  1  0
 21 15  1  0
 22 24  1  0
 23 22  2  0
M  END
$$$$
