LMV.pdb
     RDKit          3D

 24 23  0  0  1  0  0  0  0  0999 V2000
    8.2915  -14.5220   18.0199 C   0  0  0  0  0  0  0  0  0  0  0  0
    7.5796  -13.7924   19.1355 C   0  0  2  0  0  0  0  0  0  0  0  0
    7.2745  -12.3815   18.6482 C   0  0  0  0  0  0  0  0  0  0  0  0
    8.3904  -13.6940   20.3929 C   0  0  0  0  0  0  0  0  0  0  0  0
    8.6046  -15.0801   20.9661 C   0  0  2  0  0  0  0  0  0  0  0  0
    7.3611  -15.8166   21.0571 N   0  0  0  0  0  0  0  0  0  0  0  0
    9.1790  -14.9572   22.3516 C   0  0  0  0  0  0  0  0  0  0  0  0
   10.3117  -14.4389   22.5322 O   0  0  0  0  0  0  0  0  0  0  0  0
    5.7660  -12.4693   27.5812 C   0  0  0  0  0  0  0  0  0  0  0  0
    7.4610  -12.3226   26.9295 S   0  0  0  0  0  0  0  0  0  0  0  0
    7.5632  -13.1528   25.2895 C   0  0  0  0  0  0  0  0  0  0  0  0
    7.7667  -14.6001   25.5930 C   0  0  0  0  0  0  0  0  0  0  0  0
    8.8706  -15.2739   24.8381 C   0  0  2  0  0  0  0  0  0  0  0  0
    8.4360  -15.4272   23.4438 N   0  0  0  0  0  0  0  0  0  0  0  0
    9.1583  -16.6068   25.3641 C   0  0  0  0  0  0  0  0  0  0  0  0
    8.2833  -17.5265   25.2214 O   0  0  0  0  0  0  0  0  0  0  0  0
   12.0624  -18.6765   24.3397 C   0  0  0  0  0  0  0  0  0  0  0  0
   11.8970  -18.8882   25.8545 C   0  0  2  0  0  0  0  0  0  0  0  0
   12.1120  -20.3516   26.1776 C   0  0  0  0  0  0  0  0  0  0  0  0
   10.5839  -18.3701   26.3106 C   0  0  2  0  0  0  0  0  0  0  0  0
   10.3633  -16.9777   26.0397 N   0  0  0  0  0  0  0  0  0  0  0  0
   10.6000  -18.5529   27.8450 C   0  0  0  0  0  0  0  0  0  0  0  0
   10.7133  -17.6270   28.6294 O   0  0  0  0  0  0  0  0  0  0  0  0
   10.4793  -19.8589   28.2691 O   0  0  0  0  0  0  0  0  0  0  0  0
  2  1  1  6
  3  2  1  0
  4  5  1  0
  4  2  1  0
  5  6  1  1
  7  5  1  0
  7  8  2  0
 10  9  1  0
 11 10  1  0
 12 11  1  0
 13 12  1  1
 13 14  1  0
 14  7  1  0
 15 13  1  0
 16 15  2  0
 18 17  1  6
 18 20  1  0
 19 18  1  0
 20 21  1  1
 20 22  1  0
 21 15  1  0
 22 24  1  0
 23 22  2  0
M  END
$$$$
