LMV.pdb
     RDKit          3D

 24 23  0  0  1  0  0  0  0  0999 V2000
    8.1724  -14.2631   17.7789 C   0  0  0  0  0  0  0  0  0  0  0  0
    7.4177  -13.5579   18.8820 C   0  0  2  0  0  0  0  0  0  0  0  0
    7.1498  -12.1300   18.4232 C   0  0  0  0  0  0  0  0  0  0  0  0
    8.1711  -13.5054   20.1773 C   0  0  0  0  0  0  0  0  0  0  0  0
    8.3393  -14.9094   20.7215 C   0  0  2  0  0  0  0  0  0  0  0  0
    7.0895  -15.6406   20.7036 N   0  0  0  0  0  0  0  0  0  0  0  0
    8.8164  -14.8317   22.1467 C   0  0  0  0  0  0  0  0  0  0  0  0
    9.9911  -14.4645   22.4102 O   0  0  0  0  0  0  0  0  0  0  0  0
    6.5141  -11.5538   26.8910 C   0  0  0  0  0  0  0  0  0  0  0  0
    7.8261  -12.8081   27.0470 S   0  0  0  0  0  0  0  0  0  0  0  0
    7.1064  -14.4848   26.8015 C   0  0  0  0  0  0  0  0  0  0  0  0
    6.9887  -14.6499   25.3227 C   0  0  0  0  0  0  0  0  0  0  0  0
    8.2564  -14.9945   24.6039 C   0  0  2  0  0  0  0  0  0  0  0  0
    7.9350  -15.1733   23.1823 N   0  0  0  0  0  0  0  0  0  0  0  0
    8.8379  -16.2442   25.0897 C   0  0  0  0  0  0  0  0  0  0  0  0
    8.1925  -17.3324   24.9136 O   0  0  0  0  0  0  0  0  0  0  0  0
   12.3639  -17.5121   24.2445 C   0  0  0  0  0  0  0  0  0  0  0  0
   12.0668  -17.8228   25.7218 C   0  0  2  0  0  0  0  0  0  0  0  0
   12.6040  -19.1978   26.0578 C   0  0  0  0  0  0  0  0  0  0  0  0
   10.6182  -17.6705   26.0029 C   0  0  2  0  0  0  0  0  0  0  0  0
   10.0967  -16.3552   25.7600 N   0  0  0  0  0  0  0  0  0  0  0  0
   10.4781  -17.9591   27.5145 C   0  0  0  0  0  0  0  0  0  0  0  0
   10.2490  -19.0674   27.9671 O   0  0  0  0  0  0  0  0  0  0  0  0
   10.6292  -16.8555   28.3264 O   0  0  0  0  0  0  0  0  0  0  0  0
  2  1  1  6
  3  2  1  0
  4  5  1  0
  4  2  1  0
  5  6  1  1
  7  5  1  0
  7  8  2  0
 10  9  1  0
 11 10  1  0
 12 11  1  0
 13 12  1  1
 13 14  1  0
 14  7  1  0
 15 13  1  0
 16 15  2  0
 18 17  1  6
 18 20  1  0
 19 18  1  0
 20 21  1  1
 20 22  1  0
 21 15  1  0
 22 24  1  0
 23 22  2  0
M  END
$$$$
