LMV.pdb
     RDKit          3D

 24 23  0  0  1  0  0  0  0  0999 V2000
    9.3918  -13.3239   20.5877 C   0  0  0  0  0  0  0  0  0  0  0  0
    8.6174  -13.3931   19.2918 C   0  0  2  0  0  0  0  0  0  0  0  0
    7.6061  -12.2536   19.2928 C   0  0  0  0  0  0  0  0  0  0  0  0
    7.8761  -14.6837   19.1110 C   0  0  0  0  0  0  0  0  0  0  0  0
    8.6577  -15.8102   19.7560 C   0  0  2  0  0  0  0  0  0  0  0  0
    8.4840  -17.0567   19.0398 N   0  0  0  0  0  0  0  0  0  0  0  0
    8.1670  -16.0069   21.1650 C   0  0  0  0  0  0  0  0  0  0  0  0
    6.9439  -16.1918   21.3978 O   0  0  0  0  0  0  0  0  0  0  0  0
   12.1055  -19.0484   24.2307 C   0  0  0  0  0  0  0  0  0  0  0  0
   10.9556  -19.1516   25.6400 S   0  0  0  0  0  0  0  0  0  0  0  0
    9.5980  -17.9284   25.4167 C   0  0  0  0  0  0  0  0  0  0  0  0
    9.7850  -17.3793   24.0414 C   0  0  0  0  0  0  0  0  0  0  0  0
    8.7559  -16.3891   23.5908 C   0  0  2  0  0  0  0  0  0  0  0  0
    9.0902  -15.9827   22.2200 N   0  0  0  0  0  0  0  0  0  0  0  0
    8.7520  -15.1878   24.4232 C   0  0  0  0  0  0  0  0  0  0  0  0
    9.6732  -14.3192   24.2541 O   0  0  0  0  0  0  0  0  0  0  0  0
    5.6055  -12.8928   25.5513 C   0  0  0  0  0  0  0  0  0  0  0  0
    6.6195  -13.1286   26.6841 C   0  0  2  0  0  0  0  0  0  0  0  0
    6.7815  -11.8506   27.4794 C   0  0  0  0  0  0  0  0  0  0  0  0
    7.8966  -13.6491   26.1374 C   0  0  2  0  0  0  0  0  0  0  0  0
    7.7824  -14.8950   25.4333 N   0  0  0  0  0  0  0  0  0  0  0  0
    8.7862  -13.8909   27.3776 C   0  0  0  0  0  0  0  0  0  0  0  0
    8.9305  -14.9842   27.8965 O   0  0  0  0  0  0  0  0  0  0  0  0
    9.4113  -12.7630   27.8646 O   0  0  0  0  0  0  0  0  0  0  0  0
  2  1  1  1
  3  2  1  0
  4  5  1  0
  4  2  1  0
  5  6  1  6
  7  5  1  0
  7  8  2  0
 10  9  1  0
 11 10  1  0
 12 11  1  0
 13 12  1  1
 13 14  1  0
 14  7  1  0
 15 13  1  0
 16 15  2  0
 18 17  1  6
 18 20  1  0
 19 18  1  0
 20 21  1  1
 20 22  1  0
 21 15  1  0
 22 24  1  0
 23 22  2  0
M  END
$$$$
