LMV.pdb
     RDKit          3D

 24 23  0  0  1  0  0  0  0  0999 V2000
    9.3853  -14.5536   18.1382 C   0  0  0  0  0  0  0  0  0  0  0  0
    8.1470  -13.9573   18.7665 C   0  0  2  0  0  0  0  0  0  0  0  0
    7.8633  -12.6329   18.0689 C   0  0  0  0  0  0  0  0  0  0  0  0
    8.2933  -13.6966   20.2357 C   0  0  0  0  0  0  0  0  0  0  0  0
    8.6333  -14.9904   20.9473 C   0  0  2  0  0  0  0  0  0  0  0  0
    7.5335  -15.9311   20.8959 N   0  0  0  0  0  0  0  0  0  0  0  0
    8.9300  -14.6947   22.3927 C   0  0  0  0  0  0  0  0  0  0  0  0
    9.9653  -14.0566   22.7169 O   0  0  0  0  0  0  0  0  0  0  0  0
    6.6740  -11.2077   27.0678 C   0  0  0  0  0  0  0  0  0  0  0  0
    5.5894  -12.5576   26.5016 S   0  0  0  0  0  0  0  0  0  0  0  0
    6.4685  -14.1660   26.6733 C   0  0  0  0  0  0  0  0  0  0  0  0
    6.6529  -14.6646   25.2785 C   0  0  0  0  0  0  0  0  0  0  0  0
    8.0586  -14.6484   24.7626 C   0  0  2  0  0  0  0  0  0  0  0  0
    8.0372  -15.1386   23.3785 N   0  0  0  0  0  0  0  0  0  0  0  0
    8.9340  -15.5290   25.5335 C   0  0  0  0  0  0  0  0  0  0  0  0
    9.1855  -16.6966   25.0804 O   0  0  0  0  0  0  0  0  0  0  0  0
   10.8331  -14.7822   29.3986 C   0  0  0  0  0  0  0  0  0  0  0  0
   11.5695  -15.3370   28.1670 C   0  0  2  0  0  0  0  0  0  0  0  0
   12.3413  -14.2162   27.5035 C   0  0  0  0  0  0  0  0  0  0  0  0
   10.6171  -16.0175   27.2557 C   0  0  2  0  0  0  0  0  0  0  0  0
    9.5474  -15.1869   26.7796 N   0  0  0  0  0  0  0  0  0  0  0  0
    9.9924  -17.1441   28.1091 C   0  0  0  0  0  0  0  0  0  0  0  0
   10.6249  -18.0992   28.5255 O   0  0  0  0  0  0  0  0  0  0  0  0
    8.6468  -16.9910   28.3661 O   0  0  0  0  0  0  0  0  0  0  0  0
  2  1  1  6
  3  2  1  0
  4  5  1  0
  4  2  1  0
  5  6  1  1
  7  5  1  0
  7  8  2  0
 10  9  1  0
 11 10  1  0
 12 11  1  0
 13 12  1  1
 13 14  1  0
 14  7  1  0
 15 13  1  0
 16 15  2  0
 18 17  1  1
 18 20  1  0
 19 18  1  0
 20 21  1  1
 20 22  1  0
 21 15  1  0
 22 24  1  0
 23 22  2  0
M  END
$$$$
