MQA.pdb
     RDKit          3D

 23 22  0  0  1  0  0  0  0  0999 V2000
    6.9410  -12.6388   26.8786 C   0  0  0  0  0  0  0  0  0  0  0  0
    6.8814  -11.3795   25.5861 S   0  0  0  0  0  0  0  0  0  0  0  0
    6.6436  -12.1985   23.9748 C   0  0  0  0  0  0  0  0  0  0  0  0
    6.9286  -13.6761   24.1381 C   0  0  0  0  0  0  0  0  0  0  0  0
    7.5474  -14.2217   22.8737 C   0  0  2  0  0  0  0  0  0  0  0  0
    6.5562  -14.4984   21.8624 N   0  0  0  0  0  0  0  0  0  0  0  0
    8.3152  -15.4653   23.1202 C   0  0  0  0  0  0  0  0  0  0  0  0
    7.7568  -16.4822   23.5984 O   0  0  0  0  0  0  0  0  0  0  0  0
   13.1071  -17.5729   20.3609 N   0  0  0  0  0  0  0  0  0  0  0  0
   13.1529  -18.3282   21.5709 C   0  0  0  0  0  0  0  0  0  0  0  0
   13.5067  -19.5328   21.4856 O   0  0  0  0  0  0  0  0  0  0  0  0
   12.7884  -17.6752   22.8558 C   0  0  0  0  0  0  0  0  0  0  0  0
   11.8755  -16.5284   22.5319 C   0  0  0  0  0  0  0  0  0  0  0  0
   10.5284  -16.6783   23.2523 C   0  0  2  0  0  0  0  0  0  0  0  0
    9.7015  -15.5643   22.8309 N   0  0  0  0  0  0  0  0  0  0  0  0
   10.7295  -16.6803   24.7240 C   0  0  0  0  0  0  0  0  0  0  0  0
   11.2377  -15.6691   25.2788 O   0  0  0  0  0  0  0  0  0  0  0  0
    9.2246  -17.8997   27.6292 C   0  0  0  0  0  0  0  0  0  0  0  0
   10.5491  -17.8340   26.8889 C   0  0  2  0  0  0  0  0  0  0  0  0
   10.3383  -17.8318   25.4580 N   0  0  0  0  0  0  0  0  0  0  0  0
   11.4231  -18.9638   27.3068 C   0  0  0  0  0  0  0  0  0  0  0  0
   11.7812  -19.8557   26.4998 O   0  0  0  0  0  0  0  0  0  0  0  0
   11.8545  -19.0404   28.6108 O   0  0  0  0  0  0  0  0  0  0  0  0
  1  2  1  0
  3  2  1  0
  4  3  1  0
  5  4  1  0
  5  7  1  0
  5  6  1  6
  7  8  2  0
  9 10  1  0
 10 11  2  0
 10 12  1  0
 12 13  1  0
 14 13  1  6
 15  7  1  0
 15 14  1  0
 16 14  1  0
 16 20  1  0
 17 16  2  0
 19 20  1  0
 19 18  1  1
 21 19  1  0
 21 23  1  0
 22 21  2  0
M  END
$$$$
