MQA.pdb
     RDKit          3D

 23 22  0  0  1  0  0  0  0  0999 V2000
    8.6157  -11.7269   19.5395 C   0  0  0  0  0  0  0  0  0  0  0  0
    8.3857  -12.9315   20.8646 S   0  0  0  0  0  0  0  0  0  0  0  0
    6.7865  -13.7735   20.6257 C   0  0  0  0  0  0  0  0  0  0  0  0
    6.5495  -14.7003   21.7988 C   0  0  0  0  0  0  0  0  0  0  0  0
    7.3636  -15.9605   21.6293 C   0  0  2  0  0  0  0  0  0  0  0  0
    6.6045  -17.0140   21.0002 N   0  0  0  0  0  0  0  0  0  0  0  0
    7.8774  -16.4706   22.9226 C   0  0  0  0  0  0  0  0  0  0  0  0
    7.0946  -16.9230   23.7926 O   0  0  0  0  0  0  0  0  0  0  0  0
   13.0389  -20.2490   24.9322 N   0  0  0  0  0  0  0  0  0  0  0  0
   13.0371  -18.8263   25.0432 C   0  0  0  0  0  0  0  0  0  0  0  0
   14.1151  -18.2271   24.7930 O   0  0  0  0  0  0  0  0  0  0  0  0
   11.7885  -18.1245   25.4414 C   0  0  0  0  0  0  0  0  0  0  0  0
   11.1090  -17.6707   24.1821 C   0  0  0  0  0  0  0  0  0  0  0  0
    9.7962  -16.9410   24.4988 C   0  0  2  0  0  0  0  0  0  0  0  0
    9.2623  -16.4717   23.2350 N   0  0  0  0  0  0  0  0  0  0  0  0
   10.0462  -15.8155   25.4352 C   0  0  0  0  0  0  0  0  0  0  0  0
   10.7155  -14.8226   25.0421 O   0  0  0  0  0  0  0  0  0  0  0  0
    8.5173  -13.9299   27.7878 C   0  0  0  0  0  0  0  0  0  0  0  0
    9.7562  -14.7984   27.6561 C   0  0  2  0  0  0  0  0  0  0  0  0
    9.5169  -15.9007   26.7507 N   0  0  0  0  0  0  0  0  0  0  0  0
   10.1853  -15.2808   28.9970 C   0  0  0  0  0  0  0  0  0  0  0  0
   10.2070  -16.5024   29.2839 O   0  0  0  0  0  0  0  0  0  0  0  0
   10.5702  -14.3702   29.9535 O   0  0  0  0  0  0  0  0  0  0  0  0
  1  2  1  0
  3  2  1  0
  4  3  1  0
  5  4  1  0
  5  7  1  0
  5  6  1  1
  7  8  2  0
  9 10  1  0
 10 11  2  0
 10 12  1  0
 12 13  1  0
 14 13  1  6
 15  7  1  0
 15 14  1  0
 16 14  1  0
 16 20  1  0
 17 16  2  0
 19 20  1  0
 19 18  1  1
 21 19  1  0
 21 23  1  0
 22 21  2  0
M  END
$$$$
