MQA.pdb
     RDKit          3D

 23 22  0  0  1  0  0  0  0  0999 V2000
    6.5000  -12.6691   25.6326 C   0  0  0  0  0  0  0  0  0  0  0  0
    7.0807  -14.0146   26.6872 S   0  0  0  0  0  0  0  0  0  0  0  0
    7.1708  -15.5432   25.6979 C   0  0  0  0  0  0  0  0  0  0  0  0
    5.8146  -15.7949   25.0747 C   0  0  0  0  0  0  0  0  0  0  0  0
    5.8362  -17.0951   24.3076 C   0  0  2  0  0  0  0  0  0  0  0  0
    5.7418  -18.2397   25.1810 N   0  0  0  0  0  0  0  0  0  0  0  0
    7.0631  -17.2390   23.4886 C   0  0  0  0  0  0  0  0  0  0  0  0
    7.8808  -18.1643   23.7117 O   0  0  0  0  0  0  0  0  0  0  0  0
    7.7422  -13.7904   18.4579 N   0  0  0  0  0  0  0  0  0  0  0  0
    8.3274  -13.2539   19.6437 C   0  0  0  0  0  0  0  0  0  0  0  0
    8.5569  -12.0168   19.6646 O   0  0  0  0  0  0  0  0  0  0  0  0
    8.6356  -14.1590   20.7822 C   0  0  0  0  0  0  0  0  0  0  0  0
    8.2769  -15.5529   20.3557 C   0  0  0  0  0  0  0  0  0  0  0  0
    8.4729  -16.5474   21.5083 C   0  0  2  0  0  0  0  0  0  0  0  0
    7.3681  -16.3483   22.4260 N   0  0  0  0  0  0  0  0  0  0  0  0
    9.7807  -16.3137   22.1726 C   0  0  0  0  0  0  0  0  0  0  0  0
   10.8406  -16.3997   21.4961 O   0  0  0  0  0  0  0  0  0  0  0  0
   10.9115  -15.0697   25.5158 C   0  0  0  0  0  0  0  0  0  0  0  0
   11.0668  -15.8373   24.2145 C   0  0  2  0  0  0  0  0  0  0  0  0
    9.7884  -15.9992   23.5578 N   0  0  0  0  0  0  0  0  0  0  0  0
   11.7146  -17.1520   24.4727 C   0  0  0  0  0  0  0  0  0  0  0  0
   11.0564  -18.2204   24.4923 O   0  0  0  0  0  0  0  0  0  0  0  0
   13.0707  -17.2069   24.6969 O   0  0  0  0  0  0  0  0  0  0  0  0
  1  2  1  0
  3  2  1  0
  4  3  1  0
  5  4  1  0
  5  7  1  0
  5  6  1  1
  7  8  2  0
  9 10  1  0
 10 11  2  0
 10 12  1  0
 12 13  1  0
 14 13  1  6
 15  7  1  0
 15 14  1  0
 16 14  1  0
 16 20  1  0
 17 16  2  0
 19 20  1  0
 19 18  1  1
 21 19  1  0
 21 23  1  0
 22 21  2  0
M  END
$$$$
