MQA.pdb
     RDKit          3D

 23 22  0  0  1  0  0  0  0  0999 V2000
    5.4720  -11.9754   26.3827 C   0  0  0  0  0  0  0  0  0  0  0  0
    6.4474  -10.9859   25.2297 S   0  0  0  0  0  0  0  0  0  0  0  0
    6.9353  -12.0332   23.8195 C   0  0  0  0  0  0  0  0  0  0  0  0
    7.4114  -13.3678   24.3519 C   0  0  0  0  0  0  0  0  0  0  0  0
    7.7461  -14.2882   23.2029 C   0  0  2  0  0  0  0  0  0  0  0  0
    6.5789  -14.6309   22.4270 N   0  0  0  0  0  0  0  0  0  0  0  0
    8.3806  -15.5462   23.6628 C   0  0  0  0  0  0  0  0  0  0  0  0
    7.7158  -16.4151   24.2773 O   0  0  0  0  0  0  0  0  0  0  0  0
   14.3802  -17.7139   22.4904 N   0  0  0  0  0  0  0  0  0  0  0  0
   13.6001  -18.6880   23.1824 C   0  0  0  0  0  0  0  0  0  0  0  0
   13.8679  -19.8989   22.9687 O   0  0  0  0  0  0  0  0  0  0  0  0
   12.5255  -18.2425   24.1082 C   0  0  0  0  0  0  0  0  0  0  0  0
   11.6966  -17.2274   23.3762 C   0  0  0  0  0  0  0  0  0  0  0  0
   10.5307  -16.7393   24.2471 C   0  0  2  0  0  0  0  0  0  0  0  0
    9.7536  -15.8250   23.4331 N   0  0  0  0  0  0  0  0  0  0  0  0
   11.0462  -16.0740   25.4710 C   0  0  0  0  0  0  0  0  0  0  0  0
   12.0426  -15.3072   25.3835 O   0  0  0  0  0  0  0  0  0  0  0  0
   10.1871  -14.6558   28.4713 C   0  0  0  0  0  0  0  0  0  0  0  0
   10.9938  -15.8170   27.9168 C   0  0  2  0  0  0  0  0  0  0  0  0
   10.3914  -16.3289   26.7056 N   0  0  0  0  0  0  0  0  0  0  0  0
   11.1289  -16.8819   28.9476 C   0  0  0  0  0  0  0  0  0  0  0  0
   11.6538  -16.6569   30.0651 O   0  0  0  0  0  0  0  0  0  0  0  0
   10.6688  -18.1497   28.6766 O   0  0  0  0  0  0  0  0  0  0  0  0
  1  2  1  0
  3  2  1  0
  4  3  1  0
  5  4  1  0
  5  7  1  0
  5  6  1  1
  7  8  2  0
  9 10  1  0
 10 11  2  0
 10 12  1  0
 12 13  1  0
 14 13  1  6
 15  7  1  0
 15 14  1  0
 16 14  1  0
 16 20  1  0
 17 16  2  0
 19 20  1  0
 19 18  1  1
 21 19  1  0
 21 23  1  0
 22 21  2  0
M  END
$$$$
