MQA.pdb
     RDKit          3D

 23 22  0  0  1  0  0  0  0  0999 V2000
    7.8297  -11.3065   19.0332 C   0  0  0  0  0  0  0  0  0  0  0  0
    8.0931  -12.6557   20.2037 S   0  0  0  0  0  0  0  0  0  0  0  0
    7.0283  -14.0595   19.7355 C   0  0  0  0  0  0  0  0  0  0  0  0
    7.0359  -15.0680   20.8642 C   0  0  0  0  0  0  0  0  0  0  0  0
    8.4109  -15.1331   21.4843 C   0  0  2  0  0  0  0  0  0  0  0  0
    9.2998  -15.9913   20.7394 N   0  0  0  0  0  0  0  0  0  0  0  0
    8.3686  -15.6163   22.8849 C   0  0  0  0  0  0  0  0  0  0  0  0
    7.5342  -15.1540   23.7002 O   0  0  0  0  0  0  0  0  0  0  0  0
   11.7599  -20.4219   24.9505 N   0  0  0  0  0  0  0  0  0  0  0  0
   11.7391  -19.7463   23.6937 C   0  0  0  0  0  0  0  0  0  0  0  0
   12.3996  -20.2583   22.7528 O   0  0  0  0  0  0  0  0  0  0  0  0
   10.9547  -18.4916   23.5498 C   0  0  0  0  0  0  0  0  0  0  0  0
   10.1093  -18.3485   24.7821 C   0  0  0  0  0  0  0  0  0  0  0  0
    9.3091  -17.0390   24.7500 C   0  0  2  0  0  0  0  0  0  0  0  0
    9.2588  -16.6125   23.3651 N   0  0  0  0  0  0  0  0  0  0  0  0
    9.9593  -16.0177   25.6104 C   0  0  0  0  0  0  0  0  0  0  0  0
   11.0423  -15.4935   25.2352 O   0  0  0  0  0  0  0  0  0  0  0  0
    8.9731  -13.4662   27.8300 C   0  0  0  0  0  0  0  0  0  0  0  0
    9.9344  -14.6265   27.6389 C   0  0  2  0  0  0  0  0  0  0  0  0
    9.3309  -15.6664   26.8350 N   0  0  0  0  0  0  0  0  0  0  0  0
   10.3724  -15.1486   28.9619 C   0  0  0  0  0  0  0  0  0  0  0  0
   10.1535  -16.3344   29.3096 O   0  0  0  0  0  0  0  0  0  0  0  0
   11.0357  -14.3160   29.8332 O   0  0  0  0  0  0  0  0  0  0  0  0
  1  2  1  0
  3  2  1  0
  4  3  1  0
  5  4  1  0
  5  7  1  0
  5  6  1  6
  7  8  2  0
  9 10  1  0
 10 11  2  0
 10 12  1  0
 12 13  1  0
 14 13  1  6
 15  7  1  0
 15 14  1  0
 16 14  1  0
 16 20  1  0
 17 16  2  0
 19 20  1  0
 19 18  1  1
 21 19  1  0
 21 23  1  0
 22 21  2  0
M  END
$$$$
