MQA.pdb
     RDKit          3D

 23 22  0  0  1  0  0  0  0  0999 V2000
    6.7734  -11.3733   26.2765 C   0  0  0  0  0  0  0  0  0  0  0  0
    5.8545  -12.2227   24.9749 S   0  0  0  0  0  0  0  0  0  0  0  0
    5.3677  -13.8731   25.5770 C   0  0  0  0  0  0  0  0  0  0  0  0
    6.6196  -14.6958   25.7943 C   0  0  0  0  0  0  0  0  0  0  0  0
    6.7910  -15.6778   24.6604 C   0  0  2  0  0  0  0  0  0  0  0  0
    5.7182  -16.6413   24.6128 N   0  0  0  0  0  0  0  0  0  0  0  0
    8.0722  -16.4173   24.7522 C   0  0  0  0  0  0  0  0  0  0  0  0
    8.1103  -17.5839   25.2127 O   0  0  0  0  0  0  0  0  0  0  0  0
   12.9513  -16.7615   21.1220 N   0  0  0  0  0  0  0  0  0  0  0  0
   11.7557  -16.0010   20.9526 C   0  0  0  0  0  0  0  0  0  0  0  0
   11.6196  -15.3743   19.8698 O   0  0  0  0  0  0  0  0  0  0  0  0
   10.7409  -15.9803   22.0388 C   0  0  0  0  0  0  0  0  0  0  0  0
   11.4821  -16.0005   23.3441 C   0  0  0  0  0  0  0  0  0  0  0  0
   10.5829  -16.5116   24.4784 C   0  0  2  0  0  0  0  0  0  0  0  0
    9.3022  -15.8484   24.3289 N   0  0  0  0  0  0  0  0  0  0  0  0
   11.1989  -16.2141   25.7968 C   0  0  0  0  0  0  0  0  0  0  0  0
   12.3917  -16.5592   26.0128 O   0  0  0  0  0  0  0  0  0  0  0  0
   10.2997  -14.1678   28.7858 C   0  0  0  0  0  0  0  0  0  0  0  0
   10.9959  -15.3173   28.0783 C   0  0  2  0  0  0  0  0  0  0  0  0
   10.4139  -15.5458   26.7741 N   0  0  0  0  0  0  0  0  0  0  0  0
   10.9389  -16.5432   28.9203 C   0  0  0  0  0  0  0  0  0  0  0  0
   10.3138  -17.5679   28.5539 O   0  0  0  0  0  0  0  0  0  0  0  0
   11.5861  -16.5623   30.1340 O   0  0  0  0  0  0  0  0  0  0  0  0
  1  2  1  0
  3  2  1  0
  4  3  1  0
  5  4  1  0
  5  7  1  0
  5  6  1  1
  7  8  2  0
  9 10  1  0
 10 11  2  0
 10 12  1  0
 12 13  1  0
 14 13  1  6
 15  7  1  0
 15 14  1  0
 16 14  1  0
 16 20  1  0
 17 16  2  0
 19 20  1  0
 19 18  1  1
 21 19  1  0
 21 23  1  0
 22 21  2  0
M  END
$$$$
