MQA.pdb
     RDKit          3D

 23 22  0  0  1  0  0  0  0  0999 V2000
    7.4152  -12.1976   27.3665 C   0  0  0  0  0  0  0  0  0  0  0  0
    6.1116  -11.6178   26.2599 S   0  0  0  0  0  0  0  0  0  0  0  0
    6.4047  -12.2993   24.5947 C   0  0  0  0  0  0  0  0  0  0  0  0
    7.0258  -13.6722   24.7379 C   0  0  0  0  0  0  0  0  0  0  0  0
    7.3847  -14.2171   23.3764 C   0  0  2  0  0  0  0  0  0  0  0  0
    6.2201  -14.4092   22.5467 N   0  0  0  0  0  0  0  0  0  0  0  0
    8.1066  -15.5086   23.4652 C   0  0  0  0  0  0  0  0  0  0  0  0
    7.4799  -16.5892   23.5843 O   0  0  0  0  0  0  0  0  0  0  0  0
   11.6118  -18.7815   21.5647 N   0  0  0  0  0  0  0  0  0  0  0  0
   11.5179  -17.5504   20.8492 C   0  0  0  0  0  0  0  0  0  0  0  0
   11.3840  -17.6185   19.5997 O   0  0  0  0  0  0  0  0  0  0  0  0
   11.5807  -16.2647   21.5929 C   0  0  0  0  0  0  0  0  0  0  0  0
   11.6649  -16.5967   23.0544 C   0  0  0  0  0  0  0  0  0  0  0  0
   10.2665  -16.8076   23.6512 C   0  0  2  0  0  0  0  0  0  0  0  0
    9.5235  -15.5840   23.4204 N   0  0  0  0  0  0  0  0  0  0  0  0
   10.3671  -17.1178   25.1003 C   0  0  0  0  0  0  0  0  0  0  0  0
   10.9971  -16.3316   25.8575 O   0  0  0  0  0  0  0  0  0  0  0  0
    8.6944  -19.5063   27.4274 C   0  0  0  0  0  0  0  0  0  0  0  0
    9.8218  -18.5829   26.9994 C   0  0  2  0  0  0  0  0  0  0  0  0
    9.7440  -18.2995   25.5832 N   0  0  0  0  0  0  0  0  0  0  0  0
   11.1356  -19.1808   27.3618 C   0  0  0  0  0  0  0  0  0  0  0  0
   11.9892  -19.4774   26.4910 O   0  0  0  0  0  0  0  0  0  0  0  0
   11.4304  -19.4181   28.6844 O   0  0  0  0  0  0  0  0  0  0  0  0
  1  2  1  0
  3  2  1  0
  4  3  1  0
  5  4  1  0
  5  7  1  0
  5  6  1  6
  7  8  2  0
  9 10  1  0
 10 11  2  0
 10 12  1  0
 12 13  1  0
 14 13  1  1
 15  7  1  0
 15 14  1  0
 16 14  1  0
 16 20  1  0
 17 16  2  0
 19 20  1  0
 19 18  1  6
 21 19  1  0
 21 23  1  0
 22 21  2  0
M  END
$$$$
