MQA.pdb
     RDKit          3D

 23 22  0  0  1  0  0  0  0  0999 V2000
    8.1354  -12.2092   28.0644 C   0  0  0  0  0  0  0  0  0  0  0  0
    6.4717  -11.9016   27.4338 S   0  0  0  0  0  0  0  0  0  0  0  0
    5.7994  -13.4561   26.7593 C   0  0  0  0  0  0  0  0  0  0  0  0
    6.8815  -14.1386   25.9503 C   0  0  0  0  0  0  0  0  0  0  0  0
    6.3122  -15.3498   25.2514 C   0  0  2  0  0  0  0  0  0  0  0  0
    6.1663  -16.4718   26.1467 N   0  0  0  0  0  0  0  0  0  0  0  0
    7.1506  -15.7784   24.1067 C   0  0  0  0  0  0  0  0  0  0  0  0
    7.6208  -16.9405   24.0530 O   0  0  0  0  0  0  0  0  0  0  0  0
    7.5749  -12.4442   18.9036 N   0  0  0  0  0  0  0  0  0  0  0  0
    8.4919  -13.4830   18.5626 C   0  0  0  0  0  0  0  0  0  0  0  0
    8.9868  -13.4585   17.4058 O   0  0  0  0  0  0  0  0  0  0  0  0
    8.8187  -14.5299   19.5663 C   0  0  0  0  0  0  0  0  0  0  0  0
    8.0567  -14.2034   20.8178 C   0  0  0  0  0  0  0  0  0  0  0  0
    8.2273  -15.3090   21.8689 C   0  0  2  0  0  0  0  0  0  0  0  0
    7.4579  -14.9058   23.0299 N   0  0  0  0  0  0  0  0  0  0  0  0
    9.6640  -15.4842   22.2026 C   0  0  0  0  0  0  0  0  0  0  0  0
   10.4689  -15.8368   21.2991 O   0  0  0  0  0  0  0  0  0  0  0  0
   11.8103  -14.9652   25.2396 C   0  0  0  0  0  0  0  0  0  0  0  0
   11.4418  -15.5787   23.8999 C   0  0  2  0  0  0  0  0  0  0  0  0
   10.0812  -15.2459   23.5394 N   0  0  0  0  0  0  0  0  0  0  0  0
   11.6476  -17.0520   23.9404 C   0  0  0  0  0  0  0  0  0  0  0  0
   10.7144  -17.8563   23.7011 O   0  0  0  0  0  0  0  0  0  0  0  0
   12.8908  -17.5545   24.2474 O   0  0  0  0  0  0  0  0  0  0  0  0
  1  2  1  0
  3  2  1  0
  4  3  1  0
  5  4  1  0
  5  7  1  0
  5  6  1  1
  7  8  2  0
  9 10  1  0
 10 11  2  0
 10 12  1  0
 12 13  1  0
 14 13  1  6
 15  7  1  0
 15 14  1  0
 16 14  1  0
 16 20  1  0
 17 16  2  0
 19 20  1  0
 19 18  1  1
 21 19  1  0
 21 23  1  0
 22 21  2  0
M  END
$$$$
