MQA.pdb
     RDKit          3D

 23 22  0  0  1  0  0  0  0  0999 V2000
    7.2919  -10.8269   25.4688 C   0  0  0  0  0  0  0  0  0  0  0  0
    5.7345  -11.7031   25.7269 S   0  0  0  0  0  0  0  0  0  0  0  0
    5.7857  -13.2795   24.8127 C   0  0  0  0  0  0  0  0  0  0  0  0
    6.9557  -14.0942   25.3212 C   0  0  0  0  0  0  0  0  0  0  0  0
    7.1168  -15.3390   24.4823 C   0  0  2  0  0  0  0  0  0  0  0  0
    5.9439  -16.1780   24.5289 N   0  0  0  0  0  0  0  0  0  0  0  0
    8.2822  -16.1505   24.9068 C   0  0  0  0  0  0  0  0  0  0  0  0
    8.2002  -16.9317   25.8854 O   0  0  0  0  0  0  0  0  0  0  0  0
   13.8651  -17.9484   21.6112 N   0  0  0  0  0  0  0  0  0  0  0  0
   13.9839  -17.1813   22.8086 C   0  0  0  0  0  0  0  0  0  0  0  0
   14.9207  -16.3428   22.8657 O   0  0  0  0  0  0  0  0  0  0  0  0
   13.0169  -17.3990   23.9167 C   0  0  0  0  0  0  0  0  0  0  0  0
   11.7676  -16.6397   23.5760 C   0  0  0  0  0  0  0  0  0  0  0  0
   10.7222  -16.7734   24.6919 C   0  0  2  0  0  0  0  0  0  0  0  0
    9.5312  -16.0838   24.2353 N   0  0  0  0  0  0  0  0  0  0  0  0
   11.2398  -16.1869   25.9546 C   0  0  0  0  0  0  0  0  0  0  0  0
   12.0113  -15.1916   25.9021 O   0  0  0  0  0  0  0  0  0  0  0  0
   10.5659  -15.1770   29.0103 C   0  0  0  0  0  0  0  0  0  0  0  0
   11.4317  -16.2685   28.4056 C   0  0  2  0  0  0  0  0  0  0  0  0
   10.8426  -16.7746   27.1854 N   0  0  0  0  0  0  0  0  0  0  0  0
   11.6454  -17.3574   29.3972 C   0  0  0  0  0  0  0  0  0  0  0  0
   11.2864  -18.5382   29.1695 O   0  0  0  0  0  0  0  0  0  0  0  0
   12.2519  -17.0709   30.5982 O   0  0  0  0  0  0  0  0  0  0  0  0
  1  2  1  0
  3  2  1  0
  4  3  1  0
  5  4  1  0
  5  7  1  0
  5  6  1  1
  7  8  2  0
  9 10  1  0
 10 11  2  0
 10 12  1  0
 12 13  1  0
 14 13  1  6
 15  7  1  0
 15 14  1  0
 16 14  1  0
 16 20  1  0
 17 16  2  0
 19 20  1  0
 19 18  1  1
 21 19  1  0
 21 23  1  0
 22 21  2  0
M  END
$$$$
