MQA.pdb
     RDKit          3D

 23 22  0  0  1  0  0  0  0  0999 V2000
    7.8099  -11.6337   20.3561 C   0  0  0  0  0  0  0  0  0  0  0  0
    8.4839  -13.0236   19.4213 S   0  0  0  0  0  0  0  0  0  0  0  0
    7.1221  -14.1501   18.9745 C   0  0  0  0  0  0  0  0  0  0  0  0
    6.4802  -14.6594   20.2472 C   0  0  0  0  0  0  0  0  0  0  0  0
    7.2490  -15.8496   20.7684 C   0  0  2  0  0  0  0  0  0  0  0  0
    6.8799  -17.0698   20.0927 N   0  0  0  0  0  0  0  0  0  0  0  0
    7.0490  -16.0489   22.2235 C   0  0  0  0  0  0  0  0  0  0  0  0
    5.9099  -15.9376   22.7377 O   0  0  0  0  0  0  0  0  0  0  0  0
    6.3959  -19.0005   27.3091 N   0  0  0  0  0  0  0  0  0  0  0  0
    7.6394  -19.2252   26.6461 C   0  0  0  0  0  0  0  0  0  0  0  0
    7.9045  -20.4065   26.3027 O   0  0  0  0  0  0  0  0  0  0  0  0
    8.5519  -18.0791   26.3932 C   0  0  0  0  0  0  0  0  0  0  0  0
    8.5989  -17.8636   24.9083 C   0  0  0  0  0  0  0  0  0  0  0  0
    7.9734  -16.5140   24.5293 C   0  0  2  0  0  0  0  0  0  0  0  0
    8.1231  -16.3712   23.0941 N   0  0  0  0  0  0  0  0  0  0  0  0
    8.6491  -15.4109   25.2591 C   0  0  0  0  0  0  0  0  0  0  0  0
    9.8668  -15.1765   25.0337 O   0  0  0  0  0  0  0  0  0  0  0  0
    7.5829  -12.5954   27.4673 C   0  0  0  0  0  0  0  0  0  0  0  0
    8.5706  -13.6275   26.9515 C   0  0  2  0  0  0  0  0  0  0  0  0
    7.8912  -14.6541   26.1923 N   0  0  0  0  0  0  0  0  0  0  0  0
    9.3380  -14.2098   28.0859 C   0  0  0  0  0  0  0  0  0  0  0  0
    9.2369  -15.4208   28.3995 O   0  0  0  0  0  0  0  0  0  0  0  0
   10.1833  -13.4064   28.8155 O   0  0  0  0  0  0  0  0  0  0  0  0
  1  2  1  0
  3  2  1  0
  4  3  1  0
  5  4  1  0
  5  7  1  0
  5  6  1  6
  7  8  2  0
  9 10  1  0
 10 11  2  0
 10 12  1  0
 12 13  1  0
 14 13  1  1
 15  7  1  0
 15 14  1  0
 16 14  1  0
 16 20  1  0
 17 16  2  0
 19 20  1  0
 19 18  1  1
 21 19  1  0
 21 23  1  0
 22 21  2  0
M  END
$$$$
