DWK.pdb
     RDKit          3D

 32 33  0  0  1  0  0  0  0  0999 V2000
   29.0956  -21.4458  -13.6846 N   0  0  0  0  0  0  0  0  0  0  0  0
   27.9274  -20.6075  -13.5691 C   0  0  1  0  0  0  0  0  0  0  0  0
   27.2110  -20.5699  -14.8977 C   0  0  0  0  0  0  0  0  0  0  0  0
   27.9706  -19.9311  -15.9643 C   0  0  0  0  0  0  0  0  0  0  0  0
   28.5587  -18.8493  -15.7100 O   0  0  0  0  0  0  0  0  0  0  0  0
   27.0103  -20.9896  -12.4835 C   0  0  0  0  0  0  0  0  0  0  0  0
   26.6106  -22.1941  -12.3331 O   0  0  0  0  0  0  0  0  0  0  0  0
   28.0874  -20.4402  -17.2408 O   0  0  0  0  0  0  0  0  0  0  0  0
   26.5044  -20.0810  -11.5378 N   0  0  0  0  0  0  0  0  0  0  0  0
   25.7422  -20.5040  -10.3808 C   0  0  1  0  0  0  0  0  0  0  0  0
   26.1007  -19.6977   -9.2098 C   0  0  0  0  0  0  0  0  0  0  0  0
   27.2459  -20.2862   -8.4691 C   0  0  0  0  0  0  0  0  0  0  0  0
   28.1324  -21.2044   -9.0509 C   0  0  0  0  0  0  0  0  0  0  0  0
   29.0466  -21.4917   -8.1298 N   0  0  0  0  0  0  0  0  0  0  0  0
   28.8161  -20.8250   -6.9892 C   0  0  0  0  0  0  0  0  0  0  0  0
   29.4392  -20.7749   -5.7573 C   0  0  0  0  0  0  0  0  0  0  0  0
   28.9417  -19.9862   -4.7590 C   0  0  0  0  0  0  0  0  0  0  0  0
   27.8127  -19.2252   -4.9532 C   0  0  0  0  0  0  0  0  0  0  0  0
   27.1932  -19.2773   -6.1850 C   0  0  0  0  0  0  0  0  0  0  0  0
   27.6907  -20.0683   -7.1921 C   0  0  0  0  0  0  0  0  0  0  0  0
   24.3262  -20.5011  -10.7669 C   0  0  0  0  0  0  0  0  0  0  0  0
   23.8805  -19.5566  -11.4676 O   0  0  0  0  0  0  0  0  0  0  0  0
   23.3896  -21.4961  -10.4108 N   0  0  0  0  0  0  0  0  0  0  0  0
   21.9719  -21.4358  -10.8560 C   0  0  1  0  0  0  0  0  0  0  0  0
   21.2615  -22.6730  -10.3675 C   0  0  0  0  0  0  0  0  0  0  0  0
   19.8098  -22.6122  -10.7216 C   0  0  0  0  0  0  0  0  0  0  0  0
   19.0264  -23.8512  -10.4118 C   0  0  0  0  0  0  0  0  0  0  0  0
   17.6275  -23.8839  -10.9050 C   0  0  0  0  0  0  0  0  0  0  0  0
   16.8977  -25.0927  -10.6008 N   0  0  0  0  0  0  0  0  0  0  0  0
   21.4294  -20.2424  -10.1792 C   0  0  0  0  0  0  0  0  0  0  0  0
   20.3927  -19.4880  -10.7793 O   0  0  0  0  0  0  0  0  0  0  0  0
   21.8028  -19.7911   -9.0670 O   0  0  0  0  0  0  0  0  0  0  0  0
  2  1  1  6
  2  3  1  0
  3  4  1  0
  4  8  1  0
  5  4  2  0
  6  7  2  0
  6  2  1  0
  9  6  1  0
 10  9  1  0
 10 11  1  1
 11 12  1  0
 12 13  2  0
 12 20  1  0
 13 14  1  0
 14 15  1  0
 15 16  2  0
 16 17  1  0
 18 17  2  0
 19 18  1  0
 20 19  2  0
 20 15  1  0
 21 10  1  0
 22 21  2  0
 23 21  1  0
 24 25  1  1
 24 23  1  0
 26 25  1  0
 27 26  1  0
 27 28  1  0
 28 29  1  0
 30 24  1  0
 31 30  1  0
 32 30  2  0
M  END
$$$$
