DWK.pdb
     RDKit          3D

 32 33  0  0  1  0  0  0  0  0999 V2000
   28.1078  -22.5576  -15.7625 N   0  0  0  0  0  0  0  0  0  0  0  0
   27.9526  -21.3268  -15.0263 C   0  0  1  0  0  0  0  0  0  0  0  0
   27.3048  -20.2945  -15.9177 C   0  0  0  0  0  0  0  0  0  0  0  0
   28.1445  -19.8537  -17.0236 C   0  0  0  0  0  0  0  0  0  0  0  0
   27.6118  -19.1835  -17.9445 O   0  0  0  0  0  0  0  0  0  0  0  0
   27.2198  -21.4659  -13.7577 C   0  0  0  0  0  0  0  0  0  0  0  0
   26.0429  -21.9616  -13.7114 O   0  0  0  0  0  0  0  0  0  0  0  0
   29.4931  -20.1246  -17.1250 O   0  0  0  0  0  0  0  0  0  0  0  0
   27.7405  -21.0727  -12.5126 N   0  0  0  0  0  0  0  0  0  0  0  0
   26.9887  -21.1941  -11.2803 C   0  0  1  0  0  0  0  0  0  0  0  0
   27.8411  -20.8823  -10.1287 C   0  0  0  0  0  0  0  0  0  0  0  0
   27.0370  -20.6049   -8.9109 C   0  0  0  0  0  0  0  0  0  0  0  0
   25.6398  -20.7244   -8.8828 C   0  0  0  0  0  0  0  0  0  0  0  0
   25.2552  -20.4419   -7.6422 N   0  0  0  0  0  0  0  0  0  0  0  0
   26.3050  -20.1463   -6.8616 C   0  0  0  0  0  0  0  0  0  0  0  0
   26.4510  -19.7817   -5.5372 C   0  0  0  0  0  0  0  0  0  0  0  0
   27.6889  -19.5233   -5.0204 C   0  0  0  0  0  0  0  0  0  0  0  0
   28.8167  -19.6186   -5.8015 C   0  0  0  0  0  0  0  0  0  0  0  0
   28.6673  -19.9835   -7.1237 C   0  0  0  0  0  0  0  0  0  0  0  0
   27.4244  -20.2453   -7.6473 C   0  0  0  0  0  0  0  0  0  0  0  0
   25.7727  -20.3860  -11.4302 C   0  0  0  0  0  0  0  0  0  0  0  0
   25.8757  -19.1610  -11.6954 O   0  0  0  0  0  0  0  0  0  0  0  0
   24.4551  -20.8770  -11.2995 N   0  0  0  0  0  0  0  0  0  0  0  0
   23.2683  -19.9994  -11.4802 C   0  0  1  0  0  0  0  0  0  0  0  0
   23.2039  -19.5689  -12.9240 C   0  0  0  0  0  0  0  0  0  0  0  0
   22.9372  -20.7469  -13.8057 C   0  0  0  0  0  0  0  0  0  0  0  0
   23.1437  -20.5060  -15.2700 C   0  0  0  0  0  0  0  0  0  0  0  0
   22.8552  -21.6491  -16.1707 C   0  0  0  0  0  0  0  0  0  0  0  0
   23.0019  -21.3718  -17.5805 N   0  0  0  0  0  0  0  0  0  0  0  0
   22.1208  -20.8705  -11.1620 C   0  0  0  0  0  0  0  0  0  0  0  0
   20.8360  -20.3144  -10.9521 O   0  0  0  0  0  0  0  0  0  0  0  0
   22.1535  -22.1220  -11.0486 O   0  0  0  0  0  0  0  0  0  0  0  0
  2  1  1  6
  2  3  1  0
  3  4  1  0
  4  8  1  0
  5  4  2  0
  6  7  2  0
  6  2  1  0
  9  6  1  0
 10  9  1  0
 10 11  1  1
 11 12  1  0
 12 13  2  0
 12 20  1  0
 13 14  1  0
 14 15  1  0
 15 16  2  0
 16 17  1  0
 18 17  2  0
 19 18  1  0
 20 19  2  0
 20 15  1  0
 21 10  1  0
 22 21  2  0
 23 21  1  0
 24 25  1  6
 24 23  1  0
 26 25  1  0
 27 26  1  0
 27 28  1  0
 28 29  1  0
 30 24  1  0
 31 30  1  0
 32 30  2  0
M  END
$$$$
