DWK.pdb
     RDKit          3D

 32 33  0  0  1  0  0  0  0  0999 V2000
   28.4748  -21.6730  -15.5968 N   0  0  0  0  0  0  0  0  0  0  0  0
   27.9605  -20.7018  -14.6624 C   0  0  1  0  0  0  0  0  0  0  0  0
   27.4160  -19.5189  -15.4266 C   0  0  0  0  0  0  0  0  0  0  0  0
   28.3968  -18.8596  -16.2787 C   0  0  0  0  0  0  0  0  0  0  0  0
   29.5528  -19.3494  -16.3439 O   0  0  0  0  0  0  0  0  0  0  0  0
   26.9589  -21.2326  -13.7239 C   0  0  0  0  0  0  0  0  0  0  0  0
   25.9342  -21.8800  -14.1288 O   0  0  0  0  0  0  0  0  0  0  0  0
   28.1366  -17.7278  -17.0228 O   0  0  0  0  0  0  0  0  0  0  0  0
   27.0410  -21.0760  -12.3295 N   0  0  0  0  0  0  0  0  0  0  0  0
   26.0700  -21.6525  -11.4221 C   0  0  1  0  0  0  0  0  0  0  0  0
   26.7034  -21.9926  -10.1442 C   0  0  0  0  0  0  0  0  0  0  0  0
   26.8465  -20.8008   -9.2692 C   0  0  0  0  0  0  0  0  0  0  0  0
   26.0000  -19.6863   -9.3637 C   0  0  0  0  0  0  0  0  0  0  0  0
   26.3825  -18.8327   -8.4192 N   0  0  0  0  0  0  0  0  0  0  0  0
   27.4192  -19.3141   -7.7176 C   0  0  0  0  0  0  0  0  0  0  0  0
   28.1799  -18.8361   -6.6682 C   0  0  0  0  0  0  0  0  0  0  0  0
   29.2112  -19.5769   -6.1642 C   0  0  0  0  0  0  0  0  0  0  0  0
   29.5176  -20.8118   -6.6860 C   0  0  0  0  0  0  0  0  0  0  0  0
   28.7554  -21.2864   -7.7336 C   0  0  0  0  0  0  0  0  0  0  0  0
   27.7167  -20.5452   -8.2429 C   0  0  0  0  0  0  0  0  0  0  0  0
   24.9297  -20.7304  -11.3607 C   0  0  0  0  0  0  0  0  0  0  0  0
   25.1148  -19.5061  -11.5808 O   0  0  0  0  0  0  0  0  0  0  0  0
   23.6008  -21.1074  -11.0674 N   0  0  0  0  0  0  0  0  0  0  0  0
   22.4426  -20.5466  -11.8127 C   0  0  1  0  0  0  0  0  0  0  0  0
   22.5873  -20.9087  -13.2694 C   0  0  0  0  0  0  0  0  0  0  0  0
   21.4356  -20.3686  -14.0557 C   0  0  0  0  0  0  0  0  0  0  0  0
   21.5001  -20.6171  -15.5318 C   0  0  0  0  0  0  0  0  0  0  0  0
   20.3763  -20.0798  -16.3378 C   0  0  0  0  0  0  0  0  0  0  0  0
   20.3579  -20.4976  -17.7203 N   0  0  0  0  0  0  0  0  0  0  0  0
   21.2720  -21.2347  -11.2359 C   0  0  0  0  0  0  0  0  0  0  0  0
   20.2329  -20.4915  -10.6261 O   0  0  0  0  0  0  0  0  0  0  0  0
   21.0790  -22.4768  -11.2219 O   0  0  0  0  0  0  0  0  0  0  0  0
  2  1  1  6
  2  3  1  0
  3  4  1  0
  4  8  1  0
  5  4  2  0
  6  7  2  0
  6  2  1  0
  9  6  1  0
 10  9  1  0
 10 11  1  1
 11 12  1  0
 12 13  2  0
 12 20  1  0
 13 14  1  0
 14 15  1  0
 15 16  2  0
 16 17  1  0
 18 17  2  0
 19 18  1  0
 20 19  2  0
 20 15  1  0
 21 10  1  0
 22 21  2  0
 23 21  1  0
 24 25  1  6
 24 23  1  0
 26 25  1  0
 27 26  1  0
 27 28  1  0
 28 29  1  0
 30 24  1  0
 31 30  1  0
 32 30  2  0
M  END
$$$$
