DWK.pdb
     RDKit          3D

 32 33  0  0  1  0  0  0  0  0999 V2000
   28.3572  -21.9074  -15.1898 N   0  0  0  0  0  0  0  0  0  0  0  0
   28.1055  -20.7896  -14.3133 C   0  0  1  0  0  0  0  0  0  0  0  0
   27.3783  -19.7119  -15.0810 C   0  0  0  0  0  0  0  0  0  0  0  0
   28.1522  -19.1345  -16.1721 C   0  0  0  0  0  0  0  0  0  0  0  0
   29.0753  -18.3304  -15.8860 O   0  0  0  0  0  0  0  0  0  0  0  0
   27.3861  -21.1366  -13.0773 C   0  0  0  0  0  0  0  0  0  0  0  0
   26.2552  -21.7310  -13.1015 O   0  0  0  0  0  0  0  0  0  0  0  0
   27.9368  -19.4161  -17.5050 O   0  0  0  0  0  0  0  0  0  0  0  0
   27.8709  -20.8494  -11.7895 N   0  0  0  0  0  0  0  0  0  0  0  0
   27.1383  -21.1903  -10.5872 C   0  0  1  0  0  0  0  0  0  0  0  0
   28.0122  -21.1005   -9.4133 C   0  0  0  0  0  0  0  0  0  0  0  0
   27.2407  -20.8160   -8.1763 C   0  0  0  0  0  0  0  0  0  0  0  0
   25.8615  -21.0497   -8.0736 C   0  0  0  0  0  0  0  0  0  0  0  0
   25.5081  -20.7236   -6.8344 N   0  0  0  0  0  0  0  0  0  0  0  0
   26.5613  -20.2935   -6.1241 C   0  0  0  0  0  0  0  0  0  0  0  0
   26.7325  -19.8364   -4.8318 C   0  0  0  0  0  0  0  0  0  0  0  0
   27.9647  -19.4439   -4.3916 C   0  0  0  0  0  0  0  0  0  0  0  0
   29.0617  -19.4932   -5.2195 C   0  0  0  0  0  0  0  0  0  0  0  0
   28.8872  -19.9508   -6.5094 C   0  0  0  0  0  0  0  0  0  0  0  0
   27.6500  -20.3474   -6.9560 C   0  0  0  0  0  0  0  0  0  0  0  0
   25.9275  -20.3609  -10.5648 C   0  0  0  0  0  0  0  0  0  0  0  0
   26.0347  -19.1114  -10.6585 O   0  0  0  0  0  0  0  0  0  0  0  0
   24.6108  -20.8567  -10.4438 N   0  0  0  0  0  0  0  0  0  0  0  0
   23.4447  -20.1381  -11.0230 C   0  0  1  0  0  0  0  0  0  0  0  0
   23.3969  -20.4148  -12.5046 C   0  0  0  0  0  0  0  0  0  0  0  0
   22.1720  -19.8047  -13.1076 C   0  0  0  0  0  0  0  0  0  0  0  0
   22.0108  -20.0238  -14.5809 C   0  0  0  0  0  0  0  0  0  0  0  0
   22.3610  -18.8789  -15.4572 C   0  0  0  0  0  0  0  0  0  0  0  0
   22.1169  -19.0868  -16.8655 N   0  0  0  0  0  0  0  0  0  0  0  0
   22.2766  -20.7467  -10.3584 C   0  0  0  0  0  0  0  0  0  0  0  0
   21.0690  -20.0201  -10.2254 O   0  0  0  0  0  0  0  0  0  0  0  0
   22.2262  -21.9029   -9.8675 O   0  0  0  0  0  0  0  0  0  0  0  0
  2  1  1  6
  2  3  1  0
  3  4  1  0
  4  8  1  0
  5  4  2  0
  6  7  2  0
  6  2  1  0
  9  6  1  0
 10  9  1  0
 10 11  1  1
 11 12  1  0
 12 13  2  0
 12 20  1  0
 13 14  1  0
 14 15  1  0
 15 16  2  0
 16 17  1  0
 18 17  2  0
 19 18  1  0
 20 19  2  0
 20 15  1  0
 21 10  1  0
 22 21  2  0
 23 21  1  0
 24 25  1  6
 24 23  1  0
 26 25  1  0
 27 26  1  0
 27 28  1  0
 28 29  1  0
 30 24  1  0
 31 30  1  0
 32 30  2  0
M  END
$$$$
