DWK.pdb
     RDKit          3D

 32 33  0  0  1  0  0  0  0  0999 V2000
   28.2174  -22.8576  -15.7166 N   0  0  0  0  0  0  0  0  0  0  0  0
   27.6013  -21.5923  -15.3996 C   0  0  1  0  0  0  0  0  0  0  0  0
   26.7993  -21.1200  -16.5885 C   0  0  0  0  0  0  0  0  0  0  0  0
   27.5904  -20.9131  -17.7943 C   0  0  0  0  0  0  0  0  0  0  0  0
   28.4695  -20.0143  -17.7820 O   0  0  0  0  0  0  0  0  0  0  0  0
   26.7803  -21.6054  -14.1783 C   0  0  0  0  0  0  0  0  0  0  0  0
   26.0194  -22.5907  -13.8897 O   0  0  0  0  0  0  0  0  0  0  0  0
   27.4368  -21.6444  -18.9536 O   0  0  0  0  0  0  0  0  0  0  0  0
   26.7620  -20.5561  -13.2432 N   0  0  0  0  0  0  0  0  0  0  0  0
   25.9495  -20.5947  -12.0445 C   0  0  1  0  0  0  0  0  0  0  0  0
   26.5167  -19.7192  -11.0141 C   0  0  0  0  0  0  0  0  0  0  0  0
   27.5323  -20.4263  -10.1925 C   0  0  0  0  0  0  0  0  0  0  0  0
   28.5309  -21.2352  -10.7544 C   0  0  0  0  0  0  0  0  0  0  0  0
   29.2797  -21.6754   -9.7482 N   0  0  0  0  0  0  0  0  0  0  0  0
   28.8372  -21.2096   -8.5709 C   0  0  0  0  0  0  0  0  0  0  0  0
   29.2363  -21.3688   -7.2581 C   0  0  0  0  0  0  0  0  0  0  0  0
   28.5522  -20.7584   -6.2453 C   0  0  0  0  0  0  0  0  0  0  0  0
   27.4534  -19.9733   -6.5051 C   0  0  0  0  0  0  0  0  0  0  0  0
   27.0578  -19.8161   -7.8176 C   0  0  0  0  0  0  0  0  0  0  0  0
   27.7435  -20.4273   -8.8392 C   0  0  0  0  0  0  0  0  0  0  0  0
   24.5655  -20.3179  -12.4470 C   0  0  0  0  0  0  0  0  0  0  0  0
   24.3488  -19.6657  -13.5002 O   0  0  0  0  0  0  0  0  0  0  0  0
   23.4187  -20.7322  -11.7346 N   0  0  0  0  0  0  0  0  0  0  0  0
   22.0539  -20.6322  -12.3166 C   0  0  1  0  0  0  0  0  0  0  0  0
   21.8697  -21.7552  -13.3060 C   0  0  0  0  0  0  0  0  0  0  0  0
   20.4737  -21.7511  -13.8423 C   0  0  0  0  0  0  0  0  0  0  0  0
   20.1632  -22.8448  -14.8181 C   0  0  0  0  0  0  0  0  0  0  0  0
   18.7895  -22.8543  -15.3785 C   0  0  0  0  0  0  0  0  0  0  0  0
   18.4912  -23.9644  -16.2530 N   0  0  0  0  0  0  0  0  0  0  0  0
   21.1529  -20.8228  -11.1640 C   0  0  0  0  0  0  0  0  0  0  0  0
   20.1397  -19.8750  -10.8826 O   0  0  0  0  0  0  0  0  0  0  0  0
   21.1823  -21.7848  -10.3554 O   0  0  0  0  0  0  0  0  0  0  0  0
  2  1  1  6
  2  3  1  0
  3  4  1  0
  4  8  1  0
  5  4  2  0
  6  7  2  0
  6  2  1  0
  9  6  1  0
 10  9  1  0
 10 11  1  1
 11 12  1  0
 12 13  2  0
 12 20  1  0
 13 14  1  0
 14 15  1  0
 15 16  2  0
 16 17  1  0
 18 17  2  0
 19 18  1  0
 20 19  2  0
 20 15  1  0
 21 10  1  0
 22 21  2  0
 23 21  1  0
 24 25  1  6
 24 23  1  0
 26 25  1  0
 27 26  1  0
 27 28  1  0
 28 29  1  0
 30 24  1  0
 31 30  1  0
 32 30  2  0
M  END
$$$$
