DWK.pdb
     RDKit          3D

 32 33  0  0  1  0  0  0  0  0999 V2000
   29.3535  -20.9914  -13.2027 N   0  0  0  0  0  0  0  0  0  0  0  0
   28.0589  -20.3681  -13.3319 C   0  0  1  0  0  0  0  0  0  0  0  0
   27.5311  -20.6066  -14.7262 C   0  0  0  0  0  0  0  0  0  0  0  0
   28.3974  -20.1027  -15.7837 C   0  0  0  0  0  0  0  0  0  0  0  0
   28.6798  -20.8710  -16.7379 O   0  0  0  0  0  0  0  0  0  0  0  0
   27.0794  -20.7857  -12.3161 C   0  0  0  0  0  0  0  0  0  0  0  0
   26.3113  -21.7911  -12.4955 O   0  0  0  0  0  0  0  0  0  0  0  0
   28.9291  -18.8302  -15.8056 O   0  0  0  0  0  0  0  0  0  0  0  0
   26.9073  -20.1276  -11.0860 N   0  0  0  0  0  0  0  0  0  0  0  0
   25.9405  -20.5619  -10.0985 C   0  0  1  0  0  0  0  0  0  0  0  0
   26.2218  -19.9413   -8.8002 C   0  0  0  0  0  0  0  0  0  0  0  0
   27.4579  -20.4909   -8.1866 C   0  0  0  0  0  0  0  0  0  0  0  0
   28.2984  -21.3931   -8.8551 C   0  0  0  0  0  0  0  0  0  0  0  0
   29.3171  -21.6453   -8.0392 N   0  0  0  0  0  0  0  0  0  0  0  0
   29.1973  -20.9705   -6.8864 C   0  0  0  0  0  0  0  0  0  0  0  0
   29.9524  -20.8889   -5.7325 C   0  0  0  0  0  0  0  0  0  0  0  0
   29.5482  -20.1009   -4.6924 C   0  0  0  0  0  0  0  0  0  0  0  0
   28.3846  -19.3717   -4.7664 C   0  0  0  0  0  0  0  0  0  0  0  0
   27.6332  -19.4551   -5.9207 C   0  0  0  0  0  0  0  0  0  0  0  0
   28.0363  -20.2456   -6.9695 C   0  0  0  0  0  0  0  0  0  0  0  0
   24.6059  -20.3232  -10.6608 C   0  0  0  0  0  0  0  0  0  0  0  0
   24.3544  -19.2164  -11.2024 O   0  0  0  0  0  0  0  0  0  0  0  0
   23.5452  -21.2554  -10.6479 N   0  0  0  0  0  0  0  0  0  0  0  0
   22.2762  -21.0116  -11.3839 C   0  0  1  0  0  0  0  0  0  0  0  0
   22.0520  -22.1508  -12.3462 C   0  0  0  0  0  0  0  0  0  0  0  0
   20.7428  -21.9860  -13.0499 C   0  0  0  0  0  0  0  0  0  0  0  0
   20.4341  -23.0350  -14.0742 C   0  0  0  0  0  0  0  0  0  0  0  0
   19.1691  -22.8625  -14.8300 C   0  0  0  0  0  0  0  0  0  0  0  0
   18.8638  -23.9201  -15.7652 N   0  0  0  0  0  0  0  0  0  0  0  0
   21.2393  -21.0262  -10.3346 C   0  0  0  0  0  0  0  0  0  0  0  0
   20.0794  -20.2250  -10.4626 O   0  0  0  0  0  0  0  0  0  0  0  0
   21.2680  -21.7070   -9.2782 O   0  0  0  0  0  0  0  0  0  0  0  0
  2  1  1  1
  2  3  1  0
  3  4  1  0
  4  8  1  0
  5  4  2  0
  6  7  2  0
  6  2  1  0
  9  6  1  0
 10  9  1  0
 10 11  1  1
 11 12  1  0
 12 13  2  0
 12 20  1  0
 13 14  1  0
 14 15  1  0
 15 16  2  0
 16 17  1  0
 18 17  2  0
 19 18  1  0
 20 19  2  0
 20 15  1  0
 21 10  1  0
 22 21  2  0
 23 21  1  0
 24 25  1  6
 24 23  1  0
 26 25  1  0
 27 26  1  0
 27 28  1  0
 28 29  1  0
 30 24  1  0
 31 30  1  0
 32 30  2  0
M  END
$$$$
