DWK.pdb
     RDKit          3D

 32 33  0  0  1  0  0  0  0  0999 V2000
   21.1658  -20.4363  -10.7459 N   0  0  0  0  0  0  0  0  0  0  0  0
   22.2049  -21.2791  -11.2853 C   0  0  1  0  0  0  0  0  0  0  0  0
   21.8282  -21.6945  -12.6872 C   0  0  0  0  0  0  0  0  0  0  0  0
   20.6400  -22.5344  -12.7589 C   0  0  0  0  0  0  0  0  0  0  0  0
   20.0072  -22.7616  -11.6965 O   0  0  0  0  0  0  0  0  0  0  0  0
   23.5495  -20.6820  -11.2530 C   0  0  0  0  0  0  0  0  0  0  0  0
   23.7595  -19.4770  -11.6229 O   0  0  0  0  0  0  0  0  0  0  0  0
   20.1618  -23.0980  -13.9234 O   0  0  0  0  0  0  0  0  0  0  0  0
   24.6958  -21.3719  -10.8219 N   0  0  0  0  0  0  0  0  0  0  0  0
   26.0200  -20.7860  -10.8647 C   0  0  1  0  0  0  0  0  0  0  0  0
   26.8795  -21.3902   -9.8419 C   0  0  0  0  0  0  0  0  0  0  0  0
   27.0003  -20.5202   -8.6440 C   0  0  0  0  0  0  0  0  0  0  0  0
   26.0945  -19.4863   -8.3648 C   0  0  0  0  0  0  0  0  0  0  0  0
   26.4745  -18.9438   -7.2123 N   0  0  0  0  0  0  0  0  0  0  0  0
   27.5649  -19.5523   -6.7229 C   0  0  0  0  0  0  0  0  0  0  0  0
   28.3463  -19.3750   -5.5977 C   0  0  0  0  0  0  0  0  0  0  0  0
   29.4357  -20.1691   -5.3765 C   0  0  0  0  0  0  0  0  0  0  0  0
   29.7814  -21.1610   -6.2642 C   0  0  0  0  0  0  0  0  0  0  0  0
   28.9983  -21.3356   -7.3867 C   0  0  0  0  0  0  0  0  0  0  0  0
   27.9013  -20.5400   -7.6126 C   0  0  0  0  0  0  0  0  0  0  0  0
   26.4922  -20.8771  -12.2514 C   0  0  0  0  0  0  0  0  0  0  0  0
   26.2930  -21.9348  -12.9019 O   0  0  0  0  0  0  0  0  0  0  0  0
   27.1717  -19.8501  -12.9426 N   0  0  0  0  0  0  0  0  0  0  0  0
   27.4867  -19.9541  -14.3922 C   0  0  1  0  0  0  0  0  0  0  0  0
   28.0788  -18.6452  -14.8508 C   0  0  0  0  0  0  0  0  0  0  0  0
   28.4641  -18.7267  -16.2934 C   0  0  0  0  0  0  0  0  0  0  0  0
   29.1233  -17.5001  -16.8466 C   0  0  0  0  0  0  0  0  0  0  0  0
   29.4491  -17.5259  -18.2938 C   0  0  0  0  0  0  0  0  0  0  0  0
   30.2203  -16.4011  -18.7693 N   0  0  0  0  0  0  0  0  0  0  0  0
   28.5029  -21.0211  -14.4672 C   0  0  0  0  0  0  0  0  0  0  0  0
   28.5856  -21.8522  -15.6101 O   0  0  0  0  0  0  0  0  0  0  0  0
   29.3530  -21.2940  -13.5824 O   0  0  0  0  0  0  0  0  0  0  0  0
  2  1  1  6
  2  3  1  0
  3  4  1  0
  4  8  1  0
  5  4  2  0
  6  7  2  0
  6  2  1  0
  9  6  1  0
 10  9  1  0
 10 11  1  1
 11 12  1  0
 12 13  2  0
 12 20  1  0
 13 14  1  0
 14 15  1  0
 15 16  2  0
 16 17  1  0
 18 17  2  0
 19 18  1  0
 20 19  2  0
 20 15  1  0
 21 10  1  0
 22 21  2  0
 23 21  1  0
 24 25  1  1
 24 23  1  0
 26 25  1  0
 27 26  1  0
 27 28  1  0
 28 29  1  0
 30 24  1  0
 31 30  1  0
 32 30  2  0
M  END
$$$$
