DWK.pdb
     RDKit          3D

 32 33  0  0  1  0  0  0  0  0999 V2000
  -30.8746  -74.3985   40.9183 N   0  0  0  0  0  0  0  0  0  0  0  0
  -30.7615  -72.9892   40.6317 C   0  0  1  0  0  0  0  0  0  0  0  0
  -32.0745  -72.4890   40.0790 C   0  0  0  0  0  0  0  0  0  0  0  0
  -32.0659  -71.0791   39.7117 C   0  0  0  0  0  0  0  0  0  0  0  0
  -32.3524  -70.7714   38.5268 O   0  0  0  0  0  0  0  0  0  0  0  0
  -30.3208  -72.1706   41.7725 C   0  0  0  0  0  0  0  0  0  0  0  0
  -30.0485  -72.6901   42.9078 O   0  0  0  0  0  0  0  0  0  0  0  0
  -31.7633  -70.0555   40.5851 O   0  0  0  0  0  0  0  0  0  0  0  0
  -30.1651  -70.7749   41.7131 N   0  0  0  0  0  0  0  0  0  0  0  0
  -29.4272  -70.1175   40.6539 C   0  0  1  0  0  0  0  0  0  0  0  0
  -30.3148  -69.8077   39.5288 C   0  0  0  0  0  0  0  0  0  0  0  0
  -29.7487  -68.7429   38.6614 C   0  0  0  0  0  0  0  0  0  0  0  0
  -28.7591  -68.9958   37.7002 C   0  0  0  0  0  0  0  0  0  0  0  0
  -28.5148  -67.8415   37.0878 N   0  0  0  0  0  0  0  0  0  0  0  0
  -29.2762  -66.8554   37.5843 C   0  0  0  0  0  0  0  0  0  0  0  0
  -29.4023  -65.5057   37.3182 C   0  0  0  0  0  0  0  0  0  0  0  0
  -30.2828  -64.7377   38.0260 C   0  0  0  0  0  0  0  0  0  0  0  0
  -31.0630  -65.2853   39.0173 C   0  0  0  0  0  0  0  0  0  0  0  0
  -30.9350  -66.6338   39.2800 C   0  0  0  0  0  0  0  0  0  0  0  0
  -30.0514  -67.4102   38.5700 C   0  0  0  0  0  0  0  0  0  0  0  0
  -28.7169  -68.9834   41.2567 C   0  0  0  0  0  0  0  0  0  0  0  0
  -29.0034  -67.8138   40.8941 O   0  0  0  0  0  0  0  0  0  0  0  0
  -27.7084  -69.0918   42.2393 N   0  0  0  0  0  0  0  0  0  0  0  0
  -28.0089  -68.9668   43.6904 C   0  0  1  0  0  0  0  0  0  0  0  0
  -26.8276  -68.3239   44.3724 C   0  0  0  0  0  0  0  0  0  0  0  0
  -27.1764  -66.9405   44.8207 C   0  0  0  0  0  0  0  0  0  0  0  0
  -27.0672  -66.7028   46.2960 C   0  0  0  0  0  0  0  0  0  0  0  0
  -26.7844  -67.8941   47.1339 C   0  0  0  0  0  0  0  0  0  0  0  0
  -27.8285  -68.2504   48.0662 N   0  0  0  0  0  0  0  0  0  0  0  0
  -29.1746  -68.0640   43.7433 C   0  0  0  0  0  0  0  0  0  0  0  0
  -30.4167  -68.4654   43.1958 O   0  0  0  0  0  0  0  0  0  0  0  0
  -29.1938  -66.9125   44.2471 O   0  0  0  0  0  0  0  0  0  0  0  0
  2  1  1  1
  2  3  1  0
  3  4  1  0
  4  8  1  0
  5  4  2  0
  6  7  2  0
  6  2  1  0
  9  6  1  0
 10  9  1  0
 10 11  1  6
 11 12  1  0
 12 13  2  0
 12 20  1  0
 13 14  1  0
 14 15  1  0
 15 16  2  0
 16 17  1  0
 18 17  2  0
 19 18  1  0
 20 19  2  0
 20 15  1  0
 21 10  1  0
 22 21  2  0
 23 21  1  0
 24 25  1  1
 24 23  1  0
 26 25  1  0
 27 26  1  0
 27 28  1  0
 28 29  1  0
 30 24  1  0
 31 30  1  0
 32 30  2  0
M  END
$$$$
