YQP.pdb
     RDKit          3D

 29 30  0  0  1  0  0  0  0  0999 V2000
   22.3878  -15.6072  -23.8335 O   0  0  0  0  0  0  0  0  0  0  0  0
   21.7962  -14.8141  -22.8495 C   0  0  0  0  0  0  0  0  0  0  0  0
   20.6605  -15.2138  -22.1947 C   0  0  0  0  0  0  0  0  0  0  0  0
   20.0881  -14.4078  -21.2179 C   0  0  0  0  0  0  0  0  0  0  0  0
   20.6374  -13.1805  -20.8709 C   0  0  0  0  0  0  0  0  0  0  0  0
   20.0237  -12.3268  -19.8303 C   0  0  0  0  0  0  0  0  0  0  0  0
   20.9636  -12.3636  -18.6241 C   0  0  2  0  0  0  0  0  0  0  0  0
   20.8968  -13.7007  -18.0919 N   0  0  0  0  0  0  0  0  0  0  0  0
   20.5719  -11.3250  -17.6281 C   0  0  0  0  0  0  0  0  0  0  0  0
   19.5250  -11.5473  -16.9837 O   0  0  0  0  0  0  0  0  0  0  0  0
   21.7875  -12.8113  -21.5570 C   0  0  0  0  0  0  0  0  0  0  0  0
   22.3645  -13.5906  -22.5203 C   0  0  0  0  0  0  0  0  0  0  0  0
   20.1909   -9.7873  -13.3216 N   0  0  0  0  0  0  0  0  0  0  0  0
   20.8801   -8.5211  -13.2338 C   0  0  0  0  0  0  0  0  0  0  0  0
   20.6084   -7.8273  -12.2476 O   0  0  0  0  0  0  0  0  0  0  0  0
   21.8159   -8.2193  -14.3214 C   0  0  0  0  0  0  0  0  0  0  0  0
   21.8942   -9.1846  -15.4262 C   0  0  0  0  0  0  0  0  0  0  0  0
   20.9590   -9.0882  -16.5775 C   0  0  2  0  0  0  0  0  0  0  0  0
   21.3870  -10.1859  -17.4799 N   0  0  0  0  0  0  0  0  0  0  0  0
   20.8003   -7.8338  -17.2696 C   0  0  0  0  0  0  0  0  0  0  0  0
   21.8180   -7.3964  -17.9115 O   0  0  0  0  0  0  0  0  0  0  0  0
   19.6294   -7.0137  -17.3335 N   0  0  0  0  0  0  0  0  0  0  0  0
   18.4065   -7.3784  -16.6548 C   0  0  0  0  0  0  0  0  0  0  0  0
   17.7182   -6.0703  -16.3895 C   0  0  0  0  0  0  0  0  0  0  0  0
   17.9374   -5.4026  -17.7633 C   0  0  0  0  0  0  0  0  0  0  0  0
   19.4324   -5.7489  -17.9609 C   0  0  1  0  0  0  0  0  0  0  0  0
   20.2154   -4.6574  -17.3517 C   0  0  0  0  0  0  0  0  0  0  0  0
   20.8169   -4.8532  -16.2814 O   0  0  0  0  0  0  0  0  0  0  0  0
   20.2848   -3.4295  -17.9585 O   0  0  0  0  0  0  0  0  0  0  0  0
  2  1  1  0
  3  2  2  0
  4  3  1  0
  5  4  2  0
  5 11  1  0
  6  5  1  0
  7  8  1  1
  7  6  1  0
  9  7  1  0
  9 19  1  0
 10  9  2  0
 11 12  2  0
 12  2  1  0
 14 16  1  0
 14 13  1  0
 15 14  2  0
 17 16  1  0
 18 19  1  0
 18 17  1  1
 20 18  1  0
 21 20  2  0
 22 20  1  0
 23 22  1  0
 24 25  1  0
 24 23  1  0
 25 26  1  0
 26 22  1  0
 26 27  1  1
 27 29  1  0
 28 27  2  0
M  END
$$$$
