YQP.pdb
     RDKit          3D

 29 30  0  0  1  0  0  0  0  0999 V2000
   23.3686  -13.4385  -23.2595 O   0  0  0  0  0  0  0  0  0  0  0  0
   23.4637  -13.7591  -21.9046 C   0  0  0  0  0  0  0  0  0  0  0  0
   23.0415  -12.8907  -20.9320 C   0  0  0  0  0  0  0  0  0  0  0  0
   23.1457  -13.2307  -19.5885 C   0  0  0  0  0  0  0  0  0  0  0  0
   23.6752  -14.4488  -19.1832 C   0  0  0  0  0  0  0  0  0  0  0  0
   23.7837  -14.8052  -17.7517 C   0  0  0  0  0  0  0  0  0  0  0  0
   22.6646  -15.8079  -17.4647 C   0  0  2  0  0  0  0  0  0  0  0  0
   21.4814  -15.0345  -17.1867 N   0  0  0  0  0  0  0  0  0  0  0  0
   23.0471  -16.7046  -16.3361 C   0  0  0  0  0  0  0  0  0  0  0  0
   22.6932  -16.3363  -15.1960 O   0  0  0  0  0  0  0  0  0  0  0  0
   24.0917  -15.3007  -20.1985 C   0  0  0  0  0  0  0  0  0  0  0  0
   23.9971  -14.9836  -21.5247 C   0  0  0  0  0  0  0  0  0  0  0  0
   22.1083  -21.9204  -14.5881 N   0  0  0  0  0  0  0  0  0  0  0  0
   22.2347  -21.0943  -13.4103 C   0  0  0  0  0  0  0  0  0  0  0  0
   22.0817  -21.6720  -12.3283 O   0  0  0  0  0  0  0  0  0  0  0  0
   22.5311  -19.6777  -13.6448 C   0  0  0  0  0  0  0  0  0  0  0  0
   22.7172  -19.2531  -15.0389 C   0  0  0  0  0  0  0  0  0  0  0  0
   24.0599  -18.8443  -15.5283 C   0  0  2  0  0  0  0  0  0  0  0  0
   23.7661  -17.8823  -16.6194 N   0  0  0  0  0  0  0  0  0  0  0  0
   25.0169  -19.8486  -15.9196 C   0  0  0  0  0  0  0  0  0  0  0  0
   24.6076  -20.7505  -16.7309 O   0  0  0  0  0  0  0  0  0  0  0  0
   26.3849  -19.9566  -15.5138 N   0  0  0  0  0  0  0  0  0  0  0  0
   26.9320  -19.1376  -14.4560 C   0  0  0  0  0  0  0  0  0  0  0  0
   28.0624  -19.9519  -13.8952 C   0  0  0  0  0  0  0  0  0  0  0  0
   28.6950  -20.4260  -15.2204 C   0  0  0  0  0  0  0  0  0  0  0  0
   27.4046  -20.8451  -15.9641 C   0  0  1  0  0  0  0  0  0  0  0  0
   27.1491  -22.2585  -15.6283 C   0  0  0  0  0  0  0  0  0  0  0  0
   26.2299  -22.5492  -14.8434 O   0  0  0  0  0  0  0  0  0  0  0  0
   27.9178  -23.2529  -16.1769 O   0  0  0  0  0  0  0  0  0  0  0  0
  2  1  1  0
  3  2  2  0
  4  3  1  0
  5  4  2  0
  5 11  1  0
  6  5  1  0
  7  8  1  1
  7  6  1  0
  9  7  1  0
  9 19  1  0
 10  9  2  0
 11 12  2  0
 12  2  1  0
 14 16  1  0
 14 13  1  0
 15 14  2  0
 17 16  1  0
 18 19  1  0
 18 17  1  6
 20 18  1  0
 21 20  2  0
 22 20  1  0
 23 22  1  0
 24 25  1  0
 24 23  1  0
 25 26  1  0
 26 22  1  0
 26 27  1  1
 27 29  1  0
 28 27  2  0
M  END
$$$$
