YQP.pdb
     RDKit          3D

 29 30  0  0  1  0  0  0  0  0999 V2000
   19.7212  -22.9980   -8.0710 O   0  0  0  0  0  0  0  0  0  0  0  0
   20.7605  -22.2988   -8.6860 C   0  0  0  0  0  0  0  0  0  0  0  0
   20.8456  -22.1958  -10.0500 C   0  0  0  0  0  0  0  0  0  0  0  0
   21.8895  -21.4945  -10.6413 C   0  0  0  0  0  0  0  0  0  0  0  0
   22.8758  -20.8776   -9.8829 C   0  0  0  0  0  0  0  0  0  0  0  0
   23.9847  -20.1324  -10.5179 C   0  0  0  0  0  0  0  0  0  0  0  0
   24.9453  -21.1783  -11.0866 C   0  0  2  0  0  0  0  0  0  0  0  0
   25.7717  -21.6159   -9.9907 N   0  0  0  0  0  0  0  0  0  0  0  0
   25.7358  -20.6006  -12.2116 C   0  0  0  0  0  0  0  0  0  0  0  0
   26.7676  -19.9722  -11.8937 O   0  0  0  0  0  0  0  0  0  0  0  0
   22.7542  -21.0049   -8.5049 C   0  0  0  0  0  0  0  0  0  0  0  0
   21.7349  -21.6905   -7.9057 C   0  0  0  0  0  0  0  0  0  0  0  0
   29.1253  -21.8252  -15.4270 N   0  0  0  0  0  0  0  0  0  0  0  0
   28.5546  -21.4784  -16.7075 C   0  0  0  0  0  0  0  0  0  0  0  0
   29.3614  -21.3084  -17.6284 O   0  0  0  0  0  0  0  0  0  0  0  0
   27.0930  -21.3746  -16.7555 C   0  0  0  0  0  0  0  0  0  0  0  0
   26.3701  -21.4896  -15.4816 C   0  0  0  0  0  0  0  0  0  0  0  0
   26.0818  -20.2795  -14.6679 C   0  0  2  0  0  0  0  0  0  0  0  0
   25.2805  -20.7950  -13.5303 N   0  0  0  0  0  0  0  0  0  0  0  0
   25.4824  -19.1245  -15.2879 C   0  0  0  0  0  0  0  0  0  0  0  0
   24.2623  -19.2372  -15.6593 O   0  0  0  0  0  0  0  0  0  0  0  0
   26.0888  -17.8519  -15.5340 N   0  0  0  0  0  0  0  0  0  0  0  0
   27.4595  -17.5780  -15.1663 C   0  0  0  0  0  0  0  0  0  0  0  0
   27.9012  -16.5112  -16.1266 C   0  0  0  0  0  0  0  0  0  0  0  0
   26.6518  -15.6072  -16.0698 C   0  0  0  0  0  0  0  0  0  0  0  0
   25.5620  -16.6992  -16.1864 C   0  0  1  0  0  0  0  0  0  0  0  0
   25.3004  -16.9002  -17.6241 C   0  0  0  0  0  0  0  0  0  0  0  0
   24.5428  -16.1210  -18.2277 O   0  0  0  0  0  0  0  0  0  0  0  0
   25.8881  -17.9397  -18.2986 O   0  0  0  0  0  0  0  0  0  0  0  0
  2  1  1  0
  3  2  2  0
  4  3  1  0
  5  4  2  0
  5 11  1  0
  6  5  1  0
  7  8  1  1
  7  6  1  0
  9  7  1  0
  9 19  1  0
 10  9  2  0
 11 12  2  0
 12  2  1  0
 14 16  1  0
 14 13  1  0
 15 14  2  0
 17 16  1  0
 18 19  1  0
 18 17  1  6
 20 18  1  0
 21 20  2  0
 22 20  1  0
 23 22  1  0
 24 25  1  0
 24 23  1  0
 25 26  1  0
 26 22  1  0
 26 27  1  6
 27 29  1  0
 28 27  2  0
M  END
$$$$
