YQP.pdb
     RDKit          3D

 29 30  0  0  1  0  0  0  0  0999 V2000
   26.8794  -12.7020  -17.3243 O   0  0  0  0  0  0  0  0  0  0  0  0
   25.9435  -13.6180  -16.8422 C   0  0  0  0  0  0  0  0  0  0  0  0
   26.3002  -14.6158  -15.9730 C   0  0  0  0  0  0  0  0  0  0  0  0
   25.3514  -15.5174  -15.5055 C   0  0  0  0  0  0  0  0  0  0  0  0
   24.0208  -15.4439  -15.8958 C   0  0  0  0  0  0  0  0  0  0  0  0
   23.0153  -16.4063  -15.3949 C   0  0  0  0  0  0  0  0  0  0  0  0
   23.2169  -17.7004  -16.1852 C   0  0  2  0  0  0  0  0  0  0  0  0
   22.0805  -17.8277  -17.0615 N   0  0  0  0  0  0  0  0  0  0  0  0
   23.3636  -18.8586  -15.2572 C   0  0  0  0  0  0  0  0  0  0  0  0
   22.3443  -19.1774  -14.6091 O   0  0  0  0  0  0  0  0  0  0  0  0
   23.6995  -14.4192  -16.7771 C   0  0  0  0  0  0  0  0  0  0  0  0
   24.6187  -13.5236  -17.2474 C   0  0  0  0  0  0  0  0  0  0  0  0
   23.5234  -23.8624  -15.1225 N   0  0  0  0  0  0  0  0  0  0  0  0
   24.7549  -24.0935  -14.4044 C   0  0  0  0  0  0  0  0  0  0  0  0
   24.8557  -25.1924  -13.8476 O   0  0  0  0  0  0  0  0  0  0  0  0
   25.7305  -22.9993  -14.4281 C   0  0  0  0  0  0  0  0  0  0  0  0
   25.3072  -21.7365  -15.0482 C   0  0  0  0  0  0  0  0  0  0  0  0
   24.7982  -20.6196  -14.2097 C   0  0  2  0  0  0  0  0  0  0  0  0
   24.6122  -19.5051  -15.1717 N   0  0  0  0  0  0  0  0  0  0  0  0
   25.5258  -20.2178  -13.0320 C   0  0  0  0  0  0  0  0  0  0  0  0
   26.6223  -19.5840  -13.2197 O   0  0  0  0  0  0  0  0  0  0  0  0
   25.1638  -20.4363  -11.6649 N   0  0  0  0  0  0  0  0  0  0  0  0
   23.9164  -21.0684  -11.2994 C   0  0  0  0  0  0  0  0  0  0  0  0
   24.1916  -21.7020   -9.9659 C   0  0  0  0  0  0  0  0  0  0  0  0
   24.9535  -20.5364   -9.3009 C   0  0  0  0  0  0  0  0  0  0  0  0
   25.8961  -20.1689  -10.4715 C   0  0  1  0  0  0  0  0  0  0  0  0
   27.1113  -20.9921  -10.3256 C   0  0  0  0  0  0  0  0  0  0  0  0
   27.9552  -20.6977   -9.4615 O   0  0  0  0  0  0  0  0  0  0  0  0
   27.3153  -22.0797  -11.1358 O   0  0  0  0  0  0  0  0  0  0  0  0
  2  1  1  0
  3  2  2  0
  4  3  1  0
  5  4  2  0
  5 11  1  0
  6  5  1  0
  7  8  1  6
  7  6  1  0
  9  7  1  0
  9 19  1  0
 10  9  2  0
 11 12  2  0
 12  2  1  0
 14 16  1  0
 14 13  1  0
 15 14  2  0
 17 16  1  0
 18 19  1  0
 18 17  1  6
 20 18  1  0
 21 20  2  0
 22 20  1  0
 23 22  1  0
 24 25  1  0
 24 23  1  0
 25 26  1  0
 26 22  1  0
 26 27  1  6
 27 29  1  0
 28 27  2  0
M  END
$$$$
