YQP.pdb
     RDKit          3D

 29 30  0  0  1  0  0  0  0  0999 V2000
   33.4417  -26.0980  -16.4020 O   0  0  0  0  0  0  0  0  0  0  0  0
   32.3523  -25.2274  -16.4531 C   0  0  0  0  0  0  0  0  0  0  0  0
   31.2096  -25.4673  -15.7355 C   0  0  0  0  0  0  0  0  0  0  0  0
   30.1366  -24.5865  -15.8014 C   0  0  0  0  0  0  0  0  0  0  0  0
   30.1792  -23.4424  -16.5873 C   0  0  0  0  0  0  0  0  0  0  0  0
   29.0340  -22.5085  -16.6535 C   0  0  0  0  0  0  0  0  0  0  0  0
   27.9889  -23.1616  -17.5597 C   0  0  2  0  0  0  0  0  0  0  0  0
   28.6290  -23.3837  -18.8311 N   0  0  0  0  0  0  0  0  0  0  0  0
   26.7789  -22.2961  -17.6653 C   0  0  0  0  0  0  0  0  0  0  0  0
   26.9565  -21.1582  -18.1494 O   0  0  0  0  0  0  0  0  0  0  0  0
   31.3541  -23.2349  -17.2989 C   0  0  0  0  0  0  0  0  0  0  0  0
   32.4193  -24.0898  -17.2466 C   0  0  0  0  0  0  0  0  0  0  0  0
   24.4961  -23.8619  -20.9834 N   0  0  0  0  0  0  0  0  0  0  0  0
   24.4955  -22.4239  -21.1166 C   0  0  0  0  0  0  0  0  0  0  0  0
   24.8475  -21.9847  -22.2171 O   0  0  0  0  0  0  0  0  0  0  0  0
   24.0755  -21.6667  -19.9335 C   0  0  0  0  0  0  0  0  0  0  0  0
   23.7777  -22.4343  -18.7167 C   0  0  0  0  0  0  0  0  0  0  0  0
   24.3101  -21.9946  -17.4003 C   0  0  2  0  0  0  0  0  0  0  0  0
   25.5415  -22.8036  -17.2234 N   0  0  0  0  0  0  0  0  0  0  0  0
   23.4590  -22.0218  -16.2373 C   0  0  0  0  0  0  0  0  0  0  0  0
   23.0882  -23.1742  -15.8206 O   0  0  0  0  0  0  0  0  0  0  0  0
   22.9800  -20.9064  -15.4795 N   0  0  0  0  0  0  0  0  0  0  0  0
   23.2711  -19.5438  -15.8635 C   0  0  0  0  0  0  0  0  0  0  0  0
   22.1289  -18.7432  -15.3070 C   0  0  0  0  0  0  0  0  0  0  0  0
   22.0428  -19.3905  -13.9089 C   0  0  0  0  0  0  0  0  0  0  0  0
   22.1404  -20.8767  -14.3279 C   0  0  1  0  0  0  0  0  0  0  0  0
   20.7661  -21.3468  -14.5847 C   0  0  0  0  0  0  0  0  0  0  0  0
   20.3634  -21.4643  -15.7550 O   0  0  0  0  0  0  0  0  0  0  0  0
   19.9310  -21.6559  -13.5417 O   0  0  0  0  0  0  0  0  0  0  0  0
  2  1  1  0
  3  2  2  0
  4  3  1  0
  5  4  2  0
  5 11  1  0
  6  5  1  0
  7  8  1  6
  7  6  1  0
  9  7  1  0
  9 19  1  0
 10  9  2  0
 11 12  2  0
 12  2  1  0
 14 16  1  0
 14 13  1  0
 15 14  2  0
 17 16  1  0
 18 19  1  0
 18 17  1  6
 20 18  1  0
 21 20  2  0
 22 20  1  0
 23 22  1  0
 24 25  1  0
 24 23  1  0
 25 26  1  0
 26 22  1  0
 26 27  1  6
 27 29  1  0
 28 27  2  0
M  END
$$$$
