YQP.pdb
     RDKit          3D

 29 30  0  0  1  0  0  0  0  0999 V2000
   47.1213   -0.9990   -5.1707 O   0  0  0  0  0  0  0  0  0  0  0  0
   46.5973   -2.2781   -5.3619 C   0  0  0  0  0  0  0  0  0  0  0  0
   46.7790   -3.2721   -4.4360 C   0  0  0  0  0  0  0  0  0  0  0  0
   46.2481   -4.5390   -4.6470 C   0  0  0  0  0  0  0  0  0  0  0  0
   45.5213   -4.8443   -5.7902 C   0  0  0  0  0  0  0  0  0  0  0  0
   44.9585   -6.1946   -6.0094 C   0  0  0  0  0  0  0  0  0  0  0  0
   43.4705   -6.1095   -5.6649 C   0  0  2  0  0  0  0  0  0  0  0  0
   43.3746   -6.2076   -4.2308 N   0  0  0  0  0  0  0  0  0  0  0  0
   42.7117   -7.1826   -6.3696 C   0  0  0  0  0  0  0  0  0  0  0  0
   42.9044   -8.3490   -5.9659 O   0  0  0  0  0  0  0  0  0  0  0  0
   45.3592   -3.8104   -6.7039 C   0  0  0  0  0  0  0  0  0  0  0  0
   45.8739   -2.5586   -6.5135 C   0  0  0  0  0  0  0  0  0  0  0  0
   37.1677   -6.1733   -8.1816 N   0  0  0  0  0  0  0  0  0  0  0  0
   37.2937   -7.4247   -8.8914 C   0  0  0  0  0  0  0  0  0  0  0  0
   36.2690   -7.8333   -9.4489 O   0  0  0  0  0  0  0  0  0  0  0  0
   38.6192   -8.0509   -8.8645 C   0  0  0  0  0  0  0  0  0  0  0  0
   39.6771   -7.3505   -8.1237 C   0  0  0  0  0  0  0  0  0  0  0  0
   41.0689   -7.8725   -8.1251 C   0  0  2  0  0  0  0  0  0  0  0  0
   41.8462   -6.8227   -7.4209 N   0  0  0  0  0  0  0  0  0  0  0  0
   41.6822   -8.2761   -9.3655 C   0  0  0  0  0  0  0  0  0  0  0  0
   42.0478   -7.3406  -10.1594 O   0  0  0  0  0  0  0  0  0  0  0  0
   41.9419   -9.6085   -9.8184 N   0  0  0  0  0  0  0  0  0  0  0  0
   41.6271  -10.7630   -9.0078 C   0  0  0  0  0  0  0  0  0  0  0  0
   41.3985  -11.8682   -9.9986 C   0  0  0  0  0  0  0  0  0  0  0  0
   42.5961  -11.6009  -10.9343 C   0  0  0  0  0  0  0  0  0  0  0  0
   42.4576  -10.0655  -11.0662 C   0  0  1  0  0  0  0  0  0  0  0  0
   41.5605   -9.8067  -12.2082 C   0  0  0  0  0  0  0  0  0  0  0  0
   41.9657  -10.0025  -13.3671 O   0  0  0  0  0  0  0  0  0  0  0  0
   40.2833   -9.3530  -11.9995 O   0  0  0  0  0  0  0  0  0  0  0  0
  2  1  1  0
  3  2  2  0
  4  3  1  0
  5  4  2  0
  5 11  1  0
  6  5  1  0
  7  8  1  1
  7  6  1  0
  9  7  1  0
  9 19  1  0
 10  9  2  0
 11 12  2  0
 12  2  1  0
 14 16  1  0
 14 13  1  0
 15 14  2  0
 17 16  1  0
 18 19  1  0
 18 17  1  6
 20 18  1  0
 21 20  2  0
 22 20  1  0
 23 22  1  0
 24 25  1  0
 24 23  1  0
 25 26  1  0
 26 22  1  0
 26 27  1  6
 27 29  1  0
 28 27  2  0
M  END
$$$$
