YQP.pdb
     RDKit          3D

 29 30  0  0  1  0  0  0  0  0999 V2000
    9.3356   -9.3453   -8.5462 O   0  0  0  0  0  0  0  0  0  0  0  0
   10.6277   -9.6491   -8.9769 C   0  0  0  0  0  0  0  0  0  0  0  0
   11.2002  -10.8675   -8.7201 C   0  0  0  0  0  0  0  0  0  0  0  0
   12.4887  -11.1486   -9.1586 C   0  0  0  0  0  0  0  0  0  0  0  0
   13.2380  -10.2176   -9.8657 C   0  0  0  0  0  0  0  0  0  0  0  0
   14.6090  -10.5224  -10.3299 C   0  0  0  0  0  0  0  0  0  0  0  0
   14.4703  -11.1662  -11.7105 C   0  0  2  0  0  0  0  0  0  0  0  0
   14.0596  -12.5292  -11.4887 N   0  0  0  0  0  0  0  0  0  0  0  0
   15.7540  -11.0646  -12.4628 C   0  0  0  0  0  0  0  0  0  0  0  0
   16.6584  -11.8542  -12.1175 O   0  0  0  0  0  0  0  0  0  0  0  0
   12.6228   -8.9953  -10.1057 C   0  0  0  0  0  0  0  0  0  0  0  0
   11.3569   -8.7010   -9.6824 C   0  0  0  0  0  0  0  0  0  0  0  0
   18.0790  -12.6857  -16.2559 N   0  0  0  0  0  0  0  0  0  0  0  0
   18.5051  -11.5225  -16.9983 C   0  0  0  0  0  0  0  0  0  0  0  0
   19.4067  -11.7103  -17.8227 O   0  0  0  0  0  0  0  0  0  0  0  0
   17.8144  -10.2680  -16.6841 C   0  0  0  0  0  0  0  0  0  0  0  0
   16.7929  -10.3107  -15.6291 C   0  0  0  0  0  0  0  0  0  0  0  0
   17.1441   -9.9638  -14.2270 C   0  0  2  0  0  0  0  0  0  0  0  0
   15.8637  -10.1078  -13.4906 N   0  0  0  0  0  0  0  0  0  0  0  0
   17.8087   -8.7170  -13.9417 C   0  0  0  0  0  0  0  0  0  0  0  0
   17.0788   -7.6653  -13.9229 O   0  0  0  0  0  0  0  0  0  0  0  0
   19.1978   -8.5109  -13.6661 N   0  0  0  0  0  0  0  0  0  0  0  0
   20.1286   -9.6133  -13.5804 C   0  0  0  0  0  0  0  0  0  0  0  0
   21.4548   -9.0167  -13.9553 C   0  0  0  0  0  0  0  0  0  0  0  0
   21.3710   -7.7136  -13.1330 C   0  0  0  0  0  0  0  0  0  0  0  0
   19.9250   -7.2972  -13.4928 C   0  0  1  0  0  0  0  0  0  0  0  0
   20.0012   -6.4731  -14.7138 C   0  0  0  0  0  0  0  0  0  0  0  0
   19.6681   -6.9601  -15.8080 O   0  0  0  0  0  0  0  0  0  0  0  0
   20.4358   -5.1739  -14.6492 O   0  0  0  0  0  0  0  0  0  0  0  0
  2  1  1  0
  3  2  2  0
  4  3  1  0
  5  4  2  0
  5 11  1  0
  6  5  1  0
  7  8  1  1
  7  6  1  0
  9  7  1  0
  9 19  1  0
 10  9  2  0
 11 12  2  0
 12  2  1  0
 14 16  1  0
 14 13  1  0
 15 14  2  0
 17 16  1  0
 18 19  1  0
 18 17  1  6
 20 18  1  0
 21 20  2  0
 22 20  1  0
 23 22  1  0
 24 25  1  0
 24 23  1  0
 25 26  1  0
 26 22  1  0
 26 27  1  6
 27 29  1  0
 28 27  2  0
M  END
$$$$
