YQP.pdb
     RDKit          3D

 29 30  0  0  1  0  0  0  0  0999 V2000
   26.0831  -16.4626  -21.8527 O   0  0  0  0  0  0  0  0  0  0  0  0
   25.4749  -17.4048  -21.0222 C   0  0  0  0  0  0  0  0  0  0  0  0
   25.2316  -18.6843  -21.4486 C   0  0  0  0  0  0  0  0  0  0  0  0
   24.6246  -19.6064  -20.6044 C   0  0  0  0  0  0  0  0  0  0  0  0
   24.2451  -19.2720  -19.3112 C   0  0  0  0  0  0  0  0  0  0  0  0
   23.5994  -20.2578  -18.4171 C   0  0  0  0  0  0  0  0  0  0  0  0
   24.5612  -20.4851  -17.2495 C   0  0  2  0  0  0  0  0  0  0  0  0
   25.5687  -21.4011  -17.7198 N   0  0  0  0  0  0  0  0  0  0  0  0
   23.8226  -20.9993  -16.0603 C   0  0  0  0  0  0  0  0  0  0  0  0
   23.3914  -22.1689  -16.1434 O   0  0  0  0  0  0  0  0  0  0  0  0
   24.5087  -17.9663  -18.9167 C   0  0  0  0  0  0  0  0  0  0  0  0
   25.1046  -17.0459  -19.7329 C   0  0  0  0  0  0  0  0  0  0  0  0
   23.6753  -22.5438  -11.5154 N   0  0  0  0  0  0  0  0  0  0  0  0
   24.9380  -21.8522  -11.6285 C   0  0  0  0  0  0  0  0  0  0  0  0
   25.9340  -22.4859  -11.2619 O   0  0  0  0  0  0  0  0  0  0  0  0
   24.8811  -20.4892  -12.1656 C   0  0  0  0  0  0  0  0  0  0  0  0
   23.5702  -19.9980  -12.6114 C   0  0  0  0  0  0  0  0  0  0  0  0
   22.8855  -20.6270  -13.7712 C   0  0  2  0  0  0  0  0  0  0  0  0
   23.6613  -20.1546  -14.9448 N   0  0  0  0  0  0  0  0  0  0  0  0
   21.4645  -20.4576  -13.9433 C   0  0  0  0  0  0  0  0  0  0  0  0
   21.0447  -19.2630  -14.1325 O   0  0  0  0  0  0  0  0  0  0  0  0
   20.4567  -21.4736  -13.9363 N   0  0  0  0  0  0  0  0  0  0  0  0
   20.7786  -22.8635  -13.7053 C   0  0  0  0  0  0  0  0  0  0  0  0
   19.5250  -23.4486  -13.1210 C   0  0  0  0  0  0  0  0  0  0  0  0
   18.4954  -22.8066  -14.0744 C   0  0  0  0  0  0  0  0  0  0  0  0
   19.0428  -21.3594  -14.0770 C   0  0  1  0  0  0  0  0  0  0  0  0
   18.3923  -20.6468  -12.9613 C   0  0  0  0  0  0  0  0  0  0  0  0
   19.0507  -20.3578  -11.9471 O   0  0  0  0  0  0  0  0  0  0  0  0
   17.0675  -20.3006  -13.0362 O   0  0  0  0  0  0  0  0  0  0  0  0
  2  1  1  0
  3  2  2  0
  4  3  1  0
  5  4  2  0
  5 11  1  0
  6  5  1  0
  7  8  1  6
  7  6  1  0
  9  7  1  0
  9 19  1  0
 10  9  2  0
 11 12  2  0
 12  2  1  0
 14 16  1  0
 14 13  1  0
 15 14  2  0
 17 16  1  0
 18 19  1  0
 18 17  1  1
 20 18  1  0
 21 20  2  0
 22 20  1  0
 23 22  1  0
 24 25  1  0
 24 23  1  0
 25 26  1  0
 26 22  1  0
 26 27  1  1
 27 29  1  0
 28 27  2  0
M  END
$$$$
