VNM.pdb
     RDKit          3D

 24 23  0  0  1  0  0  0  0  0999 V2000
    8.8413  -13.1341   19.8020 C   0  0  0  0  0  0  0  0  0  0  0  0
    7.7634  -13.9295   19.1344 C   0  0  2  0  0  0  0  0  0  0  0  0
    6.6478  -13.0366   18.6227 C   0  0  0  0  0  0  0  0  0  0  0  0
    7.1817  -14.9677   20.0624 C   0  0  2  0  0  0  0  0  0  0  0  0
    6.5155  -14.4095   21.1928 N   0  0  0  0  0  0  0  0  0  0  0  0
    8.2828  -15.8405   20.5335 C   0  0  0  0  0  0  0  0  0  0  0  0
    8.8798  -16.6066   19.7340 O   0  0  0  0  0  0  0  0  0  0  0  0
   12.6088  -17.8242   21.7239 N   0  0  0  0  0  0  0  0  0  0  0  0
   12.2807  -16.4984   22.1595 C   0  0  0  0  0  0  0  0  0  0  0  0
   13.0933  -15.9533   22.9379 O   0  0  0  0  0  0  0  0  0  0  0  0
   11.0391  -15.8694   21.6792 C   0  0  0  0  0  0  0  0  0  0  0  0
    9.8614  -16.4906   22.3715 C   0  0  2  0  0  0  0  0  0  0  0  0
    8.6590  -15.8024   21.9059 N   0  0  0  0  0  0  0  0  0  0  0  0
    9.9627  -16.2426   23.8575 C   0  0  0  0  0  0  0  0  0  0  0  0
   10.9451  -16.6447   24.5268 O   0  0  0  0  0  0  0  0  0  0  0  0
    6.8965  -11.3708   28.1014 C   0  0  0  0  0  0  0  0  0  0  0  0
    6.5255  -12.1125   26.5001 S   0  0  0  0  0  0  0  0  0  0  0  0
    7.9675  -13.0611   25.9076 C   0  0  0  0  0  0  0  0  0  0  0  0
    7.8879  -14.4698   26.3727 C   0  0  0  0  0  0  0  0  0  0  0  0
    9.0905  -15.2948   25.9887 C   0  0  2  0  0  0  0  0  0  0  0  0
    8.9430  -15.5413   24.5532 N   0  0  0  0  0  0  0  0  0  0  0  0
    9.1008  -16.5380   26.7525 C   0  0  0  0  0  0  0  0  0  0  0  0
    8.4713  -17.6662   26.1881 O   0  0  0  0  0  0  0  0  0  0  0  0
    9.6168  -16.6944   27.8618 O   0  0  0  0  0  0  0  0  0  0  0  0
  2  1  1  1
  2  3  1  0
  4  2  1  0
  4  6  1  0
  4  5  1  1
  6  7  2  0
  9 11  1  0
  9  8  1  0
 10  9  2  0
 12 11  1  6
 13  6  1  0
 13 12  1  0
 14 12  1  0
 14 15  2  0
 16 17  1  0
 18 17  1  0
 19 18  1  0
 20 21  1  0
 20 19  1  1
 21 14  1  0
 22 20  1  0
 23 22  1  0
 24 22  2  0
M  END
$$$$
