VNM.pdb
     RDKit          3D

 24 23  0  0  1  0  0  0  0  0999 V2000
    7.8836  -14.6950   18.1211 C   0  0  0  0  0  0  0  0  0  0  0  0
    7.7859  -13.4190   18.8973 C   0  0  2  0  0  0  0  0  0  0  0  0
    7.8271  -12.2071   17.9844 C   0  0  0  0  0  0  0  0  0  0  0  0
    8.8873  -13.3055   19.9227 C   0  0  2  0  0  0  0  0  0  0  0  0
   10.1935  -13.2708   19.3517 N   0  0  0  0  0  0  0  0  0  0  0  0
    8.7919  -14.4660   20.8392 C   0  0  0  0  0  0  0  0  0  0  0  0
    7.7194  -14.7155   21.4475 O   0  0  0  0  0  0  0  0  0  0  0  0
   11.9184  -17.9662   19.4040 N   0  0  0  0  0  0  0  0  0  0  0  0
   10.9111  -18.0383   20.4217 C   0  0  0  0  0  0  0  0  0  0  0  0
    9.9184  -18.7553   20.1697 O   0  0  0  0  0  0  0  0  0  0  0  0
   11.0966  -17.2845   21.6728 C   0  0  0  0  0  0  0  0  0  0  0  0
    9.8835  -16.4410   21.9351 C   0  0  2  0  0  0  0  0  0  0  0  0
    9.9315  -15.2988   21.0245 N   0  0  0  0  0  0  0  0  0  0  0  0
    9.9488  -15.8878   23.3385 C   0  0  0  0  0  0  0  0  0  0  0  0
   10.9169  -15.1900   23.7269 O   0  0  0  0  0  0  0  0  0  0  0  0
    6.8249  -11.3272   26.8258 C   0  0  0  0  0  0  0  0  0  0  0  0
    6.3156  -12.9949   27.2854 S   0  0  0  0  0  0  0  0  0  0  0  0
    7.7406  -14.1298   27.1776 C   0  0  0  0  0  0  0  0  0  0  0  0
    7.8678  -14.6728   25.8007 C   0  0  0  0  0  0  0  0  0  0  0  0
    9.0289  -15.6212   25.6371 C   0  0  2  0  0  0  0  0  0  0  0  0
    8.9104  -16.1397   24.2732 N   0  0  0  0  0  0  0  0  0  0  0  0
    8.9400  -16.6865   26.6302 C   0  0  0  0  0  0  0  0  0  0  0  0
    9.3425  -16.3959   27.9498 O   0  0  0  0  0  0  0  0  0  0  0  0
    8.5395  -17.8336   26.4181 O   0  0  0  0  0  0  0  0  0  0  0  0
  2  1  1  6
  2  3  1  0
  4  2  1  0
  4  6  1  0
  4  5  1  6
  6  7  2  0
  9 11  1  0
  9  8  1  0
 10  9  2  0
 12 11  1  6
 13  6  1  0
 13 12  1  0
 14 12  1  0
 14 15  2  0
 16 17  1  0
 18 17  1  0
 19 18  1  0
 20 21  1  0
 20 19  1  1
 21 14  1  0
 22 20  1  0
 23 22  1  0
 24 22  2  0
M  END
$$$$
