VNM.pdb
     RDKit          3D

 24 23  0  0  1  0  0  0  0  0999 V2000
    8.3323  -12.5194   17.8848 C   0  0  0  0  0  0  0  0  0  0  0  0
    8.1002  -13.4323   19.0479 C   0  0  2  0  0  0  0  0  0  0  0  0
    8.7922  -12.9261   20.3003 C   0  0  0  0  0  0  0  0  0  0  0  0
    8.5688  -14.8368   18.7554 C   0  0  2  0  0  0  0  0  0  0  0  0
    7.9349  -15.4220   17.6201 N   0  0  0  0  0  0  0  0  0  0  0  0
    8.2969  -15.6760   19.9461 C   0  0  0  0  0  0  0  0  0  0  0  0
    7.1218  -16.0239   20.2299 O   0  0  0  0  0  0  0  0  0  0  0  0
   11.9900  -17.7815   20.3382 N   0  0  0  0  0  0  0  0  0  0  0  0
   11.4341  -17.6619   21.6542 C   0  0  0  0  0  0  0  0  0  0  0  0
   12.1866  -17.1884   22.5333 O   0  0  0  0  0  0  0  0  0  0  0  0
   10.0458  -18.0915   21.8910 C   0  0  0  0  0  0  0  0  0  0  0  0
    9.1540  -16.8870   21.9689 C   0  0  2  0  0  0  0  0  0  0  0  0
    9.3843  -16.0857   20.7684 N   0  0  0  0  0  0  0  0  0  0  0  0
    9.5582  -16.0369   23.1494 C   0  0  0  0  0  0  0  0  0  0  0  0
   10.3753  -15.0918   23.0314 O   0  0  0  0  0  0  0  0  0  0  0  0
    6.1253  -11.5443   27.9974 C   0  0  0  0  0  0  0  0  0  0  0  0
    6.3566  -12.4833   26.4755 S   0  0  0  0  0  0  0  0  0  0  0  0
    7.9112  -13.4351   26.5649 C   0  0  0  0  0  0  0  0  0  0  0  0
    7.9821  -14.4175   25.4528 C   0  0  0  0  0  0  0  0  0  0  0  0
    9.2161  -15.2834   25.4981 C   0  0  2  0  0  0  0  0  0  0  0  0
    9.0240  -16.2792   24.4423 N   0  0  0  0  0  0  0  0  0  0  0  0
    9.3350  -15.9053   26.8127 C   0  0  0  0  0  0  0  0  0  0  0  0
    9.2332  -17.3092   26.8918 O   0  0  0  0  0  0  0  0  0  0  0  0
    9.5188  -15.3071   27.8755 O   0  0  0  0  0  0  0  0  0  0  0  0
  2  1  1  6
  2  3  1  0
  4  2  1  0
  4  6  1  0
  4  5  1  6
  6  7  2  0
  9 11  1  0
  9  8  1  0
 10  9  2  0
 12 11  1  6
 13  6  1  0
 13 12  1  0
 14 12  1  0
 14 15  2  0
 16 17  1  0
 18 17  1  0
 19 18  1  0
 20 21  1  0
 20 19  1  1
 21 14  1  0
 22 20  1  0
 23 22  1  0
 24 22  2  0
M  END
$$$$
