VNM.pdb
     RDKit          3D

 24 23  0  0  1  0  0  0  0  0999 V2000
    6.8620  -12.7894   19.8519 C   0  0  0  0  0  0  0  0  0  0  0  0
    7.5253  -13.7510   20.7876 C   0  0  2  0  0  0  0  0  0  0  0  0
    8.7043  -13.1126   21.4991 C   0  0  0  0  0  0  0  0  0  0  0  0
    7.9925  -14.9936   20.0698 C   0  0  2  0  0  0  0  0  0  0  0  0
    6.9529  -15.6652   19.3618 N   0  0  0  0  0  0  0  0  0  0  0  0
    8.5712  -15.9201   21.0712 C   0  0  0  0  0  0  0  0  0  0  0  0
    7.8920  -16.8752   21.5281 O   0  0  0  0  0  0  0  0  0  0  0  0
   13.0158  -17.2398   19.7385 N   0  0  0  0  0  0  0  0  0  0  0  0
   12.1820  -17.6462   20.8316 C   0  0  0  0  0  0  0  0  0  0  0  0
   11.6385  -18.7674   20.7276 O   0  0  0  0  0  0  0  0  0  0  0  0
   12.0164  -16.7454   21.9844 C   0  0  0  0  0  0  0  0  0  0  0  0
   10.5689  -16.6932   22.3768 C   0  0  2  0  0  0  0  0  0  0  0  0
    9.9094  -15.7167   21.5120 N   0  0  0  0  0  0  0  0  0  0  0  0
   10.4490  -16.1797   23.7916 C   0  0  0  0  0  0  0  0  0  0  0  0
   11.3548  -16.3678   24.6395 O   0  0  0  0  0  0  0  0  0  0  0  0
    6.3150  -11.5680   26.9893 C   0  0  0  0  0  0  0  0  0  0  0  0
    6.1768  -12.3307   25.3612 S   0  0  0  0  0  0  0  0  0  0  0  0
    7.7069  -13.2467   24.9740 C   0  0  0  0  0  0  0  0  0  0  0  0
    7.7512  -14.5248   25.7299 C   0  0  0  0  0  0  0  0  0  0  0  0
    9.0842  -15.2248   25.6427 C   0  0  2  0  0  0  0  0  0  0  0  0
    9.2996  -15.4614   24.2141 N   0  0  0  0  0  0  0  0  0  0  0  0
    9.0365  -16.4733   26.3964 C   0  0  0  0  0  0  0  0  0  0  0  0
    9.5348  -16.4691   27.7153 O   0  0  0  0  0  0  0  0  0  0  0  0
    8.5943  -17.5466   25.9797 O   0  0  0  0  0  0  0  0  0  0  0  0
  2  1  1  6
  2  3  1  0
  4  2  1  0
  4  6  1  0
  4  5  1  1
  6  7  2  0
  9 11  1  0
  9  8  1  0
 10  9  2  0
 12 11  1  6
 13  6  1  0
 13 12  1  0
 14 12  1  0
 14 15  2  0
 16 17  1  0
 18 17  1  0
 19 18  1  0
 20 21  1  0
 20 19  1  6
 21 14  1  0
 22 20  1  0
 23 22  1  0
 24 22  2  0
M  END
$$$$
