VNM.pdb
     RDKit          3D

 24 23  0  0  1  0  0  0  0  0999 V2000
    7.8480  -14.4727   18.3841 C   0  0  0  0  0  0  0  0  0  0  0  0
    7.7229  -13.3569   19.3740 C   0  0  2  0  0  0  0  0  0  0  0  0
    7.9179  -12.0035   18.7154 C   0  0  0  0  0  0  0  0  0  0  0  0
    8.7094  -13.5044   20.5065 C   0  0  2  0  0  0  0  0  0  0  0  0
   10.0532  -13.6926   20.0683 N   0  0  0  0  0  0  0  0  0  0  0  0
    8.3028  -14.6675   21.3299 C   0  0  0  0  0  0  0  0  0  0  0  0
    7.0952  -14.8469   21.6331 O   0  0  0  0  0  0  0  0  0  0  0  0
   10.8498  -19.6476   23.9305 N   0  0  0  0  0  0  0  0  0  0  0  0
    9.7779  -18.8941   23.3486 C   0  0  0  0  0  0  0  0  0  0  0  0
    8.6205  -19.3070   23.5794 O   0  0  0  0  0  0  0  0  0  0  0  0
   10.0909  -17.7082   22.5339 C   0  0  0  0  0  0  0  0  0  0  0  0
    8.9343  -16.7529   22.5730 C   0  0  2  0  0  0  0  0  0  0  0  0
    9.2975  -15.5830   21.7757 N   0  0  0  0  0  0  0  0  0  0  0  0
    8.7257  -16.2725   23.9892 C   0  0  0  0  0  0  0  0  0  0  0  0
    7.9393  -16.8566   24.7737 O   0  0  0  0  0  0  0  0  0  0  0  0
    7.0867  -11.2433   26.2381 C   0  0  0  0  0  0  0  0  0  0  0  0
    6.3664  -12.4591   27.3583 S   0  0  0  0  0  0  0  0  0  0  0  0
    7.3975  -13.9645   27.3849 C   0  0  0  0  0  0  0  0  0  0  0  0
    7.7910  -14.3478   26.0046 C   0  0  0  0  0  0  0  0  0  0  0  0
    9.2417  -14.7419   25.8844 C   0  0  2  0  0  0  0  0  0  0  0  0
    9.4167  -15.1359   24.4853 N   0  0  0  0  0  0  0  0  0  0  0  0
    9.5315  -15.8432   26.7966 C   0  0  0  0  0  0  0  0  0  0  0  0
    9.8723  -17.0922   26.2383 O   0  0  0  0  0  0  0  0  0  0  0  0
    9.5052  -15.7808   28.0281 O   0  0  0  0  0  0  0  0  0  0  0  0
  2  1  1  6
  2  3  1  0
  4  2  1  0
  4  6  1  0
  4  5  1  6
  6  7  2  0
  9 11  1  0
  9  8  1  0
 10  9  2  0
 12 11  1  1
 13  6  1  0
 13 12  1  0
 14 12  1  0
 14 15  2  0
 16 17  1  0
 18 17  1  0
 19 18  1  0
 20 21  1  0
 20 19  1  6
 21 14  1  0
 22 20  1  0
 23 22  1  0
 24 22  2  0
M  END
$$$$
