VNM.pdb
     RDKit          3D

 24 23  0  0  1  0  0  0  0  0999 V2000
    7.1291  -14.4876   18.9815 C   0  0  0  0  0  0  0  0  0  0  0  0
    7.8890  -13.3659   19.6176 C   0  0  2  0  0  0  0  0  0  0  0  0
    8.0844  -12.2089   18.6548 C   0  0  0  0  0  0  0  0  0  0  0  0
    9.2353  -13.8225   20.1243 C   0  0  2  0  0  0  0  0  0  0  0  0
   10.0379  -14.4443   19.1231 N   0  0  0  0  0  0  0  0  0  0  0  0
    9.0151  -14.7826   21.2315 C   0  0  0  0  0  0  0  0  0  0  0  0
    8.0975  -14.5930   22.0708 O   0  0  0  0  0  0  0  0  0  0  0  0
    8.8682  -18.8566   20.8115 N   0  0  0  0  0  0  0  0  0  0  0  0
   10.1219  -19.0632   21.4756 C   0  0  0  0  0  0  0  0  0  0  0  0
   10.6380  -20.1946   21.3466 O   0  0  0  0  0  0  0  0  0  0  0  0
   10.7156  -17.9616   22.2514 C   0  0  0  0  0  0  0  0  0  0  0  0
    9.6990  -16.8735   22.4370 C   0  0  2  0  0  0  0  0  0  0  0  0
    9.8565  -15.9261   21.3352 N   0  0  0  0  0  0  0  0  0  0  0  0
    9.9955  -16.1195   23.7112 C   0  0  0  0  0  0  0  0  0  0  0  0
   11.1293  -15.6325   23.9396 O   0  0  0  0  0  0  0  0  0  0  0  0
    5.9384  -12.0014   25.7481 C   0  0  0  0  0  0  0  0  0  0  0  0
    6.6227  -12.3435   27.3810 S   0  0  0  0  0  0  0  0  0  0  0  0
    8.1531  -13.3242   27.2185 C   0  0  0  0  0  0  0  0  0  0  0  0
    8.0676  -14.2270   26.0418 C   0  0  0  0  0  0  0  0  0  0  0  0
    9.2846  -15.1010   25.8695 C   0  0  2  0  0  0  0  0  0  0  0  0
    8.9950  -15.9344   24.7012 N   0  0  0  0  0  0  0  0  0  0  0  0
    9.4893  -15.9049   27.0698 C   0  0  0  0  0  0  0  0  0  0  0  0
    9.2325  -17.2889   26.9906 O   0  0  0  0  0  0  0  0  0  0  0  0
    9.8715  -15.4788   28.1623 O   0  0  0  0  0  0  0  0  0  0  0  0
  2  1  1  6
  2  3  1  0
  4  2  1  0
  4  6  1  0
  4  5  1  6
  6  7  2  0
  9 11  1  0
  9  8  1  0
 10  9  2  0
 12 11  1  6
 13  6  1  0
 13 12  1  0
 14 12  1  0
 14 15  2  0
 16 17  1  0
 18 17  1  0
 19 18  1  0
 20 21  1  0
 20 19  1  1
 21 14  1  0
 22 20  1  0
 23 22  1  0
 24 22  2  0
M  END
$$$$
