VNM.pdb
     RDKit          3D

 24 23  0  0  1  0  0  0  0  0999 V2000
    7.9156  -12.5295   18.4893 C   0  0  0  0  0  0  0  0  0  0  0  0
    7.8424  -13.3994   19.7051 C   0  0  2  0  0  0  0  0  0  0  0  0
    8.6408  -12.8159   20.8565 C   0  0  0  0  0  0  0  0  0  0  0  0
    8.3331  -14.7977   19.4194 C   0  0  2  0  0  0  0  0  0  0  0  0
    7.6369  -15.4368   18.3517 N   0  0  0  0  0  0  0  0  0  0  0  0
    8.1763  -15.6070   20.6508 C   0  0  0  0  0  0  0  0  0  0  0  0
    7.0346  -15.9576   21.0459 O   0  0  0  0  0  0  0  0  0  0  0  0
    8.9023  -19.8052   21.6069 N   0  0  0  0  0  0  0  0  0  0  0  0
    9.8944  -18.7900   21.4056 C   0  0  0  0  0  0  0  0  0  0  0  0
   10.4131  -18.7390   20.2691 O   0  0  0  0  0  0  0  0  0  0  0  0
   10.2379  -17.8885   22.5179 C   0  0  0  0  0  0  0  0  0  0  0  0
    9.2233  -16.7859   22.6019 C   0  0  2  0  0  0  0  0  0  0  0  0
    9.3361  -15.9850   21.3845 N   0  0  0  0  0  0  0  0  0  0  0  0
    9.5621  -15.8772   23.7592 C   0  0  0  0  0  0  0  0  0  0  0  0
   10.6559  -15.2648   23.8174 O   0  0  0  0  0  0  0  0  0  0  0  0
    6.3662  -11.1747   27.3597 C   0  0  0  0  0  0  0  0  0  0  0  0
    5.8716  -12.3277   26.0645 S   0  0  0  0  0  0  0  0  0  0  0  0
    7.3357  -13.2153   25.4328 C   0  0  0  0  0  0  0  0  0  0  0  0
    7.8422  -14.1706   26.4515 C   0  0  0  0  0  0  0  0  0  0  0  0
    9.0710  -14.9231   26.0064 C   0  0  2  0  0  0  0  0  0  0  0  0
    8.6486  -15.6832   24.8286 N   0  0  0  0  0  0  0  0  0  0  0  0
    9.5292  -15.7993   27.0794 C   0  0  0  0  0  0  0  0  0  0  0  0
    9.3694  -17.1899   26.9115 O   0  0  0  0  0  0  0  0  0  0  0  0
   10.0506  -15.4296   28.1343 O   0  0  0  0  0  0  0  0  0  0  0  0
  2  1  1  6
  2  3  1  0
  4  2  1  0
  4  6  1  0
  4  5  1  6
  6  7  2  0
  9 11  1  0
  9  8  1  0
 10  9  2  0
 12 11  1  6
 13  6  1  0
 13 12  1  0
 14 12  1  0
 14 15  2  0
 16 17  1  0
 18 17  1  0
 19 18  1  0
 20 21  1  0
 20 19  1  1
 21 14  1  0
 22 20  1  0
 23 22  1  0
 24 22  2  0
M  END
$$$$
