CGF.pdb
     RDKit          3D

 22 22  0  0  1  0  0  0  0  0999 V2000
   13.3371  -20.7076    1.7613 N   0  0  0  0  0  0  0  0  0  0  0  0
   14.4044  -20.6039    2.7050 C   0  0  1  0  0  0  0  0  0  0  0  0
   15.7713  -20.6852    2.0671 C   0  0  0  0  0  0  0  0  0  0  0  0
   16.9575  -21.5517    3.1197 S   0  0  0  0  0  0  0  0  0  0  0  0
   14.3707  -19.3518    3.5051 C   0  0  0  0  0  0  0  0  0  0  0  0
   13.8079  -18.3548    3.0167 O   0  0  0  0  0  0  0  0  0  0  0  0
   14.9560  -19.2774    4.7859 N   0  0  0  0  0  0  0  0  0  0  0  0
   15.0066  -18.1176    5.6058 C   0  0  0  0  0  0  0  0  0  0  0  0
   16.2393  -17.3078    5.4753 C   0  0  0  0  0  0  0  0  0  0  0  0
   17.1908  -17.6982    4.7049 O   0  0  0  0  0  0  0  0  0  0  0  0
   16.4437  -16.0857    6.1671 N   0  0  0  0  0  0  0  0  0  0  0  0
   17.7370  -15.3956    6.1187 C   0  0  1  0  0  0  0  0  0  0  0  0
   17.5070  -13.9273    6.3788 C   0  0  0  0  0  0  0  0  0  0  0  0
   18.7162  -13.1256    6.2447 C   0  0  0  0  0  0  0  0  0  0  0  0
   19.5409  -12.9686    7.3366 C   0  0  0  0  0  0  0  0  0  0  0  0
   20.6910  -12.2208    7.2159 C   0  0  0  0  0  0  0  0  0  0  0  0
   21.0420  -11.6204    6.0227 C   0  0  0  0  0  0  0  0  0  0  0  0
   20.2119  -11.7816    4.9337 C   0  0  0  0  0  0  0  0  0  0  0  0
   19.0602  -12.5293    5.0510 C   0  0  0  0  0  0  0  0  0  0  0  0
   18.7181  -16.0278    7.0003 C   0  0  0  0  0  0  0  0  0  0  0  0
   19.9867  -16.3178    6.5338 O   0  0  0  0  0  0  0  0  0  0  0  0
   18.4429  -16.3225    8.1874 O   0  0  0  0  0  0  0  0  0  0  0  0
  2  1  1  6
  2  3  1  0
  3  4  1  0
  5  2  1  0
  6  5  2  0
  7  5  1  0
  8  7  1  0
  8  9  1  0
  9 11  1  0
  9 10  2  0
 11 12  1  0
 12 13  1  1
 13 14  1  0
 14 19  2  0
 15 16  2  0
 15 14  1  0
 16 17  1  0
 17 18  2  0
 19 18  1  0
 20 12  1  0
 20 21  1  0
 22 20  2  0
M  END
$$$$
