CGF.pdb
     RDKit          3D

 22 22  0  0  1  0  0  0  0  0999 V2000
   17.5167  -13.7748  -17.7610 N   0  0  0  0  0  0  0  0  0  0  0  0
   17.3684  -12.6247  -16.9268 C   0  0  1  0  0  0  0  0  0  0  0  0
   17.3130  -12.9614  -15.4553 C   0  0  0  0  0  0  0  0  0  0  0  0
   15.8312  -13.9062  -15.0338 S   0  0  0  0  0  0  0  0  0  0  0  0
   18.4485  -11.6191  -17.1034 C   0  0  0  0  0  0  0  0  0  0  0  0
   19.6295  -12.0118  -17.0798 O   0  0  0  0  0  0  0  0  0  0  0  0
   18.1612  -10.2517  -17.2938 N   0  0  0  0  0  0  0  0  0  0  0  0
   19.1192   -9.2328  -17.5463 C   0  0  0  0  0  0  0  0  0  0  0  0
   19.2767   -8.2348  -16.4640 C   0  0  0  0  0  0  0  0  0  0  0  0
   18.4906   -8.2537  -15.4477 O   0  0  0  0  0  0  0  0  0  0  0  0
   20.2753   -7.2265  -16.4752 N   0  0  0  0  0  0  0  0  0  0  0  0
   20.3587   -6.2316  -15.4008 C   0  0  1  0  0  0  0  0  0  0  0  0
   21.7398   -6.2933  -14.7963 C   0  0  0  0  0  0  0  0  0  0  0  0
   22.0787   -7.6112  -14.2757 C   0  0  0  0  0  0  0  0  0  0  0  0
   21.5543   -8.0092  -13.0659 C   0  0  0  0  0  0  0  0  0  0  0  0
   21.8614   -9.2572  -12.5712 C   0  0  0  0  0  0  0  0  0  0  0  0
   22.6858  -10.1257  -13.2593 C   0  0  0  0  0  0  0  0  0  0  0  0
   23.2074   -9.7209  -14.4698 C   0  0  0  0  0  0  0  0  0  0  0  0
   22.9020   -8.4727  -14.9677 C   0  0  0  0  0  0  0  0  0  0  0  0
   19.9504   -4.9050  -15.8623 C   0  0  0  0  0  0  0  0  0  0  0  0
   19.6674   -3.9076  -14.9478 O   0  0  0  0  0  0  0  0  0  0  0  0
   19.8453   -4.6360  -17.0823 O   0  0  0  0  0  0  0  0  0  0  0  0
  2  1  1  6
  2  3  1  0
  3  4  1  0
  5  2  1  0
  6  5  2  0
  7  5  1  0
  8  7  1  0
  8  9  1  0
  9 11  1  0
  9 10  2  0
 11 12  1  0
 12 13  1  6
 13 14  1  0
 14 19  2  0
 15 16  2  0
 15 14  1  0
 16 17  1  0
 17 18  2  0
 19 18  1  0
 20 12  1  0
 20 21  1  0
 22 20  2  0
M  END
$$$$
