CGF.pdb
     RDKit          3D

 22 22  0  0  1  0  0  0  0  0999 V2000
   25.9238  -21.5834  -16.0663 N   0  0  0  0  0  0  0  0  0  0  0  0
   26.8951  -21.7991  -15.0414 C   0  0  1  0  0  0  0  0  0  0  0  0
   28.3174  -21.6998  -15.5406 C   0  0  0  0  0  0  0  0  0  0  0  0
   28.7145  -20.0356  -16.1225 S   0  0  0  0  0  0  0  0  0  0  0  0
   26.7689  -20.8606  -13.8958 C   0  0  0  0  0  0  0  0  0  0  0  0
   26.0313  -19.8664  -14.0265 O   0  0  0  0  0  0  0  0  0  0  0  0
   27.4594  -21.0752  -12.6852 N   0  0  0  0  0  0  0  0  0  0  0  0
   27.4026  -20.2346  -11.5407 C   0  0  0  0  0  0  0  0  0  0  0  0
   26.6871  -20.8041  -10.3763 C   0  0  0  0  0  0  0  0  0  0  0  0
   26.3539  -22.0451  -10.3659 O   0  0  0  0  0  0  0  0  0  0  0  0
   26.3362  -20.0431   -9.2309 N   0  0  0  0  0  0  0  0  0  0  0  0
   25.6179  -20.6537   -8.1074 C   0  0  1  0  0  0  0  0  0  0  0  0
   25.7757  -19.7655   -6.8979 C   0  0  0  0  0  0  0  0  0  0  0  0
   27.1099  -19.8228   -6.3154 C   0  0  0  0  0  0  0  0  0  0  0  0
   27.8903  -18.6878   -6.3148 C   0  0  0  0  0  0  0  0  0  0  0  0
   29.1488  -18.7304   -5.7572 C   0  0  0  0  0  0  0  0  0  0  0  0
   29.6527  -19.8871   -5.1954 C   0  0  0  0  0  0  0  0  0  0  0  0
   28.8662  -21.0195   -5.1994 C   0  0  0  0  0  0  0  0  0  0  0  0
   27.6063  -20.9803   -5.7565 C   0  0  0  0  0  0  0  0  0  0  0  0
   24.2337  -20.9684   -8.4602 C   0  0  0  0  0  0  0  0  0  0  0  0
   23.6768  -20.4536   -9.6160 O   0  0  0  0  0  0  0  0  0  0  0  0
   23.5205  -21.7024   -7.7361 O   0  0  0  0  0  0  0  0  0  0  0  0
  2  1  1  6
  2  3  1  0
  3  4  1  0
  5  2  1  0
  6  5  2  0
  7  5  1  0
  8  7  1  0
  8  9  1  0
  9 11  1  0
  9 10  2  0
 11 12  1  0
 12 13  1  1
 13 14  1  0
 14 19  2  0
 15 16  2  0
 15 14  1  0
 16 17  1  0
 17 18  2  0
 19 18  1  0
 20 12  1  0
 20 21  1  0
 22 20  2  0
M  END
$$$$
