CGF.pdb
     RDKit          3D

 22 22  0  0  1  0  0  0  0  0999 V2000
   29.2921  -20.9057  -14.2943 N   0  0  0  0  0  0  0  0  0  0  0  0
   28.3944  -19.8013  -14.1726 C   0  0  1  0  0  0  0  0  0  0  0  0
   28.1034  -19.1242  -15.4912 C   0  0  0  0  0  0  0  0  0  0  0  0
   28.7390  -17.4330  -15.5370 S   0  0  0  0  0  0  0  0  0  0  0  0
   27.0847  -20.1634  -13.5703 C   0  0  0  0  0  0  0  0  0  0  0  0
   26.6025  -21.2800  -13.8351 O   0  0  0  0  0  0  0  0  0  0  0  0
   26.3926  -19.2774  -12.7191 N   0  0  0  0  0  0  0  0  0  0  0  0
   25.1477  -19.5417  -12.0865 C   0  0  0  0  0  0  0  0  0  0  0  0
   25.2382  -20.2556  -10.7925 C   0  0  0  0  0  0  0  0  0  0  0  0
   24.2120  -20.8662  -10.3179 O   0  0  0  0  0  0  0  0  0  0  0  0
   26.4258  -20.3136  -10.0177 N   0  0  0  0  0  0  0  0  0  0  0  0
   26.4728  -21.0657   -8.7594 C   0  0  1  0  0  0  0  0  0  0  0  0
   27.8819  -21.0144   -8.2225 C   0  0  0  0  0  0  0  0  0  0  0  0
   27.9600  -20.4814   -6.8688 C   0  0  0  0  0  0  0  0  0  0  0  0
   28.1653  -21.3479   -5.8180 C   0  0  0  0  0  0  0  0  0  0  0  0
   28.2505  -20.8514   -4.5363 C   0  0  0  0  0  0  0  0  0  0  0  0
   28.1349  -19.5004   -4.2743 C   0  0  0  0  0  0  0  0  0  0  0  0
   27.9294  -18.6385   -5.3308 C   0  0  0  0  0  0  0  0  0  0  0  0
   27.8438  -19.1321   -6.6147 C   0  0  0  0  0  0  0  0  0  0  0  0
   25.4436  -20.6142   -7.8234 C   0  0  0  0  0  0  0  0  0  0  0  0
   24.9354  -21.4839   -6.8765 O   0  0  0  0  0  0  0  0  0  0  0  0
   24.9967  -19.4431   -7.8509 O   0  0  0  0  0  0  0  0  0  0  0  0
  2  1  1  6
  2  3  1  0
  3  4  1  0
  5  2  1  0
  6  5  2  0
  7  5  1  0
  8  7  1  0
  8  9  1  0
  9 11  1  0
  9 10  2  0
 11 12  1  0
 12 13  1  1
 13 14  1  0
 14 19  2  0
 15 16  2  0
 15 14  1  0
 16 17  1  0
 17 18  2  0
 19 18  1  0
 20 12  1  0
 20 21  1  0
 22 20  2  0
M  END
$$$$
