CGF.pdb
     RDKit          3D

 22 22  0  0  1  0  0  0  0  0999 V2000
   41.6917  -10.7686   -7.3446 N   0  0  0  0  0  0  0  0  0  0  0  0
   40.8007  -10.0755   -8.2198 C   0  0  1  0  0  0  0  0  0  0  0  0
   40.3019  -10.9319   -9.3598 C   0  0  0  0  0  0  0  0  0  0  0  0
   41.6511  -11.4943  -10.4226 S   0  0  0  0  0  0  0  0  0  0  0  0
   39.6035   -9.5231   -7.5336 C   0  0  0  0  0  0  0  0  0  0  0  0
   39.0407  -10.2248   -6.6733 O   0  0  0  0  0  0  0  0  0  0  0  0
   39.1046   -8.2395   -7.8369 N   0  0  0  0  0  0  0  0  0  0  0  0
   38.0140   -7.6013   -7.1864 C   0  0  0  0  0  0  0  0  0  0  0  0
   37.6458   -6.2744   -7.7303 C   0  0  0  0  0  0  0  0  0  0  0  0
   38.4774   -5.6215   -8.4606 O   0  0  0  0  0  0  0  0  0  0  0  0
   36.3904   -5.6571   -7.4915 N   0  0  0  0  0  0  0  0  0  0  0  0
   36.0801   -4.3341   -8.0434 C   0  0  1  0  0  0  0  0  0  0  0  0
   34.5885   -4.2386   -8.2498 C   0  0  0  0  0  0  0  0  0  0  0  0
   34.1676   -2.9575   -8.8018 C   0  0  0  0  0  0  0  0  0  0  0  0
   34.1753   -2.7812  -10.1678 C   0  0  0  0  0  0  0  0  0  0  0  0
   33.7695   -1.5770  -10.6985 C   0  0  0  0  0  0  0  0  0  0  0  0
   33.3525   -0.5352   -9.8935 C   0  0  0  0  0  0  0  0  0  0  0  0
   33.3473   -0.7184   -8.5269 C   0  0  0  0  0  0  0  0  0  0  0  0
   33.7528   -1.9223   -7.9926 C   0  0  0  0  0  0  0  0  0  0  0  0
   36.6562   -3.2630   -7.2310 C   0  0  0  0  0  0  0  0  0  0  0  0
   37.1090   -2.1026   -7.8306 O   0  0  0  0  0  0  0  0  0  0  0  0
   36.7564   -3.3628   -5.9853 O   0  0  0  0  0  0  0  0  0  0  0  0
  2  1  1  1
  2  3  1  0
  3  4  1  0
  5  2  1  0
  6  5  2  0
  7  5  1  0
  8  7  1  0
  8  9  1  0
  9 11  1  0
  9 10  2  0
 11 12  1  0
 12 13  1  1
 13 14  1  0
 14 19  2  0
 15 16  2  0
 15 14  1  0
 16 17  1  0
 17 18  2  0
 19 18  1  0
 20 12  1  0
 20 21  1  0
 22 20  2  0
M  END
$$$$
