CGF.pdb
     RDKit          3D

 22 22  0  0  1  0  0  0  0  0999 V2000
   25.1536  -23.7437  -13.2685 N   0  0  0  0  0  0  0  0  0  0  0  0
   25.2363  -22.4377  -13.8411 C   0  0  1  0  0  0  0  0  0  0  0  0
   24.2877  -22.2357  -14.9992 C   0  0  0  0  0  0  0  0  0  0  0  0
   24.3935  -23.5806  -16.2017 S   0  0  0  0  0  0  0  0  0  0  0  0
   24.9755  -21.3446  -12.8684 C   0  0  0  0  0  0  0  0  0  0  0  0
   25.2309  -20.1759  -13.2123 O   0  0  0  0  0  0  0  0  0  0  0  0
   24.4528  -21.6065  -11.5852 N   0  0  0  0  0  0  0  0  0  0  0  0
   24.1215  -20.6258  -10.6114 C   0  0  0  0  0  0  0  0  0  0  0  0
   25.2222  -20.2528   -9.6939 C   0  0  0  0  0  0  0  0  0  0  0  0
   25.0332  -19.3645   -8.7849 O   0  0  0  0  0  0  0  0  0  0  0  0
   26.5152  -20.8346   -9.7537 N   0  0  0  0  0  0  0  0  0  0  0  0
   27.5594  -20.4590   -8.7946 C   0  0  1  0  0  0  0  0  0  0  0  0
   27.0218  -20.6567   -7.3987 C   0  0  0  0  0  0  0  0  0  0  0  0
   27.8864  -20.0982   -6.3675 C   0  0  0  0  0  0  0  0  0  0  0  0
   28.8465  -20.9001   -5.7911 C   0  0  0  0  0  0  0  0  0  0  0  0
   29.6747  -20.3775   -4.8228 C   0  0  0  0  0  0  0  0  0  0  0  0
   29.5681  -19.0634   -4.4117 C   0  0  0  0  0  0  0  0  0  0  0  0
   28.6049  -18.2661   -4.9929 C   0  0  0  0  0  0  0  0  0  0  0  0
   27.7745  -18.7860   -5.9621 C   0  0  0  0  0  0  0  0  0  0  0  0
   28.8181  -21.1511   -9.0702 C   0  0  0  0  0  0  0  0  0  0  0  0
   30.0247  -20.5127   -8.8516 O   0  0  0  0  0  0  0  0  0  0  0  0
   28.8413  -22.3259   -9.5073 O   0  0  0  0  0  0  0  0  0  0  0  0
  2  1  1  1
  2  3  1  0
  3  4  1  0
  5  2  1  0
  6  5  2  0
  7  5  1  0
  8  7  1  0
  8  9  1  0
  9 11  1  0
  9 10  2  0
 11 12  1  0
 12 13  1  1
 13 14  1  0
 14 19  2  0
 15 16  2  0
 15 14  1  0
 16 17  1  0
 17 18  2  0
 19 18  1  0
 20 12  1  0
 20 21  1  0
 22 20  2  0
M  END
$$$$
