CGF.pdb
     RDKit          3D

 22 22  0  0  1  0  0  0  0  0999 V2000
   26.2773  -21.8372  -14.5074 N   0  0  0  0  0  0  0  0  0  0  0  0
   26.5773  -20.4621  -14.2635 C   0  0  1  0  0  0  0  0  0  0  0  0
   25.3504  -19.6276  -13.9803 C   0  0  0  0  0  0  0  0  0  0  0  0
   24.4943  -20.1711  -12.4844 S   0  0  0  0  0  0  0  0  0  0  0  0
   27.5186  -20.2505  -13.1329 C   0  0  0  0  0  0  0  0  0  0  0  0
   27.8906  -19.0889  -12.8848 O   0  0  0  0  0  0  0  0  0  0  0  0
   27.9882  -21.3262  -12.3512 N   0  0  0  0  0  0  0  0  0  0  0  0
   28.8248  -21.2140  -11.2079 C   0  0  0  0  0  0  0  0  0  0  0  0
   28.1397  -21.3888   -9.9070 C   0  0  0  0  0  0  0  0  0  0  0  0
   28.4176  -22.3969   -9.1602 O   0  0  0  0  0  0  0  0  0  0  0  0
   27.1651  -20.4829   -9.4134 N   0  0  0  0  0  0  0  0  0  0  0  0
   26.4977  -20.7152   -8.1282 C   0  0  1  0  0  0  0  0  0  0  0  0
   26.6284  -19.4687   -7.2880 C   0  0  0  0  0  0  0  0  0  0  0  0
   27.7108  -19.5444   -6.3155 C   0  0  0  0  0  0  0  0  0  0  0  0
   27.6869  -20.5380   -5.3620 C   0  0  0  0  0  0  0  0  0  0  0  0
   28.7111  -20.6230   -4.4453 C   0  0  0  0  0  0  0  0  0  0  0  0
   29.7677  -19.7338   -4.4561 C   0  0  0  0  0  0  0  0  0  0  0  0
   29.7853  -18.7416   -5.4134 C   0  0  0  0  0  0  0  0  0  0  0  0
   28.7620  -18.6537   -6.3322 C   0  0  0  0  0  0  0  0  0  0  0  0
   25.1264  -21.1897   -8.3113 C   0  0  0  0  0  0  0  0  0  0  0  0
   24.3725  -21.5752   -7.2185 O   0  0  0  0  0  0  0  0  0  0  0  0
   24.6008  -21.2614   -9.4473 O   0  0  0  0  0  0  0  0  0  0  0  0
  2  1  1  1
  2  3  1  0
  3  4  1  0
  5  2  1  0
  6  5  2  0
  7  5  1  0
  8  7  1  0
  8  9  1  0
  9 11  1  0
  9 10  2  0
 11 12  1  0
 12 13  1  1
 13 14  1  0
 14 19  2  0
 15 16  2  0
 15 14  1  0
 16 17  1  0
 17 18  2  0
 19 18  1  0
 20 12  1  0
 20 21  1  0
 22 20  2  0
M  END
$$$$
