CGF.pdb
     RDKit          3D

 22 22  0  0  1  0  0  0  0  0999 V2000
   23.6571  -19.9532  -14.0269 N   0  0  0  0  0  0  0  0  0  0  0  0
   23.0433  -20.0946  -12.7449 C   0  0  1  0  0  0  0  0  0  0  0  0
   21.8202  -20.9809  -12.7663 C   0  0  0  0  0  0  0  0  0  0  0  0
   20.4582  -20.2303  -13.6869 S   0  0  0  0  0  0  0  0  0  0  0  0
   23.9565  -20.6372  -11.7052 C   0  0  0  0  0  0  0  0  0  0  0  0
   24.6969  -21.5902  -12.0100 O   0  0  0  0  0  0  0  0  0  0  0  0
   23.9960  -20.0987  -10.4025 N   0  0  0  0  0  0  0  0  0  0  0  0
   24.7650  -20.6069   -9.3208 C   0  0  0  0  0  0  0  0  0  0  0  0
   26.2034  -20.2571   -9.3519 C   0  0  0  0  0  0  0  0  0  0  0  0
   26.6025  -19.2191   -9.9957 O   0  0  0  0  0  0  0  0  0  0  0  0
   27.2032  -21.0180   -8.6922 N   0  0  0  0  0  0  0  0  0  0  0  0
   28.6142  -20.6212   -8.7445 C   0  0  1  0  0  0  0  0  0  0  0  0
   29.2785  -21.0410   -7.4564 C   0  0  0  0  0  0  0  0  0  0  0  0
   28.8366  -20.2654   -6.3049 C   0  0  0  0  0  0  0  0  0  0  0  0
   28.0898  -20.8840   -5.3267 C   0  0  0  0  0  0  0  0  0  0  0  0
   27.6765  -20.1609   -4.2300 C   0  0  0  0  0  0  0  0  0  0  0  0
   27.9923  -18.8244   -4.0834 C   0  0  0  0  0  0  0  0  0  0  0  0
   28.7402  -18.2114   -5.0663 C   0  0  0  0  0  0  0  0  0  0  0  0
   29.1554  -18.9322   -6.1651 C   0  0  0  0  0  0  0  0  0  0  0  0
   29.2668  -21.1111   -9.9585 C   0  0  0  0  0  0  0  0  0  0  0  0
   30.4458  -20.5358  -10.3943 O   0  0  0  0  0  0  0  0  0  0  0  0
   28.7840  -22.0524  -10.6312 O   0  0  0  0  0  0  0  0  0  0  0  0
  2  1  1  6
  2  3  1  0
  3  4  1  0
  5  2  1  0
  6  5  2  0
  7  5  1  0
  8  7  1  0
  8  9  1  0
  9 11  1  0
  9 10  2  0
 11 12  1  0
 12 13  1  1
 13 14  1  0
 14 19  2  0
 15 16  2  0
 15 14  1  0
 16 17  1  0
 17 18  2  0
 19 18  1  0
 20 12  1  0
 20 21  1  0
 22 20  2  0
M  END
$$$$
