CGF.pdb
     RDKit          3D

 22 22  0  0  1  0  0  0  0  0999 V2000
   28.2453  -18.5922  -13.9925 N   0  0  0  0  0  0  0  0  0  0  0  0
   26.9828  -17.9460  -14.1624 C   0  0  1  0  0  0  0  0  0  0  0  0
   26.8122  -17.3255  -15.5291 C   0  0  0  0  0  0  0  0  0  0  0  0
   28.3900  -17.1492  -16.3925 S   0  0  0  0  0  0  0  0  0  0  0  0
   25.8202  -18.8460  -13.9443 C   0  0  0  0  0  0  0  0  0  0  0  0
   25.3827  -19.4900  -14.9155 O   0  0  0  0  0  0  0  0  0  0  0  0
   25.2163  -18.9792  -12.6770 N   0  0  0  0  0  0  0  0  0  0  0  0
   25.0280  -20.2004  -11.9750 C   0  0  0  0  0  0  0  0  0  0  0  0
   25.9506  -20.4217  -10.8383 C   0  0  0  0  0  0  0  0  0  0  0  0
   27.0512  -21.0613  -11.0139 O   0  0  0  0  0  0  0  0  0  0  0  0
   25.6906  -19.9551   -9.5235 N   0  0  0  0  0  0  0  0  0  0  0  0
   26.4688  -20.4421   -8.3796 C   0  0  1  0  0  0  0  0  0  0  0  0
   27.3565  -19.3235   -7.8925 C   0  0  0  0  0  0  0  0  0  0  0  0
   27.8397  -19.5265   -6.5331 C   0  0  0  0  0  0  0  0  0  0  0  0
   26.9617  -19.9694   -5.5687 C   0  0  0  0  0  0  0  0  0  0  0  0
   27.4123  -20.1735   -4.2835 C   0  0  0  0  0  0  0  0  0  0  0  0
   28.7285  -19.9449   -3.9332 C   0  0  0  0  0  0  0  0  0  0  0  0
   29.6021  -19.5016   -4.9035 C   0  0  0  0  0  0  0  0  0  0  0  0
   29.1544  -19.2963   -6.1906 C   0  0  0  0  0  0  0  0  0  0  0  0
   25.6081  -21.0320   -7.3547 C   0  0  0  0  0  0  0  0  0  0  0  0
   24.2357  -20.8831   -7.4294 O   0  0  0  0  0  0  0  0  0  0  0  0
   26.0810  -21.6800   -6.3912 O   0  0  0  0  0  0  0  0  0  0  0  0
  2  1  1  6
  2  3  1  0
  3  4  1  0
  5  2  1  0
  6  5  2  0
  7  5  1  0
  8  7  1  0
  8  9  1  0
  9 11  1  0
  9 10  2  0
 11 12  1  0
 12 13  1  1
 13 14  1  0
 14 19  2  0
 15 16  2  0
 15 14  1  0
 16 17  1  0
 17 18  2  0
 19 18  1  0
 20 12  1  0
 20 21  1  0
 22 20  2  0
M  END
$$$$
