CYI.pdb
     RDKit          3D

 27 27  0  0  1  0  0  0  0  0999 V2000
    7.4908  -17.4164   18.5040 N   0  0  0  0  0  0  0  0  0  0  0  0
    8.0735  -16.3506   19.3407 C   0  0  1  0  0  0  0  0  0  0  0  0
    7.6595  -15.0397   18.7391 C   0  0  0  0  0  0  0  0  0  0  0  0
    8.4612  -14.6740   17.1758 S   0  0  0  0  0  0  0  0  0  0  0  0
    7.5283  -16.5855   20.6898 C   0  0  0  0  0  0  0  0  0  0  0  0
    6.5202  -17.3577   20.8760 O   0  0  0  0  0  0  0  0  0  0  0  0
    7.8832  -20.6405   28.1670 O   0  0  0  0  0  0  0  0  0  0  0  0
    7.9865  -19.9872   26.9319 C   0  0  0  0  0  0  0  0  0  0  0  0
    6.8700  -19.7429   26.1411 C   0  0  0  0  0  0  0  0  0  0  0  0
    6.9525  -19.1007   24.9217 C   0  0  0  0  0  0  0  0  0  0  0  0
    8.2096  -18.6824   24.4701 C   0  0  0  0  0  0  0  0  0  0  0  0
    8.2821  -18.0132   23.1811 C   0  0  0  0  0  0  0  0  0  0  0  0
    7.8061  -16.5797   23.1678 C   0  0  2  0  0  0  0  0  0  0  0  0
    8.0551  -16.0021   21.8603 N   0  0  0  0  0  0  0  0  0  0  0  0
    8.4123  -15.7332   24.2072 C   0  0  0  0  0  0  0  0  0  0  0  0
    9.6796  -15.5075   24.2237 O   0  0  0  0  0  0  0  0  0  0  0  0
    9.3305  -18.9126   25.2342 C   0  0  0  0  0  0  0  0  0  0  0  0
    9.2274  -19.5577   26.4536 C   0  0  0  0  0  0  0  0  0  0  0  0
    5.5023  -11.6013   26.3317 C   0  0  0  0  0  0  0  0  0  0  0  0
    6.7499  -12.2638   25.8586 C   0  0  0  0  0  0  0  0  0  0  0  0
    7.4091  -13.1900   26.8329 C   0  0  2  0  0  0  0  0  0  0  0  0
    8.2952  -12.2949   27.7208 C   0  0  0  0  0  0  0  0  0  0  0  0
    8.3605  -14.1606   26.1879 C   0  0  2  0  0  0  0  0  0  0  0  0
    7.7293  -15.0888   25.2707 N   0  0  0  0  0  0  0  0  0  0  0  0
    8.9659  -14.9681   27.2689 C   0  0  0  0  0  0  0  0  0  0  0  0
    8.3459  -15.9529   27.7085 O   0  0  0  0  0  0  0  0  0  0  0  0
   10.1942  -14.6420   27.7850 O   0  0  0  0  0  0  0  0  0  0  0  0
  2  1  1  6
  2  3  1  0
  3  4  1  0
  5  2  1  0
  6  5  2  0
  8  7  1  0
  8 18  2  0
  9  8  1  0
 10  9  2  0
 10 11  1  0
 11 17  2  0
 12 11  1  0
 13 12  1  6
 13 14  1  0
 14  5  1  0
 15 24  1  0
 15 13  1  0
 16 15  2  0
 17 18  1  0
 20 19  1  0
 21 20  1  0
 21 22  1  1
 23 21  1  0
 23 24  1  6
 25 23  1  0
 25 27  1  0
 26 25  2  0
M  END
$$$$
