CYI.pdb
     RDKit          3D

 27 27  0  0  1  0  0  0  0  0999 V2000
    4.6505  -18.3850   21.4631 N   0  0  0  0  0  0  0  0  0  0  0  0
    5.0761  -18.8646   22.7913 C   0  0  1  0  0  0  0  0  0  0  0  0
    5.7460  -20.1921   22.5886 C   0  0  0  0  0  0  0  0  0  0  0  0
    7.2756  -20.0973   21.6549 S   0  0  0  0  0  0  0  0  0  0  0  0
    5.9757  -17.8157   23.3041 C   0  0  0  0  0  0  0  0  0  0  0  0
    6.4854  -16.9345   22.5226 O   0  0  0  0  0  0  0  0  0  0  0  0
   11.2737  -13.4361   28.9836 O   0  0  0  0  0  0  0  0  0  0  0  0
   10.2405  -14.1611   28.3757 C   0  0  0  0  0  0  0  0  0  0  0  0
   10.1533  -15.5433   28.4929 C   0  0  0  0  0  0  0  0  0  0  0  0
    9.1425  -16.2742   27.9010 C   0  0  0  0  0  0  0  0  0  0  0  0
    8.1725  -15.5930   27.1567 C   0  0  0  0  0  0  0  0  0  0  0  0
    7.1176  -16.3765   26.5338 C   0  0  0  0  0  0  0  0  0  0  0  0
    7.3471  -16.7358   25.0848 C   0  0  2  0  0  0  0  0  0  0  0  0
    6.3402  -17.6904   24.6604 N   0  0  0  0  0  0  0  0  0  0  0  0
    8.6879  -17.2707   24.8011 C   0  0  0  0  0  0  0  0  0  0  0  0
    8.9360  -18.5296   24.9053 O   0  0  0  0  0  0  0  0  0  0  0  0
    8.2365  -14.2248   27.0253 C   0  0  0  0  0  0  0  0  0  0  0  0
    9.2571  -13.5098   27.6260 C   0  0  0  0  0  0  0  0  0  0  0  0
   11.2223  -15.5910   20.3171 C   0  0  0  0  0  0  0  0  0  0  0  0
   10.7199  -16.3556   21.4928 C   0  0  0  0  0  0  0  0  0  0  0  0
   11.6160  -16.3760   22.6919 C   0  0  2  0  0  0  0  0  0  0  0  0
   12.8488  -17.2006   22.2737 C   0  0  0  0  0  0  0  0  0  0  0  0
   11.0325  -17.1170   23.8640 C   0  0  2  0  0  0  0  0  0  0  0  0
    9.8242  -16.5220   24.3997 N   0  0  0  0  0  0  0  0  0  0  0  0
   12.0404  -17.0932   24.9460 C   0  0  0  0  0  0  0  0  0  0  0  0
   13.0303  -17.8426   24.8677 O   0  0  0  0  0  0  0  0  0  0  0  0
   11.8927  -16.2590   26.0248 O   0  0  0  0  0  0  0  0  0  0  0  0
  2  1  1  6
  2  3  1  0
  3  4  1  0
  5  2  1  0
  6  5  2  0
  8  7  1  0
  8 18  2  0
  9  8  1  0
 10  9  2  0
 10 11  1  0
 11 17  2  0
 12 11  1  0
 13 12  1  1
 13 14  1  0
 14  5  1  0
 15 24  1  0
 15 13  1  0
 16 15  2  0
 17 18  1  0
 20 19  1  0
 21 20  1  0
 21 22  1  6
 23 21  1  0
 23 24  1  1
 25 23  1  0
 25 27  1  0
 26 25  2  0
M  END
$$$$
