CYI.pdb
     RDKit          3D

 27 27  0  0  1  0  0  0  0  0999 V2000
    3.4245  -18.6215   21.3751 N   0  0  0  0  0  0  0  0  0  0  0  0
    4.8346  -19.0445   21.4665 C   0  0  1  0  0  0  0  0  0  0  0  0
    5.5484  -18.4635   20.2812 C   0  0  0  0  0  0  0  0  0  0  0  0
    5.7855  -16.6873   20.3766 S   0  0  0  0  0  0  0  0  0  0  0  0
    5.3056  -18.5205   22.7611 C   0  0  0  0  0  0  0  0  0  0  0  0
    4.6223  -17.6554   23.4182 O   0  0  0  0  0  0  0  0  0  0  0  0
    9.7416  -18.1401   30.4574 O   0  0  0  0  0  0  0  0  0  0  0  0
    9.1909  -18.5004   29.2206 C   0  0  0  0  0  0  0  0  0  0  0  0
    9.9161  -18.3899   28.0400 C   0  0  0  0  0  0  0  0  0  0  0  0
    9.3902  -18.7402   26.8125 C   0  0  0  0  0  0  0  0  0  0  0  0
    8.0777  -19.2237   26.7608 C   0  0  0  0  0  0  0  0  0  0  0  0
    7.5348  -19.5826   25.4604 C   0  0  0  0  0  0  0  0  0  0  0  0
    6.8663  -18.4584   24.7049 C   0  0  2  0  0  0  0  0  0  0  0  0
    6.5117  -18.9167   23.3746 N   0  0  0  0  0  0  0  0  0  0  0  0
    7.6742  -17.2328   24.6078 C   0  0  0  0  0  0  0  0  0  0  0  0
    8.6821  -17.1637   23.8099 O   0  0  0  0  0  0  0  0  0  0  0  0
    7.3386  -19.3423   27.9154 C   0  0  0  0  0  0  0  0  0  0  0  0
    7.8833  -18.9862   29.1362 C   0  0  0  0  0  0  0  0  0  0  0  0
    6.3739  -12.3955   27.4595 C   0  0  0  0  0  0  0  0  0  0  0  0
    7.0104  -13.6566   26.9864 C   0  0  0  0  0  0  0  0  0  0  0  0
    7.7000  -13.5841   25.6596 C   0  0  2  0  0  0  0  0  0  0  0  0
    6.5829  -13.3492   24.6244 C   0  0  0  0  0  0  0  0  0  0  0  0
    8.3452  -14.8792   25.2476 C   0  0  2  0  0  0  0  0  0  0  0  0
    7.4702  -16.0315   25.3346 N   0  0  0  0  0  0  0  0  0  0  0  0
    9.4725  -15.1237   26.1731 C   0  0  0  0  0  0  0  0  0  0  0  0
   10.4561  -14.3627   26.1433 O   0  0  0  0  0  0  0  0  0  0  0  0
    9.4414  -16.1735   27.0554 O   0  0  0  0  0  0  0  0  0  0  0  0
  2  1  1  6
  2  3  1  0
  3  4  1  0
  5  2  1  0
  6  5  2  0
  8  7  1  0
  8 18  2  0
  9  8  1  0
 10  9  2  0
 10 11  1  0
 11 17  2  0
 12 11  1  0
 13 12  1  6
 13 14  1  0
 14  5  1  0
 15 24  1  0
 15 13  1  0
 16 15  2  0
 17 18  1  0
 20 19  1  0
 21 20  1  0
 21 22  1  6
 23 21  1  0
 23 24  1  1
 25 23  1  0
 25 27  1  0
 26 25  2  0
M  END
$$$$
