CYI.pdb
     RDKit          3D

 27 27  0  0  1  0  0  0  0  0999 V2000
    4.6876  -18.4255   20.1866 N   0  0  0  0  0  0  0  0  0  0  0  0
    6.0067  -17.8286   20.4684 C   0  0  1  0  0  0  0  0  0  0  0  0
    6.0432  -16.4933   19.7846 C   0  0  0  0  0  0  0  0  0  0  0  0
    7.4692  -15.4945   20.2200 S   0  0  0  0  0  0  0  0  0  0  0  0
    6.0811  -17.7474   21.9382 C   0  0  0  0  0  0  0  0  0  0  0  0
    5.0477  -17.4600   22.6429 O   0  0  0  0  0  0  0  0  0  0  0  0
    8.8749  -18.7546   30.2944 O   0  0  0  0  0  0  0  0  0  0  0  0
    8.6063  -18.8372   28.9219 C   0  0  0  0  0  0  0  0  0  0  0  0
    9.6235  -18.7874   27.9760 C   0  0  0  0  0  0  0  0  0  0  0  0
    9.3779  -18.8674   26.6197 C   0  0  0  0  0  0  0  0  0  0  0  0
    8.0538  -19.0036   26.1869 C   0  0  0  0  0  0  0  0  0  0  0  0
    7.8096  -19.0802   24.7554 C   0  0  0  0  0  0  0  0  0  0  0  0
    7.2897  -17.8132   24.1183 C   0  0  2  0  0  0  0  0  0  0  0  0
    7.2600  -17.9765   22.6768 N   0  0  0  0  0  0  0  0  0  0  0  0
    8.0555  -16.6057   24.4646 C   0  0  0  0  0  0  0  0  0  0  0  0
    9.2264  -16.3983   23.9715 O   0  0  0  0  0  0  0  0  0  0  0  0
    7.0286  -19.0552   27.1034 C   0  0  0  0  0  0  0  0  0  0  0  0
    7.2949  -18.9735   28.4584 C   0  0  0  0  0  0  0  0  0  0  0  0
    5.6196  -12.1266   27.0220 C   0  0  0  0  0  0  0  0  0  0  0  0
    6.4530  -13.3320   26.7542 C   0  0  0  0  0  0  0  0  0  0  0  0
    7.6077  -13.1355   25.8218 C   0  0  2  0  0  0  0  0  0  0  0  0
    6.9824  -12.8304   24.4467 C   0  0  0  0  0  0  0  0  0  0  0  0
    8.4252  -14.3803   25.6091 C   0  0  2  0  0  0  0  0  0  0  0  0
    7.6386  -15.5669   25.3362 N   0  0  0  0  0  0  0  0  0  0  0  0
    9.1711  -14.6365   26.8601 C   0  0  0  0  0  0  0  0  0  0  0  0
   10.0277  -13.8152   27.2331 O   0  0  0  0  0  0  0  0  0  0  0  0
    8.9274  -15.7624   27.6048 O   0  0  0  0  0  0  0  0  0  0  0  0
  2  1  1  1
  2  3  1  0
  3  4  1  0
  5  2  1  0
  6  5  2  0
  8  7  1  0
  8 18  2  0
  9  8  1  0
 10  9  2  0
 10 11  1  0
 11 17  2  0
 12 11  1  0
 13 12  1  1
 13 14  1  0
 14  5  1  0
 15 24  1  0
 15 13  1  0
 16 15  2  0
 17 18  1  0
 20 19  1  0
 21 20  1  0
 21 22  1  6
 23 21  1  0
 23 24  1  1
 25 23  1  0
 25 27  1  0
 26 25  2  0
M  END
$$$$
