CYI.pdb
     RDKit          3D

 27 27  0  0  1  0  0  0  0  0999 V2000
    4.3322  -18.9386   20.5793 N   0  0  0  0  0  0  0  0  0  0  0  0
    5.6311  -18.2649   20.7649 C   0  0  1  0  0  0  0  0  0  0  0  0
    5.5614  -16.9590   20.0289 C   0  0  0  0  0  0  0  0  0  0  0  0
    7.0202  -15.9337   20.2315 S   0  0  0  0  0  0  0  0  0  0  0  0
    5.7789  -18.1191   22.2241 C   0  0  0  0  0  0  0  0  0  0  0  0
    4.7701  -17.8572   22.9731 O   0  0  0  0  0  0  0  0  0  0  0  0
    9.0889  -18.5650   30.4361 O   0  0  0  0  0  0  0  0  0  0  0  0
    8.7238  -18.7353   29.0943 C   0  0  0  0  0  0  0  0  0  0  0  0
    9.6628  -18.6817   28.0711 C   0  0  0  0  0  0  0  0  0  0  0  0
    9.3216  -18.8473   26.7436 C   0  0  0  0  0  0  0  0  0  0  0  0
    7.9789  -19.0773   26.4221 C   0  0  0  0  0  0  0  0  0  0  0  0
    7.6333  -19.2434   25.0194 C   0  0  0  0  0  0  0  0  0  0  0  0
    7.1084  -18.0059   24.3306 C   0  0  2  0  0  0  0  0  0  0  0  0
    7.0060  -18.2555   22.9049 N   0  0  0  0  0  0  0  0  0  0  0  0
    7.9139  -16.7974   24.5655 C   0  0  0  0  0  0  0  0  0  0  0  0
    9.0325  -16.6162   23.9547 O   0  0  0  0  0  0  0  0  0  0  0  0
    7.0298  -19.1346   27.4167 C   0  0  0  0  0  0  0  0  0  0  0  0
    7.3914  -18.9663   28.7413 C   0  0  0  0  0  0  0  0  0  0  0  0
    5.8106  -12.1968   27.2005 C   0  0  0  0  0  0  0  0  0  0  0  0
    6.5755  -13.4369   26.8899 C   0  0  0  0  0  0  0  0  0  0  0  0
    7.6777  -13.2921   25.8870 C   0  0  2  0  0  0  0  0  0  0  0  0
    6.9813  -12.9788   24.5485 C   0  0  0  0  0  0  0  0  0  0  0  0
    8.4359  -14.5681   25.6410 C   0  0  2  0  0  0  0  0  0  0  0  0
    7.5924  -15.7302   25.4434 N   0  0  0  0  0  0  0  0  0  0  0  0
    9.2569  -14.8312   26.8425 C   0  0  0  0  0  0  0  0  0  0  0  0
   10.1745  -14.0431   27.1331 O   0  0  0  0  0  0  0  0  0  0  0  0
    9.0161  -15.9275   27.6310 O   0  0  0  0  0  0  0  0  0  0  0  0
  2  1  1  1
  2  3  1  0
  3  4  1  0
  5  2  1  0
  6  5  2  0
  8  7  1  0
  8 18  2  0
  9  8  1  0
 10  9  2  0
 10 11  1  0
 11 17  2  0
 12 11  1  0
 13 12  1  1
 13 14  1  0
 14  5  1  0
 15 24  1  0
 15 13  1  0
 16 15  2  0
 17 18  1  0
 20 19  1  0
 21 20  1  0
 21 22  1  6
 23 21  1  0
 23 24  1  1
 25 23  1  0
 25 27  1  0
 26 25  2  0
M  END
$$$$
