CYI.pdb
     RDKit          3D

 27 27  0  0  1  0  0  0  0  0999 V2000
    4.7487  -21.2394   23.7557 N   0  0  0  0  0  0  0  0  0  0  0  0
    6.0567  -20.8480   24.3135 C   0  0  1  0  0  0  0  0  0  0  0  0
    7.1115  -21.4885   23.4596 C   0  0  0  0  0  0  0  0  0  0  0  0
    7.3850  -20.6519   21.8957 S   0  0  0  0  0  0  0  0  0  0  0  0
    6.0652  -19.3749   24.2657 C   0  0  0  0  0  0  0  0  0  0  0  0
    5.2432  -18.7277   23.5224 O   0  0  0  0  0  0  0  0  0  0  0  0
    6.8483  -10.9536   26.8390 O   0  0  0  0  0  0  0  0  0  0  0  0
    6.9579  -12.3441   26.7078 C   0  0  0  0  0  0  0  0  0  0  0  0
    5.8643  -13.1819   26.8922 C   0  0  0  0  0  0  0  0  0  0  0  0
    5.9534  -14.5540   26.7669 C   0  0  0  0  0  0  0  0  0  0  0  0
    7.1931  -15.1166   26.4421 C   0  0  0  0  0  0  0  0  0  0  0  0
    7.2734  -16.5634   26.3197 C   0  0  0  0  0  0  0  0  0  0  0  0
    6.8671  -17.1235   24.9771 C   0  0  2  0  0  0  0  0  0  0  0  0
    6.9491  -18.5717   25.0150 N   0  0  0  0  0  0  0  0  0  0  0  0
    7.6568  -16.6119   23.8462 C   0  0  0  0  0  0  0  0  0  0  0  0
    8.7182  -17.2219   23.4480 O   0  0  0  0  0  0  0  0  0  0  0  0
    8.2912  -14.3089   26.2546 C   0  0  0  0  0  0  0  0  0  0  0  0
    8.1819  -12.9359   26.3844 C   0  0  0  0  0  0  0  0  0  0  0  0
    7.7919  -12.2912   19.2167 C   0  0  0  0  0  0  0  0  0  0  0  0
    8.1832  -13.5737   19.8659 C   0  0  0  0  0  0  0  0  0  0  0  0
    7.5912  -13.8309   21.2168 C   0  0  2  0  0  0  0  0  0  0  0  0
    8.2097  -12.7707   22.1487 C   0  0  0  0  0  0  0  0  0  0  0  0
    7.9986  -15.1529   21.8082 C   0  0  2  0  0  0  0  0  0  0  0  0
    7.3784  -15.4476   23.0847 N   0  0  0  0  0  0  0  0  0  0  0  0
    9.4581  -15.1003   22.0406 C   0  0  0  0  0  0  0  0  0  0  0  0
    9.8817  -14.9727   23.2033 O   0  0  0  0  0  0  0  0  0  0  0  0
   10.3395  -15.1905   20.9934 O   0  0  0  0  0  0  0  0  0  0  0  0
  2  1  1  6
  2  3  1  0
  3  4  1  0
  5  2  1  0
  6  5  2  0
  8  7  1  0
  8 18  2  0
  9  8  1  0
 10  9  2  0
 10 11  1  0
 11 17  2  0
 12 11  1  0
 13 12  1  1
 13 14  1  0
 14  5  1  0
 15 24  1  0
 15 13  1  0
 16 15  2  0
 17 18  1  0
 20 19  1  0
 21 20  1  0
 21 22  1  1
 23 21  1  0
 23 24  1  1
 25 23  1  0
 25 27  1  0
 26 25  2  0
M  END
$$$$
