CYI.pdb
     RDKit          3D

 27 27  0  0  1  0  0  0  0  0999 V2000
    5.6424  -18.5989   19.6717 N   0  0  0  0  0  0  0  0  0  0  0  0
    6.7303  -17.6883   20.0753 C   0  0  1  0  0  0  0  0  0  0  0  0
    6.4804  -16.3728   19.3977 C   0  0  0  0  0  0  0  0  0  0  0  0
    7.8340  -15.2056   19.5588 S   0  0  0  0  0  0  0  0  0  0  0  0
    6.6483  -17.6260   21.5456 C   0  0  0  0  0  0  0  0  0  0  0  0
    5.5162  -17.5796   22.1485 O   0  0  0  0  0  0  0  0  0  0  0  0
    8.5327  -18.8067   30.0899 O   0  0  0  0  0  0  0  0  0  0  0  0
    8.4237  -18.8149   28.6932 C   0  0  0  0  0  0  0  0  0  0  0  0
    9.5365  -18.6621   27.8745 C   0  0  0  0  0  0  0  0  0  0  0  0
    9.4484  -18.6677   26.4967 C   0  0  0  0  0  0  0  0  0  0  0  0
    8.1894  -18.8337   25.9079 C   0  0  0  0  0  0  0  0  0  0  0  0
    8.1110  -18.8311   24.4559 C   0  0  0  0  0  0  0  0  0  0  0  0
    7.6319  -17.5400   23.8353 C   0  0  2  0  0  0  0  0  0  0  0  0
    7.7748  -17.6170   22.3934 N   0  0  0  0  0  0  0  0  0  0  0  0
    8.3168  -16.3388   24.3377 C   0  0  0  0  0  0  0  0  0  0  0  0
    9.5133  -16.0503   23.9603 O   0  0  0  0  0  0  0  0  0  0  0  0
    7.0721  -18.9867   26.6964 C   0  0  0  0  0  0  0  0  0  0  0  0
    7.1808  -18.9785   28.0754 C   0  0  0  0  0  0  0  0  0  0  0  0
    5.6292  -12.0661   27.0861 C   0  0  0  0  0  0  0  0  0  0  0  0
    6.4275  -13.2675   26.7138 C   0  0  0  0  0  0  0  0  0  0  0  0
    7.6734  -13.0071   25.9256 C   0  0  2  0  0  0  0  0  0  0  0  0
    7.1961  -12.6167   24.5133 C   0  0  0  0  0  0  0  0  0  0  0  0
    8.5224  -14.2326   25.7236 C   0  0  2  0  0  0  0  0  0  0  0  0
    7.7892  -15.3906   25.2517 N   0  0  0  0  0  0  0  0  0  0  0  0
    9.0960  -14.5926   27.0382 C   0  0  0  0  0  0  0  0  0  0  0  0
    9.9011  -13.8148   27.5808 O   0  0  0  0  0  0  0  0  0  0  0  0
    8.7500  -15.7666   27.6575 O   0  0  0  0  0  0  0  0  0  0  0  0
  2  1  1  6
  2  3  1  0
  3  4  1  0
  5  2  1  0
  6  5  2  0
  8  7  1  0
  8 18  2  0
  9  8  1  0
 10  9  2  0
 10 11  1  0
 11 17  2  0
 12 11  1  0
 13 12  1  1
 13 14  1  0
 14  5  1  0
 15 24  1  0
 15 13  1  0
 16 15  2  0
 17 18  1  0
 20 19  1  0
 21 20  1  0
 21 22  1  6
 23 21  1  0
 23 24  1  1
 25 23  1  0
 25 27  1  0
 26 25  2  0
M  END
$$$$
