CYI.pdb
     RDKit          3D

 27 27  0  0  1  0  0  0  0  0999 V2000
   12.9021  -17.0642   19.8641 N   0  0  0  0  0  0  0  0  0  0  0  0
   11.9124  -17.8031   20.6703 C   0  0  1  0  0  0  0  0  0  0  0  0
   12.6258  -18.9720   21.2841 C   0  0  0  0  0  0  0  0  0  0  0  0
   11.6017  -19.9479   22.3883 S   0  0  0  0  0  0  0  0  0  0  0  0
   11.4165  -16.8243   21.6544 C   0  0  0  0  0  0  0  0  0  0  0  0
   12.1576  -15.8615   22.0682 O   0  0  0  0  0  0  0  0  0  0  0  0
    7.1097  -12.8108   18.0924 O   0  0  0  0  0  0  0  0  0  0  0  0
    7.3911  -13.4807   19.2903 C   0  0  0  0  0  0  0  0  0  0  0  0
    7.0959  -14.8285   19.4582 C   0  0  0  0  0  0  0  0  0  0  0  0
    7.3659  -15.5051   20.6310 C   0  0  0  0  0  0  0  0  0  0  0  0
    7.9589  -14.8029   21.6866 C   0  0  0  0  0  0  0  0  0  0  0  0
    8.2317  -15.5268   22.9179 C   0  0  0  0  0  0  0  0  0  0  0  0
    9.6842  -15.8590   23.1659 C   0  0  2  0  0  0  0  0  0  0  0  0
   10.1200  -16.8572   22.2073 N   0  0  0  0  0  0  0  0  0  0  0  0
    9.9718  -16.3244   24.5315 C   0  0  0  0  0  0  0  0  0  0  0  0
   10.4028  -17.5178   24.7490 O   0  0  0  0  0  0  0  0  0  0  0  0
    8.2608  -13.4678   21.5457 C   0  0  0  0  0  0  0  0  0  0  0  0
    7.9826  -12.8073   20.3625 C   0  0  0  0  0  0  0  0  0  0  0  0
    9.8192  -12.6891   28.8692 C   0  0  0  0  0  0  0  0  0  0  0  0
   10.4064  -13.7327   27.9830 C   0  0  0  0  0  0  0  0  0  0  0  0
    9.8728  -15.1199   28.1626 C   0  0  2  0  0  0  0  0  0  0  0  0
   10.6073  -15.6903   29.3914 C   0  0  0  0  0  0  0  0  0  0  0  0
   10.2257  -16.0490   27.0333 C   0  0  2  0  0  0  0  0  0  0  0  0
    9.8227  -15.5721   25.7251 N   0  0  0  0  0  0  0  0  0  0  0  0
    9.5076  -17.3203   27.2681 C   0  0  0  0  0  0  0  0  0  0  0  0
    8.3791  -17.4792   26.7693 O   0  0  0  0  0  0  0  0  0  0  0  0
   10.0716  -18.3158   28.0246 O   0  0  0  0  0  0  0  0  0  0  0  0
  2  1  1  6
  2  3  1  0
  3  4  1  0
  5  2  1  0
  6  5  2  0
  8  7  1  0
  8 18  2  0
  9  8  1  0
 10  9  2  0
 10 11  1  0
 11 17  2  0
 12 11  1  0
 13 12  1  1
 13 14  1  0
 14  5  1  0
 15 24  1  0
 15 13  1  0
 16 15  2  0
 17 18  1  0
 20 19  1  0
 21 20  1  0
 21 22  1  1
 23 21  1  0
 23 24  1  6
 25 23  1  0
 25 27  1  0
 26 25  2  0
M  END
$$$$
