CYI.pdb
     RDKit          3D

 27 27  0  0  1  0  0  0  0  0999 V2000
    7.0711  -21.1144   24.1213 N   0  0  0  0  0  0  0  0  0  0  0  0
    6.6991  -19.8536   24.7903 C   0  0  1  0  0  0  0  0  0  0  0  0
    7.1633  -19.9544   26.2138 C   0  0  0  0  0  0  0  0  0  0  0  0
    6.7832  -18.5073   27.2046 S   0  0  0  0  0  0  0  0  0  0  0  0
    7.3764  -18.7980   24.0162 C   0  0  0  0  0  0  0  0  0  0  0  0
    8.5700  -18.9589   23.5726 O   0  0  0  0  0  0  0  0  0  0  0  0
    8.9439  -12.2461   18.4123 O   0  0  0  0  0  0  0  0  0  0  0  0
    8.3555  -13.0780   19.3738 C   0  0  0  0  0  0  0  0  0  0  0  0
    8.4175  -14.4630   19.2753 C   0  0  0  0  0  0  0  0  0  0  0  0
    7.8438  -15.2984   20.2130 C   0  0  0  0  0  0  0  0  0  0  0  0
    7.1764  -14.7239   21.3009 C   0  0  0  0  0  0  0  0  0  0  0  0
    6.5716  -15.6160   22.2771 C   0  0  0  0  0  0  0  0  0  0  0  0
    7.5328  -16.5221   23.0095 C   0  0  2  0  0  0  0  0  0  0  0  0
    6.7867  -17.5568   23.7010 N   0  0  0  0  0  0  0  0  0  0  0  0
    8.4122  -15.8254   23.9611 C   0  0  0  0  0  0  0  0  0  0  0  0
    9.3404  -15.0339   23.5499 O   0  0  0  0  0  0  0  0  0  0  0  0
    7.1007  -13.3552   21.4213 C   0  0  0  0  0  0  0  0  0  0  0  0
    7.6821  -12.5347   20.4713 C   0  0  0  0  0  0  0  0  0  0  0  0
    6.1641  -12.4716   26.9027 C   0  0  0  0  0  0  0  0  0  0  0  0
    7.2185  -13.2486   26.1929 C   0  0  0  0  0  0  0  0  0  0  0  0
    8.0809  -14.1190   27.0532 C   0  0  2  0  0  0  0  0  0  0  0  0
    8.9907  -13.1542   27.8381 C   0  0  0  0  0  0  0  0  0  0  0  0
    9.0238  -14.9908   26.2694 C   0  0  2  0  0  0  0  0  0  0  0  0
    8.3652  -15.9228   25.3757 N   0  0  0  0  0  0  0  0  0  0  0  0
    9.7906  -15.7972   27.2435 C   0  0  0  0  0  0  0  0  0  0  0  0
    9.5915  -17.0236   27.3039 O   0  0  0  0  0  0  0  0  0  0  0  0
   10.7109  -15.2080   28.0726 O   0  0  0  0  0  0  0  0  0  0  0  0
  2  1  1  6
  2  3  1  0
  3  4  1  0
  5  2  1  0
  6  5  2  0
  8  7  1  0
  8 18  2  0
  9  8  1  0
 10  9  2  0
 10 11  1  0
 11 17  2  0
 12 11  1  0
 13 12  1  1
 13 14  1  0
 14  5  1  0
 15 24  1  0
 15 13  1  0
 16 15  2  0
 17 18  1  0
 20 19  1  0
 21 20  1  0
 21 22  1  1
 23 21  1  0
 23 24  1  6
 25 23  1  0
 25 27  1  0
 26 25  2  0
M  END
$$$$
