CYI.pdb
     RDKit          3D

 27 27  0  0  1  0  0  0  0  0999 V2000
   12.0899  -16.3531   19.3796 N   0  0  0  0  0  0  0  0  0  0  0  0
   11.4169  -17.2881   20.3006 C   0  0  1  0  0  0  0  0  0  0  0  0
   12.4323  -18.3148   20.7089 C   0  0  0  0  0  0  0  0  0  0  0  0
   11.7821  -19.5849   21.7972 S   0  0  0  0  0  0  0  0  0  0  0  0
   10.9389  -16.4479   21.4133 C   0  0  0  0  0  0  0  0  0  0  0  0
   11.5717  -15.3894   21.7685 O   0  0  0  0  0  0  0  0  0  0  0  0
    5.5831  -12.0285   26.8213 O   0  0  0  0  0  0  0  0  0  0  0  0
    6.1409  -12.9245   25.9000 C   0  0  0  0  0  0  0  0  0  0  0  0
    6.8501  -12.4812   24.7899 C   0  0  0  0  0  0  0  0  0  0  0  0
    7.4068  -13.3492   23.8718 C   0  0  0  0  0  0  0  0  0  0  0  0
    7.2479  -14.7254   24.0713 C   0  0  0  0  0  0  0  0  0  0  0  0
    7.8340  -15.6275   23.0928 C   0  0  0  0  0  0  0  0  0  0  0  0
    9.3258  -15.8321   23.2123 C   0  0  2  0  0  0  0  0  0  0  0  0
    9.7750  -16.7240   22.1597 N   0  0  0  0  0  0  0  0  0  0  0  0
    9.7609  -16.3490   24.5191 C   0  0  0  0  0  0  0  0  0  0  0  0
   10.1414  -17.5711   24.6562 O   0  0  0  0  0  0  0  0  0  0  0  0
    6.5499  -15.1900   25.1623 C   0  0  0  0  0  0  0  0  0  0  0  0
    5.9994  -14.3043   26.0714 C   0  0  0  0  0  0  0  0  0  0  0  0
   10.4307  -12.8715   28.9956 C   0  0  0  0  0  0  0  0  0  0  0  0
   10.7417  -13.8772   27.9416 C   0  0  0  0  0  0  0  0  0  0  0  0
   10.1816  -15.2484   28.1595 C   0  0  2  0  0  0  0  0  0  0  0  0
   11.0482  -15.8786   29.2670 C   0  0  0  0  0  0  0  0  0  0  0  0
   10.3456  -16.1586   26.9729 C   0  0  2  0  0  0  0  0  0  0  0  0
    9.8175  -15.6202   25.7351 N   0  0  0  0  0  0  0  0  0  0  0  0
    9.5905  -17.3973   27.2604 C   0  0  0  0  0  0  0  0  0  0  0  0
    8.4354  -17.5193   26.8149 O   0  0  0  0  0  0  0  0  0  0  0  0
   10.1494  -18.4028   28.0074 O   0  0  0  0  0  0  0  0  0  0  0  0
  2  1  1  6
  2  3  1  0
  3  4  1  0
  5  2  1  0
  6  5  2  0
  8  7  1  0
  8 18  2  0
  9  8  1  0
 10  9  2  0
 10 11  1  0
 11 17  2  0
 12 11  1  0
 13 12  1  1
 13 14  1  0
 14  5  1  0
 15 24  1  0
 15 13  1  0
 16 15  2  0
 17 18  1  0
 20 19  1  0
 21 20  1  0
 21 22  1  1
 23 21  1  0
 23 24  1  6
 25 23  1  0
 25 27  1  0
 26 25  2  0
M  END
$$$$
