DIC.pdb
     RDKit          3D

 23 22  0  0  1  0  0  0  0  0999 V2000
   14.6649  -22.8005    1.8565 N   0  0  0  0  0  0  0  0  0  0  0  0
   15.6828  -22.1511    2.6428 C   0  0  1  0  0  0  0  0  0  0  0  0
   14.9944  -21.1975    3.6146 C   0  0  0  0  0  0  0  0  0  0  0  0
   14.4704  -20.0584    2.8666 C   0  0  0  0  0  0  0  0  0  0  0  0
   14.9343  -19.7568    1.7448 O   0  0  0  0  0  0  0  0  0  0  0  0
   16.4145  -23.1509    3.4341 C   0  0  0  0  0  0  0  0  0  0  0  0
   15.8160  -24.2456    3.7120 O   0  0  0  0  0  0  0  0  0  0  0  0
   13.4475  -19.2924    3.3917 O   0  0  0  0  0  0  0  0  0  0  0  0
   20.9125  -24.9040    1.8803 C   0  0  0  0  0  0  0  0  0  0  0  0
   19.6651  -24.7972    2.6658 C   0  0  0  0  0  0  0  0  0  0  0  0
   19.7037  -24.2161    4.0124 C   0  0  2  0  0  0  0  0  0  0  0  0
   20.7664  -24.8641    4.9037 C   0  0  0  0  0  0  0  0  0  0  0  0
   18.4221  -24.0254    4.7204 C   0  0  2  0  0  0  0  0  0  0  0  0
   17.7267  -22.9778    3.9022 N   0  0  0  0  0  0  0  0  0  0  0  0
   18.3848  -23.5354    6.0769 C   0  0  0  0  0  0  0  0  0  0  0  0
   18.7647  -22.3254    6.3201 O   0  0  0  0  0  0  0  0  0  0  0  0
   17.9575  -24.2226    7.2584 N   0  0  0  0  0  0  0  0  0  0  0  0
   18.1257  -23.6597    8.5771 C   0  0  1  0  0  0  0  0  0  0  0  0
   16.7532  -23.1204    9.0117 C   0  0  0  0  0  0  0  0  0  0  0  0
   17.0173  -22.4167   10.6692 S   0  0  0  0  0  0  0  0  0  0  0  0
   18.5953  -24.6069    9.6001 C   0  0  0  0  0  0  0  0  0  0  0  0
   19.3913  -24.2103   10.6608 O   0  0  0  0  0  0  0  0  0  0  0  0
   18.2741  -25.8124    9.5236 O   0  0  0  0  0  0  0  0  0  0  0  0
  2  1  1  1
  2  3  1  0
  3  4  1  0
  4  8  1  0
  4  5  2  0
  6  2  1  0
  6  7  2  0
  9 10  1  0
 10 11  1  0
 11 13  1  0
 11 12  1  1
 13 14  1  6
 14  6  1  0
 15 13  1  0
 16 15  2  0
 17 15  1  0
 18 19  1  1
 18 17  1  0
 19 20  1  0
 21 22  1  0
 21 18  1  0
 23 21  2  0
M  END
$$$$
