DIC.pdb
     RDKit          3D

 23 22  0  0  1  0  0  0  0  0999 V2000
   18.2162  -11.6862  -17.1298 N   0  0  0  0  0  0  0  0  0  0  0  0
   17.5764  -10.5074  -16.6034 C   0  0  1  0  0  0  0  0  0  0  0  0
   17.4785  -10.6579  -15.0884 C   0  0  0  0  0  0  0  0  0  0  0  0
   16.2830  -11.4322  -14.7673 C   0  0  0  0  0  0  0  0  0  0  0  0
   15.8013  -12.2427  -15.5892 O   0  0  0  0  0  0  0  0  0  0  0  0
   18.4017   -9.3242  -16.8867 C   0  0  0  0  0  0  0  0  0  0  0  0
   19.6516   -9.5029  -17.0856 O   0  0  0  0  0  0  0  0  0  0  0  0
   15.6631  -11.2788  -13.5422 O   0  0  0  0  0  0  0  0  0  0  0  0
   16.4848   -5.7421  -20.2066 C   0  0  0  0  0  0  0  0  0  0  0  0
   17.5538   -6.4349  -19.4570 C   0  0  0  0  0  0  0  0  0  0  0  0
   17.9014   -5.9828  -18.1053 C   0  0  2  0  0  0  0  0  0  0  0  0
   18.3357   -4.5154  -18.0681 C   0  0  0  0  0  0  0  0  0  0  0  0
   18.7812   -6.8460  -17.2923 C   0  0  2  0  0  0  0  0  0  0  0  0
   17.9028   -8.0135  -16.9519 N   0  0  0  0  0  0  0  0  0  0  0  0
   19.3146   -6.3910  -16.0313 C   0  0  0  0  0  0  0  0  0  0  0  0
   18.5018   -5.9864  -15.1129 O   0  0  0  0  0  0  0  0  0  0  0  0
   20.6840   -6.3255  -15.6176 N   0  0  0  0  0  0  0  0  0  0  0  0
   21.0788   -5.7354  -14.3606 C   0  0  1  0  0  0  0  0  0  0  0  0
   22.0094   -6.7428  -13.6660 C   0  0  0  0  0  0  0  0  0  0  0  0
   22.5539   -5.9182  -12.1378 S   0  0  0  0  0  0  0  0  0  0  0  0
   21.7892   -4.4522  -14.4743 C   0  0  0  0  0  0  0  0  0  0  0  0
   21.5910   -3.4186  -13.5751 O   0  0  0  0  0  0  0  0  0  0  0  0
   22.6014   -4.2732  -15.4073 O   0  0  0  0  0  0  0  0  0  0  0  0
  2  1  1  6
  2  3  1  0
  3  4  1  0
  4  8  1  0
  4  5  2  0
  6  2  1  0
  6  7  2  0
  9 10  1  0
 10 11  1  0
 11 13  1  0
 11 12  1  6
 13 14  1  1
 14  6  1  0
 15 13  1  0
 16 15  2  0
 17 15  1  0
 18 19  1  6
 18 17  1  0
 19 20  1  0
 21 22  1  0
 21 18  1  0
 23 21  2  0
M  END
$$$$
