DIC.pdb
     RDKit          3D

 23 22  0  0  1  0  0  0  0  0999 V2000
   23.0466  -11.6650  -20.8661 N   0  0  0  0  0  0  0  0  0  0  0  0
   23.5759  -10.4007  -20.4219 C   0  0  1  0  0  0  0  0  0  0  0  0
   22.8473   -9.2913  -21.1742 C   0  0  0  0  0  0  0  0  0  0  0  0
   23.3499   -9.2413  -22.5441 C   0  0  0  0  0  0  0  0  0  0  0  0
   24.5141   -8.8549  -22.7888 O   0  0  0  0  0  0  0  0  0  0  0  0
   23.3071  -10.2246  -18.9873 C   0  0  0  0  0  0  0  0  0  0  0  0
   22.3485  -10.8962  -18.4736 O   0  0  0  0  0  0  0  0  0  0  0  0
   22.5402   -9.6229  -23.5966 O   0  0  0  0  0  0  0  0  0  0  0  0
   25.9538  -10.8043  -13.9078 C   0  0  0  0  0  0  0  0  0  0  0  0
   24.8610  -10.0734  -14.5833 C   0  0  0  0  0  0  0  0  0  0  0  0
   24.8253  -10.0152  -16.0488 C   0  0  2  0  0  0  0  0  0  0  0  0
   26.1925   -9.6970  -16.6595 C   0  0  0  0  0  0  0  0  0  0  0  0
   23.7374   -9.2451  -16.6840 C   0  0  2  0  0  0  0  0  0  0  0  0
   24.0364   -9.3665  -18.1491 N   0  0  0  0  0  0  0  0  0  0  0  0
   23.5851   -7.8307  -16.4429 C   0  0  0  0  0  0  0  0  0  0  0  0
   24.5117   -7.0216  -16.8355 O   0  0  0  0  0  0  0  0  0  0  0  0
   22.4973   -7.1499  -15.8074 N   0  0  0  0  0  0  0  0  0  0  0  0
   22.5190   -5.7269  -15.5649 C   0  0  1  0  0  0  0  0  0  0  0  0
   21.2668   -5.1394  -16.2359 C   0  0  0  0  0  0  0  0  0  0  0  0
   21.4669   -5.4855  -18.0113 S   0  0  0  0  0  0  0  0  0  0  0  0
   22.5077   -5.3398  -14.1456 C   0  0  0  0  0  0  0  0  0  0  0  0
   22.7207   -4.0346  -13.7366 O   0  0  0  0  0  0  0  0  0  0  0  0
   22.3005   -6.2054  -13.2681 O   0  0  0  0  0  0  0  0  0  0  0  0
  2  1  1  6
  2  3  1  0
  3  4  1  0
  4  8  1  0
  4  5  2  0
  6  2  1  0
  6  7  2  0
  9 10  1  0
 10 11  1  0
 11 13  1  0
 11 12  1  1
 13 14  1  6
 14  6  1  0
 15 13  1  0
 16 15  2  0
 17 15  1  0
 18 19  1  6
 18 17  1  0
 19 20  1  0
 21 22  1  0
 21 18  1  0
 23 21  2  0
M  END
$$$$
