DIC.pdb
     RDKit          3D

 23 22  0  0  1  0  0  0  0  0999 V2000
   27.1857  -26.0164  -16.2939 N   0  0  0  0  0  0  0  0  0  0  0  0
   26.1142  -25.1895  -16.7882 C   0  0  1  0  0  0  0  0  0  0  0  0
   24.8632  -26.0548  -16.9052 C   0  0  0  0  0  0  0  0  0  0  0  0
   25.0285  -26.9741  -18.0275 C   0  0  0  0  0  0  0  0  0  0  0  0
   25.3412  -26.5535  -19.1632 O   0  0  0  0  0  0  0  0  0  0  0  0
   25.8306  -24.1142  -15.8267 C   0  0  0  0  0  0  0  0  0  0  0  0
   26.7263  -23.8408  -14.9568 O   0  0  0  0  0  0  0  0  0  0  0  0
   24.8404  -28.3311  -17.8487 O   0  0  0  0  0  0  0  0  0  0  0  0
   28.0493  -20.6859  -16.0455 C   0  0  0  0  0  0  0  0  0  0  0  0
   26.9826  -21.5929  -15.5721 C   0  0  0  0  0  0  0  0  0  0  0  0
   25.5766  -21.2321  -15.7853 C   0  0  2  0  0  0  0  0  0  0  0  0
   25.3235  -19.7303  -15.6306 C   0  0  0  0  0  0  0  0  0  0  0  0
   24.5443  -22.0446  -15.1113 C   0  0  2  0  0  0  0  0  0  0  0  0
   24.6396  -23.3712  -15.8051 N   0  0  0  0  0  0  0  0  0  0  0  0
   23.1494  -21.6812  -15.1751 C   0  0  0  0  0  0  0  0  0  0  0  0
   22.6343  -21.3583  -16.3144 O   0  0  0  0  0  0  0  0  0  0  0  0
   22.1947  -21.6311  -14.1090 N   0  0  0  0  0  0  0  0  0  0  0  0
   20.8636  -21.1039  -14.2947 C   0  0  1  0  0  0  0  0  0  0  0  0
   19.8836  -22.1741  -13.7870 C   0  0  0  0  0  0  0  0  0  0  0  0
   20.6100  -23.7659  -14.2877 S   0  0  0  0  0  0  0  0  0  0  0  0
   20.5887  -19.8485  -13.5788 C   0  0  0  0  0  0  0  0  0  0  0  0
   19.3881  -19.1725  -13.7120 O   0  0  0  0  0  0  0  0  0  0  0  0
   21.4568  -19.3630  -12.8219 O   0  0  0  0  0  0  0  0  0  0  0  0
  2  1  1  1
  2  3  1  0
  3  4  1  0
  4  8  1  0
  4  5  2  0
  6  2  1  0
  6  7  2  0
  9 10  1  0
 10 11  1  0
 11 13  1  0
 11 12  1  1
 13 14  1  6
 14  6  1  0
 15 13  1  0
 16 15  2  0
 17 15  1  0
 18 19  1  1
 18 17  1  0
 19 20  1  0
 21 22  1  0
 21 18  1  0
 23 21  2  0
M  END
$$$$
