DIC.pdb
     RDKit          3D

 23 22  0  0  1  0  0  0  0  0999 V2000
   25.0328  -20.5712  -15.2158 N   0  0  0  0  0  0  0  0  0  0  0  0
   24.2955  -19.8368  -14.2193 C   0  0  1  0  0  0  0  0  0  0  0  0
   23.0140  -19.3182  -14.8646 C   0  0  0  0  0  0  0  0  0  0  0  0
   23.3602  -18.2895  -15.8411 C   0  0  0  0  0  0  0  0  0  0  0  0
   24.5544  -18.0378  -16.1148 O   0  0  0  0  0  0  0  0  0  0  0  0
   23.9151  -20.7345  -13.1190 C   0  0  0  0  0  0  0  0  0  0  0  0
   23.9011  -21.9911  -13.3526 O   0  0  0  0  0  0  0  0  0  0  0  0
   22.3658  -17.5748  -16.4809 O   0  0  0  0  0  0  0  0  0  0  0  0
   26.1776  -19.9957   -8.5940 C   0  0  0  0  0  0  0  0  0  0  0  0
   25.4101  -20.6565   -9.6705 C   0  0  0  0  0  0  0  0  0  0  0  0
   23.9490  -20.7439   -9.5706 C   0  0  2  0  0  0  0  0  0  0  0  0
   23.4852  -21.3847   -8.2600 C   0  0  0  0  0  0  0  0  0  0  0  0
   23.2056  -21.2592  -10.7376 C   0  0  2  0  0  0  0  0  0  0  0  0
   23.5672  -20.2977  -11.8309 N   0  0  0  0  0  0  0  0  0  0  0  0
   21.7638  -21.3127  -10.7395 C   0  0  0  0  0  0  0  0  0  0  0  0
   21.0927  -20.2106  -10.6885 O   0  0  0  0  0  0  0  0  0  0  0  0
   20.9176  -22.4662  -10.8027 N   0  0  0  0  0  0  0  0  0  0  0  0
   19.4842  -22.3758  -10.6564 C   0  0  1  0  0  0  0  0  0  0  0  0
   18.8661  -23.2671  -11.7459 C   0  0  0  0  0  0  0  0  0  0  0  0
   19.6861  -22.7717  -13.2933 S   0  0  0  0  0  0  0  0  0  0  0  0
   18.9655  -22.8138   -9.3513 C   0  0  0  0  0  0  0  0  0  0  0  0
   17.6355  -22.6620   -8.9989 O   0  0  0  0  0  0  0  0  0  0  0  0
   19.7375  -23.3422   -8.5225 O   0  0  0  0  0  0  0  0  0  0  0  0
  2  1  1  6
  2  3  1  0
  3  4  1  0
  4  8  1  0
  4  5  2  0
  6  2  1  0
  6  7  2  0
  9 10  1  0
 10 11  1  0
 11 13  1  0
 11 12  1  1
 13 14  1  6
 14  6  1  0
 15 13  1  0
 16 15  2  0
 17 15  1  0
 18 19  1  6
 18 17  1  0
 19 20  1  0
 21 22  1  0
 21 18  1  0
 23 21  2  0
M  END
$$$$
