DIC.pdb
     RDKit          3D

 23 22  0  0  1  0  0  0  0  0999 V2000
   18.5771  -13.4549  -16.8988 N   0  0  0  0  0  0  0  0  0  0  0  0
   18.3602  -12.0307  -16.9240 C   0  0  1  0  0  0  0  0  0  0  0  0
   17.4822  -11.6640  -15.7314 C   0  0  0  0  0  0  0  0  0  0  0  0
   16.0989  -12.0167  -16.0377 C   0  0  0  0  0  0  0  0  0  0  0  0
   15.7882  -12.4961  -17.1504 O   0  0  0  0  0  0  0  0  0  0  0  0
   19.6429  -11.3288  -16.7724 C   0  0  0  0  0  0  0  0  0  0  0  0
   20.5989  -11.9517  -16.1964 O   0  0  0  0  0  0  0  0  0  0  0  0
   15.1069  -11.8242  -15.0954 O   0  0  0  0  0  0  0  0  0  0  0  0
   23.6123   -8.4248  -19.9123 C   0  0  0  0  0  0  0  0  0  0  0  0
   23.0372   -8.5574  -18.5572 C   0  0  0  0  0  0  0  0  0  0  0  0
   21.7715   -9.2762  -18.3739 C   0  0  2  0  0  0  0  0  0  0  0  0
   20.7223   -8.8992  -19.4230 C   0  0  0  0  0  0  0  0  0  0  0  0
   21.2025   -9.3388  -17.0128 C   0  0  2  0  0  0  0  0  0  0  0  0
   19.8820  -10.0198  -17.2202 N   0  0  0  0  0  0  0  0  0  0  0  0
   20.8988   -8.1367  -16.2751 C   0  0  0  0  0  0  0  0  0  0  0  0
   19.8967   -7.4092  -16.6414 O   0  0  0  0  0  0  0  0  0  0  0  0
   21.5717   -7.6038  -15.1288 N   0  0  0  0  0  0  0  0  0  0  0  0
   21.2036   -6.3370  -14.5425 C   0  0  1  0  0  0  0  0  0  0  0  0
   20.9864   -6.5851  -13.0410 C   0  0  0  0  0  0  0  0  0  0  0  0
   20.6120   -4.9505  -12.3338 S   0  0  0  0  0  0  0  0  0  0  0  0
   22.2042   -5.2694  -14.6947 C   0  0  0  0  0  0  0  0  0  0  0  0
   21.8470   -3.9551  -14.9423 O   0  0  0  0  0  0  0  0  0  0  0  0
   23.4206   -5.5410  -14.6002 O   0  0  0  0  0  0  0  0  0  0  0  0
  2  1  1  1
  2  3  1  0
  3  4  1  0
  4  8  1  0
  4  5  2  0
  6  2  1  0
  6  7  2  0
  9 10  1  0
 10 11  1  0
 11 13  1  0
 11 12  1  6
 13 14  1  6
 14  6  1  0
 15 13  1  0
 16 15  2  0
 17 15  1  0
 18 19  1  1
 18 17  1  0
 19 20  1  0
 21 22  1  0
 21 18  1  0
 23 21  2  0
M  END
$$$$
