DIC.pdb
     RDKit          3D

 23 22  0  0  1  0  0  0  0  0999 V2000
   16.1045   -9.9151  -13.1886 N   0  0  0  0  0  0  0  0  0  0  0  0
   16.7636   -9.1693  -12.1467 C   0  0  1  0  0  0  0  0  0  0  0  0
   17.7937   -8.2526  -12.7993 C   0  0  0  0  0  0  0  0  0  0  0  0
   18.8392   -9.0727  -13.4042 C   0  0  0  0  0  0  0  0  0  0  0  0
   19.3147  -10.0587  -12.7991 O   0  0  0  0  0  0  0  0  0  0  0  0
   15.7868   -8.3233  -11.4457 C   0  0  0  0  0  0  0  0  0  0  0  0
   14.8586   -7.7840  -12.1396 O   0  0  0  0  0  0  0  0  0  0  0  0
   19.3211   -8.7685  -14.6629 O   0  0  0  0  0  0  0  0  0  0  0  0
   12.7588  -10.1592   -8.0239 C   0  0  0  0  0  0  0  0  0  0  0  0
   13.3102   -9.1513   -8.9538 C   0  0  0  0  0  0  0  0  0  0  0  0
   14.1413   -8.0609   -8.4315 C   0  0  2  0  0  0  0  0  0  0  0  0
   13.4511   -7.2784   -7.3114 C   0  0  0  0  0  0  0  0  0  0  0  0
   14.8079   -7.1725   -9.4043 C   0  0  2  0  0  0  0  0  0  0  0  0
   15.8106   -8.0719  -10.0647 N   0  0  0  0  0  0  0  0  0  0  0  0
   15.5590   -6.0199   -8.9695 C   0  0  0  0  0  0  0  0  0  0  0  0
   16.5841   -6.1889   -8.2027 O   0  0  0  0  0  0  0  0  0  0  0  0
   15.3329   -4.6414   -9.2849 N   0  0  0  0  0  0  0  0  0  0  0  0
   16.0574   -3.5760   -8.6336 C   0  0  1  0  0  0  0  0  0  0  0  0
   17.0830   -3.0464   -9.6489 C   0  0  0  0  0  0  0  0  0  0  0  0
   16.1321   -2.7216  -11.1663 S   0  0  0  0  0  0  0  0  0  0  0  0
   15.2279   -2.4478   -8.1828 C   0  0  0  0  0  0  0  0  0  0  0  0
   15.7606   -1.3704   -7.4959 O   0  0  0  0  0  0  0  0  0  0  0  0
   14.0007   -2.4463   -8.4197 O   0  0  0  0  0  0  0  0  0  0  0  0
  2  1  1  6
  2  3  1  0
  3  4  1  0
  4  8  1  0
  4  5  2  0
  6  2  1  0
  6  7  2  0
  9 10  1  0
 10 11  1  0
 11 13  1  0
 11 12  1  1
 13 14  1  1
 14  6  1  0
 15 13  1  0
 16 15  2  0
 17 15  1  0
 18 19  1  6
 18 17  1  0
 19 20  1  0
 21 22  1  0
 21 18  1  0
 23 21  2  0
M  END
$$$$
