DIC.pdb
     RDKit          3D

 23 22  0  0  1  0  0  0  0  0999 V2000
   19.1751   -8.8702  -17.9483 N   0  0  0  0  0  0  0  0  0  0  0  0
   19.2662   -7.7053  -17.1051 C   0  0  1  0  0  0  0  0  0  0  0  0
   18.0287   -6.8468  -17.3478 C   0  0  0  0  0  0  0  0  0  0  0  0
   18.1391   -6.2206  -18.6622 C   0  0  0  0  0  0  0  0  0  0  0  0
   17.1696   -6.2075  -19.4523 O   0  0  0  0  0  0  0  0  0  0  0  0
   19.2633   -8.1116  -15.6924 C   0  0  0  0  0  0  0  0  0  0  0  0
   18.5505   -9.1204  -15.3636 O   0  0  0  0  0  0  0  0  0  0  0  0
   19.3249   -5.6295  -19.0538 O   0  0  0  0  0  0  0  0  0  0  0  0
   23.2590   -9.9368  -13.5134 C   0  0  0  0  0  0  0  0  0  0  0  0
   21.8593   -9.5081  -13.7172 C   0  0  0  0  0  0  0  0  0  0  0  0
   21.3470   -8.3381  -12.9954 C   0  0  2  0  0  0  0  0  0  0  0  0
   21.6672   -8.3820  -11.4991 C   0  0  0  0  0  0  0  0  0  0  0  0
   19.9554   -7.9192  -13.2564 C   0  0  2  0  0  0  0  0  0  0  0  0
   19.9932   -7.4616  -14.6846 N   0  0  0  0  0  0  0  0  0  0  0  0
   19.3539   -6.8312  -12.5242 C   0  0  0  0  0  0  0  0  0  0  0  0
   19.6870   -5.6175  -12.8131 O   0  0  0  0  0  0  0  0  0  0  0  0
   18.3826   -6.8968  -11.4740 N   0  0  0  0  0  0  0  0  0  0  0  0
   17.9242   -5.7182  -10.7775 C   0  0  1  0  0  0  0  0  0  0  0  0
   17.3035   -4.7881  -11.8324 C   0  0  0  0  0  0  0  0  0  0  0  0
   15.8778   -5.7023  -12.4987 S   0  0  0  0  0  0  0  0  0  0  0  0
   16.9195   -5.9675   -9.7323 C   0  0  0  0  0  0  0  0  0  0  0  0
   16.4047   -7.2297   -9.4916 O   0  0  0  0  0  0  0  0  0  0  0  0
   16.5067   -5.0196   -9.0298 O   0  0  0  0  0  0  0  0  0  0  0  0
  2  1  1  6
  2  3  1  0
  3  4  1  0
  4  8  1  0
  4  5  2  0
  6  2  1  0
  6  7  2  0
  9 10  1  0
 10 11  1  0
 11 13  1  0
 11 12  1  1
 13 14  1  6
 14  6  1  0
 15 13  1  0
 16 15  2  0
 17 15  1  0
 18 19  1  6
 18 17  1  0
 19 20  1  0
 21 22  1  0
 21 18  1  0
 23 21  2  0
M  END
$$$$
