PRE.pdb
     RDKit          3D

 28 28  0  0  1  0  0  0  0  0999 V2000
    8.7432  -14.0292   18.8284 N   0  0  0  0  0  0  0  0  0  0  0  0
    7.7970  -13.0420   18.2340 C   0  0  0  0  0  0  0  0  0  0  0  0
    6.5822  -13.1812   19.1022 C   0  0  0  0  0  0  0  0  0  0  0  0
    7.0926  -13.7739   20.3771 C   0  0  0  0  0  0  0  0  0  0  0  0
    8.6153  -13.6685   20.2492 C   0  0  1  0  0  0  0  0  0  0  0  0
    9.2161  -14.6983   21.1329 C   0  0  0  0  0  0  0  0  0  0  0  0
    8.9918  -14.6498   22.3638 O   0  0  0  0  0  0  0  0  0  0  0  0
   14.8272  -19.8318   22.1354 N   0  0  0  0  0  0  0  0  0  0  0  0
   14.2880  -20.9623   21.4847 C   0  0  0  0  0  0  0  0  0  0  0  0
   14.6660  -22.1759   21.8047 N   0  0  0  0  0  0  0  0  0  0  0  0
   13.3196  -20.8758   20.4605 N   0  0  0  0  0  0  0  0  0  0  0  0
   12.7345  -19.6675   19.9677 C   0  0  0  0  0  0  0  0  0  0  0  0
   11.9936  -18.8518   20.9882 C   0  0  0  0  0  0  0  0  0  0  0  0
   11.3089  -17.6996   20.3574 C   0  0  0  0  0  0  0  0  0  0  0  0
   10.5493  -16.8220   21.4133 C   0  0  2  0  0  0  0  0  0  0  0  0
   10.0273  -15.7336   20.6108 N   0  0  0  0  0  0  0  0  0  0  0  0
   11.3430  -16.4774   22.5518 C   0  0  0  0  0  0  0  0  0  0  0  0
   12.2693  -15.6041   22.4240 O   0  0  0  0  0  0  0  0  0  0  0  0
   14.2046  -22.9577   21.3103 N   0  0  0  0  0  0  0  0  0  0  0  0
   11.1612  -17.0483   23.8395 C   0  0  2  0  0  0  0  0  0  0  0  0
   12.0032  -16.5883   24.9478 C   0  0  0  0  0  0  0  0  0  0  0  0
   11.3433  -17.1309   26.1921 C   0  0  0  0  0  0  0  0  0  0  0  0
   12.0348  -16.8051   27.4735 C   0  0  0  0  0  0  0  0  0  0  0  0
   11.4192  -17.3917   28.6706 O   0  0  0  0  0  0  0  0  0  0  0  0
   10.4052  -18.0956   28.5741 C   0  0  0  0  0  0  0  0  0  0  0  0
   13.4015  -17.0598   24.8030 O   0  0  0  0  0  0  0  0  0  0  0  0
   13.7481  -18.1481   24.2873 O   0  0  0  0  0  0  0  0  0  0  0  0
   11.9370  -17.1898   29.9518 O   0  0  0  0  0  0  0  0  0  0  0  0
  1  5  1  0
  1  2  1  0
  2  3  1  0
  4  3  1  0
  5  4  1  0
  6  7  2  0
  5  6  1  1
  9  8  1  0
 10  9  2  0
 11  9  1  0
 12 13  1  0
 12 11  1  0
 13 14  1  0
 15 14  1  6
 15 16  1  0
 16  6  1  0
 17 15  1  0
 18 17  2  0
 19 17  1  0
 20 25  1  0
 20 19  1  0
 20 21  1  6
 22 21  1  0
 23 27  1  0
 23 22  1  0
 24 23  2  0
 25 28  1  0
 26 25  2  0
M  END
$$$$
