PRE.pdb
     RDKit          3D

 28 28  0  0  1  0  0  0  0  0999 V2000
    7.6071  -14.8139   18.9646 N   0  0  0  0  0  0  0  0  0  0  0  0
    7.5895  -13.9048   17.7828 C   0  0  0  0  0  0  0  0  0  0  0  0
    7.4616  -12.5481   18.4087 C   0  0  0  0  0  0  0  0  0  0  0  0
    7.9574  -12.7274   19.8084 C   0  0  0  0  0  0  0  0  0  0  0  0
    8.6009  -14.1174   19.7965 C   0  0  1  0  0  0  0  0  0  0  0  0
    8.6036  -14.6269   21.1903 C   0  0  0  0  0  0  0  0  0  0  0  0
    9.4688  -14.2047   21.9909 O   0  0  0  0  0  0  0  0  0  0  0  0
    2.6578  -21.1521   20.5742 N   0  0  0  0  0  0  0  0  0  0  0  0
    2.9004  -20.0217   21.3838 C   0  0  0  0  0  0  0  0  0  0  0  0
    1.9553  -19.5041   22.1302 N   0  0  0  0  0  0  0  0  0  0  0  0
    4.1537  -19.3743   21.4517 N   0  0  0  0  0  0  0  0  0  0  0  0
    4.4769  -18.2734   22.3054 C   0  0  0  0  0  0  0  0  0  0  0  0
    5.8895  -17.7743   22.2001 C   0  0  0  0  0  0  0  0  0  0  0  0
    6.1150  -16.6146   23.0936 C   0  0  0  0  0  0  0  0  0  0  0  0
    7.5842  -16.0734   22.9888 C   0  0  2  0  0  0  0  0  0  0  0  0
    7.6454  -15.5705   21.6307 N   0  0  0  0  0  0  0  0  0  0  0  0
    8.5764  -17.0246   23.3829 C   0  0  0  0  0  0  0  0  0  0  0  0
    8.7688  -18.0609   22.6575 O   0  0  0  0  0  0  0  0  0  0  0  0
    2.1972  -18.6612   22.6775 N   0  0  0  0  0  0  0  0  0  0  0  0
    9.3806  -16.8869   24.5455 C   0  0  1  0  0  0  0  0  0  0  0  0
   10.3189  -17.9581   24.8935 C   0  0  0  0  0  0  0  0  0  0  0  0
   11.6888  -17.3426   24.7432 C   0  0  0  0  0  0  0  0  0  0  0  0
   11.9848  -16.7677   23.3986 C   0  0  0  0  0  0  0  0  0  0  0  0
   13.3195  -16.1703   23.2657 O   0  0  0  0  0  0  0  0  0  0  0  0
   13.8248  -15.5467   24.2085 C   0  0  0  0  0  0  0  0  0  0  0  0
   10.0802  -18.4682   26.2651 O   0  0  0  0  0  0  0  0  0  0  0  0
    9.2078  -18.0381   27.0553 O   0  0  0  0  0  0  0  0  0  0  0  0
   14.0711  -16.2747   22.0932 O   0  0  0  0  0  0  0  0  0  0  0  0
  1  5  1  0
  1  2  1  0
  2  3  1  0
  4  3  1  0
  5  4  1  0
  6  7  2  0
  5  6  1  1
  9  8  1  0
 10  9  2  0
 11  9  1  0
 12 13  1  0
 12 11  1  0
 13 14  1  0
 15 14  1  6
 15 16  1  0
 16  6  1  0
 17 15  1  0
 18 17  2  0
 19 17  1  0
 20 25  1  0
 20 19  1  0
 20 21  1  6
 22 21  1  0
 23 27  1  0
 23 22  1  0
 24 23  2  0
 25 28  1  0
 26 25  2  0
M  END
$$$$
