PRE.pdb
     RDKit          3D

 28 28  0  0  1  0  0  0  0  0999 V2000
    7.8580  -14.9516   19.0315 N   0  0  0  0  0  0  0  0  0  0  0  0
    7.7417  -13.9349   17.9470 C   0  0  0  0  0  0  0  0  0  0  0  0
    7.4213  -12.6791   18.7014 C   0  0  0  0  0  0  0  0  0  0  0  0
    7.9095  -12.9363   20.0916 C   0  0  0  0  0  0  0  0  0  0  0  0
    8.7334  -14.2210   19.9614 C   0  0  1  0  0  0  0  0  0  0  0  0
    8.7773  -14.8678   21.2964 C   0  0  0  0  0  0  0  0  0  0  0  0
    9.5156  -14.3825   22.1836 O   0  0  0  0  0  0  0  0  0  0  0  0
    3.8970  -22.0351   23.2688 N   0  0  0  0  0  0  0  0  0  0  0  0
    5.0041  -22.0167   24.1440 C   0  0  0  0  0  0  0  0  0  0  0  0
    5.2907  -23.0485   24.8999 N   0  0  0  0  0  0  0  0  0  0  0  0
    5.8710  -20.9090   24.2706 N   0  0  0  0  0  0  0  0  0  0  0  0
    5.6261  -19.5971   23.7567 C   0  0  0  0  0  0  0  0  0  0  0  0
    6.7679  -18.6313   23.8953 C   0  0  0  0  0  0  0  0  0  0  0  0
    6.8198  -17.6962   22.7477 C   0  0  0  0  0  0  0  0  0  0  0  0
    8.0225  -16.6950   22.8640 C   0  0  2  0  0  0  0  0  0  0  0  0
    7.9974  -16.0127   21.5854 N   0  0  0  0  0  0  0  0  0  0  0  0
    9.2504  -17.3148   23.2545 C   0  0  0  0  0  0  0  0  0  0  0  0
    9.8083  -18.1476   22.4592 O   0  0  0  0  0  0  0  0  0  0  0  0
    6.1585  -22.9950   25.4590 N   0  0  0  0  0  0  0  0  0  0  0  0
    9.9052  -17.0558   24.4880 C   0  0  1  0  0  0  0  0  0  0  0  0
   11.1541  -17.7601   24.7930 C   0  0  0  0  0  0  0  0  0  0  0  0
   12.2438  -16.8976   24.2041 C   0  0  0  0  0  0  0  0  0  0  0  0
   13.6365  -17.3662   24.4624 C   0  0  0  0  0  0  0  0  0  0  0  0
   14.6844  -16.5642   23.8182 O   0  0  0  0  0  0  0  0  0  0  0  0
   15.8706  -16.9130   23.8829 C   0  0  0  0  0  0  0  0  0  0  0  0
   11.3247  -17.9613   26.2521 O   0  0  0  0  0  0  0  0  0  0  0  0
   10.6300  -17.4191   27.1432 O   0  0  0  0  0  0  0  0  0  0  0  0
   14.4007  -15.3923   23.1135 O   0  0  0  0  0  0  0  0  0  0  0  0
  1  5  1  0
  1  2  1  0
  2  3  1  0
  4  3  1  0
  5  4  1  0
  6  7  2  0
  5  6  1  1
  9  8  1  0
 10  9  2  0
 11  9  1  0
 12 13  1  0
 12 11  1  0
 13 14  1  0
 15 14  1  6
 15 16  1  0
 16  6  1  0
 17 15  1  0
 18 17  2  0
 19 17  1  0
 20 25  1  0
 20 19  1  0
 20 21  1  1
 22 21  1  0
 23 27  1  0
 23 22  1  0
 24 23  2  0
 25 28  1  0
 26 25  2  0
M  END
$$$$
