PRE.pdb
     RDKit          3D

 28 28  0  0  1  0  0  0  0  0999 V2000
    7.6776  -14.8499   19.0948 N   0  0  0  0  0  0  0  0  0  0  0  0
    7.2969  -13.9864   17.9404 C   0  0  0  0  0  0  0  0  0  0  0  0
    7.4741  -12.6017   18.4880 C   0  0  0  0  0  0  0  0  0  0  0  0
    8.4196  -12.7653   19.6354 C   0  0  0  0  0  0  0  0  0  0  0  0
    8.9382  -14.1986   19.4844 C   0  0  1  0  0  0  0  0  0  0  0  0
    9.4021  -14.6549   20.8182 C   0  0  0  0  0  0  0  0  0  0  0  0
   10.5769  -14.4051   21.1721 O   0  0  0  0  0  0  0  0  0  0  0  0
    9.0458  -19.4191   26.5520 N   0  0  0  0  0  0  0  0  0  0  0  0
    7.7596  -19.1075   27.0428 C   0  0  0  0  0  0  0  0  0  0  0  0
    7.5319  -18.9918   28.3285 N   0  0  0  0  0  0  0  0  0  0  0  0
    6.6419  -18.9001   26.2049 N   0  0  0  0  0  0  0  0  0  0  0  0
    6.5230  -17.8762   25.2137 C   0  0  0  0  0  0  0  0  0  0  0  0
    7.8234  -17.3408   24.6864 C   0  0  0  0  0  0  0  0  0  0  0  0
    7.5959  -16.3317   23.6263 C   0  0  0  0  0  0  0  0  0  0  0  0
    8.9444  -15.8176   23.0101 C   0  0  2  0  0  0  0  0  0  0  0  0
    8.5423  -15.3567   21.6960 N   0  0  0  0  0  0  0  0  0  0  0  0
   10.0069  -16.7724   23.0753 C   0  0  0  0  0  0  0  0  0  0  0  0
    9.9194  -17.8494   22.3901 O   0  0  0  0  0  0  0  0  0  0  0  0
    6.5628  -18.7766   28.6167 N   0  0  0  0  0  0  0  0  0  0  0  0
   11.1765  -16.5955   23.8613 C   0  0  2  0  0  0  0  0  0  0  0  0
   12.1477  -17.6900   23.9494 C   0  0  0  0  0  0  0  0  0  0  0  0
   13.4988  -17.0216   23.8745 C   0  0  0  0  0  0  0  0  0  0  0  0
   13.7989  -16.3345   22.5845 C   0  0  0  0  0  0  0  0  0  0  0  0
   15.1480  -15.7624   22.4921 O   0  0  0  0  0  0  0  0  0  0  0  0
   15.3640  -14.6010   22.8631 C   0  0  0  0  0  0  0  0  0  0  0  0
   11.9768  -18.4719   25.1977 O   0  0  0  0  0  0  0  0  0  0  0  0
   11.2671  -18.1317   26.1729 O   0  0  0  0  0  0  0  0  0  0  0  0
   16.2332  -16.4854   21.9922 O   0  0  0  0  0  0  0  0  0  0  0  0
  1  5  1  0
  1  2  1  0
  2  3  1  0
  4  3  1  0
  5  4  1  0
  6  7  2  0
  5  6  1  1
  9  8  1  0
 10  9  2  0
 11  9  1  0
 12 13  1  0
 12 11  1  0
 13 14  1  0
 15 14  1  6
 15 16  1  0
 16  6  1  0
 17 15  1  0
 18 17  2  0
 19 17  1  0
 20 25  1  0
 20 19  1  0
 20 21  1  6
 22 21  1  0
 23 27  1  0
 23 22  1  0
 24 23  2  0
 25 28  1  0
 26 25  2  0
M  END
$$$$
