PRE.pdb
     RDKit          3D

 28 28  0  0  1  0  0  0  0  0999 V2000
    8.5272  -14.6589   18.6027 N   0  0  0  0  0  0  0  0  0  0  0  0
    8.3677  -13.6584   17.5087 C   0  0  0  0  0  0  0  0  0  0  0  0
    7.3449  -12.7147   18.0675 C   0  0  0  0  0  0  0  0  0  0  0  0
    7.4192  -12.9081   19.5488 C   0  0  0  0  0  0  0  0  0  0  0  0
    8.6840  -13.7486   19.7481 C   0  0  1  0  0  0  0  0  0  0  0  0
    8.5520  -14.4656   21.0408 C   0  0  0  0  0  0  0  0  0  0  0  0
    8.5158  -13.8035   22.1029 O   0  0  0  0  0  0  0  0  0  0  0  0
    4.7236  -21.1481   23.6104 N   0  0  0  0  0  0  0  0  0  0  0  0
    5.9315  -21.8285   23.8750 C   0  0  0  0  0  0  0  0  0  0  0  0
    5.9504  -22.9288   24.5872 N   0  0  0  0  0  0  0  0  0  0  0  0
    7.1869  -21.3867   23.4028 N   0  0  0  0  0  0  0  0  0  0  0  0
    7.3950  -20.3909   22.3977 C   0  0  0  0  0  0  0  0  0  0  0  0
    7.7028  -19.0144   22.9135 C   0  0  0  0  0  0  0  0  0  0  0  0
    7.8814  -18.0535   21.8004 C   0  0  0  0  0  0  0  0  0  0  0  0
    8.2448  -16.6183   22.3203 C   0  0  2  0  0  0  0  0  0  0  0  0
    8.4586  -15.8766   21.0935 N   0  0  0  0  0  0  0  0  0  0  0  0
    9.2980  -16.6070   23.2874 C   0  0  0  0  0  0  0  0  0  0  0  0
   10.5097  -16.7117   22.8900 O   0  0  0  0  0  0  0  0  0  0  0  0
    6.8651  -23.3949   24.7080 N   0  0  0  0  0  0  0  0  0  0  0  0
    9.0815  -16.4786   24.6852 C   0  0  2  0  0  0  0  0  0  0  0  0
   10.2212  -16.1826   25.5583 C   0  0  0  0  0  0  0  0  0  0  0  0
    9.6201  -15.5280   26.7783 C   0  0  0  0  0  0  0  0  0  0  0  0
   10.5954  -15.1408   27.8390 C   0  0  0  0  0  0  0  0  0  0  0  0
   10.0083  -14.4386   28.9871 O   0  0  0  0  0  0  0  0  0  0  0  0
    9.9955  -14.9672   30.1066 C   0  0  0  0  0  0  0  0  0  0  0  0
   10.9820  -17.4093   25.8971 O   0  0  0  0  0  0  0  0  0  0  0  0
   10.5033  -18.5664   25.9485 O   0  0  0  0  0  0  0  0  0  0  0  0
    9.4474  -13.1644   28.8761 O   0  0  0  0  0  0  0  0  0  0  0  0
  1  5  1  0
  1  2  1  0
  2  3  1  0
  4  3  1  0
  5  4  1  0
  6  7  2  0
  5  6  1  1
  9  8  1  0
 10  9  2  0
 11  9  1  0
 12 13  1  0
 12 11  1  0
 13 14  1  0
 15 14  1  6
 15 16  1  0
 16  6  1  0
 17 15  1  0
 18 17  2  0
 19 17  1  0
 20 25  1  0
 20 19  1  0
 20 21  1  1
 22 21  1  0
 23 27  1  0
 23 22  1  0
 24 23  2  0
 25 28  1  0
 26 25  2  0
M  END
$$$$
