PRE.pdb
     RDKit          3D

 28 28  0  0  1  0  0  0  0  0999 V2000
    8.1802  -14.9669   19.0536 N   0  0  0  0  0  0  0  0  0  0  0  0
    8.2615  -13.9683   17.9492 C   0  0  0  0  0  0  0  0  0  0  0  0
    7.4708  -12.8129   18.4866 C   0  0  0  0  0  0  0  0  0  0  0  0
    7.4835  -13.0016   19.9703 C   0  0  0  0  0  0  0  0  0  0  0  0
    8.5250  -14.1025   20.1932 C   0  0  1  0  0  0  0  0  0  0  0  0
    8.2211  -14.7571   21.4900 C   0  0  0  0  0  0  0  0  0  0  0  0
    8.4825  -14.1506   22.5538 O   0  0  0  0  0  0  0  0  0  0  0  0
    4.9990  -23.1434   22.4868 N   0  0  0  0  0  0  0  0  0  0  0  0
    4.9595  -22.5108   23.7478 C   0  0  0  0  0  0  0  0  0  0  0  0
    4.5602  -23.1529   24.8187 N   0  0  0  0  0  0  0  0  0  0  0  0
    5.3394  -21.1658   23.9501 N   0  0  0  0  0  0  0  0  0  0  0  0
    5.7449  -20.2524   22.9272 C   0  0  0  0  0  0  0  0  0  0  0  0
    6.2190  -18.9133   23.4150 C   0  0  0  0  0  0  0  0  0  0  0  0
    6.6319  -18.0481   22.2859 C   0  0  0  0  0  0  0  0  0  0  0  0
    7.2727  -16.7049   22.7832 C   0  0  2  0  0  0  0  0  0  0  0  0
    7.6367  -16.0447   21.5452 N   0  0  0  0  0  0  0  0  0  0  0  0
    8.3021  -16.8860   23.7591 C   0  0  0  0  0  0  0  0  0  0  0  0
    9.4603  -17.2739   23.3781 O   0  0  0  0  0  0  0  0  0  0  0  0
    4.5194  -22.6157   25.7009 N   0  0  0  0  0  0  0  0  0  0  0  0
    8.1194  -16.6527   25.1481 C   0  0  2  0  0  0  0  0  0  0  0  0
    9.2910  -16.6439   26.0290 C   0  0  0  0  0  0  0  0  0  0  0  0
    9.2210  -15.3255   26.7605 C   0  0  0  0  0  0  0  0  0  0  0  0
   10.2971  -15.0986   27.7688 C   0  0  0  0  0  0  0  0  0  0  0  0
   10.2100  -13.8188   28.4834 O   0  0  0  0  0  0  0  0  0  0  0  0
    9.2579  -13.0526   28.2847 C   0  0  0  0  0  0  0  0  0  0  0  0
    9.2853  -17.8010   26.9561 O   0  0  0  0  0  0  0  0  0  0  0  0
    8.2861  -18.5085   27.2238 O   0  0  0  0  0  0  0  0  0  0  0  0
   11.1765  -13.4108   29.4052 O   0  0  0  0  0  0  0  0  0  0  0  0
  1  5  1  0
  1  2  1  0
  2  3  1  0
  4  3  1  0
  5  4  1  0
  6  7  2  0
  5  6  1  1
  9  8  1  0
 10  9  2  0
 11  9  1  0
 12 13  1  0
 12 11  1  0
 13 14  1  0
 15 14  1  6
 15 16  1  0
 16  6  1  0
 17 15  1  0
 18 17  2  0
 19 17  1  0
 20 25  1  0
 20 19  1  0
 20 21  1  6
 22 21  1  0
 23 27  1  0
 23 22  1  0
 24 23  2  0
 25 28  1  0
 26 25  2  0
M  END
$$$$
