PRE.pdb
     RDKit          3D

 28 28  0  0  1  0  0  0  0  0999 V2000
    8.8036  -14.3424   18.5035 N   0  0  0  0  0  0  0  0  0  0  0  0
    8.3022  -13.3055   17.5566 C   0  0  0  0  0  0  0  0  0  0  0  0
    7.0971  -12.7627   18.2653 C   0  0  0  0  0  0  0  0  0  0  0  0
    7.3190  -13.1014   19.7052 C   0  0  0  0  0  0  0  0  0  0  0  0
    8.7772  -13.5675   19.7541 C   0  0  1  0  0  0  0  0  0  0  0  0
    8.9338  -14.4405   20.9439 C   0  0  0  0  0  0  0  0  0  0  0  0
    8.6974  -13.9694   22.0797 O   0  0  0  0  0  0  0  0  0  0  0  0
    9.4271  -24.0184   22.6826 N   0  0  0  0  0  0  0  0  0  0  0  0
    9.9715  -22.9410   21.9513 C   0  0  0  0  0  0  0  0  0  0  0  0
   10.6065  -23.1377   20.8215 N   0  0  0  0  0  0  0  0  0  0  0  0
    9.8763  -21.5958   22.3705 N   0  0  0  0  0  0  0  0  0  0  0  0
   10.2661  -20.4546   21.6019 C   0  0  0  0  0  0  0  0  0  0  0  0
   10.0455  -19.1271   22.2689 C   0  0  0  0  0  0  0  0  0  0  0  0
    9.8160  -18.0580   21.2697 C   0  0  0  0  0  0  0  0  0  0  0  0
    9.5646  -16.6666   21.9502 C   0  0  2  0  0  0  0  0  0  0  0  0
    9.3355  -15.7915   20.8176 N   0  0  0  0  0  0  0  0  0  0  0  0
   10.5848  -16.2879   22.8778 C   0  0  0  0  0  0  0  0  0  0  0  0
   11.6758  -15.7881   22.4340 O   0  0  0  0  0  0  0  0  0  0  0  0
   11.0045  -22.3055   20.3549 N   0  0  0  0  0  0  0  0  0  0  0  0
   10.4596  -16.4279   24.2856 C   0  0  2  0  0  0  0  0  0  0  0  0
   11.5622  -15.9886   25.1459 C   0  0  0  0  0  0  0  0  0  0  0  0
   10.9383  -15.7754   26.5037 C   0  0  0  0  0  0  0  0  0  0  0  0
   10.8722  -14.3559   26.9584 C   0  0  0  0  0  0  0  0  0  0  0  0
   10.2166  -14.1563   28.2570 O   0  0  0  0  0  0  0  0  0  0  0  0
   10.0644  -13.0160   28.7146 C   0  0  0  0  0  0  0  0  0  0  0  0
   12.6574  -16.9875   25.1822 O   0  0  0  0  0  0  0  0  0  0  0  0
   12.5398  -18.2007   24.8910 O   0  0  0  0  0  0  0  0  0  0  0  0
    9.7404  -15.2214   29.0248 O   0  0  0  0  0  0  0  0  0  0  0  0
  1  5  1  0
  1  2  1  0
  2  3  1  0
  4  3  1  0
  5  4  1  0
  6  7  2  0
  5  6  1  1
  9  8  1  0
 10  9  2  0
 11  9  1  0
 12 13  1  0
 12 11  1  0
 13 14  1  0
 15 14  1  6
 15 16  1  0
 16  6  1  0
 17 15  1  0
 18 17  2  0
 19 17  1  0
 20 25  1  0
 20 19  1  0
 20 21  1  6
 22 21  1  0
 23 27  1  0
 23 22  1  0
 24 23  2  0
 25 28  1  0
 26 25  2  0
M  END
$$$$
