PRE.pdb
     RDKit          3D

 28 28  0  0  1  0  0  0  0  0999 V2000
    7.9836  -15.4932   19.0427 N   0  0  0  0  0  0  0  0  0  0  0  0
    8.0542  -14.7545   17.7494 C   0  0  0  0  0  0  0  0  0  0  0  0
    7.2748  -13.5059   18.0365 C   0  0  0  0  0  0  0  0  0  0  0  0
    7.3061  -13.3729   19.5260 C   0  0  0  0  0  0  0  0  0  0  0  0
    8.3463  -14.4072   19.9669 C   0  0  1  0  0  0  0  0  0  0  0  0
    8.0569  -14.7673   21.3772 C   0  0  0  0  0  0  0  0  0  0  0  0
    8.3136  -13.9401   22.2814 O   0  0  0  0  0  0  0  0  0  0  0  0
    6.5999  -22.9392   25.3688 N   0  0  0  0  0  0  0  0  0  0  0  0
    6.2373  -21.6707   25.8701 C   0  0  0  0  0  0  0  0  0  0  0  0
    6.3750  -21.3764   27.1400 N   0  0  0  0  0  0  0  0  0  0  0  0
    5.7098  -20.6413   25.0598 N   0  0  0  0  0  0  0  0  0  0  0  0
    6.3274  -20.1066   23.8860 C   0  0  0  0  0  0  0  0  0  0  0  0
    6.9451  -18.7474   24.0496 C   0  0  0  0  0  0  0  0  0  0  0  0
    6.6307  -17.8744   22.8950 C   0  0  0  0  0  0  0  0  0  0  0  0
    7.2158  -16.4300   23.0783 C   0  0  2  0  0  0  0  0  0  0  0  0
    7.4913  -16.0195   21.7158 N   0  0  0  0  0  0  0  0  0  0  0  0
    8.2929  -16.3612   24.0163 C   0  0  0  0  0  0  0  0  0  0  0  0
    9.4561  -16.7569   23.6592 O   0  0  0  0  0  0  0  0  0  0  0  0
    6.1427  -20.4108   27.4266 N   0  0  0  0  0  0  0  0  0  0  0  0
    8.1528  -15.8670   25.3405 C   0  0  2  0  0  0  0  0  0  0  0  0
    9.3556  -15.6405   26.1471 C   0  0  0  0  0  0  0  0  0  0  0  0
    9.0494  -14.4130   26.9704 C   0  0  0  0  0  0  0  0  0  0  0  0
    8.3137  -13.3317   26.2523 C   0  0  0  0  0  0  0  0  0  0  0  0
    7.9936  -12.1567   27.0725 O   0  0  0  0  0  0  0  0  0  0  0  0
    8.3311  -12.1113   28.2629 C   0  0  0  0  0  0  0  0  0  0  0  0
    9.6761  -16.8167   26.9912 O   0  0  0  0  0  0  0  0  0  0  0  0
    8.9466  -17.8258   27.1326 O   0  0  0  0  0  0  0  0  0  0  0  0
    7.3073  -11.0532   26.5608 O   0  0  0  0  0  0  0  0  0  0  0  0
  1  5  1  0
  1  2  1  0
  2  3  1  0
  4  3  1  0
  5  4  1  0
  6  7  2  0
  5  6  1  1
  9  8  1  0
 10  9  2  0
 11  9  1  0
 12 13  1  0
 12 11  1  0
 13 14  1  0
 15 14  1  6
 15 16  1  0
 16  6  1  0
 17 15  1  0
 18 17  2  0
 19 17  1  0
 20 25  1  0
 20 19  1  0
 20 21  1  6
 22 21  1  0
 23 27  1  0
 23 22  1  0
 24 23  2  0
 25 28  1  0
 26 25  2  0
M  END
$$$$
