PRE.pdb
     RDKit          3D

 28 28  0  0  1  0  0  0  0  0999 V2000
    8.3976  -14.0255   18.2358 N   0  0  0  0  0  0  0  0  0  0  0  0
    7.6496  -12.8351   17.7392 C   0  0  0  0  0  0  0  0  0  0  0  0
    6.7174  -12.5308   18.8738 C   0  0  0  0  0  0  0  0  0  0  0  0
    7.3542  -13.1659   20.0690 C   0  0  0  0  0  0  0  0  0  0  0  0
    8.7548  -13.5484   19.5811 C   0  0  1  0  0  0  0  0  0  0  0  0
    9.2480  -14.6523   20.4416 C   0  0  0  0  0  0  0  0  0  0  0  0
    9.4098  -14.4439   21.6656 O   0  0  0  0  0  0  0  0  0  0  0  0
   12.7575  -20.3444   17.0325 N   0  0  0  0  0  0  0  0  0  0  0  0
   12.9745  -21.0514   18.2346 C   0  0  0  0  0  0  0  0  0  0  0  0
   14.1332  -21.6044   18.4988 N   0  0  0  0  0  0  0  0  0  0  0  0
   11.9815  -21.2144   19.2255 N   0  0  0  0  0  0  0  0  0  0  0  0
   10.7118  -20.5568   19.2479 C   0  0  0  0  0  0  0  0  0  0  0  0
   10.5717  -19.4690   20.2739 C   0  0  0  0  0  0  0  0  0  0  0  0
   10.1624  -18.1912   19.6463 C   0  0  0  0  0  0  0  0  0  0  0  0
   10.0140  -17.0419   20.7043 C   0  0  2  0  0  0  0  0  0  0  0  0
    9.5296  -15.9322   19.9076 N   0  0  0  0  0  0  0  0  0  0  0  0
   11.1913  -16.8253   21.4864 C   0  0  0  0  0  0  0  0  0  0  0  0
   12.1515  -16.1406   20.9901 O   0  0  0  0  0  0  0  0  0  0  0  0
   14.1993  -22.1673   19.3632 N   0  0  0  0  0  0  0  0  0  0  0  0
   11.3634  -17.3254   22.8045 C   0  0  2  0  0  0  0  0  0  0  0  0
   12.5327  -16.9012   23.5802 C   0  0  0  0  0  0  0  0  0  0  0  0
   12.1618  -17.1596   25.0203 C   0  0  0  0  0  0  0  0  0  0  0  0
   12.1409  -18.5955   25.4249 C   0  0  0  0  0  0  0  0  0  0  0  0
   11.8930  -18.8281   26.8534 O   0  0  0  0  0  0  0  0  0  0  0  0
   12.8369  -18.8911   27.6521 C   0  0  0  0  0  0  0  0  0  0  0  0
   13.7534  -17.6384   23.1742 O   0  0  0  0  0  0  0  0  0  0  0  0
   13.7701  -18.6930   22.4973 O   0  0  0  0  0  0  0  0  0  0  0  0
   10.6059  -18.9856   27.3720 O   0  0  0  0  0  0  0  0  0  0  0  0
  1  5  1  0
  1  2  1  0
  2  3  1  0
  4  3  1  0
  5  4  1  0
  6  7  2  0
  5  6  1  1
  9  8  1  0
 10  9  2  0
 11  9  1  0
 12 13  1  0
 12 11  1  0
 13 14  1  0
 15 14  1  6
 15 16  1  0
 16  6  1  0
 17 15  1  0
 18 17  2  0
 19 17  1  0
 20 25  1  0
 20 19  1  0
 20 21  1  1
 22 21  1  0
 23 27  1  0
 23 22  1  0
 24 23  2  0
 25 28  1  0
 26 25  2  0
M  END
$$$$
