KWG.pdb
     RDKit          3D

 28 29  0  0  1  0  0  0  0  0999 V2000
    8.0167  -16.6071   21.1351 N   0  0  0  0  0  0  0  0  0  0  0  0
    8.9343  -15.5276   21.1119 C   0  0  1  0  0  0  0  0  0  0  0  0
    8.3784  -14.2632   20.5451 C   0  0  0  0  0  0  0  0  0  0  0  0
    7.8599  -14.4219   19.1761 C   0  0  0  0  0  0  0  0  0  0  0  0
    8.4902  -13.5113   18.1776 C   0  0  0  0  0  0  0  0  0  0  0  0
    7.9027  -13.7905   16.8126 C   0  0  0  0  0  0  0  0  0  0  0  0
    8.5744  -13.0007   15.7774 N   0  0  0  0  0  0  0  0  0  0  0  0
    9.4647  -15.1903   22.4662 C   0  0  0  0  0  0  0  0  0  0  0  0
   10.1703  -14.1715   22.5837 O   0  0  0  0  0  0  0  0  0  0  0  0
    9.1540  -16.0252   23.5527 N   0  0  0  0  0  0  0  0  0  0  0  0
    9.6777  -15.8390   24.8866 C   0  0  1  0  0  0  0  0  0  0  0  0
    8.6540  -16.0357   25.9315 C   0  0  0  0  0  0  0  0  0  0  0  0
    7.4536  -15.1990   25.8475 C   0  0  0  0  0  0  0  0  0  0  0  0
    6.1534  -15.4548   25.5205 C   0  0  0  0  0  0  0  0  0  0  0  0
    5.3830  -14.3437   25.6005 N   0  0  0  0  0  0  0  0  0  0  0  0
    6.2038  -13.3483   25.9870 C   0  0  0  0  0  0  0  0  0  0  0  0
    5.9213  -12.0051   26.2163 C   0  0  0  0  0  0  0  0  0  0  0  0
    6.9383  -11.1659   26.6071 C   0  0  0  0  0  0  0  0  0  0  0  0
    8.2315  -11.6166   26.7786 C   0  0  0  0  0  0  0  0  0  0  0  0
    8.4818  -12.9551   26.5438 C   0  0  0  0  0  0  0  0  0  0  0  0
    7.4914  -13.8288   26.1513 C   0  0  0  0  0  0  0  0  0  0  0  0
   10.9240  -16.6257   25.0965 C   0  0  0  0  0  0  0  0  0  0  0  0
   11.5755  -16.4434   26.1689 O   0  0  0  0  0  0  0  0  0  0  0  0
   11.3821  -17.5568   24.1320 N   0  0  0  0  0  0  0  0  0  0  0  0
   12.6539  -18.2176   24.3436 C   0  0  0  0  0  0  0  0  0  0  0  0
   12.3815  -19.5168   25.0188 C   0  0  0  0  0  0  0  0  0  0  0  0
   11.3300  -19.7470   25.6525 O   0  0  0  0  0  0  0  0  0  0  0  0
   13.3147  -20.5507   24.9671 O   0  0  0  0  0  0  0  0  0  0  0  0
  2  1  1  1
  2  3  1  0
  3  4  1  0
  5  6  1  0
  5  4  1  0
  7  6  1  0
  8  9  2  0
  8  2  1  0
 10  8  1  0
 11 10  1  0
 11 12  1  1
 12 13  1  0
 13 21  1  0
 13 14  2  0
 14 15  1  0
 16 15  1  0
 16 17  2  0
 18 17  1  0
 19 18  2  0
 20 21  2  0
 20 19  1  0
 21 16  1  0
 22 24  1  0
 22 11  1  0
 23 22  2  0
 25 26  1  0
 25 24  1  0
 26 28  1  0
 27 26  2  0
M  END
$$$$
