KWG.pdb
     RDKit          3D

 28 29  0  0  1  0  0  0  0  0999 V2000
    7.3848  -16.8659   21.3278 N   0  0  0  0  0  0  0  0  0  0  0  0
    8.0436  -15.6333   21.0944 C   0  0  1  0  0  0  0  0  0  0  0  0
    7.1266  -14.4994   20.7746 C   0  0  0  0  0  0  0  0  0  0  0  0
    7.6397  -13.6237   19.7079 C   0  0  0  0  0  0  0  0  0  0  0  0
    7.5337  -14.2063   18.3393 C   0  0  0  0  0  0  0  0  0  0  0  0
    8.2091  -13.2800   17.3532 C   0  0  0  0  0  0  0  0  0  0  0  0
    8.0615  -13.7719   15.9810 N   0  0  0  0  0  0  0  0  0  0  0  0
    8.8762  -15.1940   22.2533 C   0  0  0  0  0  0  0  0  0  0  0  0
    9.5086  -14.1267   22.1512 O   0  0  0  0  0  0  0  0  0  0  0  0
    8.9189  -15.9915   23.4093 N   0  0  0  0  0  0  0  0  0  0  0  0
    9.7082  -15.6743   24.5775 C   0  0  1  0  0  0  0  0  0  0  0  0
    8.9548  -15.8431   25.8353 C   0  0  0  0  0  0  0  0  0  0  0  0
    7.6036  -15.2772   25.8782 C   0  0  0  0  0  0  0  0  0  0  0  0
    6.3572  -15.8142   25.7337 C   0  0  0  0  0  0  0  0  0  0  0  0
    5.3847  -14.8818   25.8727 N   0  0  0  0  0  0  0  0  0  0  0  0
    6.0170  -13.7168   26.1115 C   0  0  0  0  0  0  0  0  0  0  0  0
    5.4866  -12.4483   26.3260 C   0  0  0  0  0  0  0  0  0  0  0  0
    6.3427  -11.3954   26.5492 C   0  0  0  0  0  0  0  0  0  0  0  0
    7.7130  -11.5597   26.5667 C   0  0  0  0  0  0  0  0  0  0  0  0
    8.2104  -12.8306   26.3507 C   0  0  0  0  0  0  0  0  0  0  0  0
    7.3872  -13.9119   26.1236 C   0  0  0  0  0  0  0  0  0  0  0  0
   11.0216  -16.3749   24.5531 C   0  0  0  0  0  0  0  0  0  0  0  0
   11.8826  -16.0667   25.4314 O   0  0  0  0  0  0  0  0  0  0  0  0
   11.3155  -17.3618   23.5802 N   0  0  0  0  0  0  0  0  0  0  0  0
   12.6178  -17.9963   23.5958 C   0  0  0  0  0  0  0  0  0  0  0  0
   12.6097  -19.0185   24.6788 C   0  0  0  0  0  0  0  0  0  0  0  0
   11.6250  -19.2148   25.4219 O   0  0  0  0  0  0  0  0  0  0  0  0
   13.7303  -19.8146   24.9091 O   0  0  0  0  0  0  0  0  0  0  0  0
  2  1  1  1
  2  3  1  0
  3  4  1  0
  5  6  1  0
  5  4  1  0
  7  6  1  0
  8  9  2  0
  8  2  1  0
 10  8  1  0
 11 10  1  0
 11 12  1  1
 12 13  1  0
 13 21  1  0
 13 14  2  0
 14 15  1  0
 16 15  1  0
 16 17  2  0
 18 17  1  0
 19 18  2  0
 20 21  2  0
 20 19  1  0
 21 16  1  0
 22 24  1  0
 22 11  1  0
 23 22  2  0
 25 26  1  0
 25 24  1  0
 26 28  1  0
 27 26  2  0
M  END
$$$$
