KWG.pdb
     RDKit          3D

 28 29  0  0  1  0  0  0  0  0999 V2000
    7.7363  -16.5247   21.2984 N   0  0  0  0  0  0  0  0  0  0  0  0
    8.6374  -15.4330   21.2358 C   0  0  1  0  0  0  0  0  0  0  0  0
    8.0280  -14.1633   20.7401 C   0  0  0  0  0  0  0  0  0  0  0  0
    7.4574  -14.2850   19.3882 C   0  0  0  0  0  0  0  0  0  0  0  0
    8.2518  -13.5993   18.3288 C   0  0  0  0  0  0  0  0  0  0  0  0
    7.5575  -13.7758   16.9971 C   0  0  0  0  0  0  0  0  0  0  0  0
    8.3246  -13.1525   15.9155 N   0  0  0  0  0  0  0  0  0  0  0  0
    9.2592  -15.1198   22.5567 C   0  0  0  0  0  0  0  0  0  0  0  0
    9.8435  -14.0283   22.6868 O   0  0  0  0  0  0  0  0  0  0  0  0
    9.1660  -16.0575   23.5988 N   0  0  0  0  0  0  0  0  0  0  0  0
    9.8105  -15.9008   24.8827 C   0  0  1  0  0  0  0  0  0  0  0  0
    8.8646  -16.0105   26.0104 C   0  0  0  0  0  0  0  0  0  0  0  0
    7.5617  -15.3597   25.8468 C   0  0  0  0  0  0  0  0  0  0  0  0
    6.3199  -15.8182   25.5143 C   0  0  0  0  0  0  0  0  0  0  0  0
    5.3994  -14.8247   25.5031 N   0  0  0  0  0  0  0  0  0  0  0  0
    6.0614  -13.6997   25.8350 C   0  0  0  0  0  0  0  0  0  0  0  0
    5.5871  -12.3980   25.9657 C   0  0  0  0  0  0  0  0  0  0  0  0
    6.4651  -11.3993   26.3162 C   0  0  0  0  0  0  0  0  0  0  0  0
    7.8034  -11.6498   26.5423 C   0  0  0  0  0  0  0  0  0  0  0  0
    8.2453  -12.9518   26.4051 C   0  0  0  0  0  0  0  0  0  0  0  0
    7.3985  -13.9810   26.0557 C   0  0  0  0  0  0  0  0  0  0  0  0
   11.0071  -16.7784   25.0013 C   0  0  0  0  0  0  0  0  0  0  0  0
   11.6177  -16.8140   26.1120 O   0  0  0  0  0  0  0  0  0  0  0  0
   11.4632  -17.5587   23.9104 N   0  0  0  0  0  0  0  0  0  0  0  0
   12.6269  -18.4028   24.0896 C   0  0  0  0  0  0  0  0  0  0  0  0
   13.7963  -17.6911   23.5031 C   0  0  0  0  0  0  0  0  0  0  0  0
   13.7804  -16.4747   23.2196 O   0  0  0  0  0  0  0  0  0  0  0  0
   14.9827  -18.3745   23.2421 O   0  0  0  0  0  0  0  0  0  0  0  0
  2  1  1  1
  2  3  1  0
  3  4  1  0
  5  6  1  0
  5  4  1  0
  7  6  1  0
  8  9  2  0
  8  2  1  0
 10  8  1  0
 11 10  1  0
 11 12  1  1
 12 13  1  0
 13 21  1  0
 13 14  2  0
 14 15  1  0
 16 15  1  0
 16 17  2  0
 18 17  1  0
 19 18  2  0
 20 21  2  0
 20 19  1  0
 21 16  1  0
 22 24  1  0
 22 11  1  0
 23 22  2  0
 25 26  1  0
 25 24  1  0
 26 28  1  0
 27 26  2  0
M  END
$$$$
