KWG.pdb
     RDKit          3D

 28 29  0  0  1  0  0  0  0  0999 V2000
    7.9356  -16.9248   21.3134 N   0  0  0  0  0  0  0  0  0  0  0  0
    8.6941  -15.7353   21.1810 C   0  0  1  0  0  0  0  0  0  0  0  0
    7.9017  -14.5493   20.7399 C   0  0  0  0  0  0  0  0  0  0  0  0
    8.4475  -13.9053   19.5334 C   0  0  0  0  0  0  0  0  0  0  0  0
    7.4283  -13.6177   18.4837 C   0  0  0  0  0  0  0  0  0  0  0  0
    8.1073  -12.9674   17.2993 C   0  0  0  0  0  0  0  0  0  0  0  0
    7.1874  -12.8448   16.1656 N   0  0  0  0  0  0  0  0  0  0  0  0
    9.3794  -15.3423   22.4480 C   0  0  0  0  0  0  0  0  0  0  0  0
   10.0761  -14.3108   22.4435 O   0  0  0  0  0  0  0  0  0  0  0  0
    9.2178  -16.1416   23.5923 N   0  0  0  0  0  0  0  0  0  0  0  0
    9.7987  -15.8323   24.8788 C   0  0  1  0  0  0  0  0  0  0  0  0
    8.8442  -16.0098   25.9906 C   0  0  0  0  0  0  0  0  0  0  0  0
    7.5805  -15.2730   25.9016 C   0  0  0  0  0  0  0  0  0  0  0  0
    6.2897  -15.6501   25.6685 C   0  0  0  0  0  0  0  0  0  0  0  0
    5.4409  -14.5951   25.6962 N   0  0  0  0  0  0  0  0  0  0  0  0
    6.2003  -13.5126   25.9521 C   0  0  0  0  0  0  0  0  0  0  0  0
    5.8266  -12.1785   26.0823 C   0  0  0  0  0  0  0  0  0  0  0  0
    6.7936  -11.2366   26.3451 C   0  0  0  0  0  0  0  0  0  0  0  0
    8.1244  -11.5755   26.4836 C   0  0  0  0  0  0  0  0  0  0  0  0
    8.4652  -12.9078   26.3493 C   0  0  0  0  0  0  0  0  0  0  0  0
    7.5273  -13.8822   26.0862 C   0  0  0  0  0  0  0  0  0  0  0  0
   11.0981  -16.5327   25.0714 C   0  0  0  0  0  0  0  0  0  0  0  0
   11.6413  -16.4860   26.2161 O   0  0  0  0  0  0  0  0  0  0  0  0
   11.7230  -17.2366   24.0126 N   0  0  0  0  0  0  0  0  0  0  0  0
   12.9957  -17.8846   24.2558 C   0  0  0  0  0  0  0  0  0  0  0  0
   13.3627  -18.6370   23.0241 C   0  0  0  0  0  0  0  0  0  0  0  0
   13.3118  -19.8828   22.9473 O   0  0  0  0  0  0  0  0  0  0  0  0
   13.7878  -17.9610   21.8819 O   0  0  0  0  0  0  0  0  0  0  0  0
  2  1  1  1
  2  3  1  0
  3  4  1  0
  5  6  1  0
  5  4  1  0
  7  6  1  0
  8  9  2  0
  8  2  1  0
 10  8  1  0
 11 10  1  0
 11 12  1  1
 12 13  1  0
 13 21  1  0
 13 14  2  0
 14 15  1  0
 16 15  1  0
 16 17  2  0
 18 17  1  0
 19 18  2  0
 20 21  2  0
 20 19  1  0
 21 16  1  0
 22 24  1  0
 22 11  1  0
 23 22  2  0
 25 26  1  0
 25 24  1  0
 26 28  1  0
 27 26  2  0
M  END
$$$$
