KWG.pdb
     RDKit          3D

 28 29  0  0  1  0  0  0  0  0999 V2000
    7.4197  -16.5025   21.4159 N   0  0  0  0  0  0  0  0  0  0  0  0
    8.5135  -15.6358   21.1705 C   0  0  1  0  0  0  0  0  0  0  0  0
    8.1535  -14.3888   20.4325 C   0  0  0  0  0  0  0  0  0  0  0  0
    7.3662  -14.6444   19.2147 C   0  0  0  0  0  0  0  0  0  0  0  0
    7.5836  -13.6454   18.1293 C   0  0  0  0  0  0  0  0  0  0  0  0
    8.2068  -14.3368   16.9376 C   0  0  0  0  0  0  0  0  0  0  0  0
    8.4563  -13.3889   15.8485 N   0  0  0  0  0  0  0  0  0  0  0  0
    9.2028  -15.2054   22.4231 C   0  0  0  0  0  0  0  0  0  0  0  0
    9.8811  -14.1622   22.3916 O   0  0  0  0  0  0  0  0  0  0  0  0
    9.0653  -15.9841   23.5845 N   0  0  0  0  0  0  0  0  0  0  0  0
    9.8341  -15.7744   24.7900 C   0  0  1  0  0  0  0  0  0  0  0  0
    9.0156  -15.8878   26.0129 C   0  0  0  0  0  0  0  0  0  0  0  0
    7.6857  -15.2728   25.9782 C   0  0  0  0  0  0  0  0  0  0  0  0
    6.4399  -15.7487   25.6875 C   0  0  0  0  0  0  0  0  0  0  0  0
    5.4908  -14.7900   25.8074 N   0  0  0  0  0  0  0  0  0  0  0  0
    6.1378  -13.6700   26.1832 C   0  0  0  0  0  0  0  0  0  0  0  0
    5.6333  -12.3991   26.4408 C   0  0  0  0  0  0  0  0  0  0  0  0
    6.5008  -11.3988   26.8125 C   0  0  0  0  0  0  0  0  0  0  0  0
    7.8577  -11.6182   26.9376 C   0  0  0  0  0  0  0  0  0  0  0  0
    8.3295  -12.8902   26.6755 C   0  0  0  0  0  0  0  0  0  0  0  0
    7.4941  -13.9199   26.3007 C   0  0  0  0  0  0  0  0  0  0  0  0
   11.0672  -16.6085   24.8007 C   0  0  0  0  0  0  0  0  0  0  0  0
   11.2649  -17.3750   25.7912 O   0  0  0  0  0  0  0  0  0  0  0  0
   12.0040  -16.5574   23.7392 N   0  0  0  0  0  0  0  0  0  0  0  0
   13.3813  -16.2189   24.0346 C   0  0  0  0  0  0  0  0  0  0  0  0
   14.1077  -17.4876   24.3188 C   0  0  0  0  0  0  0  0  0  0  0  0
   13.6786  -18.3551   25.1086 O   0  0  0  0  0  0  0  0  0  0  0  0
   15.3251  -17.7606   23.6976 O   0  0  0  0  0  0  0  0  0  0  0  0
  2  1  1  1
  2  3  1  0
  3  4  1  0
  5  6  1  0
  5  4  1  0
  7  6  1  0
  8  9  2  0
  8  2  1  0
 10  8  1  0
 11 10  1  0
 11 12  1  1
 12 13  1  0
 13 21  1  0
 13 14  2  0
 14 15  1  0
 16 15  1  0
 16 17  2  0
 18 17  1  0
 19 18  2  0
 20 21  2  0
 20 19  1  0
 21 16  1  0
 22 24  1  0
 22 11  1  0
 23 22  2  0
 25 26  1  0
 25 24  1  0
 26 28  1  0
 27 26  2  0
M  END
$$$$
