KWG.pdb
     RDKit          3D

 28 29  0  0  1  0  0  0  0  0999 V2000
    5.9304  -16.8524   20.6827 N   0  0  0  0  0  0  0  0  0  0  0  0
    6.9800  -17.4759   21.4020 C   0  0  1  0  0  0  0  0  0  0  0  0
    7.8589  -18.3494   20.5692 C   0  0  0  0  0  0  0  0  0  0  0  0
    8.2529  -17.7263   19.2946 C   0  0  0  0  0  0  0  0  0  0  0  0
    9.1275  -18.5833   18.4436 C   0  0  0  0  0  0  0  0  0  0  0  0
    9.4789  -17.8310   17.1797 C   0  0  0  0  0  0  0  0  0  0  0  0
   10.4047  -18.6027   16.3465 N   0  0  0  0  0  0  0  0  0  0  0  0
    7.8766  -16.4952   22.0830 C   0  0  0  0  0  0  0  0  0  0  0  0
    8.0152  -15.3703   21.5683 O   0  0  0  0  0  0  0  0  0  0  0  0
    8.5283  -16.8700   23.2700 N   0  0  0  0  0  0  0  0  0  0  0  0
    9.4065  -15.9980   24.0161 C   0  0  1  0  0  0  0  0  0  0  0  0
    9.0064  -15.8637   25.4304 C   0  0  0  0  0  0  0  0  0  0  0  0
    7.7151  -15.2230   25.6947 C   0  0  0  0  0  0  0  0  0  0  0  0
    6.4257  -15.6705   25.6787 C   0  0  0  0  0  0  0  0  0  0  0  0
    5.5471  -14.6959   26.0143 N   0  0  0  0  0  0  0  0  0  0  0  0
    6.2852  -13.5945   26.2516 C   0  0  0  0  0  0  0  0  0  0  0  0
    5.8773  -12.3184   26.6277 C   0  0  0  0  0  0  0  0  0  0  0  0
    6.8269  -11.3407   26.8114 C   0  0  0  0  0  0  0  0  0  0  0  0
    8.1731  -11.5879   26.6339 C   0  0  0  0  0  0  0  0  0  0  0  0
    8.5480  -12.8644   26.2606 C   0  0  0  0  0  0  0  0  0  0  0  0
    7.6284  -13.8719   26.0665 C   0  0  0  0  0  0  0  0  0  0  0  0
   10.8353  -16.3658   23.8176 C   0  0  0  0  0  0  0  0  0  0  0  0
   11.3591  -17.1947   24.6215 O   0  0  0  0  0  0  0  0  0  0  0  0
   11.6020  -15.8121   22.7628 N   0  0  0  0  0  0  0  0  0  0  0  0
   13.0008  -15.5142   22.9936 C   0  0  0  0  0  0  0  0  0  0  0  0
   13.7885  -16.7196   22.6135 C   0  0  0  0  0  0  0  0  0  0  0  0
   13.3754  -17.8854   22.7886 O   0  0  0  0  0  0  0  0  0  0  0  0
   15.0488  -16.5876   22.0332 O   0  0  0  0  0  0  0  0  0  0  0  0
  2  1  1  6
  2  3  1  0
  3  4  1  0
  5  6  1  0
  5  4  1  0
  7  6  1  0
  8  9  2  0
  8  2  1  0
 10  8  1  0
 11 10  1  0
 11 12  1  1
 12 13  1  0
 13 21  1  0
 13 14  2  0
 14 15  1  0
 16 15  1  0
 16 17  2  0
 18 17  1  0
 19 18  2  0
 20 21  2  0
 20 19  1  0
 21 16  1  0
 22 24  1  0
 22 11  1  0
 23 22  2  0
 25 26  1  0
 25 24  1  0
 26 28  1  0
 27 26  2  0
M  END
$$$$
