KWG.pdb
     RDKit          3D

 28 29  0  0  1  0  0  0  0  0999 V2000
    7.6885  -16.4751   21.2186 N   0  0  0  0  0  0  0  0  0  0  0  0
    8.5498  -15.3550   21.1113 C   0  0  1  0  0  0  0  0  0  0  0  0
    7.8665  -14.0944   20.6954 C   0  0  0  0  0  0  0  0  0  0  0  0
    7.3759  -14.1332   19.3076 C   0  0  0  0  0  0  0  0  0  0  0  0
    8.3958  -13.7459   18.2910 C   0  0  0  0  0  0  0  0  0  0  0  0
    7.7523  -13.7368   16.9227 C   0  0  0  0  0  0  0  0  0  0  0  0
    8.6997  -13.2927   15.8970 N   0  0  0  0  0  0  0  0  0  0  0  0
    9.2651  -15.0512   22.3862 C   0  0  0  0  0  0  0  0  0  0  0  0
    9.9526  -14.0150   22.4415 O   0  0  0  0  0  0  0  0  0  0  0  0
    9.1406  -15.9357   23.4707 N   0  0  0  0  0  0  0  0  0  0  0  0
    9.8713  -15.7980   24.7099 C   0  0  1  0  0  0  0  0  0  0  0  0
    9.0065  -15.9361   25.8978 C   0  0  0  0  0  0  0  0  0  0  0  0
    7.7155  -15.2435   25.8604 C   0  0  0  0  0  0  0  0  0  0  0  0
    6.4369  -15.6558   25.6187 C   0  0  0  0  0  0  0  0  0  0  0  0
    5.5500  -14.6364   25.7113 N   0  0  0  0  0  0  0  0  0  0  0  0
    6.2716  -13.5415   26.0189 C   0  0  0  0  0  0  0  0  0  0  0  0
    5.8503  -12.2313   26.2247 C   0  0  0  0  0  0  0  0  0  0  0  0
    6.7846  -11.2694   26.5296 C   0  0  0  0  0  0  0  0  0  0  0  0
    8.1285  -11.5650   26.6375 C   0  0  0  0  0  0  0  0  0  0  0  0
    8.5169  -12.8744   26.4279 C   0  0  0  0  0  0  0  0  0  0  0  0
    7.6128  -13.8677   26.1208 C   0  0  0  0  0  0  0  0  0  0  0  0
   11.0790  -16.6683   24.7287 C   0  0  0  0  0  0  0  0  0  0  0  0
   11.8655  -16.5822   25.7195 O   0  0  0  0  0  0  0  0  0  0  0  0
   11.3550  -17.5734   23.6744 N   0  0  0  0  0  0  0  0  0  0  0  0
   12.5588  -18.3770   23.7367 C   0  0  0  0  0  0  0  0  0  0  0  0
   12.2502  -19.5921   24.5408 C   0  0  0  0  0  0  0  0  0  0  0  0
   11.6403  -19.5503   25.6301 O   0  0  0  0  0  0  0  0  0  0  0  0
   12.6410  -20.8536   24.0956 O   0  0  0  0  0  0  0  0  0  0  0  0
  2  1  1  1
  2  3  1  0
  3  4  1  0
  5  6  1  0
  5  4  1  0
  7  6  1  0
  8  9  2  0
  8  2  1  0
 10  8  1  0
 11 10  1  0
 11 12  1  1
 12 13  1  0
 13 21  1  0
 13 14  2  0
 14 15  1  0
 16 15  1  0
 16 17  2  0
 18 17  1  0
 19 18  2  0
 20 21  2  0
 20 19  1  0
 21 16  1  0
 22 24  1  0
 22 11  1  0
 23 22  2  0
 25 26  1  0
 25 24  1  0
 26 28  1  0
 27 26  2  0
M  END
$$$$
