RLQ.pdb
     RDKit          3D

 29 28  0  0  1  0  0  0  0  0999 V2000
   30.5408  -25.3702  -15.6547 N   0  0  0  0  0  0  0  0  0  0  0  0
   31.2801  -24.5822  -16.5699 C   0  0  0  0  0  0  0  0  0  0  0  0
   32.2872  -25.0504  -17.2291 N   0  0  0  0  0  0  0  0  0  0  0  0
   30.9259  -23.2190  -16.7957 N   0  0  0  0  0  0  0  0  0  0  0  0
   29.6444  -22.6833  -16.3834 C   0  0  0  0  0  0  0  0  0  0  0  0
   28.6653  -22.9362  -17.5441 C   0  0  0  0  0  0  0  0  0  0  0  0
   27.2769  -23.1479  -17.0273 C   0  0  0  0  0  0  0  0  0  0  0  0
   26.6894  -21.9165  -16.4373 C   0  0  2  0  0  0  0  0  0  0  0  0
   27.7416  -20.9038  -16.2967 N   0  0  0  0  0  0  0  0  0  0  0  0
   25.9762  -22.1063  -15.1549 C   0  0  0  0  0  0  0  0  0  0  0  0
   25.0872  -22.9714  -15.0258 O   0  0  0  0  0  0  0  0  0  0  0  0
   32.9045  -24.4508  -17.8082 C   0  0  0  0  0  0  0  0  0  0  0  0
   25.1393  -22.0089   -9.7035 C   0  0  2  0  0  0  0  0  0  0  0  0
   25.4827  -20.7122  -10.3365 C   0  0  0  0  0  0  0  0  0  0  0  0
   26.3119  -19.8768   -9.3774 C   0  0  0  0  0  0  0  0  0  0  0  0
   26.2134  -20.8709  -11.6111 C   0  0  1  0  0  0  0  0  0  0  0  0
   25.4320  -21.3613  -12.7893 N   0  0  0  0  0  0  0  0  0  0  0  0
   26.2632  -21.3162  -14.0024 C   0  0  0  0  0  0  0  0  0  0  0  0
   24.1675  -20.6834  -13.0740 O   0  0  0  0  0  0  0  0  0  0  0  0
   24.1270  -19.4376  -13.3775 N   0  0  0  0  0  0  0  0  0  0  0  0
   22.1245  -19.5328  -17.4635 C   0  0  0  0  0  0  0  0  0  0  0  0
   20.9074  -19.0732  -16.8978 O   0  0  0  0  0  0  0  0  0  0  0  0
   20.0987  -18.3753  -17.5586 C   0  0  0  0  0  0  0  0  0  0  0  0
   20.6454  -19.4647  -15.4814 C   0  0  0  0  0  0  0  0  0  0  0  0
   21.8729  -20.1899  -14.9763 C   0  0  2  0  0  0  0  0  0  0  0  0
   21.6872  -20.6529  -13.5377 N   0  0  0  0  0  0  0  0  0  0  0  0
   22.8842  -21.3061  -13.0522 C   0  0  0  0  0  0  0  0  0  0  0  0
   20.4642  -21.4587  -13.3813 O   0  0  0  0  0  0  0  0  0  0  0  0
   19.3188  -20.8961  -13.3307 O   0  0  0  0  0  0  0  0  0  0  0  0
  2  1  1  0
  2  3  2  0
  4  2  1  0
  5  4  1  0
  6  5  1  0
  7  6  1  0
  8 10  1  0
  8  7  1  0
  8  9  1  1
 10 11  2  0
 13 12  1  1
 14 13  1  0
 15 13  1  0
 16 15  1  1
 17 16  1  0
 17 10  1  0
 18 16  1  0
 18 19  2  0
 20 21  1  0
 21 23  1  0
 21 22  2  0
 23 24  1  0
 25 24  1  1
 25 26  1  0
 25 27  1  0
 26 18  1  0
 27 28  2  0
 27 29  1  0
M  END
$$$$
