RLQ.pdb
     RDKit          3D

 29 28  0  0  1  0  0  0  0  0999 V2000
   20.0248  -24.2513   -8.9243 N   0  0  0  0  0  0  0  0  0  0  0  0
   19.5650  -23.4064   -7.8852 C   0  0  0  0  0  0  0  0  0  0  0  0
   19.0626  -23.8693   -6.7892 N   0  0  0  0  0  0  0  0  0  0  0  0
   19.6457  -21.9888   -8.0215 N   0  0  0  0  0  0  0  0  0  0  0  0
   20.1741  -21.3642   -9.2174 C   0  0  0  0  0  0  0  0  0  0  0  0
   21.7078  -21.3835   -9.0854 C   0  0  0  0  0  0  0  0  0  0  0  0
   22.3451  -20.6514  -10.2245 C   0  0  0  0  0  0  0  0  0  0  0  0
   23.8260  -20.7805  -10.2337 C   0  0  2  0  0  0  0  0  0  0  0  0
   24.3586  -20.2768   -8.9629 N   0  0  0  0  0  0  0  0  0  0  0  0
   24.5111  -20.1364  -11.3762 C   0  0  0  0  0  0  0  0  0  0  0  0
   24.6332  -18.8974  -11.4479 O   0  0  0  0  0  0  0  0  0  0  0  0
   18.7193  -23.2545   -6.0275 C   0  0  0  0  0  0  0  0  0  0  0  0
   29.4025  -21.4535  -13.4297 C   0  0  1  0  0  0  0  0  0  0  0  0
   28.1893  -20.7004  -13.0284 C   0  0  0  0  0  0  0  0  0  0  0  0
   28.4812  -19.2105  -13.0458 C   0  0  0  0  0  0  0  0  0  0  0  0
   27.0247  -20.9850  -13.8924 C   0  0  2  0  0  0  0  0  0  0  0  0
   25.7540  -20.2561  -13.5870 N   0  0  0  0  0  0  0  0  0  0  0  0
   25.0663  -20.8909  -12.4519 C   0  0  0  0  0  0  0  0  0  0  0  0
   24.7946  -20.1105  -14.6815 O   0  0  0  0  0  0  0  0  0  0  0  0
   25.1228  -19.5617  -15.7936 N   0  0  0  0  0  0  0  0  0  0  0  0
   18.8609  -21.9992  -14.8700 C   0  0  0  0  0  0  0  0  0  0  0  0
   18.9165  -21.4635  -16.1825 O   0  0  0  0  0  0  0  0  0  0  0  0
   17.9288  -21.5189  -16.9565 C   0  0  0  0  0  0  0  0  0  0  0  0
   20.2083  -20.8345  -16.5874 C   0  0  0  0  0  0  0  0  0  0  0  0
   21.1460  -20.9208  -15.4037 C   0  0  2  0  0  0  0  0  0  0  0  0
   22.5240  -20.3740  -15.7507 N   0  0  0  0  0  0  0  0  0  0  0  0
   23.4376  -20.5489  -14.6417 C   0  0  0  0  0  0  0  0  0  0  0  0
   22.4485  -18.9894  -16.2471 O   0  0  0  0  0  0  0  0  0  0  0  0
   22.3460  -18.0124  -15.4310 O   0  0  0  0  0  0  0  0  0  0  0  0
  2  1  1  0
  2  3  2  0
  4  2  1  0
  5  4  1  0
  6  5  1  0
  7  6  1  0
  8 10  1  0
  8  7  1  0
  8  9  1  1
 10 11  2  0
 13 12  1  1
 14 13  1  0
 15 13  1  0
 16 15  1  1
 17 16  1  0
 17 10  1  0
 18 16  1  0
 18 19  2  0
 20 21  1  0
 21 23  1  0
 21 22  2  0
 23 24  1  0
 25 24  1  6
 25 26  1  0
 25 27  1  0
 26 18  1  0
 27 28  2  0
 27 29  1  0
M  END
$$$$
