RLQ.pdb
     RDKit          3D

 29 28  0  0  1  0  0  0  0  0999 V2000
   17.0547  -23.4473   -5.6564 N   0  0  0  0  0  0  0  0  0  0  0  0
   17.4456  -24.4050   -6.6233 C   0  0  0  0  0  0  0  0  0  0  0  0
   16.5880  -25.0927   -7.3012 N   0  0  0  0  0  0  0  0  0  0  0  0
   18.8279  -24.6427   -6.8828 N   0  0  0  0  0  0  0  0  0  0  0  0
   19.8342  -23.6243   -6.6603 C   0  0  0  0  0  0  0  0  0  0  0  0
   19.6807  -22.5956   -7.7953 C   0  0  0  0  0  0  0  0  0  0  0  0
   20.8446  -21.6551   -7.8167 C   0  0  0  0  0  0  0  0  0  0  0  0
   21.9252  -22.0992   -8.7358 C   0  0  2  0  0  0  0  0  0  0  0  0
   22.5230  -23.3323   -8.2119 N   0  0  0  0  0  0  0  0  0  0  0  0
   22.9725  -21.0921   -9.0158 C   0  0  0  0  0  0  0  0  0  0  0  0
   22.6822  -19.9206   -9.3299 O   0  0  0  0  0  0  0  0  0  0  0  0
   16.8692  -25.8203   -7.9850 C   0  0  0  0  0  0  0  0  0  0  0  0
   27.7168  -20.6360   -6.1885 C   0  0  1  0  0  0  0  0  0  0  0  0
   26.5395  -20.2146   -6.9863 C   0  0  0  0  0  0  0  0  0  0  0  0
   26.3991  -18.7036   -6.9345 C   0  0  0  0  0  0  0  0  0  0  0  0
   26.6126  -20.6553   -8.3949 C   0  0  2  0  0  0  0  0  0  0  0  0
   25.4080  -20.4132   -9.2491 N   0  0  0  0  0  0  0  0  0  0  0  0
   24.3629  -21.4023   -8.9427 C   0  0  0  0  0  0  0  0  0  0  0  0
   25.6151  -20.3980  -10.6970 O   0  0  0  0  0  0  0  0  0  0  0  0
   26.5184  -19.6656  -11.2385 N   0  0  0  0  0  0  0  0  0  0  0  0
   25.7495  -24.8036  -14.6636 C   0  0  0  0  0  0  0  0  0  0  0  0
   25.8487  -23.7706  -15.6309 O   0  0  0  0  0  0  0  0  0  0  0  0
   26.1201  -24.0195  -16.8317 C   0  0  0  0  0  0  0  0  0  0  0  0
   25.6132  -22.3800  -15.1418 C   0  0  0  0  0  0  0  0  0  0  0  0
   25.3836  -22.4566  -13.6487 C   0  0  2  0  0  0  0  0  0  0  0  0
   25.0801  -21.0830  -13.0661 N   0  0  0  0  0  0  0  0  0  0  0  0
   24.8686  -21.1692  -11.6368 C   0  0  0  0  0  0  0  0  0  0  0  0
   23.9845  -20.4168  -13.7910 O   0  0  0  0  0  0  0  0  0  0  0  0
   22.7950  -20.4335  -13.3264 O   0  0  0  0  0  0  0  0  0  0  0  0
  2  1  1  0
  2  3  2  0
  4  2  1  0
  5  4  1  0
  6  5  1  0
  7  6  1  0
  8 10  1  0
  8  7  1  0
  8  9  1  1
 10 11  2  0
 13 12  1  1
 14 13  1  0
 15 13  1  0
 16 15  1  1
 17 16  1  0
 17 10  1  0
 18 16  1  0
 18 19  2  0
 20 21  1  0
 21 23  1  0
 21 22  2  0
 23 24  1  0
 25 24  1  1
 25 26  1  0
 25 27  1  0
 26 18  1  0
 27 28  2  0
 27 29  1  0
M  END
$$$$
