RLQ.pdb
     RDKit          3D

 29 28  0  0  1  0  0  0  0  0999 V2000
   24.2836  -17.9399  -16.2688 N   0  0  0  0  0  0  0  0  0  0  0  0
   25.0946  -17.3618  -17.2755 C   0  0  0  0  0  0  0  0  0  0  0  0
   24.7300  -16.3171  -17.9416 N   0  0  0  0  0  0  0  0  0  0  0  0
   26.3654  -17.9284  -17.5894 N   0  0  0  0  0  0  0  0  0  0  0  0
   26.7762  -19.2185  -17.0733 C   0  0  0  0  0  0  0  0  0  0  0  0
   27.6642  -18.9417  -15.8467 C   0  0  0  0  0  0  0  0  0  0  0  0
   27.4617  -19.9922  -14.8002 C   0  0  0  0  0  0  0  0  0  0  0  0
   26.3336  -19.6804  -13.8839 C   0  0  2  0  0  0  0  0  0  0  0  0
   26.2658  -18.2284  -13.6845 N   0  0  0  0  0  0  0  0  0  0  0  0
   26.3620  -20.3830  -12.5820 C   0  0  0  0  0  0  0  0  0  0  0  0
   26.4968  -21.6208  -12.5127 O   0  0  0  0  0  0  0  0  0  0  0  0
   25.3212  -15.8890  -18.6787 C   0  0  0  0  0  0  0  0  0  0  0  0
   27.9573  -20.8894   -7.3771 C   0  0  2  0  0  0  0  0  0  0  0  0
   26.7887  -20.0024   -7.5958 C   0  0  0  0  0  0  0  0  0  0  0  0
   26.8215  -18.8560   -6.6008 C   0  0  0  0  0  0  0  0  0  0  0  0
   26.7273  -19.4616   -8.9696 C   0  0  1  0  0  0  0  0  0  0  0  0
   26.2472  -20.3843  -10.0455 N   0  0  0  0  0  0  0  0  0  0  0  0
   26.2377  -19.6890  -11.3420 C   0  0  0  0  0  0  0  0  0  0  0  0
   24.9381  -21.0066   -9.8489 O   0  0  0  0  0  0  0  0  0  0  0  0
   24.8239  -22.2033   -9.4011 N   0  0  0  0  0  0  0  0  0  0  0  0
   20.5937  -22.4028   -7.0481 C   0  0  0  0  0  0  0  0  0  0  0  0
   19.9028  -22.7762   -8.2295 O   0  0  0  0  0  0  0  0  0  0  0  0
   18.8715  -23.4922   -8.1884 C   0  0  0  0  0  0  0  0  0  0  0  0
   20.4687  -22.2722   -9.5156 C   0  0  0  0  0  0  0  0  0  0  0  0
   21.7219  -21.4923   -9.1855 C   0  0  2  0  0  0  0  0  0  0  0  0
   22.4893  -21.1216  -10.4473 N   0  0  0  0  0  0  0  0  0  0  0  0
   23.6863  -20.3774  -10.1177 C   0  0  0  0  0  0  0  0  0  0  0  0
   21.6228  -20.4500  -11.4310 O   0  0  0  0  0  0  0  0  0  0  0  0
   21.4819  -19.1808  -11.4116 O   0  0  0  0  0  0  0  0  0  0  0  0
  2  1  1  0
  2  3  2  0
  4  2  1  0
  5  4  1  0
  6  5  1  0
  7  6  1  0
  8 10  1  0
  8  7  1  0
  8  9  1  1
 10 11  2  0
 13 12  1  1
 14 13  1  0
 15 13  1  0
 16 15  1  6
 17 16  1  0
 17 10  1  0
 18 16  1  0
 18 19  2  0
 20 21  1  0
 21 23  1  0
 21 22  2  0
 23 24  1  0
 25 24  1  1
 25 26  1  0
 25 27  1  0
 26 18  1  0
 27 28  2  0
 27 29  1  0
M  END
$$$$
