RLQ.pdb
     RDKit          3D

 29 28  0  0  1  0  0  0  0  0999 V2000
   44.8248  -13.0613   -6.3466 N   0  0  0  0  0  0  0  0  0  0  0  0
   46.0748  -12.9372   -7.0003 C   0  0  0  0  0  0  0  0  0  0  0  0
   46.9651  -13.8723   -6.9727 N   0  0  0  0  0  0  0  0  0  0  0  0
   46.3936  -11.7502   -7.7242 N   0  0  0  0  0  0  0  0  0  0  0  0
   45.4018  -10.7287   -7.9931 C   0  0  0  0  0  0  0  0  0  0  0  0
   45.2052  -10.6943   -9.5196 C   0  0  0  0  0  0  0  0  0  0  0  0
   44.2398   -9.6171   -9.9035 C   0  0  0  0  0  0  0  0  0  0  0  0
   42.9596  -10.1552  -10.4336 C   0  0  2  0  0  0  0  0  0  0  0  0
   43.0269  -10.1953  -11.8986 N   0  0  0  0  0  0  0  0  0  0  0  0
   41.7407   -9.4440   -9.9887 C   0  0  0  0  0  0  0  0  0  0  0  0
   41.2880   -8.4691  -10.6211 O   0  0  0  0  0  0  0  0  0  0  0  0
   47.9155  -13.7521   -7.3706 C   0  0  0  0  0  0  0  0  0  0  0  0
   36.7897   -8.7490   -7.8652 C   0  0  2  0  0  0  0  0  0  0  0  0
   37.7771   -9.3122   -6.9124 C   0  0  0  0  0  0  0  0  0  0  0  0
   37.0965  -10.3217   -6.0052 C   0  0  0  0  0  0  0  0  0  0  0  0
   38.9262   -9.9512   -7.5869 C   0  0  1  0  0  0  0  0  0  0  0  0
   39.8860   -9.0511   -8.2996 N   0  0  0  0  0  0  0  0  0  0  0  0
   41.0202   -9.8305   -8.8199 C   0  0  0  0  0  0  0  0  0  0  0  0
   40.4170   -7.9173   -7.5432 O   0  0  0  0  0  0  0  0  0  0  0  0
   41.4371   -8.0410   -6.7753 N   0  0  0  0  0  0  0  0  0  0  0  0
   44.4997   -5.3045   -8.0154 C   0  0  0  0  0  0  0  0  0  0  0  0
   44.1177   -4.2262   -7.1765 O   0  0  0  0  0  0  0  0  0  0  0  0
   44.9435   -3.3519   -6.8141 C   0  0  0  0  0  0  0  0  0  0  0  0
   42.6869   -4.1912   -6.7524 C   0  0  0  0  0  0  0  0  0  0  0  0
   42.0095   -5.4098   -7.3391 C   0  0  1  0  0  0  0  0  0  0  0  0
   40.5411   -5.4699   -6.9409 N   0  0  0  0  0  0  0  0  0  0  0  0
   39.8852   -6.5939   -7.5744 C   0  0  0  0  0  0  0  0  0  0  0  0
   39.8649   -4.1811   -7.1673 O   0  0  0  0  0  0  0  0  0  0  0  0
   39.0346   -4.0442   -8.1280 O   0  0  0  0  0  0  0  0  0  0  0  0
  2  1  1  0
  2  3  2  0
  4  2  1  0
  5  4  1  0
  6  5  1  0
  7  6  1  0
  8 10  1  0
  8  7  1  0
  8  9  1  6
 10 11  2  0
 13 12  1  1
 14 13  1  0
 15 13  1  0
 16 15  1  6
 17 16  1  0
 17 10  1  0
 18 16  1  0
 18 19  2  0
 20 21  1  0
 21 23  1  0
 21 22  2  0
 23 24  1  0
 25 24  1  1
 25 26  1  0
 25 27  1  0
 26 18  1  0
 27 28  2  0
 27 29  1  0
M  END
$$$$
