RLQ.pdb
     RDKit          3D

 29 28  0  0  1  0  0  0  0  0999 V2000
   31.1611  -24.5718  -15.8719 N   0  0  0  0  0  0  0  0  0  0  0  0
   30.1270  -25.4486  -16.2806 C   0  0  0  0  0  0  0  0  0  0  0  0
   30.0652  -26.6765  -15.8849 N   0  0  0  0  0  0  0  0  0  0  0  0
   29.1010  -24.9911  -17.1596 N   0  0  0  0  0  0  0  0  0  0  0  0
   28.9450  -23.5888  -17.4888 C   0  0  0  0  0  0  0  0  0  0  0  0
   28.5625  -22.8680  -16.1834 C   0  0  0  0  0  0  0  0  0  0  0  0
   27.1198  -23.0963  -15.8574 C   0  0  0  0  0  0  0  0  0  0  0  0
   26.3485  -21.8303  -15.7471 C   0  0  2  0  0  0  0  0  0  0  0  0
   27.2462  -20.7601  -15.2987 N   0  0  0  0  0  0  0  0  0  0  0  0
   25.1457  -21.8940  -14.8877 C   0  0  0  0  0  0  0  0  0  0  0  0
   24.2418  -22.7284  -15.0931 O   0  0  0  0  0  0  0  0  0  0  0  0
   29.3082  -27.3218  -16.1791 C   0  0  0  0  0  0  0  0  0  0  0  0
   26.5594  -21.0192  -11.5816 C   0  0  1  0  0  0  0  0  0  0  0  0
   25.2843  -21.1929  -10.8439 C   0  0  0  0  0  0  0  0  0  0  0  0
   25.4134  -20.6034   -9.4506 C   0  0  0  0  0  0  0  0  0  0  0  0
   24.1325  -20.5773  -11.5352 C   0  0  2  0  0  0  0  0  0  0  0  0
   23.7879  -21.1070  -12.8916 N   0  0  0  0  0  0  0  0  0  0  0  0
   24.9538  -21.0111  -13.7839 C   0  0  0  0  0  0  0  0  0  0  0  0
   22.6414  -20.5004  -13.5680 O   0  0  0  0  0  0  0  0  0  0  0  0
   22.1671  -19.3669  -13.1995 N   0  0  0  0  0  0  0  0  0  0  0  0
   22.5132  -21.6163  -17.6650 C   0  0  0  0  0  0  0  0  0  0  0  0
   21.7931  -22.7479  -17.2028 O   0  0  0  0  0  0  0  0  0  0  0  0
   22.3398  -23.8732  -17.0913 C   0  0  0  0  0  0  0  0  0  0  0  0
   20.3577  -22.5249  -16.8591 C   0  0  0  0  0  0  0  0  0  0  0  0
   20.2231  -22.6639  -15.3590 C   0  0  2  0  0  0  0  0  0  0  0  0
   20.5275  -21.3493  -14.6536 N   0  0  0  0  0  0  0  0  0  0  0  0
   21.9486  -21.0748  -14.6748 C   0  0  0  0  0  0  0  0  0  0  0  0
   19.9329  -21.3065  -13.3067 O   0  0  0  0  0  0  0  0  0  0  0  0
   18.9744  -20.5038  -13.0461 O   0  0  0  0  0  0  0  0  0  0  0  0
  2  1  1  0
  2  3  2  0
  4  2  1  0
  5  4  1  0
  6  5  1  0
  7  6  1  0
  8 10  1  0
  8  7  1  0
  8  9  1  1
 10 11  2  0
 13 12  1  1
 14 13  1  0
 15 13  1  0
 16 15  1  1
 17 16  1  0
 17 10  1  0
 18 16  1  0
 18 19  2  0
 20 21  1  0
 21 23  1  0
 21 22  2  0
 23 24  1  0
 25 24  1  6
 25 26  1  0
 25 27  1  0
 26 18  1  0
 27 28  2  0
 27 29  1  0
M  END
$$$$
