QGP.pdb
     RDKit          3D

 21 21  0  0  1  0  0  0  0  0999 V2000
   22.8885  -18.9074  -18.1543 N   0  0  0  0  0  0  0  0  0  0  0  0
   22.4942  -20.2588  -17.9779 C   0  0  0  0  0  0  0  0  0  0  0  0
   22.0917  -20.8605  -18.9951 O   0  0  0  0  0  0  0  0  0  0  0  0
   22.5750  -20.8680  -16.6529 C   0  0  0  0  0  0  0  0  0  0  0  0
   23.0046  -19.9826  -15.5419 C   0  0  0  0  0  0  0  0  0  0  0  0
   24.4567  -19.6186  -15.5541 C   0  0  2  0  0  0  0  0  0  0  0  0
   25.2325  -20.4919  -16.4290 N   0  0  0  0  0  0  0  0  0  0  0  0
   25.0751  -19.6549  -14.2227 C   0  0  0  0  0  0  0  0  0  0  0  0
   24.6103  -18.9897  -13.2625 O   0  0  0  0  0  0  0  0  0  0  0  0
   26.2359  -20.4380  -13.9213 N   0  0  0  0  0  0  0  0  0  0  0  0
   26.7752  -20.4953  -12.5899 C   0  0  0  0  0  0  0  0  0  0  0  0
   25.9063  -21.2314  -11.6521 C   0  0  0  0  0  0  0  0  0  0  0  0
   25.3543  -22.3008  -11.9841 O   0  0  0  0  0  0  0  0  0  0  0  0
   25.6959  -20.7145  -10.3530 N   0  0  0  0  0  0  0  0  0  0  0  0
   26.1785  -19.4403   -9.8274 C   0  0  0  0  0  0  0  0  0  0  0  0
   26.0716  -19.5200   -8.3417 C   0  0  0  0  0  0  0  0  0  0  0  0
   25.7538  -20.9723   -8.0724 C   0  0  0  0  0  0  0  0  0  0  0  0
   24.9606  -21.3547   -9.2994 C   0  0  1  0  0  0  0  0  0  0  0  0
   23.5925  -20.8477   -9.2945 C   0  0  0  0  0  0  0  0  0  0  0  0
   23.2218  -19.8672   -9.9853 O   0  0  0  0  0  0  0  0  0  0  0  0
   22.6403  -21.4625   -8.4967 O   0  0  0  0  0  0  0  0  0  0  0  0
  1  2  1  0
  2  3  2  0
  2  4  1  0
  5  4  1  0
  6  5  1  0
  6  7  1  6
  8  6  1  0
  8 10  1  0
  9  8  2  0
 11 10  1  0
 11 12  1  0
 12 14  1  0
 13 12  2  0
 14 15  1  0
 14 18  1  0
 15 16  1  0
 16 17  1  0
 18 17  1  0
 18 19  1  1
 19 21  1  0
 20 19  2  0
M  END
$$$$
