QGP.pdb
     RDKit          3D

 21 21  0  0  1  0  0  0  0  0999 V2000
   19.2346  -26.2312   -6.8355 N   0  0  0  0  0  0  0  0  0  0  0  0
   18.3320  -27.0044   -7.6104 C   0  0  0  0  0  0  0  0  0  0  0  0
   18.4463  -28.2449   -7.5281 O   0  0  0  0  0  0  0  0  0  0  0  0
   17.3384  -26.3341   -8.4450 C   0  0  0  0  0  0  0  0  0  0  0  0
   17.2761  -24.8548   -8.3417 C   0  0  0  0  0  0  0  0  0  0  0  0
   18.5363  -24.1445   -8.7272 C   0  0  2  0  0  0  0  0  0  0  0  0
   19.1119  -23.4051   -7.6083 N   0  0  0  0  0  0  0  0  0  0  0  0
   18.3548  -23.2034   -9.8398 C   0  0  0  0  0  0  0  0  0  0  0  0
   17.8718  -22.0567   -9.6601 O   0  0  0  0  0  0  0  0  0  0  0  0
   18.7082  -23.5150  -11.1924 N   0  0  0  0  0  0  0  0  0  0  0  0
   18.5627  -22.5477  -12.2459 C   0  0  0  0  0  0  0  0  0  0  0  0
   19.8475  -21.9484  -12.6536 C   0  0  0  0  0  0  0  0  0  0  0  0
   20.8769  -22.0900  -11.9614 O   0  0  0  0  0  0  0  0  0  0  0  0
   19.9127  -21.1997  -13.8511 N   0  0  0  0  0  0  0  0  0  0  0  0
   18.7945  -20.8222  -14.7113 C   0  0  0  0  0  0  0  0  0  0  0  0
   19.3784  -20.4188  -16.0233 C   0  0  0  0  0  0  0  0  0  0  0  0
   20.8281  -20.8329  -15.9244 C   0  0  0  0  0  0  0  0  0  0  0  0
   21.1040  -20.6666  -14.4489 C   0  0  1  0  0  0  0  0  0  0  0  0
   21.2657  -19.2767  -14.0357 C   0  0  0  0  0  0  0  0  0  0  0  0
   20.3250  -18.5834  -13.5774 O   0  0  0  0  0  0  0  0  0  0  0  0
   22.5086  -18.6730  -14.1457 O   0  0  0  0  0  0  0  0  0  0  0  0
  1  2  1  0
  2  3  2  0
  2  4  1  0
  5  4  1  0
  6  5  1  0
  6  7  1  1
  8  6  1  0
  8 10  1  0
  9  8  2  0
 11 10  1  0
 11 12  1  0
 12 14  1  0
 13 12  2  0
 14 15  1  0
 14 18  1  0
 15 16  1  0
 16 17  1  0
 18 17  1  0
 18 19  1  6
 19 21  1  0
 20 19  2  0
M  END
$$$$
