QGP.pdb
     RDKit          3D

 21 21  0  0  1  0  0  0  0  0999 V2000
   23.8079  -22.0371  -14.2525 N   0  0  0  0  0  0  0  0  0  0  0  0
   23.2848  -20.9478  -13.5091 C   0  0  0  0  0  0  0  0  0  0  0  0
   22.0555  -20.7491  -13.5995 O   0  0  0  0  0  0  0  0  0  0  0  0
   24.1815  -20.1317  -12.6949 C   0  0  0  0  0  0  0  0  0  0  0  0
   25.6326  -20.4181  -12.8179 C   0  0  0  0  0  0  0  0  0  0  0  0
   26.1975  -21.2788  -11.7310 C   0  0  2  0  0  0  0  0  0  0  0  0
   25.2251  -22.2507  -11.2415 N   0  0  0  0  0  0  0  0  0  0  0  0
   26.6836  -20.5115  -10.5770 C   0  0  0  0  0  0  0  0  0  0  0  0
   27.7528  -19.8523  -10.6278 O   0  0  0  0  0  0  0  0  0  0  0  0
   25.9881  -20.4567   -9.3261 N   0  0  0  0  0  0  0  0  0  0  0  0
   26.4953  -19.6903   -8.2206 C   0  0  0  0  0  0  0  0  0  0  0  0
   27.4633  -20.4423   -7.3998 C   0  0  0  0  0  0  0  0  0  0  0  0
   27.8064  -21.6035   -7.7042 O   0  0  0  0  0  0  0  0  0  0  0  0
   28.0118  -19.8351   -6.2468 N   0  0  0  0  0  0  0  0  0  0  0  0
   27.8341  -18.4511   -5.8159 C   0  0  0  0  0  0  0  0  0  0  0  0
   28.9030  -18.1723   -4.8135 C   0  0  0  0  0  0  0  0  0  0  0  0
   29.8171  -19.3717   -4.9063 C   0  0  0  0  0  0  0  0  0  0  0  0
   28.8541  -20.4748   -5.2762 C   0  0  1  0  0  0  0  0  0  0  0  0
   28.0341  -20.9356   -4.1609 C   0  0  0  0  0  0  0  0  0  0  0  0
   26.8213  -20.6386   -4.0325 O   0  0  0  0  0  0  0  0  0  0  0  0
   28.6007  -21.7408   -3.1852 O   0  0  0  0  0  0  0  0  0  0  0  0
  1  2  1  0
  2  3  2  0
  2  4  1  0
  5  4  1  0
  6  5  1  0
  6  7  1  1
  8  6  1  0
  8 10  1  0
  9  8  2  0
 11 10  1  0
 11 12  1  0
 12 14  1  0
 13 12  2  0
 14 15  1  0
 14 18  1  0
 15 16  1  0
 16 17  1  0
 18 17  1  0
 18 19  1  1
 19 21  1  0
 20 19  2  0
M  END
$$$$
