QGP.pdb
     RDKit          3D

 21 21  0  0  1  0  0  0  0  0999 V2000
   25.0177  -21.0535   -9.5951 N   0  0  0  0  0  0  0  0  0  0  0  0
   26.1594  -21.3127  -10.3965 C   0  0  0  0  0  0  0  0  0  0  0  0
   27.2494  -21.4206   -9.7975 O   0  0  0  0  0  0  0  0  0  0  0  0
   26.0125  -21.4385  -11.8442 C   0  0  0  0  0  0  0  0  0  0  0  0
   26.6937  -20.4110  -12.6707 C   0  0  0  0  0  0  0  0  0  0  0  0
   25.7747  -19.4807  -13.3997 C   0  0  2  0  0  0  0  0  0  0  0  0
   25.0953  -20.1409  -14.5098 N   0  0  0  0  0  0  0  0  0  0  0  0
   26.4547  -18.2935  -13.9332 C   0  0  0  0  0  0  0  0  0  0  0  0
   26.9586  -17.4268  -13.1747 O   0  0  0  0  0  0  0  0  0  0  0  0
   26.5935  -18.0366  -15.3355 N   0  0  0  0  0  0  0  0  0  0  0  0
   27.2319  -16.8424  -15.8181 C   0  0  0  0  0  0  0  0  0  0  0  0
   26.3264  -15.6779  -15.8380 C   0  0  0  0  0  0  0  0  0  0  0  0
   25.1494  -15.7657  -15.4309 O   0  0  0  0  0  0  0  0  0  0  0  0
   26.8020  -14.4399  -16.3277 N   0  0  0  0  0  0  0  0  0  0  0  0
   28.1120  -14.1745  -16.9164 C   0  0  0  0  0  0  0  0  0  0  0  0
   28.3012  -12.6951  -16.8952 C   0  0  0  0  0  0  0  0  0  0  0  0
   27.1592  -12.1897  -16.0447 C   0  0  0  0  0  0  0  0  0  0  0  0
   26.0764  -13.2013  -16.3365 C   0  0  1  0  0  0  0  0  0  0  0  0
   25.4460  -13.0255  -17.6405 C   0  0  0  0  0  0  0  0  0  0  0  0
   25.7836  -13.6769  -18.6591 O   0  0  0  0  0  0  0  0  0  0  0  0
   24.4236  -12.1007  -17.7845 O   0  0  0  0  0  0  0  0  0  0  0  0
  1  2  1  0
  2  3  2  0
  2  4  1  0
  5  4  1  0
  6  5  1  0
  6  7  1  6
  8  6  1  0
  8 10  1  0
  9  8  2  0
 11 10  1  0
 11 12  1  0
 12 14  1  0
 13 12  2  0
 14 15  1  0
 14 18  1  0
 15 16  1  0
 16 17  1  0
 18 17  1  0
 18 19  1  6
 19 21  1  0
 20 19  2  0
M  END
$$$$
