QGP.pdb
     RDKit          3D

 21 21  0  0  1  0  0  0  0  0999 V2000
   19.3434  -15.3928  -16.0262 N   0  0  0  0  0  0  0  0  0  0  0  0
   18.0466  -15.3035  -16.5949 C   0  0  0  0  0  0  0  0  0  0  0  0
   17.3236  -16.3167  -16.4985 O   0  0  0  0  0  0  0  0  0  0  0  0
   17.6277  -14.0662  -17.2480 C   0  0  0  0  0  0  0  0  0  0  0  0
   18.5824  -12.9312  -17.1913 C   0  0  0  0  0  0  0  0  0  0  0  0
   18.5680  -12.1617  -15.9072 C   0  0  2  0  0  0  0  0  0  0  0  0
   17.2843  -11.5071  -15.6758 N   0  0  0  0  0  0  0  0  0  0  0  0
   19.6142  -11.1337  -15.8351 C   0  0  0  0  0  0  0  0  0  0  0  0
   20.8264  -11.4144  -16.0144 O   0  0  0  0  0  0  0  0  0  0  0  0
   19.3380   -9.7555  -15.5597 N   0  0  0  0  0  0  0  0  0  0  0  0
   20.3893   -8.7762  -15.5127 C   0  0  0  0  0  0  0  0  0  0  0  0
   19.9865   -7.5374  -14.8205 C   0  0  0  0  0  0  0  0  0  0  0  0
   18.8796   -7.4445  -14.2505 O   0  0  0  0  0  0  0  0  0  0  0  0
   20.8719   -6.4353  -14.8031 N   0  0  0  0  0  0  0  0  0  0  0  0
   22.1611   -6.3353  -15.4820 C   0  0  0  0  0  0  0  0  0  0  0  0
   22.8921   -5.1984  -14.8512 C   0  0  0  0  0  0  0  0  0  0  0  0
   22.0581   -4.8504  -13.6403 C   0  0  0  0  0  0  0  0  0  0  0  0
   20.6642   -5.1972  -14.1068 C   0  0  1  0  0  0  0  0  0  0  0  0
   20.0942   -4.2201  -15.0283 C   0  0  0  0  0  0  0  0  0  0  0  0
   20.1213   -4.3565  -16.2759 O   0  0  0  0  0  0  0  0  0  0  0  0
   19.4892   -3.0795  -14.5241 O   0  0  0  0  0  0  0  0  0  0  0  0
  1  2  1  0
  2  3  2  0
  2  4  1  0
  5  4  1  0
  6  5  1  0
  6  7  1  6
  8  6  1  0
  8 10  1  0
  9  8  2  0
 11 10  1  0
 11 12  1  0
 12 14  1  0
 13 12  2  0
 14 15  1  0
 14 18  1  0
 15 16  1  0
 16 17  1  0
 18 17  1  0
 18 19  1  6
 19 21  1  0
 20 19  2  0
M  END
$$$$
