QGP.pdb
     RDKit          3D

 21 21  0  0  1  0  0  0  0  0999 V2000
   21.4847  -19.8519  -18.9537 N   0  0  0  0  0  0  0  0  0  0  0  0
   21.7764  -18.7893  -19.8475 C   0  0  0  0  0  0  0  0  0  0  0  0
   21.5829  -19.0110  -21.0607 O   0  0  0  0  0  0  0  0  0  0  0  0
   22.2751  -17.5205  -19.3234 C   0  0  0  0  0  0  0  0  0  0  0  0
   22.4993  -17.4516  -17.8578 C   0  0  0  0  0  0  0  0  0  0  0  0
   22.0929  -16.1595  -17.2201 C   0  0  2  0  0  0  0  0  0  0  0  0
   21.1374  -15.4214  -18.0398 N   0  0  0  0  0  0  0  0  0  0  0  0
   23.2264  -15.2683  -16.9417 C   0  0  0  0  0  0  0  0  0  0  0  0
   24.1322  -15.5887  -16.1310 O   0  0  0  0  0  0  0  0  0  0  0  0
   23.3839  -13.9871  -17.5623 N   0  0  0  0  0  0  0  0  0  0  0  0
   24.4735  -13.1159  -17.2150 C   0  0  0  0  0  0  0  0  0  0  0  0
   24.0656  -12.0210  -16.3144 C   0  0  0  0  0  0  0  0  0  0  0  0
   22.9505  -12.0254  -15.7531 O   0  0  0  0  0  0  0  0  0  0  0  0
   24.9557  -10.9470  -16.0838 N   0  0  0  0  0  0  0  0  0  0  0  0
   26.3136  -10.8066  -16.6025 C   0  0  0  0  0  0  0  0  0  0  0  0
   26.9822   -9.7580  -15.7788 C   0  0  0  0  0  0  0  0  0  0  0  0
   26.0221   -9.5185  -14.6370 C   0  0  0  0  0  0  0  0  0  0  0  0
   24.6852   -9.7834  -15.2878 C   0  0  1  0  0  0  0  0  0  0  0  0
   24.2326   -8.7033  -16.1581 C   0  0  0  0  0  0  0  0  0  0  0  0
   24.3598   -8.7294  -17.4067 O   0  0  0  0  0  0  0  0  0  0  0  0
   23.6307   -7.5858  -15.6012 O   0  0  0  0  0  0  0  0  0  0  0  0
  1  2  1  0
  2  3  2  0
  2  4  1  0
  5  4  1  0
  6  5  1  0
  6  7  1  6
  8  6  1  0
  8 10  1  0
  9  8  2  0
 11 10  1  0
 11 12  1  0
 12 14  1  0
 13 12  2  0
 14 15  1  0
 14 18  1  0
 15 16  1  0
 16 17  1  0
 18 17  1  0
 18 19  1  6
 19 21  1  0
 20 19  2  0
M  END
$$$$
