QGP.pdb
     RDKit          3D

 21 21  0  0  1  0  0  0  0  0999 V2000
   16.2991  -25.3160    3.2893 N   0  0  0  0  0  0  0  0  0  0  0  0
   15.8933  -24.6867    2.0842 C   0  0  0  0  0  0  0  0  0  0  0  0
   15.3205  -25.4090    1.2424 O   0  0  0  0  0  0  0  0  0  0  0  0
   16.1559  -23.2633    1.8884 C   0  0  0  0  0  0  0  0  0  0  0  0
   16.8183  -22.5516    3.0097 C   0  0  0  0  0  0  0  0  0  0  0  0
   16.1010  -21.3277    3.4882 C   0  0  2  0  0  0  0  0  0  0  0  0
   14.7623  -21.2196    2.9172 N   0  0  0  0  0  0  0  0  0  0  0  0
   16.8174  -20.0812    3.1890 C   0  0  0  0  0  0  0  0  0  0  0  0
   18.0069  -19.9015    3.5540 O   0  0  0  0  0  0  0  0  0  0  0  0
   16.2254  -18.9929    2.4702 N   0  0  0  0  0  0  0  0  0  0  0  0
   16.9139  -17.7417    2.3060 C   0  0  0  0  0  0  0  0  0  0  0  0
   16.8567  -16.8947    3.5125 C   0  0  0  0  0  0  0  0  0  0  0  0
   16.4996  -17.3604    4.6145 O   0  0  0  0  0  0  0  0  0  0  0  0
   17.2133  -15.5299    3.4173 N   0  0  0  0  0  0  0  0  0  0  0  0
   17.7245  -14.8373    2.2376 C   0  0  0  0  0  0  0  0  0  0  0  0
   18.3320  -13.5622    2.7172 C   0  0  0  0  0  0  0  0  0  0  0  0
   18.3570  -13.7086    4.2208 C   0  0  0  0  0  0  0  0  0  0  0  0
   17.1376  -14.5625    4.4752 C   0  0  1  0  0  0  0  0  0  0  0  0
   15.8784  -13.8334    4.3674 C   0  0  0  0  0  0  0  0  0  0  0  0
   15.1936  -13.7988    3.3159 O   0  0  0  0  0  0  0  0  0  0  0  0
   15.3964  -13.1390    5.4659 O   0  0  0  0  0  0  0  0  0  0  0  0
  1  2  1  0
  2  3  2  0
  2  4  1  0
  5  4  1  0
  6  5  1  0
  6  7  1  6
  8  6  1  0
  8 10  1  0
  9  8  2  0
 11 10  1  0
 11 12  1  0
 12 14  1  0
 13 12  2  0
 14 15  1  0
 14 18  1  0
 15 16  1  0
 16 17  1  0
 18 17  1  0
 18 19  1  6
 19 21  1  0
 20 19  2  0
M  END
$$$$
