RWV.pdb
     RDKit          3D

 33 34  0  0  1  0  0  0  0  0999 V2000
   29.0031  -23.9082  -18.9603 N   0  0  0  0  0  0  0  0  0  0  0  0
   30.3659  -24.0372  -18.5118 C   0  0  0  0  0  0  0  0  0  0  0  0
   31.3241  -24.1791  -19.3548 N   0  0  0  0  0  0  0  0  0  0  0  0
   30.6485  -24.0070  -17.1217 N   0  0  0  0  0  0  0  0  0  0  0  0
   29.5455  -23.8523  -16.1860 C   0  0  0  0  0  0  0  0  0  0  0  0
   29.1490  -22.3933  -16.1977 C   0  0  0  0  0  0  0  0  0  0  0  0
   28.7405  -21.8633  -14.8651 C   0  0  0  0  0  0  0  0  0  0  0  0
   27.4715  -21.0471  -14.9535 C   0  0  2  0  0  0  0  0  0  0  0  0
   27.8259  -19.6582  -14.7397 N   0  0  0  0  0  0  0  0  0  0  0  0
   26.4756  -21.4765  -13.9306 C   0  0  0  0  0  0  0  0  0  0  0  0
   25.9590  -22.6382  -13.9653 O   0  0  0  0  0  0  0  0  0  0  0  0
   32.3074  -24.3794  -19.0909 N   0  0  0  0  0  0  0  0  0  0  0  0
   26.0869  -20.6086  -12.9080 C   0  0  1  0  0  0  0  0  0  0  0  0
   25.0809  -20.8865  -11.9073 C   0  0  0  0  0  0  0  0  0  0  0  0
   25.4741  -20.1562  -10.6433 C   0  0  0  0  0  0  0  0  0  0  0  0
   26.7448  -20.6267  -10.0889 C   0  0  0  0  0  0  0  0  0  0  0  0
   27.6767  -21.4505  -10.6727 N   0  0  0  0  0  0  0  0  0  0  0  0
   28.7080  -21.6283   -9.8005 C   0  0  0  0  0  0  0  0  0  0  0  0
   28.4717  -20.9395   -8.6606 C   0  0  0  0  0  0  0  0  0  0  0  0
   29.1536  -20.7629   -7.4756 C   0  0  0  0  0  0  0  0  0  0  0  0
   28.6180  -19.9729   -6.4859 C   0  0  0  0  0  0  0  0  0  0  0  0
   27.4076  -19.3551   -6.6633 C   0  0  0  0  0  0  0  0  0  0  0  0
   26.7160  -19.5243   -7.8434 C   0  0  0  0  0  0  0  0  0  0  0  0
   27.2346  -20.3090   -8.8431 C   0  0  0  0  0  0  0  0  0  0  0  0
   23.7251  -20.4954  -12.3547 O   0  0  0  0  0  0  0  0  0  0  0  0
   23.5243  -19.3251  -12.7626 C   0  0  0  0  0  0  0  0  0  0  0  0
   19.6899  -21.8760  -14.6560 C   0  0  2  0  0  0  0  0  0  0  0  0
   21.0442  -22.0637  -14.0515 C   0  0  0  0  0  0  0  0  0  0  0  0
   22.0856  -22.0199  -15.1332 C   0  0  1  0  0  0  0  0  0  0  0  0
   21.3554  -21.1257  -12.9241 N   0  0  0  0  0  0  0  0  0  0  0  0
   22.6563  -21.4011  -12.3342 C   0  0  0  0  0  0  0  0  0  0  0  0
   20.3127  -21.0493  -11.8885 O   0  0  0  0  0  0  0  0  0  0  0  0
   19.3185  -20.1011  -11.9426 O   0  0  0  0  0  0  0  0  0  0  0  0
  2  1  1  0
  2  4  1  0
  3  2  2  0
  5  4  1  0
  6  5  1  0
  7  6  1  0
  8  7  1  0
  8  9  1  1
 10  8  1  0
 10 12  1  0
 11 10  2  0
 13 12  1  0
 13 14  1  1
 15 14  1  0
 15 16  2  0
 17 16  1  0
 18 23  2  0
 18 17  1  0
 19 18  1  0
 20 19  2  0
 21 20  1  0
 21 22  2  0
 22 23  1  0
 23 15  1  0
 24 13  1  0
 25 24  2  0
 27 26  1  6
 27 28  1  0
 29 30  1  1
 29 27  1  0
 30 24  1  0
 31 29  1  0
 32 31  1  0
 33 31  2  0
M  END
$$$$
