RWV.pdb
     RDKit          3D

 33 34  0  0  1  0  0  0  0  0999 V2000
   30.2055  -26.1019  -16.6015 N   0  0  0  0  0  0  0  0  0  0  0  0
   31.1774  -25.4774  -17.4620 C   0  0  0  0  0  0  0  0  0  0  0  0
   31.9102  -26.1829  -18.2456 N   0  0  0  0  0  0  0  0  0  0  0  0
   31.3237  -24.0662  -17.4400 N   0  0  0  0  0  0  0  0  0  0  0  0
   30.3768  -23.2758  -16.6689 C   0  0  0  0  0  0  0  0  0  0  0  0
   28.9889  -23.6981  -17.0950 C   0  0  0  0  0  0  0  0  0  0  0  0
   27.9714  -23.6291  -16.0072 C   0  0  0  0  0  0  0  0  0  0  0  0
   27.6269  -22.2006  -15.6540 C   0  0  2  0  0  0  0  0  0  0  0  0
   28.8705  -21.4886  -15.4378 N   0  0  0  0  0  0  0  0  0  0  0  0
   26.7860  -22.1312  -14.4250 C   0  0  0  0  0  0  0  0  0  0  0  0
   25.6875  -22.7673  -14.3451 O   0  0  0  0  0  0  0  0  0  0  0  0
   32.6440  -25.7916  -18.8663 N   0  0  0  0  0  0  0  0  0  0  0  0
   27.1881  -21.3629  -13.3303 C   0  0  1  0  0  0  0  0  0  0  0  0
   26.4623  -21.2271  -12.0872 C   0  0  0  0  0  0  0  0  0  0  0  0
   27.3478  -20.4803  -11.1158 C   0  0  0  0  0  0  0  0  0  0  0  0
   26.7497  -20.3540   -9.7855 C   0  0  0  0  0  0  0  0  0  0  0  0
   25.4188  -20.2744   -9.4533 N   0  0  0  0  0  0  0  0  0  0  0  0
   25.3137  -20.1663   -8.0993 C   0  0  0  0  0  0  0  0  0  0  0  0
   26.5449  -20.1737   -7.5393 C   0  0  0  0  0  0  0  0  0  0  0  0
   27.0235  -20.0944   -6.2488 C   0  0  0  0  0  0  0  0  0  0  0  0
   28.3779  -20.1318   -6.0149 C   0  0  0  0  0  0  0  0  0  0  0  0
   29.2636  -20.2476   -7.0542 C   0  0  0  0  0  0  0  0  0  0  0  0
   28.7975  -20.3273   -8.3488 C   0  0  0  0  0  0  0  0  0  0  0  0
   27.4490  -20.2918   -8.6022 C   0  0  0  0  0  0  0  0  0  0  0  0
   25.1646  -20.5390  -12.2704 O   0  0  0  0  0  0  0  0  0  0  0  0
   25.1497  -19.3125  -12.5383 C   0  0  0  0  0  0  0  0  0  0  0  0
   20.7683  -20.4944  -14.0910 C   0  0  2  0  0  0  0  0  0  0  0  0
   22.1507  -20.9797  -13.7937 C   0  0  0  0  0  0  0  0  0  0  0  0
   23.0840  -20.5292  -14.8812 C   0  0  1  0  0  0  0  0  0  0  0  0
   22.6536  -20.6206  -12.4278 N   0  0  0  0  0  0  0  0  0  0  0  0
   23.9481  -21.2238  -12.1516 C   0  0  0  0  0  0  0  0  0  0  0  0
   21.7031  -20.8904  -11.3372 O   0  0  0  0  0  0  0  0  0  0  0  0
   21.5608  -22.1511  -10.8073 O   0  0  0  0  0  0  0  0  0  0  0  0
  2  1  1  0
  2  4  1  0
  3  2  2  0
  5  4  1  0
  6  5  1  0
  7  6  1  0
  8  7  1  0
  8  9  1  1
 10  8  1  0
 10 12  1  0
 11 10  2  0
 13 12  1  0
 13 14  1  1
 15 14  1  0
 15 16  2  0
 17 16  1  0
 18 23  2  0
 18 17  1  0
 19 18  1  0
 20 19  2  0
 21 20  1  0
 21 22  2  0
 22 23  1  0
 23 15  1  0
 24 13  1  0
 25 24  2  0
 27 26  1  6
 27 28  1  0
 29 30  1  6
 29 27  1  0
 30 24  1  0
 31 29  1  0
 32 31  1  0
 33 31  2  0
M  END
$$$$
