RWV.pdb
     RDKit          3D

 33 34  0  0  1  0  0  0  0  0999 V2000
   30.6356  -22.9287  -16.5854 N   0  0  0  0  0  0  0  0  0  0  0  0
   29.4182  -23.4361  -16.0062 C   0  0  0  0  0  0  0  0  0  0  0  0
   29.3280  -24.6626  -15.6369 N   0  0  0  0  0  0  0  0  0  0  0  0
   28.3081  -22.5673  -15.8438 N   0  0  0  0  0  0  0  0  0  0  0  0
   28.3782  -21.2285  -16.4083 C   0  0  0  0  0  0  0  0  0  0  0  0
   27.5379  -20.3278  -15.5315 C   0  0  0  0  0  0  0  0  0  0  0  0
   26.3063  -20.9764  -14.9968 C   0  0  0  0  0  0  0  0  0  0  0  0
   25.5189  -20.0370  -14.1127 C   0  0  2  0  0  0  0  0  0  0  0  0
   26.3173  -18.8433  -13.9177 N   0  0  0  0  0  0  0  0  0  0  0  0
   25.2124  -20.6595  -12.7933 C   0  0  0  0  0  0  0  0  0  0  0  0
   24.4299  -21.6583  -12.7053 O   0  0  0  0  0  0  0  0  0  0  0  0
   28.4942  -25.0720  -15.1743 N   0  0  0  0  0  0  0  0  0  0  0  0
   25.7803  -20.1572  -11.6206 C   0  0  1  0  0  0  0  0  0  0  0  0
   25.5232  -20.6483  -10.2852 C   0  0  0  0  0  0  0  0  0  0  0  0
   26.5753  -20.0656   -9.3693 C   0  0  0  0  0  0  0  0  0  0  0  0
   26.4513  -20.5396   -7.9897 C   0  0  0  0  0  0  0  0  0  0  0  0
   25.5901  -21.4850   -7.4873 N   0  0  0  0  0  0  0  0  0  0  0  0
   25.8178  -21.6149   -6.1504 C   0  0  0  0  0  0  0  0  0  0  0  0
   26.8080  -20.7765   -5.7678 C   0  0  0  0  0  0  0  0  0  0  0  0
   27.4318  -20.4952   -4.5710 C   0  0  0  0  0  0  0  0  0  0  0  0
   28.4358  -19.5571   -4.5235 C   0  0  0  0  0  0  0  0  0  0  0  0
   28.8267  -18.8938   -5.6573 C   0  0  0  0  0  0  0  0  0  0  0  0
   28.2105  -19.1660   -6.8597 C   0  0  0  0  0  0  0  0  0  0  0  0
   27.2064  -20.0993   -6.9271 C   0  0  0  0  0  0  0  0  0  0  0  0
   24.1588  -20.3122   -9.8195 O   0  0  0  0  0  0  0  0  0  0  0  0
   23.8149  -19.1075   -9.7373 C   0  0  0  0  0  0  0  0  0  0  0  0
   20.9803  -22.9692  -10.5016 C   0  0  2  0  0  0  0  0  0  0  0  0
   20.9187  -21.5023  -10.2206 C   0  0  0  0  0  0  0  0  0  0  0  0
   19.4945  -21.1018   -9.9600 C   0  0  1  0  0  0  0  0  0  0  0  0
   21.8469  -21.0388   -9.1384 N   0  0  0  0  0  0  0  0  0  0  0  0
   23.2383  -21.3077   -9.4665 C   0  0  0  0  0  0  0  0  0  0  0  0
   21.5161  -21.5397   -7.7948 O   0  0  0  0  0  0  0  0  0  0  0  0
   20.5768  -20.9144   -7.0091 O   0  0  0  0  0  0  0  0  0  0  0  0
  2  1  1  0
  2  4  1  0
  3  2  2  0
  5  4  1  0
  6  5  1  0
  7  6  1  0
  8  7  1  0
  8  9  1  1
 10  8  1  0
 10 12  1  0
 11 10  2  0
 13 12  1  0
 13 14  1  1
 15 14  1  0
 15 16  2  0
 17 16  1  0
 18 23  2  0
 18 17  1  0
 19 18  1  0
 20 19  2  0
 21 20  1  0
 21 22  2  0
 22 23  1  0
 23 15  1  0
 24 13  1  0
 25 24  2  0
 27 26  1  6
 27 28  1  0
 29 30  1  6
 29 27  1  0
 30 24  1  0
 31 29  1  0
 32 31  1  0
 33 31  2  0
M  END
$$$$
