RWV.pdb
     RDKit          3D

 33 34  0  0  1  0  0  0  0  0999 V2000
   27.6825  -20.3016  -15.9223 N   0  0  0  0  0  0  0  0  0  0  0  0
   28.6571  -19.2428  -15.9886 C   0  0  0  0  0  0  0  0  0  0  0  0
   29.0102  -18.7451  -17.1184 N   0  0  0  0  0  0  0  0  0  0  0  0
   29.2312  -18.7474  -14.7894 N   0  0  0  0  0  0  0  0  0  0  0  0
   28.6023  -19.0824  -13.5212 C   0  0  0  0  0  0  0  0  0  0  0  0
   29.0264  -20.4903  -13.1687 C   0  0  0  0  0  0  0  0  0  0  0  0
   28.4240  -21.0091  -11.9073 C   0  0  0  0  0  0  0  0  0  0  0  0
   26.9326  -21.2128  -12.0427 C   0  0  2  0  0  0  0  0  0  0  0  0
   26.3713  -19.9981  -12.5992 N   0  0  0  0  0  0  0  0  0  0  0  0
   26.3006  -21.5022  -10.7240 C   0  0  0  0  0  0  0  0  0  0  0  0
   26.7225  -22.4502   -9.9884 O   0  0  0  0  0  0  0  0  0  0  0  0
   29.7259  -18.0019  -17.2294 N   0  0  0  0  0  0  0  0  0  0  0  0
   25.2270  -20.7355  -10.2661 C   0  0  2  0  0  0  0  0  0  0  0  0
   24.5260  -20.9328   -9.0170 C   0  0  0  0  0  0  0  0  0  0  0  0
   24.6190  -19.6465   -8.2281 C   0  0  0  0  0  0  0  0  0  0  0  0
   25.9781  -19.3639   -7.7630 C   0  0  0  0  0  0  0  0  0  0  0  0
   26.9544  -18.6223   -8.3834 N   0  0  0  0  0  0  0  0  0  0  0  0
   28.0662  -18.6206   -7.5961 C   0  0  0  0  0  0  0  0  0  0  0  0
   27.8388  -19.3435   -6.4756 C   0  0  0  0  0  0  0  0  0  0  0  0
   28.5863  -19.6703   -5.3644 C   0  0  0  0  0  0  0  0  0  0  0  0
   28.0384  -20.4492   -4.3726 C   0  0  0  0  0  0  0  0  0  0  0  0
   26.7509  -20.9076   -4.4751 C   0  0  0  0  0  0  0  0  0  0  0  0
   25.9936  -20.5880   -5.5813 C   0  0  0  0  0  0  0  0  0  0  0  0
   26.5231  -19.8115   -6.5817 C   0  0  0  0  0  0  0  0  0  0  0  0
   23.1167  -21.3355   -9.2250 O   0  0  0  0  0  0  0  0  0  0  0  0
   22.5324  -21.0079  -10.2868 C   0  0  0  0  0  0  0  0  0  0  0  0
   20.5981  -22.5808   -5.9055 C   0  0  2  0  0  0  0  0  0  0  0  0
   20.5423  -23.2651   -7.2335 C   0  0  0  0  0  0  0  0  0  0  0  0
   19.1631  -23.8181   -7.4541 C   0  0  1  0  0  0  0  0  0  0  0  0
   21.0090  -22.4250   -8.3841 N   0  0  0  0  0  0  0  0  0  0  0  0
   22.4157  -22.0751   -8.2634 C   0  0  0  0  0  0  0  0  0  0  0  0
   20.1888  -21.2301   -8.6393 O   0  0  0  0  0  0  0  0  0  0  0  0
   20.5414  -19.9995   -8.1374 O   0  0  0  0  0  0  0  0  0  0  0  0
  2  1  1  0
  2  4  1  0
  3  2  2  0
  5  4  1  0
  6  5  1  0
  7  6  1  0
  8  7  1  0
  8  9  1  1
 10  8  1  0
 10 12  1  0
 11 10  2  0
 13 12  1  0
 13 14  1  1
 15 14  1  0
 15 16  2  0
 17 16  1  0
 18 23  2  0
 18 17  1  0
 19 18  1  0
 20 19  2  0
 21 20  1  0
 21 22  2  0
 22 23  1  0
 23 15  1  0
 24 13  1  0
 25 24  2  0
 27 26  1  1
 27 28  1  0
 29 30  1  1
 29 27  1  0
 30 24  1  0
 31 29  1  0
 32 31  1  0
 33 31  2  0
M  END
$$$$
