RWV.pdb
     RDKit          3D

 33 34  0  0  1  0  0  0  0  0999 V2000
   30.7691  -23.0794  -18.3065 N   0  0  0  0  0  0  0  0  0  0  0  0
   30.2358  -21.7962  -18.6860 C   0  0  0  0  0  0  0  0  0  0  0  0
   30.2191  -21.4297  -19.9165 N   0  0  0  0  0  0  0  0  0  0  0  0
   29.7244  -20.9300  -17.6852 N   0  0  0  0  0  0  0  0  0  0  0  0
   29.6267  -21.4191  -16.3187 C   0  0  0  0  0  0  0  0  0  0  0  0
   28.6494  -22.5728  -16.3243 C   0  0  0  0  0  0  0  0  0  0  0  0
   27.8951  -22.7371  -15.0486 C   0  0  0  0  0  0  0  0  0  0  0  0
   26.6216  -21.9233  -15.0436 C   0  0  2  0  0  0  0  0  0  0  0  0
   26.9842  -20.5374  -15.2633 N   0  0  0  0  0  0  0  0  0  0  0  0
   25.8962  -22.0553  -13.7480 C   0  0  0  0  0  0  0  0  0  0  0  0
   25.5451  -23.1951  -13.3061 O   0  0  0  0  0  0  0  0  0  0  0  0
   29.8836  -20.5041  -20.2442 N   0  0  0  0  0  0  0  0  0  0  0  0
   25.5852  -20.9254  -12.9884 C   0  0  2  0  0  0  0  0  0  0  0  0
   24.8237  -20.9228  -11.7593 C   0  0  0  0  0  0  0  0  0  0  0  0
   25.4912  -19.9582  -10.8057 C   0  0  0  0  0  0  0  0  0  0  0  0
   26.7595  -20.4668  -10.2804 C   0  0  0  0  0  0  0  0  0  0  0  0
   27.7280  -21.1855  -10.9389 N   0  0  0  0  0  0  0  0  0  0  0  0
   28.7412  -21.4509  -10.0677 C   0  0  0  0  0  0  0  0  0  0  0  0
   28.4573  -20.9220   -8.8555 C   0  0  0  0  0  0  0  0  0  0  0  0
   29.1039  -20.8849   -7.6385 C   0  0  0  0  0  0  0  0  0  0  0  0
   28.5220  -20.2432   -6.5708 C   0  0  0  0  0  0  0  0  0  0  0  0
   27.3002  -19.6362   -6.7015 C   0  0  0  0  0  0  0  0  0  0  0  0
   26.6438  -19.6667   -7.9130 C   0  0  0  0  0  0  0  0  0  0  0  0
   27.2087  -20.3024   -8.9904 C   0  0  0  0  0  0  0  0  0  0  0  0
   23.4049  -20.5639  -11.9821 O   0  0  0  0  0  0  0  0  0  0  0  0
   23.0915  -19.3583  -12.1394 C   0  0  0  0  0  0  0  0  0  0  0  0
   21.0503  -23.4663  -13.7772 C   0  0  2  0  0  0  0  0  0  0  0  0
   20.7949  -21.9937  -13.8121 C   0  0  0  0  0  0  0  0  0  0  0  0
   19.4093  -21.7382  -14.3330 C   0  0  1  0  0  0  0  0  0  0  0  0
   21.0538  -21.2886  -12.5147 N   0  0  0  0  0  0  0  0  0  0  0  0
   22.3993  -21.5386  -12.0217 C   0  0  0  0  0  0  0  0  0  0  0  0
   20.0523  -21.5488  -11.4683 O   0  0  0  0  0  0  0  0  0  0  0  0
   20.3856  -22.2024  -10.3054 O   0  0  0  0  0  0  0  0  0  0  0  0
  2  1  1  0
  2  4  1  0
  3  2  2  0
  5  4  1  0
  6  5  1  0
  7  6  1  0
  8  7  1  0
  8  9  1  1
 10  8  1  0
 10 12  1  0
 11 10  2  0
 13 12  1  0
 13 14  1  1
 15 14  1  0
 15 16  2  0
 17 16  1  0
 18 23  2  0
 18 17  1  0
 19 18  1  0
 20 19  2  0
 21 20  1  0
 21 22  2  0
 22 23  1  0
 23 15  1  0
 24 13  1  0
 25 24  2  0
 27 26  1  6
 27 28  1  0
 29 30  1  6
 29 27  1  0
 30 24  1  0
 31 29  1  0
 32 31  1  0
 33 31  2  0
M  END
$$$$
