RWV.pdb
     RDKit          3D

 33 34  0  0  1  0  0  0  0  0999 V2000
   27.7705  -21.1670  -22.3344 N   0  0  0  0  0  0  0  0  0  0  0  0
   26.5111  -21.1446  -21.6356 C   0  0  0  0  0  0  0  0  0  0  0  0
   25.5440  -20.4077  -22.0484 N   0  0  0  0  0  0  0  0  0  0  0  0
   26.3416  -21.9473  -20.4778 N   0  0  0  0  0  0  0  0  0  0  0  0
   27.4797  -22.7011  -19.9754 C   0  0  0  0  0  0  0  0  0  0  0  0
   26.9354  -23.9471  -19.3140 C   0  0  0  0  0  0  0  0  0  0  0  0
   26.0459  -23.6776  -18.1481 C   0  0  0  0  0  0  0  0  0  0  0  0
   26.8123  -23.6908  -16.8456 C   0  0  2  0  0  0  0  0  0  0  0  0
   27.6129  -24.8986  -16.8183 N   0  0  0  0  0  0  0  0  0  0  0  0
   25.8928  -23.6689  -15.6724 C   0  0  0  0  0  0  0  0  0  0  0  0
   25.3983  -24.7441  -15.2065 O   0  0  0  0  0  0  0  0  0  0  0  0
   24.6036  -20.3814  -21.6105 N   0  0  0  0  0  0  0  0  0  0  0  0
   25.5531  -22.4622  -15.0572 C   0  0  2  0  0  0  0  0  0  0  0  0
   24.6770  -22.3183  -13.9160 C   0  0  0  0  0  0  0  0  0  0  0  0
   25.0659  -21.0484  -13.1937 C   0  0  0  0  0  0  0  0  0  0  0  0
   24.3911  -20.9012  -11.9028 C   0  0  0  0  0  0  0  0  0  0  0  0
   24.7767  -21.3915  -10.6785 N   0  0  0  0  0  0  0  0  0  0  0  0
   23.8537  -21.0169   -9.7492 C   0  0  0  0  0  0  0  0  0  0  0  0
   22.8743  -20.2931  -10.3378 C   0  0  0  0  0  0  0  0  0  0  0  0
   21.7232  -19.6778   -9.8938 C   0  0  0  0  0  0  0  0  0  0  0  0
   20.9203  -19.0006  -10.7810 C   0  0  0  0  0  0  0  0  0  0  0  0
   21.2513  -18.9290  -12.1090 C   0  0  0  0  0  0  0  0  0  0  0  0
   22.3992  -19.5403  -12.5651 C   0  0  0  0  0  0  0  0  0  0  0  0
   23.2135  -20.2208  -11.6946 C   0  0  0  0  0  0  0  0  0  0  0  0
   23.2494  -22.2991  -14.3067 O   0  0  0  0  0  0  0  0  0  0  0  0
   22.8811  -21.5706  -15.2606 C   0  0  0  0  0  0  0  0  0  0  0  0
   18.8644  -24.4738  -14.4709 C   0  0  2  0  0  0  0  0  0  0  0  0
   20.3229  -24.4316  -14.1454 C   0  0  0  0  0  0  0  0  0  0  0  0
   21.0889  -25.2085  -15.1779 C   0  0  1  0  0  0  0  0  0  0  0  0
   20.8743  -23.0516  -13.9472 N   0  0  0  0  0  0  0  0  0  0  0  0
   22.2951  -23.0758  -13.6365 C   0  0  0  0  0  0  0  0  0  0  0  0
   20.1354  -22.2335  -12.9723 O   0  0  0  0  0  0  0  0  0  0  0  0
   19.2221  -21.2888  -13.3770 O   0  0  0  0  0  0  0  0  0  0  0  0
  2  1  1  0
  2  4  1  0
  3  2  2  0
  5  4  1  0
  6  5  1  0
  7  6  1  0
  8  7  1  0
  8  9  1  1
 10  8  1  0
 10 12  1  0
 11 10  2  0
 13 12  1  0
 13 14  1  1
 15 14  1  0
 15 16  2  0
 17 16  1  0
 18 23  2  0
 18 17  1  0
 19 18  1  0
 20 19  2  0
 21 20  1  0
 21 22  2  0
 22 23  1  0
 23 15  1  0
 24 13  1  0
 25 24  2  0
 27 26  1  1
 27 28  1  0
 29 30  1  1
 29 27  1  0
 30 24  1  0
 31 29  1  0
 32 31  1  0
 33 31  2  0
M  END
$$$$
