RWV.pdb
     RDKit          3D

 33 34  0  0  1  0  0  0  0  0999 V2000
   29.6570  -22.7972  -15.8188 N   0  0  0  0  0  0  0  0  0  0  0  0
   29.2337  -21.6058  -16.5091 C   0  0  0  0  0  0  0  0  0  0  0  0
   28.9847  -21.6299  -17.7685 N   0  0  0  0  0  0  0  0  0  0  0  0
   29.0919  -20.3936  -15.7853 N   0  0  0  0  0  0  0  0  0  0  0  0
   29.0377  -20.4475  -14.3326 C   0  0  0  0  0  0  0  0  0  0  0  0
   28.2743  -21.6979  -13.9586 C   0  0  0  0  0  0  0  0  0  0  0  0
   27.8205  -21.7315  -12.5386 C   0  0  0  0  0  0  0  0  0  0  0  0
   26.3731  -21.3179  -12.4046 C   0  0  2  0  0  0  0  0  0  0  0  0
   26.3000  -19.8897  -12.6392 N   0  0  0  0  0  0  0  0  0  0  0  0
   25.8398  -21.6340  -11.0488 C   0  0  0  0  0  0  0  0  0  0  0  0
   26.0029  -22.7845  -10.5317 O   0  0  0  0  0  0  0  0  0  0  0  0
   28.7074  -20.7982  -18.3236 N   0  0  0  0  0  0  0  0  0  0  0  0
   25.1466  -20.6696  -10.3144 C   0  0  1  0  0  0  0  0  0  0  0  0
   24.4890  -20.8916   -9.0460 C   0  0  0  0  0  0  0  0  0  0  0  0
   24.7373  -19.6780   -8.1794 C   0  0  0  0  0  0  0  0  0  0  0  0
   26.1512  -19.5010   -7.8436 C   0  0  0  0  0  0  0  0  0  0  0  0
   27.1576  -18.9955   -8.6308 N   0  0  0  0  0  0  0  0  0  0  0  0
   28.3183  -19.0121   -7.9176 C   0  0  0  0  0  0  0  0  0  0  0  0
   28.0935  -19.5163   -6.6827 C   0  0  0  0  0  0  0  0  0  0  0  0
   28.8797  -19.7578   -5.5763 C   0  0  0  0  0  0  0  0  0  0  0  0
   28.3212  -20.2963   -4.4411 C   0  0  0  0  0  0  0  0  0  0  0  0
   26.9851  -20.5979   -4.3950 C   0  0  0  0  0  0  0  0  0  0  0  0
   26.1888  -20.3613   -5.4947 C   0  0  0  0  0  0  0  0  0  0  0  0
   26.7281  -19.8242   -6.6370 C   0  0  0  0  0  0  0  0  0  0  0  0
   23.0404  -21.1511   -9.2058 O   0  0  0  0  0  0  0  0  0  0  0  0
   22.4303  -20.6578  -10.1860 C   0  0  0  0  0  0  0  0  0  0  0  0
   20.4699  -22.9788   -6.0651 C   0  0  2  0  0  0  0  0  0  0  0  0
   20.5166  -23.3795   -7.5046 C   0  0  0  0  0  0  0  0  0  0  0  0
   19.2058  -24.0014   -7.8939 C   0  0  1  0  0  0  0  0  0  0  0  0
   20.9257  -22.2822   -8.4407 N   0  0  0  0  0  0  0  0  0  0  0  0
   22.3301  -21.9356   -8.2876 C   0  0  0  0  0  0  0  0  0  0  0  0
   20.0771  -21.0814   -8.3813 O   0  0  0  0  0  0  0  0  0  0  0  0
   18.7599  -21.1159   -8.7742 O   0  0  0  0  0  0  0  0  0  0  0  0
  2  1  1  0
  2  4  1  0
  3  2  2  0
  5  4  1  0
  6  5  1  0
  7  6  1  0
  8  7  1  0
  8  9  1  1
 10  8  1  0
 10 12  1  0
 11 10  2  0
 13 12  1  0
 13 14  1  1
 15 14  1  0
 15 16  2  0
 17 16  1  0
 18 23  2  0
 18 17  1  0
 19 18  1  0
 20 19  2  0
 21 20  1  0
 21 22  2  0
 22 23  1  0
 23 15  1  0
 24 13  1  0
 25 24  2  0
 27 26  1  1
 27 28  1  0
 29 30  1  1
 29 27  1  0
 30 24  1  0
 31 29  1  0
 32 31  1  0
 33 31  2  0
M  END
$$$$
