RWV.pdb
     RDKit          3D

 33 34  0  0  1  0  0  0  0  0999 V2000
   27.0848  -20.0237  -18.9668 N   0  0  0  0  0  0  0  0  0  0  0  0
   27.2695  -18.5952  -18.9856 C   0  0  0  0  0  0  0  0  0  0  0  0
   26.7255  -17.8746  -19.8986 N   0  0  0  0  0  0  0  0  0  0  0  0
   28.0627  -17.9813  -17.9820 N   0  0  0  0  0  0  0  0  0  0  0  0
   28.6284  -18.8123  -16.9305 C   0  0  0  0  0  0  0  0  0  0  0  0
   27.5077  -19.1478  -15.9726 C   0  0  0  0  0  0  0  0  0  0  0  0
   27.9257  -19.2016  -14.5423 C   0  0  0  0  0  0  0  0  0  0  0  0
   28.1968  -20.6187  -14.0923 C   0  0  2  0  0  0  0  0  0  0  0  0
   27.9350  -21.4950  -15.2165 N   0  0  0  0  0  0  0  0  0  0  0  0
   27.3280  -21.0004  -12.9426 C   0  0  0  0  0  0  0  0  0  0  0  0
   26.2144  -21.5863  -13.1281 O   0  0  0  0  0  0  0  0  0  0  0  0
   26.8640  -16.8505  -19.9923 N   0  0  0  0  0  0  0  0  0  0  0  0
   27.7198  -20.7216  -11.6315 C   0  0  2  0  0  0  0  0  0  0  0  0
   26.8980  -20.8937  -10.4544 C   0  0  0  0  0  0  0  0  0  0  0  0
   27.6756  -20.3691   -9.2687 C   0  0  0  0  0  0  0  0  0  0  0  0
   26.9883  -20.5939   -7.9958 C   0  0  0  0  0  0  0  0  0  0  0  0
   25.7570  -21.1646   -7.7810 N   0  0  0  0  0  0  0  0  0  0  0  0
   25.5092  -21.1741   -6.4414 C   0  0  0  0  0  0  0  0  0  0  0  0
   26.5501  -20.6231   -5.7761 C   0  0  0  0  0  0  0  0  0  0  0  0
   26.8330  -20.3803   -4.4488 C   0  0  0  0  0  0  0  0  0  0  0  0
   28.0213  -19.7844   -4.0977 C   0  0  0  0  0  0  0  0  0  0  0  0
   28.9337  -19.4265   -5.0557 C   0  0  0  0  0  0  0  0  0  0  0  0
   28.6622  -19.6638   -6.3860 C   0  0  0  0  0  0  0  0  0  0  0  0
   27.4814  -20.2578   -6.7561 C   0  0  0  0  0  0  0  0  0  0  0  0
   25.5893  -20.2138  -10.5827 O   0  0  0  0  0  0  0  0  0  0  0  0
   25.5348  -18.9619  -10.5052 C   0  0  0  0  0  0  0  0  0  0  0  0
   23.7063  -20.0954  -13.5367 C   0  0  2  0  0  0  0  0  0  0  0  0
   22.7154  -20.5577  -12.5174 C   0  0  0  0  0  0  0  0  0  0  0  0
   22.3714  -21.9979  -12.7708 C   0  0  2  0  0  0  0  0  0  0  0  0
   23.1271  -20.3128  -11.0968 N   0  0  0  0  0  0  0  0  0  0  0  0
   24.4056  -20.9345  -10.7888 C   0  0  0  0  0  0  0  0  0  0  0  0
   22.1106  -20.6744  -10.0959 O   0  0  0  0  0  0  0  0  0  0  0  0
   22.3261  -21.6864   -9.1904 O   0  0  0  0  0  0  0  0  0  0  0  0
  2  1  1  0
  2  4  1  0
  3  2  2  0
  5  4  1  0
  6  5  1  0
  7  6  1  0
  8  7  1  0
  8  9  1  6
 10  8  1  0
 10 12  1  0
 11 10  2  0
 13 12  1  0
 13 14  1  1
 15 14  1  0
 15 16  2  0
 17 16  1  0
 18 23  2  0
 18 17  1  0
 19 18  1  0
 20 19  2  0
 21 20  1  0
 21 22  2  0
 22 23  1  0
 23 15  1  0
 24 13  1  0
 25 24  2  0
 27 26  1  6
 27 28  1  0
 29 30  1  1
 29 27  1  0
 30 24  1  0
 31 29  1  0
 32 31  1  0
 33 31  2  0
M  END
$$$$
