RWV.pdb
     RDKit          3D

 33 34  0  0  1  0  0  0  0  0999 V2000
   24.8231  -18.9382  -17.9738 N   0  0  0  0  0  0  0  0  0  0  0  0
   26.0796  -18.3143  -18.3008 C   0  0  0  0  0  0  0  0  0  0  0  0
   26.1957  -17.5806  -19.3481 N   0  0  0  0  0  0  0  0  0  0  0  0
   27.1997  -18.5157  -17.4533 N   0  0  0  0  0  0  0  0  0  0  0  0
   26.9986  -19.1726  -16.1710 C   0  0  0  0  0  0  0  0  0  0  0  0
   28.3490  -19.2627  -15.4969 C   0  0  0  0  0  0  0  0  0  0  0  0
   28.2849  -19.2841  -14.0073 C   0  0  0  0  0  0  0  0  0  0  0  0
   27.4798  -20.4580  -13.4995 C   0  0  2  0  0  0  0  0  0  0  0  0
   26.5689  -20.8560  -14.5541 N   0  0  0  0  0  0  0  0  0  0  0  0
   26.7081  -20.1000  -12.2753 C   0  0  0  0  0  0  0  0  0  0  0  0
   26.0281  -19.0266  -12.2191 O   0  0  0  0  0  0  0  0  0  0  0  0
   27.0552  -17.0567  -19.6002 N   0  0  0  0  0  0  0  0  0  0  0  0
   26.7153  -20.9391  -11.1590 C   0  0  1  0  0  0  0  0  0  0  0  0
   26.0688  -20.6625   -9.8957 C   0  0  0  0  0  0  0  0  0  0  0  0
   24.8462  -21.5466   -9.8004 C   0  0  0  0  0  0  0  0  0  0  0  0
   23.7649  -21.1163  -10.6886 C   0  0  0  0  0  0  0  0  0  0  0  0
   23.6577  -21.2901  -12.0474 N   0  0  0  0  0  0  0  0  0  0  0  0
   22.4877  -20.7323  -12.4667 C   0  0  0  0  0  0  0  0  0  0  0  0
   21.8278  -20.1985  -11.4135 C   0  0  0  0  0  0  0  0  0  0  0  0
   20.6328  -19.5293  -11.2562 C   0  0  0  0  0  0  0  0  0  0  0  0
   20.2413  -19.1066  -10.0078 C   0  0  0  0  0  0  0  0  0  0  0  0
   21.0284  -19.3432   -8.9112 C   0  0  0  0  0  0  0  0  0  0  0  0
   22.2255  -20.0109   -9.0556 C   0  0  0  0  0  0  0  0  0  0  0  0
   22.6332  -20.4408  -10.2937 C   0  0  0  0  0  0  0  0  0  0  0  0
   26.9765  -20.8740   -8.7456 O   0  0  0  0  0  0  0  0  0  0  0  0
   27.6135  -21.9519   -8.6533 C   0  0  0  0  0  0  0  0  0  0  0  0
   29.0856  -18.9291   -4.6407 C   0  0  2  0  0  0  0  0  0  0  0  0
   28.3691  -18.7960   -5.9460 C   0  0  0  0  0  0  0  0  0  0  0  0
   29.1975  -17.9718   -6.8900 C   0  0  1  0  0  0  0  0  0  0  0  0
   27.9404  -20.0978   -6.5536 N   0  0  0  0  0  0  0  0  0  0  0  0
   27.1431  -19.8985   -7.7537 C   0  0  0  0  0  0  0  0  0  0  0  0
   27.2673  -21.0147   -5.6199 O   0  0  0  0  0  0  0  0  0  0  0  0
   27.9769  -21.7366   -4.6894 O   0  0  0  0  0  0  0  0  0  0  0  0
  2  1  1  0
  2  4  1  0
  3  2  2  0
  5  4  1  0
  6  5  1  0
  7  6  1  0
  8  7  1  0
  8  9  1  6
 10  8  1  0
 10 12  1  0
 11 10  2  0
 13 12  1  0
 13 14  1  1
 15 14  1  0
 15 16  2  0
 17 16  1  0
 18 23  2  0
 18 17  1  0
 19 18  1  0
 20 19  2  0
 21 20  1  0
 21 22  2  0
 22 23  1  0
 23 15  1  0
 24 13  1  0
 25 24  2  0
 27 26  1  1
 27 28  1  0
 29 30  1  1
 29 27  1  0
 30 24  1  0
 31 29  1  0
 32 31  1  0
 33 31  2  0
M  END
$$$$
