RWV.pdb
     RDKit          3D

 33 34  0  0  1  0  0  0  0  0999 V2000
   29.4134  -22.4109  -17.3629 N   0  0  0  0  0  0  0  0  0  0  0  0
   29.4844  -21.2861  -18.2600 C   0  0  0  0  0  0  0  0  0  0  0  0
   30.5272  -21.0871  -18.9824 N   0  0  0  0  0  0  0  0  0  0  0  0
   28.3875  -20.3900  -18.3431 N   0  0  0  0  0  0  0  0  0  0  0  0
   27.1406  -20.7463  -17.6841 C   0  0  0  0  0  0  0  0  0  0  0  0
   27.3348  -20.5159  -16.2024 C   0  0  0  0  0  0  0  0  0  0  0  0
   26.1715  -20.9271  -15.3653 C   0  0  0  0  0  0  0  0  0  0  0  0
   26.5365  -22.0390  -14.4089 C   0  0  2  0  0  0  0  0  0  0  0  0
   26.1883  -23.2955  -15.0415 N   0  0  0  0  0  0  0  0  0  0  0  0
   25.8067  -21.9064  -13.1158 C   0  0  0  0  0  0  0  0  0  0  0  0
   24.5815  -22.2336  -13.0176 O   0  0  0  0  0  0  0  0  0  0  0  0
   30.6474  -20.2786  -19.6217 N   0  0  0  0  0  0  0  0  0  0  0  0
   26.4553  -21.4179  -11.9797 C   0  0  2  0  0  0  0  0  0  0  0  0
   25.8396  -21.1976  -10.6901 C   0  0  0  0  0  0  0  0  0  0  0  0
   26.9337  -20.8297   -9.7138 C   0  0  0  0  0  0  0  0  0  0  0  0
   26.4683  -20.7988   -8.3261 C   0  0  0  0  0  0  0  0  0  0  0  0
   25.3113  -21.3239   -7.8031 N   0  0  0  0  0  0  0  0  0  0  0  0
   25.2812  -21.0652   -6.4660 C   0  0  0  0  0  0  0  0  0  0  0  0
   26.3918  -20.3836   -6.1031 C   0  0  0  0  0  0  0  0  0  0  0  0
   26.8730  -19.8762   -4.9150 C   0  0  0  0  0  0  0  0  0  0  0  0
   28.0769  -19.2128   -4.8889 C   0  0  0  0  0  0  0  0  0  0  0  0
   28.8093  -19.0483   -6.0356 C   0  0  0  0  0  0  0  0  0  0  0  0
   28.3386  -19.5507   -7.2296 C   0  0  0  0  0  0  0  0  0  0  0  0
   27.1390  -20.2160   -7.2756 C   0  0  0  0  0  0  0  0  0  0  0  0
   24.7920  -20.1530  -10.7426 O   0  0  0  0  0  0  0  0  0  0  0  0
   24.9514  -19.1573  -11.4905 C   0  0  0  0  0  0  0  0  0  0  0  0
   22.8627  -20.0167  -12.9439 C   0  0  1  0  0  0  0  0  0  0  0  0
   22.3531  -19.2111  -11.7924 C   0  0  0  0  0  0  0  0  0  0  0  0
   21.0316  -18.5970  -12.1570 C   0  0  1  0  0  0  0  0  0  0  0  0
   22.2950  -19.9555  -10.4923 N   0  0  0  0  0  0  0  0  0  0  0  0
   23.6232  -20.2473   -9.9759 C   0  0  0  0  0  0  0  0  0  0  0  0
   21.4622  -21.1684  -10.5204 O   0  0  0  0  0  0  0  0  0  0  0  0
   22.0251  -22.4224  -10.5547 O   0  0  0  0  0  0  0  0  0  0  0  0
  2  1  1  0
  2  4  1  0
  3  2  2  0
  5  4  1  0
  6  5  1  0
  7  6  1  0
  8  7  1  0
  8  9  1  6
 10  8  1  0
 10 12  1  0
 11 10  2  0
 13 12  1  0
 13 14  1  1
 15 14  1  0
 15 16  2  0
 17 16  1  0
 18 23  2  0
 18 17  1  0
 19 18  1  0
 20 19  2  0
 21 20  1  0
 21 22  2  0
 22 23  1  0
 23 15  1  0
 24 13  1  0
 25 24  2  0
 27 26  1  6
 27 28  1  0
 29 30  1  6
 29 27  1  0
 30 24  1  0
 31 29  1  0
 32 31  1  0
 33 31  2  0
M  END
$$$$
