VFL.pdb
     RDKit          3D

 27 27  0  0  1  0  0  0  0  0999 V2000
    8.5211  -16.6036   18.1476 C   0  0  0  0  0  0  0  0  0  0  0  0
    8.7099  -15.6953   19.3266 C   0  0  1  0  0  0  0  0  0  0  0  0
    7.7119  -14.5907   19.4400 C   0  0  0  0  0  0  0  0  0  0  0  0
    8.9585  -16.4297   20.6229 C   0  0  2  0  0  0  0  0  0  0  0  0
    7.8459  -17.3771   20.7765 N   0  0  0  0  0  0  0  0  0  0  0  0
    9.1043  -15.5877   21.8021 C   0  0  0  0  0  0  0  0  0  0  0  0
   10.1886  -14.9528   21.9645 O   0  0  0  0  0  0  0  0  0  0  0  0
    8.0809  -15.4630   22.7542 N   0  0  0  0  0  0  0  0  0  0  0  0
    8.2535  -14.6355   23.9787 C   0  0  1  0  0  0  0  0  0  0  0  0
    6.9767  -13.8862   24.1065 C   0  0  0  0  0  0  0  0  0  0  0  0
    6.7800  -13.0543   25.2787 C   0  0  0  0  0  0  0  0  0  0  0  0
    5.8321  -13.3828   26.2180 C   0  0  0  0  0  0  0  0  0  0  0  0
    5.6312  -12.5867   27.3435 C   0  0  0  0  0  0  0  0  0  0  0  0
    6.3865  -11.4395   27.5439 C   0  0  0  0  0  0  0  0  0  0  0  0
    7.3264  -11.1089   26.6187 C   0  0  0  0  0  0  0  0  0  0  0  0
    7.5261  -11.8972   25.5025 C   0  0  0  0  0  0  0  0  0  0  0  0
    8.5706  -15.5708   25.0755 C   0  0  0  0  0  0  0  0  0  0  0  0
    8.8329  -15.0722   26.2323 O   0  0  0  0  0  0  0  0  0  0  0  0
    7.8160  -20.2938   24.0177 C   0  0  0  0  0  0  0  0  0  0  0  0
    7.1639  -19.3743   24.9890 C   0  0  1  0  0  0  0  0  0  0  0  0
    5.7443  -19.8469   25.3404 C   0  0  0  0  0  0  0  0  0  0  0  0
    7.9271  -19.0067   26.1962 C   0  0  0  0  0  0  0  0  0  0  0  0
    8.8273  -17.7998   26.1085 C   0  0  2  0  0  0  0  0  0  0  0  0
    8.5997  -16.9939   24.9362 N   0  0  0  0  0  0  0  0  0  0  0  0
   10.2504  -18.1551   26.3213 C   0  0  0  0  0  0  0  0  0  0  0  0
   10.6224  -18.8045   27.3233 O   0  0  0  0  0  0  0  0  0  0  0  0
   11.2042  -17.7737   25.4098 O   0  0  0  0  0  0  0  0  0  0  0  0
  2  3  1  1
  2  1  1  0
  4  5  1  1
  4  2  1  0
  6  4  1  0
  7  6  2  0
  8  6  1  0
  9  8  1  0
  9 10  1  1
 10 11  1  0
 11 16  2  0
 12 11  1  0
 12 13  2  0
 13 14  1  0
 14 15  2  0
 16 15  1  0
 17 18  2  0
 17  9  1  0
 20 19  1  1
 20 22  1  0
 20 21  1  0
 23 22  1  6
 23 24  1  0
 24 17  1  0
 25 23  1  0
 26 25  2  0
 27 25  1  0
M  END
$$$$
