VFL.pdb
     RDKit          3D

 27 27  0  0  1  0  0  0  0  0999 V2000
   10.9291  -19.8586   19.7848 C   0  0  0  0  0  0  0  0  0  0  0  0
   10.9772  -18.9217   20.9557 C   0  0  1  0  0  0  0  0  0  0  0  0
   12.2221  -18.9986   21.7763 C   0  0  0  0  0  0  0  0  0  0  0  0
   10.5523  -17.5115   20.6205 C   0  0  2  0  0  0  0  0  0  0  0  0
   11.5521  -16.9965   19.6750 N   0  0  0  0  0  0  0  0  0  0  0  0
   10.3902  -16.6185   21.7594 C   0  0  0  0  0  0  0  0  0  0  0  0
   11.3909  -15.9482   22.1526 O   0  0  0  0  0  0  0  0  0  0  0  0
    9.1624  -16.4832   22.4255 N   0  0  0  0  0  0  0  0  0  0  0  0
    9.0017  -15.5606   23.5817 C   0  0  1  0  0  0  0  0  0  0  0  0
    7.5762  -15.1442   23.5323 C   0  0  0  0  0  0  0  0  0  0  0  0
    7.1038  -14.1853   24.5132 C   0  0  0  0  0  0  0  0  0  0  0  0
    7.4396  -12.8566   24.4101 C   0  0  0  0  0  0  0  0  0  0  0  0
    6.9963  -11.9294   25.3507 C   0  0  0  0  0  0  0  0  0  0  0  0
    6.2021  -12.3267   26.4174 C   0  0  0  0  0  0  0  0  0  0  0  0
    5.8658  -13.6397   26.5253 C   0  0  0  0  0  0  0  0  0  0  0  0
    6.3049  -14.5596   25.5935 C   0  0  0  0  0  0  0  0  0  0  0  0
    9.4171  -16.3146   24.7806 C   0  0  0  0  0  0  0  0  0  0  0  0
    9.5073  -17.5944   24.6832 O   0  0  0  0  0  0  0  0  0  0  0  0
    9.8479  -13.8351   29.8222 C   0  0  0  0  0  0  0  0  0  0  0  0
   10.0537  -14.4057   28.4633 C   0  0  1  0  0  0  0  0  0  0  0  0
   10.8950  -13.4672   27.5839 C   0  0  0  0  0  0  0  0  0  0  0  0
   10.5264  -15.7998   28.3749 C   0  0  0  0  0  0  0  0  0  0  0  0
   10.2509  -16.5471   27.0942 C   0  0  2  0  0  0  0  0  0  0  0  0
    9.7301  -15.7140   26.0404 N   0  0  0  0  0  0  0  0  0  0  0  0
    9.4566  -17.7758   27.3310 C   0  0  0  0  0  0  0  0  0  0  0  0
    9.8375  -18.6603   28.1290 O   0  0  0  0  0  0  0  0  0  0  0  0
    8.2688  -17.9719   26.6703 O   0  0  0  0  0  0  0  0  0  0  0  0
  2  3  1  6
  2  1  1  0
  4  5  1  6
  4  2  1  0
  6  4  1  0
  7  6  2  0
  8  6  1  0
  9  8  1  0
  9 10  1  1
 10 11  1  0
 11 16  2  0
 12 11  1  0
 12 13  2  0
 13 14  1  0
 14 15  2  0
 16 15  1  0
 17 18  2  0
 17  9  1  0
 20 19  1  1
 20 22  1  0
 20 21  1  0
 23 22  1  1
 23 24  1  0
 24 17  1  0
 25 23  1  0
 26 25  2  0
 27 25  1  0
M  END
$$$$
