VFL.pdb
     RDKit          3D

 27 27  0  0  1  0  0  0  0  0999 V2000
    2.4888  -20.0563   21.6559 C   0  0  0  0  0  0  0  0  0  0  0  0
    3.1618  -18.7703   22.0357 C   0  0  1  0  0  0  0  0  0  0  0  0
    2.3541  -17.8677   22.9086 C   0  0  0  0  0  0  0  0  0  0  0  0
    4.5899  -18.9472   22.4949 C   0  0  2  0  0  0  0  0  0  0  0  0
    4.5333  -19.8016   23.6888 N   0  0  0  0  0  0  0  0  0  0  0  0
    5.3203  -17.7152   22.7588 C   0  0  0  0  0  0  0  0  0  0  0  0
    5.3385  -16.8169   21.8654 O   0  0  0  0  0  0  0  0  0  0  0  0
    5.9978  -17.5006   23.9689 N   0  0  0  0  0  0  0  0  0  0  0  0
    6.8377  -16.2920   24.1870 C   0  0  1  0  0  0  0  0  0  0  0  0
    6.6678  -15.9740   25.6285 C   0  0  0  0  0  0  0  0  0  0  0  0
    6.9433  -14.6207   26.0730 C   0  0  0  0  0  0  0  0  0  0  0  0
    8.2294  -14.2249   26.3525 C   0  0  0  0  0  0  0  0  0  0  0  0
    8.5032  -12.9296   26.7863 C   0  0  0  0  0  0  0  0  0  0  0  0
    7.4804  -12.0050   26.9466 C   0  0  0  0  0  0  0  0  0  0  0  0
    6.2057  -12.3899   26.6716 C   0  0  0  0  0  0  0  0  0  0  0  0
    5.9332  -13.6737   26.2417 C   0  0  0  0  0  0  0  0  0  0  0  0
    8.2040  -16.6477   23.7568 C   0  0  0  0  0  0  0  0  0  0  0  0
    9.1069  -16.7681   24.6655 O   0  0  0  0  0  0  0  0  0  0  0  0
    8.4284  -13.2902   19.4114 C   0  0  0  0  0  0  0  0  0  0  0  0
    8.7962  -13.3906   20.8498 C   0  0  1  0  0  0  0  0  0  0  0  0
    8.5177  -12.0739   21.5918 C   0  0  0  0  0  0  0  0  0  0  0  0
    8.2906  -14.5540   21.6019 C   0  0  0  0  0  0  0  0  0  0  0  0
    9.1644  -15.7823   21.6520 C   0  0  2  0  0  0  0  0  0  0  0  0
    8.5867  -16.8717   22.3970 N   0  0  0  0  0  0  0  0  0  0  0  0
   10.5538  -15.4564   22.0521 C   0  0  0  0  0  0  0  0  0  0  0  0
   11.5161  -15.6099   21.2681 O   0  0  0  0  0  0  0  0  0  0  0  0
   10.8178  -14.9719   23.3097 O   0  0  0  0  0  0  0  0  0  0  0  0
  2  3  1  1
  2  1  1  0
  4  5  1  1
  4  2  1  0
  6  4  1  0
  7  6  2  0
  8  6  1  0
  9  8  1  0
  9 10  1  1
 10 11  1  0
 11 16  2  0
 12 11  1  0
 12 13  2  0
 13 14  1  0
 14 15  2  0
 16 15  1  0
 17 18  2  0
 17  9  1  0
 20 19  1  6
 20 22  1  0
 20 21  1  0
 23 22  1  1
 23 24  1  0
 24 17  1  0
 25 23  1  0
 26 25  2  0
 27 25  1  0
M  END
$$$$
