VFL.pdb
     RDKit          3D

 27 27  0  0  1  0  0  0  0  0999 V2000
    8.4564  -19.4771   19.3076 C   0  0  0  0  0  0  0  0  0  0  0  0
    8.9772  -18.6024   20.4097 C   0  0  1  0  0  0  0  0  0  0  0  0
   10.3197  -18.9847   20.9395 C   0  0  0  0  0  0  0  0  0  0  0  0
    8.8279  -17.1252   20.1319 C   0  0  2  0  0  0  0  0  0  0  0  0
    9.6716  -16.8411   18.9631 N   0  0  0  0  0  0  0  0  0  0  0  0
    9.1494  -16.2428   21.2449 C   0  0  0  0  0  0  0  0  0  0  0  0
   10.3573  -15.9033   21.4213 O   0  0  0  0  0  0  0  0  0  0  0  0
    8.1617  -15.7628   22.1187 N   0  0  0  0  0  0  0  0  0  0  0  0
    8.5115  -14.9740   23.3308 C   0  0  1  0  0  0  0  0  0  0  0  0
    7.2696  -14.2287   23.6629 C   0  0  0  0  0  0  0  0  0  0  0  0
    7.2197  -13.4948   24.9134 C   0  0  0  0  0  0  0  0  0  0  0  0
    7.9432  -12.3375   25.0742 C   0  0  0  0  0  0  0  0  0  0  0  0
    7.9069  -11.6293   26.2734 C   0  0  0  0  0  0  0  0  0  0  0  0
    7.1364  -12.0770   27.3375 C   0  0  0  0  0  0  0  0  0  0  0  0
    6.4178  -13.2211   27.1852 C   0  0  0  0  0  0  0  0  0  0  0  0
    6.4532  -13.9240   25.9969 C   0  0  0  0  0  0  0  0  0  0  0  0
    8.9776  -15.9431   24.3417 C   0  0  0  0  0  0  0  0  0  0  0  0
    8.3328  -17.0510   24.4529 O   0  0  0  0  0  0  0  0  0  0  0  0
   13.8476  -19.0378   25.3041 C   0  0  0  0  0  0  0  0  0  0  0  0
   12.6603  -18.4513   25.9829 C   0  0  1  0  0  0  0  0  0  0  0  0
   12.9525  -18.1520   27.4618 C   0  0  0  0  0  0  0  0  0  0  0  0
   11.9904  -17.3158   25.3222 C   0  0  0  0  0  0  0  0  0  0  0  0
   10.6684  -16.8630   25.8898 C   0  0  2  0  0  0  0  0  0  0  0  0
   10.1014  -15.7319   25.2008 N   0  0  0  0  0  0  0  0  0  0  0  0
   10.7263  -16.6974   27.3616 C   0  0  0  0  0  0  0  0  0  0  0  0
   10.6151  -15.5745   27.9009 O   0  0  0  0  0  0  0  0  0  0  0  0
   10.9056  -17.7887   28.1757 O   0  0  0  0  0  0  0  0  0  0  0  0
  2  3  1  6
  2  1  1  0
  4  5  1  6
  4  2  1  0
  6  4  1  0
  7  6  2  0
  8  6  1  0
  9  8  1  0
  9 10  1  1
 10 11  1  0
 11 16  2  0
 12 11  1  0
 12 13  2  0
 13 14  1  0
 14 15  2  0
 16 15  1  0
 17 18  2  0
 17  9  1  0
 20 19  1  6
 20 22  1  0
 20 21  1  0
 23 22  1  6
 23 24  1  0
 24 17  1  0
 25 23  1  0
 26 25  2  0
 27 25  1  0
M  END
$$$$
