VFL.pdb
     RDKit          3D

 27 27  0  0  1  0  0  0  0  0999 V2000
    7.7700  -19.3099   19.3392 C   0  0  0  0  0  0  0  0  0  0  0  0
    8.3883  -18.4727   20.4198 C   0  0  1  0  0  0  0  0  0  0  0  0
    9.7593  -18.8910   20.8372 C   0  0  0  0  0  0  0  0  0  0  0  0
    8.2461  -16.9866   20.1901 C   0  0  2  0  0  0  0  0  0  0  0  0
    9.0124  -16.6852   18.9732 N   0  0  0  0  0  0  0  0  0  0  0  0
    8.6587  -16.1388   21.2999 C   0  0  0  0  0  0  0  0  0  0  0  0
    9.8620  -15.7449   21.3484 O   0  0  0  0  0  0  0  0  0  0  0  0
    7.7629  -15.7502   22.3079 N   0  0  0  0  0  0  0  0  0  0  0  0
    8.2104  -14.9533   23.4820 C   0  0  1  0  0  0  0  0  0  0  0  0
    6.9950  -14.2195   23.9207 C   0  0  0  0  0  0  0  0  0  0  0  0
    7.0772  -13.4027   25.1169 C   0  0  0  0  0  0  0  0  0  0  0  0
    6.1194  -13.5008   26.0976 C   0  0  0  0  0  0  0  0  0  0  0  0
    6.1860  -12.7159   27.2467 C   0  0  0  0  0  0  0  0  0  0  0  0
    7.2249  -11.8137   27.4292 C   0  0  0  0  0  0  0  0  0  0  0  0
    8.1761  -11.7118   26.4630 C   0  0  0  0  0  0  0  0  0  0  0  0
    8.1108  -12.4892   25.3235 C   0  0  0  0  0  0  0  0  0  0  0  0
    8.7743  -15.9138   24.4504 C   0  0  0  0  0  0  0  0  0  0  0  0
    8.0000  -16.8385   24.8986 O   0  0  0  0  0  0  0  0  0  0  0  0
   11.7360  -17.8076   23.4508 C   0  0  0  0  0  0  0  0  0  0  0  0
   12.3572  -18.0769   24.7759 C   0  0  1  0  0  0  0  0  0  0  0  0
   13.8860  -18.1886   24.6648 C   0  0  0  0  0  0  0  0  0  0  0  0
   11.9573  -17.2143   25.9031 C   0  0  0  0  0  0  0  0  0  0  0  0
   10.5125  -16.7871   25.9728 C   0  0  2  0  0  0  0  0  0  0  0  0
   10.1257  -15.8853   24.9179 N   0  0  0  0  0  0  0  0  0  0  0  0
   10.1403  -16.3151   27.3276 C   0  0  0  0  0  0  0  0  0  0  0  0
    9.6448  -15.1823   27.5152 O   0  0  0  0  0  0  0  0  0  0  0  0
   10.3340  -17.1231   28.4210 O   0  0  0  0  0  0  0  0  0  0  0  0
  2  3  1  6
  2  1  1  0
  4  5  1  6
  4  2  1  0
  6  4  1  0
  7  6  2  0
  8  6  1  0
  9  8  1  0
  9 10  1  1
 10 11  1  0
 11 16  2  0
 12 11  1  0
 12 13  2  0
 13 14  1  0
 14 15  2  0
 16 15  1  0
 17 18  2  0
 17  9  1  0
 20 19  1  6
 20 22  1  0
 20 21  1  0
 23 22  1  1
 23 24  1  0
 24 17  1  0
 25 23  1  0
 26 25  2  0
 27 25  1  0
M  END
$$$$
