VFL.pdb
     RDKit          3D

 27 27  0  0  1  0  0  0  0  0999 V2000
    6.6627  -22.5446   23.6379 C   0  0  0  0  0  0  0  0  0  0  0  0
    7.2918  -21.2083   23.9015 C   0  0  1  0  0  0  0  0  0  0  0  0
    8.7475  -21.2487   24.2306 C   0  0  0  0  0  0  0  0  0  0  0  0
    6.9244  -20.1549   22.8832 C   0  0  2  0  0  0  0  0  0  0  0  0
    7.3645  -20.6734   21.5807 N   0  0  0  0  0  0  0  0  0  0  0  0
    7.4637  -18.8257   23.1343 C   0  0  0  0  0  0  0  0  0  0  0  0
    8.6356  -18.5601   22.7328 O   0  0  0  0  0  0  0  0  0  0  0  0
    6.7223  -17.8401   23.8040 N   0  0  0  0  0  0  0  0  0  0  0  0
    7.3312  -16.5406   24.1967 C   0  0  1  0  0  0  0  0  0  0  0  0
    6.1939  -15.5844   24.2122 C   0  0  0  0  0  0  0  0  0  0  0  0
    6.4482  -14.2174   24.6263 C   0  0  0  0  0  0  0  0  0  0  0  0
    7.1706  -13.3668   23.8243 C   0  0  0  0  0  0  0  0  0  0  0  0
    7.4257  -12.0545   24.2163 C   0  0  0  0  0  0  0  0  0  0  0  0
    6.9544  -11.5732   25.4299 C   0  0  0  0  0  0  0  0  0  0  0  0
    6.2386  -12.4094   26.2282 C   0  0  0  0  0  0  0  0  0  0  0  0
    5.9854  -13.7105   25.8406 C   0  0  0  0  0  0  0  0  0  0  0  0
    8.0067  -16.7677   25.4892 C   0  0  0  0  0  0  0  0  0  0  0  0
    7.2834  -16.7622   26.5534 O   0  0  0  0  0  0  0  0  0  0  0  0
   10.7282  -13.3837   27.9998 C   0  0  0  0  0  0  0  0  0  0  0  0
   10.6866  -14.7940   28.4727 C   0  0  1  0  0  0  0  0  0  0  0  0
   10.3977  -14.8703   29.9802 C   0  0  0  0  0  0  0  0  0  0  0  0
    9.8519  -15.7426   27.7122 C   0  0  0  0  0  0  0  0  0  0  0  0
   10.2166  -15.9870   26.2693 C   0  0  2  0  0  0  0  0  0  0  0  0
    9.4109  -16.9981   25.6336 N   0  0  0  0  0  0  0  0  0  0  0  0
   11.6745  -16.1885   26.0941 C   0  0  0  0  0  0  0  0  0  0  0  0
   12.2835  -17.1153   26.6723 O   0  0  0  0  0  0  0  0  0  0  0  0
   12.3977  -15.3503   25.2816 O   0  0  0  0  0  0  0  0  0  0  0  0
  2  3  1  6
  2  1  1  0
  4  5  1  6
  4  2  1  0
  6  4  1  0
  7  6  2  0
  8  6  1  0
  9  8  1  0
  9 10  1  1
 10 11  1  0
 11 16  2  0
 12 11  1  0
 12 13  2  0
 13 14  1  0
 14 15  2  0
 16 15  1  0
 17 18  2  0
 17  9  1  0
 20 19  1  6
 20 22  1  0
 20 21  1  0
 23 22  1  1
 23 24  1  0
 24 17  1  0
 25 23  1  0
 26 25  2  0
 27 25  1  0
M  END
$$$$
