VFL.pdb
     RDKit          3D

 27 27  0  0  1  0  0  0  0  0999 V2000
    8.5226  -12.2966   19.3150 C   0  0  0  0  0  0  0  0  0  0  0  0
    8.0115  -13.6649   18.9724 C   0  0  1  0  0  0  0  0  0  0  0  0
    7.7798  -13.9074   17.5175 C   0  0  0  0  0  0  0  0  0  0  0  0
    8.7561  -14.7806   19.6669 C   0  0  2  0  0  0  0  0  0  0  0  0
    7.9948  -16.0087   19.4006 N   0  0  0  0  0  0  0  0  0  0  0  0
    8.9771  -14.5929   21.0941 C   0  0  0  0  0  0  0  0  0  0  0  0
   10.0015  -13.9493   21.4704 O   0  0  0  0  0  0  0  0  0  0  0  0
    8.0896  -15.1027   22.0543 N   0  0  0  0  0  0  0  0  0  0  0  0
    8.2801  -14.8416   23.5066 C   0  0  1  0  0  0  0  0  0  0  0  0
    7.1083  -14.0144   23.8945 C   0  0  0  0  0  0  0  0  0  0  0  0
    7.1255  -13.3585   25.1884 C   0  0  0  0  0  0  0  0  0  0  0  0
    7.8654  -12.2169   25.3838 C   0  0  0  0  0  0  0  0  0  0  0  0
    7.8936  -11.5836   26.6244 C   0  0  0  0  0  0  0  0  0  0  0  0
    7.1724  -12.0919   27.6959 C   0  0  0  0  0  0  0  0  0  0  0  0
    6.4379  -13.2209   27.5095 C   0  0  0  0  0  0  0  0  0  0  0  0
    6.4095  -13.8495   26.2802 C   0  0  0  0  0  0  0  0  0  0  0  0
    8.3885  -16.1610   24.1591 C   0  0  0  0  0  0  0  0  0  0  0  0
    7.8239  -17.1635   23.5832 O   0  0  0  0  0  0  0  0  0  0  0  0
   12.0802  -19.5352   23.8424 C   0  0  0  0  0  0  0  0  0  0  0  0
   12.2970  -18.1299   24.2810 C   0  0  1  0  0  0  0  0  0  0  0  0
   13.4970  -17.4972   23.5587 C   0  0  0  0  0  0  0  0  0  0  0  0
   11.1291  -17.2295   24.2827 C   0  0  0  0  0  0  0  0  0  0  0  0
   10.1360  -17.3816   25.4075 C   0  0  2  0  0  0  0  0  0  0  0  0
    9.0845  -16.3969   25.3862 N   0  0  0  0  0  0  0  0  0  0  0  0
   10.8063  -17.5105   26.7231 C   0  0  0  0  0  0  0  0  0  0  0  0
   10.8867  -18.6097   27.3142 O   0  0  0  0  0  0  0  0  0  0  0  0
   11.3613  -16.4103   27.3294 O   0  0  0  0  0  0  0  0  0  0  0  0
  2  3  1  6
  2  1  1  0
  4  5  1  1
  4  2  1  0
  6  4  1  0
  7  6  2  0
  8  6  1  0
  9  8  1  0
  9 10  1  1
 10 11  1  0
 11 16  2  0
 12 11  1  0
 12 13  2  0
 13 14  1  0
 14 15  2  0
 16 15  1  0
 17 18  2  0
 17  9  1  0
 20 19  1  6
 20 22  1  0
 20 21  1  0
 23 22  1  6
 23 24  1  0
 24 17  1  0
 25 23  1  0
 26 25  2  0
 27 25  1  0
M  END
$$$$
