VFL.pdb
     RDKit          3D

 27 27  0  0  1  0  0  0  0  0999 V2000
    8.6443  -15.6780   17.4587 C   0  0  0  0  0  0  0  0  0  0  0  0
    8.8955  -15.0193   18.7831 C   0  0  1  0  0  0  0  0  0  0  0  0
    7.8356  -14.0655   19.2260 C   0  0  0  0  0  0  0  0  0  0  0  0
    9.3438  -15.9781   19.8607 C   0  0  2  0  0  0  0  0  0  0  0  0
    8.3776  -17.0850   19.8517 N   0  0  0  0  0  0  0  0  0  0  0  0
    9.4806  -15.4046   21.1923 C   0  0  0  0  0  0  0  0  0  0  0  0
   10.3836  -14.5383   21.3905 O   0  0  0  0  0  0  0  0  0  0  0  0
    8.6426  -15.7846   22.2519 N   0  0  0  0  0  0  0  0  0  0  0  0
    8.6802  -15.0837   23.5638 C   0  0  1  0  0  0  0  0  0  0  0  0
    7.2528  -14.8468   23.9020 C   0  0  0  0  0  0  0  0  0  0  0  0
    6.9422  -13.9008   24.9572 C   0  0  0  0  0  0  0  0  0  0  0  0
    7.3937  -12.6045   24.8891 C   0  0  0  0  0  0  0  0  0  0  0  0
    7.1062  -11.6906   25.9006 C   0  0  0  0  0  0  0  0  0  0  0  0
    6.3543  -12.0685   27.0043 C   0  0  0  0  0  0  0  0  0  0  0  0
    5.9041  -13.3494   27.0779 C   0  0  0  0  0  0  0  0  0  0  0  0
    6.1887  -14.2562   26.0759 C   0  0  0  0  0  0  0  0  0  0  0  0
    9.4295  -15.9594   24.4858 C   0  0  0  0  0  0  0  0  0  0  0  0
    9.8167  -17.1042   24.0442 O   0  0  0  0  0  0  0  0  0  0  0  0
   10.1412  -14.4538   29.8541 C   0  0  0  0  0  0  0  0  0  0  0  0
   10.2993  -14.7385   28.4022 C   0  0  1  0  0  0  0  0  0  0  0  0
   11.0699  -13.6142   27.6922 C   0  0  0  0  0  0  0  0  0  0  0  0
   10.8085  -16.0690   28.0210 C   0  0  0  0  0  0  0  0  0  0  0  0
   10.4720  -16.5724   26.6397 C   0  0  2  0  0  0  0  0  0  0  0  0
    9.7567  -15.6151   25.8349 N   0  0  0  0  0  0  0  0  0  0  0  0
    9.8379  -17.9115   26.6785 C   0  0  0  0  0  0  0  0  0  0  0  0
    8.6809  -18.1030   26.2440 O   0  0  0  0  0  0  0  0  0  0  0  0
   10.5168  -18.9855   27.1995 O   0  0  0  0  0  0  0  0  0  0  0  0
  2  3  1  1
  2  1  1  0
  4  5  1  1
  4  2  1  0
  6  4  1  0
  7  6  2  0
  8  6  1  0
  9  8  1  0
  9 10  1  1
 10 11  1  0
 11 16  2  0
 12 11  1  0
 12 13  2  0
 13 14  1  0
 14 15  2  0
 16 15  1  0
 17 18  2  0
 17  9  1  0
 20 19  1  1
 20 22  1  0
 20 21  1  0
 23 22  1  1
 23 24  1  0
 24 17  1  0
 25 23  1  0
 26 25  2  0
 27 25  1  0
M  END
$$$$
