VFL.pdb
     RDKit          3D

 27 27  0  0  1  0  0  0  0  0999 V2000
    8.6386  -15.0618   17.2090 C   0  0  0  0  0  0  0  0  0  0  0  0
    8.9129  -14.4289   18.5413 C   0  0  1  0  0  0  0  0  0  0  0  0
    7.8851  -13.4473   18.9986 C   0  0  0  0  0  0  0  0  0  0  0  0
    9.3317  -15.4157   19.6054 C   0  0  2  0  0  0  0  0  0  0  0  0
    8.3815  -16.5334   19.5241 N   0  0  0  0  0  0  0  0  0  0  0  0
    9.4088  -14.8828   20.9585 C   0  0  0  0  0  0  0  0  0  0  0  0
   10.2872  -14.0072   21.2172 O   0  0  0  0  0  0  0  0  0  0  0  0
    8.5402  -15.3117   21.9740 N   0  0  0  0  0  0  0  0  0  0  0  0
    8.5461  -14.6806   23.3214 C   0  0  1  0  0  0  0  0  0  0  0  0
    7.1332  -14.2843   23.5546 C   0  0  0  0  0  0  0  0  0  0  0  0
    6.8309  -13.4554   24.7064 C   0  0  0  0  0  0  0  0  0  0  0  0
    6.1696  -13.9800   25.7909 C   0  0  0  0  0  0  0  0  0  0  0  0
    5.8690  -13.1905   26.8987 C   0  0  0  0  0  0  0  0  0  0  0  0
    6.2317  -11.8512   26.9337 C   0  0  0  0  0  0  0  0  0  0  0  0
    6.8865  -11.3258   25.8641 C   0  0  0  0  0  0  0  0  0  0  0  0
    7.1848  -12.1075   24.7654 C   0  0  0  0  0  0  0  0  0  0  0  0
    9.1017  -15.6829   24.2514 C   0  0  0  0  0  0  0  0  0  0  0  0
    9.1993  -16.8971   23.8368 O   0  0  0  0  0  0  0  0  0  0  0  0
   11.3609  -14.4167   29.5028 C   0  0  0  0  0  0  0  0  0  0  0  0
   10.5390  -15.1520   28.5038 C   0  0  1  0  0  0  0  0  0  0  0  0
    9.3132  -14.3305   28.0743 C   0  0  0  0  0  0  0  0  0  0  0  0
   11.2377  -15.7311   27.3413 C   0  0  0  0  0  0  0  0  0  0  0  0
   10.3894  -16.3413   26.2539 C   0  0  2  0  0  0  0  0  0  0  0  0
    9.5426  -15.3903   25.5802 N   0  0  0  0  0  0  0  0  0  0  0  0
    9.6724  -17.5500   26.7248 C   0  0  0  0  0  0  0  0  0  0  0  0
   10.2740  -18.4962   27.2789 O   0  0  0  0  0  0  0  0  0  0  0  0
    8.3133  -17.6581   26.5608 O   0  0  0  0  0  0  0  0  0  0  0  0
  2  3  1  1
  2  1  1  0
  4  5  1  1
  4  2  1  0
  6  4  1  0
  7  6  2  0
  8  6  1  0
  9  8  1  0
  9 10  1  1
 10 11  1  0
 11 16  2  0
 12 11  1  0
 12 13  2  0
 13 14  1  0
 14 15  2  0
 16 15  1  0
 17 18  2  0
 17  9  1  0
 20 19  1  6
 20 22  1  0
 20 21  1  0
 23 22  1  1
 23 24  1  0
 24 17  1  0
 25 23  1  0
 26 25  2  0
 27 25  1  0
M  END
$$$$
