VFL.pdb
     RDKit          3D

 27 27  0  0  1  0  0  0  0  0999 V2000
   10.8284  -19.1567   22.5928 C   0  0  0  0  0  0  0  0  0  0  0  0
   10.7091  -18.6331   21.1919 C   0  0  1  0  0  0  0  0  0  0  0  0
   10.6155  -19.6800   20.1315 C   0  0  0  0  0  0  0  0  0  0  0  0
    9.6963  -17.5222   21.0450 C   0  0  2  0  0  0  0  0  0  0  0  0
    9.8790  -16.9778   19.6926 N   0  0  0  0  0  0  0  0  0  0  0  0
    9.7664  -16.4732   22.0527 C   0  0  0  0  0  0  0  0  0  0  0  0
   10.7745  -15.7058   22.0611 O   0  0  0  0  0  0  0  0  0  0  0  0
    8.7523  -16.2929   23.0058 N   0  0  0  0  0  0  0  0  0  0  0  0
    8.8416  -15.2332   24.0465 C   0  0  1  0  0  0  0  0  0  0  0  0
    7.4858  -14.6260   24.0788 C   0  0  0  0  0  0  0  0  0  0  0  0
    7.1802  -13.6777   25.1334 C   0  0  0  0  0  0  0  0  0  0  0  0
    7.7170  -12.4127   25.1132 C   0  0  0  0  0  0  0  0  0  0  0  0
    7.4347  -11.4973   26.1248 C   0  0  0  0  0  0  0  0  0  0  0  0
    6.6017  -11.8421   27.1802 C   0  0  0  0  0  0  0  0  0  0  0  0
    6.0670  -13.0919   27.2062 C   0  0  0  0  0  0  0  0  0  0  0  0
    6.3463  -14.0001   26.2040 C   0  0  0  0  0  0  0  0  0  0  0  0
    9.2847  -15.8997   25.2866 C   0  0  0  0  0  0  0  0  0  0  0  0
    8.6726  -16.9742   25.6420 O   0  0  0  0  0  0  0  0  0  0  0  0
   12.5198  -16.5650   25.0198 C   0  0  0  0  0  0  0  0  0  0  0  0
   12.5344  -17.3372   26.2917 C   0  0  1  0  0  0  0  0  0  0  0  0
   13.9247  -17.9298   26.5705 C   0  0  0  0  0  0  0  0  0  0  0  0
   11.9726  -16.6861   27.4898 C   0  0  0  0  0  0  0  0  0  0  0  0
   10.5926  -16.0888   27.3735 C   0  0  2  0  0  0  0  0  0  0  0  0
   10.3527  -15.4309   26.1145 N   0  0  0  0  0  0  0  0  0  0  0  0
   10.2468  -15.2623   28.5541 C   0  0  0  0  0  0  0  0  0  0  0  0
    9.9269  -14.0584   28.4420 O   0  0  0  0  0  0  0  0  0  0  0  0
   10.2702  -15.8084   29.8139 O   0  0  0  0  0  0  0  0  0  0  0  0
  2  3  1  6
  2  1  1  0
  4  5  1  6
  4  2  1  0
  6  4  1  0
  7  6  2  0
  8  6  1  0
  9  8  1  0
  9 10  1  1
 10 11  1  0
 11 16  2  0
 12 11  1  0
 12 13  2  0
 13 14  1  0
 14 15  2  0
 16 15  1  0
 17 18  2  0
 17  9  1  0
 20 19  1  6
 20 22  1  0
 20 21  1  0
 23 22  1  1
 23 24  1  0
 24 17  1  0
 25 23  1  0
 26 25  2  0
 27 25  1  0
M  END
$$$$
