VFL.pdb
     RDKit          3D

 27 27  0  0  1  0  0  0  0  0999 V2000
   12.5716  -18.2321   19.9982 C   0  0  0  0  0  0  0  0  0  0  0  0
   11.2275  -17.9734   19.3837 C   0  0  1  0  0  0  0  0  0  0  0  0
   10.9670  -18.6979   18.1045 C   0  0  0  0  0  0  0  0  0  0  0  0
   10.0865  -18.0466   20.3708 C   0  0  2  0  0  0  0  0  0  0  0  0
    8.8635  -18.2045   19.5719 N   0  0  0  0  0  0  0  0  0  0  0  0
    9.9787  -16.9209   21.2884 C   0  0  0  0  0  0  0  0  0  0  0  0
   10.8136  -15.9732   21.1875 O   0  0  0  0  0  0  0  0  0  0  0  0
    8.9802  -16.8608   22.2727 N   0  0  0  0  0  0  0  0  0  0  0  0
    8.9541  -15.7750   23.2897 C   0  0  1  0  0  0  0  0  0  0  0  0
    7.5680  -15.2427   23.2325 C   0  0  0  0  0  0  0  0  0  0  0  0
    7.2046  -14.1678   24.1366 C   0  0  0  0  0  0  0  0  0  0  0  0
    7.6014  -12.8767   23.8831 C   0  0  0  0  0  0  0  0  0  0  0  0
    7.2629  -11.8389   24.7488 C   0  0  0  0  0  0  0  0  0  0  0  0
    6.5143  -12.0851   25.8914 C   0  0  0  0  0  0  0  0  0  0  0  0
    6.1181  -13.3602   26.1482 C   0  0  0  0  0  0  0  0  0  0  0  0
    6.4532  -14.3896   25.2907 C   0  0  0  0  0  0  0  0  0  0  0  0
    9.3621  -16.3885   24.5685 C   0  0  0  0  0  0  0  0  0  0  0  0
    8.6847  -17.3963   24.9937 O   0  0  0  0  0  0  0  0  0  0  0  0
    8.9145  -13.1556   28.7200 C   0  0  0  0  0  0  0  0  0  0  0  0
    9.9209  -14.0496   28.0857 C   0  0  1  0  0  0  0  0  0  0  0  0
   11.1373  -14.2609   29.0009 C   0  0  0  0  0  0  0  0  0  0  0  0
    9.4393  -15.3241   27.5213 C   0  0  0  0  0  0  0  0  0  0  0  0
   10.4385  -16.1782   26.7819 C   0  0  2  0  0  0  0  0  0  0  0  0
   10.4640  -15.9381   25.3616 N   0  0  0  0  0  0  0  0  0  0  0  0
   10.3156  -17.6105   27.1428 C   0  0  0  0  0  0  0  0  0  0  0  0
   11.1484  -18.1741   27.8864 O   0  0  0  0  0  0  0  0  0  0  0  0
    9.2699  -18.3596   26.6618 O   0  0  0  0  0  0  0  0  0  0  0  0
  2  3  1  6
  2  1  1  0
  4  5  1  6
  4  2  1  0
  6  4  1  0
  7  6  2  0
  8  6  1  0
  9  8  1  0
  9 10  1  1
 10 11  1  0
 11 16  2  0
 12 11  1  0
 12 13  2  0
 13 14  1  0
 14 15  2  0
 16 15  1  0
 17 18  2  0
 17  9  1  0
 20 19  1  1
 20 22  1  0
 20 21  1  0
 23 22  1  6
 23 24  1  0
 24 17  1  0
 25 23  1  0
 26 25  2  0
 27 25  1  0
M  END
$$$$
