VFL.pdb
     RDKit          3D

 27 27  0  0  1  0  0  0  0  0999 V2000
    9.2559  -18.1471   17.4809 C   0  0  0  0  0  0  0  0  0  0  0  0
    9.3024  -17.0188   18.4687 C   0  0  1  0  0  0  0  0  0  0  0  0
    8.1533  -16.0682   18.3973 C   0  0  0  0  0  0  0  0  0  0  0  0
    9.6464  -17.4572   19.8727 C   0  0  2  0  0  0  0  0  0  0  0  0
    8.6916  -18.5201   20.2152 N   0  0  0  0  0  0  0  0  0  0  0  0
    9.6473  -16.4018   20.8761 C   0  0  0  0  0  0  0  0  0  0  0  0
   10.4131  -15.4063   20.7095 O   0  0  0  0  0  0  0  0  0  0  0  0
    8.8266  -16.4601   22.0130 N   0  0  0  0  0  0  0  0  0  0  0  0
    8.8809  -15.4112   23.0668 C   0  0  1  0  0  0  0  0  0  0  0  0
    7.4661  -14.9986   23.2568 C   0  0  0  0  0  0  0  0  0  0  0  0
    7.1680  -14.0055   24.2716 C   0  0  0  0  0  0  0  0  0  0  0  0
    6.5099  -14.3601   25.4248 C   0  0  0  0  0  0  0  0  0  0  0  0
    6.2134  -13.4125   26.4020 C   0  0  0  0  0  0  0  0  0  0  0  0
    6.5770  -12.0835   26.2338 C   0  0  0  0  0  0  0  0  0  0  0  0
    7.2287  -11.7259   25.0953 C   0  0  0  0  0  0  0  0  0  0  0  0
    7.5230  -12.6645   24.1259 C   0  0  0  0  0  0  0  0  0  0  0  0
    9.5412  -16.0249   24.2355 C   0  0  0  0  0  0  0  0  0  0  0  0
    9.0410  -17.1138   24.7041 O   0  0  0  0  0  0  0  0  0  0  0  0
   11.5632  -14.9266   29.2019 C   0  0  0  0  0  0  0  0  0  0  0  0
   10.2170  -14.7621   28.5895 C   0  0  1  0  0  0  0  0  0  0  0  0
    9.4129  -13.6581   29.2941 C   0  0  0  0  0  0  0  0  0  0  0  0
   10.1483  -14.6302   27.1223 C   0  0  0  0  0  0  0  0  0  0  0  0
   10.8568  -15.6748   26.2967 C   0  0  2  0  0  0  0  0  0  0  0  0
   10.7027  -15.4900   24.8762 N   0  0  0  0  0  0  0  0  0  0  0  0
   10.5444  -17.0486   26.7570 C   0  0  0  0  0  0  0  0  0  0  0  0
   11.4186  -17.7864   27.2625 O   0  0  0  0  0  0  0  0  0  0  0  0
    9.2706  -17.5475   26.6369 O   0  0  0  0  0  0  0  0  0  0  0  0
  2  3  1  1
  2  1  1  0
  4  5  1  1
  4  2  1  0
  6  4  1  0
  7  6  2  0
  8  6  1  0
  9  8  1  0
  9 10  1  1
 10 11  1  0
 11 16  2  0
 12 11  1  0
 12 13  2  0
 13 14  1  0
 14 15  2  0
 16 15  1  0
 17 18  2  0
 17  9  1  0
 20 19  1  1
 20 22  1  0
 20 21  1  0
 23 22  1  1
 23 24  1  0
 24 17  1  0
 25 23  1  0
 26 25  2  0
 27 25  1  0
M  END
$$$$
