CWD.pdb
     RDKit          3D

 29 30  0  0  1  0  0  0  0  0999 V2000
   28.4049  -20.7894  -15.0285 N   0  0  0  0  0  0  0  0  0  0  0  0
   28.0590  -19.9322  -13.9083 C   0  0  1  0  0  0  0  0  0  0  0  0
   27.5705  -18.5748  -14.4061 C   0  0  0  0  0  0  0  0  0  0  0  0
   26.0632  -18.8677  -15.3814 S   0  0  0  0  0  0  0  0  0  0  0  0
   27.0194  -20.6058  -13.0965 C   0  0  0  0  0  0  0  0  0  0  0  0
   26.3768  -21.5926  -13.5606 O   0  0  0  0  0  0  0  0  0  0  0  0
   26.6708  -20.2201  -11.7896 N   0  0  0  0  0  0  0  0  0  0  0  0
   25.7889  -20.9046  -10.9051 C   0  0  1  0  0  0  0  0  0  0  0  0
   25.9796  -20.6284   -9.4558 C   0  0  0  0  0  0  0  0  0  0  0  0
   27.3475  -20.8072   -8.9521 C   0  0  0  0  0  0  0  0  0  0  0  0
   28.3361  -21.4999   -9.6149 C   0  0  0  0  0  0  0  0  0  0  0  0
   29.4485  -21.4611   -8.8684 N   0  0  0  0  0  0  0  0  0  0  0  0
   29.1910  -20.7620   -7.7498 C   0  0  0  0  0  0  0  0  0  0  0  0
   30.0016  -20.4396   -6.6689 C   0  0  0  0  0  0  0  0  0  0  0  0
   29.4465  -19.6869   -5.6330 C   0  0  0  0  0  0  0  0  0  0  0  0
   28.1298  -19.2704   -5.6732 C   0  0  0  0  0  0  0  0  0  0  0  0
   27.3269  -19.5877   -6.7403 C   0  0  0  0  0  0  0  0  0  0  0  0
   27.8869  -20.3416   -7.7756 C   0  0  0  0  0  0  0  0  0  0  0  0
   24.4002  -20.5002  -11.2517 C   0  0  0  0  0  0  0  0  0  0  0  0
   23.9943  -19.3430  -10.9745 O   0  0  0  0  0  0  0  0  0  0  0  0
   23.4772  -21.3480  -11.8888 N   0  0  0  0  0  0  0  0  0  0  0  0
   22.3012  -20.7979  -12.5853 C   0  0  1  0  0  0  0  0  0  0  0  0
   22.7064  -19.8161  -13.6308 C   0  0  0  0  0  0  0  0  0  0  0  0
   21.5332  -19.2781  -14.3497 C   0  0  0  0  0  0  0  0  0  0  0  0
   20.7368  -18.4157  -13.8729 O   0  0  0  0  0  0  0  0  0  0  0  0
   21.4962  -21.8746  -13.1585 C   0  0  0  0  0  0  0  0  0  0  0  0
   21.9989  -22.7943  -13.8206 O   0  0  0  0  0  0  0  0  0  0  0  0
   21.2129  -19.7023  -15.6536 O   0  0  0  0  0  0  0  0  0  0  0  0
   20.1093  -21.8721  -12.9558 O   0  0  0  0  0  0  0  0  0  0  0  0
  2  1  1  6
  2  5  1  0
  3  2  1  0
  4  3  1  0
  5  7  1  0
  5  6  2  0
  7  8  1  0
  8  9  1  1
  9 10  1  0
 10 11  2  0
 11 12  1  0
 13 12  1  0
 14 13  2  0
 15 14  1  0
 16 17  1  0
 16 15  2  0
 17 18  2  0
 18 10  1  0
 18 13  1  0
 19  8  1  0
 19 21  1  0
 20 19  2  0
 22 23  1  6
 22 21  1  0
 22 26  1  0
 23 24  1  0
 24 28  1  0
 24 25  2  0
 26 29  1  0
 27 26  2  0
M  END
$$$$
