CWD.pdb
     RDKit          3D

 29 30  0  0  1  0  0  0  0  0999 V2000
   18.2553  -14.0657  -18.1227 N   0  0  0  0  0  0  0  0  0  0  0  0
   18.6024  -12.7226  -18.5525 C   0  0  1  0  0  0  0  0  0  0  0  0
   17.6250  -12.2339  -19.6178 C   0  0  0  0  0  0  0  0  0  0  0  0
   18.2098  -12.8685  -21.2191 S   0  0  0  0  0  0  0  0  0  0  0  0
   18.5929  -11.8277  -17.3724 C   0  0  0  0  0  0  0  0  0  0  0  0
   17.5802  -11.7685  -16.6153 O   0  0  0  0  0  0  0  0  0  0  0  0
   19.6683  -10.9983  -17.0067 N   0  0  0  0  0  0  0  0  0  0  0  0
   19.6912  -10.0506  -15.9437 C   0  0  1  0  0  0  0  0  0  0  0  0
   21.0281   -9.7658  -15.3564 C   0  0  0  0  0  0  0  0  0  0  0  0
   21.0467   -8.7666  -14.2803 C   0  0  0  0  0  0  0  0  0  0  0  0
   20.5568   -8.9809  -13.0113 C   0  0  0  0  0  0  0  0  0  0  0  0
   20.7365   -7.8611  -12.2973 N   0  0  0  0  0  0  0  0  0  0  0  0
   21.3274   -6.9425  -13.0803 C   0  0  0  0  0  0  0  0  0  0  0  0
   21.7210   -5.6368  -12.8169 C   0  0  0  0  0  0  0  0  0  0  0  0
   22.3211   -4.9110  -13.8470 C   0  0  0  0  0  0  0  0  0  0  0  0
   22.5215   -5.4673  -15.0957 C   0  0  0  0  0  0  0  0  0  0  0  0
   22.1334   -6.7575  -15.3583 C   0  0  0  0  0  0  0  0  0  0  0  0
   21.5330   -7.4807  -14.3238 C   0  0  0  0  0  0  0  0  0  0  0  0
   19.1602   -8.7664  -16.4738 C   0  0  0  0  0  0  0  0  0  0  0  0
   19.4829   -8.3801  -17.6259 O   0  0  0  0  0  0  0  0  0  0  0  0
   18.2937   -7.9247  -15.7545 N   0  0  0  0  0  0  0  0  0  0  0  0
   17.8085   -6.6622  -16.3389 C   0  0  1  0  0  0  0  0  0  0  0  0
   16.3229   -6.5706  -16.2622 C   0  0  0  0  0  0  0  0  0  0  0  0
   15.8226   -5.3490  -16.9254 C   0  0  0  0  0  0  0  0  0  0  0  0
   16.5572   -4.5122  -17.5299 O   0  0  0  0  0  0  0  0  0  0  0  0
   18.4406   -5.5191  -15.6836 C   0  0  0  0  0  0  0  0  0  0  0  0
   18.3375   -5.3165  -14.4648 O   0  0  0  0  0  0  0  0  0  0  0  0
   14.4525   -5.0241  -16.9291 O   0  0  0  0  0  0  0  0  0  0  0  0
   19.1893   -4.6188  -16.4539 O   0  0  0  0  0  0  0  0  0  0  0  0
  2  1  1  1
  2  5  1  0
  3  2  1  0
  4  3  1  0
  5  7  1  0
  5  6  2  0
  7  8  1  0
  8  9  1  6
  9 10  1  0
 10 11  2  0
 11 12  1  0
 13 12  1  0
 14 13  2  0
 15 14  1  0
 16 17  1  0
 16 15  2  0
 17 18  2  0
 18 10  1  0
 18 13  1  0
 19  8  1  0
 19 21  1  0
 20 19  2  0
 22 23  1  1
 22 21  1  0
 22 26  1  0
 23 24  1  0
 24 28  1  0
 24 25  2  0
 26 29  1  0
 27 26  2  0
M  END
$$$$
