CWD.pdb
     RDKit          3D

 29 30  0  0  1  0  0  0  0  0999 V2000
   28.2482  -22.0920  -17.7069 N   0  0  0  0  0  0  0  0  0  0  0  0
   27.3629  -21.0612  -17.1942 C   0  0  1  0  0  0  0  0  0  0  0  0
   26.0881  -20.9886  -18.0300 C   0  0  0  0  0  0  0  0  0  0  0  0
   26.3992  -19.8202  -19.3891 S   0  0  0  0  0  0  0  0  0  0  0  0
   27.0528  -21.3613  -15.7774 C   0  0  0  0  0  0  0  0  0  0  0  0
   26.8000  -22.5455  -15.4088 O   0  0  0  0  0  0  0  0  0  0  0  0
   27.0142  -20.3918  -14.7592 N   0  0  0  0  0  0  0  0  0  0  0  0
   26.6437  -20.5975  -13.3995 C   0  0  1  0  0  0  0  0  0  0  0  0
   27.2385  -19.6544  -12.4146 C   0  0  0  0  0  0  0  0  0  0  0  0
   27.8731  -20.2770  -11.2456 C   0  0  0  0  0  0  0  0  0  0  0  0
   29.0017  -21.0641  -11.3004 C   0  0  0  0  0  0  0  0  0  0  0  0
   29.2979  -21.4605  -10.0549 N   0  0  0  0  0  0  0  0  0  0  0  0
   28.3866  -20.9453   -9.2120 C   0  0  0  0  0  0  0  0  0  0  0  0
   28.2519  -21.0584   -7.8342 C   0  0  0  0  0  0  0  0  0  0  0  0
   27.1850  -20.3990   -7.2221 C   0  0  0  0  0  0  0  0  0  0  0  0
   26.2841  -19.6533   -7.9576 C   0  0  0  0  0  0  0  0  0  0  0  0
   26.4151  -19.5401   -9.3193 C   0  0  0  0  0  0  0  0  0  0  0  0
   27.4851  -20.2020   -9.9282 C   0  0  0  0  0  0  0  0  0  0  0  0
   25.1659  -20.4550  -13.3089 C   0  0  0  0  0  0  0  0  0  0  0  0
   24.6008  -19.4423  -13.7943 O   0  0  0  0  0  0  0  0  0  0  0  0
   24.3271  -21.4040  -12.6986 N   0  0  0  0  0  0  0  0  0  0  0  0
   22.8763  -21.1711  -12.5892 C   0  0  1  0  0  0  0  0  0  0  0  0
   22.1072  -22.3992  -12.9373 C   0  0  0  0  0  0  0  0  0  0  0  0
   21.7219  -22.4086  -14.3635 C   0  0  0  0  0  0  0  0  0  0  0  0
   21.9704  -21.4695  -15.1770 O   0  0  0  0  0  0  0  0  0  0  0  0
   22.5339  -20.6980  -11.2495 C   0  0  0  0  0  0  0  0  0  0  0  0
   23.2741  -20.8872  -10.2731 O   0  0  0  0  0  0  0  0  0  0  0  0
   21.0310  -23.4968  -14.9304 O   0  0  0  0  0  0  0  0  0  0  0  0
   21.3299  -20.0068  -11.0567 O   0  0  0  0  0  0  0  0  0  0  0  0
  2  1  1  6
  2  5  1  0
  3  2  1  0
  4  3  1  0
  5  7  1  0
  5  6  2  0
  7  8  1  0
  8  9  1  1
  9 10  1  0
 10 11  2  0
 11 12  1  0
 13 12  1  0
 14 13  2  0
 15 14  1  0
 16 17  1  0
 16 15  2  0
 17 18  2  0
 18 10  1  0
 18 13  1  0
 19  8  1  0
 19 21  1  0
 20 19  2  0
 22 23  1  1
 22 21  1  0
 22 26  1  0
 23 24  1  0
 24 28  1  0
 24 25  2  0
 26 29  1  0
 27 26  2  0
M  END
$$$$
