CWD.pdb
     RDKit          3D

 29 30  0  0  1  0  0  0  0  0999 V2000
   13.8365   -2.8921   -6.3955 N   0  0  0  0  0  0  0  0  0  0  0  0
   13.1711   -3.8517   -7.2590 C   0  0  1  0  0  0  0  0  0  0  0  0
   12.2012   -3.1411   -8.1989 C   0  0  0  0  0  0  0  0  0  0  0  0
   10.7031   -2.7585   -7.2406 S   0  0  0  0  0  0  0  0  0  0  0  0
   14.1981   -4.5987   -8.0212 C   0  0  0  0  0  0  0  0  0  0  0  0
   15.1842   -3.9959   -8.5375 O   0  0  0  0  0  0  0  0  0  0  0  0
   14.1659   -5.9894   -8.2283 N   0  0  0  0  0  0  0  0  0  0  0  0
   15.1009   -6.7623   -8.9747 C   0  0  1  0  0  0  0  0  0  0  0  0
   14.9206   -8.2376   -8.9117 C   0  0  0  0  0  0  0  0  0  0  0  0
   15.8229   -9.0224   -9.7644 C   0  0  0  0  0  0  0  0  0  0  0  0
   17.1951   -8.9069   -9.7584 C   0  0  0  0  0  0  0  0  0  0  0  0
   17.6928   -9.7685  -10.6562 N   0  0  0  0  0  0  0  0  0  0  0  0
   16.6721  -10.4272  -11.2311 C   0  0  0  0  0  0  0  0  0  0  0  0
   16.6584  -11.4116  -12.2109 C   0  0  0  0  0  0  0  0  0  0  0  0
   15.4226  -11.9175  -12.6166 C   0  0  0  0  0  0  0  0  0  0  0  0
   14.2421  -11.4581  -12.0652 C   0  0  0  0  0  0  0  0  0  0  0  0
   14.2531  -10.4853  -11.0968 C   0  0  0  0  0  0  0  0  0  0  0  0
   15.4930   -9.9816  -10.6933 C   0  0  0  0  0  0  0  0  0  0  0  0
   14.9768   -6.3637  -10.4022 C   0  0  0  0  0  0  0  0  0  0  0  0
   13.8395   -6.2177  -10.9179 O   0  0  0  0  0  0  0  0  0  0  0  0
   16.0776   -6.1307  -11.2452 N   0  0  0  0  0  0  0  0  0  0  0  0
   15.8833   -5.7914  -12.6658 C   0  0  1  0  0  0  0  0  0  0  0  0
   15.7795   -4.3170  -12.8568 C   0  0  0  0  0  0  0  0  0  0  0  0
   15.5927   -3.9691  -14.2804 C   0  0  0  0  0  0  0  0  0  0  0  0
   15.2532   -4.7950  -15.1793 O   0  0  0  0  0  0  0  0  0  0  0  0
   16.9613   -6.3524  -13.4776 C   0  0  0  0  0  0  0  0  0  0  0  0
   17.9446   -6.9139  -12.9727 O   0  0  0  0  0  0  0  0  0  0  0  0
   15.7859   -2.6545  -14.7466 O   0  0  0  0  0  0  0  0  0  0  0  0
   16.8858   -6.2552  -14.8738 O   0  0  0  0  0  0  0  0  0  0  0  0
  2  1  1  1
  2  5  1  0
  3  2  1  0
  4  3  1  0
  5  7  1  0
  5  6  2  0
  7  8  1  0
  8  9  1  6
  9 10  1  0
 10 11  2  0
 11 12  1  0
 13 12  1  0
 14 13  2  0
 15 14  1  0
 16 17  1  0
 16 15  2  0
 17 18  2  0
 18 10  1  0
 18 13  1  0
 19  8  1  0
 19 21  1  0
 20 19  2  0
 22 23  1  1
 22 21  1  0
 22 26  1  0
 23 24  1  0
 24 28  1  0
 24 25  2  0
 26 29  1  0
 27 26  2  0
M  END
$$$$
