CWD.pdb
     RDKit          3D

 29 30  0  0  1  0  0  0  0  0999 V2000
   28.7850  -20.8362  -14.9414 N   0  0  0  0  0  0  0  0  0  0  0  0
   27.9874  -19.8923  -14.1784 C   0  0  1  0  0  0  0  0  0  0  0  0
   27.2356  -18.9500  -15.1143 C   0  0  0  0  0  0  0  0  0  0  0  0
   28.3766  -17.6040  -15.5564 S   0  0  0  0  0  0  0  0  0  0  0  0
   27.0478  -20.6484  -13.3187 C   0  0  0  0  0  0  0  0  0  0  0  0
   26.4381  -21.6635  -13.7660 O   0  0  0  0  0  0  0  0  0  0  0  0
   26.7637  -20.3148  -11.9823 N   0  0  0  0  0  0  0  0  0  0  0  0
   25.7839  -20.9178  -11.1427 C   0  0  1  0  0  0  0  0  0  0  0  0
   25.9119  -20.6337   -9.6880 C   0  0  0  0  0  0  0  0  0  0  0  0
   27.2441  -20.8616   -9.1135 C   0  0  0  0  0  0  0  0  0  0  0  0
   28.2619  -21.5344   -9.7522 C   0  0  0  0  0  0  0  0  0  0  0  0
   29.3272  -21.5537   -8.9393 N   0  0  0  0  0  0  0  0  0  0  0  0
   29.0115  -20.9108   -7.8020 C   0  0  0  0  0  0  0  0  0  0  0  0
   29.7590  -20.6597   -6.6586 C   0  0  0  0  0  0  0  0  0  0  0  0
   29.1520  -19.9540   -5.6187 C   0  0  0  0  0  0  0  0  0  0  0  0
   27.8459  -19.5142   -5.7153 C   0  0  0  0  0  0  0  0  0  0  0  0
   27.1052  -19.7611   -6.8443 C   0  0  0  0  0  0  0  0  0  0  0  0
   27.7170  -20.4681   -7.8833 C   0  0  0  0  0  0  0  0  0  0  0  0
   24.4515  -20.4167  -11.5739 C   0  0  0  0  0  0  0  0  0  0  0  0
   24.2120  -19.1825  -11.5692 O   0  0  0  0  0  0  0  0  0  0  0  0
   23.4049  -21.2528  -12.0009 N   0  0  0  0  0  0  0  0  0  0  0  0
   22.2758  -20.7133  -12.7786 C   0  0  1  0  0  0  0  0  0  0  0  0
   22.7500  -20.0568  -14.0298 C   0  0  0  0  0  0  0  0  0  0  0  0
   21.6182  -19.5919  -14.8577 C   0  0  0  0  0  0  0  0  0  0  0  0
   20.4008  -19.6805  -14.5182 O   0  0  0  0  0  0  0  0  0  0  0  0
   21.3070  -21.7673  -13.0722 C   0  0  0  0  0  0  0  0  0  0  0  0
   20.0910  -21.6182  -12.8819 O   0  0  0  0  0  0  0  0  0  0  0  0
   21.8251  -19.0010  -16.1190 O   0  0  0  0  0  0  0  0  0  0  0  0
   21.7624  -22.9892  -13.5861 O   0  0  0  0  0  0  0  0  0  0  0  0
  2  1  1  6
  2  5  1  0
  3  2  1  0
  4  3  1  0
  5  7  1  0
  5  6  2  0
  7  8  1  0
  8  9  1  1
  9 10  1  0
 10 11  2  0
 11 12  1  0
 13 12  1  0
 14 13  2  0
 15 14  1  0
 16 17  1  0
 16 15  2  0
 17 18  2  0
 18 10  1  0
 18 13  1  0
 19  8  1  0
 19 21  1  0
 20 19  2  0
 22 23  1  6
 22 21  1  0
 22 26  1  0
 23 24  1  0
 24 28  1  0
 24 25  2  0
 26 29  1  0
 27 26  2  0
M  END
$$$$
