CWD.pdb
     RDKit          3D

 29 30  0  0  1  0  0  0  0  0999 V2000
   22.6007  -13.2098  -19.1880 N   0  0  0  0  0  0  0  0  0  0  0  0
   23.1966  -11.9020  -18.9786 C   0  0  1  0  0  0  0  0  0  0  0  0
   22.3194  -10.8122  -19.5884 C   0  0  0  0  0  0  0  0  0  0  0  0
   22.3200  -11.0635  -21.3900 S   0  0  0  0  0  0  0  0  0  0  0  0
   23.3758  -11.6877  -17.5241 C   0  0  0  0  0  0  0  0  0  0  0  0
   22.8405  -12.4703  -16.6856 O   0  0  0  0  0  0  0  0  0  0  0  0
   24.1280  -10.6354  -16.9719 N   0  0  0  0  0  0  0  0  0  0  0  0
   24.3957  -10.4118  -15.5910 C   0  0  1  0  0  0  0  0  0  0  0  0
   25.8163  -10.1432  -15.2402 C   0  0  0  0  0  0  0  0  0  0  0  0
   26.7841  -11.1429  -15.7104 C   0  0  0  0  0  0  0  0  0  0  0  0
   27.8732  -10.8581  -16.5035 C   0  0  0  0  0  0  0  0  0  0  0  0
   28.5322  -12.0014  -16.7378 N   0  0  0  0  0  0  0  0  0  0  0  0
   27.8895  -13.0033  -16.1140 C   0  0  0  0  0  0  0  0  0  0  0  0
   28.1658  -14.3630  -16.0481 C   0  0  0  0  0  0  0  0  0  0  0  0
   27.3022  -15.1738  -15.3101 C   0  0  0  0  0  0  0  0  0  0  0  0
   26.2020  -14.6478  -14.6608 C   0  0  0  0  0  0  0  0  0  0  0  0
   25.9269  -13.3045  -14.7244 C   0  0  0  0  0  0  0  0  0  0  0  0
   26.7944  -12.4961  -15.4645 C   0  0  0  0  0  0  0  0  0  0  0  0
   23.6051   -9.2261  -15.1652 C   0  0  0  0  0  0  0  0  0  0  0  0
   23.5773   -8.8905  -13.9539 O   0  0  0  0  0  0  0  0  0  0  0  0
   22.8611   -8.4262  -16.0504 N   0  0  0  0  0  0  0  0  0  0  0  0
   22.0235   -7.3225  -15.5497 C   0  0  1  0  0  0  0  0  0  0  0  0
   22.2653   -6.0712  -16.3223 C   0  0  0  0  0  0  0  0  0  0  0  0
   21.4750   -4.9442  -15.7856 C   0  0  0  0  0  0  0  0  0  0  0  0
   20.7150   -5.0219  -14.7748 O   0  0  0  0  0  0  0  0  0  0  0  0
   20.6111   -7.6966  -15.5828 C   0  0  0  0  0  0  0  0  0  0  0  0
   19.7130   -6.9163  -15.2341 O   0  0  0  0  0  0  0  0  0  0  0  0
   21.5160   -3.6690  -16.3814 O   0  0  0  0  0  0  0  0  0  0  0  0
   20.2548   -8.9788  -16.0225 O   0  0  0  0  0  0  0  0  0  0  0  0
  2  1  1  1
  2  5  1  0
  3  2  1  0
  4  3  1  0
  5  7  1  0
  5  6  2  0
  7  8  1  0
  8  9  1  6
  9 10  1  0
 10 11  2  0
 11 12  1  0
 13 12  1  0
 14 13  2  0
 15 14  1  0
 16 17  1  0
 16 15  2  0
 17 18  2  0
 18 10  1  0
 18 13  1  0
 19  8  1  0
 19 21  1  0
 20 19  2  0
 22 23  1  6
 22 21  1  0
 22 26  1  0
 23 24  1  0
 24 28  1  0
 24 25  2  0
 26 29  1  0
 27 26  2  0
M  END
$$$$
