CWD.pdb
     RDKit          3D

 29 30  0  0  1  0  0  0  0  0999 V2000
   28.0529  -23.5457  -16.7846 N   0  0  0  0  0  0  0  0  0  0  0  0
   27.6718  -22.1873  -16.4400 C   0  0  1  0  0  0  0  0  0  0  0  0
   26.8326  -21.5696  -17.5550 C   0  0  0  0  0  0  0  0  0  0  0  0
   27.9662  -21.1471  -18.9135 S   0  0  0  0  0  0  0  0  0  0  0  0
   26.9224  -22.2124  -15.1628 C   0  0  0  0  0  0  0  0  0  0  0  0
   26.2984  -23.2525  -14.8009 O   0  0  0  0  0  0  0  0  0  0  0  0
   26.8435  -21.1230  -14.2768 N   0  0  0  0  0  0  0  0  0  0  0  0
   26.0531  -21.0408  -13.0948 C   0  0  1  0  0  0  0  0  0  0  0  0
   26.4907  -20.0349  -12.0898 C   0  0  0  0  0  0  0  0  0  0  0  0
   27.5331  -20.4837  -11.1576 C   0  0  0  0  0  0  0  0  0  0  0  0
   28.7820  -20.9208  -11.5392 C   0  0  0  0  0  0  0  0  0  0  0  0
   29.4671  -21.2495  -10.4352 N   0  0  0  0  0  0  0  0  0  0  0  0
   28.6853  -21.0321   -9.3639 C   0  0  0  0  0  0  0  0  0  0  0  0
   28.9255  -21.2132   -8.0078 C   0  0  0  0  0  0  0  0  0  0  0  0
   27.9039  -20.8952   -7.1117 C   0  0  0  0  0  0  0  0  0  0  0  0
   26.6859  -20.4140   -7.5517 C   0  0  0  0  0  0  0  0  0  0  0  0
   26.4463  -20.2343   -8.8913 C   0  0  0  0  0  0  0  0  0  0  0  0
   27.4722  -20.5538   -9.7854 C   0  0  0  0  0  0  0  0  0  0  0  0
   24.6686  -20.6822  -13.5030 C   0  0  0  0  0  0  0  0  0  0  0  0
   24.4499  -20.2293  -14.6552 O   0  0  0  0  0  0  0  0  0  0  0  0
   23.5485  -20.8181  -12.6641 N   0  0  0  0  0  0  0  0  0  0  0  0
   22.1819  -20.7390  -13.2091 C   0  0  1  0  0  0  0  0  0  0  0  0
   21.9789  -21.7367  -14.2975 C   0  0  0  0  0  0  0  0  0  0  0  0
   20.6002  -21.6861  -14.8259 C   0  0  0  0  0  0  0  0  0  0  0  0
   20.1239  -20.7165  -15.4880 O   0  0  0  0  0  0  0  0  0  0  0  0
   21.1959  -20.9138  -12.1447 C   0  0  0  0  0  0  0  0  0  0  0  0
   21.5210  -21.2087  -10.9852 O   0  0  0  0  0  0  0  0  0  0  0  0
   19.6961  -22.7461  -14.6216 O   0  0  0  0  0  0  0  0  0  0  0  0
   19.8362  -20.7434  -12.4391 O   0  0  0  0  0  0  0  0  0  0  0  0
  2  1  1  6
  2  5  1  0
  3  2  1  0
  4  3  1  0
  5  7  1  0
  5  6  2  0
  7  8  1  0
  8  9  1  1
  9 10  1  0
 10 11  2  0
 11 12  1  0
 13 12  1  0
 14 13  2  0
 15 14  1  0
 16 17  1  0
 16 15  2  0
 17 18  2  0
 18 10  1  0
 18 13  1  0
 19  8  1  0
 19 21  1  0
 20 19  2  0
 22 23  1  6
 22 21  1  0
 22 26  1  0
 23 24  1  0
 24 28  1  0
 24 25  2  0
 26 29  1  0
 27 26  2  0
M  END
$$$$
