CWD.pdb
     RDKit          3D

 29 30  0  0  1  0  0  0  0  0999 V2000
   29.2539  -22.3363  -15.4642 N   0  0  0  0  0  0  0  0  0  0  0  0
   28.7631  -21.0690  -14.9519 C   0  0  1  0  0  0  0  0  0  0  0  0
   27.8938  -20.3725  -15.9951 C   0  0  0  0  0  0  0  0  0  0  0  0
   29.0055  -19.4229  -17.0775 S   0  0  0  0  0  0  0  0  0  0  0  0
   28.0002  -21.3216  -13.7078 C   0  0  0  0  0  0  0  0  0  0  0  0
   27.2433  -22.3313  -13.6086 O   0  0  0  0  0  0  0  0  0  0  0  0
   28.0502  -20.4917  -12.5735 N   0  0  0  0  0  0  0  0  0  0  0  0
   27.3374  -20.6713  -11.3535 C   0  0  1  0  0  0  0  0  0  0  0  0
   27.7338  -19.7774  -10.2323 C   0  0  0  0  0  0  0  0  0  0  0  0
   26.9914  -19.9666   -8.9793 C   0  0  0  0  0  0  0  0  0  0  0  0
   25.6297  -20.1571   -8.9032 C   0  0  0  0  0  0  0  0  0  0  0  0
   25.2963  -20.2927   -7.6122 N   0  0  0  0  0  0  0  0  0  0  0  0
   26.4109  -20.1931   -6.8680 C   0  0  0  0  0  0  0  0  0  0  0  0
   26.5992  -20.2633   -5.4936 C   0  0  0  0  0  0  0  0  0  0  0  0
   27.8970  -20.1212   -5.0002 C   0  0  0  0  0  0  0  0  0  0  0  0
   28.9692  -19.9161   -5.8470 C   0  0  0  0  0  0  0  0  0  0  0  0
   28.7856  -19.8464   -7.2056 C   0  0  0  0  0  0  0  0  0  0  0  0
   27.4843  -19.9894   -7.6954 C   0  0  0  0  0  0  0  0  0  0  0  0
   25.8984  -20.4179  -11.6313 C   0  0  0  0  0  0  0  0  0  0  0  0
   25.5255  -19.2876  -12.0363 O   0  0  0  0  0  0  0  0  0  0  0  0
   24.8907  -21.3846  -11.4678 N   0  0  0  0  0  0  0  0  0  0  0  0
   23.5227  -21.1409  -11.9579 C   0  0  1  0  0  0  0  0  0  0  0  0
   22.7665  -22.4175  -12.0975 C   0  0  0  0  0  0  0  0  0  0  0  0
   21.3820  -22.1776  -12.5537 C   0  0  0  0  0  0  0  0  0  0  0  0
   20.9083  -21.0352  -12.8292 O   0  0  0  0  0  0  0  0  0  0  0  0
   22.8225  -20.2083  -11.0771 C   0  0  0  0  0  0  0  0  0  0  0  0
   22.8244  -20.3366   -9.8440 O   0  0  0  0  0  0  0  0  0  0  0  0
   20.4688  -23.2368  -12.7176 O   0  0  0  0  0  0  0  0  0  0  0  0
   22.1242  -19.1312  -11.6401 O   0  0  0  0  0  0  0  0  0  0  0  0
  2  1  1  6
  2  5  1  0
  3  2  1  0
  4  3  1  0
  5  7  1  0
  5  6  2  0
  7  8  1  0
  8  9  1  1
  9 10  1  0
 10 11  2  0
 11 12  1  0
 13 12  1  0
 14 13  2  0
 15 14  1  0
 16 17  1  0
 16 15  2  0
 17 18  2  0
 18 10  1  0
 18 13  1  0
 19  8  1  0
 19 21  1  0
 20 19  2  0
 22 23  1  1
 22 21  1  0
 22 26  1  0
 23 24  1  0
 24 28  1  0
 24 25  2  0
 26 29  1  0
 27 26  2  0
M  END
$$$$
