CWD.pdb
     RDKit          3D

 29 30  0  0  1  0  0  0  0  0999 V2000
   27.6404  -21.7348  -15.1263 N   0  0  0  0  0  0  0  0  0  0  0  0
   27.6867  -20.5781  -14.2494 C   0  0  1  0  0  0  0  0  0  0  0  0
   26.9803  -19.3898  -14.8958 C   0  0  0  0  0  0  0  0  0  0  0  0
   28.0449  -18.7983  -16.2471 S   0  0  0  0  0  0  0  0  0  0  0  0
   27.0544  -20.9337  -12.9582 C   0  0  0  0  0  0  0  0  0  0  0  0
   26.0202  -21.6629  -12.9251 O   0  0  0  0  0  0  0  0  0  0  0  0
   27.5315  -20.5071  -11.7058 N   0  0  0  0  0  0  0  0  0  0  0  0
   26.8890  -20.6756  -10.4460 C   0  0  1  0  0  0  0  0  0  0  0  0
   27.5931  -20.0885   -9.2743 C   0  0  0  0  0  0  0  0  0  0  0  0
   27.0123  -20.4051   -7.9631 C   0  0  0  0  0  0  0  0  0  0  0  0
   25.8412  -21.1059   -7.7798 C   0  0  0  0  0  0  0  0  0  0  0  0
   25.6149  -21.2082   -6.4628 N   0  0  0  0  0  0  0  0  0  0  0  0
   26.6118  -20.5906   -5.8064 C   0  0  0  0  0  0  0  0  0  0  0  0
   26.8394  -20.4180   -4.4471 C   0  0  0  0  0  0  0  0  0  0  0  0
   27.9824  -19.7192   -4.0560 C   0  0  0  0  0  0  0  0  0  0  0  0
   28.8672  -19.2102   -4.9870 C   0  0  0  0  0  0  0  0  0  0  0  0
   28.6444  -19.3795   -6.3308 C   0  0  0  0  0  0  0  0  0  0  0  0
   27.4985  -20.0801   -6.7182 C   0  0  0  0  0  0  0  0  0  0  0  0
   25.5547  -20.0238  -10.5302 C   0  0  0  0  0  0  0  0  0  0  0  0
   25.4654  -18.8143  -10.8617 O   0  0  0  0  0  0  0  0  0  0  0  0
   24.3449  -20.6856  -10.2563 N   0  0  0  0  0  0  0  0  0  0  0  0
   23.0810  -20.2319  -10.8626 C   0  0  1  0  0  0  0  0  0  0  0  0
   23.1504  -20.2818  -12.3505 C   0  0  0  0  0  0  0  0  0  0  0  0
   21.8880  -19.8226  -12.9653 C   0  0  0  0  0  0  0  0  0  0  0  0
   21.7047  -18.6619  -13.4392 O   0  0  0  0  0  0  0  0  0  0  0  0
   21.9600  -21.0243  -10.3614 C   0  0  0  0  0  0  0  0  0  0  0  0
   22.0444  -22.2481  -10.1819 O   0  0  0  0  0  0  0  0  0  0  0  0
   20.7698  -20.6721  -13.0682 O   0  0  0  0  0  0  0  0  0  0  0  0
   20.7469  -20.3844  -10.0726 O   0  0  0  0  0  0  0  0  0  0  0  0
  2  1  1  6
  2  5  1  0
  3  2  1  0
  4  3  1  0
  5  7  1  0
  5  6  2  0
  7  8  1  0
  8  9  1  1
  9 10  1  0
 10 11  2  0
 11 12  1  0
 13 12  1  0
 14 13  2  0
 15 14  1  0
 16 17  1  0
 16 15  2  0
 17 18  2  0
 18 10  1  0
 18 13  1  0
 19  8  1  0
 19 21  1  0
 20 19  2  0
 22 23  1  6
 22 21  1  0
 22 26  1  0
 23 24  1  0
 24 28  1  0
 24 25  2  0
 26 29  1  0
 27 26  2  0
M  END
$$$$
