CWD.pdb
     RDKit          3D

 29 30  0  0  1  0  0  0  0  0999 V2000
   28.0580  -21.7458  -15.4854 N   0  0  0  0  0  0  0  0  0  0  0  0
   27.8858  -20.5633  -14.6600 C   0  0  1  0  0  0  0  0  0  0  0  0
   27.0677  -19.5096  -15.4013 C   0  0  0  0  0  0  0  0  0  0  0  0
   28.0694  -18.9398  -16.8088 S   0  0  0  0  0  0  0  0  0  0  0  0
   27.2231  -20.9575  -13.3956 C   0  0  0  0  0  0  0  0  0  0  0  0
   26.2555  -21.7736  -13.4011 O   0  0  0  0  0  0  0  0  0  0  0  0
   27.5987  -20.4763  -12.1285 N   0  0  0  0  0  0  0  0  0  0  0  0
   26.9926  -20.7976  -10.8803 C   0  0  1  0  0  0  0  0  0  0  0  0
   27.7414  -20.3737   -9.6667 C   0  0  0  0  0  0  0  0  0  0  0  0
   27.0309  -20.5446   -8.3928 C   0  0  0  0  0  0  0  0  0  0  0  0
   25.8045  -21.1572   -8.2623 C   0  0  0  0  0  0  0  0  0  0  0  0
   25.4600  -21.1354   -6.9673 N   0  0  0  0  0  0  0  0  0  0  0  0
   26.4359  -20.5251   -6.2735 C   0  0  0  0  0  0  0  0  0  0  0  0
   26.5573  -20.2532   -4.9168 C   0  0  0  0  0  0  0  0  0  0  0  0
   27.7064  -19.5929   -4.4794 C   0  0  0  0  0  0  0  0  0  0  0  0
   28.6994  -19.2168   -5.3633 C   0  0  0  0  0  0  0  0  0  0  0  0
   28.5817  -19.4845   -6.7044 C   0  0  0  0  0  0  0  0  0  0  0  0
   27.4293  -20.1460   -7.1382 C   0  0  0  0  0  0  0  0  0  0  0  0
   25.6667  -20.1251  -10.8372 C   0  0  0  0  0  0  0  0  0  0  0  0
   25.5729  -18.9015  -11.1100 O   0  0  0  0  0  0  0  0  0  0  0  0
   24.4698  -20.7820  -10.5016 N   0  0  0  0  0  0  0  0  0  0  0  0
   23.1925  -20.3898  -11.1225 C   0  0  1  0  0  0  0  0  0  0  0  0
   22.9815  -21.1028  -12.4141 C   0  0  0  0  0  0  0  0  0  0  0  0
   21.6985  -20.7200  -13.0386 C   0  0  0  0  0  0  0  0  0  0  0  0
   21.0400  -21.4593  -13.8293 O   0  0  0  0  0  0  0  0  0  0  0  0
   22.0822  -20.6280  -10.2026 C   0  0  0  0  0  0  0  0  0  0  0  0
   20.9133  -20.3275  -10.4865 O   0  0  0  0  0  0  0  0  0  0  0  0
   21.1044  -19.4682  -12.7880 O   0  0  0  0  0  0  0  0  0  0  0  0
   22.3419  -21.2155   -8.9568 O   0  0  0  0  0  0  0  0  0  0  0  0
  2  1  1  6
  2  5  1  0
  3  2  1  0
  4  3  1  0
  5  7  1  0
  5  6  2  0
  7  8  1  0
  8  9  1  1
  9 10  1  0
 10 11  2  0
 11 12  1  0
 13 12  1  0
 14 13  2  0
 15 14  1  0
 16 17  1  0
 16 15  2  0
 17 18  2  0
 18 10  1  0
 18 13  1  0
 19  8  1  0
 19 21  1  0
 20 19  2  0
 22 23  1  6
 22 21  1  0
 22 26  1  0
 23 24  1  0
 24 28  1  0
 24 25  2  0
 26 29  1  0
 27 26  2  0
M  END
$$$$
