NSF.pdb
     RDKit          3D

 26 26  0  0  1  0  0  0  0  0999 V2000
    7.5980  -12.2031   17.7240 N   0  0  0  0  0  0  0  0  0  0  0  0
    8.4344  -12.9638   18.5902 C   0  0  0  0  0  0  0  0  0  0  0  0
    9.6191  -13.1845   18.2503 O   0  0  0  0  0  0  0  0  0  0  0  0
    7.9059  -13.4851   19.8695 C   0  0  0  0  0  0  0  0  0  0  0  0
    8.1574  -14.9856   19.8902 C   0  0  2  0  0  0  0  0  0  0  0  0
    7.2170  -15.5458   18.9233 N   0  0  0  0  0  0  0  0  0  0  0  0
    7.8646  -15.5690   21.2069 C   0  0  0  0  0  0  0  0  0  0  0  0
    6.7143  -15.4776   21.7118 O   0  0  0  0  0  0  0  0  0  0  0  0
   10.3008  -18.4920   22.7141 O   0  0  0  0  0  0  0  0  0  0  0  0
    8.9716  -18.3766   23.0817 C   0  0  0  0  0  0  0  0  0  0  0  0
    8.5622  -16.9157   23.2257 C   0  0  2  0  0  0  0  0  0  0  0  0
    8.8444  -16.2666   21.9887 N   0  0  0  0  0  0  0  0  0  0  0  0
    9.2598  -16.2871   24.3986 C   0  0  0  0  0  0  0  0  0  0  0  0
   10.3644  -15.6908   24.2216 O   0  0  0  0  0  0  0  0  0  0  0  0
    8.7190  -16.3394   25.7070 N   0  0  0  0  0  0  0  0  0  0  0  0
    9.3855  -15.9040   26.8921 C   0  0  1  0  0  0  0  0  0  0  0  0
    8.5418  -15.0740   27.7945 C   0  0  0  0  0  0  0  0  0  0  0  0
    7.9036  -13.9063   27.1752 C   0  0  0  0  0  0  0  0  0  0  0  0
    6.5649  -13.9227   26.8241 C   0  0  0  0  0  0  0  0  0  0  0  0
    5.9407  -12.8306   26.2515 C   0  0  0  0  0  0  0  0  0  0  0  0
    6.6652  -11.6831   26.0173 C   0  0  0  0  0  0  0  0  0  0  0  0
    7.9878  -11.6540   26.3580 C   0  0  0  0  0  0  0  0  0  0  0  0
    8.6084  -12.7522   26.9338 C   0  0  0  0  0  0  0  0  0  0  0  0
   10.1840  -16.9635   27.5558 C   0  0  0  0  0  0  0  0  0  0  0  0
   11.1274  -16.7622   28.5385 O   0  0  0  0  0  0  0  0  0  0  0  0
   10.0045  -18.1565   27.2095 O   0  0  0  0  0  0  0  0  0  0  0  0
  1  2  1  0
  2  4  1  0
  3  2  2  0
  4  5  1  0
  5  6  1  6
  7  5  1  0
  8  7  2  0
  9 10  1  0
 11 10  1  6
 11 13  1  0
 11 12  1  0
 12  7  1  0
 13 15  1  0
 14 13  2  0
 16 15  1  0
 16 24  1  0
 16 17  1  1
 18 17  1  0
 18 23  2  0
 19 18  1  0
 20 19  2  0
 20 21  1  0
 21 22  2  0
 22 23  1  0
 24 26  2  0
 24 25  1  0
M  END
$$$$
