NSF.pdb
     RDKit          3D

 26 26  0  0  1  0  0  0  0  0999 V2000
    7.1681  -13.6976   15.4747 N   0  0  0  0  0  0  0  0  0  0  0  0
    8.2276  -13.8466   16.4147 C   0  0  0  0  0  0  0  0  0  0  0  0
    9.3653  -14.1670   16.0010 O   0  0  0  0  0  0  0  0  0  0  0  0
    7.9820  -13.6280   17.8567 C   0  0  0  0  0  0  0  0  0  0  0  0
    8.7115  -14.7262   18.6162 C   0  0  2  0  0  0  0  0  0  0  0  0
    8.3878  -15.9622   17.9089 N   0  0  0  0  0  0  0  0  0  0  0  0
    8.2267  -14.8473   19.9982 C   0  0  0  0  0  0  0  0  0  0  0  0
    8.2800  -13.8682   20.7889 O   0  0  0  0  0  0  0  0  0  0  0  0
    7.5925  -18.6169   21.8047 O   0  0  0  0  0  0  0  0  0  0  0  0
    6.6647  -17.6136   22.0231 C   0  0  0  0  0  0  0  0  0  0  0  0
    7.3001  -16.2344   21.8939 C   0  0  2  0  0  0  0  0  0  0  0  0
    7.6720  -16.0591   20.5292 N   0  0  0  0  0  0  0  0  0  0  0  0
    8.4539  -16.0956   22.8461 C   0  0  0  0  0  0  0  0  0  0  0  0
    9.6269  -16.3667   22.4491 O   0  0  0  0  0  0  0  0  0  0  0  0
    8.2725  -15.6680   24.1845 N   0  0  0  0  0  0  0  0  0  0  0  0
    9.3039  -15.5767   25.1673 C   0  0  1  0  0  0  0  0  0  0  0  0
    9.5405  -14.1975   25.6745 C   0  0  0  0  0  0  0  0  0  0  0  0
    8.3574  -13.4939   26.1839 C   0  0  0  0  0  0  0  0  0  0  0  0
    8.3154  -13.0055   27.4782 C   0  0  0  0  0  0  0  0  0  0  0  0
    7.2169  -12.3293   27.9746 C   0  0  0  0  0  0  0  0  0  0  0  0
    6.1220  -12.1298   27.1634 C   0  0  0  0  0  0  0  0  0  0  0  0
    6.1499  -12.6079   25.8840 C   0  0  0  0  0  0  0  0  0  0  0  0
    7.2554  -13.2842   25.3909 C   0  0  0  0  0  0  0  0  0  0  0  0
    9.2439  -16.6385   26.2015 C   0  0  0  0  0  0  0  0  0  0  0  0
    8.2376  -17.5678   26.3419 O   0  0  0  0  0  0  0  0  0  0  0  0
   10.1792  -16.7187   27.0347 O   0  0  0  0  0  0  0  0  0  0  0  0
  1  2  1  0
  2  4  1  0
  3  2  2  0
  4  5  1  0
  5  6  1  6
  7  5  1  0
  8  7  2  0
  9 10  1  0
 11 10  1  6
 11 13  1  0
 11 12  1  0
 12  7  1  0
 13 15  1  0
 14 13  2  0
 16 15  1  0
 16 24  1  0
 16 17  1  1
 18 17  1  0
 18 23  2  0
 19 18  1  0
 20 19  2  0
 20 21  1  0
 21 22  2  0
 22 23  1  0
 24 26  2  0
 24 25  1  0
M  END
$$$$
