NSF.pdb
     RDKit          3D

 26 26  0  0  1  0  0  0  0  0999 V2000
    8.3614  -12.4082   16.6989 N   0  0  0  0  0  0  0  0  0  0  0  0
    8.0338  -13.7538   17.0318 C   0  0  0  0  0  0  0  0  0  0  0  0
    8.3074  -14.6643   16.2170 O   0  0  0  0  0  0  0  0  0  0  0  0
    7.3779  -14.0650   18.3204 C   0  0  0  0  0  0  0  0  0  0  0  0
    8.4760  -14.3166   19.3431 C   0  0  2  0  0  0  0  0  0  0  0  0
    9.3024  -15.3739   18.7668 N   0  0  0  0  0  0  0  0  0  0  0  0
    7.9317  -14.8028   20.6187 C   0  0  0  0  0  0  0  0  0  0  0  0
    7.2291  -14.0536   21.3479 O   0  0  0  0  0  0  0  0  0  0  0  0
    8.8239  -18.7100   22.1751 O   0  0  0  0  0  0  0  0  0  0  0  0
    7.5671  -18.1355   22.2500 C   0  0  0  0  0  0  0  0  0  0  0  0
    7.6576  -16.6177   22.3528 C   0  0  2  0  0  0  0  0  0  0  0  0
    8.1565  -16.1320   21.1092 N   0  0  0  0  0  0  0  0  0  0  0  0
    8.5046  -16.2197   23.5281 C   0  0  0  0  0  0  0  0  0  0  0  0
    9.7204  -15.9107   23.3454 O   0  0  0  0  0  0  0  0  0  0  0  0
    7.9846  -16.1779   24.8454 N   0  0  0  0  0  0  0  0  0  0  0  0
    8.7186  -15.7977   26.0093 C   0  0  1  0  0  0  0  0  0  0  0  0
    7.9361  -14.9915   26.9856 C   0  0  0  0  0  0  0  0  0  0  0  0
    7.4676  -13.6865   26.5043 C   0  0  0  0  0  0  0  0  0  0  0  0
    8.3566  -12.6618   26.2303 C   0  0  0  0  0  0  0  0  0  0  0  0
    7.9387  -11.4294   25.7646 C   0  0  0  0  0  0  0  0  0  0  0  0
    6.5953  -11.2023   25.5636 C   0  0  0  0  0  0  0  0  0  0  0  0
    5.7069  -12.2049   25.8313 C   0  0  0  0  0  0  0  0  0  0  0  0
    6.1322  -13.4399   26.2968 C   0  0  0  0  0  0  0  0  0  0  0  0
    9.5338  -16.8928   26.5897 C   0  0  0  0  0  0  0  0  0  0  0  0
   10.5713  -16.7366   27.4815 O   0  0  0  0  0  0  0  0  0  0  0  0
    9.2772  -18.0748   26.2546 O   0  0  0  0  0  0  0  0  0  0  0  0
  1  2  1  0
  2  4  1  0
  3  2  2  0
  4  5  1  0
  5  6  1  6
  7  5  1  0
  8  7  2  0
  9 10  1  0
 11 10  1  6
 11 13  1  0
 11 12  1  0
 12  7  1  0
 13 15  1  0
 14 13  2  0
 16 15  1  0
 16 24  1  0
 16 17  1  1
 18 17  1  0
 18 23  2  0
 19 18  1  0
 20 19  2  0
 20 21  1  0
 21 22  2  0
 22 23  1  0
 24 26  2  0
 24 25  1  0
M  END
$$$$
