NSF.pdb
     RDKit          3D

 26 26  0  0  1  0  0  0  0  0999 V2000
    8.0184  -12.0907   16.8968 N   0  0  0  0  0  0  0  0  0  0  0  0
    7.9314  -13.4950   17.1177 C   0  0  0  0  0  0  0  0  0  0  0  0
    8.3417  -14.2757   16.2288 O   0  0  0  0  0  0  0  0  0  0  0  0
    7.3617  -14.0182   18.3784 C   0  0  0  0  0  0  0  0  0  0  0  0
    8.5092  -14.1860   19.3634 C   0  0  2  0  0  0  0  0  0  0  0  0
    9.4789  -15.0389   18.6814 N   0  0  0  0  0  0  0  0  0  0  0  0
    8.0782  -14.8706   20.5904 C   0  0  0  0  0  0  0  0  0  0  0  0
    7.2096  -14.3573   21.3445 O   0  0  0  0  0  0  0  0  0  0  0  0
    9.7716  -18.5689   21.6900 O   0  0  0  0  0  0  0  0  0  0  0  0
    8.4402  -18.3105   21.9653 C   0  0  0  0  0  0  0  0  0  0  0  0
    8.1999  -16.8221   22.1881 C   0  0  2  0  0  0  0  0  0  0  0  0
    8.6035  -16.1399   21.0036 N   0  0  0  0  0  0  0  0  0  0  0  0
    8.9211  -16.3513   23.4191 C   0  0  0  0  0  0  0  0  0  0  0  0
   10.0924  -15.8781   23.3138 O   0  0  0  0  0  0  0  0  0  0  0  0
    8.3300  -16.4195   24.7049 N   0  0  0  0  0  0  0  0  0  0  0  0
    8.9668  -16.0419   25.9256 C   0  0  1  0  0  0  0  0  0  0  0  0
    8.0670  -15.3602   26.8956 C   0  0  0  0  0  0  0  0  0  0  0  0
    7.5932  -14.0289   26.4986 C   0  0  0  0  0  0  0  0  0  0  0  0
    8.4240  -13.1388   25.8407 C   0  0  0  0  0  0  0  0  0  0  0  0
    7.9953  -11.8853   25.4468 C   0  0  0  0  0  0  0  0  0  0  0  0
    6.7006  -11.4985   25.7132 C   0  0  0  0  0  0  0  0  0  0  0  0
    5.8704  -12.3671   26.3631 C   0  0  0  0  0  0  0  0  0  0  0  0
    6.3056  -13.6242   26.7545 C   0  0  0  0  0  0  0  0  0  0  0  0
    9.8447  -17.0932   26.4953 C   0  0  0  0  0  0  0  0  0  0  0  0
   10.8149  -16.8983   27.4528 O   0  0  0  0  0  0  0  0  0  0  0  0
    9.7134  -18.2723   26.0854 O   0  0  0  0  0  0  0  0  0  0  0  0
  1  2  1  0
  2  4  1  0
  3  2  2  0
  4  5  1  0
  5  6  1  6
  7  5  1  0
  8  7  2  0
  9 10  1  0
 11 10  1  6
 11 13  1  0
 11 12  1  0
 12  7  1  0
 13 15  1  0
 14 13  2  0
 16 15  1  0
 16 24  1  0
 16 17  1  1
 18 17  1  0
 18 23  2  0
 19 18  1  0
 20 19  2  0
 20 21  1  0
 21 22  2  0
 22 23  1  0
 24 26  2  0
 24 25  1  0
M  END
$$$$
