NSF.pdb
     RDKit          3D

 26 26  0  0  1  0  0  0  0  0999 V2000
    6.3928  -12.2693   19.1568 N   0  0  0  0  0  0  0  0  0  0  0  0
    7.5880  -12.9287   19.5632 C   0  0  0  0  0  0  0  0  0  0  0  0
    8.6167  -12.8084   18.8595 O   0  0  0  0  0  0  0  0  0  0  0  0
    7.6077  -13.7442   20.7970 C   0  0  0  0  0  0  0  0  0  0  0  0
    8.1966  -15.1006   20.4388 C   0  0  2  0  0  0  0  0  0  0  0  0
    7.1636  -15.7729   19.6553 N   0  0  0  0  0  0  0  0  0  0  0  0
    8.4660  -15.9107   21.6350 C   0  0  0  0  0  0  0  0  0  0  0  0
    7.5219  -16.3364   22.3521 O   0  0  0  0  0  0  0  0  0  0  0  0
   12.3531  -16.3211   23.4278 O   0  0  0  0  0  0  0  0  0  0  0  0
   11.5529  -17.4190   23.1643 C   0  0  0  0  0  0  0  0  0  0  0  0
   10.0748  -17.0508   23.2124 C   0  0  2  0  0  0  0  0  0  0  0  0
    9.7902  -16.2648   22.0580 N   0  0  0  0  0  0  0  0  0  0  0  0
    9.7485  -16.3517   24.5016 C   0  0  0  0  0  0  0  0  0  0  0  0
    9.3837  -15.1378   24.4785 O   0  0  0  0  0  0  0  0  0  0  0  0
    9.8360  -17.0102   25.7530 N   0  0  0  0  0  0  0  0  0  0  0  0
    9.4166  -16.4629   27.0031 C   0  0  1  0  0  0  0  0  0  0  0  0
    8.0170  -15.9568   27.0068 C   0  0  0  0  0  0  0  0  0  0  0  0
    7.8565  -14.5238   26.7331 C   0  0  0  0  0  0  0  0  0  0  0  0
    6.7098  -14.0320   26.1342 C   0  0  0  0  0  0  0  0  0  0  0  0
    6.5323  -12.6853   25.8786 C   0  0  0  0  0  0  0  0  0  0  0  0
    7.5232  -11.7944   26.2266 C   0  0  0  0  0  0  0  0  0  0  0  0
    8.6608  -12.2667   26.8174 C   0  0  0  0  0  0  0  0  0  0  0  0
    8.8326  -13.6188   27.0729 C   0  0  0  0  0  0  0  0  0  0  0  0
    9.8055  -17.2812   28.1778 C   0  0  0  0  0  0  0  0  0  0  0  0
   10.4054  -18.5197   28.1314 O   0  0  0  0  0  0  0  0  0  0  0  0
    9.5781  -16.8290   29.3263 O   0  0  0  0  0  0  0  0  0  0  0  0
  1  2  1  0
  2  4  1  0
  3  2  2  0
  4  5  1  0
  5  6  1  6
  7  5  1  0
  8  7  2  0
  9 10  1  0
 11 10  1  1
 11 13  1  0
 11 12  1  0
 12  7  1  0
 13 15  1  0
 14 13  2  0
 16 15  1  0
 16 24  1  0
 16 17  1  6
 18 17  1  0
 18 23  2  0
 19 18  1  0
 20 19  2  0
 20 21  1  0
 21 22  2  0
 22 23  1  0
 24 26  2  0
 24 25  1  0
M  END
$$$$
