NSF.pdb
     RDKit          3D

 26 26  0  0  1  0  0  0  0  0999 V2000
    8.1543  -12.5177   16.7689 N   0  0  0  0  0  0  0  0  0  0  0  0
    7.8555  -13.8842   17.0372 C   0  0  0  0  0  0  0  0  0  0  0  0
    7.9789  -14.7244   16.1169 O   0  0  0  0  0  0  0  0  0  0  0  0
    7.4040  -14.2989   18.3832 C   0  0  0  0  0  0  0  0  0  0  0  0
    8.6445  -14.4817   19.2451 C   0  0  2  0  0  0  0  0  0  0  0  0
    9.4755  -15.4414   18.5231 N   0  0  0  0  0  0  0  0  0  0  0  0
    8.3162  -15.0547   20.5580 C   0  0  0  0  0  0  0  0  0  0  0  0
    7.6655  -14.3903   21.4075 O   0  0  0  0  0  0  0  0  0  0  0  0
   10.0109  -18.7132   21.8026 O   0  0  0  0  0  0  0  0  0  0  0  0
    8.7064  -18.4263   22.1647 C   0  0  0  0  0  0  0  0  0  0  0  0
    8.4737  -16.9226   22.2498 C   0  0  2  0  0  0  0  0  0  0  0  0
    8.7037  -16.3783   20.9529 N   0  0  0  0  0  0  0  0  0  0  0  0
    9.3454  -16.3147   23.3118 C   0  0  0  0  0  0  0  0  0  0  0  0
   10.5016  -15.8947   23.0054 O   0  0  0  0  0  0  0  0  0  0  0  0
    8.9140  -16.1945   24.6559 N   0  0  0  0  0  0  0  0  0  0  0  0
    9.6944  -15.6645   25.7275 C   0  0  1  0  0  0  0  0  0  0  0  0
    9.7855  -14.1789   25.7368 C   0  0  0  0  0  0  0  0  0  0  0  0
    8.5192  -13.4638   25.9351 C   0  0  0  0  0  0  0  0  0  0  0  0
    7.6046  -13.3259   24.9056 C   0  0  0  0  0  0  0  0  0  0  0  0
    6.4010  -12.6676   25.0734 C   0  0  0  0  0  0  0  0  0  0  0  0
    6.0914  -12.1264   26.3014 C   0  0  0  0  0  0  0  0  0  0  0  0
    6.9859  -12.2543   27.3259 C   0  0  0  0  0  0  0  0  0  0  0  0
    8.1913  -12.9174   27.1521 C   0  0  0  0  0  0  0  0  0  0  0  0
    9.4208  -16.2982   27.0405 C   0  0  0  0  0  0  0  0  0  0  0  0
   10.1489  -16.1056   28.1933 O   0  0  0  0  0  0  0  0  0  0  0  0
    8.4468  -17.0840   27.1366 O   0  0  0  0  0  0  0  0  0  0  0  0
  1  2  1  0
  2  4  1  0
  3  2  2  0
  4  5  1  0
  5  6  1  6
  7  5  1  0
  8  7  2  0
  9 10  1  0
 11 10  1  6
 11 13  1  0
 11 12  1  0
 12  7  1  0
 13 15  1  0
 14 13  2  0
 16 15  1  0
 16 24  1  0
 16 17  1  1
 18 17  1  0
 18 23  2  0
 19 18  1  0
 20 19  2  0
 20 21  1  0
 21 22  2  0
 22 23  1  0
 24 26  2  0
 24 25  1  0
M  END
$$$$
