NSF.pdb
     RDKit          3D

 26 26  0  0  1  0  0  0  0  0999 V2000
    7.5218  -12.9877   16.2449 N   0  0  0  0  0  0  0  0  0  0  0  0
    8.4675  -13.8878   16.8143 C   0  0  0  0  0  0  0  0  0  0  0  0
    9.4001  -14.3204   16.0994 O   0  0  0  0  0  0  0  0  0  0  0  0
    8.3435  -14.3043   18.2280 C   0  0  0  0  0  0  0  0  0  0  0  0
    8.6883  -15.7845   18.3002 C   0  0  2  0  0  0  0  0  0  0  0  0
    7.6392  -16.4605   17.5418 N   0  0  0  0  0  0  0  0  0  0  0  0
    8.6524  -16.2856   19.6813 C   0  0  0  0  0  0  0  0  0  0  0  0
    7.6443  -16.0928   20.4116 O   0  0  0  0  0  0  0  0  0  0  0  0
   12.1122  -17.7604   21.7400 O   0  0  0  0  0  0  0  0  0  0  0  0
   10.9102  -18.4456   21.7711 C   0  0  0  0  0  0  0  0  0  0  0  0
    9.7279  -17.4962   21.6188 C   0  0  2  0  0  0  0  0  0  0  0  0
    9.7358  -17.0119   20.2784 N   0  0  0  0  0  0  0  0  0  0  0  0
    9.7965  -16.4016   22.6457 C   0  0  0  0  0  0  0  0  0  0  0  0
   10.1811  -15.2443   22.2997 O   0  0  0  0  0  0  0  0  0  0  0  0
    9.4425  -16.6224   23.9997 N   0  0  0  0  0  0  0  0  0  0  0  0
    9.0406  -15.6094   24.9219 C   0  0  1  0  0  0  0  0  0  0  0  0
    7.9469  -14.7318   24.4230 C   0  0  0  0  0  0  0  0  0  0  0  0
    7.5294  -13.6556   25.3296 C   0  0  0  0  0  0  0  0  0  0  0  0
    8.1958  -12.4430   25.3581 C   0  0  0  0  0  0  0  0  0  0  0  0
    7.8123  -11.4117   26.1945 C   0  0  0  0  0  0  0  0  0  0  0  0
    6.7330  -11.5858   27.0321 C   0  0  0  0  0  0  0  0  0  0  0  0
    6.0670  -12.7784   27.0148 C   0  0  0  0  0  0  0  0  0  0  0  0
    6.4553  -13.8090   26.1722 C   0  0  0  0  0  0  0  0  0  0  0  0
    8.8893  -16.0924   26.3163 C   0  0  0  0  0  0  0  0  0  0  0  0
    9.4879  -15.5414   27.4272 O   0  0  0  0  0  0  0  0  0  0  0  0
    8.1580  -17.0898   26.5303 O   0  0  0  0  0  0  0  0  0  0  0  0
  1  2  1  0
  2  4  1  0
  3  2  2  0
  4  5  1  0
  5  6  1  6
  7  5  1  0
  8  7  2  0
  9 10  1  0
 11 10  1  6
 11 13  1  0
 11 12  1  0
 12  7  1  0
 13 15  1  0
 14 13  2  0
 16 15  1  0
 16 24  1  0
 16 17  1  6
 18 17  1  0
 18 23  2  0
 19 18  1  0
 20 19  2  0
 20 21  1  0
 21 22  2  0
 22 23  1  0
 24 26  2  0
 24 25  1  0
M  END
$$$$
