NSF.pdb
     RDKit          3D

 26 26  0  0  1  0  0  0  0  0999 V2000
    8.3435  -11.7657   18.4574 N   0  0  0  0  0  0  0  0  0  0  0  0
    7.9595  -13.0599   18.0031 C   0  0  0  0  0  0  0  0  0  0  0  0
    8.1737  -13.3723   16.8096 O   0  0  0  0  0  0  0  0  0  0  0  0
    7.3154  -14.0154   18.9302 C   0  0  0  0  0  0  0  0  0  0  0  0
    8.3829  -14.9983   19.3879 C   0  0  2  0  0  0  0  0  0  0  0  0
    8.5447  -15.9335   18.2779 N   0  0  0  0  0  0  0  0  0  0  0  0
    7.9530  -15.7582   20.5700 C   0  0  0  0  0  0  0  0  0  0  0  0
    6.7329  -15.9920   20.7782 O   0  0  0  0  0  0  0  0  0  0  0  0
   10.2415  -18.5759   22.2315 O   0  0  0  0  0  0  0  0  0  0  0  0
    8.8831  -18.4659   22.4719 C   0  0  0  0  0  0  0  0  0  0  0  0
    8.4767  -17.0144   22.6969 C   0  0  2  0  0  0  0  0  0  0  0  0
    8.8707  -16.2745   21.5443 N   0  0  0  0  0  0  0  0  0  0  0  0
    9.0765  -16.4917   23.9714 C   0  0  0  0  0  0  0  0  0  0  0  0
   10.2266  -15.9592   23.9475 O   0  0  0  0  0  0  0  0  0  0  0  0
    8.3930  -16.5751   25.2096 N   0  0  0  0  0  0  0  0  0  0  0  0
    8.9049  -16.1282   26.4651 C   0  0  1  0  0  0  0  0  0  0  0  0
    7.9546  -15.2901   27.2460 C   0  0  0  0  0  0  0  0  0  0  0  0
    7.6008  -13.9989   26.6445 C   0  0  0  0  0  0  0  0  0  0  0  0
    6.3915  -13.8169   25.9965 C   0  0  0  0  0  0  0  0  0  0  0  0
    6.0326  -12.6065   25.4340 C   0  0  0  0  0  0  0  0  0  0  0  0
    6.8996  -11.5395   25.5145 C   0  0  0  0  0  0  0  0  0  0  0  0
    8.0971  -11.7059   26.1504 C   0  0  0  0  0  0  0  0  0  0  0  0
    8.4512  -12.9222   26.7144 C   0  0  0  0  0  0  0  0  0  0  0  0
    9.6125  -17.1810   27.2343 C   0  0  0  0  0  0  0  0  0  0  0  0
   10.4923  -16.9646   28.2712 O   0  0  0  0  0  0  0  0  0  0  0  0
    9.4104  -18.3826   26.9336 O   0  0  0  0  0  0  0  0  0  0  0  0
  1  2  1  0
  2  4  1  0
  3  2  2  0
  4  5  1  0
  5  6  1  6
  7  5  1  0
  8  7  2  0
  9 10  1  0
 11 10  1  6
 11 13  1  0
 11 12  1  0
 12  7  1  0
 13 15  1  0
 14 13  2  0
 16 15  1  0
 16 24  1  0
 16 17  1  1
 18 17  1  0
 18 23  2  0
 19 18  1  0
 20 19  2  0
 20 21  1  0
 21 22  2  0
 22 23  1  0
 24 26  2  0
 24 25  1  0
M  END
$$$$
