NEH.pdb
     RDKit          3D

 28 28  0  0  1  0  0  0  0  0999 V2000
   15.9090  -16.4420  -15.6053 N   0  0  0  0  0  0  0  0  0  0  0  0
   15.9498  -15.2077  -14.9419 C   0  0  0  0  0  0  0  0  0  0  0  0
   15.3466  -15.0941  -13.8464 O   0  0  0  0  0  0  0  0  0  0  0  0
   16.6597  -14.0228  -15.4484 C   0  0  0  0  0  0  0  0  0  0  0  0
   17.1450  -14.2445  -16.8886 C   0  0  2  0  0  0  0  0  0  0  0  0
   18.0073  -15.4061  -16.9589 N   0  0  0  0  0  0  0  0  0  0  0  0
   17.9466  -13.0527  -17.2289 C   0  0  0  0  0  0  0  0  0  0  0  0
   19.1422  -13.0045  -16.8700 O   0  0  0  0  0  0  0  0  0  0  0  0
   17.3292  -12.0059  -17.9513 N   0  0  0  0  0  0  0  0  0  0  0  0
   18.1104  -10.8620  -18.3286 C   0  0  1  0  0  0  0  0  0  0  0  0
   17.4275  -10.0173  -19.3807 C   0  0  0  0  0  0  0  0  0  0  0  0
   17.1529  -10.7929  -20.6434 C   0  0  0  0  0  0  0  0  0  0  0  0
   16.4425   -9.8913  -21.5874 C   0  0  0  0  0  0  0  0  0  0  0  0
   17.0252   -8.9504  -22.1970 O   0  0  0  0  0  0  0  0  0  0  0  0
   18.4585  -10.0972  -17.1271 C   0  0  0  0  0  0  0  0  0  0  0  0
   17.8148  -10.2445  -16.0717 O   0  0  0  0  0  0  0  0  0  0  0  0
   15.0767  -10.0373  -21.8544 O   0  0  0  0  0  0  0  0  0  0  0  0
   19.5334   -9.1853  -17.1665 N   0  0  0  0  0  0  0  0  0  0  0  0
   19.9244   -8.5378  -15.9142 C   0  0  1  0  0  0  0  0  0  0  0  0
   20.7580   -9.5482  -15.1676 C   0  0  0  0  0  0  0  0  0  0  0  0
   21.3766   -8.9163  -13.9854 C   0  0  0  0  0  0  0  0  0  0  0  0
   21.2353   -7.6449  -13.5264 C   0  0  0  0  0  0  0  0  0  0  0  0
   21.9986   -7.5006  -12.4118 N   0  0  0  0  0  0  0  0  0  0  0  0
   22.6046   -8.6607  -12.1805 C   0  0  0  0  0  0  0  0  0  0  0  0
   22.2362   -9.5207  -13.1236 N   0  0  0  0  0  0  0  0  0  0  0  0
   20.6602   -7.3100  -16.2437 C   0  0  0  0  0  0  0  0  0  0  0  0
   20.4187   -6.2474  -15.6293 O   0  0  0  0  0  0  0  0  0  0  0  0
   21.6213   -7.3217  -17.2321 O   0  0  0  0  0  0  0  0  0  0  0  0
  2  3  2  0
  2  1  1  0
  4  2  1  0
  5  7  1  0
  5  4  1  0
  5  6  1  1
  7  8  2  0
  9  7  1  0
  9 10  1  0
 10 11  1  6
 12 11  1  0
 13 17  1  0
 13 12  1  0
 14 13  2  0
 15 18  1  0
 15 10  1  0
 16 15  2  0
 19 26  1  0
 19 20  1  6
 19 18  1  0
 21 22  2  0
 21 20  1  0
 23 22  1  0
 24 25  2  0
 24 23  1  0
 25 21  1  0
 26 28  1  0
 27 26  2  0
M  END
$$$$
