NEH.pdb
     RDKit          3D

 28 28  0  0  1  0  0  0  0  0999 V2000
   28.8510  -12.2249  -16.3279 N   0  0  0  0  0  0  0  0  0  0  0  0
   28.9742  -10.9136  -16.8080 C   0  0  0  0  0  0  0  0  0  0  0  0
   30.1253  -10.4490  -16.9980 O   0  0  0  0  0  0  0  0  0  0  0  0
   27.8329  -10.0349  -17.1079 C   0  0  0  0  0  0  0  0  0  0  0  0
   26.5016  -10.7351  -16.7981 C   0  0  2  0  0  0  0  0  0  0  0  0
   26.2778  -11.8284  -17.7213 N   0  0  0  0  0  0  0  0  0  0  0  0
   25.4538   -9.7199  -17.0214 C   0  0  0  0  0  0  0  0  0  0  0  0
   25.2789   -9.2738  -18.1752 O   0  0  0  0  0  0  0  0  0  0  0  0
   24.6837   -9.2881  -15.9170 N   0  0  0  0  0  0  0  0  0  0  0  0
   23.6085   -8.3620  -16.1345 C   0  0  1  0  0  0  0  0  0  0  0  0
   22.5393   -8.4575  -15.0693 C   0  0  0  0  0  0  0  0  0  0  0  0
   21.3679   -7.5535  -15.3559 C   0  0  0  0  0  0  0  0  0  0  0  0
   20.3839   -7.7185  -14.2546 C   0  0  0  0  0  0  0  0  0  0  0  0
   20.0774   -6.7765  -13.4703 O   0  0  0  0  0  0  0  0  0  0  0  0
   24.1561   -7.0085  -16.2669 C   0  0  0  0  0  0  0  0  0  0  0  0
   25.2190   -6.6950  -15.6996 O   0  0  0  0  0  0  0  0  0  0  0  0
   19.7375   -8.9382  -14.0245 O   0  0  0  0  0  0  0  0  0  0  0  0
   23.4726   -6.0513  -17.0448 N   0  0  0  0  0  0  0  0  0  0  0  0
   24.0302   -4.7003  -17.1084 C   0  0  1  0  0  0  0  0  0  0  0  0
   25.1214   -4.7506  -18.1477 C   0  0  0  0  0  0  0  0  0  0  0  0
   25.6802   -3.4003  -18.3575 C   0  0  0  0  0  0  0  0  0  0  0  0
   26.2742   -2.5740  -17.4566 C   0  0  0  0  0  0  0  0  0  0  0  0
   26.6272   -1.4257  -18.0910 N   0  0  0  0  0  0  0  0  0  0  0  0
   26.2599   -1.5342  -19.3637 C   0  0  0  0  0  0  0  0  0  0  0  0
   25.6880   -2.7210  -19.5346 N   0  0  0  0  0  0  0  0  0  0  0  0
   22.9449   -3.7724  -17.4526 C   0  0  0  0  0  0  0  0  0  0  0  0
   22.9694   -2.5930  -17.0364 O   0  0  0  0  0  0  0  0  0  0  0  0
   21.8929   -4.1962  -18.2365 O   0  0  0  0  0  0  0  0  0  0  0  0
  2  3  2  0
  2  1  1  0
  4  2  1  0
  5  7  1  0
  5  4  1  0
  5  6  1  6
  7  8  2  0
  9  7  1  0
  9 10  1  0
 10 11  1  1
 12 11  1  0
 13 17  1  0
 13 12  1  0
 14 13  2  0
 15 18  1  0
 15 10  1  0
 16 15  2  0
 19 26  1  0
 19 20  1  6
 19 18  1  0
 21 22  2  0
 21 20  1  0
 23 22  1  0
 24 25  2  0
 24 23  1  0
 25 21  1  0
 26 28  1  0
 27 26  2  0
M  END
$$$$
