NEH.pdb
     RDKit          3D

 28 28  0  0  1  0  0  0  0  0999 V2000
   17.6621  -13.3838  -17.2360 N   0  0  0  0  0  0  0  0  0  0  0  0
   17.2484  -12.0614  -17.4490 C   0  0  0  0  0  0  0  0  0  0  0  0
   16.2841  -11.8512  -18.2255 O   0  0  0  0  0  0  0  0  0  0  0  0
   17.8748  -10.8897  -16.8170 C   0  0  0  0  0  0  0  0  0  0  0  0
   19.0393  -11.3101  -15.9082 C   0  0  2  0  0  0  0  0  0  0  0  0
   18.5442  -12.0196  -14.7466 N   0  0  0  0  0  0  0  0  0  0  0  0
   19.6640  -10.0536  -15.4506 C   0  0  0  0  0  0  0  0  0  0  0  0
   19.2162   -9.4920  -14.4284 O   0  0  0  0  0  0  0  0  0  0  0  0
   20.7501   -9.5300  -16.1890 N   0  0  0  0  0  0  0  0  0  0  0  0
   21.3454   -8.2916  -15.7727 C   0  0  1  0  0  0  0  0  0  0  0  0
   22.8535   -8.3092  -15.8842 C   0  0  0  0  0  0  0  0  0  0  0  0
   23.4814   -9.3149  -14.9537 C   0  0  0  0  0  0  0  0  0  0  0  0
   24.9338   -9.3771  -15.2620 C   0  0  0  0  0  0  0  0  0  0  0  0
   25.4588   -8.7116  -16.1989 O   0  0  0  0  0  0  0  0  0  0  0  0
   20.7356   -7.1873  -16.5199 C   0  0  0  0  0  0  0  0  0  0  0  0
   20.3395   -7.3533  -17.6884 O   0  0  0  0  0  0  0  0  0  0  0  0
   25.8068  -10.1842  -14.5239 O   0  0  0  0  0  0  0  0  0  0  0  0
   20.5959   -5.9239  -15.9093 N   0  0  0  0  0  0  0  0  0  0  0  0
   19.9511   -4.8613  -16.6810 C   0  0  1  0  0  0  0  0  0  0  0  0
   18.5494   -5.3424  -16.9584 C   0  0  0  0  0  0  0  0  0  0  0  0
   17.7704   -4.2736  -17.6144 C   0  0  0  0  0  0  0  0  0  0  0  0
   17.8182   -3.8540  -18.9063 C   0  0  0  0  0  0  0  0  0  0  0  0
   16.9308   -2.8374  -19.0635 N   0  0  0  0  0  0  0  0  0  0  0  0
   16.3409   -2.6271  -17.8911 C   0  0  0  0  0  0  0  0  0  0  0  0
   16.8401   -3.4878  -17.0110 N   0  0  0  0  0  0  0  0  0  0  0  0
   19.9932   -3.6273  -15.8854 C   0  0  0  0  0  0  0  0  0  0  0  0
   20.2374   -3.6768  -14.6595 O   0  0  0  0  0  0  0  0  0  0  0  0
   19.7637   -2.4074  -16.4853 O   0  0  0  0  0  0  0  0  0  0  0  0
  2  3  2  0
  2  1  1  0
  4  2  1  0
  5  7  1  0
  5  4  1  0
  5  6  1  1
  7  8  2  0
  9  7  1  0
  9 10  1  0
 10 11  1  6
 12 11  1  0
 13 17  1  0
 13 12  1  0
 14 13  2  0
 15 18  1  0
 15 10  1  0
 16 15  2  0
 19 26  1  0
 19 20  1  1
 19 18  1  0
 21 22  2  0
 21 20  1  0
 23 22  1  0
 24 25  2  0
 24 23  1  0
 25 21  1  0
 26 28  1  0
 27 26  2  0
M  END
$$$$
