NEH.pdb
     RDKit          3D

 28 28  0  0  1  0  0  0  0  0999 V2000
   28.6643  -11.6497  -15.5072 N   0  0  0  0  0  0  0  0  0  0  0  0
   28.2146  -11.4732  -16.8232 C   0  0  0  0  0  0  0  0  0  0  0  0
   28.9110  -11.9308  -17.7627 O   0  0  0  0  0  0  0  0  0  0  0  0
   26.9674  -10.7801  -17.1822 C   0  0  0  0  0  0  0  0  0  0  0  0
   26.3022  -10.1646  -15.9423 C   0  0  2  0  0  0  0  0  0  0  0  0
   25.9333  -11.2001  -14.9992 N   0  0  0  0  0  0  0  0  0  0  0  0
   25.0662   -9.5212  -16.4289 C   0  0  0  0  0  0  0  0  0  0  0  0
   25.1541   -8.5883  -17.2552 O   0  0  0  0  0  0  0  0  0  0  0  0
   23.8237   -9.9863  -15.9401 N   0  0  0  0  0  0  0  0  0  0  0  0
   22.6148   -9.3619  -16.3983 C   0  0  1  0  0  0  0  0  0  0  0  0
   21.4114  -10.2687  -16.2694 C   0  0  0  0  0  0  0  0  0  0  0  0
   20.1582   -9.6321  -16.8132 C   0  0  0  0  0  0  0  0  0  0  0  0
   19.0379  -10.5883  -16.6155 C   0  0  0  0  0  0  0  0  0  0  0  0
   18.5365  -10.8222  -15.4796 O   0  0  0  0  0  0  0  0  0  0  0  0
   22.4375   -8.0838  -15.7023 C   0  0  0  0  0  0  0  0  0  0  0  0
   22.9233   -7.9042  -14.5702 O   0  0  0  0  0  0  0  0  0  0  0  0
   18.4725  -11.2881  -17.6873 O   0  0  0  0  0  0  0  0  0  0  0  0
   21.7094   -7.0466  -16.3208 N   0  0  0  0  0  0  0  0  0  0  0  0
   21.4576   -5.8329  -15.5438 C   0  0  1  0  0  0  0  0  0  0  0  0
   22.4147   -4.7953  -16.0736 C   0  0  0  0  0  0  0  0  0  0  0  0
   22.1078   -3.4779  -15.4820 C   0  0  0  0  0  0  0  0  0  0  0  0
   21.2753   -2.5085  -15.9449 C   0  0  0  0  0  0  0  0  0  0  0  0
   21.3096   -1.4608  -15.0807 N   0  0  0  0  0  0  0  0  0  0  0  0
   22.1481   -1.7715  -14.0973 C   0  0  0  0  0  0  0  0  0  0  0  0
   22.6346   -2.9855  -14.3300 N   0  0  0  0  0  0  0  0  0  0  0  0
   20.0470   -5.4622  -15.7175 C   0  0  0  0  0  0  0  0  0  0  0  0
   19.5234   -4.6091  -14.9671 O   0  0  0  0  0  0  0  0  0  0  0  0
   19.2920   -6.0522  -16.7087 O   0  0  0  0  0  0  0  0  0  0  0  0
  2  3  2  0
  2  1  1  0
  4  2  1  0
  5  7  1  0
  5  4  1  0
  5  6  1  1
  7  8  2  0
  9  7  1  0
  9 10  1  0
 10 11  1  1
 12 11  1  0
 13 17  1  0
 13 12  1  0
 14 13  2  0
 15 18  1  0
 15 10  1  0
 16 15  2  0
 19 26  1  0
 19 20  1  6
 19 18  1  0
 21 22  2  0
 21 20  1  0
 23 22  1  0
 24 25  2  0
 24 23  1  0
 25 21  1  0
 26 28  1  0
 27 26  2  0
M  END
$$$$
