NEH.pdb
     RDKit          3D

 28 28  0  0  1  0  0  0  0  0999 V2000
   23.5426  -12.6717  -17.4401 N   0  0  0  0  0  0  0  0  0  0  0  0
   22.1993  -12.4550  -17.1027 C   0  0  0  0  0  0  0  0  0  0  0  0
   21.3411  -13.2862  -17.4894 O   0  0  0  0  0  0  0  0  0  0  0  0
   21.7216  -11.3064  -16.3172 C   0  0  0  0  0  0  0  0  0  0  0  0
   22.8854  -10.3837  -15.9259 C   0  0  2  0  0  0  0  0  0  0  0  0
   23.7660  -11.0495  -14.9883 N   0  0  0  0  0  0  0  0  0  0  0  0
   22.2692   -9.2301  -15.2417 C   0  0  0  0  0  0  0  0  0  0  0  0
   22.1516   -9.2557  -13.9983 O   0  0  0  0  0  0  0  0  0  0  0  0
   21.8332   -8.1347  -16.0220 N   0  0  0  0  0  0  0  0  0  0  0  0
   21.2555   -6.9958  -15.3660 C   0  0  1  0  0  0  0  0  0  0  0  0
   21.8992   -5.6953  -15.7921 C   0  0  0  0  0  0  0  0  0  0  0  0
   21.2968   -4.5053  -15.0904 C   0  0  0  0  0  0  0  0  0  0  0  0
   22.3232   -3.9507  -14.1698 C   0  0  0  0  0  0  0  0  0  0  0  0
   22.1009   -3.7578  -12.9410 O   0  0  0  0  0  0  0  0  0  0  0  0
   19.8041   -7.0035  -15.5737 C   0  0  0  0  0  0  0  0  0  0  0  0
   19.0872   -6.1129  -15.0809 O   0  0  0  0  0  0  0  0  0  0  0  0
   23.6038   -3.6090  -14.6187 O   0  0  0  0  0  0  0  0  0  0  0  0
   19.2134   -8.0299  -16.3393 N   0  0  0  0  0  0  0  0  0  0  0  0
   17.7576   -8.0211  -16.4836 C   0  0  1  0  0  0  0  0  0  0  0  0
   17.4263   -9.1595  -17.4150 C   0  0  0  0  0  0  0  0  0  0  0  0
   15.9690   -9.2153  -17.6443 C   0  0  0  0  0  0  0  0  0  0  0  0
   15.0940   -8.1906  -17.8221 C   0  0  0  0  0  0  0  0  0  0  0  0
   13.8497   -8.7093  -17.9905 N   0  0  0  0  0  0  0  0  0  0  0  0
   13.9473  -10.0329  -17.9187 C   0  0  0  0  0  0  0  0  0  0  0  0
   15.2208  -10.3480  -17.7101 N   0  0  0  0  0  0  0  0  0  0  0  0
   17.1641   -8.1735  -15.1487 C   0  0  0  0  0  0  0  0  0  0  0  0
   17.5018   -9.1287  -14.4150 O   0  0  0  0  0  0  0  0  0  0  0  0
   16.2312   -7.2644  -14.6968 O   0  0  0  0  0  0  0  0  0  0  0  0
  2  3  2  0
  2  1  1  0
  4  2  1  0
  5  7  1  0
  5  4  1  0
  5  6  1  1
  7  8  2  0
  9  7  1  0
  9 10  1  0
 10 11  1  6
 12 11  1  0
 13 17  1  0
 13 12  1  0
 14 13  2  0
 15 18  1  0
 15 10  1  0
 16 15  2  0
 19 26  1  0
 19 20  1  6
 19 18  1  0
 21 22  2  0
 21 20  1  0
 23 22  1  0
 24 25  2  0
 24 23  1  0
 25 21  1  0
 26 28  1  0
 27 26  2  0
M  END
$$$$
