NEH.pdb
     RDKit          3D

 28 28  0  0  1  0  0  0  0  0999 V2000
   16.5159  -13.4713  -18.0117 N   0  0  0  0  0  0  0  0  0  0  0  0
   17.2157  -12.7207  -17.0566 C   0  0  0  0  0  0  0  0  0  0  0  0
   17.0673  -13.0050  -15.8425 O   0  0  0  0  0  0  0  0  0  0  0  0
   18.1225  -11.6094  -17.3844 C   0  0  0  0  0  0  0  0  0  0  0  0
   19.0375  -11.2758  -16.1969 C   0  0  2  0  0  0  0  0  0  0  0  0
   18.2595  -10.7690  -15.0852 N   0  0  0  0  0  0  0  0  0  0  0  0
   19.9276  -10.1968  -16.6680 C   0  0  0  0  0  0  0  0  0  0  0  0
   20.4533  -10.2952  -17.7970 O   0  0  0  0  0  0  0  0  0  0  0  0
   20.1531   -9.0875  -15.8209 N   0  0  0  0  0  0  0  0  0  0  0  0
   21.0364   -8.0433  -16.2575 C   0  0  1  0  0  0  0  0  0  0  0  0
   20.6119   -6.6807  -15.7573 C   0  0  0  0  0  0  0  0  0  0  0  0
   19.4433   -6.1284  -16.5324 C   0  0  0  0  0  0  0  0  0  0  0  0
   19.1391   -4.7758  -15.9974 C   0  0  0  0  0  0  0  0  0  0  0  0
   20.0171   -3.8733  -15.8924 O   0  0  0  0  0  0  0  0  0  0  0  0
   22.4110   -8.3828  -15.8770 C   0  0  0  0  0  0  0  0  0  0  0  0
   22.6621   -8.8440  -14.7481 O   0  0  0  0  0  0  0  0  0  0  0  0
   17.8512   -4.4253  -15.5769 O   0  0  0  0  0  0  0  0  0  0  0  0
   23.4600   -8.1854  -16.7985 N   0  0  0  0  0  0  0  0  0  0  0  0
   24.8006   -8.6232  -16.4095 C   0  0  1  0  0  0  0  0  0  0  0  0
   24.7022  -10.1108  -16.1848 C   0  0  0  0  0  0  0  0  0  0  0  0
   26.0522  -10.6870  -16.0265 C   0  0  0  0  0  0  0  0  0  0  0  0
   27.1657  -10.1167  -15.4954 C   0  0  0  0  0  0  0  0  0  0  0  0
   28.1843  -11.0130  -15.5631 N   0  0  0  0  0  0  0  0  0  0  0  0
   27.7144  -12.1215  -16.1262 C   0  0  0  0  0  0  0  0  0  0  0  0
   26.4300  -11.9351  -16.4092 N   0  0  0  0  0  0  0  0  0  0  0  0
   25.7314   -8.2604  -17.4862 C   0  0  0  0  0  0  0  0  0  0  0  0
   25.3138   -8.1135  -18.6563 O   0  0  0  0  0  0  0  0  0  0  0  0
   27.0706   -8.0796  -17.2134 O   0  0  0  0  0  0  0  0  0  0  0  0
  2  3  2  0
  2  1  1  0
  4  2  1  0
  5  7  1  0
  5  4  1  0
  5  6  1  1
  7  8  2  0
  9  7  1  0
  9 10  1  0
 10 11  1  1
 12 11  1  0
 13 17  1  0
 13 12  1  0
 14 13  2  0
 15 18  1  0
 15 10  1  0
 16 15  2  0
 19 26  1  0
 19 20  1  6
 19 18  1  0
 21 22  2  0
 21 20  1  0
 23 22  1  0
 24 25  2  0
 24 23  1  0
 25 21  1  0
 26 28  1  0
 27 26  2  0
M  END
$$$$
