NEH.pdb
     RDKit          3D

 28 28  0  0  1  0  0  0  0  0999 V2000
   14.3792  -13.3643  -16.4503 N   0  0  0  0  0  0  0  0  0  0  0  0
   13.9640  -12.0253  -16.4580 C   0  0  0  0  0  0  0  0  0  0  0  0
   12.8008  -11.7592  -16.8492 O   0  0  0  0  0  0  0  0  0  0  0  0
   14.8087  -10.8979  -16.0338 C   0  0  0  0  0  0  0  0  0  0  0  0
   16.2138  -11.3785  -15.6421 C   0  0  2  0  0  0  0  0  0  0  0  0
   16.1653  -12.1291  -14.4044 N   0  0  0  0  0  0  0  0  0  0  0  0
   17.0053  -10.1546  -15.4096 C   0  0  0  0  0  0  0  0  0  0  0  0
   16.7763   -9.4700  -14.3900 O   0  0  0  0  0  0  0  0  0  0  0  0
   17.9972   -9.8010  -16.3531 N   0  0  0  0  0  0  0  0  0  0  0  0
   18.8451   -8.6736  -16.0859 C   0  0  1  0  0  0  0  0  0  0  0  0
   20.2871   -8.9335  -16.4602 C   0  0  0  0  0  0  0  0  0  0  0  0
   21.1539   -7.7160  -16.2659 C   0  0  0  0  0  0  0  0  0  0  0  0
   22.5362   -8.0689  -16.6819 C   0  0  0  0  0  0  0  0  0  0  0  0
   22.8694   -9.2439  -17.0056 O   0  0  0  0  0  0  0  0  0  0  0  0
   18.2937   -7.4871  -16.7476 C   0  0  0  0  0  0  0  0  0  0  0  0
   17.8408   -7.5580  -17.9051 O   0  0  0  0  0  0  0  0  0  0  0  0
   23.5533   -7.1093  -16.7380 O   0  0  0  0  0  0  0  0  0  0  0  0
   18.2758   -6.2524  -16.0665 N   0  0  0  0  0  0  0  0  0  0  0  0
   17.7995   -5.0777  -16.7970 C   0  0  1  0  0  0  0  0  0  0  0  0
   16.5832   -4.5905  -16.0510 C   0  0  0  0  0  0  0  0  0  0  0  0
   15.3826   -5.3106  -16.5198 C   0  0  0  0  0  0  0  0  0  0  0  0
   15.2449   -6.1275  -17.5972 C   0  0  0  0  0  0  0  0  0  0  0  0
   13.9589   -6.5629  -17.6476 N   0  0  0  0  0  0  0  0  0  0  0  0
   13.3072   -6.0270  -16.6206 C   0  0  0  0  0  0  0  0  0  0  0  0
   14.1567   -5.2704  -15.9346 N   0  0  0  0  0  0  0  0  0  0  0  0
   18.8874   -4.0916  -16.8379 C   0  0  0  0  0  0  0  0  0  0  0  0
   19.8213   -4.1500  -16.0077 O   0  0  0  0  0  0  0  0  0  0  0  0
   18.8852   -3.0960  -17.7915 O   0  0  0  0  0  0  0  0  0  0  0  0
  2  3  2  0
  2  1  1  0
  4  2  1  0
  5  7  1  0
  5  4  1  0
  5  6  1  1
  7  8  2  0
  9  7  1  0
  9 10  1  0
 10 11  1  6
 12 11  1  0
 13 17  1  0
 13 12  1  0
 14 13  2  0
 15 18  1  0
 15 10  1  0
 16 15  2  0
 19 26  1  0
 19 20  1  1
 19 18  1  0
 21 22  2  0
 21 20  1  0
 23 22  1  0
 24 25  2  0
 24 23  1  0
 25 21  1  0
 26 28  1  0
 27 26  2  0
M  END
$$$$
