DHY.pdb
     RDKit          3D

 31 32  0  0  1  0  0  0  0  0999 V2000
   12.4856  -16.8796   17.7840 N   0  0  0  0  0  0  0  0  0  0  0  0
   11.7304  -17.5026   18.8216 C   0  0  1  0  0  0  0  0  0  0  0  0
   12.5403  -18.4403   19.6739 C   0  0  0  0  0  0  0  0  0  0  0  0
   12.9291  -19.6320   18.8908 C   0  0  0  0  0  0  0  0  0  0  0  0
   12.4308  -19.8070   17.7545 O   0  0  0  0  0  0  0  0  0  0  0  0
   11.1443  -16.4675   19.7048 C   0  0  0  0  0  0  0  0  0  0  0  0
   11.8640  -15.5333   20.1166 O   0  0  0  0  0  0  0  0  0  0  0  0
   13.8335  -20.5520   19.3972 O   0  0  0  0  0  0  0  0  0  0  0  0
    9.7926  -16.5194   20.0865 N   0  0  0  0  0  0  0  0  0  0  0  0
    9.2044  -15.5270   20.9346 C   0  0  1  0  0  0  0  0  0  0  0  0
    7.7968  -15.1921   20.4903 C   0  0  0  0  0  0  0  0  0  0  0  0
    7.8583  -14.4797   19.2102 C   0  0  0  0  0  0  0  0  0  0  0  0
    8.0622  -13.1063   19.0790 C   0  0  0  0  0  0  0  0  0  0  0  0
    8.0485  -12.8766   17.7508 N   0  0  0  0  0  0  0  0  0  0  0  0
    7.8452  -14.0576   17.1021 C   0  0  0  0  0  0  0  0  0  0  0  0
    7.7297  -15.0349   18.0063 N   0  0  0  0  0  0  0  0  0  0  0  0
    9.2742  -15.9375   22.3383 C   0  0  0  0  0  0  0  0  0  0  0  0
    9.1884  -17.1607   22.6265 O   0  0  0  0  0  0  0  0  0  0  0  0
   10.6289  -15.8902   30.9921 O   0  0  0  0  0  0  0  0  0  0  0  0
   10.3695  -15.4948   29.6791 C   0  0  0  0  0  0  0  0  0  0  0  0
   11.0182  -16.1022   28.6401 C   0  0  0  0  0  0  0  0  0  0  0  0
   10.7660  -15.7141   27.3229 C   0  0  0  0  0  0  0  0  0  0  0  0
    9.8614  -14.7180   27.0846 C   0  0  0  0  0  0  0  0  0  0  0  0
    9.5802  -14.2935   25.7098 C   0  0  0  0  0  0  0  0  0  0  0  0
    9.5240  -15.5070   24.8131 C   0  0  2  0  0  0  0  0  0  0  0  0
    9.4347  -15.0487   23.4289 N   0  0  0  0  0  0  0  0  0  0  0  0
    8.4393  -16.4527   25.1304 C   0  0  0  0  0  0  0  0  0  0  0  0
    8.7029  -17.4947   25.8051 O   0  0  0  0  0  0  0  0  0  0  0  0
    9.2222  -14.1220   28.1372 C   0  0  0  0  0  0  0  0  0  0  0  0
    9.4561  -14.4909   29.4616 C   0  0  0  0  0  0  0  0  0  0  0  0
    7.1226  -16.2997   24.7487 O   0  0  0  0  0  0  0  0  0  0  0  0
  2  1  1  6
  2  3  1  0
  3  4  1  0
  4  5  2  0
  4  8  1  0
  6  7  2  0
  6  2  1  0
  9  6  1  0
 10 11  1  6
 10  9  1  0
 11 12  1  0
 12 13  2  0
 14 13  1  0
 15 14  1  0
 16 15  2  0
 16 12  1  0
 17 26  1  0
 17 10  1  0
 18 17  2  0
 20 21  2  0
 20 19  1  0
 22 21  1  0
 23 22  2  0
 24 23  1  0
 25 26  1  0
 25 24  1  1
 27 25  1  0
 28 27  2  0
 29 23  1  0
 29 30  2  0
 30 20  1  0
 31 27  1  0
M  END
$$$$
