DHY.pdb
     RDKit          3D

 31 32  0  0  1  0  0  0  0  0999 V2000
   12.2150  -16.0044   17.5857 N   0  0  0  0  0  0  0  0  0  0  0  0
   12.2312  -16.5678   18.8963 C   0  0  1  0  0  0  0  0  0  0  0  0
   13.6154  -16.7458   19.4565 C   0  0  0  0  0  0  0  0  0  0  0  0
   14.3616  -17.7433   18.6611 C   0  0  0  0  0  0  0  0  0  0  0  0
   13.8855  -18.8938   18.5199 O   0  0  0  0  0  0  0  0  0  0  0  0
   11.4672  -15.7007   19.8233 C   0  0  0  0  0  0  0  0  0  0  0  0
   11.9741  -14.6306   20.2208 O   0  0  0  0  0  0  0  0  0  0  0  0
   15.5749  -17.4214   18.0737 O   0  0  0  0  0  0  0  0  0  0  0  0
   10.1819  -16.0625   20.2625 N   0  0  0  0  0  0  0  0  0  0  0  0
    9.4341  -15.2496   21.1737 C   0  0  1  0  0  0  0  0  0  0  0  0
    7.9714  -15.1992   20.7881 C   0  0  0  0  0  0  0  0  0  0  0  0
    7.8380  -14.4764   19.5193 C   0  0  0  0  0  0  0  0  0  0  0  0
    7.8712  -13.0879   19.3933 C   0  0  0  0  0  0  0  0  0  0  0  0
    7.7143  -12.8530   18.0753 N   0  0  0  0  0  0  0  0  0  0  0  0
    7.5911  -14.0455   17.4274 C   0  0  0  0  0  0  0  0  0  0  0  0
    7.6682  -15.0352   18.3222 N   0  0  0  0  0  0  0  0  0  0  0  0
    9.6426  -15.6919   22.5538 C   0  0  0  0  0  0  0  0  0  0  0  0
    9.7518  -16.9233   22.7952 O   0  0  0  0  0  0  0  0  0  0  0  0
   10.9311  -15.9947   31.1882 O   0  0  0  0  0  0  0  0  0  0  0  0
   10.7444  -15.5354   29.8837 C   0  0  0  0  0  0  0  0  0  0  0  0
    9.6104  -14.8454   29.5563 C   0  0  0  0  0  0  0  0  0  0  0  0
    9.4139  -14.3816   28.2542 C   0  0  0  0  0  0  0  0  0  0  0  0
   10.3705  -14.6261   27.3096 C   0  0  0  0  0  0  0  0  0  0  0  0
   10.1862  -14.1488   25.9356 C   0  0  0  0  0  0  0  0  0  0  0  0
    9.8444  -15.3169   25.0419 C   0  0  2  0  0  0  0  0  0  0  0  0
    9.7342  -14.8260   23.6705 N   0  0  0  0  0  0  0  0  0  0  0  0
    8.6344  -16.0582   25.4395 C   0  0  0  0  0  0  0  0  0  0  0  0
    7.5026  -15.6693   25.0176 O   0  0  0  0  0  0  0  0  0  0  0  0
   11.4986  -15.3183   27.6560 C   0  0  0  0  0  0  0  0  0  0  0  0
   11.7190  -15.7922   28.9489 C   0  0  0  0  0  0  0  0  0  0  0  0
    8.6236  -17.1721   26.2529 O   0  0  0  0  0  0  0  0  0  0  0  0
  2  1  1  6
  2  3  1  0
  3  4  1  0
  4  5  2  0
  4  8  1  0
  6  7  2  0
  6  2  1  0
  9  6  1  0
 10 11  1  6
 10  9  1  0
 11 12  1  0
 12 13  2  0
 14 13  1  0
 15 14  1  0
 16 15  2  0
 16 12  1  0
 17 26  1  0
 17 10  1  0
 18 17  2  0
 20 21  2  0
 20 19  1  0
 22 21  1  0
 23 22  2  0
 24 23  1  0
 25 26  1  0
 25 24  1  1
 27 25  1  0
 28 27  2  0
 29 23  1  0
 29 30  2  0
 30 20  1  0
 31 27  1  0
M  END
$$$$
