DHY.pdb
     RDKit          3D

 31 32  0  0  1  0  0  0  0  0999 V2000
    8.2069  -18.4744   20.1361 N   0  0  0  0  0  0  0  0  0  0  0  0
    9.4478  -18.2465   19.4703 C   0  0  1  0  0  0  0  0  0  0  0  0
    9.3498  -18.3299   17.9720 C   0  0  0  0  0  0  0  0  0  0  0  0
    8.8893  -19.6745   17.5665 C   0  0  0  0  0  0  0  0  0  0  0  0
    9.5669  -20.6773   17.8912 O   0  0  0  0  0  0  0  0  0  0  0  0
    9.9665  -16.9045   19.8239 C   0  0  0  0  0  0  0  0  0  0  0  0
   11.0891  -16.5508   19.4058 O   0  0  0  0  0  0  0  0  0  0  0  0
    7.7231  -19.8366   16.8353 O   0  0  0  0  0  0  0  0  0  0  0  0
    9.2162  -16.0233   20.6217 N   0  0  0  0  0  0  0  0  0  0  0  0
    9.7391  -14.7650   21.0614 C   0  0  1  0  0  0  0  0  0  0  0  0
    8.7554  -13.6438   20.8047 C   0  0  0  0  0  0  0  0  0  0  0  0
    8.3555  -13.6747   19.3943 C   0  0  0  0  0  0  0  0  0  0  0  0
    7.0760  -13.3729   18.9288 C   0  0  0  0  0  0  0  0  0  0  0  0
    7.1463  -13.5245   17.5912 N   0  0  0  0  0  0  0  0  0  0  0  0
    8.4124  -13.9019   17.2571 C   0  0  0  0  0  0  0  0  0  0  0  0
    9.1463  -13.9912   18.3704 N   0  0  0  0  0  0  0  0  0  0  0  0
   10.1618  -14.8402   22.4612 C   0  0  0  0  0  0  0  0  0  0  0  0
   10.4138  -13.7758   23.0858 O   0  0  0  0  0  0  0  0  0  0  0  0
   10.2477  -15.4870   30.8805 O   0  0  0  0  0  0  0  0  0  0  0  0
   10.0364  -15.4735   29.5011 C   0  0  0  0  0  0  0  0  0  0  0  0
   10.0380  -16.6451   28.7965 C   0  0  0  0  0  0  0  0  0  0  0  0
    9.8277  -16.6425   27.4163 C   0  0  0  0  0  0  0  0  0  0  0  0
    9.6199  -15.4527   26.7773 C   0  0  0  0  0  0  0  0  0  0  0  0
    9.3968  -15.4251   25.3285 C   0  0  0  0  0  0  0  0  0  0  0  0
   10.5712  -16.0666   24.6292 C   0  0  2  0  0  0  0  0  0  0  0  0
   10.3150  -16.0438   23.1913 N   0  0  0  0  0  0  0  0  0  0  0  0
   10.8881  -17.4299   25.0906 C   0  0  0  0  0  0  0  0  0  0  0  0
   10.3697  -18.4225   24.4938 O   0  0  0  0  0  0  0  0  0  0  0  0
    9.6219  -14.2906   27.4992 C   0  0  0  0  0  0  0  0  0  0  0  0
    9.8295  -14.2658   28.8781 C   0  0  0  0  0  0  0  0  0  0  0  0
   11.7252  -17.7311   26.1448 O   0  0  0  0  0  0  0  0  0  0  0  0
  2  1  1  1
  2  3  1  0
  3  4  1  0
  4  5  2  0
  4  8  1  0
  6  7  2  0
  6  2  1  0
  9  6  1  0
 10 11  1  1
 10  9  1  0
 11 12  1  0
 12 13  2  0
 14 13  1  0
 15 14  1  0
 16 15  2  0
 16 12  1  0
 17 26  1  0
 17 10  1  0
 18 17  2  0
 20 21  2  0
 20 19  1  0
 22 21  1  0
 23 22  2  0
 24 23  1  0
 25 26  1  0
 25 24  1  1
 27 25  1  0
 28 27  2  0
 29 23  1  0
 29 30  2  0
 30 20  1  0
 31 27  1  0
M  END
$$$$
