DHY.pdb
     RDKit          3D

 31 32  0  0  1  0  0  0  0  0999 V2000
    9.7700  -18.5553   15.9899 N   0  0  0  0  0  0  0  0  0  0  0  0
   10.3269  -17.5464   16.8309 C   0  0  1  0  0  0  0  0  0  0  0  0
   10.1184  -16.1501   16.3128 C   0  0  0  0  0  0  0  0  0  0  0  0
   10.8907  -15.9485   15.0689 C   0  0  0  0  0  0  0  0  0  0  0  0
   12.1021  -16.2679   15.0420 O   0  0  0  0  0  0  0  0  0  0  0  0
    9.7238  -17.6314   18.1814 C   0  0  0  0  0  0  0  0  0  0  0  0
    8.5135  -17.3611   18.3310 O   0  0  0  0  0  0  0  0  0  0  0  0
   10.2928  -15.4131   13.9390 O   0  0  0  0  0  0  0  0  0  0  0  0
   10.4908  -18.0109   19.2965 N   0  0  0  0  0  0  0  0  0  0  0  0
    9.9157  -18.1567   20.5996 C   0  0  1  0  0  0  0  0  0  0  0  0
   10.4691  -19.3738   21.3089 C   0  0  0  0  0  0  0  0  0  0  0  0
    9.8763  -20.5787   20.7201 C   0  0  0  0  0  0  0  0  0  0  0  0
    8.7221  -20.5902   19.9373 C   0  0  0  0  0  0  0  0  0  0  0  0
    8.5355  -21.8843   19.6094 N   0  0  0  0  0  0  0  0  0  0  0  0
    9.5316  -22.6278   20.1677 C   0  0  0  0  0  0  0  0  0  0  0  0
   10.3490  -21.8175   20.8470 N   0  0  0  0  0  0  0  0  0  0  0  0
   10.0741  -16.9258   21.3766 C   0  0  0  0  0  0  0  0  0  0  0  0
   11.1486  -16.2748   21.2854 O   0  0  0  0  0  0  0  0  0  0  0  0
    7.4434  -12.7784   17.5149 O   0  0  0  0  0  0  0  0  0  0  0  0
    7.6014  -13.1568   18.8489 C   0  0  0  0  0  0  0  0  0  0  0  0
    8.5844  -12.5880   19.6102 C   0  0  0  0  0  0  0  0  0  0  0  0
    8.7509  -12.9595   20.9457 C   0  0  0  0  0  0  0  0  0  0  0  0
    7.9181  -13.9000   21.4833 C   0  0  0  0  0  0  0  0  0  0  0  0
    8.0739  -14.3061   22.8835 C   0  0  0  0  0  0  0  0  0  0  0  0
    9.3041  -15.1710   23.0196 C   0  0  2  0  0  0  0  0  0  0  0  0
    9.0922  -16.3918   22.2460 N   0  0  0  0  0  0  0  0  0  0  0  0
    9.6828  -15.4819   24.4095 C   0  0  0  0  0  0  0  0  0  0  0  0
    9.5410  -16.6671   24.8402 O   0  0  0  0  0  0  0  0  0  0  0  0
    6.9404  -14.4580   20.7059 C   0  0  0  0  0  0  0  0  0  0  0  0
    6.7530  -14.1045   19.3699 C   0  0  0  0  0  0  0  0  0  0  0  0
   10.1949  -14.5711   25.3100 O   0  0  0  0  0  0  0  0  0  0  0  0
  2  1  1  6
  2  3  1  0
  3  4  1  0
  4  5  2  0
  4  8  1  0
  6  7  2  0
  6  2  1  0
  9  6  1  0
 10 11  1  1
 10  9  1  0
 11 12  1  0
 12 13  2  0
 14 13  1  0
 15 14  1  0
 16 15  2  0
 16 12  1  0
 17 26  1  0
 17 10  1  0
 18 17  2  0
 20 21  2  0
 20 19  1  0
 22 21  1  0
 23 22  2  0
 24 23  1  0
 25 26  1  0
 25 24  1  1
 27 25  1  0
 28 27  2  0
 29 23  1  0
 29 30  2  0
 30 20  1  0
 31 27  1  0
M  END
$$$$
