DHY.pdb
     RDKit          3D

 31 32  0  0  1  0  0  0  0  0999 V2000
   12.7548  -16.2834   20.6427 N   0  0  0  0  0  0  0  0  0  0  0  0
   12.0345  -15.0639   20.8132 C   0  0  1  0  0  0  0  0  0  0  0  0
   11.6904  -14.3833   19.5171 C   0  0  0  0  0  0  0  0  0  0  0  0
   12.9236  -13.9529   18.8255 C   0  0  0  0  0  0  0  0  0  0  0  0
   14.0363  -14.2135   19.3394 O   0  0  0  0  0  0  0  0  0  0  0  0
   10.7732  -15.3256   21.5450 C   0  0  0  0  0  0  0  0  0  0  0  0
    9.9471  -14.4007   21.6943 O   0  0  0  0  0  0  0  0  0  0  0  0
   12.8624  -13.2682   17.6220 O   0  0  0  0  0  0  0  0  0  0  0  0
   10.4911  -16.5971   22.0737 N   0  0  0  0  0  0  0  0  0  0  0  0
    9.2942  -16.8636   22.8130 C   0  0  1  0  0  0  0  0  0  0  0  0
    8.7456  -18.2366   22.4896 C   0  0  0  0  0  0  0  0  0  0  0  0
    8.1019  -18.1942   21.1728 C   0  0  0  0  0  0  0  0  0  0  0  0
    7.9916  -17.0499   20.3834 C   0  0  0  0  0  0  0  0  0  0  0  0
    7.3411  -17.4527   19.2736 N   0  0  0  0  0  0  0  0  0  0  0  0
    7.0675  -18.7832   19.3824 C   0  0  0  0  0  0  0  0  0  0  0  0
    7.5383  -19.2286   20.5511 N   0  0  0  0  0  0  0  0  0  0  0  0
    9.5152  -16.6636   24.2465 C   0  0  0  0  0  0  0  0  0  0  0  0
   10.6878  -16.7245   24.7025 O   0  0  0  0  0  0  0  0  0  0  0  0
    7.0549  -10.3679   25.3817 O   0  0  0  0  0  0  0  0  0  0  0  0
    7.1808  -11.6762   25.8507 C   0  0  0  0  0  0  0  0  0  0  0  0
    8.4186  -12.1922   26.1167 C   0  0  0  0  0  0  0  0  0  0  0  0
    8.5556  -13.4999   26.5863 C   0  0  0  0  0  0  0  0  0  0  0  0
    7.4354  -14.2588   26.7771 C   0  0  0  0  0  0  0  0  0  0  0  0
    7.5544  -15.6347   27.2696 C   0  0  0  0  0  0  0  0  0  0  0  0
    8.7480  -16.2959   26.6231 C   0  0  2  0  0  0  0  0  0  0  0  0
    8.4916  -16.4000   25.1888 N   0  0  0  0  0  0  0  0  0  0  0  0
    9.1061  -17.6061   27.1951 C   0  0  0  0  0  0  0  0  0  0  0  0
    9.5044  -17.6692   28.3983 O   0  0  0  0  0  0  0  0  0  0  0  0
    6.2054  -13.7252   26.5055 C   0  0  0  0  0  0  0  0  0  0  0  0
    6.0413  -12.4224   26.0357 C   0  0  0  0  0  0  0  0  0  0  0  0
    9.0429  -18.8061   26.5179 O   0  0  0  0  0  0  0  0  0  0  0  0
  2  1  1  6
  2  3  1  0
  3  4  1  0
  4  5  2  0
  4  8  1  0
  6  7  2  0
  6  2  1  0
  9  6  1  0
 10 11  1  1
 10  9  1  0
 11 12  1  0
 12 13  2  0
 14 13  1  0
 15 14  1  0
 16 15  2  0
 16 12  1  0
 17 26  1  0
 17 10  1  0
 18 17  2  0
 20 21  2  0
 20 19  1  0
 22 21  1  0
 23 22  2  0
 24 23  1  0
 25 26  1  0
 25 24  1  1
 27 25  1  0
 28 27  2  0
 29 23  1  0
 29 30  2  0
 30 20  1  0
 31 27  1  0
M  END
$$$$
