DHY.pdb
     RDKit          3D

 31 32  0  0  1  0  0  0  0  0999 V2000
   10.2104  -18.0973   18.6546 N   0  0  0  0  0  0  0  0  0  0  0  0
   11.2888  -17.4846   19.3594 C   0  0  1  0  0  0  0  0  0  0  0  0
   12.2943  -16.8206   18.4596 C   0  0  0  0  0  0  0  0  0  0  0  0
   13.1653  -17.8370   17.8329 C   0  0  0  0  0  0  0  0  0  0  0  0
   14.0817  -17.4667   17.0626 O   0  0  0  0  0  0  0  0  0  0  0  0
   10.7603  -16.4625   20.2927 C   0  0  0  0  0  0  0  0  0  0  0  0
   11.5502  -15.8447   21.0374 O   0  0  0  0  0  0  0  0  0  0  0  0
   12.9802  -19.1868   18.0867 O   0  0  0  0  0  0  0  0  0  0  0  0
    9.3853  -16.1770   20.3538 N   0  0  0  0  0  0  0  0  0  0  0  0
    8.8425  -15.2569   21.3072 C   0  0  1  0  0  0  0  0  0  0  0  0
    7.4983  -14.7291   20.8543 C   0  0  0  0  0  0  0  0  0  0  0  0
    7.6290  -14.1983   19.4937 C   0  0  0  0  0  0  0  0  0  0  0  0
    7.9900  -12.8863   19.1884 C   0  0  0  0  0  0  0  0  0  0  0  0
    7.9894  -12.8283   17.8416 N   0  0  0  0  0  0  0  0  0  0  0  0
    7.6433  -14.0507   17.3488 C   0  0  0  0  0  0  0  0  0  0  0  0
    7.4243  -14.8840   18.3703 N   0  0  0  0  0  0  0  0  0  0  0  0
    8.7958  -15.8599   22.6406 C   0  0  0  0  0  0  0  0  0  0  0  0
    9.3852  -16.9548   22.8417 O   0  0  0  0  0  0  0  0  0  0  0  0
   10.9582  -15.1759   30.9227 O   0  0  0  0  0  0  0  0  0  0  0  0
   10.5489  -14.9701   29.6044 C   0  0  0  0  0  0  0  0  0  0  0  0
   10.9203  -15.8507   28.6267 C   0  0  0  0  0  0  0  0  0  0  0  0
   10.5162  -15.6540   27.3048 C   0  0  0  0  0  0  0  0  0  0  0  0
    9.7437  -14.5689   26.9999 C   0  0  0  0  0  0  0  0  0  0  0  0
    9.3073  -14.3417   25.6188 C   0  0  0  0  0  0  0  0  0  0  0  0
    8.5389  -15.5470   25.1322 C   0  0  2  0  0  0  0  0  0  0  0  0
    8.1242  -15.2986   23.7538 N   0  0  0  0  0  0  0  0  0  0  0  0
    7.3882  -15.9199   25.9740 C   0  0  0  0  0  0  0  0  0  0  0  0
    6.2795  -15.3256   25.8070 O   0  0  0  0  0  0  0  0  0  0  0  0
    9.3821  -13.6988   27.9918 C   0  0  0  0  0  0  0  0  0  0  0  0
    9.7723  -13.8724   29.3193 C   0  0  0  0  0  0  0  0  0  0  0  0
    7.4103  -16.8885   26.9559 O   0  0  0  0  0  0  0  0  0  0  0  0
  2  1  1  6
  2  3  1  0
  3  4  1  0
  4  5  2  0
  4  8  1  0
  6  7  2  0
  6  2  1  0
  9  6  1  0
 10 11  1  6
 10  9  1  0
 11 12  1  0
 12 13  2  0
 14 13  1  0
 15 14  1  0
 16 15  2  0
 16 12  1  0
 17 26  1  0
 17 10  1  0
 18 17  2  0
 20 21  2  0
 20 19  1  0
 22 21  1  0
 23 22  2  0
 24 23  1  0
 25 26  1  0
 25 24  1  1
 27 25  1  0
 28 27  2  0
 29 23  1  0
 29 30  2  0
 30 20  1  0
 31 27  1  0
M  END
$$$$
