DHY.pdb
     RDKit          3D

 31 32  0  0  1  0  0  0  0  0999 V2000
   12.2220  -16.4705   18.8786 N   0  0  0  0  0  0  0  0  0  0  0  0
   12.7740  -15.4623   19.7236 C   0  0  1  0  0  0  0  0  0  0  0  0
   13.2494  -14.2468   18.9766 C   0  0  0  0  0  0  0  0  0  0  0  0
   14.5645  -14.5127   18.3567 C   0  0  0  0  0  0  0  0  0  0  0  0
   15.2217  -15.5153   18.7217 O   0  0  0  0  0  0  0  0  0  0  0  0
   11.7602  -15.0278   20.7126 C   0  0  0  0  0  0  0  0  0  0  0  0
   12.0842  -14.2210   21.6094 O   0  0  0  0  0  0  0  0  0  0  0  0
   15.0751  -13.6700   17.3821 O   0  0  0  0  0  0  0  0  0  0  0  0
   10.4403  -15.5083   20.6583 N   0  0  0  0  0  0  0  0  0  0  0  0
    9.4312  -15.0608   21.5701 C   0  0  1  0  0  0  0  0  0  0  0  0
    8.0493  -15.2015   20.9690 C   0  0  0  0  0  0  0  0  0  0  0  0
    8.0090  -14.4795   19.6934 C   0  0  0  0  0  0  0  0  0  0  0  0
    8.4611  -13.1730   19.5100 C   0  0  0  0  0  0  0  0  0  0  0  0
    8.2405  -12.9068   18.2071 N   0  0  0  0  0  0  0  0  0  0  0  0
    7.6790  -14.0025   17.6231 C   0  0  0  0  0  0  0  0  0  0  0  0
    7.5412  -14.9618   18.5433 N   0  0  0  0  0  0  0  0  0  0  0  0
    9.5609  -15.7399   22.8607 C   0  0  0  0  0  0  0  0  0  0  0  0
   10.1553  -16.8491   22.9152 O   0  0  0  0  0  0  0  0  0  0  0  0
    5.1944  -11.3618   26.9390 O   0  0  0  0  0  0  0  0  0  0  0  0
    6.2468  -12.2702   26.8175 C   0  0  0  0  0  0  0  0  0  0  0  0
    6.0385  -13.4843   26.2245 C   0  0  0  0  0  0  0  0  0  0  0  0
    7.0846  -14.4003   26.0980 C   0  0  0  0  0  0  0  0  0  0  0  0
    8.3211  -14.0678   26.5751 C   0  0  0  0  0  0  0  0  0  0  0  0
    9.4349  -15.0134   26.4535 C   0  0  0  0  0  0  0  0  0  0  0  0
    9.1440  -15.9884   25.3379 C   0  0  2  0  0  0  0  0  0  0  0  0
    9.0595  -15.2392   24.0867 N   0  0  0  0  0  0  0  0  0  0  0  0
    7.9408  -16.8139   25.5449 C   0  0  0  0  0  0  0  0  0  0  0  0
    7.8797  -17.5779   26.5562 O   0  0  0  0  0  0  0  0  0  0  0  0
    8.5103  -12.8482   27.1654 C   0  0  0  0  0  0  0  0  0  0  0  0
    7.4826  -11.9158   27.3041 C   0  0  0  0  0  0  0  0  0  0  0  0
    6.8414  -16.8284   24.7119 O   0  0  0  0  0  0  0  0  0  0  0  0
  2  1  1  6
  2  3  1  0
  3  4  1  0
  4  5  2  0
  4  8  1  0
  6  7  2  0
  6  2  1  0
  9  6  1  0
 10 11  1  6
 10  9  1  0
 11 12  1  0
 12 13  2  0
 14 13  1  0
 15 14  1  0
 16 15  2  0
 16 12  1  0
 17 26  1  0
 17 10  1  0
 18 17  2  0
 20 21  2  0
 20 19  1  0
 22 21  1  0
 23 22  2  0
 24 23  1  0
 25 26  1  0
 25 24  1  1
 27 25  1  0
 28 27  2  0
 29 23  1  0
 29 30  2  0
 30 20  1  0
 31 27  1  0
M  END
$$$$
