DHY.pdb
     RDKit          3D

 31 32  0  0  1  0  0  0  0  0999 V2000
   10.6669  -18.1329   19.0143 N   0  0  0  0  0  0  0  0  0  0  0  0
   11.6599  -17.4322   19.7615 C   0  0  1  0  0  0  0  0  0  0  0  0
   12.6097  -16.6415   18.9046 C   0  0  0  0  0  0  0  0  0  0  0  0
   13.4615  -17.5545   18.1137 C   0  0  0  0  0  0  0  0  0  0  0  0
   13.1340  -17.8307   16.9362 O   0  0  0  0  0  0  0  0  0  0  0  0
   11.0074  -16.4980   20.7084 C   0  0  0  0  0  0  0  0  0  0  0  0
   11.7137  -15.7595   21.4266 O   0  0  0  0  0  0  0  0  0  0  0  0
   14.6114  -18.1046   18.6577 O   0  0  0  0  0  0  0  0  0  0  0  0
    9.6072  -16.4293   20.8115 N   0  0  0  0  0  0  0  0  0  0  0  0
    8.9560  -15.5405   21.7259 C   0  0  1  0  0  0  0  0  0  0  0  0
    7.5835  -15.1475   21.2232 C   0  0  0  0  0  0  0  0  0  0  0  0
    7.7223  -14.5049   19.9126 C   0  0  0  0  0  0  0  0  0  0  0  0
    8.1463  -13.1908   19.7175 C   0  0  0  0  0  0  0  0  0  0  0  0
    8.1298  -13.0132   18.3814 N   0  0  0  0  0  0  0  0  0  0  0  0
    7.7142  -14.1679   17.7891 C   0  0  0  0  0  0  0  0  0  0  0  0
    7.4668  -15.0769   18.7371 N   0  0  0  0  0  0  0  0  0  0  0  0
    8.9246  -16.1141   23.0727 C   0  0  0  0  0  0  0  0  0  0  0  0
    9.1467  -17.3449   23.2223 O   0  0  0  0  0  0  0  0  0  0  0  0
    4.9361  -11.0905   26.6935 O   0  0  0  0  0  0  0  0  0  0  0  0
    5.9630  -12.0351   26.6650 C   0  0  0  0  0  0  0  0  0  0  0  0
    5.9501  -13.0872   27.5380 C   0  0  0  0  0  0  0  0  0  0  0  0
    6.9727  -14.0376   27.5178 C   0  0  0  0  0  0  0  0  0  0  0  0
    7.9879  -13.9032   26.6132 C   0  0  0  0  0  0  0  0  0  0  0  0
    9.0726  -14.8888   26.5732 C   0  0  0  0  0  0  0  0  0  0  0  0
    8.7242  -15.9762   25.5852 C   0  0  2  0  0  0  0  0  0  0  0  0
    8.6580  -15.3795   24.2535 N   0  0  0  0  0  0  0  0  0  0  0  0
    7.4878  -16.7145   25.8984 C   0  0  0  0  0  0  0  0  0  0  0  0
    6.4736  -16.5709   25.1495 O   0  0  0  0  0  0  0  0  0  0  0  0
    7.9836  -12.8438   25.7476 C   0  0  0  0  0  0  0  0  0  0  0  0
    6.9746  -11.8811   25.7472 C   0  0  0  0  0  0  0  0  0  0  0  0
    7.3318  -17.5750   26.9650 O   0  0  0  0  0  0  0  0  0  0  0  0
  2  1  1  6
  2  3  1  0
  3  4  1  0
  4  5  2  0
  4  8  1  0
  6  7  2  0
  6  2  1  0
  9  6  1  0
 10 11  1  6
 10  9  1  0
 11 12  1  0
 12 13  2  0
 14 13  1  0
 15 14  1  0
 16 15  2  0
 16 12  1  0
 17 26  1  0
 17 10  1  0
 18 17  2  0
 20 21  2  0
 20 19  1  0
 22 21  1  0
 23 22  2  0
 24 23  1  0
 25 26  1  0
 25 24  1  1
 27 25  1  0
 28 27  2  0
 29 23  1  0
 29 30  2  0
 30 20  1  0
 31 27  1  0
M  END
$$$$
