HGK.pdb
     RDKit          3D

 24 24  0  0  1  0  0  0  0  0999 V2000
    9.4841  -14.2369   21.5809 N   0  0  0  0  0  0  0  0  0  0  0  0
    8.1244  -13.7690   21.3993 C   0  0  1  0  0  0  0  0  0  0  0  0
    7.3443  -14.6675   20.4557 C   0  0  0  0  0  0  0  0  0  0  0  0
    7.6427  -14.2646   19.0590 C   0  0  0  0  0  0  0  0  0  0  0  0
    8.4129  -13.1935   18.6818 C   0  0  0  0  0  0  0  0  0  0  0  0
    8.4345  -13.1764   17.3371 N   0  0  0  0  0  0  0  0  0  0  0  0
    7.7010  -14.2047   16.8810 C   0  0  0  0  0  0  0  0  0  0  0  0
    7.2224  -14.8623   17.9441 N   0  0  0  0  0  0  0  0  0  0  0  0
    7.4872  -13.7193   22.7402 C   0  0  0  0  0  0  0  0  0  0  0  0
    6.2536  -13.4478   22.8720 O   0  0  0  0  0  0  0  0  0  0  0  0
    8.2002  -13.9676   23.9495 N   0  0  0  0  0  0  0  0  0  0  0  0
    7.5931  -13.7872   25.2470 C   0  0  0  0  0  0  0  0  0  0  0  0
    7.6805  -15.1110   25.9644 C   0  0  0  0  0  0  0  0  0  0  0  0
    7.8304  -15.1486   27.2136 O   0  0  0  0  0  0  0  0  0  0  0  0
    7.5964  -16.3323   25.2526 N   0  0  0  0  0  0  0  0  0  0  0  0
    7.7305  -17.6524   25.8095 C   0  0  1  0  0  0  0  0  0  0  0  0
    7.1596  -18.7431   24.9734 C   0  0  0  0  0  0  0  0  0  0  0  0
    7.2528  -20.1018   25.5658 C   0  0  0  0  0  0  0  0  0  0  0  0
    6.7393  -21.2144   24.7353 C   0  0  0  0  0  0  0  0  0  0  0  0
    6.8102  -22.5704   25.3755 C   0  0  0  0  0  0  0  0  0  0  0  0
    6.1976  -23.6207   24.6351 N   0  0  0  0  0  0  0  0  0  0  0  0
    9.1834  -17.9754   26.0698 C   0  0  0  0  0  0  0  0  0  0  0  0
   10.0304  -17.5056   25.2851 O   0  0  0  0  0  0  0  0  0  0  0  0
    9.5561  -18.7626   27.1389 O   0  0  0  0  0  0  0  0  0  0  0  0
  2  1  1  1
  2  9  1  0
  3  4  1  0
  3  2  1  0
  4  5  2  0
  5  6  1  0
  7  6  1  0
  8  4  1  0
  8  7  2  0
  9 10  2  0
 11 12  1  0
 11  9  1  0
 12 13  1  0
 13 14  2  0
 13 15  1  0
 15 16  1  0
 16 17  1  6
 16 22  1  0
 17 18  1  0
 19 18  1  0
 20 21  1  0
 20 19  1  0
 22 24  1  0
 23 22  2  0
M  END
$$$$
