HGK.pdb
     RDKit          3D

 24 24  0  0  1  0  0  0  0  0999 V2000
   10.1699  -15.6223   19.8125 N   0  0  0  0  0  0  0  0  0  0  0  0
    8.8870  -15.1141   20.2558 C   0  0  1  0  0  0  0  0  0  0  0  0
    7.7719  -15.4971   19.2986 C   0  0  0  0  0  0  0  0  0  0  0  0
    7.9814  -14.7847   18.0139 C   0  0  0  0  0  0  0  0  0  0  0  0
    9.0019  -13.9089   17.7412 C   0  0  0  0  0  0  0  0  0  0  0  0
    8.8323  -13.4862   16.4757 N   0  0  0  0  0  0  0  0  0  0  0  0
    7.7390  -14.0770   15.9666 C   0  0  0  0  0  0  0  0  0  0  0  0
    7.2280  -14.8686   16.9174 N   0  0  0  0  0  0  0  0  0  0  0  0
    8.6368  -15.6595   21.6146 C   0  0  0  0  0  0  0  0  0  0  0  0
    7.6368  -15.2822   22.3005 O   0  0  0  0  0  0  0  0  0  0  0  0
    9.4840  -16.6253   22.2328 N   0  0  0  0  0  0  0  0  0  0  0  0
    9.1612  -17.2228   23.5069 C   0  0  0  0  0  0  0  0  0  0  0  0
    9.7125  -16.3121   24.5753 C   0  0  0  0  0  0  0  0  0  0  0  0
   10.9181  -15.9518   24.5438 O   0  0  0  0  0  0  0  0  0  0  0  0
    8.8908  -15.8456   25.6300 N   0  0  0  0  0  0  0  0  0  0  0  0
    9.3135  -15.0403   26.7452 C   0  0  1  0  0  0  0  0  0  0  0  0
    8.2310  -14.2454   27.3863 C   0  0  0  0  0  0  0  0  0  0  0  0
    7.6050  -13.2196   26.5137 C   0  0  0  0  0  0  0  0  0  0  0  0
    6.4943  -12.4433   27.1094 C   0  0  0  0  0  0  0  0  0  0  0  0
    5.9039  -11.3911   26.2162 C   0  0  0  0  0  0  0  0  0  0  0  0
    4.8695  -10.6099   26.8048 N   0  0  0  0  0  0  0  0  0  0  0  0
    9.9549  -15.8995   27.8097 C   0  0  0  0  0  0  0  0  0  0  0  0
   10.5330  -15.3206   28.7502 O   0  0  0  0  0  0  0  0  0  0  0  0
    9.9009  -17.2757   27.7404 O   0  0  0  0  0  0  0  0  0  0  0  0
  2  1  1  6
  2  9  1  0
  3  4  1  0
  3  2  1  0
  4  5  2  0
  5  6  1  0
  7  6  1  0
  8  4  1  0
  8  7  2  0
  9 10  2  0
 11 12  1  0
 11  9  1  0
 12 13  1  0
 13 14  2  0
 13 15  1  0
 15 16  1  0
 16 17  1  1
 16 22  1  0
 17 18  1  0
 19 18  1  0
 20 21  1  0
 20 19  1  0
 22 24  1  0
 23 22  2  0
M  END
$$$$
