HGK.pdb
     RDKit          3D

 24 24  0  0  1  0  0  0  0  0999 V2000
    8.1972  -16.4950   20.5692 N   0  0  0  0  0  0  0  0  0  0  0  0
    9.6421  -16.4793   20.4574 C   0  0  1  0  0  0  0  0  0  0  0  0
   10.1485  -15.1480   19.9306 C   0  0  0  0  0  0  0  0  0  0  0  0
    9.0199  -14.4292   19.2893 C   0  0  0  0  0  0  0  0  0  0  0  0
    8.7219  -14.4390   17.9499 C   0  0  0  0  0  0  0  0  0  0  0  0
    7.6326  -13.6683   17.7818 N   0  0  0  0  0  0  0  0  0  0  0  0
    7.2556  -13.1876   18.9778 C   0  0  0  0  0  0  0  0  0  0  0  0
    8.1122  -13.6604   19.8912 N   0  0  0  0  0  0  0  0  0  0  0  0
   10.1968  -16.7678   21.8047 C   0  0  0  0  0  0  0  0  0  0  0  0
   11.4501  -16.8266   22.0009 O   0  0  0  0  0  0  0  0  0  0  0  0
    9.3786  -16.9947   22.9500 N   0  0  0  0  0  0  0  0  0  0  0  0
    9.9057  -17.5674   24.1661 C   0  0  0  0  0  0  0  0  0  0  0  0
   10.2655  -16.4197   25.0762 C   0  0  0  0  0  0  0  0  0  0  0  0
   11.1275  -15.5737   24.7222 O   0  0  0  0  0  0  0  0  0  0  0  0
    9.6451  -16.2704   26.3403 N   0  0  0  0  0  0  0  0  0  0  0  0
    9.9660  -15.2799   27.3336 C   0  0  1  0  0  0  0  0  0  0  0  0
    8.8093  -14.4699   27.8033 C   0  0  0  0  0  0  0  0  0  0  0  0
    8.1287  -13.6772   26.7478 C   0  0  0  0  0  0  0  0  0  0  0  0
    7.0249  -12.7996   27.1979 C   0  0  0  0  0  0  0  0  0  0  0  0
    6.4561  -11.9002   26.1391 C   0  0  0  0  0  0  0  0  0  0  0  0
    5.3931  -11.0570   26.5699 N   0  0  0  0  0  0  0  0  0  0  0  0
   10.6056  -15.9245   28.5412 C   0  0  0  0  0  0  0  0  0  0  0  0
   10.5546  -17.1668   28.6292 O   0  0  0  0  0  0  0  0  0  0  0  0
   11.2234  -15.1623   29.5102 O   0  0  0  0  0  0  0  0  0  0  0  0
  2  1  1  1
  2  9  1  0
  3  4  1  0
  3  2  1  0
  4  5  2  0
  5  6  1  0
  7  6  1  0
  8  4  1  0
  8  7  2  0
  9 10  2  0
 11 12  1  0
 11  9  1  0
 12 13  1  0
 13 14  2  0
 13 15  1  0
 15 16  1  0
 16 17  1  1
 16 22  1  0
 17 18  1  0
 19 18  1  0
 20 21  1  0
 20 19  1  0
 22 24  1  0
 23 22  2  0
M  END
$$$$
