PGC.pdb
     RDKit          3D

 18 18  0  0  1  0  0  0  0  0999 V2000
   24.0569  -20.5161  -16.6148 N   0  0  0  0  0  0  0  0  0  0  0  0
   22.6458  -20.4997  -16.3960 C   0  0  0  0  0  0  0  0  0  0  0  0
   22.3441  -19.3346  -15.4810 C   0  0  0  0  0  0  0  0  0  0  0  0
   23.5690  -18.4805  -15.5735 C   0  0  0  0  0  0  0  0  0  0  0  0
   24.5765  -19.2007  -16.4071 C   0  0  1  0  0  0  0  0  0  0  0  0
   25.8381  -19.3092  -15.5931 C   0  0  0  0  0  0  0  0  0  0  0  0
   26.3590  -18.3134  -15.0335 O   0  0  0  0  0  0  0  0  0  0  0  0
   26.4890  -20.5781  -15.4335 N   0  0  0  0  0  0  0  0  0  0  0  0
   27.5648  -20.6691  -14.4959 C   0  0  0  0  0  0  0  0  0  0  0  0
   27.1953  -20.8873  -13.1039 C   0  0  0  0  0  0  0  0  0  0  0  0
   28.0141  -21.5728  -12.4112 O   0  0  0  0  0  0  0  0  0  0  0  0
   26.0345  -20.4239  -12.4423 N   0  0  0  0  0  0  0  0  0  0  0  0
   25.5820  -20.9504  -11.1639 C   0  0  1  0  0  0  0  0  0  0  0  0
   26.2441  -20.1991  -10.0580 C   0  0  0  0  0  0  0  0  0  0  0  0
   25.5316  -20.6861   -8.4444 S   0  0  0  0  0  0  0  0  0  0  0  0
   24.1052  -20.8343  -11.0843 C   0  0  0  0  0  0  0  0  0  0  0  0
   23.3758  -21.6711  -10.2284 O   0  0  0  0  0  0  0  0  0  0  0  0
   23.5090  -19.9911  -11.7796 O   0  0  0  0  0  0  0  0  0  0  0  0
  1  5  1  0
  1  2  1  0
  2  3  1  0
  4  3  1  0
  5  4  1  0
  6  8  1  0
  5  6  1  1
  7  6  2  0
  9  8  1  0
 10  9  1  0
 11 10  2  0
 12 10  1  0
 13 16  1  0
 13 12  1  0
 13 14  1  1
 15 14  1  0
 16 17  1  0
 18 16  2  0
M  END
$$$$
