PGC.pdb
     RDKit          3D

 18 18  0  0  1  0  0  0  0  0999 V2000
   20.0242  -10.1726  -16.8530 N   0  0  0  0  0  0  0  0  0  0  0  0
   20.4081  -11.4957  -17.2288 C   0  0  0  0  0  0  0  0  0  0  0  0
   19.3019  -12.4286  -16.7910 C   0  0  0  0  0  0  0  0  0  0  0  0
   18.1347  -11.5195  -16.5680 C   0  0  0  0  0  0  0  0  0  0  0  0
   18.5999  -10.1124  -16.7472 C   0  0  1  0  0  0  0  0  0  0  0  0
   18.2461   -9.3591  -15.4928 C   0  0  0  0  0  0  0  0  0  0  0  0
   17.0562   -9.1804  -15.1348 O   0  0  0  0  0  0  0  0  0  0  0  0
   19.2803   -8.8162  -14.6592 N   0  0  0  0  0  0  0  0  0  0  0  0
   18.8906   -8.0440  -13.5206 C   0  0  0  0  0  0  0  0  0  0  0  0
   19.3210   -6.6525  -13.5022 C   0  0  0  0  0  0  0  0  0  0  0  0
   19.1000   -6.0154  -12.4227 O   0  0  0  0  0  0  0  0  0  0  0  0
   19.9532   -5.9369  -14.5453 N   0  0  0  0  0  0  0  0  0  0  0  0
   20.4034   -4.5604  -14.4086 C   0  0  1  0  0  0  0  0  0  0  0  0
   21.8948   -4.5243  -14.4255 C   0  0  0  0  0  0  0  0  0  0  0  0
   22.5684   -5.4594  -13.0042 S   0  0  0  0  0  0  0  0  0  0  0  0
   19.8331   -3.7493  -15.5122 C   0  0  0  0  0  0  0  0  0  0  0  0
   19.9850   -2.3558  -15.5164 O   0  0  0  0  0  0  0  0  0  0  0  0
   19.2167   -4.3063  -16.4394 O   0  0  0  0  0  0  0  0  0  0  0  0
  1  5  1  0
  1  2  1  0
  2  3  1  0
  4  3  1  0
  5  4  1  0
  6  8  1  0
  5  6  1  1
  7  6  2  0
  9  8  1  0
 10  9  1  0
 11 10  2  0
 12 10  1  0
 13 16  1  0
 13 12  1  0
 13 14  1  6
 15 14  1  0
 16 17  1  0
 18 16  2  0
M  END
$$$$
