PGC.pdb
     RDKit          3D

 18 18  0  0  1  0  0  0  0  0999 V2000
   24.0194  -21.5009  -13.6045 N   0  0  0  0  0  0  0  0  0  0  0  0
   24.5161  -22.5968  -12.8353 C   0  0  0  0  0  0  0  0  0  0  0  0
   25.9378  -22.8537  -13.2808 C   0  0  0  0  0  0  0  0  0  0  0  0
   26.3233  -21.5945  -13.9908 C   0  0  0  0  0  0  0  0  0  0  0  0
   25.1217  -20.7112  -14.0571 C   0  0  1  0  0  0  0  0  0  0  0  0
   24.8979  -20.3652  -15.5049 C   0  0  0  0  0  0  0  0  0  0  0  0
   25.6366  -19.5577  -16.1200 O   0  0  0  0  0  0  0  0  0  0  0  0
   23.8136  -20.9613  -16.2318 N   0  0  0  0  0  0  0  0  0  0  0  0
   23.5565  -20.4949  -17.5588 C   0  0  0  0  0  0  0  0  0  0  0  0
   22.3788  -19.6559  -17.7348 C   0  0  0  0  0  0  0  0  0  0  0  0
   22.1825  -19.2113  -18.9112 O   0  0  0  0  0  0  0  0  0  0  0  0
   21.4362  -19.2838  -16.7484 N   0  0  0  0  0  0  0  0  0  0  0  0
   20.2777  -18.4494  -17.0276 C   0  0  1  0  0  0  0  0  0  0  0  0
   19.0518  -19.1118  -16.4944 C   0  0  0  0  0  0  0  0  0  0  0  0
   19.0198  -19.0115  -14.6675 S   0  0  0  0  0  0  0  0  0  0  0  0
   20.4789  -17.1146  -16.4121 C   0  0  0  0  0  0  0  0  0  0  0  0
   19.5531  -16.0864  -16.6365 O   0  0  0  0  0  0  0  0  0  0  0  0
   21.4732  -16.9045  -15.6931 O   0  0  0  0  0  0  0  0  0  0  0  0
  1  5  1  0
  1  2  1  0
  2  3  1  0
  4  3  1  0
  5  4  1  0
  6  8  1  0
  5  6  1  6
  7  6  2  0
  9  8  1  0
 10  9  1  0
 11 10  2  0
 12 10  1  0
 13 16  1  0
 13 12  1  0
 13 14  1  1
 15 14  1  0
 16 17  1  0
 18 16  2  0
M  END
$$$$
