PGC.pdb
     RDKit          3D

 18 18  0  0  1  0  0  0  0  0999 V2000
   22.1535  -10.9881  -15.9360 N   0  0  0  0  0  0  0  0  0  0  0  0
   23.2706  -11.8776  -15.9537 C   0  0  0  0  0  0  0  0  0  0  0  0
   24.2788  -11.3564  -14.9549 C   0  0  0  0  0  0  0  0  0  0  0  0
   23.4841  -10.4213  -14.0991 C   0  0  0  0  0  0  0  0  0  0  0  0
   22.1101  -10.3189  -14.6736 C   0  0  1  0  0  0  0  0  0  0  0  0
   21.8324   -8.8595  -14.9167 C   0  0  0  0  0  0  0  0  0  0  0  0
   21.7385   -8.0324  -13.9769 O   0  0  0  0  0  0  0  0  0  0  0  0
   21.6650   -8.3681  -16.2545 N   0  0  0  0  0  0  0  0  0  0  0  0
   21.3939   -6.9752  -16.4306 C   0  0  0  0  0  0  0  0  0  0  0  0
   19.9908   -6.5843  -16.4476 C   0  0  0  0  0  0  0  0  0  0  0  0
   19.2601   -7.1691  -17.3102 O   0  0  0  0  0  0  0  0  0  0  0  0
   19.3559   -5.6326  -15.6161 N   0  0  0  0  0  0  0  0  0  0  0  0
   17.9491   -5.2823  -15.7359 C   0  0  1  0  0  0  0  0  0  0  0  0
   17.2294   -5.6975  -14.4967 C   0  0  0  0  0  0  0  0  0  0  0  0
   15.5956   -4.8781  -14.4070 S   0  0  0  0  0  0  0  0  0  0  0  0
   17.8286   -3.8213  -15.9640 C   0  0  0  0  0  0  0  0  0  0  0  0
   18.7142   -2.9331  -15.3383 O   0  0  0  0  0  0  0  0  0  0  0  0
   16.9381   -3.3801  -16.7138 O   0  0  0  0  0  0  0  0  0  0  0  0
  1  5  1  0
  1  2  1  0
  2  3  1  0
  4  3  1  0
  5  4  1  0
  6  8  1  0
  5  6  1  6
  7  6  2  0
  9  8  1  0
 10  9  1  0
 11 10  2  0
 12 10  1  0
 13 16  1  0
 13 12  1  0
 13 14  1  1
 15 14  1  0
 16 17  1  0
 18 16  2  0
M  END
$$$$
