PGC.pdb
     RDKit          3D

 18 18  0  0  1  0  0  0  0  0999 V2000
   26.1583  -10.4831  -17.6050 N   0  0  0  0  0  0  0  0  0  0  0  0
   27.1880  -10.0387  -16.7209 C   0  0  0  0  0  0  0  0  0  0  0  0
   26.7478  -10.3688  -15.3127 C   0  0  0  0  0  0  0  0  0  0  0  0
   25.6665  -11.3848  -15.5048 C   0  0  0  0  0  0  0  0  0  0  0  0
   25.4162  -11.5266  -16.9697 C   0  0  1  0  0  0  0  0  0  0  0  0
   23.9497  -11.2779  -17.2010 C   0  0  0  0  0  0  0  0  0  0  0  0
   23.0604  -11.9829  -16.6641 O   0  0  0  0  0  0  0  0  0  0  0  0
   23.5238  -10.2081  -18.0574 N   0  0  0  0  0  0  0  0  0  0  0  0
   22.1205  -10.0364  -18.2722 C   0  0  0  0  0  0  0  0  0  0  0  0
   21.4003   -9.2643  -17.2688 C   0  0  0  0  0  0  0  0  0  0  0  0
   20.2867   -8.7713  -17.6389 O   0  0  0  0  0  0  0  0  0  0  0  0
   21.8002   -9.0043  -15.9374 N   0  0  0  0  0  0  0  0  0  0  0  0
   21.0026   -8.2245  -15.0036 C   0  0  1  0  0  0  0  0  0  0  0  0
   21.1626   -8.7843  -13.6299 C   0  0  0  0  0  0  0  0  0  0  0  0
   20.2539  -10.3655  -13.4791 S   0  0  0  0  0  0  0  0  0  0  0  0
   21.4342   -6.8063  -15.0603 C   0  0  0  0  0  0  0  0  0  0  0  0
   20.7502   -5.8296  -14.3233 O   0  0  0  0  0  0  0  0  0  0  0  0
   22.4075   -6.4798  -15.7644 O   0  0  0  0  0  0  0  0  0  0  0  0
  1  5  1  0
  1  2  1  0
  2  3  1  0
  4  3  1  0
  5  4  1  0
  6  8  1  0
  5  6  1  1
  7  6  2  0
  9  8  1  0
 10  9  1  0
 11 10  2  0
 12 10  1  0
 13 16  1  0
 13 12  1  0
 13 14  1  1
 15 14  1  0
 16 17  1  0
 18 16  2  0
M  END
$$$$
