PGC.pdb
     RDKit          3D

 18 18  0  0  1  0  0  0  0  0999 V2000
   26.1484  -23.9971  -14.8035 N   0  0  0  0  0  0  0  0  0  0  0  0
   25.6987  -24.5417  -16.0447 C   0  0  0  0  0  0  0  0  0  0  0  0
   25.3352  -23.3806  -16.9421 C   0  0  0  0  0  0  0  0  0  0  0  0
   26.0131  -22.2094  -16.3041 C   0  0  0  0  0  0  0  0  0  0  0  0
   26.6279  -22.6685  -15.0235 C   0  0  1  0  0  0  0  0  0  0  0  0
   26.0980  -21.7826  -13.9279 C   0  0  0  0  0  0  0  0  0  0  0  0
   26.2079  -20.5327  -13.9684 O   0  0  0  0  0  0  0  0  0  0  0  0
   25.4414  -22.3561  -12.7880 N   0  0  0  0  0  0  0  0  0  0  0  0
   24.8948  -21.4684  -11.8093 C   0  0  0  0  0  0  0  0  0  0  0  0
   23.5745  -20.9228  -12.0937 C   0  0  0  0  0  0  0  0  0  0  0  0
   23.0764  -20.1724  -11.1943 O   0  0  0  0  0  0  0  0  0  0  0  0
   22.7909  -21.1340  -13.2519 N   0  0  0  0  0  0  0  0  0  0  0  0
   21.4847  -20.5258  -13.4522 C   0  0  1  0  0  0  0  0  0  0  0  0
   21.4234  -19.9251  -14.8165 C   0  0  0  0  0  0  0  0  0  0  0  0
   21.5642  -21.2302  -16.0915 S   0  0  0  0  0  0  0  0  0  0  0  0
   20.4340  -21.5573  -13.2709 C   0  0  0  0  0  0  0  0  0  0  0  0
   19.0864  -21.1838  -13.1735 O   0  0  0  0  0  0  0  0  0  0  0  0
   20.7478  -22.7602  -13.2047 O   0  0  0  0  0  0  0  0  0  0  0  0
  1  5  1  0
  1  2  1  0
  2  3  1  0
  4  3  1  0
  5  4  1  0
  6  8  1  0
  5  6  1  1
  7  6  2  0
  9  8  1  0
 10  9  1  0
 11 10  2  0
 12 10  1  0
 13 16  1  0
 13 12  1  0
 13 14  1  6
 15 14  1  0
 16 17  1  0
 18 16  2  0
M  END
$$$$
