PGC.pdb
     RDKit          3D

 18 18  0  0  1  0  0  0  0  0999 V2000
   22.4612  -11.2470  -16.3132 N   0  0  0  0  0  0  0  0  0  0  0  0
   23.5168  -11.7267  -17.1469 C   0  0  0  0  0  0  0  0  0  0  0  0
   24.8209  -11.2796  -16.5265 C   0  0  0  0  0  0  0  0  0  0  0  0
   24.4469  -10.9293  -15.1208 C   0  0  0  0  0  0  0  0  0  0  0  0
   22.9647  -11.0499  -14.9900 C   0  0  1  0  0  0  0  0  0  0  0  0
   22.4504   -9.7321  -14.4753 C   0  0  0  0  0  0  0  0  0  0  0  0
   22.7960   -9.2704  -13.3602 O   0  0  0  0  0  0  0  0  0  0  0  0
   21.5348   -8.9560  -15.2619 N   0  0  0  0  0  0  0  0  0  0  0  0
   21.0633   -7.7195  -14.7203 C   0  0  0  0  0  0  0  0  0  0  0  0
   19.9774   -7.0680  -15.4402 C   0  0  0  0  0  0  0  0  0  0  0  0
   20.2243   -6.7436  -16.6460 O   0  0  0  0  0  0  0  0  0  0  0  0
   18.6877   -6.7587  -14.9494 N   0  0  0  0  0  0  0  0  0  0  0  0
   17.6587   -6.1229  -15.7576 C   0  0  1  0  0  0  0  0  0  0  0  0
   16.3225   -6.6608  -15.3688 C   0  0  0  0  0  0  0  0  0  0  0  0
   16.3778   -8.4873  -15.2702 S   0  0  0  0  0  0  0  0  0  0  0  0
   17.7246   -4.6537  -15.5628 C   0  0  0  0  0  0  0  0  0  0  0  0
   17.0678   -3.7928  -16.4529 O   0  0  0  0  0  0  0  0  0  0  0  0
   18.3652   -4.1811  -14.6056 O   0  0  0  0  0  0  0  0  0  0  0  0
  1  5  1  0
  1  2  1  0
  2  3  1  0
  4  3  1  0
  5  4  1  0
  6  8  1  0
  5  6  1  6
  7  6  2  0
  9  8  1  0
 10  9  1  0
 11 10  2  0
 12 10  1  0
 13 16  1  0
 13 12  1  0
 13 14  1  1
 15 14  1  0
 16 17  1  0
 18 16  2  0
M  END
$$$$
