PGC.pdb
     RDKit          3D

 18 18  0  0  1  0  0  0  0  0999 V2000
   22.3848  -13.6623  -19.6712 N   0  0  0  0  0  0  0  0  0  0  0  0
   21.6122  -14.8557  -19.5358 C   0  0  0  0  0  0  0  0  0  0  0  0
   20.2464  -14.4542  -19.0268 C   0  0  0  0  0  0  0  0  0  0  0  0
   20.1756  -12.9871  -19.3113 C   0  0  0  0  0  0  0  0  0  0  0  0
   21.5013  -12.5515  -19.8417 C   0  0  1  0  0  0  0  0  0  0  0  0
   21.9833  -11.4208  -18.9726 C   0  0  0  0  0  0  0  0  0  0  0  0
   23.1737  -11.0225  -18.9950 O   0  0  0  0  0  0  0  0  0  0  0  0
   21.0765  -10.7575  -18.0799 N   0  0  0  0  0  0  0  0  0  0  0  0
   21.5507   -9.6113  -17.3686 C   0  0  0  0  0  0  0  0  0  0  0  0
   20.6026   -8.9678  -16.4692 C   0  0  0  0  0  0  0  0  0  0  0  0
   19.6113   -8.3932  -17.0234 O   0  0  0  0  0  0  0  0  0  0  0  0
   20.6626   -8.9120  -15.0574 N   0  0  0  0  0  0  0  0  0  0  0  0
   19.6999   -8.1823  -14.2470 C   0  0  1  0  0  0  0  0  0  0  0  0
   19.4077   -8.9595  -13.0074 C   0  0  0  0  0  0  0  0  0  0  0  0
   18.3455   -7.9831  -11.8818 S   0  0  0  0  0  0  0  0  0  0  0  0
   20.2500   -6.8427  -13.9249 C   0  0  0  0  0  0  0  0  0  0  0  0
   19.4299   -5.7078  -13.9898 O   0  0  0  0  0  0  0  0  0  0  0  0
   21.4447   -6.7235  -13.5955 O   0  0  0  0  0  0  0  0  0  0  0  0
  1  5  1  0
  1  2  1  0
  2  3  1  0
  4  3  1  0
  5  4  1  0
  6  8  1  0
  5  6  1  1
  7  6  2  0
  9  8  1  0
 10  9  1  0
 11 10  2  0
 12 10  1  0
 13 16  1  0
 13 12  1  0
 13 14  1  1
 15 14  1  0
 16 17  1  0
 18 16  2  0
M  END
$$$$
