PGC.pdb
     RDKit          3D

 18 18  0  0  1  0  0  0  0  0999 V2000
   18.1409  -10.8781  -14.2490 N   0  0  0  0  0  0  0  0  0  0  0  0
   17.1732  -11.7210  -14.8754 C   0  0  0  0  0  0  0  0  0  0  0  0
   16.3214  -10.8460  -15.7668 C   0  0  0  0  0  0  0  0  0  0  0  0
   17.1358   -9.6017  -15.9303 C   0  0  0  0  0  0  0  0  0  0  0  0
   18.3424   -9.7174  -15.0588 C   0  0  1  0  0  0  0  0  0  0  0  0
   18.3666   -8.5085  -14.1622 C   0  0  0  0  0  0  0  0  0  0  0  0
   18.4693   -7.3427  -14.6163 O   0  0  0  0  0  0  0  0  0  0  0  0
   18.2709   -8.6619  -12.7386 N   0  0  0  0  0  0  0  0  0  0  0  0
   18.1417   -7.4815  -11.9420 C   0  0  0  0  0  0  0  0  0  0  0  0
   16.8771   -7.3076  -11.2402 C   0  0  0  0  0  0  0  0  0  0  0  0
   16.1130   -6.3933  -11.6876 O   0  0  0  0  0  0  0  0  0  0  0  0
   16.4088   -8.0384  -10.1236 N   0  0  0  0  0  0  0  0  0  0  0  0
   15.1548   -7.7442   -9.4476 C   0  0  1  0  0  0  0  0  0  0  0  0
   14.6260   -8.9914   -8.8226 C   0  0  0  0  0  0  0  0  0  0  0  0
   13.1451   -8.6176   -7.8147 S   0  0  0  0  0  0  0  0  0  0  0  0
   15.3854   -6.6889   -8.4307 C   0  0  0  0  0  0  0  0  0  0  0  0
   14.4479   -5.6620   -8.2530 O   0  0  0  0  0  0  0  0  0  0  0  0
   16.4149   -6.7132   -7.7312 O   0  0  0  0  0  0  0  0  0  0  0  0
  1  5  1  0
  1  2  1  0
  2  3  1  0
  4  3  1  0
  5  4  1  0
  6  8  1  0
  5  6  1  1
  7  6  2  0
  9  8  1  0
 10  9  1  0
 11 10  2  0
 12 10  1  0
 13 16  1  0
 13 12  1  0
 13 14  1  1
 15 14  1  0
 16 17  1  0
 18 16  2  0
M  END
$$$$
