SRR.pdb
     RDKit          3D

 29 28  0  0  1  0  0  0  0  0999 V2000
   22.3203  -13.2713  -17.9742 O   0  0  0  0  0  0  0  0  0  0  0  0
   23.6629  -12.9699  -17.8120 C   0  0  0  0  0  0  0  0  0  0  0  0
   24.4921  -13.9873  -18.5668 C   0  0  2  0  0  0  0  0  0  0  0  0
   24.1690  -13.9739  -19.9704 N   0  0  0  0  0  0  0  0  0  0  0  0
   24.2839  -15.3157  -17.9343 C   0  0  0  0  0  0  0  0  0  0  0  0
   23.5310  -16.1232  -18.5269 O   0  0  0  0  0  0  0  0  0  0  0  0
   28.5587  -19.2702  -16.0526 N   0  0  0  0  0  0  0  0  0  0  0  0
   28.1867  -20.3913  -15.2717 C   0  0  0  0  0  0  0  0  0  0  0  0
   28.5957  -21.5563  -15.6281 N   0  0  0  0  0  0  0  0  0  0  0  0
   27.3809  -20.2721  -14.1173 N   0  0  0  0  0  0  0  0  0  0  0  0
   26.8598  -18.9786  -13.7481 C   0  0  0  0  0  0  0  0  0  0  0  0
   25.6537  -18.6954  -14.6075 C   0  0  0  0  0  0  0  0  0  0  0  0
   25.8343  -17.3725  -15.2874 C   0  0  0  0  0  0  0  0  0  0  0  0
   24.7098  -17.0374  -16.1741 C   0  0  2  0  0  0  0  0  0  0  0  0
   24.8809  -15.7112  -16.7176 N   0  0  0  0  0  0  0  0  0  0  0  0
   23.3815  -17.0911  -15.5238 C   0  0  0  0  0  0  0  0  0  0  0  0
   22.8844  -16.0392  -15.0795 O   0  0  0  0  0  0  0  0  0  0  0  0
   28.3882  -22.4204  -15.0853 N   0  0  0  0  0  0  0  0  0  0  0  0
   16.7514  -15.8303  -19.3294 C   0  0  0  0  0  0  0  0  0  0  0  0
   16.2029  -16.5265  -18.2250 N   0  0  0  0  0  0  0  0  0  0  0  0
   14.9012  -16.5276  -18.1407 N   0  0  0  0  0  0  0  0  0  0  0  0
   16.9843  -17.1862  -17.2632 C   0  0  0  0  0  0  0  0  0  0  0  0
   18.4563  -17.0597  -17.3228 C   0  0  0  0  0  0  0  0  0  0  0  0
   19.0773  -17.8397  -16.2192 C   0  0  0  0  0  0  0  0  0  0  0  0
   20.5642  -17.7809  -16.2576 C   0  0  1  0  0  0  0  0  0  0  0  0
   21.3149  -18.4981  -15.1939 N   0  0  0  0  0  0  0  0  0  0  0  0
   22.7333  -18.3383  -15.4353 C   0  0  0  0  0  0  0  0  0  0  0  0
   20.9827  -19.9103  -14.9590 O   0  0  0  0  0  0  0  0  0  0  0  0
   21.3375  -20.8551  -15.7464 O   0  0  0  0  0  0  0  0  0  0  0  0
  2  1  1  0
  3  4  1  6
  3  2  1  0
  5  3  1  0
  6  5  2  0
  7  8  1  0
  8  9  2  0
 10  8  1  0
 11 10  1  0
 12 11  1  0
 12 13  1  0
 14 15  1  0
 14 13  1  1
 15  5  1  0
 16 14  1  0
 17 16  2  0
 18 19  1  0
 19 20  2  0
 19 21  1  0
 21 22  1  0
 23 22  1  0
 24 23  1  0
 25 24  1  1
 25 26  1  0
 26 16  1  0
 27 29  1  0
 27 25  1  0
 28 27  2  0
M  END
$$$$
