SRR.pdb
     RDKit          3D

 29 28  0  0  1  0  0  0  0  0999 V2000
   27.6543  -17.8933  -19.8606 O   0  0  0  0  0  0  0  0  0  0  0  0
   26.8818  -18.9881  -19.5080 C   0  0  0  0  0  0  0  0  0  0  0  0
   27.7471  -19.9844  -18.7657 C   0  0  2  0  0  0  0  0  0  0  0  0
   27.9594  -21.1697  -19.5560 N   0  0  0  0  0  0  0  0  0  0  0  0
   27.1079  -20.2662  -17.4541 C   0  0  0  0  0  0  0  0  0  0  0  0
   26.0435  -20.9272  -17.4632 O   0  0  0  0  0  0  0  0  0  0  0  0
   26.5232  -22.2777   -9.5169 N   0  0  0  0  0  0  0  0  0  0  0  0
   25.7954  -21.0664   -9.6083 C   0  0  0  0  0  0  0  0  0  0  0  0
   24.7879  -20.8902   -8.8304 N   0  0  0  0  0  0  0  0  0  0  0  0
   26.1384  -20.0482  -10.5258 N   0  0  0  0  0  0  0  0  0  0  0  0
   26.9919  -20.3623  -11.6455 C   0  0  0  0  0  0  0  0  0  0  0  0
   26.9121  -19.2239  -12.6308 C   0  0  0  0  0  0  0  0  0  0  0  0
   27.7262  -19.5639  -13.8418 C   0  0  0  0  0  0  0  0  0  0  0  0
   26.8940  -19.9791  -14.9811 C   0  0  2  0  0  0  0  0  0  0  0  0
   27.6289  -19.8345  -16.2150 N   0  0  0  0  0  0  0  0  0  0  0  0
   25.6272  -19.2266  -15.1190 C   0  0  0  0  0  0  0  0  0  0  0  0
   25.6719  -18.0231  -15.4361 O   0  0  0  0  0  0  0  0  0  0  0  0
   24.2025  -20.0291   -8.8474 N   0  0  0  0  0  0  0  0  0  0  0  0
   18.9887  -19.9579  -20.1465 C   0  0  0  0  0  0  0  0  0  0  0  0
   18.5137  -19.0783  -19.1435 N   0  0  0  0  0  0  0  0  0  0  0  0
   17.3465  -18.5394  -19.3636 N   0  0  0  0  0  0  0  0  0  0  0  0
   19.2300  -18.7844  -17.9724 C   0  0  0  0  0  0  0  0  0  0  0  0
   20.5784  -19.3633  -17.7898 C   0  0  0  0  0  0  0  0  0  0  0  0
   21.0993  -19.0191  -16.4400 C   0  0  0  0  0  0  0  0  0  0  0  0
   22.4775  -19.5370  -16.2211 C   0  0  1  0  0  0  0  0  0  0  0  0
   23.1152  -19.2786  -14.9036 N   0  0  0  0  0  0  0  0  0  0  0  0
   24.4180  -19.9094  -14.8840 C   0  0  0  0  0  0  0  0  0  0  0  0
   22.3510  -19.6249  -13.6969 O   0  0  0  0  0  0  0  0  0  0  0  0
   22.6285  -20.6303  -12.9548 O   0  0  0  0  0  0  0  0  0  0  0  0
  2  1  1  0
  3  4  1  6
  3  2  1  0
  5  3  1  0
  6  5  2  0
  7  8  1  0
  8  9  2  0
 10  8  1  0
 11 10  1  0
 12 11  1  0
 12 13  1  0
 14 15  1  0
 14 13  1  1
 15  5  1  0
 16 14  1  0
 17 16  2  0
 18 19  1  0
 19 20  2  0
 19 21  1  0
 21 22  1  0
 23 22  1  0
 24 23  1  0
 25 24  1  6
 25 26  1  0
 26 16  1  0
 27 29  1  0
 27 25  1  0
 28 27  2  0
M  END
$$$$
