SRR.pdb
     RDKit          3D

 29 28  0  0  1  0  0  0  0  0999 V2000
   22.4874   -4.6238  -12.2993 O   0  0  0  0  0  0  0  0  0  0  0  0
   21.2738   -4.3405  -12.9050 C   0  0  0  0  0  0  0  0  0  0  0  0
   21.0562   -5.3066  -14.0503 C   0  0  2  0  0  0  0  0  0  0  0  0
   21.0632   -4.6153  -15.3139 N   0  0  0  0  0  0  0  0  0  0  0  0
   19.7922   -6.0463  -13.7986 C   0  0  0  0  0  0  0  0  0  0  0  0
   18.7238   -5.3938  -13.8510 O   0  0  0  0  0  0  0  0  0  0  0  0
   16.5029  -11.8177  -17.0475 N   0  0  0  0  0  0  0  0  0  0  0  0
   17.4483  -12.5356  -16.2755 C   0  0  0  0  0  0  0  0  0  0  0  0
   17.9931  -13.5831  -16.7827 N   0  0  0  0  0  0  0  0  0  0  0  0
   17.8101  -12.1405  -14.9682 N   0  0  0  0  0  0  0  0  0  0  0  0
   16.9286  -11.2781  -14.2197 C   0  0  0  0  0  0  0  0  0  0  0  0
   17.2767   -9.8490  -14.5510 C   0  0  0  0  0  0  0  0  0  0  0  0
   18.5357   -9.4704  -13.8323 C   0  0  0  0  0  0  0  0  0  0  0  0
   18.4804   -8.1087  -13.2795 C   0  0  2  0  0  0  0  0  0  0  0  0
   19.7318   -7.4264  -13.5072 N   0  0  0  0  0  0  0  0  0  0  0  0
   18.1909   -8.0491  -11.8294 C   0  0  0  0  0  0  0  0  0  0  0  0
   19.0507   -8.4555  -11.0253 O   0  0  0  0  0  0  0  0  0  0  0  0
   18.6591  -14.1866  -16.2567 N   0  0  0  0  0  0  0  0  0  0  0  0
   12.8415   -2.3752   -7.6935 C   0  0  0  0  0  0  0  0  0  0  0  0
   12.8649   -3.5113   -6.8485 N   0  0  0  0  0  0  0  0  0  0  0  0
   12.1552   -3.4254   -5.7574 N   0  0  0  0  0  0  0  0  0  0  0  0
   13.5956   -4.6743   -7.1389 C   0  0  0  0  0  0  0  0  0  0  0  0
   14.2222   -4.8160   -8.4708 C   0  0  0  0  0  0  0  0  0  0  0  0
   14.9895   -6.0883   -8.5373 C   0  0  0  0  0  0  0  0  0  0  0  0
   15.6311   -6.2882   -9.8654 C   0  0  1  0  0  0  0  0  0  0  0  0
   16.5079   -7.4756  -10.0411 N   0  0  0  0  0  0  0  0  0  0  0  0
   16.9468   -7.5316  -11.4194 C   0  0  0  0  0  0  0  0  0  0  0  0
   15.9850   -8.7790   -9.6079 O   0  0  0  0  0  0  0  0  0  0  0  0
   16.2036   -9.2724   -8.4472 O   0  0  0  0  0  0  0  0  0  0  0  0
  2  1  1  0
  3  4  1  6
  3  2  1  0
  5  3  1  0
  6  5  2  0
  7  8  1  0
  8  9  2  0
 10  8  1  0
 11 10  1  0
 12 11  1  0
 12 13  1  0
 14 15  1  0
 14 13  1  1
 15  5  1  0
 16 14  1  0
 17 16  2  0
 18 19  1  0
 19 20  2  0
 19 21  1  0
 21 22  1  0
 23 22  1  0
 24 23  1  0
 25 24  1  1
 25 26  1  0
 26 16  1  0
 27 29  1  0
 27 25  1  0
 28 27  2  0
M  END
$$$$
