SRR.pdb
     RDKit          3D

 29 28  0  0  1  0  0  0  0  0999 V2000
   22.2271  -32.7266   -2.8846 O   0  0  0  0  0  0  0  0  0  0  0  0
   23.3297  -32.7226   -3.7237 C   0  0  0  0  0  0  0  0  0  0  0  0
   22.9372  -33.3218   -5.0576 C   0  0  2  0  0  0  0  0  0  0  0  0
   21.7953  -34.1883   -4.9156 N   0  0  0  0  0  0  0  0  0  0  0  0
   24.1253  -34.0127   -5.6227 C   0  0  0  0  0  0  0  0  0  0  0  0
   24.3659  -35.1718   -5.2121 O   0  0  0  0  0  0  0  0  0  0  0  0
   23.9458  -32.4504  -11.4088 N   0  0  0  0  0  0  0  0  0  0  0  0
   24.7745  -33.1991  -12.2794 C   0  0  0  0  0  0  0  0  0  0  0  0
   24.2657  -33.6769  -13.3584 N   0  0  0  0  0  0  0  0  0  0  0  0
   26.1385  -33.4393  -12.0008 N   0  0  0  0  0  0  0  0  0  0  0  0
   26.6887  -33.0135  -10.7370 C   0  0  0  0  0  0  0  0  0  0  0  0
   26.1025  -33.8820   -9.6530 C   0  0  0  0  0  0  0  0  0  0  0  0
   26.6256  -33.4295   -8.3239 C   0  0  0  0  0  0  0  0  0  0  0  0
   26.0516  -34.1911   -7.2042 C   0  0  2  0  0  0  0  0  0  0  0  0
   24.9860  -33.4403   -6.5843 N   0  0  0  0  0  0  0  0  0  0  0  0
   27.0237  -34.5516   -6.1482 C   0  0  0  0  0  0  0  0  0  0  0  0
   27.0798  -33.8558   -5.1169 O   0  0  0  0  0  0  0  0  0  0  0  0
   24.8125  -34.2425  -14.0407 N   0  0  0  0  0  0  0  0  0  0  0  0
   26.7746  -38.4530    0.5792 C   0  0  0  0  0  0  0  0  0  0  0  0
   28.1284  -38.7379    0.2770 N   0  0  0  0  0  0  0  0  0  0  0  0
   28.7839  -39.4150    1.1788 N   0  0  0  0  0  0  0  0  0  0  0  0
   28.7558  -38.3320   -0.9115 C   0  0  0  0  0  0  0  0  0  0  0  0
   27.9976  -37.5131   -1.8815 C   0  0  0  0  0  0  0  0  0  0  0  0
   28.8361  -37.2398   -3.0791 C   0  0  0  0  0  0  0  0  0  0  0  0
   28.0864  -36.5034   -4.1332 C   0  0  1  0  0  0  0  0  0  0  0  0
   28.8057  -36.1666   -5.3897 N   0  0  0  0  0  0  0  0  0  0  0  0
   27.8485  -35.6739   -6.3575 C   0  0  0  0  0  0  0  0  0  0  0  0
   29.6605  -37.2036   -5.9846 O   0  0  0  0  0  0  0  0  0  0  0  0
   29.3455  -37.8510   -7.0430 O   0  0  0  0  0  0  0  0  0  0  0  0
  2  1  1  0
  3  4  1  1
  3  2  1  0
  5  3  1  0
  6  5  2  0
  7  8  1  0
  8  9  2  0
 10  8  1  0
 11 10  1  0
 12 11  1  0
 12 13  1  0
 14 15  1  0
 14 13  1  6
 15  5  1  0
 16 14  1  0
 17 16  2  0
 18 19  1  0
 19 20  2  0
 19 21  1  0
 21 22  1  0
 23 22  1  0
 24 23  1  0
 25 24  1  1
 25 26  1  0
 26 16  1  0
 27 29  1  0
 27 25  1  0
 28 27  2  0
M  END
$$$$
