SRR.pdb
     RDKit          3D

 29 28  0  0  1  0  0  0  0  0999 V2000
   18.3730  -23.0431  -13.2221 O   0  0  0  0  0  0  0  0  0  0  0  0
   19.1303  -21.9408  -13.5843 C   0  0  0  0  0  0  0  0  0  0  0  0
   19.7800  -21.3597  -12.3464 C   0  0  2  0  0  0  0  0  0  0  0  0
   18.8318  -20.5919  -11.5808 N   0  0  0  0  0  0  0  0  0  0  0  0
   20.9623  -20.5667  -12.7724 C   0  0  0  0  0  0  0  0  0  0  0  0
   20.7632  -19.3801  -13.1221 O   0  0  0  0  0  0  0  0  0  0  0  0
   28.4892  -19.8904  -15.0041 N   0  0  0  0  0  0  0  0  0  0  0  0
   28.1893  -21.2638  -14.8335 C   0  0  0  0  0  0  0  0  0  0  0  0
   28.5781  -22.0977  -15.7306 N   0  0  0  0  0  0  0  0  0  0  0  0
   27.4766  -21.7463  -13.7131 N   0  0  0  0  0  0  0  0  0  0  0  0
   27.1101  -20.8316  -12.6595 C   0  0  0  0  0  0  0  0  0  0  0  0
   25.8733  -20.0865  -13.0935 C   0  0  0  0  0  0  0  0  0  0  0  0
   24.6619  -20.8863  -12.7224 C   0  0  0  0  0  0  0  0  0  0  0  0
   23.4106  -20.2467  -13.1560 C   0  0  2  0  0  0  0  0  0  0  0  0
   22.2800  -21.0723  -12.8042 N   0  0  0  0  0  0  0  0  0  0  0  0
   23.3354  -19.9732  -14.6085 C   0  0  0  0  0  0  0  0  0  0  0  0
   23.0162  -20.8967  -15.3806 O   0  0  0  0  0  0  0  0  0  0  0  0
   28.4141  -23.1236  -15.6599 N   0  0  0  0  0  0  0  0  0  0  0  0
   18.6050  -17.3221  -18.9455 C   0  0  0  0  0  0  0  0  0  0  0  0
   19.0029  -16.1005  -18.3499 N   0  0  0  0  0  0  0  0  0  0  0  0
   18.0691  -15.1993  -18.2185 N   0  0  0  0  0  0  0  0  0  0  0  0
   20.3131  -15.8441  -17.9159 C   0  0  0  0  0  0  0  0  0  0  0  0
   21.3715  -16.8373  -18.1986 C   0  0  0  0  0  0  0  0  0  0  0  0
   22.6978  -16.2901  -17.8069 C   0  0  0  0  0  0  0  0  0  0  0  0
   23.1640  -16.8294  -16.5002 C   0  0  2  0  0  0  0  0  0  0  0  0
   23.5676  -18.2588  -16.4433 N   0  0  0  0  0  0  0  0  0  0  0  0
   23.6304  -18.6711  -15.0571 C   0  0  0  0  0  0  0  0  0  0  0  0
   24.7899  -18.6509  -17.1589 O   0  0  0  0  0  0  0  0  0  0  0  0
   25.9581  -18.5879  -16.6395 O   0  0  0  0  0  0  0  0  0  0  0  0
  2  1  1  0
  3  4  1  6
  3  2  1  0
  5  3  1  0
  6  5  2  0
  7  8  1  0
  8  9  2  0
 10  8  1  0
 11 10  1  0
 12 11  1  0
 12 13  1  0
 14 15  1  0
 14 13  1  6
 15  5  1  0
 16 14  1  0
 17 16  2  0
 18 19  1  0
 19 20  2  0
 19 21  1  0
 21 22  1  0
 23 22  1  0
 24 23  1  0
 25 24  1  6
 25 26  1  0
 26 16  1  0
 27 29  1  0
 27 25  1  0
 28 27  2  0
M  END
$$$$
