SRR.pdb
     RDKit          3D

 29 28  0  0  1  0  0  0  0  0999 V2000
   20.7559  -19.4928  -17.7210 O   0  0  0  0  0  0  0  0  0  0  0  0
   22.1149  -19.5524  -17.9842 C   0  0  0  0  0  0  0  0  0  0  0  0
   22.8754  -19.0756  -16.7649 C   0  0  2  0  0  0  0  0  0  0  0  0
   24.2931  -19.0560  -17.0187 N   0  0  0  0  0  0  0  0  0  0  0  0
   22.5015  -19.9425  -15.6174 C   0  0  0  0  0  0  0  0  0  0  0  0
   22.9801  -21.1003  -15.5914 O   0  0  0  0  0  0  0  0  0  0  0  0
   18.7921  -21.4995   -9.4361 N   0  0  0  0  0  0  0  0  0  0  0  0
   19.8340  -21.3533   -8.4883 C   0  0  0  0  0  0  0  0  0  0  0  0
   19.8670  -22.1471   -7.4783 N   0  0  0  0  0  0  0  0  0  0  0  0
   20.8352  -20.3646   -8.6150 N   0  0  0  0  0  0  0  0  0  0  0  0
   20.8647  -19.5338   -9.7940 C   0  0  0  0  0  0  0  0  0  0  0  0
   21.0087  -20.4308  -10.9972 C   0  0  0  0  0  0  0  0  0  0  0  0
   21.2614  -19.5890  -12.2107 C   0  0  0  0  0  0  0  0  0  0  0  0
   21.3588  -20.3894  -13.4406 C   0  0  2  0  0  0  0  0  0  0  0  0
   21.6471  -19.5370  -14.5693 N   0  0  0  0  0  0  0  0  0  0  0  0
   20.1415  -21.1674  -13.7616 C   0  0  0  0  0  0  0  0  0  0  0  0
   19.1044  -20.5587  -14.0854 O   0  0  0  0  0  0  0  0  0  0  0  0
   20.6029  -22.0986   -6.7431 N   0  0  0  0  0  0  0  0  0  0  0  0
   21.2421  -29.3197  -11.8528 C   0  0  0  0  0  0  0  0  0  0  0  0
   20.3456  -28.4579  -11.1755 N   0  0  0  0  0  0  0  0  0  0  0  0
   19.7016  -28.9814  -10.1692 N   0  0  0  0  0  0  0  0  0  0  0  0
   20.1405  -27.1175  -11.5389 C   0  0  0  0  0  0  0  0  0  0  0  0
   21.0384  -26.4975  -12.5368 C   0  0  0  0  0  0  0  0  0  0  0  0
   20.7076  -25.0556  -12.6899 C   0  0  0  0  0  0  0  0  0  0  0  0
   19.4968  -24.8434  -13.5293 C   0  0  1  0  0  0  0  0  0  0  0  0
   19.0579  -23.4445  -13.7735 N   0  0  0  0  0  0  0  0  0  0  0  0
   20.2099  -22.5721  -13.6862 C   0  0  0  0  0  0  0  0  0  0  0  0
   17.9494  -22.9260  -12.9596 O   0  0  0  0  0  0  0  0  0  0  0  0
   18.1128  -22.4034  -11.8026 O   0  0  0  0  0  0  0  0  0  0  0  0
  2  1  1  0
  3  4  1  6
  3  2  1  0
  5  3  1  0
  6  5  2  0
  7  8  1  0
  8  9  2  0
 10  8  1  0
 11 10  1  0
 12 11  1  0
 12 13  1  0
 14 15  1  0
 14 13  1  1
 15  5  1  0
 16 14  1  0
 17 16  2  0
 18 19  1  0
 19 20  2  0
 19 21  1  0
 21 22  1  0
 23 22  1  0
 24 23  1  0
 25 24  1  6
 25 26  1  0
 26 16  1  0
 27 29  1  0
 27 25  1  0
 28 27  2  0
M  END
$$$$
