SRR.pdb
     RDKit          3D

 29 28  0  0  1  0  0  0  0  0999 V2000
   27.0869  -19.7653  -19.3979 O   0  0  0  0  0  0  0  0  0  0  0  0
   28.1091  -19.6108  -18.4754 C   0  0  0  0  0  0  0  0  0  0  0  0
   28.2956  -20.9112  -17.7227 C   0  0  2  0  0  0  0  0  0  0  0  0
   28.3240  -22.0301  -18.6292 N   0  0  0  0  0  0  0  0  0  0  0  0
   27.2193  -21.0150  -16.7034 C   0  0  0  0  0  0  0  0  0  0  0  0
   26.2238  -21.7208  -16.9881 O   0  0  0  0  0  0  0  0  0  0  0  0
   26.8823  -21.2114   -9.1406 N   0  0  0  0  0  0  0  0  0  0  0  0
   25.5462  -20.7496   -9.0580 C   0  0  0  0  0  0  0  0  0  0  0  0
   24.7604  -21.2823   -8.1919 N   0  0  0  0  0  0  0  0  0  0  0  0
   25.0490  -19.7264   -9.8956 N   0  0  0  0  0  0  0  0  0  0  0  0
   25.8799  -19.2149  -10.9582 C   0  0  0  0  0  0  0  0  0  0  0  0
   25.3960  -19.8052  -12.2584 C   0  0  0  0  0  0  0  0  0  0  0  0
   26.5422  -19.8814  -13.2205 C   0  0  0  0  0  0  0  0  0  0  0  0
   26.1374  -20.3924  -14.5388 C   0  0  2  0  0  0  0  0  0  0  0  0
   27.2578  -20.3694  -15.4485 N   0  0  0  0  0  0  0  0  0  0  0  0
   25.0276  -19.6441  -15.1700 C   0  0  0  0  0  0  0  0  0  0  0  0
   25.2876  -18.8285  -16.0745 O   0  0  0  0  0  0  0  0  0  0  0  0
   23.7849  -20.9538   -8.0341 N   0  0  0  0  0  0  0  0  0  0  0  0
   21.6514  -23.0963  -21.2704 C   0  0  0  0  0  0  0  0  0  0  0  0
   20.8946  -22.0439  -20.7003 N   0  0  0  0  0  0  0  0  0  0  0  0
   19.7012  -21.8661  -21.1958 N   0  0  0  0  0  0  0  0  0  0  0  0
   21.3700  -21.2251  -19.6638 C   0  0  0  0  0  0  0  0  0  0  0  0
   22.7042  -21.4968  -19.0870 C   0  0  0  0  0  0  0  0  0  0  0  0
   23.0338  -20.4678  -18.0650 C   0  0  0  0  0  0  0  0  0  0  0  0
   22.9437  -21.0039  -16.6793 C   0  0  2  0  0  0  0  0  0  0  0  0
   22.5763  -20.0592  -15.5921 N   0  0  0  0  0  0  0  0  0  0  0  0
   23.7167  -19.8889  -14.7169 C   0  0  0  0  0  0  0  0  0  0  0  0
   21.3633  -20.3520  -14.8156 O   0  0  0  0  0  0  0  0  0  0  0  0
   20.2527  -19.7405  -14.9914 O   0  0  0  0  0  0  0  0  0  0  0  0
  2  1  1  0
  3  4  1  6
  3  2  1  0
  5  3  1  0
  6  5  2  0
  7  8  1  0
  8  9  2  0
 10  8  1  0
 11 10  1  0
 12 11  1  0
 12 13  1  0
 14 15  1  0
 14 13  1  1
 15  5  1  0
 16 14  1  0
 17 16  2  0
 18 19  1  0
 19 20  2  0
 19 21  1  0
 21 22  1  0
 23 22  1  0
 24 23  1  0
 25 24  1  6
 25 26  1  0
 26 16  1  0
 27 29  1  0
 27 25  1  0
 28 27  2  0
M  END
$$$$
