SRR.pdb
     RDKit          3D

 29 28  0  0  1  0  0  0  0  0999 V2000
   17.3022  -21.5971  -15.4431 O   0  0  0  0  0  0  0  0  0  0  0  0
   18.4833  -21.6008  -14.7186 C   0  0  0  0  0  0  0  0  0  0  0  0
   18.8194  -23.0248  -14.3294 C   0  0  2  0  0  0  0  0  0  0  0  0
   18.6791  -23.9119  -15.4554 N   0  0  0  0  0  0  0  0  0  0  0  0
   17.9606  -23.4054  -13.1780 C   0  0  0  0  0  0  0  0  0  0  0  0
   16.8825  -23.9907  -13.4334 O   0  0  0  0  0  0  0  0  0  0  0  0
   18.5566  -26.7602   -6.0286 N   0  0  0  0  0  0  0  0  0  0  0  0
   17.6392  -25.8480   -5.4528 C   0  0  0  0  0  0  0  0  0  0  0  0
   16.9807  -26.2088   -4.4099 N   0  0  0  0  0  0  0  0  0  0  0  0
   17.4228  -24.5581   -5.9869 N   0  0  0  0  0  0  0  0  0  0  0  0
   18.2371  -24.1014   -7.0866 C   0  0  0  0  0  0  0  0  0  0  0  0
   17.3906  -24.1121   -8.3341 C   0  0  0  0  0  0  0  0  0  0  0  0
   18.2098  -23.6204   -9.4883 C   0  0  0  0  0  0  0  0  0  0  0  0
   17.4386  -23.5567  -10.7391 C   0  0  2  0  0  0  0  0  0  0  0  0
   18.2900  -23.1460  -11.8299 N   0  0  0  0  0  0  0  0  0  0  0  0
   16.2816  -22.6349  -10.6974 C   0  0  0  0  0  0  0  0  0  0  0  0
   16.4888  -21.4107  -10.6000 O   0  0  0  0  0  0  0  0  0  0  0  0
   16.2654  -25.6045   -3.9542 N   0  0  0  0  0  0  0  0  0  0  0  0
   13.8959  -22.7736   -4.2263 C   0  0  0  0  0  0  0  0  0  0  0  0
   12.7573  -23.3063   -4.8783 N   0  0  0  0  0  0  0  0  0  0  0  0
   11.7499  -23.6118   -4.1082 N   0  0  0  0  0  0  0  0  0  0  0  0
   12.6850  -23.5047   -6.2662 C   0  0  0  0  0  0  0  0  0  0  0  0
   13.8750  -23.2193   -7.0964 C   0  0  0  0  0  0  0  0  0  0  0  0
   13.6271  -23.6429   -8.5003 C   0  0  0  0  0  0  0  0  0  0  0  0
   13.1870  -22.5096   -9.3593 C   0  0  2  0  0  0  0  0  0  0  0  0
   13.7705  -22.4044  -10.7223 N   0  0  0  0  0  0  0  0  0  0  0  0
   14.9878  -23.1864  -10.7704 C   0  0  0  0  0  0  0  0  0  0  0  0
   13.9955  -21.0573  -11.2653 O   0  0  0  0  0  0  0  0  0  0  0  0
   15.1600  -20.5507  -11.4258 O   0  0  0  0  0  0  0  0  0  0  0  0
  2  1  1  0
  3  4  1  6
  3  2  1  0
  5  3  1  0
  6  5  2  0
  7  8  1  0
  8  9  2  0
 10  8  1  0
 11 10  1  0
 12 11  1  0
 12 13  1  0
 14 15  1  0
 14 13  1  1
 15  5  1  0
 16 14  1  0
 17 16  2  0
 18 19  1  0
 19 20  2  0
 19 21  1  0
 21 22  1  0
 23 22  1  0
 24 23  1  0
 25 24  1  6
 25 26  1  0
 26 16  1  0
 27 29  1  0
 27 25  1  0
 28 27  2  0
M  END
$$$$
