ELI.pdb
     RDKit          3D

 26 25  0  0  1  0  0  0  0  0999 V2000
   17.6170  -12.7851  -15.6761 N   0  0  0  0  0  0  0  0  0  0  0  0
   18.6444  -12.0566  -16.3482 C   0  0  1  0  0  0  0  0  0  0  0  0
   18.0619  -11.1016  -17.3328 C   0  0  0  0  0  0  0  0  0  0  0  0
   16.7342  -10.5285  -16.9812 C   0  0  0  0  0  0  0  0  0  0  0  0
   16.1401   -9.6439  -17.9885 C   0  0  0  0  0  0  0  0  0  0  0  0
   15.0406   -9.0903  -17.7494 O   0  0  0  0  0  0  0  0  0  0  0  0
   19.6018  -11.4132  -15.4113 C   0  0  0  0  0  0  0  0  0  0  0  0
   19.1672  -10.7774  -14.4331 O   0  0  0  0  0  0  0  0  0  0  0  0
   16.7355   -9.3770  -19.2180 O   0  0  0  0  0  0  0  0  0  0  0  0
   24.8447  -13.3305  -15.6097 C   0  0  0  0  0  0  0  0  0  0  0  0
   23.4051  -12.8832  -15.3039 C   0  0  1  0  0  0  0  0  0  0  0  0
   23.2133  -13.3598  -13.8281 C   0  0  0  0  0  0  0  0  0  0  0  0
   23.4340  -11.4022  -15.2230 C   0  0  0  0  0  0  0  0  0  0  0  0
   22.0447  -10.8108  -15.0124 C   0  0  2  0  0  0  0  0  0  0  0  0
   20.9781  -11.5212  -15.6269 N   0  0  0  0  0  0  0  0  0  0  0  0
   21.9964   -9.3649  -15.0532 C   0  0  0  0  0  0  0  0  0  0  0  0
   22.8281   -8.6958  -14.3720 O   0  0  0  0  0  0  0  0  0  0  0  0
   22.4390   -4.5126  -18.0968 C   0  0  0  0  0  0  0  0  0  0  0  0
   21.2491   -5.0861  -17.3518 C   0  0  0  0  0  0  0  0  0  0  0  0
   21.2994   -6.6103  -17.3175 C   0  0  2  0  0  0  0  0  0  0  0  0
   20.4222   -7.2262  -18.3632 C   0  0  0  0  0  0  0  0  0  0  0  0
   21.1610   -7.1656  -15.9599 C   0  0  2  0  0  0  0  0  0  0  0  0
   21.1011   -8.5700  -15.7885 N   0  0  0  0  0  0  0  0  0  0  0  0
   19.9199   -6.5885  -15.3506 C   0  0  0  0  0  0  0  0  0  0  0  0
   19.8265   -5.3619  -15.0546 O   0  0  0  0  0  0  0  0  0  0  0  0
   18.7983   -7.3650  -15.0743 O   0  0  0  0  0  0  0  0  0  0  0  0
  2  3  1  0
  2  1  1  1
  4  3  1  0
  5  4  1  0
  6  5  2  0
  7  8  2  0
  7  2  1  0
  9  5  1  0
 11 10  1  1
 11 12  1  0
 14 13  1  6
 13 11  1  0
 14 15  1  0
 15  7  1  0
 16 14  1  0
 17 16  2  0
 18 19  1  0
 19 20  1  0
 20 21  1  6
 22 20  1  0
 22 23  1  6
 23 16  1  0
 24 26  1  0
 24 22  1  0
 25 24  2  0
M  END
$$$$
