ELI.pdb
     RDKit          3D

 26 25  0  0  1  0  0  0  0  0999 V2000
   19.8946  -13.3789  -17.4526 N   0  0  0  0  0  0  0  0  0  0  0  0
   20.8206  -12.4034  -17.9314 C   0  0  1  0  0  0  0  0  0  0  0  0
   20.4695  -11.9705  -19.3134 C   0  0  0  0  0  0  0  0  0  0  0  0
   20.3005  -13.0573  -20.3160 C   0  0  0  0  0  0  0  0  0  0  0  0
   20.0408  -12.6158  -21.6900 C   0  0  0  0  0  0  0  0  0  0  0  0
   19.8280  -13.4717  -22.5815 O   0  0  0  0  0  0  0  0  0  0  0  0
   20.9949  -11.2647  -16.9925 C   0  0  0  0  0  0  0  0  0  0  0  0
   20.0626  -10.9532  -16.2284 O   0  0  0  0  0  0  0  0  0  0  0  0
   20.0158  -11.2772  -22.0709 O   0  0  0  0  0  0  0  0  0  0  0  0
   25.9867  -10.1788  -14.9348 C   0  0  0  0  0  0  0  0  0  0  0  0
   24.4925  -10.4280  -15.2020 C   0  0  1  0  0  0  0  0  0  0  0  0
   23.8860  -10.3978  -13.7622 C   0  0  0  0  0  0  0  0  0  0  0  0
   23.9733   -9.2029  -15.8577 C   0  0  0  0  0  0  0  0  0  0  0  0
   22.5150   -9.3496  -16.2775 C   0  0  2  0  0  0  0  0  0  0  0  0
   22.1952  -10.5499  -16.9680 N   0  0  0  0  0  0  0  0  0  0  0  0
   21.8996   -8.1254  -16.7437 C   0  0  0  0  0  0  0  0  0  0  0  0
   22.1969   -7.6777  -17.8902 O   0  0  0  0  0  0  0  0  0  0  0  0
   17.4743   -7.1601  -18.9539 C   0  0  0  0  0  0  0  0  0  0  0  0
   18.8961   -7.0333  -18.4416 C   0  0  0  0  0  0  0  0  0  0  0  0
   18.9371   -6.3251  -17.0912 C   0  0  2  0  0  0  0  0  0  0  0  0
   18.1054   -5.0799  -17.0830 C   0  0  0  0  0  0  0  0  0  0  0  0
   20.3000   -6.1863  -16.5492 C   0  0  2  0  0  0  0  0  0  0  0  0
   20.9684   -7.3318  -16.0529 N   0  0  0  0  0  0  0  0  0  0  0  0
   20.2540   -5.1808  -15.4393 C   0  0  0  0  0  0  0  0  0  0  0  0
   20.0256   -3.9551  -15.6545 O   0  0  0  0  0  0  0  0  0  0  0  0
   20.4593   -5.5340  -14.1088 O   0  0  0  0  0  0  0  0  0  0  0  0
  2  3  1  0
  2  1  1  1
  4  3  1  0
  5  4  1  0
  6  5  2  0
  7  8  2  0
  7  2  1  0
  9  5  1  0
 11 10  1  1
 11 12  1  0
 14 13  1  6
 13 11  1  0
 14 15  1  0
 15  7  1  0
 16 14  1  0
 17 16  2  0
 18 19  1  0
 19 20  1  0
 20 21  1  6
 22 20  1  0
 22 23  1  1
 23 16  1  0
 24 26  1  0
 24 22  1  0
 25 24  2  0
M  END
$$$$
