ELI.pdb
     RDKit          3D

 26 25  0  0  1  0  0  0  0  0999 V2000
   23.8425  -20.2839  -19.0442 N   0  0  0  0  0  0  0  0  0  0  0  0
   23.4708  -20.2019  -17.6682 C   0  0  1  0  0  0  0  0  0  0  0  0
   22.2694  -21.0390  -17.3913 C   0  0  0  0  0  0  0  0  0  0  0  0
   21.0138  -20.6276  -18.0762 C   0  0  0  0  0  0  0  0  0  0  0  0
   20.4559  -19.3388  -17.6542 C   0  0  0  0  0  0  0  0  0  0  0  0
   20.4645  -18.3732  -18.4542 O   0  0  0  0  0  0  0  0  0  0  0  0
   24.6021  -20.4868  -16.7478 C   0  0  0  0  0  0  0  0  0  0  0  0
   24.9676  -21.6640  -16.5732 O   0  0  0  0  0  0  0  0  0  0  0  0
   19.9067  -19.1195  -16.3942 O   0  0  0  0  0  0  0  0  0  0  0  0
   27.4072  -15.8907  -15.3944 C   0  0  0  0  0  0  0  0  0  0  0  0
   26.8056  -17.2161  -15.8917 C   0  0  1  0  0  0  0  0  0  0  0  0
   27.8338  -17.6620  -16.9808 C   0  0  0  0  0  0  0  0  0  0  0  0
   26.9743  -18.1936  -14.7887 C   0  0  0  0  0  0  0  0  0  0  0  0
   26.2316  -19.4976  -15.0578 C   0  0  2  0  0  0  0  0  0  0  0  0
   25.2499  -19.4417  -16.0840 N   0  0  0  0  0  0  0  0  0  0  0  0
   25.9157  -20.2632  -13.8708 C   0  0  0  0  0  0  0  0  0  0  0  0
   26.5905  -21.3005  -13.6024 O   0  0  0  0  0  0  0  0  0  0  0  0
   27.0282  -20.0396   -9.2588 C   0  0  0  0  0  0  0  0  0  0  0  0
   26.4274  -20.9036  -10.3509 C   0  0  0  0  0  0  0  0  0  0  0  0
   24.9376  -20.6241  -10.5212 C   0  0  2  0  0  0  0  0  0  0  0  0
   24.1185  -21.2578   -9.4395 C   0  0  0  0  0  0  0  0  0  0  0  0
   24.4588  -20.8447  -11.8970 C   0  0  2  0  0  0  0  0  0  0  0  0
   24.9068  -19.9887  -12.9322 N   0  0  0  0  0  0  0  0  0  0  0  0
   22.9621  -20.7786  -11.8799 C   0  0  0  0  0  0  0  0  0  0  0  0
   22.3228  -19.8951  -12.5215 O   0  0  0  0  0  0  0  0  0  0  0  0
   22.1873  -21.6828  -11.1591 O   0  0  0  0  0  0  0  0  0  0  0  0
  2  3  1  0
  2  1  1  6
  4  3  1  0
  5  4  1  0
  6  5  2  0
  7  8  2  0
  7  2  1  0
  9  5  1  0
 11 10  1  1
 11 12  1  0
 14 13  1  1
 13 11  1  0
 14 15  1  0
 15  7  1  0
 16 14  1  0
 17 16  2  0
 18 19  1  0
 19 20  1  0
 20 21  1  1
 22 20  1  0
 22 23  1  6
 23 16  1  0
 24 26  1  0
 24 22  1  0
 25 24  2  0
M  END
$$$$
