ELI.pdb
     RDKit          3D

 26 25  0  0  1  0  0  0  0  0999 V2000
   28.0055  -21.0953  -17.5024 N   0  0  0  0  0  0  0  0  0  0  0  0
   27.4334  -20.0524  -16.7129 C   0  0  1  0  0  0  0  0  0  0  0  0
   26.7797  -19.0292  -17.5769 C   0  0  0  0  0  0  0  0  0  0  0  0
   27.6599  -18.3501  -18.5664 C   0  0  0  0  0  0  0  0  0  0  0  0
   28.2381  -19.2167  -19.5984 C   0  0  0  0  0  0  0  0  0  0  0  0
   27.4865  -19.7364  -20.4573 O   0  0  0  0  0  0  0  0  0  0  0  0
   26.5400  -20.5647  -15.6416 C   0  0  0  0  0  0  0  0  0  0  0  0
   25.6597  -21.3981  -15.9253 O   0  0  0  0  0  0  0  0  0  0  0  0
   29.5978  -19.5021  -19.6830 O   0  0  0  0  0  0  0  0  0  0  0  0
   28.6667  -20.5818  -10.5840 C   0  0  0  0  0  0  0  0  0  0  0  0
   27.9537  -20.9610  -11.8931 C   0  0  1  0  0  0  0  0  0  0  0  0
   27.6713  -22.4846  -11.6906 C   0  0  0  0  0  0  0  0  0  0  0  0
   26.6176  -20.3183  -11.8447 C   0  0  0  0  0  0  0  0  0  0  0  0
   25.8925  -20.3982  -13.1834 C   0  0  2  0  0  0  0  0  0  0  0  0
   26.6871  -20.1144  -14.3271 N   0  0  0  0  0  0  0  0  0  0  0  0
   24.5400  -19.8832  -13.1640 C   0  0  0  0  0  0  0  0  0  0  0  0
   24.3519  -18.6311  -13.1438 O   0  0  0  0  0  0  0  0  0  0  0  0
   21.0802  -19.7326  -16.7633 C   0  0  0  0  0  0  0  0  0  0  0  0
   21.8387  -19.4427  -15.4824 C   0  0  0  0  0  0  0  0  0  0  0  0
   21.1820  -20.1211  -14.2844 C   0  0  2  0  0  0  0  0  0  0  0  0
   19.7709  -19.6629  -14.0814 C   0  0  0  0  0  0  0  0  0  0  0  0
   22.0317  -20.1243  -13.0808 C   0  0  2  0  0  0  0  0  0  0  0  0
   23.3510  -20.6317  -13.1654 N   0  0  0  0  0  0  0  0  0  0  0  0
   21.3210  -20.9044  -12.0173 C   0  0  0  0  0  0  0  0  0  0  0  0
   21.7338  -22.0346  -11.6263 O   0  0  0  0  0  0  0  0  0  0  0  0
   20.1670  -20.4338  -11.3975 O   0  0  0  0  0  0  0  0  0  0  0  0
  2  3  1  0
  2  1  1  6
  4  3  1  0
  5  4  1  0
  6  5  2  0
  7  8  2  0
  7  2  1  0
  9  5  1  0
 11 10  1  1
 11 12  1  0
 14 13  1  1
 13 11  1  0
 14 15  1  0
 15  7  1  0
 16 14  1  0
 17 16  2  0
 18 19  1  0
 19 20  1  0
 20 21  1  1
 22 20  1  0
 22 23  1  6
 23 16  1  0
 24 26  1  0
 24 22  1  0
 25 24  2  0
M  END
$$$$
