ELI.pdb
     RDKit          3D

 26 25  0  0  1  0  0  0  0  0999 V2000
   22.8122  -18.1008  -17.7354 N   0  0  0  0  0  0  0  0  0  0  0  0
   23.1377  -19.4752  -17.5277 C   0  0  1  0  0  0  0  0  0  0  0  0
   23.3526  -20.1729  -18.8268 C   0  0  0  0  0  0  0  0  0  0  0  0
   22.5102  -19.7120  -19.9638 C   0  0  0  0  0  0  0  0  0  0  0  0
   23.0087  -20.0538  -21.2999 C   0  0  0  0  0  0  0  0  0  0  0  0
   24.0976  -20.6657  -21.4124 O   0  0  0  0  0  0  0  0  0  0  0  0
   24.2619  -19.6634  -16.5742 C   0  0  0  0  0  0  0  0  0  0  0  0
   24.6314  -20.8162  -16.2835 O   0  0  0  0  0  0  0  0  0  0  0  0
   22.3320  -19.7333  -22.4733 O   0  0  0  0  0  0  0  0  0  0  0  0
   28.3460  -16.0836  -16.8030 C   0  0  0  0  0  0  0  0  0  0  0  0
   27.3895  -17.2851  -16.7167 C   0  0  1  0  0  0  0  0  0  0  0  0
   28.3493  -18.4943  -16.9589 C   0  0  0  0  0  0  0  0  0  0  0  0
   26.9871  -17.3999  -15.2935 C   0  0  0  0  0  0  0  0  0  0  0  0
   25.9667  -18.5109  -15.0725 C   0  0  2  0  0  0  0  0  0  0  0  0
   24.8987  -18.5555  -16.0092 N   0  0  0  0  0  0  0  0  0  0  0  0
   25.6494  -18.7655  -13.6836 C   0  0  0  0  0  0  0  0  0  0  0  0
   24.9845  -17.9081  -13.0307 O   0  0  0  0  0  0  0  0  0  0  0  0
   22.4732  -20.5786   -9.4588 C   0  0  0  0  0  0  0  0  0  0  0  0
   23.9577  -20.5119   -9.7617 C   0  0  0  0  0  0  0  0  0  0  0  0
   24.2112  -20.3642  -11.2586 C   0  0  2  0  0  0  0  0  0  0  0  0
   23.4945  -21.4090  -12.0568 C   0  0  0  0  0  0  0  0  0  0  0  0
   25.6336  -20.1711  -11.5905 C   0  0  2  0  0  0  0  0  0  0  0  0
   26.0016  -19.8981  -12.9304 N   0  0  0  0  0  0  0  0  0  0  0  0
   26.3768  -21.4007  -11.1655 C   0  0  0  0  0  0  0  0  0  0  0  0
   26.3643  -21.8113   -9.9688 O   0  0  0  0  0  0  0  0  0  0  0  0
   27.1234  -22.1630  -12.0593 O   0  0  0  0  0  0  0  0  0  0  0  0
  2  3  1  0
  2  1  1  6
  4  3  1  0
  5  4  1  0
  6  5  2  0
  7  8  2  0
  7  2  1  0
  9  5  1  0
 11 10  1  1
 11 12  1  0
 14 13  1  1
 13 11  1  0
 14 15  1  0
 15  7  1  0
 16 14  1  0
 17 16  2  0
 18 19  1  0
 19 20  1  0
 20 21  1  6
 22 20  1  0
 22 23  1  6
 23 16  1  0
 24 26  1  0
 24 22  1  0
 25 24  2  0
M  END
$$$$
