ELI.pdb
     RDKit          3D

 26 25  0  0  1  0  0  0  0  0999 V2000
   17.1181  -11.3882  -15.6717 N   0  0  0  0  0  0  0  0  0  0  0  0
   18.0723  -10.6386  -16.4238 C   0  0  1  0  0  0  0  0  0  0  0  0
   17.4005   -9.8325  -17.4820 C   0  0  0  0  0  0  0  0  0  0  0  0
   16.8289  -10.5980  -18.6232 C   0  0  0  0  0  0  0  0  0  0  0  0
   17.7960  -11.0543  -19.6266 C   0  0  0  0  0  0  0  0  0  0  0  0
   18.2381  -12.2263  -19.5666 O   0  0  0  0  0  0  0  0  0  0  0  0
   18.9770   -9.8310  -15.5649 C   0  0  0  0  0  0  0  0  0  0  0  0
   18.5143   -9.2479  -14.5669 O   0  0  0  0  0  0  0  0  0  0  0  0
   18.2613  -10.2483  -20.6616 O   0  0  0  0  0  0  0  0  0  0  0  0
   24.3413  -11.2433  -15.2668 C   0  0  0  0  0  0  0  0  0  0  0  0
   22.8847  -10.8323  -14.9922 C   0  0  1  0  0  0  0  0  0  0  0  0
   22.8368  -10.7946  -13.4307 C   0  0  0  0  0  0  0  0  0  0  0  0
   22.7631   -9.4140  -15.4094 C   0  0  0  0  0  0  0  0  0  0  0  0
   21.3325   -8.9005  -15.2903 C   0  0  2  0  0  0  0  0  0  0  0  0
   20.3354   -9.7273  -15.8752 N   0  0  0  0  0  0  0  0  0  0  0  0
   21.1942   -7.4690  -15.4526 C   0  0  0  0  0  0  0  0  0  0  0  0
   21.9630   -6.6936  -14.8114 O   0  0  0  0  0  0  0  0  0  0  0  0
   19.6813   -3.2670  -19.6911 C   0  0  0  0  0  0  0  0  0  0  0  0
   19.4869   -3.7392  -18.2631 C   0  0  0  0  0  0  0  0  0  0  0  0
   20.3393   -4.9688  -17.9656 C   0  0  2  0  0  0  0  0  0  0  0  0
   20.1615   -6.0400  -18.9968 C   0  0  0  0  0  0  0  0  0  0  0  0
   20.2508   -5.4115  -16.5632 C   0  0  2  0  0  0  0  0  0  0  0  0
   20.2710   -6.7970  -16.2713 N   0  0  0  0  0  0  0  0  0  0  0  0
   18.9883   -4.8516  -15.9823 C   0  0  0  0  0  0  0  0  0  0  0  0
   18.8196   -3.6084  -15.8184 O   0  0  0  0  0  0  0  0  0  0  0  0
   17.9281   -5.6633  -15.5893 O   0  0  0  0  0  0  0  0  0  0  0  0
  2  3  1  0
  2  1  1  1
  4  3  1  0
  5  4  1  0
  6  5  2  0
  7  8  2  0
  7  2  1  0
  9  5  1  0
 11 10  1  1
 11 12  1  0
 14 13  1  6
 13 11  1  0
 14 15  1  0
 15  7  1  0
 16 14  1  0
 17 16  2  0
 18 19  1  0
 19 20  1  0
 20 21  1  6
 22 20  1  0
 22 23  1  6
 23 16  1  0
 24 26  1  0
 24 22  1  0
 25 24  2  0
M  END
$$$$
