ELI.pdb
     RDKit          3D

 26 25  0  0  1  0  0  0  0  0999 V2000
   29.6557  -20.5041  -16.3690 N   0  0  0  0  0  0  0  0  0  0  0  0
   28.2691  -20.8322  -16.2803 C   0  0  1  0  0  0  0  0  0  0  0  0
   27.9244  -21.9414  -17.2139 C   0  0  0  0  0  0  0  0  0  0  0  0
   28.1954  -21.6906  -18.6557 C   0  0  0  0  0  0  0  0  0  0  0  0
   27.0651  -21.1687  -19.4304 C   0  0  0  0  0  0  0  0  0  0  0  0
   25.9748  -21.7882  -19.4217 O   0  0  0  0  0  0  0  0  0  0  0  0
   27.8255  -21.0880  -14.8853 C   0  0  0  0  0  0  0  0  0  0  0  0
   26.7100  -21.6022  -14.6823 O   0  0  0  0  0  0  0  0  0  0  0  0
   27.1317  -20.0039  -20.1896 O   0  0  0  0  0  0  0  0  0  0  0  0
   31.9736  -21.0583  -11.0945 C   0  0  0  0  0  0  0  0  0  0  0  0
   30.7970  -21.4320  -12.0121 C   0  0  1  0  0  0  0  0  0  0  0  0
   30.5169  -22.9156  -11.6089 C   0  0  0  0  0  0  0  0  0  0  0  0
   29.6211  -20.6761  -11.5157 C   0  0  0  0  0  0  0  0  0  0  0  0
   28.4030  -20.8523  -12.4153 C   0  0  2  0  0  0  0  0  0  0  0  0
   28.6539  -20.7542  -13.8108 N   0  0  0  0  0  0  0  0  0  0  0  0
   27.1912  -20.2439  -11.9092 C   0  0  0  0  0  0  0  0  0  0  0  0
   27.0449  -18.9887  -11.9908 O   0  0  0  0  0  0  0  0  0  0  0  0
   22.0492  -22.1792  -12.8314 C   0  0  0  0  0  0  0  0  0  0  0  0
   23.2274  -22.0003  -11.8935 C   0  0  0  0  0  0  0  0  0  0  0  0
   23.6975  -20.5495  -11.8653 C   0  0  2  0  0  0  0  0  0  0  0  0
   23.8195  -19.9704  -13.2409 C   0  0  0  0  0  0  0  0  0  0  0  0
   24.8508  -20.3297  -10.9753 C   0  0  2  0  0  0  0  0  0  0  0  0
   26.1029  -20.9002  -11.3100 N   0  0  0  0  0  0  0  0  0  0  0  0
   24.4825  -20.8305   -9.6121 C   0  0  0  0  0  0  0  0  0  0  0  0
   23.4879  -20.3746   -8.9767 O   0  0  0  0  0  0  0  0  0  0  0  0
   25.2106  -21.8245   -8.9646 O   0  0  0  0  0  0  0  0  0  0  0  0
  2  3  1  0
  2  1  1  1
  4  3  1  0
  5  4  1  0
  6  5  2  0
  7  8  2  0
  7  2  1  0
  9  5  1  0
 11 10  1  1
 11 12  1  0
 14 13  1  1
 13 11  1  0
 14 15  1  0
 15  7  1  0
 16 14  1  0
 17 16  2  0
 18 19  1  0
 19 20  1  0
 20 21  1  6
 22 20  1  0
 22 23  1  6
 23 16  1  0
 24 26  1  0
 24 22  1  0
 25 24  2  0
M  END
$$$$
