QSI.pdb
     RDKit          3D

 24 23  0  0  1  0  0  0  0  0999 V2000
   16.3021  -14.0770  -20.9984 N   0  0  0  0  0  0  0  0  0  0  0  0
   17.1777  -15.2169  -21.1319 C   0  0  0  0  0  0  0  0  0  0  0  0
   16.6349  -16.3048  -21.4071 O   0  0  0  0  0  0  0  0  0  0  0  0
   18.6166  -15.0621  -20.9429 C   0  0  0  0  0  0  0  0  0  0  0  0
   19.0768  -13.6870  -20.5699 C   0  0  0  0  0  0  0  0  0  0  0  0
   19.0358  -13.4449  -19.1011 C   0  0  2  0  0  0  0  0  0  0  0  0
   17.7773  -13.6780  -18.4535 N   0  0  0  0  0  0  0  0  0  0  0  0
   19.4233  -12.0232  -18.8291 C   0  0  0  0  0  0  0  0  0  0  0  0
   20.6251  -11.6992  -18.8998 O   0  0  0  0  0  0  0  0  0  0  0  0
   16.8779   -8.7055  -19.4454 O   0  0  0  0  0  0  0  0  0  0  0  0
   17.3628   -8.9855  -18.1727 C   0  0  0  0  0  0  0  0  0  0  0  0
   18.7334   -9.6693  -18.2569 C   0  0  2  0  0  0  0  0  0  0  0  0
   18.4452  -11.0792  -18.5016 N   0  0  0  0  0  0  0  0  0  0  0  0
   19.3266   -9.5640  -16.9061 C   0  0  0  0  0  0  0  0  0  0  0  0
   18.8206  -10.1934  -15.9310 O   0  0  0  0  0  0  0  0  0  0  0  0
   23.9613  -10.6227  -13.6822 C   0  0  0  0  0  0  0  0  0  0  0  0
   22.8319   -9.6175  -13.7844 C   0  0  0  0  0  0  0  0  0  0  0  0
   22.1958   -9.7250  -15.1494 C   0  0  2  0  0  0  0  0  0  0  0  0
   23.2052   -9.5550  -16.2564 C   0  0  0  0  0  0  0  0  0  0  0  0
   21.0649   -8.7238  -15.2590 C   0  0  2  0  0  0  0  0  0  0  0  0
   20.4602   -8.7861  -16.5982 N   0  0  0  0  0  0  0  0  0  0  0  0
   21.5099   -7.3224  -15.0702 C   0  0  0  0  0  0  0  0  0  0  0  0
   21.5968   -6.3924  -16.0918 O   0  0  0  0  0  0  0  0  0  0  0  0
   21.8494   -6.8757  -13.9246 O   0  0  0  0  0  0  0  0  0  0  0  0
  1  2  1  0
  2  4  1  0
  2  3  2  0
  4  5  1  0
  6  5  1  0
  6  7  1  6
  8  9  2  0
  8  6  1  0
 10 11  1  0
 12 11  1  1
 12 13  1  0
 13  8  1  0
 14 12  1  0
 14 21  1  0
 15 14  2  0
 17 16  1  0
 18 17  1  0
 18 19  1  6
 20 21  1  6
 20 18  1  0
 22 20  1  0
 23 22  1  0
 24 22  2  0
M  END
$$$$
