QSI.pdb
     RDKit          3D

 24 23  0  0  1  0  0  0  0  0999 V2000
   19.9443  -29.6425  -13.2494 N   0  0  0  0  0  0  0  0  0  0  0  0
   19.1876  -29.9409  -12.0569 C   0  0  0  0  0  0  0  0  0  0  0  0
   18.3661  -30.8747  -12.1395 O   0  0  0  0  0  0  0  0  0  0  0  0
   19.4004  -29.1635  -10.8401 C   0  0  0  0  0  0  0  0  0  0  0  0
   20.3761  -28.0336  -10.9555 C   0  0  0  0  0  0  0  0  0  0  0  0
   19.7509  -26.7833  -11.4686 C   0  0  2  0  0  0  0  0  0  0  0  0
   20.4290  -26.1320  -12.5520 N   0  0  0  0  0  0  0  0  0  0  0  0
   19.6440  -25.7946  -10.3477 C   0  0  0  0  0  0  0  0  0  0  0  0
   20.6831  -25.2678   -9.9040 O   0  0  0  0  0  0  0  0  0  0  0  0
   16.4371  -23.7094  -10.1433 O   0  0  0  0  0  0  0  0  0  0  0  0
   17.5164  -23.3058   -9.3652 C   0  0  0  0  0  0  0  0  0  0  0  0
   18.2015  -24.5192   -8.7237 C   0  0  2  0  0  0  0  0  0  0  0  0
   18.3930  -25.4726   -9.8124 N   0  0  0  0  0  0  0  0  0  0  0  0
   17.2126  -25.1014   -7.7907 C   0  0  0  0  0  0  0  0  0  0  0  0
   16.2451  -25.7913   -8.2277 O   0  0  0  0  0  0  0  0  0  0  0  0
   18.8376  -27.2400   -3.2383 C   0  0  0  0  0  0  0  0  0  0  0  0
   18.1365  -26.8474   -4.5231 C   0  0  0  0  0  0  0  0  0  0  0  0
   16.9485  -25.9764   -4.1922 C   0  0  2  0  0  0  0  0  0  0  0  0
   15.9869  -26.6660   -3.2579 C   0  0  0  0  0  0  0  0  0  0  0  0
   16.2722  -25.5376   -5.4742 C   0  0  2  0  0  0  0  0  0  0  0  0
   17.2582  -24.9460   -6.3911 N   0  0  0  0  0  0  0  0  0  0  0  0
   15.2340  -24.5019   -5.2578 C   0  0  0  0  0  0  0  0  0  0  0  0
   13.8856  -24.7758   -5.1058 O   0  0  0  0  0  0  0  0  0  0  0  0
   15.5269  -23.2618   -5.1970 O   0  0  0  0  0  0  0  0  0  0  0  0
  1  2  1  0
  2  4  1  0
  2  3  2  0
  4  5  1  0
  6  5  1  0
  6  7  1  6
  8  9  2  0
  8  6  1  0
 10 11  1  0
 12 11  1  6
 12 13  1  0
 13  8  1  0
 14 12  1  0
 14 21  1  0
 15 14  2  0
 17 16  1  0
 18 17  1  0
 18 19  1  1
 20 21  1  6
 20 18  1  0
 22 20  1  0
 23 22  1  0
 24 22  2  0
M  END
$$$$
