QSI.pdb
     RDKit          3D

 24 23  0  0  1  0  0  0  0  0999 V2000
    9.4012  -20.5516   -1.4708 N   0  0  0  0  0  0  0  0  0  0  0  0
    9.7832  -19.1597   -1.4903 C   0  0  0  0  0  0  0  0  0  0  0  0
   10.3867  -18.7636   -2.5065 O   0  0  0  0  0  0  0  0  0  0  0  0
    9.4642  -18.2961   -0.3578 C   0  0  0  0  0  0  0  0  0  0  0  0
   10.6392  -17.7002    0.3537 C   0  0  0  0  0  0  0  0  0  0  0  0
   10.2415  -16.8476    1.5080 C   0  0  2  0  0  0  0  0  0  0  0  0
    9.4614  -15.6840    1.1997 N   0  0  0  0  0  0  0  0  0  0  0  0
   11.4752  -16.3842    2.2212 C   0  0  0  0  0  0  0  0  0  0  0  0
   11.9913  -15.2975    1.8943 O   0  0  0  0  0  0  0  0  0  0  0  0
   12.4414  -16.0933    6.2625 O   0  0  0  0  0  0  0  0  0  0  0  0
   12.8166  -17.1835    5.4853 C   0  0  0  0  0  0  0  0  0  0  0  0
   13.1613  -16.7353    4.0593 C   0  0  2  0  0  0  0  0  0  0  0  0
   12.0335  -17.1649    3.2381 N   0  0  0  0  0  0  0  0  0  0  0  0
   14.3379  -17.5340    3.6527 C   0  0  0  0  0  0  0  0  0  0  0  0
   14.1921  -18.7031    3.1890 O   0  0  0  0  0  0  0  0  0  0  0  0
   18.7386  -18.6098    0.9913 C   0  0  0  0  0  0  0  0  0  0  0  0
   19.0547  -17.8436    2.2598 C   0  0  0  0  0  0  0  0  0  0  0  0
   17.8570  -17.0091    2.6453 C   0  0  2  0  0  0  0  0  0  0  0  0
   18.2443  -15.8277    3.4984 C   0  0  0  0  0  0  0  0  0  0  0  0
   16.8303  -17.8867    3.3303 C   0  0  2  0  0  0  0  0  0  0  0  0
   15.6696  -17.0828    3.7420 N   0  0  0  0  0  0  0  0  0  0  0  0
   17.3462  -18.5307    4.5618 C   0  0  0  0  0  0  0  0  0  0  0  0
   17.0615  -18.0919    5.8435 O   0  0  0  0  0  0  0  0  0  0  0  0
   18.1043  -19.5555    4.5151 O   0  0  0  0  0  0  0  0  0  0  0  0
  1  2  1  0
  2  4  1  0
  2  3  2  0
  4  5  1  0
  6  5  1  0
  6  7  1  6
  8  9  2  0
  8  6  1  0
 10 11  1  0
 12 11  1  1
 12 13  1  0
 13  8  1  0
 14 12  1  0
 14 21  1  0
 15 14  2  0
 17 16  1  0
 18 17  1  0
 18 19  1  1
 20 21  1  1
 20 18  1  0
 22 20  1  0
 23 22  1  0
 24 22  2  0
M  END
$$$$
