QSI.pdb
     RDKit          3D

 24 23  0  0  1  0  0  0  0  0999 V2000
   13.8731  -11.9071  -14.3005 N   0  0  0  0  0  0  0  0  0  0  0  0
   14.6250  -12.9164  -15.0074 C   0  0  0  0  0  0  0  0  0  0  0  0
   13.9618  -13.7679  -15.6311 O   0  0  0  0  0  0  0  0  0  0  0  0
   16.0839  -12.9073  -14.9655 C   0  0  0  0  0  0  0  0  0  0  0  0
   16.6997  -11.8826  -14.0641 C   0  0  0  0  0  0  0  0  0  0  0  0
   17.4521  -10.8367  -14.8109 C   0  0  2  0  0  0  0  0  0  0  0  0
   18.5739  -11.2892  -15.5819 N   0  0  0  0  0  0  0  0  0  0  0  0
   17.9585   -9.8127  -13.8412 C   0  0  0  0  0  0  0  0  0  0  0  0
   18.8712  -10.1257  -13.0518 O   0  0  0  0  0  0  0  0  0  0  0  0
   17.7284   -6.2785  -15.0664 O   0  0  0  0  0  0  0  0  0  0  0  0
   18.5156   -6.4214  -13.9292 C   0  0  0  0  0  0  0  0  0  0  0  0
   17.8981   -7.4492  -12.9723 C   0  0  2  0  0  0  0  0  0  0  0  0
   17.4102   -8.5264  -13.8280 N   0  0  0  0  0  0  0  0  0  0  0  0
   16.7190   -6.7903  -12.3698 C   0  0  0  0  0  0  0  0  0  0  0  0
   15.6078   -6.7810  -12.9765 O   0  0  0  0  0  0  0  0  0  0  0  0
   15.3252   -7.5000   -7.3447 C   0  0  0  0  0  0  0  0  0  0  0  0
   15.3463   -7.2252   -8.8347 C   0  0  0  0  0  0  0  0  0  0  0  0
   15.4644   -5.7373   -9.0619 C   0  0  2  0  0  0  0  0  0  0  0  0
   14.3323   -4.9773   -8.4183 C   0  0  0  0  0  0  0  0  0  0  0  0
   15.5570   -5.4597  -10.5477 C   0  0  2  0  0  0  0  0  0  0  0  0
   16.7281   -6.1416  -11.1191 N   0  0  0  0  0  0  0  0  0  0  0  0
   15.7226   -4.0201  -10.8601 C   0  0  0  0  0  0  0  0  0  0  0  0
   14.6783   -3.1735  -11.1903 O   0  0  0  0  0  0  0  0  0  0  0  0
   16.8676   -3.4581  -10.8436 O   0  0  0  0  0  0  0  0  0  0  0  0
  1  2  1  0
  2  4  1  0
  2  3  2  0
  4  5  1  0
  6  5  1  0
  6  7  1  1
  8  9  2  0
  8  6  1  0
 10 11  1  0
 12 11  1  6
 12 13  1  0
 13  8  1  0
 14 12  1  0
 14 21  1  0
 15 14  2  0
 17 16  1  0
 18 17  1  0
 18 19  1  6
 20 21  1  1
 20 18  1  0
 22 20  1  0
 23 22  1  0
 24 22  2  0
M  END
$$$$
