QSI.pdb
     RDKit          3D

 24 23  0  0  1  0  0  0  0  0999 V2000
   20.1428  -18.9793  -16.4128 N   0  0  0  0  0  0  0  0  0  0  0  0
   20.5821  -19.1433  -17.7781 C   0  0  0  0  0  0  0  0  0  0  0  0
   20.1528  -20.1451  -18.3830 O   0  0  0  0  0  0  0  0  0  0  0  0
   21.4849  -18.1671  -18.3799 C   0  0  0  0  0  0  0  0  0  0  0  0
   21.7105  -16.9177  -17.5862 C   0  0  0  0  0  0  0  0  0  0  0  0
   20.7132  -15.8545  -17.8903 C   0  0  2  0  0  0  0  0  0  0  0  0
   20.7434  -15.3163  -19.2196 N   0  0  0  0  0  0  0  0  0  0  0  0
   20.9107  -14.7129  -16.9399 C   0  0  0  0  0  0  0  0  0  0  0  0
   21.0514  -14.9541  -15.7250 O   0  0  0  0  0  0  0  0  0  0  0  0
   22.3986  -11.4106  -18.3710 O   0  0  0  0  0  0  0  0  0  0  0  0
   22.3507  -11.5341  -16.9869 C   0  0  0  0  0  0  0  0  0  0  0  0
   21.0535  -12.2281  -16.5525 C   0  0  2  0  0  0  0  0  0  0  0  0
   20.9358  -13.3986  -17.4168 N   0  0  0  0  0  0  0  0  0  0  0  0
   19.9560  -11.3017  -16.9057 C   0  0  0  0  0  0  0  0  0  0  0  0
   19.5717  -11.1885  -18.1068 O   0  0  0  0  0  0  0  0  0  0  0  0
   15.9922  -11.5838  -14.2419 C   0  0  0  0  0  0  0  0  0  0  0  0
   16.3362  -10.9801  -15.5886 C   0  0  0  0  0  0  0  0  0  0  0  0
   17.0469   -9.6654  -15.3744 C   0  0  2  0  0  0  0  0  0  0  0  0
   16.1064   -8.4920  -15.4844 C   0  0  0  0  0  0  0  0  0  0  0  0
   18.2038   -9.5535  -16.3452 C   0  0  2  0  0  0  0  0  0  0  0  0
   19.2696  -10.4968  -15.9750 N   0  0  0  0  0  0  0  0  0  0  0  0
   18.8260   -8.2081  -16.3541 C   0  0  0  0  0  0  0  0  0  0  0  0
   19.9339   -7.8614  -15.6000 O   0  0  0  0  0  0  0  0  0  0  0  0
   18.3666   -7.2620  -17.0759 O   0  0  0  0  0  0  0  0  0  0  0  0
  1  2  1  0
  2  4  1  0
  2  3  2  0
  4  5  1  0
  6  5  1  0
  6  7  1  6
  8  9  2  0
  8  6  1  0
 10 11  1  0
 12 11  1  6
 12 13  1  0
 13  8  1  0
 14 12  1  0
 14 21  1  0
 15 14  2  0
 17 16  1  0
 18 17  1  0
 18 19  1  6
 20 21  1  1
 20 18  1  0
 22 20  1  0
 23 22  1  0
 24 22  2  0
M  END
$$$$
