QSI.pdb
     RDKit          3D

 24 23  0  0  1  0  0  0  0  0999 V2000
   14.2490  -13.9751  -14.4521 N   0  0  0  0  0  0  0  0  0  0  0  0
   14.0106  -13.8548  -15.8707 C   0  0  0  0  0  0  0  0  0  0  0  0
   12.9577  -13.2802  -16.2102 O   0  0  0  0  0  0  0  0  0  0  0  0
   14.9745  -14.3946  -16.8244 C   0  0  0  0  0  0  0  0  0  0  0  0
   15.5487  -13.4085  -17.7938 C   0  0  0  0  0  0  0  0  0  0  0  0
   17.0233  -13.5460  -17.9495 C   0  0  2  0  0  0  0  0  0  0  0  0
   17.5511  -14.8763  -17.8539 N   0  0  0  0  0  0  0  0  0  0  0  0
   17.7045  -12.7171  -16.9035 C   0  0  0  0  0  0  0  0  0  0  0  0
   17.8900  -13.2042  -15.7710 O   0  0  0  0  0  0  0  0  0  0  0  0
   18.9010   -9.0759  -18.1446 O   0  0  0  0  0  0  0  0  0  0  0  0
   19.6606   -9.6022  -17.1057 C   0  0  0  0  0  0  0  0  0  0  0  0
   18.8155  -10.5533  -16.2487 C   0  0  2  0  0  0  0  0  0  0  0  0
   18.1237  -11.4166  -17.2010 N   0  0  0  0  0  0  0  0  0  0  0  0
   17.7947   -9.7109  -15.5884 C   0  0  0  0  0  0  0  0  0  0  0  0
   16.6579   -9.5432  -16.1198 O   0  0  0  0  0  0  0  0  0  0  0  0
   16.5867  -10.2872  -10.5639 C   0  0  0  0  0  0  0  0  0  0  0  0
   16.4980   -9.9478  -12.0380 C   0  0  0  0  0  0  0  0  0  0  0  0
   16.8961   -8.5053  -12.2385 C   0  0  2  0  0  0  0  0  0  0  0  0
   15.9687   -7.5594  -11.5185 C   0  0  0  0  0  0  0  0  0  0  0  0
   16.9695   -8.2037  -13.7208 C   0  0  2  0  0  0  0  0  0  0  0  0
   17.9896   -9.0482  -14.3604 N   0  0  0  0  0  0  0  0  0  0  0  0
   17.3525   -6.8010  -14.0095 C   0  0  0  0  0  0  0  0  0  0  0  0
   16.4448   -5.7807  -14.2359 O   0  0  0  0  0  0  0  0  0  0  0  0
   18.5740   -6.4385  -14.0689 O   0  0  0  0  0  0  0  0  0  0  0  0
  1  2  1  0
  2  4  1  0
  2  3  2  0
  4  5  1  0
  6  5  1  0
  6  7  1  1
  8  9  2  0
  8  6  1  0
 10 11  1  0
 12 11  1  6
 12 13  1  0
 13  8  1  0
 14 12  1  0
 14 21  1  0
 15 14  2  0
 17 16  1  0
 18 17  1  0
 18 19  1  1
 20 21  1  6
 20 18  1  0
 22 20  1  0
 23 22  1  0
 24 22  2  0
M  END
$$$$
