QSI.pdb
     RDKit          3D

 24 23  0  0  1  0  0  0  0  0999 V2000
   22.7190  -20.2828  -17.9207 N   0  0  0  0  0  0  0  0  0  0  0  0
   21.8615  -19.2396  -17.4105 C   0  0  0  0  0  0  0  0  0  0  0  0
   21.3713  -18.4622  -18.2527 O   0  0  0  0  0  0  0  0  0  0  0  0
   21.6103  -19.1329  -15.9768 C   0  0  0  0  0  0  0  0  0  0  0  0
   22.3052  -20.1455  -15.1202 C   0  0  0  0  0  0  0  0  0  0  0  0
   23.3301  -19.5377  -14.2269 C   0  0  2  0  0  0  0  0  0  0  0  0
   24.2006  -18.5677  -14.8261 N   0  0  0  0  0  0  0  0  0  0  0  0
   24.1922  -20.6251  -13.6616 C   0  0  0  0  0  0  0  0  0  0  0  0
   23.6494  -21.6279  -13.1578 O   0  0  0  0  0  0  0  0  0  0  0  0
   28.2788  -20.0767  -13.8936 O   0  0  0  0  0  0  0  0  0  0  0  0
   27.7834  -21.3715  -13.9998 C   0  0  0  0  0  0  0  0  0  0  0  0
   26.4955  -21.5244  -13.1806 C   0  0  2  0  0  0  0  0  0  0  0  0
   25.5852  -20.5095  -13.7025 N   0  0  0  0  0  0  0  0  0  0  0  0
   26.8438  -21.1400  -11.7955 C   0  0  0  0  0  0  0  0  0  0  0  0
   28.0548  -21.0713  -11.4327 O   0  0  0  0  0  0  0  0  0  0  0  0
   27.9440  -19.6331   -6.5054 C   0  0  0  0  0  0  0  0  0  0  0  0
   27.1694  -20.7024   -7.2490 C   0  0  0  0  0  0  0  0  0  0  0  0
   27.0384  -20.3007   -8.6985 C   0  0  2  0  0  0  0  0  0  0  0  0
   26.6623  -18.8484   -8.8490 C   0  0  0  0  0  0  0  0  0  0  0  0
   26.0464  -21.2144   -9.3873 C   0  0  2  0  0  0  0  0  0  0  0  0
   25.8976  -20.8294  -10.7989 N   0  0  0  0  0  0  0  0  0  0  0  0
   24.6891  -21.1495   -8.7948 C   0  0  0  0  0  0  0  0  0  0  0  0
   24.3549  -21.6846   -7.5627 O   0  0  0  0  0  0  0  0  0  0  0  0
   23.7202  -20.5820   -9.3999 O   0  0  0  0  0  0  0  0  0  0  0  0
  1  2  1  0
  2  4  1  0
  2  3  2  0
  4  5  1  0
  6  5  1  0
  6  7  1  6
  8  9  2  0
  8  6  1  0
 10 11  1  0
 12 11  1  6
 12 13  1  0
 13  8  1  0
 14 12  1  0
 14 21  1  0
 15 14  2  0
 17 16  1  0
 18 17  1  0
 18 19  1  1
 20 21  1  6
 20 18  1  0
 22 20  1  0
 23 22  1  0
 24 22  2  0
M  END
$$$$
