QSI.pdb
     RDKit          3D

 24 23  0  0  1  0  0  0  0  0999 V2000
   16.3644  -15.0248  -14.2329 N   0  0  0  0  0  0  0  0  0  0  0  0
   15.6388  -14.4148  -15.3215 C   0  0  0  0  0  0  0  0  0  0  0  0
   15.2525  -15.1781  -16.2282 O   0  0  0  0  0  0  0  0  0  0  0  0
   15.3947  -12.9758  -15.3246 C   0  0  0  0  0  0  0  0  0  0  0  0
   15.8685  -12.2358  -14.1123 C   0  0  0  0  0  0  0  0  0  0  0  0
   15.5833  -10.7758  -14.1810 C   0  0  2  0  0  0  0  0  0  0  0  0
   16.1998  -10.0578  -15.2590 N   0  0  0  0  0  0  0  0  0  0  0  0
   16.0248  -10.1309  -12.9025 C   0  0  0  0  0  0  0  0  0  0  0  0
   15.5322  -10.5213  -11.8259 O   0  0  0  0  0  0  0  0  0  0  0  0
   17.9622   -6.6414  -13.2983 O   0  0  0  0  0  0  0  0  0  0  0  0
   18.4617   -7.3811  -12.2322 C   0  0  0  0  0  0  0  0  0  0  0  0
   17.4132   -8.3840  -11.7341 C   0  0  2  0  0  0  0  0  0  0  0  0
   16.9763   -9.1065  -12.9249 N   0  0  0  0  0  0  0  0  0  0  0  0
   16.2689   -7.5768  -11.2582 C   0  0  0  0  0  0  0  0  0  0  0  0
   15.3639   -7.2074  -12.0628 O   0  0  0  0  0  0  0  0  0  0  0  0
   12.0024   -6.4249   -7.3056 C   0  0  0  0  0  0  0  0  0  0  0  0
   13.1026   -5.7553   -8.1042 C   0  0  0  0  0  0  0  0  0  0  0  0
   14.0836   -6.8038   -8.5708 C   0  0  2  0  0  0  0  0  0  0  0  0
   14.7497   -7.5064   -7.4149 C   0  0  0  0  0  0  0  0  0  0  0  0
   15.0944   -6.1694   -9.5031 C   0  0  2  0  0  0  0  0  0  0  0  0
   16.0925   -7.1648   -9.9224 N   0  0  0  0  0  0  0  0  0  0  0  0
   15.8526   -5.0633   -8.8713 C   0  0  0  0  0  0  0  0  0  0  0  0
   17.1845   -5.1473   -8.5039 O   0  0  0  0  0  0  0  0  0  0  0  0
   15.3099   -3.9364   -8.6205 O   0  0  0  0  0  0  0  0  0  0  0  0
  1  2  1  0
  2  4  1  0
  2  3  2  0
  4  5  1  0
  6  5  1  0
  6  7  1  6
  8  9  2  0
  8  6  1  0
 10 11  1  0
 12 11  1  6
 12 13  1  0
 13  8  1  0
 14 12  1  0
 14 21  1  0
 15 14  2  0
 17 16  1  0
 18 17  1  0
 18 19  1  1
 20 21  1  1
 20 18  1  0
 22 20  1  0
 23 22  1  0
 24 22  2  0
M  END
$$$$
