QSI.pdb
     RDKit          3D

 24 23  0  0  1  0  0  0  0  0999 V2000
   28.7008  -26.1618  -16.8246 N   0  0  0  0  0  0  0  0  0  0  0  0
   27.3530  -26.5932  -17.1093 C   0  0  0  0  0  0  0  0  0  0  0  0
   27.2338  -27.6064  -17.8256 O   0  0  0  0  0  0  0  0  0  0  0  0
   26.2169  -25.8519  -16.5709 C   0  0  0  0  0  0  0  0  0  0  0  0
   26.5599  -24.6642  -15.7261 C   0  0  0  0  0  0  0  0  0  0  0  0
   26.3121  -23.3715  -16.4225 C   0  0  2  0  0  0  0  0  0  0  0  0
   27.1720  -23.0716  -17.5308 N   0  0  0  0  0  0  0  0  0  0  0  0
   26.4452  -22.2516  -15.4359 C   0  0  0  0  0  0  0  0  0  0  0  0
   27.5779  -21.7920  -15.1909 O   0  0  0  0  0  0  0  0  0  0  0  0
   22.9617  -20.6655  -14.2762 O   0  0  0  0  0  0  0  0  0  0  0  0
   24.0497  -19.8014  -14.2225 C   0  0  0  0  0  0  0  0  0  0  0  0
   25.3380  -20.5757  -13.9159 C   0  0  2  0  0  0  0  0  0  0  0  0
   25.3104  -21.7344  -14.8033 N   0  0  0  0  0  0  0  0  0  0  0  0
   25.1964  -21.0728  -12.5301 C   0  0  0  0  0  0  0  0  0  0  0  0
   24.6716  -22.2023  -12.3027 O   0  0  0  0  0  0  0  0  0  0  0  0
   26.5243  -19.5002   -6.6376 C   0  0  0  0  0  0  0  0  0  0  0  0
   25.8204  -20.4131   -7.6212 C   0  0  0  0  0  0  0  0  0  0  0  0
   26.0841  -19.9248   -9.0253 C   0  0  2  0  0  0  0  0  0  0  0  0
   25.7398  -18.4660   -9.1886 C   0  0  0  0  0  0  0  0  0  0  0  0
   25.3330  -20.7951  -10.0112 C   0  0  2  0  0  0  0  0  0  0  0  0
   25.6158  -20.3623  -11.3880 N   0  0  0  0  0  0  0  0  0  0  0  0
   23.8616  -20.7208   -9.8475 C   0  0  0  0  0  0  0  0  0  0  0  0
   23.0307  -19.9535  -10.6457 O   0  0  0  0  0  0  0  0  0  0  0  0
   23.2546  -21.3763   -8.9370 O   0  0  0  0  0  0  0  0  0  0  0  0
  1  2  1  0
  2  4  1  0
  2  3  2  0
  4  5  1  0
  6  5  1  0
  6  7  1  6
  8  9  2  0
  8  6  1  0
 10 11  1  0
 12 11  1  6
 12 13  1  0
 13  8  1  0
 14 12  1  0
 14 21  1  0
 15 14  2  0
 17 16  1  0
 18 17  1  0
 18 19  1  1
 20 21  1  6
 20 18  1  0
 22 20  1  0
 23 22  1  0
 24 22  2  0
M  END
$$$$
