QSI.pdb
     RDKit          3D

 24 23  0  0  1  0  0  0  0  0999 V2000
   18.6690  -13.7796  -17.1494 N   0  0  0  0  0  0  0  0  0  0  0  0
   17.8086  -14.2223  -16.0781 C   0  0  0  0  0  0  0  0  0  0  0  0
   17.7686  -15.4506  -15.8695 O   0  0  0  0  0  0  0  0  0  0  0  0
   17.0397  -13.2509  -15.3065 C   0  0  0  0  0  0  0  0  0  0  0  0
   17.2221  -11.8185  -15.7025 C   0  0  0  0  0  0  0  0  0  0  0  0
   16.3572  -10.8909  -14.9221 C   0  0  2  0  0  0  0  0  0  0  0  0
   14.9416  -11.0868  -15.0454 N   0  0  0  0  0  0  0  0  0  0  0  0
   16.6525   -9.4817  -15.3374 C   0  0  0  0  0  0  0  0  0  0  0  0
   16.1573   -9.0459  -16.3952 O   0  0  0  0  0  0  0  0  0  0  0  0
   17.1323   -5.0830  -14.2359 O   0  0  0  0  0  0  0  0  0  0  0  0
   16.7952   -6.4284  -14.1378 C   0  0  0  0  0  0  0  0  0  0  0  0
   17.8183   -7.2957  -14.8821 C   0  0  2  0  0  0  0  0  0  0  0  0
   17.4726   -8.6731  -14.5443 N   0  0  0  0  0  0  0  0  0  0  0  0
   19.1299   -7.0017  -14.2649 C   0  0  0  0  0  0  0  0  0  0  0  0
   19.4462   -7.5154  -13.1519 O   0  0  0  0  0  0  0  0  0  0  0  0
   23.4815   -8.6462  -15.5906 C   0  0  0  0  0  0  0  0  0  0  0  0
   22.2179   -7.8242  -15.7459 C   0  0  0  0  0  0  0  0  0  0  0  0
   22.4927   -6.4064  -15.3056 C   0  0  2  0  0  0  0  0  0  0  0  0
   23.8959   -6.2417  -14.7791 C   0  0  0  0  0  0  0  0  0  0  0  0
   21.4549   -5.9847  -14.2865 C   0  0  2  0  0  0  0  0  0  0  0  0
   20.1026   -6.1586  -14.8377 N   0  0  0  0  0  0  0  0  0  0  0  0
   21.5653   -4.5573  -13.9021 C   0  0  0  0  0  0  0  0  0  0  0  0
   22.3452   -4.0942  -12.8564 O   0  0  0  0  0  0  0  0  0  0  0  0
   20.9317   -3.6439  -14.5277 O   0  0  0  0  0  0  0  0  0  0  0  0
  1  2  1  0
  2  4  1  0
  2  3  2  0
  4  5  1  0
  6  5  1  0
  6  7  1  6
  8  9  2  0
  8  6  1  0
 10 11  1  0
 12 11  1  1
 12 13  1  0
 13  8  1  0
 14 12  1  0
 14 21  1  0
 15 14  2  0
 17 16  1  0
 18 17  1  0
 18 19  1  1
 20 21  1  6
 20 18  1  0
 22 20  1  0
 23 22  1  0
 24 22  2  0
M  END
$$$$
