QSI.pdb
     RDKit          3D

 24 23  0  0  1  0  0  0  0  0999 V2000
   25.6520  -23.7245  -14.7308 N   0  0  0  0  0  0  0  0  0  0  0  0
   26.9153  -23.6373  -15.4238 C   0  0  0  0  0  0  0  0  0  0  0  0
   27.3121  -24.6756  -15.9879 O   0  0  0  0  0  0  0  0  0  0  0  0
   27.6596  -22.3818  -15.4359 C   0  0  0  0  0  0  0  0  0  0  0  0
   26.9862  -21.2230  -14.7683 C   0  0  0  0  0  0  0  0  0  0  0  0
   25.9129  -20.6201  -15.6062 C   0  0  2  0  0  0  0  0  0  0  0  0
   26.2596  -20.3232  -16.9661 N   0  0  0  0  0  0  0  0  0  0  0  0
   25.4566  -19.3421  -14.9707 C   0  0  0  0  0  0  0  0  0  0  0  0
   25.3710  -19.2806  -13.7285 O   0  0  0  0  0  0  0  0  0  0  0  0
   26.5323  -15.9881  -16.1328 O   0  0  0  0  0  0  0  0  0  0  0  0
   25.7304  -16.0662  -14.9996 C   0  0  0  0  0  0  0  0  0  0  0  0
   24.5453  -17.0096  -15.2423 C   0  0  2  0  0  0  0  0  0  0  0  0
   25.1334  -18.2386  -15.7664 N   0  0  0  0  0  0  0  0  0  0  0  0
   23.7510  -16.3973  -16.3292 C   0  0  0  0  0  0  0  0  0  0  0  0
   24.1399  -16.4745  -17.5316 O   0  0  0  0  0  0  0  0  0  0  0  0
   18.2908  -16.5315  -16.2063 C   0  0  0  0  0  0  0  0  0  0  0  0
   19.6380  -15.8570  -16.0436 C   0  0  0  0  0  0  0  0  0  0  0  0
   20.4254  -16.0094  -17.3228 C   0  0  2  0  0  0  0  0  0  0  0  0
   20.7004  -17.4561  -17.6463 C   0  0  0  0  0  0  0  0  0  0  0  0
   21.7019  -15.2002  -17.2286 C   0  0  2  0  0  0  0  0  0  0  0  0
   22.5414  -15.7027  -16.1306 N   0  0  0  0  0  0  0  0  0  0  0  0
   21.4602  -13.7659  -16.9423 C   0  0  0  0  0  0  0  0  0  0  0  0
   21.7483  -13.1577  -15.7326 O   0  0  0  0  0  0  0  0  0  0  0  0
   20.9585  -12.9834  -17.8158 O   0  0  0  0  0  0  0  0  0  0  0  0
  1  2  1  0
  2  4  1  0
  2  3  2  0
  4  5  1  0
  6  5  1  0
  6  7  1  6
  8  9  2  0
  8  6  1  0
 10 11  1  0
 12 11  1  6
 12 13  1  0
 13  8  1  0
 14 12  1  0
 14 21  1  0
 15 14  2  0
 17 16  1  0
 18 17  1  0
 18 19  1  1
 20 21  1  1
 20 18  1  0
 22 20  1  0
 23 22  1  0
 24 22  2  0
M  END
$$$$
