QSI.pdb
     RDKit          3D

 24 23  0  0  1  0  0  0  0  0999 V2000
   23.6339   -4.4888  -14.9855 N   0  0  0  0  0  0  0  0  0  0  0  0
   22.3103   -3.9227  -14.8788 C   0  0  0  0  0  0  0  0  0  0  0  0
   22.1677   -2.7598  -15.3047 O   0  0  0  0  0  0  0  0  0  0  0  0
   21.2245   -4.7025  -14.2931 C   0  0  0  0  0  0  0  0  0  0  0  0
   21.5755   -6.1014  -13.8907 C   0  0  0  0  0  0  0  0  0  0  0  0
   21.9131   -6.9675  -15.0540 C   0  0  2  0  0  0  0  0  0  0  0  0
   21.1328   -6.7698  -16.2413 N   0  0  0  0  0  0  0  0  0  0  0  0
   21.7640   -8.4037  -14.6536 C   0  0  0  0  0  0  0  0  0  0  0  0
   22.2768   -8.7908  -13.5853 O   0  0  0  0  0  0  0  0  0  0  0  0
   19.0707  -12.3095  -15.1976 O   0  0  0  0  0  0  0  0  0  0  0  0
   19.3932  -10.9914  -15.5008 C   0  0  0  0  0  0  0  0  0  0  0  0
   20.8581  -10.7010  -15.1505 C   0  0  2  0  0  0  0  0  0  0  0  0
   21.0579   -9.2911  -15.4718 N   0  0  0  0  0  0  0  0  0  0  0  0
   21.6703  -11.4933  -16.0992 C   0  0  0  0  0  0  0  0  0  0  0  0
   21.9648  -11.0269  -17.2388 O   0  0  0  0  0  0  0  0  0  0  0  0
   26.1746  -13.9461  -14.7248 C   0  0  0  0  0  0  0  0  0  0  0  0
   25.0795  -13.2345  -15.4934 C   0  0  0  0  0  0  0  0  0  0  0  0
   24.1109  -14.2576  -16.0362 C   0  0  2  0  0  0  0  0  0  0  0  0
   24.7991  -15.2797  -16.9051 C   0  0  0  0  0  0  0  0  0  0  0  0
   22.9926  -13.5516  -16.7739 C   0  0  2  0  0  0  0  0  0  0  0  0
   22.1673  -12.7838  -15.8294 N   0  0  0  0  0  0  0  0  0  0  0  0
   22.0718  -14.4863  -17.4639 C   0  0  0  0  0  0  0  0  0  0  0  0
   22.1668  -14.8201  -18.8039 O   0  0  0  0  0  0  0  0  0  0  0  0
   21.1096  -15.0551  -16.8492 O   0  0  0  0  0  0  0  0  0  0  0  0
  1  2  1  0
  2  4  1  0
  2  3  2  0
  4  5  1  0
  6  5  1  0
  6  7  1  6
  8  9  2  0
  8  6  1  0
 10 11  1  0
 12 11  1  6
 12 13  1  0
 13  8  1  0
 14 12  1  0
 14 21  1  0
 15 14  2  0
 17 16  1  0
 18 17  1  0
 18 19  1  6
 20 21  1  1
 20 18  1  0
 22 20  1  0
 23 22  1  0
 24 22  2  0
M  END
$$$$
