QNE.pdb
     RDKit          3D

 27 26  0  0  1  0  0  0  0  0999 V2000
   28.7465  -16.9011  -15.7956 N   0  0  0  0  0  0  0  0  0  0  0  0
   28.2927  -17.4813  -17.0064 C   0  0  0  0  0  0  0  0  0  0  0  0
   28.8637  -17.2385  -18.0900 O   0  0  0  0  0  0  0  0  0  0  0  0
   27.1122  -18.3991  -16.9916 C   0  0  0  0  0  0  0  0  0  0  0  0
   26.5544  -18.5007  -15.5962 C   0  0  0  0  0  0  0  0  0  0  0  0
   27.0208  -19.7839  -14.9716 C   0  0  2  0  0  0  0  0  0  0  0  0
   27.6276  -20.6537  -15.9288 N   0  0  0  0  0  0  0  0  0  0  0  0
   25.9635  -20.4592  -14.1713 C   0  0  0  0  0  0  0  0  0  0  0  0
   25.3869  -21.4833  -14.6415 O   0  0  0  0  0  0  0  0  0  0  0  0
   26.5545  -21.8373  -10.8243 N   0  0  0  0  0  0  0  0  0  0  0  0
   25.6714  -21.0553  -10.0499 C   0  0  0  0  0  0  0  0  0  0  0  0
   25.8671  -20.8814   -8.8037 O   0  0  0  0  0  0  0  0  0  0  0  0
   24.5119  -20.4416  -10.7198 C   0  0  0  0  0  0  0  0  0  0  0  0
   24.4912  -20.6889  -12.2013 C   0  0  2  0  0  0  0  0  0  0  0  0
   25.5586  -20.0151  -12.8942 N   0  0  0  0  0  0  0  0  0  0  0  0
   23.1637  -20.1923  -12.6952 C   0  0  0  0  0  0  0  0  0  0  0  0
   22.9293  -18.9613  -12.6536 O   0  0  0  0  0  0  0  0  0  0  0  0
   22.2304  -21.1294  -13.1875 N   0  0  0  0  0  0  0  0  0  0  0  0
   20.9683  -20.7370  -13.7506 C   0  0  1  0  0  0  0  0  0  0  0  0
   20.5321  -21.7221  -14.7767 C   0  0  0  0  0  0  0  0  0  0  0  0
   19.2547  -21.4295  -15.4876 C   0  0  0  0  0  0  0  0  0  0  0  0
   18.8020  -22.4246  -16.4516 C   0  0  0  0  0  0  0  0  0  0  0  0
   19.4524  -23.4819  -16.6210 O   0  0  0  0  0  0  0  0  0  0  0  0
   19.9795  -20.3753  -12.7375 C   0  0  0  0  0  0  0  0  0  0  0  0
   19.8495  -21.0713  -11.5477 O   0  0  0  0  0  0  0  0  0  0  0  0
   17.6551  -22.2239  -17.1929 O   0  0  0  0  0  0  0  0  0  0  0  0
   19.2084  -19.4028  -12.9288 O   0  0  0  0  0  0  0  0  0  0  0  0
  2  4  1  0
  2  1  1  0
  3  2  2  0
  5  4  1  0
  6  5  1  0
  6  7  1  6
  8  6  1  0
  8 15  1  0
  9  8  2  0
 10 11  1  0
 11 13  1  0
 11 12  2  0
 14 13  1  1
 14 15  1  0
 14 16  1  0
 16 17  2  0
 16 18  1  0
 18 19  1  0
 19 20  1  1
 19 24  1  0
 21 22  1  0
 21 20  1  0
 22 26  1  0
 23 22  2  0
 24 25  1  0
 27 24  2  0
M  END
$$$$
