QNE.pdb
     RDKit          3D

 27 26  0  0  1  0  0  0  0  0999 V2000
   17.6143  -11.9738  -13.7750 N   0  0  0  0  0  0  0  0  0  0  0  0
   16.6070  -12.8871  -13.3753 C   0  0  0  0  0  0  0  0  0  0  0  0
   16.8073  -14.1193  -13.4045 O   0  0  0  0  0  0  0  0  0  0  0  0
   15.2821  -12.3727  -12.9107 C   0  0  0  0  0  0  0  0  0  0  0  0
   15.3035  -10.8677  -12.8538 C   0  0  0  0  0  0  0  0  0  0  0  0
   14.6831  -10.4147  -11.5637 C   0  0  2  0  0  0  0  0  0  0  0  0
   13.2917  -10.7326  -11.5001 N   0  0  0  0  0  0  0  0  0  0  0  0
   14.9601   -8.9854  -11.2554 C   0  0  0  0  0  0  0  0  0  0  0  0
   14.3856   -8.0814  -11.9298 O   0  0  0  0  0  0  0  0  0  0  0  0
   13.6904   -6.7825   -8.9103 N   0  0  0  0  0  0  0  0  0  0  0  0
   14.7970   -6.6310   -8.0480 C   0  0  0  0  0  0  0  0  0  0  0  0
   14.6365   -6.3928   -6.8074 O   0  0  0  0  0  0  0  0  0  0  0  0
   16.1492   -6.7552   -8.6190 C   0  0  0  0  0  0  0  0  0  0  0  0
   16.1410   -7.1738  -10.0617 C   0  0  2  0  0  0  0  0  0  0  0  0
   15.8435   -8.5720  -10.2352 N   0  0  0  0  0  0  0  0  0  0  0  0
   17.5088   -6.8689  -10.5992 C   0  0  0  0  0  0  0  0  0  0  0  0
   18.5038   -7.3858  -10.0381 O   0  0  0  0  0  0  0  0  0  0  0  0
   17.6228   -6.0125  -11.7150 N   0  0  0  0  0  0  0  0  0  0  0  0
   18.8840   -5.7252  -12.3402 C   0  0  1  0  0  0  0  0  0  0  0  0
   19.3726   -6.9151  -13.0877 C   0  0  0  0  0  0  0  0  0  0  0  0
   20.6408   -6.7518  -13.8544 C   0  0  0  0  0  0  0  0  0  0  0  0
   21.1794   -7.9493  -14.4872 C   0  0  0  0  0  0  0  0  0  0  0  0
   20.6739   -9.0709  -14.2502 O   0  0  0  0  0  0  0  0  0  0  0  0
   18.8847   -4.4577  -13.0671 C   0  0  0  0  0  0  0  0  0  0  0  0
   17.7164   -3.7887  -13.3903 O   0  0  0  0  0  0  0  0  0  0  0  0
   22.2502   -7.8730  -15.3547 O   0  0  0  0  0  0  0  0  0  0  0  0
   19.9702   -3.9360  -13.4226 O   0  0  0  0  0  0  0  0  0  0  0  0
  2  4  1  0
  2  1  1  0
  3  2  2  0
  5  4  1  0
  6  5  1  0
  6  7  1  6
  8  6  1  0
  8 15  1  0
  9  8  2  0
 10 11  1  0
 11 13  1  0
 11 12  2  0
 14 13  1  1
 14 15  1  0
 14 16  1  0
 16 17  2  0
 16 18  1  0
 18 19  1  0
 19 20  1  6
 19 24  1  0
 21 22  1  0
 21 20  1  0
 22 26  1  0
 23 22  2  0
 24 25  1  0
 27 24  2  0
M  END
$$$$
