QNE.pdb
     RDKit          3D

 27 26  0  0  1  0  0  0  0  0999 V2000
   13.1460  -12.1111  -16.1630 N   0  0  0  0  0  0  0  0  0  0  0  0
   14.1481  -13.1016  -16.0100 C   0  0  0  0  0  0  0  0  0  0  0  0
   14.1470  -14.1323  -16.7148 O   0  0  0  0  0  0  0  0  0  0  0  0
   15.2255  -12.9145  -14.9901 C   0  0  0  0  0  0  0  0  0  0  0  0
   15.0005  -11.6337  -14.2301 C   0  0  0  0  0  0  0  0  0  0  0  0
   16.0993  -11.4599  -13.2217 C   0  0  2  0  0  0  0  0  0  0  0  0
   16.2506  -12.6138  -12.3931 N   0  0  0  0  0  0  0  0  0  0  0  0
   15.9748  -10.2018  -12.4368 C   0  0  0  0  0  0  0  0  0  0  0  0
   15.9267   -9.0924  -13.0443 O   0  0  0  0  0  0  0  0  0  0  0  0
   12.5106   -8.7302   -8.6972 N   0  0  0  0  0  0  0  0  0  0  0  0
   13.5213   -9.6170   -9.1249 C   0  0  0  0  0  0  0  0  0  0  0  0
   13.2334  -10.7641   -9.5970 O   0  0  0  0  0  0  0  0  0  0  0  0
   14.9245   -9.1830   -9.0122 C   0  0  0  0  0  0  0  0  0  0  0  0
   15.5755   -8.9492  -10.3457 C   0  0  2  0  0  0  0  0  0  0  0  0
   15.9061  -10.1737  -11.0273 N   0  0  0  0  0  0  0  0  0  0  0  0
   16.8223   -8.1585  -10.0756 C   0  0  0  0  0  0  0  0  0  0  0  0
   17.7975   -8.7381   -9.5415 O   0  0  0  0  0  0  0  0  0  0  0  0
   16.8497   -6.7936  -10.4330 N   0  0  0  0  0  0  0  0  0  0  0  0
   18.0062   -5.9663  -10.2275 C   0  0  1  0  0  0  0  0  0  0  0  0
   19.0985   -6.3662  -11.1550 C   0  0  0  0  0  0  0  0  0  0  0  0
   20.3513   -5.5596  -11.1038 C   0  0  0  0  0  0  0  0  0  0  0  0
   21.4010   -5.9244  -12.0471 C   0  0  0  0  0  0  0  0  0  0  0  0
   21.7870   -7.1131  -12.1342 O   0  0  0  0  0  0  0  0  0  0  0  0
   17.6867   -4.5414  -10.1783 C   0  0  0  0  0  0  0  0  0  0  0  0
   16.5326   -4.0214  -10.7393 O   0  0  0  0  0  0  0  0  0  0  0  0
   21.9874   -4.9741  -12.8583 O   0  0  0  0  0  0  0  0  0  0  0  0
   18.4702   -3.7392   -9.6132 O   0  0  0  0  0  0  0  0  0  0  0  0
  2  4  1  0
  2  1  1  0
  3  2  2  0
  5  4  1  0
  6  5  1  0
  6  7  1  1
  8  6  1  0
  8 15  1  0
  9  8  2  0
 10 11  1  0
 11 13  1  0
 11 12  2  0
 14 13  1  1
 14 15  1  0
 14 16  1  0
 16 17  2  0
 16 18  1  0
 18 19  1  0
 19 20  1  6
 19 24  1  0
 21 22  1  0
 21 20  1  0
 22 26  1  0
 23 22  2  0
 24 25  1  0
 27 24  2  0
M  END
$$$$
