QNE.pdb
     RDKit          3D

 27 26  0  0  1  0  0  0  0  0999 V2000
   17.6207  -14.5552  -15.2246 N   0  0  0  0  0  0  0  0  0  0  0  0
   17.1023  -14.0817  -16.4557 C   0  0  0  0  0  0  0  0  0  0  0  0
   16.1921  -14.6965  -17.0498 O   0  0  0  0  0  0  0  0  0  0  0  0
   17.6501  -12.8270  -17.0571 C   0  0  0  0  0  0  0  0  0  0  0  0
   18.7258  -12.2562  -16.1705 C   0  0  0  0  0  0  0  0  0  0  0  0
   19.3555  -11.0782  -16.8563 C   0  0  2  0  0  0  0  0  0  0  0  0
   19.9020  -11.4306  -18.1284 N   0  0  0  0  0  0  0  0  0  0  0  0
   20.3289  -10.3551  -15.9937 C   0  0  0  0  0  0  0  0  0  0  0  0
   19.9945  -10.0293  -14.8172 O   0  0  0  0  0  0  0  0  0  0  0  0
   23.2431  -11.8023  -14.7276 N   0  0  0  0  0  0  0  0  0  0  0  0
   24.2591  -11.0423  -15.3450 C   0  0  0  0  0  0  0  0  0  0  0  0
   25.4114  -11.5385  -15.5629 O   0  0  0  0  0  0  0  0  0  0  0  0
   23.9544   -9.6545  -15.7337 C   0  0  0  0  0  0  0  0  0  0  0  0
   22.5104   -9.2922  -15.5328 C   0  0  2  0  0  0  0  0  0  0  0  0
   21.6280  -10.0048  -16.4200 N   0  0  0  0  0  0  0  0  0  0  0  0
   22.4057   -7.8156  -15.7805 C   0  0  0  0  0  0  0  0  0  0  0  0
   22.3486   -7.4075  -16.9647 O   0  0  0  0  0  0  0  0  0  0  0  0
   22.3753   -6.9432  -14.6716 N   0  0  0  0  0  0  0  0  0  0  0  0
   22.1438   -5.5319  -14.8077 C   0  0  1  0  0  0  0  0  0  0  0  0
   20.9208   -5.2851  -15.6180 C   0  0  0  0  0  0  0  0  0  0  0  0
   19.6626   -5.0093  -14.8672 C   0  0  0  0  0  0  0  0  0  0  0  0
   18.5033   -4.6170  -15.6588 C   0  0  0  0  0  0  0  0  0  0  0  0
   18.5890   -4.5320  -16.9058 O   0  0  0  0  0  0  0  0  0  0  0  0
   22.2365   -4.8137  -13.5386 C   0  0  0  0  0  0  0  0  0  0  0  0
   22.3009   -3.4322  -13.4724 O   0  0  0  0  0  0  0  0  0  0  0  0
   17.2951   -4.3328  -15.0549 O   0  0  0  0  0  0  0  0  0  0  0  0
   22.2603   -5.4489  -12.4556 O   0  0  0  0  0  0  0  0  0  0  0  0
  2  4  1  0
  2  1  1  0
  3  2  2  0
  5  4  1  0
  6  5  1  0
  6  7  1  6
  8  6  1  0
  8 15  1  0
  9  8  2  0
 10 11  1  0
 11 13  1  0
 11 12  2  0
 14 13  1  6
 14 15  1  0
 14 16  1  0
 16 17  2  0
 16 18  1  0
 18 19  1  0
 19 20  1  1
 19 24  1  0
 21 22  1  0
 21 20  1  0
 22 26  1  0
 23 22  2  0
 24 25  1  0
 27 24  2  0
M  END
$$$$
