QNE.pdb
     RDKit          3D

 27 26  0  0  1  0  0  0  0  0999 V2000
   28.7069  -18.0463  -16.8865 N   0  0  0  0  0  0  0  0  0  0  0  0
   27.8135  -17.5356  -15.9120 C   0  0  0  0  0  0  0  0  0  0  0  0
   27.1839  -16.4753  -16.1088 O   0  0  0  0  0  0  0  0  0  0  0  0
   27.6181  -18.2739  -14.6264 C   0  0  0  0  0  0  0  0  0  0  0  0
   28.5324  -19.4697  -14.5734 C   0  0  0  0  0  0  0  0  0  0  0  0
   27.7194  -20.7195  -14.7513 C   0  0  2  0  0  0  0  0  0  0  0  0
   27.0179  -20.7272  -15.9959 N   0  0  0  0  0  0  0  0  0  0  0  0
   26.8332  -21.0069  -13.5910 C   0  0  0  0  0  0  0  0  0  0  0  0
   27.2738  -21.7026  -12.6297 O   0  0  0  0  0  0  0  0  0  0  0  0
   25.1699  -21.2978   -8.7823 N   0  0  0  0  0  0  0  0  0  0  0  0
   24.5261  -20.6695   -9.8694 C   0  0  0  0  0  0  0  0  0  0  0  0
   23.2850  -20.3879   -9.8255 O   0  0  0  0  0  0  0  0  0  0  0  0
   25.3270  -20.3451  -11.0624 C   0  0  0  0  0  0  0  0  0  0  0  0
   24.7110  -20.8471  -12.3372 C   0  0  2  0  0  0  0  0  0  0  0  0
   25.5044  -20.5399  -13.4989 N   0  0  0  0  0  0  0  0  0  0  0  0
   23.3659  -20.1900  -12.4452 C   0  0  0  0  0  0  0  0  0  0  0  0
   23.2780  -18.9600  -12.2181 O   0  0  0  0  0  0  0  0  0  0  0  0
   22.2518  -20.9811  -12.7980 N   0  0  0  0  0  0  0  0  0  0  0  0
   21.3606  -20.6239  -13.8668 C   0  0  1  0  0  0  0  0  0  0  0  0
   22.0922  -20.5970  -15.1619 C   0  0  0  0  0  0  0  0  0  0  0  0
   22.1381  -19.2911  -15.8798 C   0  0  0  0  0  0  0  0  0  0  0  0
   22.0383  -19.3417  -17.3330 C   0  0  0  0  0  0  0  0  0  0  0  0
   21.9537  -20.4440  -17.9225 O   0  0  0  0  0  0  0  0  0  0  0  0
   20.1106  -21.3802  -13.8439 C   0  0  0  0  0  0  0  0  0  0  0  0
   19.8940  -22.4266  -12.9635 O   0  0  0  0  0  0  0  0  0  0  0  0
   22.0350  -18.1841  -18.0848 O   0  0  0  0  0  0  0  0  0  0  0  0
   19.1844  -21.0905  -14.6410 O   0  0  0  0  0  0  0  0  0  0  0  0
  2  4  1  0
  2  1  1  0
  3  2  2  0
  5  4  1  0
  6  5  1  0
  6  7  1  6
  8  6  1  0
  8 15  1  0
  9  8  2  0
 10 11  1  0
 11 13  1  0
 11 12  2  0
 14 13  1  1
 14 15  1  0
 14 16  1  0
 16 17  2  0
 16 18  1  0
 18 19  1  0
 19 20  1  6
 19 24  1  0
 21 22  1  0
 21 20  1  0
 22 26  1  0
 23 22  2  0
 24 25  1  0
 27 24  2  0
M  END
$$$$
