QNE.pdb
     RDKit          3D

 27 26  0  0  1  0  0  0  0  0999 V2000
   23.8093  -17.0825  -19.4548 N   0  0  0  0  0  0  0  0  0  0  0  0
   24.9467  -16.8462  -18.6429 C   0  0  0  0  0  0  0  0  0  0  0  0
   26.0800  -16.7063  -19.1481 O   0  0  0  0  0  0  0  0  0  0  0  0
   24.7928  -16.7625  -17.1579 C   0  0  0  0  0  0  0  0  0  0  0  0
   25.3094  -18.0219  -16.5133 C   0  0  0  0  0  0  0  0  0  0  0  0
   24.2434  -19.0777  -16.5710 C   0  0  2  0  0  0  0  0  0  0  0  0
   22.9626  -18.5264  -16.8818 N   0  0  0  0  0  0  0  0  0  0  0  0
   24.2172  -19.9445  -15.3616 C   0  0  0  0  0  0  0  0  0  0  0  0
   25.2768  -20.5317  -14.9947 O   0  0  0  0  0  0  0  0  0  0  0  0
   25.2664  -22.2035  -11.0389 N   0  0  0  0  0  0  0  0  0  0  0  0
   24.2208  -21.2676  -11.1869 C   0  0  0  0  0  0  0  0  0  0  0  0
   23.3431  -21.1125  -10.2775 O   0  0  0  0  0  0  0  0  0  0  0  0
   24.1678  -20.4699  -12.4242 C   0  0  0  0  0  0  0  0  0  0  0  0
   23.1235  -20.9532  -13.3899 C   0  0  2  0  0  0  0  0  0  0  0  0
   23.0569  -20.1537  -14.5857 N   0  0  0  0  0  0  0  0  0  0  0  0
   21.8132  -20.8967  -12.6602 C   0  0  0  0  0  0  0  0  0  0  0  0
   21.4221  -19.7930  -12.2120 O   0  0  0  0  0  0  0  0  0  0  0  0
   21.0715  -22.0874  -12.5065 N   0  0  0  0  0  0  0  0  0  0  0  0
   19.6432  -22.1302  -12.6552 C   0  0  1  0  0  0  0  0  0  0  0  0
   19.2710  -22.0451  -14.0931 C   0  0  0  0  0  0  0  0  0  0  0  0
   17.8142  -22.0116  -14.4084 C   0  0  0  0  0  0  0  0  0  0  0  0
   17.1734  -20.7025  -14.3934 C   0  0  0  0  0  0  0  0  0  0  0  0
   17.5517  -19.8048  -15.1813 O   0  0  0  0  0  0  0  0  0  0  0  0
   19.0217  -23.2069  -11.8873 C   0  0  0  0  0  0  0  0  0  0  0  0
   17.8932  -23.0066  -11.1107 O   0  0  0  0  0  0  0  0  0  0  0  0
   16.1436  -20.4266  -13.5168 O   0  0  0  0  0  0  0  0  0  0  0  0
   19.5094  -24.3637  -11.9160 O   0  0  0  0  0  0  0  0  0  0  0  0
  2  4  1  0
  2  1  1  0
  3  2  2  0
  5  4  1  0
  6  5  1  0
  6  7  1  1
  8  6  1  0
  8 15  1  0
  9  8  2  0
 10 11  1  0
 11 13  1  0
 11 12  2  0
 14 13  1  1
 14 15  1  0
 14 16  1  0
 16 17  2  0
 16 18  1  0
 18 19  1  0
 19 20  1  6
 19 24  1  0
 21 22  1  0
 21 20  1  0
 22 26  1  0
 23 22  2  0
 24 25  1  0
 27 24  2  0
M  END
$$$$
