QNE.pdb
     RDKit          3D

 27 26  0  0  1  0  0  0  0  0999 V2000
   17.4646  -15.3179  -14.6177 N   0  0  0  0  0  0  0  0  0  0  0  0
   16.5389  -15.0037  -15.6438 C   0  0  0  0  0  0  0  0  0  0  0  0
   15.9839  -15.9039  -16.3076 O   0  0  0  0  0  0  0  0  0  0  0  0
   16.2184  -13.5735  -15.9403 C   0  0  0  0  0  0  0  0  0  0  0  0
   16.9501  -12.6708  -14.9820 C   0  0  0  0  0  0  0  0  0  0  0  0
   17.6952  -11.6258  -15.7612 C   0  0  2  0  0  0  0  0  0  0  0  0
   18.5681  -12.2054  -16.7323 N   0  0  0  0  0  0  0  0  0  0  0  0
   18.3822  -10.6321  -14.8922 C   0  0  0  0  0  0  0  0  0  0  0  0
   18.1478  -10.6269  -13.6483 O   0  0  0  0  0  0  0  0  0  0  0  0
   21.9718  -10.4882  -15.1326 N   0  0  0  0  0  0  0  0  0  0  0  0
   22.2274   -9.1259  -15.3972 C   0  0  0  0  0  0  0  0  0  0  0  0
   23.3320   -8.7510  -15.9080 O   0  0  0  0  0  0  0  0  0  0  0  0
   21.1816   -8.1424  -15.0672 C   0  0  0  0  0  0  0  0  0  0  0  0
   19.9510   -8.7699  -14.4770 C   0  0  2  0  0  0  0  0  0  0  0  0
   19.2973   -9.6768  -15.3844 N   0  0  0  0  0  0  0  0  0  0  0  0
   19.0272   -7.6407  -14.1244 C   0  0  0  0  0  0  0  0  0  0  0  0
   18.3458   -7.1148  -15.0361 O   0  0  0  0  0  0  0  0  0  0  0  0
   18.9606   -7.2142  -12.7808 N   0  0  0  0  0  0  0  0  0  0  0  0
   18.0696   -6.1747  -12.3456 C   0  0  1  0  0  0  0  0  0  0  0  0
   17.8117   -6.2937  -10.8852 C   0  0  0  0  0  0  0  0  0  0  0  0
   16.9850   -5.2219  -10.2602 C   0  0  0  0  0  0  0  0  0  0  0  0
   16.8180   -5.2868   -8.8136 C   0  0  0  0  0  0  0  0  0  0  0  0
   17.3980   -6.1772   -8.1500 O   0  0  0  0  0  0  0  0  0  0  0  0
   18.4570   -4.8516  -12.8298 C   0  0  0  0  0  0  0  0  0  0  0  0
   17.5276   -3.9161  -13.2518 O   0  0  0  0  0  0  0  0  0  0  0  0
   16.0228   -4.3748   -8.1495 O   0  0  0  0  0  0  0  0  0  0  0  0
   19.6693   -4.5273  -12.8746 O   0  0  0  0  0  0  0  0  0  0  0  0
  2  4  1  0
  2  1  1  0
  3  2  2  0
  5  4  1  0
  6  5  1  0
  6  7  1  1
  8  6  1  0
  8 15  1  0
  9  8  2  0
 10 11  1  0
 11 13  1  0
 11 12  2  0
 14 13  1  6
 14 15  1  0
 14 16  1  0
 16 17  2  0
 16 18  1  0
 18 19  1  0
 19 20  1  1
 19 24  1  0
 21 22  1  0
 21 20  1  0
 22 26  1  0
 23 22  2  0
 24 25  1  0
 27 24  2  0
M  END
$$$$
