QNE.pdb
     RDKit          3D

 27 26  0  0  1  0  0  0  0  0999 V2000
   16.2000  -10.8061  -20.4723 N   0  0  0  0  0  0  0  0  0  0  0  0
   17.3641  -11.6117  -20.4061 C   0  0  0  0  0  0  0  0  0  0  0  0
   18.0163  -11.8858  -21.4351 O   0  0  0  0  0  0  0  0  0  0  0  0
   17.8228  -12.1442  -19.0864 C   0  0  0  0  0  0  0  0  0  0  0  0
   17.8329  -11.0420  -18.0599 C   0  0  0  0  0  0  0  0  0  0  0  0
   18.2465  -11.6089  -16.7325 C   0  0  2  0  0  0  0  0  0  0  0  0
   17.2280  -12.4338  -16.1638 N   0  0  0  0  0  0  0  0  0  0  0  0
   18.7409  -10.5725  -15.7860 C   0  0  0  0  0  0  0  0  0  0  0  0
   17.9643  -10.1265  -14.8915 O   0  0  0  0  0  0  0  0  0  0  0  0
   21.2585   -7.2227  -13.0092 N   0  0  0  0  0  0  0  0  0  0  0  0
   21.9078   -8.4746  -12.9622 C   0  0  0  0  0  0  0  0  0  0  0  0
   22.7988   -8.7210  -12.0865 O   0  0  0  0  0  0  0  0  0  0  0  0
   21.5292   -9.4951  -13.9548 C   0  0  0  0  0  0  0  0  0  0  0  0
   20.4513   -9.0307  -14.8923 C   0  0  2  0  0  0  0  0  0  0  0  0
   20.0506  -10.0480  -15.8292 N   0  0  0  0  0  0  0  0  0  0  0  0
   21.0097   -7.8468  -15.6267 C   0  0  0  0  0  0  0  0  0  0  0  0
   21.5308   -8.0292  -16.7525 O   0  0  0  0  0  0  0  0  0  0  0  0
   20.9270   -6.5742  -15.0225 N   0  0  0  0  0  0  0  0  0  0  0  0
   21.2003   -5.3607  -15.7414 C   0  0  1  0  0  0  0  0  0  0  0  0
   20.4324   -5.3312  -17.0153 C   0  0  0  0  0  0  0  0  0  0  0  0
   20.5008   -4.0724  -17.8113 C   0  0  0  0  0  0  0  0  0  0  0  0
   19.7294   -4.0395  -19.0475 C   0  0  0  0  0  0  0  0  0  0  0  0
   19.5417   -5.0904  -19.7034 O   0  0  0  0  0  0  0  0  0  0  0  0
   21.1100   -4.1679  -14.9023 C   0  0  0  0  0  0  0  0  0  0  0  0
   20.2518   -4.0880  -13.8187 O   0  0  0  0  0  0  0  0  0  0  0  0
   19.1932   -2.8579  -19.5180 O   0  0  0  0  0  0  0  0  0  0  0  0
   21.8254   -3.1665  -15.1518 O   0  0  0  0  0  0  0  0  0  0  0  0
  2  4  1  0
  2  1  1  0
  3  2  2  0
  5  4  1  0
  6  5  1  0
  6  7  1  1
  8  6  1  0
  8 15  1  0
  9  8  2  0
 10 11  1  0
 11 13  1  0
 11 12  2  0
 14 13  1  1
 14 15  1  0
 14 16  1  0
 16 17  2  0
 16 18  1  0
 18 19  1  0
 19 20  1  6
 19 24  1  0
 21 22  1  0
 21 20  1  0
 22 26  1  0
 23 22  2  0
 24 25  1  0
 27 24  2  0
M  END
$$$$
