EMC.pdb
     RDKit          3D

 24 23  0  0  1  0  0  0  0  0999 V2000
    9.7122  -16.2338   19.5181 N   0  0  0  0  0  0  0  0  0  0  0  0
    8.9438  -16.9052   20.5164 C   0  0  1  0  0  0  0  0  0  0  0  0
    9.0087  -18.3769   20.4641 C   0  0  0  0  0  0  0  0  0  0  0  0
    8.2659  -19.0361   21.5694 C   0  0  0  0  0  0  0  0  0  0  0  0
    8.2337  -20.4808   21.6257 C   0  0  0  0  0  0  0  0  0  0  0  0
    8.7947  -21.2479   20.8384 O   0  0  0  0  0  0  0  0  0  0  0  0
    9.3120  -16.3532   21.8616 C   0  0  0  0  0  0  0  0  0  0  0  0
   10.5103  -16.3542   22.2547 O   0  0  0  0  0  0  0  0  0  0  0  0
    7.4996  -21.0668   22.6679 O   0  0  0  0  0  0  0  0  0  0  0  0
    6.6672  -11.6902   27.7972 C   0  0  0  0  0  0  0  0  0  0  0  0
    6.3055  -12.6241   26.2838 S   0  0  0  0  0  0  0  0  0  0  0  0
    7.7324  -13.7225   25.8822 C   0  0  0  0  0  0  0  0  0  0  0  0
    7.4673  -14.3491   24.5377 C   0  0  0  0  0  0  0  0  0  0  0  0
    8.6077  -15.1730   24.0115 C   0  0  2  0  0  0  0  0  0  0  0  0
    8.3731  -15.8110   22.7564 N   0  0  0  0  0  0  0  0  0  0  0  0
    8.9607  -16.2283   24.9747 C   0  0  0  0  0  0  0  0  0  0  0  0
    8.2497  -17.2511   25.0192 O   0  0  0  0  0  0  0  0  0  0  0  0
   10.0774  -16.1087   25.8408 N   0  0  0  0  0  0  0  0  0  0  0  0
   10.4091  -17.1487   26.7665 C   0  0  1  0  0  0  0  0  0  0  0  0
   11.7083  -17.7820   26.3501 C   0  0  0  0  0  0  0  0  0  0  0  0
   12.3577  -18.9461   27.5690 S   0  0  0  0  0  0  0  0  0  0  0  0
   10.4204  -16.6902   28.1863 C   0  0  0  0  0  0  0  0  0  0  0  0
   10.2667  -17.5083   29.2784 O   0  0  0  0  0  0  0  0  0  0  0  0
   10.5842  -15.4600   28.3994 O   0  0  0  0  0  0  0  0  0  0  0  0
  2  1  1  6
  2  7  1  0
  3  4  1  0
  3  2  1  0
  4  5  1  0
  5  6  2  0
  7  8  2  0
  9  5  1  0
 10 11  1  0
 11 12  1  0
 12 13  1  0
 14 13  1  1
 14 16  1  0
 15  7  1  0
 15 14  1  0
 16 18  1  0
 16 17  2  0
 18 19  1  0
 19 22  1  0
 19 20  1  6
 21 20  1  0
 22 24  2  0
 22 23  1  0
M  END
$$$$
