EMC.pdb
     RDKit          3D

 24 23  0  0  1  0  0  0  0  0999 V2000
    8.1112  -18.0686   21.9175 N   0  0  0  0  0  0  0  0  0  0  0  0
    9.4048  -17.5060   21.6991 C   0  0  1  0  0  0  0  0  0  0  0  0
    9.6099  -16.9225   20.3611 C   0  0  0  0  0  0  0  0  0  0  0  0
    8.3817  -16.3063   19.7958 C   0  0  0  0  0  0  0  0  0  0  0  0
    8.4581  -15.6477   18.5105 C   0  0  0  0  0  0  0  0  0  0  0  0
    9.4833  -15.4776   17.8449 O   0  0  0  0  0  0  0  0  0  0  0  0
    9.7054  -16.5415   22.8077 C   0  0  0  0  0  0  0  0  0  0  0  0
   10.8190  -15.9529   22.8682 O   0  0  0  0  0  0  0  0  0  0  0  0
    7.2609  -15.1566   17.9682 O   0  0  0  0  0  0  0  0  0  0  0  0
    6.9831  -11.6858   27.1084 C   0  0  0  0  0  0  0  0  0  0  0  0
    6.1479  -12.6523   25.8193 S   0  0  0  0  0  0  0  0  0  0  0  0
    7.4047  -13.5558   24.8155 C   0  0  0  0  0  0  0  0  0  0  0  0
    7.8098  -14.7870   25.5840 C   0  0  0  0  0  0  0  0  0  0  0  0
    9.0165  -15.4863   25.0266 C   0  0  2  0  0  0  0  0  0  0  0  0
    8.7924  -16.2339   23.8315 N   0  0  0  0  0  0  0  0  0  0  0  0
    9.5712  -16.4173   26.0224 C   0  0  0  0  0  0  0  0  0  0  0  0
    8.9710  -17.4901   26.2286 O   0  0  0  0  0  0  0  0  0  0  0  0
   10.7578  -16.1247   26.7420 N   0  0  0  0  0  0  0  0  0  0  0  0
   11.2498  -17.0149   27.7489 C   0  0  1  0  0  0  0  0  0  0  0  0
   12.7272  -17.2146   27.5497 C   0  0  0  0  0  0  0  0  0  0  0  0
   13.1676  -17.6340   25.8488 S   0  0  0  0  0  0  0  0  0  0  0  0
   10.9086  -16.5807   29.1349 C   0  0  0  0  0  0  0  0  0  0  0  0
   11.2290  -17.2720   30.2773 O   0  0  0  0  0  0  0  0  0  0  0  0
   10.2800  -15.4977   29.2674 O   0  0  0  0  0  0  0  0  0  0  0  0
  2  1  1  6
  2  7  1  0
  3  4  1  0
  3  2  1  0
  4  5  1  0
  5  6  2  0
  7  8  2  0
  9  5  1  0
 10 11  1  0
 11 12  1  0
 12 13  1  0
 14 13  1  1
 14 16  1  0
 15  7  1  0
 15 14  1  0
 16 18  1  0
 16 17  2  0
 18 19  1  0
 19 22  1  0
 19 20  1  1
 21 20  1  0
 22 24  2  0
 22 23  1  0
M  END
$$$$
