EMC.pdb
     RDKit          3D

 24 23  0  0  1  0  0  0  0  0999 V2000
    8.8117  -15.6613   20.0232 N   0  0  0  0  0  0  0  0  0  0  0  0
    8.5768  -16.4314   21.2021 C   0  0  1  0  0  0  0  0  0  0  0  0
    9.0764  -17.8171   21.1479 C   0  0  0  0  0  0  0  0  0  0  0  0
   10.0136  -18.0587   20.0204 C   0  0  0  0  0  0  0  0  0  0  0  0
    9.8090  -19.2156   19.1771 C   0  0  0  0  0  0  0  0  0  0  0  0
    9.8574  -20.3937   19.5414 O   0  0  0  0  0  0  0  0  0  0  0  0
    9.0949  -15.6711   22.3867 C   0  0  0  0  0  0  0  0  0  0  0  0
   10.2256  -15.1137   22.3528 O   0  0  0  0  0  0  0  0  0  0  0  0
    9.5299  -18.9816   17.8222 O   0  0  0  0  0  0  0  0  0  0  0  0
    6.3843  -11.5778   27.3479 C   0  0  0  0  0  0  0  0  0  0  0  0
    5.5478  -12.5090   26.0339 S   0  0  0  0  0  0  0  0  0  0  0  0
    6.8012  -13.1615   24.8479 C   0  0  0  0  0  0  0  0  0  0  0  0
    7.5762  -14.2479   25.5478 C   0  0  0  0  0  0  0  0  0  0  0  0
    8.7312  -14.7849   24.7518 C   0  0  2  0  0  0  0  0  0  0  0  0
    8.3771  -15.5305   23.5872 N   0  0  0  0  0  0  0  0  0  0  0  0
    9.5643  -15.6615   25.5906 C   0  0  0  0  0  0  0  0  0  0  0  0
    9.5381  -16.8885   25.3731 O   0  0  0  0  0  0  0  0  0  0  0  0
   10.3855  -15.1472   26.6263 N   0  0  0  0  0  0  0  0  0  0  0  0
   11.1522  -16.0193   27.4631 C   0  0  1  0  0  0  0  0  0  0  0  0
   11.8482  -15.2031   28.5175 C   0  0  0  0  0  0  0  0  0  0  0  0
   10.7482  -14.0515   29.3700 S   0  0  0  0  0  0  0  0  0  0  0  0
   10.3498  -17.1386   28.0370 C   0  0  0  0  0  0  0  0  0  0  0  0
    8.9820  -17.2401   27.9721 O   0  0  0  0  0  0  0  0  0  0  0  0
   10.9743  -18.0607   28.6247 O   0  0  0  0  0  0  0  0  0  0  0  0
  2  1  1  6
  2  7  1  0
  3  4  1  0
  3  2  1  0
  4  5  1  0
  5  6  2  0
  7  8  2  0
  9  5  1  0
 10 11  1  0
 11 12  1  0
 12 13  1  0
 14 13  1  1
 14 16  1  0
 15  7  1  0
 15 14  1  0
 16 18  1  0
 16 17  2  0
 18 19  1  0
 19 22  1  0
 19 20  1  1
 21 20  1  0
 22 24  2  0
 22 23  1  0
M  END
$$$$
