EMC.pdb
     RDKit          3D

 24 23  0  0  1  0  0  0  0  0999 V2000
    9.1835  -18.1577   21.1925 N   0  0  0  0  0  0  0  0  0  0  0  0
   10.4696  -17.5404   21.1398 C   0  0  1  0  0  0  0  0  0  0  0  0
   10.8884  -17.0924   19.7994 C   0  0  0  0  0  0  0  0  0  0  0  0
   10.5644  -18.0687   18.7271 C   0  0  0  0  0  0  0  0  0  0  0  0
   11.5858  -18.4124   17.7628 C   0  0  0  0  0  0  0  0  0  0  0  0
   11.6569  -19.4697   17.1303 O   0  0  0  0  0  0  0  0  0  0  0  0
   10.5218  -16.4450   22.1630 C   0  0  0  0  0  0  0  0  0  0  0  0
   11.5440  -15.7153   22.2771 O   0  0  0  0  0  0  0  0  0  0  0  0
   12.5881  -17.4606   17.5219 O   0  0  0  0  0  0  0  0  0  0  0  0
    6.0045  -12.4012   27.2911 C   0  0  0  0  0  0  0  0  0  0  0  0
    6.3092  -12.9250   25.5804 S   0  0  0  0  0  0  0  0  0  0  0  0
    8.0393  -13.5464   25.4255 C   0  0  0  0  0  0  0  0  0  0  0  0
    8.0485  -14.6269   24.3753 C   0  0  0  0  0  0  0  0  0  0  0  0
    9.4121  -15.1860   24.0852 C   0  0  2  0  0  0  0  0  0  0  0  0
    9.4642  -16.1619   23.0448 N   0  0  0  0  0  0  0  0  0  0  0  0
    9.9745  -15.8104   25.2934 C   0  0  0  0  0  0  0  0  0  0  0  0
    9.9147  -17.0507   25.4014 O   0  0  0  0  0  0  0  0  0  0  0  0
   10.5753  -15.0420   26.3231 N   0  0  0  0  0  0  0  0  0  0  0  0
   11.1694  -15.6709   27.4633 C   0  0  1  0  0  0  0  0  0  0  0  0
   11.5184  -14.6183   28.4795 C   0  0  0  0  0  0  0  0  0  0  0  0
   10.1365  -13.5256   28.8783 S   0  0  0  0  0  0  0  0  0  0  0  0
   10.3324  -16.7668   28.0328 C   0  0  0  0  0  0  0  0  0  0  0  0
    9.0159  -16.9965   27.7172 O   0  0  0  0  0  0  0  0  0  0  0  0
   10.8744  -17.5405   28.8654 O   0  0  0  0  0  0  0  0  0  0  0  0
  2  1  1  6
  2  7  1  0
  3  4  1  0
  3  2  1  0
  4  5  1  0
  5  6  2  0
  7  8  2  0
  9  5  1  0
 10 11  1  0
 11 12  1  0
 12 13  1  0
 14 13  1  1
 14 16  1  0
 15  7  1  0
 15 14  1  0
 16 18  1  0
 16 17  2  0
 18 19  1  0
 19 22  1  0
 19 20  1  1
 21 20  1  0
 22 24  2  0
 22 23  1  0
M  END
$$$$
