EMC.pdb
     RDKit          3D

 24 23  0  0  1  0  0  0  0  0999 V2000
    7.3045  -17.3138   20.8102 N   0  0  0  0  0  0  0  0  0  0  0  0
    8.7091  -17.5392   20.9295 C   0  0  1  0  0  0  0  0  0  0  0  0
    9.4820  -17.3062   19.6962 C   0  0  0  0  0  0  0  0  0  0  0  0
    8.8397  -16.3309   18.7773 C   0  0  0  0  0  0  0  0  0  0  0  0
    8.9071  -16.5647   17.3518 C   0  0  0  0  0  0  0  0  0  0  0  0
    9.8950  -16.9662   16.7306 O   0  0  0  0  0  0  0  0  0  0  0  0
    9.2265  -16.7546   22.0984 C   0  0  0  0  0  0  0  0  0  0  0  0
   10.4598  -16.7216   22.3597 O   0  0  0  0  0  0  0  0  0  0  0  0
    7.7467  -16.3138   16.6041 O   0  0  0  0  0  0  0  0  0  0  0  0
    5.8436  -11.7611   26.1368 C   0  0  0  0  0  0  0  0  0  0  0  0
    6.9226  -13.0767   26.7678 S   0  0  0  0  0  0  0  0  0  0  0  0
    8.3575  -13.2954   25.6290 C   0  0  0  0  0  0  0  0  0  0  0  0
    7.8889  -14.1049   24.4476 C   0  0  0  0  0  0  0  0  0  0  0  0
    8.7585  -15.2887   24.1340 C   0  0  2  0  0  0  0  0  0  0  0  0
    8.3961  -16.0207   22.9634 N   0  0  0  0  0  0  0  0  0  0  0  0
    8.7512  -16.2384   25.2583 C   0  0  0  0  0  0  0  0  0  0  0  0
    7.7719  -16.9991   25.3843 O   0  0  0  0  0  0  0  0  0  0  0  0
    9.8200  -16.3063   26.1882 N   0  0  0  0  0  0  0  0  0  0  0  0
   10.1399  -17.5301   26.8579 C   0  0  1  0  0  0  0  0  0  0  0  0
   10.3962  -18.5998   25.8320 C   0  0  0  0  0  0  0  0  0  0  0  0
   10.8485  -20.1908   26.5578 S   0  0  0  0  0  0  0  0  0  0  0  0
   11.2576  -17.3900   27.8361 C   0  0  0  0  0  0  0  0  0  0  0  0
   11.4437  -18.1883   28.9378 O   0  0  0  0  0  0  0  0  0  0  0  0
   12.0944  -16.4706   27.6360 O   0  0  0  0  0  0  0  0  0  0  0  0
  2  1  1  6
  2  7  1  0
  3  4  1  0
  3  2  1  0
  4  5  1  0
  5  6  2  0
  7  8  2  0
  9  5  1  0
 10 11  1  0
 11 12  1  0
 12 13  1  0
 14 13  1  1
 14 16  1  0
 15  7  1  0
 15 14  1  0
 16 18  1  0
 16 17  2  0
 18 19  1  0
 19 22  1  0
 19 20  1  6
 21 20  1  0
 22 24  2  0
 22 23  1  0
M  END
$$$$
