EMC.pdb
     RDKit          3D

 24 23  0  0  1  0  0  0  0  0999 V2000
    8.5897  -18.3061   21.2779 N   0  0  0  0  0  0  0  0  0  0  0  0
    9.8611  -17.6828   21.0963 C   0  0  1  0  0  0  0  0  0  0  0  0
   10.1502  -17.2535   19.7161 C   0  0  0  0  0  0  0  0  0  0  0  0
    9.0947  -17.6461   18.7468 C   0  0  0  0  0  0  0  0  0  0  0  0
    9.4788  -17.9855   17.3945 C   0  0  0  0  0  0  0  0  0  0  0  0
    9.6403  -19.1267   16.9533 O   0  0  0  0  0  0  0  0  0  0  0  0
   10.0007  -16.5712   22.0935 C   0  0  0  0  0  0  0  0  0  0  0  0
   11.0362  -15.8518   22.1188 O   0  0  0  0  0  0  0  0  0  0  0  0
    9.6875  -16.9245   16.5005 O   0  0  0  0  0  0  0  0  0  0  0  0
    6.1526  -11.3803   26.6713 C   0  0  0  0  0  0  0  0  0  0  0  0
    6.0817  -12.9076   25.6937 S   0  0  0  0  0  0  0  0  0  0  0  0
    7.7907  -13.5519   25.4333 C   0  0  0  0  0  0  0  0  0  0  0  0
    7.7126  -14.6724   24.4288 C   0  0  0  0  0  0  0  0  0  0  0  0
    9.0457  -15.2600   24.0633 C   0  0  2  0  0  0  0  0  0  0  0  0
    9.0147  -16.2611   23.0463 N   0  0  0  0  0  0  0  0  0  0  0  0
    9.6778  -15.8645   25.2470 C   0  0  0  0  0  0  0  0  0  0  0  0
    9.8135  -17.1031   25.2781 O   0  0  0  0  0  0  0  0  0  0  0  0
   10.1303  -15.0789   26.3378 N   0  0  0  0  0  0  0  0  0  0  0  0
   10.9102  -15.6556   27.3902 C   0  0  1  0  0  0  0  0  0  0  0  0
   11.3254  -14.5708   28.3459 C   0  0  0  0  0  0  0  0  0  0  0  0
    9.9445  -13.5555   28.9162 S   0  0  0  0  0  0  0  0  0  0  0  0
   10.2277  -16.7939   28.0716 C   0  0  0  0  0  0  0  0  0  0  0  0
    8.9196  -17.1604   27.8716 O   0  0  0  0  0  0  0  0  0  0  0  0
   10.9025  -17.4706   28.8916 O   0  0  0  0  0  0  0  0  0  0  0  0
  2  1  1  6
  2  7  1  0
  3  4  1  0
  3  2  1  0
  4  5  1  0
  5  6  2  0
  7  8  2  0
  9  5  1  0
 10 11  1  0
 11 12  1  0
 12 13  1  0
 14 13  1  1
 14 16  1  0
 15  7  1  0
 15 14  1  0
 16 18  1  0
 16 17  2  0
 18 19  1  0
 19 22  1  0
 19 20  1  1
 21 20  1  0
 22 24  2  0
 22 23  1  0
M  END
$$$$
