EMC.pdb
     RDKit          3D

 24 23  0  0  1  0  0  0  0  0999 V2000
    8.3146  -17.9255   21.3339 N   0  0  0  0  0  0  0  0  0  0  0  0
    9.4286  -17.0805   21.0460 C   0  0  1  0  0  0  0  0  0  0  0  0
    9.4063  -16.4577   19.7103 C   0  0  0  0  0  0  0  0  0  0  0  0
    8.3999  -17.0613   18.7987 C   0  0  0  0  0  0  0  0  0  0  0  0
    8.8104  -17.4611   17.4710 C   0  0  0  0  0  0  0  0  0  0  0  0
    9.0102  -16.7040   16.5170 O   0  0  0  0  0  0  0  0  0  0  0  0
    9.5741  -16.0794   22.1534 C   0  0  0  0  0  0  0  0  0  0  0  0
   10.4800  -15.2028   22.1173 O   0  0  0  0  0  0  0  0  0  0  0  0
    8.9997  -18.8324   17.2428 O   0  0  0  0  0  0  0  0  0  0  0  0
    6.1502  -11.3075   26.1364 C   0  0  0  0  0  0  0  0  0  0  0  0
    6.0462  -13.0713   26.5503 S   0  0  0  0  0  0  0  0  0  0  0  0
    7.6753  -13.8759   26.2307 C   0  0  0  0  0  0  0  0  0  0  0  0
    7.5323  -14.7331   24.9997 C   0  0  0  0  0  0  0  0  0  0  0  0
    8.8373  -15.2252   24.4423 C   0  0  2  0  0  0  0  0  0  0  0  0
    8.7345  -16.0482   23.2806 N   0  0  0  0  0  0  0  0  0  0  0  0
    9.5658  -16.0005   25.4593 C   0  0  0  0  0  0  0  0  0  0  0  0
    9.5506  -17.2442   25.3789 O   0  0  0  0  0  0  0  0  0  0  0  0
   10.2756  -15.3716   26.5140 N   0  0  0  0  0  0  0  0  0  0  0  0
   11.1545  -16.1186   27.3613 C   0  0  1  0  0  0  0  0  0  0  0  0
   11.8058  -15.1823   28.3419 C   0  0  0  0  0  0  0  0  0  0  0  0
   10.6512  -14.0051   29.0793 S   0  0  0  0  0  0  0  0  0  0  0  0
   10.4876  -17.2762   28.0254 C   0  0  0  0  0  0  0  0  0  0  0  0
    9.1430  -17.5487   27.9676 O   0  0  0  0  0  0  0  0  0  0  0  0
   11.2127  -18.0637   28.6886 O   0  0  0  0  0  0  0  0  0  0  0  0
  2  1  1  1
  2  7  1  0
  3  4  1  0
  3  2  1  0
  4  5  1  0
  5  6  2  0
  7  8  2  0
  9  5  1  0
 10 11  1  0
 11 12  1  0
 12 13  1  0
 14 13  1  1
 14 16  1  0
 15  7  1  0
 15 14  1  0
 16 18  1  0
 16 17  2  0
 18 19  1  0
 19 22  1  0
 19 20  1  1
 21 20  1  0
 22 24  2  0
 22 23  1  0
M  END
$$$$
