TQM.pdb
     RDKit          3D

 25 24  0  0  1  0  0  0  0  0999 V2000
   28.8503  -21.5121  -19.7344 C   0  0  0  0  0  0  0  0  0  0  0  0
   28.0975  -21.1637  -18.4621 C   0  0  1  0  0  0  0  0  0  0  0  0
   28.8286  -21.6665  -17.3912 O   0  0  0  0  0  0  0  0  0  0  0  0
   27.9541  -19.6761  -18.4156 C   0  0  2  0  0  0  0  0  0  0  0  0
   29.1896  -18.9521  -18.5326 N   0  0  0  0  0  0  0  0  0  0  0  0
   27.2004  -19.2205  -17.1993 C   0  0  0  0  0  0  0  0  0  0  0  0
   27.7746  -18.5825  -16.2801 O   0  0  0  0  0  0  0  0  0  0  0  0
   21.0340  -18.1862  -17.1684 N   0  0  0  0  0  0  0  0  0  0  0  0
   21.3639  -18.0236  -15.8020 C   0  0  0  0  0  0  0  0  0  0  0  0
   20.4839  -17.6148  -15.0185 O   0  0  0  0  0  0  0  0  0  0  0  0
   22.7124  -18.3277  -15.3111 C   0  0  0  0  0  0  0  0  0  0  0  0
   23.7024  -18.6892  -16.3632 C   0  0  0  0  0  0  0  0  0  0  0  0
   25.0856  -18.9819  -15.8831 C   0  0  2  0  0  0  0  0  0  0  0  0
   25.8211  -19.4924  -17.0446 N   0  0  0  0  0  0  0  0  0  0  0  0
   25.1299  -20.0546  -14.8381 C   0  0  0  0  0  0  0  0  0  0  0  0
   25.0381  -21.2490  -15.2260 O   0  0  0  0  0  0  0  0  0  0  0  0
   26.1480  -19.1221   -8.4478 C   0  0  0  0  0  0  0  0  0  0  0  0
   26.3676  -20.9146   -8.5523 S   0  0  0  0  0  0  0  0  0  0  0  0
   25.7836  -21.5187  -10.1780 C   0  0  0  0  0  0  0  0  0  0  0  0
   25.8259  -20.4185  -11.1984 C   0  0  0  0  0  0  0  0  0  0  0  0
   25.3560  -20.8957  -12.5285 C   0  0  2  0  0  0  0  0  0  0  0  0
   25.2695  -19.7467  -13.4630 N   0  0  0  0  0  0  0  0  0  0  0  0
   24.0007  -21.4700  -12.4457 C   0  0  0  0  0  0  0  0  0  0  0  0
   22.9713  -20.7754  -12.5698 O   0  0  0  0  0  0  0  0  0  0  0  0
   23.8545  -22.8521  -12.2184 O   0  0  0  0  0  0  0  0  0  0  0  0
  2  1  1  6
  3  2  1  0
  4  5  1  1
  4  6  1  0
  4  2  1  0
  6 14  1  0
  7  6  2  0
  9  8  1  0
 10  9  2  0
 11  9  1  0
 12 11  1  0
 13 12  1  6
 14 13  1  0
 15 22  1  0
 15 13  1  0
 16 15  2  0
 18 17  1  0
 18 19  1  0
 19 20  1  0
 21 20  1  1
 21 22  1  0
 21 23  1  0
 23 25  1  0
 24 23  2  0
M  END
$$$$
