TQM.pdb
     RDKit          3D

 25 24  0  0  1  0  0  0  0  0999 V2000
   26.5315  -18.7164  -15.9067 C   0  0  0  0  0  0  0  0  0  0  0  0
   26.9444  -19.9106  -16.7495 C   0  0  1  0  0  0  0  0  0  0  0  0
   27.9698  -19.4947  -17.5921 O   0  0  0  0  0  0  0  0  0  0  0  0
   27.3700  -20.9971  -15.8147 C   0  0  2  0  0  0  0  0  0  0  0  0
   27.8642  -22.1819  -16.4602 N   0  0  0  0  0  0  0  0  0  0  0  0
   26.2886  -21.3539  -14.8358 C   0  0  0  0  0  0  0  0  0  0  0  0
   25.3915  -22.1839  -15.1323 O   0  0  0  0  0  0  0  0  0  0  0  0
   26.5801  -20.1633   -8.6319 N   0  0  0  0  0  0  0  0  0  0  0  0
   25.3088  -20.7664   -8.7812 C   0  0  0  0  0  0  0  0  0  0  0  0
   24.6484  -21.0316   -7.7570 O   0  0  0  0  0  0  0  0  0  0  0  0
   24.7732  -21.0761  -10.1112 C   0  0  0  0  0  0  0  0  0  0  0  0
   25.6955  -20.7948  -11.2462 C   0  0  0  0  0  0  0  0  0  0  0  0
   25.1761  -21.1285  -12.6057 C   0  0  2  0  0  0  0  0  0  0  0  0
   26.2407  -20.7700  -13.5485 N   0  0  0  0  0  0  0  0  0  0  0  0
   23.9715  -20.3241  -12.9881 C   0  0  0  0  0  0  0  0  0  0  0  0
   24.1673  -19.1957  -13.5113 O   0  0  0  0  0  0  0  0  0  0  0  0
   23.4940  -20.8187  -17.9854 C   0  0  0  0  0  0  0  0  0  0  0  0
   21.9601  -19.8926  -17.7375 S   0  0  0  0  0  0  0  0  0  0  0  0
   21.7998  -19.4148  -15.9783 C   0  0  0  0  0  0  0  0  0  0  0  0
   21.9540  -20.6133  -15.0876 C   0  0  0  0  0  0  0  0  0  0  0  0
   21.6016  -20.2887  -13.6776 C   0  0  2  0  0  0  0  0  0  0  0  0
   22.6575  -20.8062  -12.7730 N   0  0  0  0  0  0  0  0  0  0  0  0
   20.3453  -20.9454  -13.2724 C   0  0  0  0  0  0  0  0  0  0  0  0
   20.0089  -22.0679  -13.7015 O   0  0  0  0  0  0  0  0  0  0  0  0
   19.4886  -20.2879  -12.3685 O   0  0  0  0  0  0  0  0  0  0  0  0
  2  1  1  1
  3  2  1  0
  4  5  1  6
  4  6  1  0
  4  2  1  0
  6 14  1  0
  7  6  2  0
  9  8  1  0
 10  9  2  0
 11  9  1  0
 12 11  1  0
 13 12  1  1
 14 13  1  0
 15 22  1  0
 15 13  1  0
 16 15  2  0
 18 17  1  0
 18 19  1  0
 19 20  1  0
 21 20  1  6
 21 22  1  0
 21 23  1  0
 23 25  1  0
 24 23  2  0
M  END
$$$$
