TQM.pdb
     RDKit          3D

 25 24  0  0  1  0  0  0  0  0999 V2000
   14.1098   -4.7400   -9.2178 C   0  0  0  0  0  0  0  0  0  0  0  0
   15.3651   -5.4175   -9.7392 C   0  0  1  0  0  0  0  0  0  0  0  0
   16.4571   -4.7818   -9.1578 O   0  0  0  0  0  0  0  0  0  0  0  0
   15.2799   -6.8656   -9.3773 C   0  0  2  0  0  0  0  0  0  0  0  0
   15.1656   -7.1244   -7.9686 N   0  0  0  0  0  0  0  0  0  0  0  0
   16.4143   -7.6594   -9.9588 C   0  0  0  0  0  0  0  0  0  0  0  0
   17.4487   -7.9035   -9.2863 O   0  0  0  0  0  0  0  0  0  0  0  0
   15.6403  -12.1647  -13.9759 N   0  0  0  0  0  0  0  0  0  0  0  0
   15.8658  -12.2938  -12.5849 C   0  0  0  0  0  0  0  0  0  0  0  0
   15.4761  -13.3292  -12.0091 O   0  0  0  0  0  0  0  0  0  0  0  0
   16.5433  -11.2343  -11.8299 C   0  0  0  0  0  0  0  0  0  0  0  0
   16.9113  -10.0284  -12.6226 C   0  0  0  0  0  0  0  0  0  0  0  0
   17.4956   -8.8933  -11.8483 C   0  0  2  0  0  0  0  0  0  0  0  0
   16.3599   -8.1593  -11.2807 N   0  0  0  0  0  0  0  0  0  0  0  0
   18.2510   -7.9245  -12.7058 C   0  0  0  0  0  0  0  0  0  0  0  0
   17.6312   -6.9113  -13.1238 O   0  0  0  0  0  0  0  0  0  0  0  0
   21.5189   -2.3984  -15.3766 C   0  0  0  0  0  0  0  0  0  0  0  0
   20.5789   -3.4482  -14.2425 S   0  0  0  0  0  0  0  0  0  0  0  0
   21.4997   -4.9967  -13.9213 C   0  0  0  0  0  0  0  0  0  0  0  0
   20.6689   -5.9488  -13.1110 C   0  0  0  0  0  0  0  0  0  0  0  0
   20.2421   -7.1213  -13.9238 C   0  0  2  0  0  0  0  0  0  0  0  0
   19.6115   -8.1319  -13.0395 N   0  0  0  0  0  0  0  0  0  0  0  0
   21.3957   -7.7838  -14.5593 C   0  0  0  0  0  0  0  0  0  0  0  0
   21.9194   -8.8133  -14.0869 O   0  0  0  0  0  0  0  0  0  0  0  0
   21.9318   -7.2405  -15.7430 O   0  0  0  0  0  0  0  0  0  0  0  0
  2  1  1  1
  3  2  1  0
  4  5  1  1
  4  6  1  0
  4  2  1  0
  6 14  1  0
  7  6  2  0
  9  8  1  0
 10  9  2  0
 11  9  1  0
 12 11  1  0
 13 12  1  6
 14 13  1  0
 15 22  1  0
 15 13  1  0
 16 15  2  0
 18 17  1  0
 18 19  1  0
 19 20  1  0
 21 20  1  1
 21 22  1  0
 21 23  1  0
 23 25  1  0
 24 23  2  0
M  END
$$$$
