TQM.pdb
     RDKit          3D

 25 24  0  0  1  0  0  0  0  0999 V2000
   21.6291  -14.5649  -20.3080 C   0  0  0  0  0  0  0  0  0  0  0  0
   20.6505  -15.0305  -19.2440 C   0  0  1  0  0  0  0  0  0  0  0  0
   20.7335  -16.4171  -19.1757 O   0  0  0  0  0  0  0  0  0  0  0  0
   21.0299  -14.3654  -17.9597 C   0  0  2  0  0  0  0  0  0  0  0  0
   20.3731  -14.8933  -16.7959 N   0  0  0  0  0  0  0  0  0  0  0  0
   20.8527  -12.8755  -18.0229 C   0  0  0  0  0  0  0  0  0  0  0  0
   21.3511  -12.2009  -18.9599 O   0  0  0  0  0  0  0  0  0  0  0  0
   16.0205   -9.9209  -15.7222 N   0  0  0  0  0  0  0  0  0  0  0  0
   16.9256  -10.5324  -14.8226 C   0  0  0  0  0  0  0  0  0  0  0  0
   16.5287  -10.8157  -13.6748 O   0  0  0  0  0  0  0  0  0  0  0  0
   18.3042  -10.8291  -15.2262 C   0  0  0  0  0  0  0  0  0  0  0  0
   18.6813  -10.3556  -16.5869 C   0  0  0  0  0  0  0  0  0  0  0  0
   20.0567  -10.7147  -17.0437 C   0  0  2  0  0  0  0  0  0  0  0  0
   20.1207  -12.1798  -17.0327 N   0  0  0  0  0  0  0  0  0  0  0  0
   21.1289  -10.2286  -16.1171 C   0  0  0  0  0  0  0  0  0  0  0  0
   21.3987  -10.9410  -15.1146 O   0  0  0  0  0  0  0  0  0  0  0  0
   28.1485  -10.9544  -15.3291 C   0  0  0  0  0  0  0  0  0  0  0  0
   26.5423  -11.1014  -16.1480 S   0  0  0  0  0  0  0  0  0  0  0  0
   25.4426   -9.7420  -15.6081 C   0  0  0  0  0  0  0  0  0  0  0  0
   24.0707   -9.9055  -16.1950 C   0  0  0  0  0  0  0  0  0  0  0  0
   23.1382   -8.8595  -15.6910 C   0  0  2  0  0  0  0  0  0  0  0  0
   21.8189   -9.0143  -16.3516 N   0  0  0  0  0  0  0  0  0  0  0  0
   23.6169   -7.5058  -16.0258 C   0  0  0  0  0  0  0  0  0  0  0  0
   24.6463   -7.0160  -15.5181 O   0  0  0  0  0  0  0  0  0  0  0  0
   22.8911   -6.7314  -16.9514 O   0  0  0  0  0  0  0  0  0  0  0  0
  2  1  1  6
  3  2  1  0
  4  5  1  1
  4  6  1  0
  4  2  1  0
  6 14  1  0
  7  6  2  0
  9  8  1  0
 10  9  2  0
 11  9  1  0
 12 11  1  0
 13 12  1  1
 14 13  1  0
 15 22  1  0
 15 13  1  0
 16 15  2  0
 18 17  1  0
 18 19  1  0
 19 20  1  0
 21 20  1  6
 21 22  1  0
 21 23  1  0
 23 25  1  0
 24 23  2  0
M  END
$$$$
