TQM.pdb
     RDKit          3D

 25 24  0  0  1  0  0  0  0  0999 V2000
   18.1913  -11.7818  -16.1768 C   0  0  0  0  0  0  0  0  0  0  0  0
   16.8023  -12.1573  -15.6904 C   0  0  1  0  0  0  0  0  0  0  0  0
   16.6939  -13.5421  -15.7594 O   0  0  0  0  0  0  0  0  0  0  0  0
   16.6557  -11.6353  -14.2970 C   0  0  2  0  0  0  0  0  0  0  0  0
   15.4717  -12.0780  -13.6140 N   0  0  0  0  0  0  0  0  0  0  0  0
   16.7550  -10.1378  -14.2430 C   0  0  0  0  0  0  0  0  0  0  0  0
   15.7600   -9.4110  -14.4947 O   0  0  0  0  0  0  0  0  0  0  0  0
   15.7019   -6.5770  -10.5214 N   0  0  0  0  0  0  0  0  0  0  0  0
   16.7361   -7.5090  -10.2677 C   0  0  0  0  0  0  0  0  0  0  0  0
   16.9582   -7.8501   -9.0889 O   0  0  0  0  0  0  0  0  0  0  0  0
   17.5344   -8.0658  -11.3651 C   0  0  0  0  0  0  0  0  0  0  0  0
   17.1348   -7.6193  -12.7285 C   0  0  0  0  0  0  0  0  0  0  0  0
   18.0424   -8.0302  -13.8406 C   0  0  2  0  0  0  0  0  0  0  0  0
   17.9685   -9.4933  -13.9080 N   0  0  0  0  0  0  0  0  0  0  0  0
   19.4772   -7.6813  -13.5872 C   0  0  0  0  0  0  0  0  0  0  0  0
   20.1079   -8.3822  -12.7527 O   0  0  0  0  0  0  0  0  0  0  0  0
   23.0524   -8.7090  -18.6469 C   0  0  0  0  0  0  0  0  0  0  0  0
   23.1984   -7.2293  -17.6168 S   0  0  0  0  0  0  0  0  0  0  0  0
   22.2737   -7.4653  -16.0553 C   0  0  0  0  0  0  0  0  0  0  0  0
   22.2962   -6.2106  -15.2315 C   0  0  0  0  0  0  0  0  0  0  0  0
   21.5459   -6.3864  -13.9572 C   0  0  2  0  0  0  0  0  0  0  0  0
   20.1093   -6.6051  -14.2562 N   0  0  0  0  0  0  0  0  0  0  0  0
   21.6187   -5.1759  -13.1188 C   0  0  0  0  0  0  0  0  0  0  0  0
   20.6782   -4.3594  -13.0401 O   0  0  0  0  0  0  0  0  0  0  0  0
   22.7893   -4.9252  -12.3770 O   0  0  0  0  0  0  0  0  0  0  0  0
  2  1  1  1
  3  2  1  0
  4  5  1  6
  4  6  1  0
  4  2  1  0
  6 14  1  0
  7  6  2  0
  9  8  1  0
 10  9  2  0
 11  9  1  0
 12 11  1  0
 13 12  1  1
 14 13  1  0
 15 22  1  0
 15 13  1  0
 16 15  2  0
 18 17  1  0
 18 19  1  0
 19 20  1  0
 21 20  1  6
 21 22  1  0
 21 23  1  0
 23 25  1  0
 24 23  2  0
M  END
$$$$
