TQM.pdb
     RDKit          3D

 25 24  0  0  1  0  0  0  0  0999 V2000
   21.0433  -17.2428  -17.1437 C   0  0  0  0  0  0  0  0  0  0  0  0
   21.8138  -18.1554  -16.2055 C   0  0  1  0  0  0  0  0  0  0  0  0
   20.9033  -18.6939  -15.3026 O   0  0  0  0  0  0  0  0  0  0  0  0
   22.4848  -19.1985  -17.0405 C   0  0  2  0  0  0  0  0  0  0  0  0
   21.5905  -19.9972  -17.8323 N   0  0  0  0  0  0  0  0  0  0  0  0
   23.3826  -20.0826  -16.2236 C   0  0  0  0  0  0  0  0  0  0  0  0
   23.0087  -21.2251  -15.8545 O   0  0  0  0  0  0  0  0  0  0  0  0
   26.6253  -24.0970  -16.3428 N   0  0  0  0  0  0  0  0  0  0  0  0
   27.4554  -22.9550  -16.2461 C   0  0  0  0  0  0  0  0  0  0  0  0
   28.5649  -23.0674  -15.6879 O   0  0  0  0  0  0  0  0  0  0  0  0
   27.0246  -21.6623  -16.7892 C   0  0  0  0  0  0  0  0  0  0  0  0
   26.8592  -20.5766  -15.7833 C   0  0  0  0  0  0  0  0  0  0  0  0
   25.5508  -20.5485  -15.0644 C   0  0  2  0  0  0  0  0  0  0  0  0
   24.6777  -19.6622  -15.8410 N   0  0  0  0  0  0  0  0  0  0  0  0
   25.6486  -19.9621  -13.6893 C   0  0  0  0  0  0  0  0  0  0  0  0
   25.2652  -18.7727  -13.5352 O   0  0  0  0  0  0  0  0  0  0  0  0
   20.9467  -20.0384   -8.4346 C   0  0  0  0  0  0  0  0  0  0  0  0
   21.6917  -20.5828   -9.9904 S   0  0  0  0  0  0  0  0  0  0  0  0
   23.4952  -20.2745   -9.9573 C   0  0  0  0  0  0  0  0  0  0  0  0
   24.1160  -20.6194  -11.2798 C   0  0  0  0  0  0  0  0  0  0  0  0
   25.5886  -20.3985  -11.2605 C   0  0  2  0  0  0  0  0  0  0  0  0
   26.1522  -20.7096  -12.5971 N   0  0  0  0  0  0  0  0  0  0  0  0
   26.2554  -21.3020  -10.3051 C   0  0  0  0  0  0  0  0  0  0  0  0
   26.3348  -22.5331  -10.4929 O   0  0  0  0  0  0  0  0  0  0  0  0
   26.8257  -20.7630   -9.1356 O   0  0  0  0  0  0  0  0  0  0  0  0
  2  1  1  6
  3  2  1  0
  4  5  1  1
  4  6  1  0
  4  2  1  0
  6 14  1  0
  7  6  2  0
  9  8  1  0
 10  9  2  0
 11  9  1  0
 12 11  1  0
 13 12  1  6
 14 13  1  0
 15 22  1  0
 15 13  1  0
 16 15  2  0
 18 17  1  0
 18 19  1  0
 19 20  1  0
 21 20  1  6
 21 22  1  0
 21 23  1  0
 23 25  1  0
 24 23  2  0
M  END
$$$$
