TQM.pdb
     RDKit          3D

 25 24  0  0  1  0  0  0  0  0999 V2000
   28.0295  -21.9647  -15.2933 C   0  0  0  0  0  0  0  0  0  0  0  0
   28.5936  -20.7001  -15.9171 C   0  0  1  0  0  0  0  0  0  0  0  0
   29.3903  -21.0816  -16.9914 O   0  0  0  0  0  0  0  0  0  0  0  0
   27.4378  -19.8461  -16.3300 C   0  0  2  0  0  0  0  0  0  0  0  0
   27.7929  -18.7015  -17.1226 N   0  0  0  0  0  0  0  0  0  0  0  0
   26.6018  -19.4236  -15.1563 C   0  0  0  0  0  0  0  0  0  0  0  0
   26.8734  -18.3819  -14.5062 O   0  0  0  0  0  0  0  0  0  0  0  0
   20.5322  -20.5503  -14.6291 N   0  0  0  0  0  0  0  0  0  0  0  0
   20.8315  -20.0203  -13.3517 C   0  0  0  0  0  0  0  0  0  0  0  0
   19.8904  -19.7670  -12.5734 O   0  0  0  0  0  0  0  0  0  0  0  0
   22.2188  -19.7711  -12.9455 C   0  0  0  0  0  0  0  0  0  0  0  0
   23.2406  -20.0117  -14.0019 C   0  0  0  0  0  0  0  0  0  0  0  0
   24.6558  -19.7351  -13.6143 C   0  0  2  0  0  0  0  0  0  0  0  0
   25.4818  -20.1810  -14.7410 N   0  0  0  0  0  0  0  0  0  0  0  0
   25.1003  -20.5174  -12.4164 C   0  0  0  0  0  0  0  0  0  0  0  0
   25.3417  -21.7425  -12.5783 O   0  0  0  0  0  0  0  0  0  0  0  0
   27.8746  -18.3270   -6.8025 C   0  0  0  0  0  0  0  0  0  0  0  0
   28.3211  -20.0689   -6.9983 S   0  0  0  0  0  0  0  0  0  0  0  0
   27.0509  -20.9276   -7.9973 C   0  0  0  0  0  0  0  0  0  0  0  0
   26.7066  -20.1261   -9.2190 C   0  0  0  0  0  0  0  0  0  0  0  0
   25.6504  -20.7970  -10.0264 C   0  0  2  0  0  0  0  0  0  0  0  0
   25.2464  -19.9106  -11.1453 N   0  0  0  0  0  0  0  0  0  0  0  0
   24.4358  -21.0408   -9.2269 C   0  0  0  0  0  0  0  0  0  0  0  0
   23.3691  -20.4247   -9.4265 O   0  0  0  0  0  0  0  0  0  0  0  0
   24.4735  -22.0024   -8.1987 O   0  0  0  0  0  0  0  0  0  0  0  0
  2  1  1  6
  3  2  1  0
  4  5  1  1
  4  6  1  0
  4  2  1  0
  6 14  1  0
  7  6  2  0
  9  8  1  0
 10  9  2  0
 11  9  1  0
 12 11  1  0
 13 12  1  6
 14 13  1  0
 15 22  1  0
 15 13  1  0
 16 15  2  0
 18 17  1  0
 18 19  1  0
 19 20  1  0
 21 20  1  1
 21 22  1  0
 21 23  1  0
 23 25  1  0
 24 23  2  0
M  END
$$$$
