LIR.pdb
     RDKit          3D

 28 27  0  0  1  0  0  0  0  0999 V2000
   29.0503  -21.8283  -20.1222 C   0  0  0  0  0  0  0  0  0  0  0  0
   28.1165  -22.7798  -19.3858 C   0  0  2  0  0  0  0  0  0  0  0  0
   27.0856  -23.2306  -20.4143 C   0  0  0  0  0  0  0  0  0  0  0  0
   27.3757  -22.0283  -18.3301 C   0  0  0  0  0  0  0  0  0  0  0  0
   28.2091  -21.6476  -17.1347 C   0  0  2  0  0  0  0  0  0  0  0  0
   28.6535  -22.7867  -16.3727 N   0  0  0  0  0  0  0  0  0  0  0  0
   27.3435  -20.7451  -16.3280 C   0  0  0  0  0  0  0  0  0  0  0  0
   26.7212  -21.2326  -15.3496 O   0  0  0  0  0  0  0  0  0  0  0  0
   26.5468  -14.7526  -14.8444 C   0  0  0  0  0  0  0  0  0  0  0  0
   26.0434  -16.1548  -14.9027 C   0  0  0  0  0  0  0  0  0  0  0  0
   26.8629  -17.0422  -15.8081 C   0  0  2  0  0  0  0  0  0  0  0  0
   26.8831  -16.5799  -17.2326 C   0  0  0  0  0  0  0  0  0  0  0  0
   26.3717  -18.4697  -15.8013 C   0  0  2  0  0  0  0  0  0  0  0  0
   27.1743  -19.3576  -16.5950 N   0  0  0  0  0  0  0  0  0  0  0  0
   24.9393  -18.4624  -16.1751 C   0  0  0  0  0  0  0  0  0  0  0  0
   24.7023  -18.4241  -17.4228 O   0  0  0  0  0  0  0  0  0  0  0  0
   20.6184  -23.8012  -15.5530 N   0  0  0  0  0  0  0  0  0  0  0  0
   19.7237  -22.9638  -16.3206 C   0  0  0  0  0  0  0  0  0  0  0  0
   19.3428  -23.3803  -17.4775 N   0  0  0  0  0  0  0  0  0  0  0  0
   19.2697  -21.7314  -15.8360 N   0  0  0  0  0  0  0  0  0  0  0  0
   19.8485  -21.2228  -14.5648 C   0  0  0  0  0  0  0  0  0  0  0  0
   20.3966  -19.8949  -14.8892 C   0  0  0  0  0  0  0  0  0  0  0  0
   21.7987  -19.5346  -14.7407 C   0  0  0  0  0  0  0  0  0  0  0  0
   22.4435  -18.6391  -15.7039 C   0  0  2  0  0  0  0  0  0  0  0  0
   23.8834  -18.4932  -15.2793 N   0  0  0  0  0  0  0  0  0  0  0  0
   22.0126  -17.2472  -15.7995 C   0  0  0  0  0  0  0  0  0  0  0  0
   22.6341  -16.2116  -15.0605 O   0  0  0  0  0  0  0  0  0  0  0  0
   21.0859  -16.8759  -16.5217 O   0  0  0  0  0  0  0  0  0  0  0  0
  2  1  1  6
  3  2  1  0
  4  2  1  0
  5  4  1  0
  5  6  1  1
  7  8  2  0
  7  5  1  0
  9 10  1  0
 10 11  1  0
 11 13  1  0
 11 12  1  6
 13 14  1  6
 14  7  1  0
 15 13  1  0
 15 25  1  0
 16 15  2  0
 18 17  1  0
 18 20  1  0
 19 18  2  0
 21 20  1  0
 22 21  1  0
 22 23  1  0
 24 23  1  1
 24 25  1  0
 24 26  1  0
 26 28  2  0
 26 27  1  0
M  END
$$$$
