LIR.pdb
     RDKit          3D

 28 27  0  0  1  0  0  0  0  0999 V2000
   20.1266  -23.6840  -12.0516 C   0  0  0  0  0  0  0  0  0  0  0  0
   19.6375  -22.2422  -12.0923 C   0  0  2  0  0  0  0  0  0  0  0  0
   18.7995  -22.1224  -13.3600 C   0  0  0  0  0  0  0  0  0  0  0  0
   20.8055  -21.3275  -12.2567 C   0  0  0  0  0  0  0  0  0  0  0  0
   21.8498  -21.4498  -11.1784 C   0  0  2  0  0  0  0  0  0  0  0  0
   21.3811  -21.0109   -9.8886 N   0  0  0  0  0  0  0  0  0  0  0  0
   23.0002  -20.6355  -11.6562 C   0  0  0  0  0  0  0  0  0  0  0  0
   22.9578  -19.3891  -11.4922 O   0  0  0  0  0  0  0  0  0  0  0  0
   28.1114  -21.4734  -10.4570 C   0  0  0  0  0  0  0  0  0  0  0  0
   26.7727  -20.9738  -10.8827 C   0  0  0  0  0  0  0  0  0  0  0  0
   26.6027  -20.9361  -12.3823 C   0  0  2  0  0  0  0  0  0  0  0  0
   27.6405  -20.1090  -13.0766 C   0  0  0  0  0  0  0  0  0  0  0  0
   25.2504  -20.4015  -12.7878 C   0  0  2  0  0  0  0  0  0  0  0  0
   24.1515  -21.1808  -12.2903 N   0  0  0  0  0  0  0  0  0  0  0  0
   25.2474  -20.2332  -14.2586 C   0  0  0  0  0  0  0  0  0  0  0  0
   25.2232  -21.3116  -14.9300 O   0  0  0  0  0  0  0  0  0  0  0  0
   20.2766  -15.0768  -19.2236 N   0  0  0  0  0  0  0  0  0  0  0  0
   20.1552  -16.2956  -18.4549 C   0  0  0  0  0  0  0  0  0  0  0  0
   18.9752  -16.7574  -18.2286 N   0  0  0  0  0  0  0  0  0  0  0  0
   21.2779  -16.9723  -17.9634 N   0  0  0  0  0  0  0  0  0  0  0  0
   22.6138  -16.3538  -18.1696 C   0  0  0  0  0  0  0  0  0  0  0  0
   23.5861  -17.4281  -17.9063 C   0  0  0  0  0  0  0  0  0  0  0  0
   24.0118  -17.8324  -16.5748 C   0  0  0  0  0  0  0  0  0  0  0  0
   25.0241  -18.8769  -16.4016 C   0  0  2  0  0  0  0  0  0  0  0  0
   25.2689  -19.0165  -14.9199 N   0  0  0  0  0  0  0  0  0  0  0  0
   26.3753  -18.6678  -16.9142 C   0  0  0  0  0  0  0  0  0  0  0  0
   26.7528  -19.0460  -18.2254 O   0  0  0  0  0  0  0  0  0  0  0  0
   27.2767  -18.1534  -16.2500 O   0  0  0  0  0  0  0  0  0  0  0  0
  2  1  1  6
  3  2  1  0
  4  2  1  0
  5  4  1  0
  5  6  1  1
  7  8  2  0
  7  5  1  0
  9 10  1  0
 10 11  1  0
 11 13  1  0
 11 12  1  6
 13 14  1  6
 14  7  1  0
 15 13  1  0
 15 25  1  0
 16 15  2  0
 18 17  1  0
 18 20  1  0
 19 18  2  0
 21 20  1  0
 22 21  1  0
 22 23  1  0
 24 23  1  1
 24 25  1  0
 24 26  1  0
 26 28  2  0
 26 27  1  0
M  END
$$$$
