LIR.pdb
     RDKit          3D

 28 27  0  0  1  0  0  0  0  0999 V2000
   29.0953  -17.8774  -15.2547 C   0  0  0  0  0  0  0  0  0  0  0  0
   28.0825  -18.7116  -16.0279 C   0  0  2  0  0  0  0  0  0  0  0  0
   27.1523  -17.7131  -16.7071 C   0  0  0  0  0  0  0  0  0  0  0  0
   27.2505  -19.4955  -15.0679 C   0  0  0  0  0  0  0  0  0  0  0  0
   28.0254  -20.4765  -14.2280 C   0  0  2  0  0  0  0  0  0  0  0  0
   28.6912  -21.4855  -15.0117 N   0  0  0  0  0  0  0  0  0  0  0  0
   27.0253  -21.0679  -13.2980 C   0  0  0  0  0  0  0  0  0  0  0  0
   26.3843  -22.0815  -13.6771 O   0  0  0  0  0  0  0  0  0  0  0  0
   27.1390  -19.9845   -7.8636 C   0  0  0  0  0  0  0  0  0  0  0  0
   26.8666  -20.7897   -9.0886 C   0  0  0  0  0  0  0  0  0  0  0  0
   25.6175  -20.3567   -9.8175 C   0  0  2  0  0  0  0  0  0  0  0  0
   24.3543  -20.7911   -9.1402 C   0  0  0  0  0  0  0  0  0  0  0  0
   25.5759  -20.8787  -11.2334 C   0  0  2  0  0  0  0  0  0  0  0  0
   26.7470  -20.5563  -11.9996 N   0  0  0  0  0  0  0  0  0  0  0  0
   24.3111  -20.4218  -11.8525 C   0  0  0  0  0  0  0  0  0  0  0  0
   24.3394  -19.2527  -12.3493 O   0  0  0  0  0  0  0  0  0  0  0  0
   19.3336  -24.1424  -15.8909 N   0  0  0  0  0  0  0  0  0  0  0  0
   19.2131  -23.1024  -16.8884 C   0  0  0  0  0  0  0  0  0  0  0  0
   18.0793  -22.9548  -17.4798 N   0  0  0  0  0  0  0  0  0  0  0  0
   20.2870  -22.2658  -17.2148 N   0  0  0  0  0  0  0  0  0  0  0  0
   21.5531  -22.4220  -16.4517 C   0  0  0  0  0  0  0  0  0  0  0  0
   21.3262  -21.7282  -15.1727 C   0  0  0  0  0  0  0  0  0  0  0  0
   22.3255  -21.6118  -14.1212 C   0  0  0  0  0  0  0  0  0  0  0  0
   22.0311  -20.8700  -12.8929 C   0  0  2  0  0  0  0  0  0  0  0  0
   23.1442  -21.1649  -11.9189 N   0  0  0  0  0  0  0  0  0  0  0  0
   20.8454  -21.2070  -12.1101 C   0  0  0  0  0  0  0  0  0  0  0  0
   20.8958  -22.0908  -11.0051 O   0  0  0  0  0  0  0  0  0  0  0  0
   19.7259  -20.7525  -12.3518 O   0  0  0  0  0  0  0  0  0  0  0  0
  2  1  1  1
  3  2  1  0
  4  2  1  0
  5  4  1  0
  5  6  1  6
  7  8  2  0
  7  5  1  0
  9 10  1  0
 10 11  1  0
 11 13  1  0
 11 12  1  1
 13 14  1  6
 14  7  1  0
 15 13  1  0
 15 25  1  0
 16 15  2  0
 18 17  1  0
 18 20  1  0
 19 18  2  0
 21 20  1  0
 22 21  1  0
 22 23  1  0
 24 23  1  6
 24 25  1  0
 24 26  1  0
 26 28  2  0
 26 27  1  0
M  END
$$$$
