LIR.pdb
     RDKit          3D

 28 27  0  0  1  0  0  0  0  0999 V2000
   22.7589  -17.2906   14.4174 C   0  0  0  0  0  0  0  0  0  0  0  0
   23.4836  -16.8329   13.1584 C   0  0  2  0  0  0  0  0  0  0  0  0
   23.3911  -15.3114   13.1545 C   0  0  0  0  0  0  0  0  0  0  0  0
   22.7414  -17.3155   11.9567 C   0  0  0  0  0  0  0  0  0  0  0  0
   22.7464  -18.8111   11.7798 C   0  0  2  0  0  0  0  0  0  0  0  0
   24.0486  -19.3350   11.4549 N   0  0  0  0  0  0  0  0  0  0  0  0
   21.7567  -19.0790   10.7011 C   0  0  0  0  0  0  0  0  0  0  0  0
   22.1349  -18.9774    9.5058 O   0  0  0  0  0  0  0  0  0  0  0  0
   17.9558  -22.8909   11.5221 C   0  0  0  0  0  0  0  0  0  0  0  0
   18.9508  -22.0372   10.8119 C   0  0  0  0  0  0  0  0  0  0  0  0
   18.3776  -20.7208   10.3457 C   0  0  2  0  0  0  0  0  0  0  0  0
   17.4098  -20.8632    9.2115 C   0  0  0  0  0  0  0  0  0  0  0  0
   19.4528  -19.7565    9.9062 C   0  0  2  0  0  0  0  0  0  0  0  0
   20.4021  -19.4450   10.9378 N   0  0  0  0  0  0  0  0  0  0  0  0
   18.7906  -18.5676    9.3235 C   0  0  0  0  0  0  0  0  0  0  0  0
   18.3559  -17.7196   10.1640 O   0  0  0  0  0  0  0  0  0  0  0  0
   20.6090  -11.4205    6.3931 N   0  0  0  0  0  0  0  0  0  0  0  0
   19.6067  -12.0238    5.5430 C   0  0  0  0  0  0  0  0  0  0  0  0
   19.7461  -11.9173    4.2678 N   0  0  0  0  0  0  0  0  0  0  0  0
   18.5084  -12.7120    6.0721 N   0  0  0  0  0  0  0  0  0  0  0  0
   18.7719  -13.8433    6.9997 C   0  0  0  0  0  0  0  0  0  0  0  0
   18.8476  -15.0399    6.1445 C   0  0  0  0  0  0  0  0  0  0  0  0
   19.0599  -16.3885    6.6484 C   0  0  0  0  0  0  0  0  0  0  0  0
   18.0151  -17.0696    7.4164 C   0  0  2  0  0  0  0  0  0  0  0  0
   18.6233  -18.3346    7.9685 N   0  0  0  0  0  0  0  0  0  0  0  0
   16.8282  -17.5765    6.7332 C   0  0  0  0  0  0  0  0  0  0  0  0
   15.6491  -16.8049    6.5948 O   0  0  0  0  0  0  0  0  0  0  0  0
   16.7660  -18.7010    6.2335 O   0  0  0  0  0  0  0  0  0  0  0  0
  2  1  1  1
  3  2  1  0
  4  2  1  0
  5  4  1  0
  5  6  1  6
  7  8  2  0
  7  5  1  0
  9 10  1  0
 10 11  1  0
 11 13  1  0
 11 12  1  6
 13 14  1  1
 14  7  1  0
 15 13  1  0
 15 25  1  0
 16 15  2  0
 18 17  1  0
 18 20  1  0
 19 18  2  0
 21 20  1  0
 22 21  1  0
 22 23  1  0
 24 23  1  6
 24 25  1  0
 24 26  1  0
 26 28  2  0
 26 27  1  0
M  END
$$$$
