LIR.pdb
     RDKit          3D

 28 27  0  0  1  0  0  0  0  0999 V2000
   29.1423  -17.6162  -15.2134 C   0  0  0  0  0  0  0  0  0  0  0  0
   28.2211  -18.3242  -16.1981 C   0  0  2  0  0  0  0  0  0  0  0  0
   27.4092  -17.2248  -16.8732 C   0  0  0  0  0  0  0  0  0  0  0  0
   27.2545  -19.1776  -15.4462 C   0  0  0  0  0  0  0  0  0  0  0  0
   27.8949  -20.2248  -14.5736 C   0  0  2  0  0  0  0  0  0  0  0  0
   28.5925  -21.2354  -15.3271 N   0  0  0  0  0  0  0  0  0  0  0  0
   26.7796  -20.8009  -13.7743 C   0  0  0  0  0  0  0  0  0  0  0  0
   26.1294  -21.7606  -14.2625 O   0  0  0  0  0  0  0  0  0  0  0  0
   26.7627  -19.9821   -8.3471 C   0  0  0  0  0  0  0  0  0  0  0  0
   26.5172  -20.7757   -9.5853 C   0  0  0  0  0  0  0  0  0  0  0  0
   25.2515  -20.3764  -10.3047 C   0  0  2  0  0  0  0  0  0  0  0  0
   24.0111  -20.9337   -9.6770 C   0  0  0  0  0  0  0  0  0  0  0  0
   25.2604  -20.8065  -11.7517 C   0  0  2  0  0  0  0  0  0  0  0  0
   26.4001  -20.3322  -12.4854 N   0  0  0  0  0  0  0  0  0  0  0  0
   23.9616  -20.4242  -12.3505 C   0  0  0  0  0  0  0  0  0  0  0  0
   23.7682  -19.1751  -12.4797 O   0  0  0  0  0  0  0  0  0  0  0  0
   24.6226  -24.7168  -15.6285 N   0  0  0  0  0  0  0  0  0  0  0  0
   23.4026  -25.4931  -15.6284 C   0  0  0  0  0  0  0  0  0  0  0  0
   23.4431  -26.6902  -15.1571 N   0  0  0  0  0  0  0  0  0  0  0  0
   22.1987  -24.9746  -16.1200 N   0  0  0  0  0  0  0  0  0  0  0  0
   22.1241  -23.5150  -16.3914 C   0  0  0  0  0  0  0  0  0  0  0  0
   22.0161  -22.8769  -15.0686 C   0  0  0  0  0  0  0  0  0  0  0  0
   21.8539  -21.4450  -14.8663 C   0  0  0  0  0  0  0  0  0  0  0  0
   21.7460  -20.8913  -13.5145 C   0  0  2  0  0  0  0  0  0  0  0  0
   22.9829  -21.3137  -12.7619 N   0  0  0  0  0  0  0  0  0  0  0  0
   20.6799  -21.3487  -12.6276 C   0  0  0  0  0  0  0  0  0  0  0  0
   19.3542  -20.8613  -12.7260 O   0  0  0  0  0  0  0  0  0  0  0  0
   20.8543  -22.1826  -11.7374 O   0  0  0  0  0  0  0  0  0  0  0  0
  2  1  1  1
  3  2  1  0
  4  2  1  0
  5  4  1  0
  5  6  1  6
  7  8  2  0
  7  5  1  0
  9 10  1  0
 10 11  1  0
 11 13  1  0
 11 12  1  1
 13 14  1  6
 14  7  1  0
 15 13  1  0
 15 25  1  0
 16 15  2  0
 18 17  1  0
 18 20  1  0
 19 18  2  0
 21 20  1  0
 22 21  1  0
 22 23  1  0
 24 23  1  6
 24 25  1  0
 24 26  1  0
 26 28  2  0
 26 27  1  0
M  END
$$$$
