LIR.pdb
     RDKit          3D

 28 27  0  0  1  0  0  0  0  0999 V2000
   28.0828  -20.7773   -7.2602 C   0  0  0  0  0  0  0  0  0  0  0  0
   26.6429  -20.3913   -6.9487 C   0  0  2  0  0  0  0  0  0  0  0  0
   26.0577  -21.5619   -6.1670 C   0  0  0  0  0  0  0  0  0  0  0  0
   25.8705  -20.2910   -8.2220 C   0  0  0  0  0  0  0  0  0  0  0  0
   26.4114  -19.2828   -9.2015 C   0  0  2  0  0  0  0  0  0  0  0  0
   26.5001  -17.9545   -8.6506 N   0  0  0  0  0  0  0  0  0  0  0  0
   25.4881  -19.3384  -10.3673 C   0  0  0  0  0  0  0  0  0  0  0  0
   24.3488  -18.8179  -10.2515 O   0  0  0  0  0  0  0  0  0  0  0  0
   27.7711  -18.2616  -15.0520 C   0  0  0  0  0  0  0  0  0  0  0  0
   26.8601  -18.4329  -13.8842 C   0  0  0  0  0  0  0  0  0  0  0  0
   25.8944  -19.5814  -14.0485 C   0  0  2  0  0  0  0  0  0  0  0  0
   24.9643  -19.4133  -15.2104 C   0  0  0  0  0  0  0  0  0  0  0  0
   25.0479  -19.7929  -12.8165 C   0  0  2  0  0  0  0  0  0  0  0  0
   25.8144  -19.9464  -11.6118 N   0  0  0  0  0  0  0  0  0  0  0  0
   24.1228  -20.9172  -13.0846 C   0  0  0  0  0  0  0  0  0  0  0  0
   24.4625  -22.0336  -12.5819 O   0  0  0  0  0  0  0  0  0  0  0  0
   17.5669  -23.4702   -9.0855 N   0  0  0  0  0  0  0  0  0  0  0  0
   18.9194  -23.5102   -8.5756 C   0  0  0  0  0  0  0  0  0  0  0  0
   19.1249  -24.0795   -7.4395 N   0  0  0  0  0  0  0  0  0  0  0  0
   19.9912  -22.9536   -9.2836 N   0  0  0  0  0  0  0  0  0  0  0  0
   19.6934  -22.2195  -10.5414 C   0  0  0  0  0  0  0  0  0  0  0  0
   20.9948  -21.7272  -11.0236 C   0  0  0  0  0  0  0  0  0  0  0  0
   21.1693  -20.9400  -12.2351 C   0  0  0  0  0  0  0  0  0  0  0  0
   21.6874  -21.5590  -13.4573 C   0  0  2  0  0  0  0  0  0  0  0  0
   22.9545  -20.8271  -13.8228 N   0  0  0  0  0  0  0  0  0  0  0  0
   20.9183  -21.4716  -14.6954 C   0  0  0  0  0  0  0  0  0  0  0  0
   21.1240  -20.4381  -15.6411 O   0  0  0  0  0  0  0  0  0  0  0  0
   20.0424  -22.2814  -15.0042 O   0  0  0  0  0  0  0  0  0  0  0  0
  2  1  1  6
  3  2  1  0
  4  2  1  0
  5  4  1  0
  5  6  1  1
  7  8  2  0
  7  5  1  0
  9 10  1  0
 10 11  1  0
 11 13  1  0
 11 12  1  6
 13 14  1  1
 14  7  1  0
 15 13  1  0
 15 25  1  0
 16 15  2  0
 18 17  1  0
 18 20  1  0
 19 18  2  0
 21 20  1  0
 22 21  1  0
 22 23  1  0
 24 23  1  1
 24 25  1  0
 24 26  1  0
 26 28  2  0
 26 27  1  0
M  END
$$$$
