LIR.pdb
     RDKit          3D

 28 27  0  0  1  0  0  0  0  0999 V2000
   19.8764  -18.0239  -13.0959 C   0  0  0  0  0  0  0  0  0  0  0  0
   20.2972  -17.9814  -14.5590 C   0  0  2  0  0  0  0  0  0  0  0  0
   21.6865  -17.3543  -14.5747 C   0  0  0  0  0  0  0  0  0  0  0  0
   19.3955  -17.0564  -15.3070 C   0  0  0  0  0  0  0  0  0  0  0  0
   17.9559  -17.4959  -15.3592 C   0  0  2  0  0  0  0  0  0  0  0  0
   17.7700  -18.7299  -16.0791 N   0  0  0  0  0  0  0  0  0  0  0  0
   17.2269  -16.3666  -15.9981 C   0  0  0  0  0  0  0  0  0  0  0  0
   17.2249  -16.2921  -17.2538 O   0  0  0  0  0  0  0  0  0  0  0  0
   12.2859  -15.6144  -15.2497 C   0  0  0  0  0  0  0  0  0  0  0  0
   13.4920  -15.2746  -16.0578 C   0  0  0  0  0  0  0  0  0  0  0  0
   14.3525  -14.2104  -15.4206 C   0  0  2  0  0  0  0  0  0  0  0  0
   13.8699  -12.8180  -15.6882 C   0  0  0  0  0  0  0  0  0  0  0  0
   15.7881  -14.2894  -15.8810 C   0  0  2  0  0  0  0  0  0  0  0  0
   16.5281  -15.3603  -15.2744 N   0  0  0  0  0  0  0  0  0  0  0  0
   16.4027  -12.9557  -15.6934 C   0  0  0  0  0  0  0  0  0  0  0  0
   16.7202  -12.6659  -14.4977 O   0  0  0  0  0  0  0  0  0  0  0  0
   19.7562   -6.5784  -21.2447 N   0  0  0  0  0  0  0  0  0  0  0  0
   19.6961   -6.1072  -19.8788 C   0  0  0  0  0  0  0  0  0  0  0  0
   20.0730   -4.9010  -19.6341 N   0  0  0  0  0  0  0  0  0  0  0  0
   19.2406   -6.9234  -18.8367 N   0  0  0  0  0  0  0  0  0  0  0  0
   18.8008   -8.3038  -19.1696 C   0  0  0  0  0  0  0  0  0  0  0  0
   18.3422   -8.8851  -17.8966 C   0  0  0  0  0  0  0  0  0  0  0  0
   17.7368  -10.2028  -17.7747 C   0  0  0  0  0  0  0  0  0  0  0  0
   17.2932  -10.7008  -16.4706 C   0  0  2  0  0  0  0  0  0  0  0  0
   16.6422  -12.0409  -16.7052 N   0  0  0  0  0  0  0  0  0  0  0  0
   16.2546   -9.9832  -15.7366 C   0  0  0  0  0  0  0  0  0  0  0  0
   16.5517   -9.1355  -14.6421 O   0  0  0  0  0  0  0  0  0  0  0  0
   15.0563  -10.0627  -16.0122 O   0  0  0  0  0  0  0  0  0  0  0  0
  2  1  1  1
  3  2  1  0
  4  2  1  0
  5  4  1  0
  5  6  1  6
  7  8  2  0
  7  5  1  0
  9 10  1  0
 10 11  1  0
 11 13  1  0
 11 12  1  6
 13 14  1  1
 14  7  1  0
 15 13  1  0
 15 25  1  0
 16 15  2  0
 18 17  1  0
 18 20  1  0
 19 18  2  0
 21 20  1  0
 22 21  1  0
 22 23  1  0
 24 23  1  6
 24 25  1  0
 24 26  1  0
 26 28  2  0
 26 27  1  0
M  END
$$$$
