LIR.pdb
     RDKit          3D

 28 27  0  0  1  0  0  0  0  0999 V2000
   28.6519  -16.8795  -14.8271 C   0  0  0  0  0  0  0  0  0  0  0  0
   28.1141  -17.7372  -15.9649 C   0  0  2  0  0  0  0  0  0  0  0  0
   27.1544  -16.8437  -16.7423 C   0  0  0  0  0  0  0  0  0  0  0  0
   27.3036  -18.8566  -15.4008 C   0  0  0  0  0  0  0  0  0  0  0  0
   28.0376  -19.7192  -14.4081 C   0  0  2  0  0  0  0  0  0  0  0  0
   29.0345  -20.5593  -15.0215 N   0  0  0  0  0  0  0  0  0  0  0  0
   26.9809  -20.5183  -13.7302 C   0  0  0  0  0  0  0  0  0  0  0  0
   26.5399  -21.5415  -14.3139 O   0  0  0  0  0  0  0  0  0  0  0  0
   26.5603  -20.2615   -8.3133 C   0  0  0  0  0  0  0  0  0  0  0  0
   26.3922  -21.0228   -9.5842 C   0  0  0  0  0  0  0  0  0  0  0  0
   25.1779  -20.5981  -10.3741 C   0  0  2  0  0  0  0  0  0  0  0  0
   23.9124  -21.2557   -9.9164 C   0  0  0  0  0  0  0  0  0  0  0  0
   25.3304  -20.8842  -11.8485 C   0  0  2  0  0  0  0  0  0  0  0  0
   26.4347  -20.1961  -12.4563 N   0  0  0  0  0  0  0  0  0  0  0  0
   24.0285  -20.6215  -12.5025 C   0  0  0  0  0  0  0  0  0  0  0  0
   23.6893  -19.3988  -12.5687 O   0  0  0  0  0  0  0  0  0  0  0  0
   18.0402  -24.8772  -16.0093 N   0  0  0  0  0  0  0  0  0  0  0  0
   17.9088  -23.7316  -16.8819 C   0  0  0  0  0  0  0  0  0  0  0  0
   16.7307  -23.4067  -17.2863 N   0  0  0  0  0  0  0  0  0  0  0  0
   19.0193  -22.9809  -17.2856 N   0  0  0  0  0  0  0  0  0  0  0  0
   20.3445  -23.3244  -16.7063 C   0  0  0  0  0  0  0  0  0  0  0  0
   20.5837  -22.3201  -15.6562 C   0  0  0  0  0  0  0  0  0  0  0  0
   21.7914  -22.2608  -14.8464 C   0  0  0  0  0  0  0  0  0  0  0  0
   21.9204  -21.2728  -13.7728 C   0  0  2  0  0  0  0  0  0  0  0  0
   23.1909  -21.5926  -13.0256 N   0  0  0  0  0  0  0  0  0  0  0  0
   20.9347  -21.2408  -12.6958 C   0  0  0  0  0  0  0  0  0  0  0  0
   19.8170  -20.3721  -12.7204 O   0  0  0  0  0  0  0  0  0  0  0  0
   21.0034  -21.9590  -11.6969 O   0  0  0  0  0  0  0  0  0  0  0  0
  2  1  1  1
  3  2  1  0
  4  2  1  0
  5  4  1  0
  5  6  1  6
  7  8  2  0
  7  5  1  0
  9 10  1  0
 10 11  1  0
 11 13  1  0
 11 12  1  1
 13 14  1  6
 14  7  1  0
 15 13  1  0
 15 25  1  0
 16 15  2  0
 18 17  1  0
 18 20  1  0
 19 18  2  0
 21 20  1  0
 22 21  1  0
 22 23  1  0
 24 23  1  6
 24 25  1  0
 24 26  1  0
 26 28  2  0
 26 27  1  0
M  END
$$$$
