CGS.pdb
     RDKit          3D

 17 16  0  0  1  0  0  0  0  0999 V2000
    5.2649  -14.2917   25.9075 N   0  0  0  0  0  0  0  0  0  0  0  0
    6.4069  -13.7157   25.2572 C   0  0  1  0  0  0  0  0  0  0  0  0
    7.0198  -12.5922   26.0856 C   0  0  0  0  0  0  0  0  0  0  0  0
    5.7251  -11.3856   26.4804 S   0  0  0  0  0  0  0  0  0  0  0  0
    7.4731  -14.7560   25.0331 C   0  0  0  0  0  0  0  0  0  0  0  0
    7.5684  -15.7756   25.7650 O   0  0  0  0  0  0  0  0  0  0  0  0
    8.4165  -14.6213   23.9785 N   0  0  0  0  0  0  0  0  0  0  0  0
    9.3040  -15.6754   23.5687 C   0  0  0  0  0  0  0  0  0  0  0  0
   10.3740  -15.8048   24.6196 C   0  0  0  0  0  0  0  0  0  0  0  0
   11.4199  -16.4592   24.4125 O   0  0  0  0  0  0  0  0  0  0  0  0
    9.4666  -14.6405   28.4327 O   0  0  0  0  0  0  0  0  0  0  0  0
   10.7996  -14.3779   28.0612 C   0  0  0  0  0  0  0  0  0  0  0  0
   11.2067  -15.3634   26.9610 C   0  0  2  0  0  0  0  0  0  0  0  0
   10.2383  -15.1857   25.8952 N   0  0  0  0  0  0  0  0  0  0  0  0
   11.1786  -16.7090   27.5326 C   0  0  0  0  0  0  0  0  0  0  0  0
   10.2984  -17.5260   27.1816 O   0  0  0  0  0  0  0  0  0  0  0  0
   12.1134  -17.1139   28.4675 O   0  0  0  0  0  0  0  0  0  0  0  0
  2  1  1  1
  2  3  1  0
  3  4  1  0
  5  6  2  0
  5  2  1  0
  7  5  1  0
  8  9  1  0
  8  7  1  0
  9 10  2  0
 11 12  1  0
 13 12  1  1
 14  9  1  0
 14 13  1  0
 15 13  1  0
 15 17  1  0
 16 15  2  0
M  END
$$$$
