CGS.pdb
     RDKit          3D

 17 16  0  0  1  0  0  0  0  0999 V2000
    6.9394  -15.2165   19.3724 N   0  0  0  0  0  0  0  0  0  0  0  0
    8.1378  -14.4275   19.3717 C   0  0  1  0  0  0  0  0  0  0  0  0
    7.8781  -13.0090   18.8770 C   0  0  0  0  0  0  0  0  0  0  0  0
    7.2448  -13.0899   17.1799 S   0  0  0  0  0  0  0  0  0  0  0  0
    8.7132  -14.3319   20.7606 C   0  0  0  0  0  0  0  0  0  0  0  0
    9.8704  -13.8829   20.9690 O   0  0  0  0  0  0  0  0  0  0  0  0
    7.9630  -14.7490   21.8936 N   0  0  0  0  0  0  0  0  0  0  0  0
    8.5094  -14.8297   23.2208 C   0  0  0  0  0  0  0  0  0  0  0  0
    9.3204  -16.0953   23.3038 C   0  0  0  0  0  0  0  0  0  0  0  0
    8.9531  -17.1471   22.7347 O   0  0  0  0  0  0  0  0  0  0  0  0
   13.1386  -15.8619   24.3229 O   0  0  0  0  0  0  0  0  0  0  0  0
   12.7125  -17.0753   23.7486 C   0  0  0  0  0  0  0  0  0  0  0  0
   11.2891  -17.3743   24.2303 C   0  0  2  0  0  0  0  0  0  0  0  0
   10.5414  -16.1462   24.0354 N   0  0  0  0  0  0  0  0  0  0  0  0
   11.3665  -17.7728   25.6350 C   0  0  0  0  0  0  0  0  0  0  0  0
   10.7690  -17.1112   26.5130 O   0  0  0  0  0  0  0  0  0  0  0  0
   12.0940  -18.8801   26.0304 O   0  0  0  0  0  0  0  0  0  0  0  0
  2  1  1  1
  2  3  1  0
  3  4  1  0
  5  6  2  0
  5  2  1  0
  7  5  1  0
  8  9  1  0
  8  7  1  0
  9 10  2  0
 11 12  1  0
 13 12  1  1
 14  9  1  0
 14 13  1  0
 15 13  1  0
 15 17  1  0
 16 15  2  0
M  END
$$$$
