CGS.pdb
     RDKit          3D

 17 16  0  0  1  0  0  0  0  0999 V2000
    7.9220  -14.8631   17.4635 N   0  0  0  0  0  0  0  0  0  0  0  0
    8.5023  -14.4007   18.6915 C   0  0  1  0  0  0  0  0  0  0  0  0
    7.8503  -13.1089   19.1715 C   0  0  0  0  0  0  0  0  0  0  0  0
    8.5716  -11.7176   18.2594 S   0  0  0  0  0  0  0  0  0  0  0  0
    8.3382  -15.4302   19.7789 C   0  0  0  0  0  0  0  0  0  0  0  0
    7.2033  -15.8365   20.1410 O   0  0  0  0  0  0  0  0  0  0  0  0
    9.4688  -15.9833   20.4394 N   0  0  0  0  0  0  0  0  0  0  0  0
    9.3761  -16.9848   21.4666 C   0  0  0  0  0  0  0  0  0  0  0  0
    9.8061  -16.3501   22.7621 C   0  0  0  0  0  0  0  0  0  0  0  0
   10.6810  -15.4565   22.7951 O   0  0  0  0  0  0  0  0  0  0  0  0
    7.6191  -15.1145   25.2625 O   0  0  0  0  0  0  0  0  0  0  0  0
    8.4717  -15.8753   26.0858 C   0  0  0  0  0  0  0  0  0  0  0  0
    9.7197  -16.2561   25.2828 C   0  0  2  0  0  0  0  0  0  0  0  0
    9.2328  -16.7426   24.0055 N   0  0  0  0  0  0  0  0  0  0  0  0
   10.4437  -17.2773   26.0385 C   0  0  0  0  0  0  0  0  0  0  0  0
   10.6008  -18.4233   25.5614 O   0  0  0  0  0  0  0  0  0  0  0  0
   10.9702  -17.0100   27.2887 O   0  0  0  0  0  0  0  0  0  0  0  0
  2  1  1  6
  2  3  1  0
  3  4  1  0
  5  6  2  0
  5  2  1  0
  7  5  1  0
  8  9  1  0
  8  7  1  0
  9 10  2  0
 11 12  1  0
 13 12  1  1
 14  9  1  0
 14 13  1  0
 15 13  1  0
 15 17  1  0
 16 15  2  0
M  END
$$$$
