CGS.pdb
     RDKit          3D

 17 16  0  0  1  0  0  0  0  0999 V2000
   -2.0623  -24.8971   25.7996 N   0  0  0  0  0  0  0  0  0  0  0  0
   -2.8248  -23.6823   25.7607 C   0  0  1  0  0  0  0  0  0  0  0  0
   -2.6426  -22.9449   24.4389 C   0  0  0  0  0  0  0  0  0  0  0  0
   -3.4127  -21.3087   24.5728 S   0  0  0  0  0  0  0  0  0  0  0  0
   -4.2940  -23.9701   25.9279 C   0  0  0  0  0  0  0  0  0  0  0  0
   -4.9839  -24.4585   24.9953 O   0  0  0  0  0  0  0  0  0  0  0  0
   -4.9578  -23.6980   27.1549 N   0  0  0  0  0  0  0  0  0  0  0  0
   -6.3830  -23.7849   27.3220 C   0  0  0  0  0  0  0  0  0  0  0  0
   -6.6899  -23.5082   28.7696 C   0  0  0  0  0  0  0  0  0  0  0  0
   -5.8882  -22.8871   29.5021 O   0  0  0  0  0  0  0  0  0  0  0  0
   -8.1846  -21.5692   29.5982 O   0  0  0  0  0  0  0  0  0  0  0  0
   -8.6140  -22.1773   30.7938 C   0  0  0  0  0  0  0  0  0  0  0  0
   -8.2503  -23.6649   30.7472 C   0  0  2  0  0  0  0  0  0  0  0  0
   -7.9084  -23.9436   29.3649 N   0  0  0  0  0  0  0  0  0  0  0  0
   -9.4123  -24.4243   31.2069 C   0  0  0  0  0  0  0  0  0  0  0  0
  -10.0142  -25.1929   30.4244 O   0  0  0  0  0  0  0  0  0  0  0  0
   -9.8751  -24.3167   32.5053 O   0  0  0  0  0  0  0  0  0  0  0  0
  2  1  1  6
  2  3  1  0
  3  4  1  0
  5  6  2  0
  5  2  1  0
  7  5  1  0
  8  9  1  0
  8  7  1  0
  9 10  2  0
 11 12  1  0
 13 12  1  6
 14  9  1  0
 14 13  1  0
 15 13  1  0
 15 17  1  0
 16 15  2  0
M  END
$$$$
