CGS.pdb
     RDKit          3D

 17 16  0  0  1  0  0  0  0  0999 V2000
    7.6480  -12.2521   25.1644 N   0  0  0  0  0  0  0  0  0  0  0  0
    7.0093  -13.2547   25.9679 C   0  0  1  0  0  0  0  0  0  0  0  0
    5.6788  -12.7646   26.5279 C   0  0  0  0  0  0  0  0  0  0  0  0
    5.9879  -11.3334   27.5975 S   0  0  0  0  0  0  0  0  0  0  0  0
    6.7379  -14.4943   25.1562 C   0  0  0  0  0  0  0  0  0  0  0  0
    6.4530  -14.4354   23.9316 O   0  0  0  0  0  0  0  0  0  0  0  0
    6.7945  -15.7845   25.7499 N   0  0  0  0  0  0  0  0  0  0  0  0
    6.4965  -16.9984   25.0396 C   0  0  0  0  0  0  0  0  0  0  0  0
    7.7705  -17.4725   24.3929 C   0  0  0  0  0  0  0  0  0  0  0  0
    7.8355  -18.5742   23.8038 O   0  0  0  0  0  0  0  0  0  0  0  0
   11.9485  -16.1992   22.4459 O   0  0  0  0  0  0  0  0  0  0  0  0
   10.7482  -15.8564   23.0982 C   0  0  0  0  0  0  0  0  0  0  0  0
   10.1951  -17.1025   23.7972 C   0  0  2  0  0  0  0  0  0  0  0  0
    8.9561  -16.6839   24.4259 N   0  0  0  0  0  0  0  0  0  0  0  0
   11.1952  -17.5548   24.7632 C   0  0  0  0  0  0  0  0  0  0  0  0
   10.9641  -17.4853   25.9909 O   0  0  0  0  0  0  0  0  0  0  0  0
   12.4123  -18.0669   24.3534 O   0  0  0  0  0  0  0  0  0  0  0  0
  2  1  1  6
  2  3  1  0
  3  4  1  0
  5  6  2  0
  5  2  1  0
  7  5  1  0
  8  9  1  0
  8  7  1  0
  9 10  2  0
 11 12  1  0
 13 12  1  1
 14  9  1  0
 14 13  1  0
 15 13  1  0
 15 17  1  0
 16 15  2  0
M  END
$$$$
