CGS.pdb
     RDKit          3D

 17 16  0  0  1  0  0  0  0  0999 V2000
    6.9850  -12.0805   24.6531 N   0  0  0  0  0  0  0  0  0  0  0  0
    7.5266  -13.1964   25.3743 C   0  0  1  0  0  0  0  0  0  0  0  0
    6.7147  -13.5050   26.6272 C   0  0  0  0  0  0  0  0  0  0  0  0
    6.9469  -12.1584   27.8191 S   0  0  0  0  0  0  0  0  0  0  0  0
    7.5335  -14.4333   24.5146 C   0  0  0  0  0  0  0  0  0  0  0  0
    6.5121  -14.8050   23.8800 O   0  0  0  0  0  0  0  0  0  0  0  0
    8.7037  -15.2305   24.3891 N   0  0  0  0  0  0  0  0  0  0  0  0
    8.8491  -16.2780   23.4154 C   0  0  0  0  0  0  0  0  0  0  0  0
   10.2498  -16.8172   23.5318 C   0  0  0  0  0  0  0  0  0  0  0  0
   10.6160  -17.8317   22.8979 O   0  0  0  0  0  0  0  0  0  0  0  0
   12.5780  -14.7310   25.8756 O   0  0  0  0  0  0  0  0  0  0  0  0
   13.3930  -15.6060   25.1316 C   0  0  0  0  0  0  0  0  0  0  0  0
   12.5298  -16.7606   24.6129 C   0  0  2  0  0  0  0  0  0  0  0  0
   11.2168  -16.1925   24.3704 N   0  0  0  0  0  0  0  0  0  0  0  0
   12.5146  -17.8035   25.6377 C   0  0  0  0  0  0  0  0  0  0  0  0
   11.4542  -18.0803   26.2414 O   0  0  0  0  0  0  0  0  0  0  0  0
   13.6588  -18.5068   25.9664 O   0  0  0  0  0  0  0  0  0  0  0  0
  2  1  1  6
  2  3  1  0
  3  4  1  0
  5  6  2  0
  5  2  1  0
  7  5  1  0
  8  9  1  0
  8  7  1  0
  9 10  2  0
 11 12  1  0
 13 12  1  1
 14  9  1  0
 14 13  1  0
 15 13  1  0
 15 17  1  0
 16 15  2  0
M  END
$$$$
