CGS.pdb
     RDKit          3D

 17 16  0  0  1  0  0  0  0  0999 V2000
    5.8676  -19.6242   18.6727 N   0  0  0  0  0  0  0  0  0  0  0  0
    6.1674  -20.3806   19.8545 C   0  0  1  0  0  0  0  0  0  0  0  0
    7.5835  -20.9441   19.8187 C   0  0  0  0  0  0  0  0  0  0  0  0
    7.5741  -22.4849   18.8628 S   0  0  0  0  0  0  0  0  0  0  0  0
    6.0467  -19.5181   21.0836 C   0  0  0  0  0  0  0  0  0  0  0  0
    6.3751  -18.3031   21.0754 O   0  0  0  0  0  0  0  0  0  0  0  0
    5.5536  -20.0508   22.3057 N   0  0  0  0  0  0  0  0  0  0  0  0
    5.3172  -19.2555   23.4796 C   0  0  0  0  0  0  0  0  0  0  0  0
    6.6544  -18.9486   24.0992 C   0  0  0  0  0  0  0  0  0  0  0  0
    7.6330  -19.7153   23.9586 O   0  0  0  0  0  0  0  0  0  0  0  0
    6.6636  -15.8839   26.5473 O   0  0  0  0  0  0  0  0  0  0  0  0
    7.9753  -16.0348   26.0569 C   0  0  0  0  0  0  0  0  0  0  0  0
    8.1307  -17.4520   25.4960 C   0  0  2  0  0  0  0  0  0  0  0  0
    6.8598  -17.7701   24.8722 N   0  0  0  0  0  0  0  0  0  0  0  0
    8.4524  -18.3418   26.6108 C   0  0  0  0  0  0  0  0  0  0  0  0
    9.5254  -18.2041   27.2395 O   0  0  0  0  0  0  0  0  0  0  0  0
    7.5900  -19.3504   26.9991 O   0  0  0  0  0  0  0  0  0  0  0  0
  2  1  1  6
  2  3  1  0
  3  4  1  0
  5  6  2  0
  5  2  1  0
  7  5  1  0
  8  9  1  0
  8  7  1  0
  9 10  2  0
 11 12  1  0
 13 12  1  1
 14  9  1  0
 14 13  1  0
 15 13  1  0
 15 17  1  0
 16 15  2  0
M  END
$$$$
