CGS.pdb
     RDKit          3D

 17 16  0  0  1  0  0  0  0  0999 V2000
    6.4194  -13.1735   24.2171 N   0  0  0  0  0  0  0  0  0  0  0  0
    7.2588  -13.4149   25.3555 C   0  0  1  0  0  0  0  0  0  0  0  0
    6.5609  -13.0434   26.6590 C   0  0  0  0  0  0  0  0  0  0  0  0
    6.0849  -11.2951   26.5880 S   0  0  0  0  0  0  0  0  0  0  0  0
    7.6403  -14.8699   25.4367 C   0  0  0  0  0  0  0  0  0  0  0  0
    7.1360  -15.7311   24.6697 O   0  0  0  0  0  0  0  0  0  0  0  0
    8.5912  -15.3248   26.3903 N   0  0  0  0  0  0  0  0  0  0  0  0
   10.0127  -15.2064   26.2118 C   0  0  0  0  0  0  0  0  0  0  0  0
   10.4442  -16.2892   25.2592 C   0  0  0  0  0  0  0  0  0  0  0  0
   10.4275  -17.4960   25.5883 O   0  0  0  0  0  0  0  0  0  0  0  0
   11.4448  -15.2513   21.4272 O   0  0  0  0  0  0  0  0  0  0  0  0
   11.2354  -16.6216   21.6764 C   0  0  0  0  0  0  0  0  0  0  0  0
   11.6323  -16.9244   23.1249 C   0  0  2  0  0  0  0  0  0  0  0  0
   10.8899  -15.9825   23.9417 N   0  0  0  0  0  0  0  0  0  0  0  0
   13.0800  -16.7526   23.2375 C   0  0  0  0  0  0  0  0  0  0  0  0
   13.5544  -15.8503   23.9630 O   0  0  0  0  0  0  0  0  0  0  0  0
   13.9579  -17.5728   22.5532 O   0  0  0  0  0  0  0  0  0  0  0  0
  2  1  1  6
  2  3  1  0
  3  4  1  0
  5  6  2  0
  5  2  1  0
  7  5  1  0
  8  9  1  0
  8  7  1  0
  9 10  2  0
 11 12  1  0
 13 12  1  6
 14  9  1  0
 14 13  1  0
 15 13  1  0
 15 17  1  0
 16 15  2  0
M  END
$$$$
