CGS.pdb
     RDKit          3D

 17 16  0  0  1  0  0  0  0  0999 V2000
    7.0447  -17.4544   21.1328 N   0  0  0  0  0  0  0  0  0  0  0  0
    7.4642  -16.7318   19.9664 C   0  0  1  0  0  0  0  0  0  0  0  0
    6.6346  -15.4700   19.7567 C   0  0  0  0  0  0  0  0  0  0  0  0
    6.7424  -14.4464   21.2495 S   0  0  0  0  0  0  0  0  0  0  0  0
    8.9077  -16.3183   20.0867 C   0  0  0  0  0  0  0  0  0  0  0  0
    9.6142  -16.0756   19.0737 O   0  0  0  0  0  0  0  0  0  0  0  0
    9.5274  -16.1867   21.3591 N   0  0  0  0  0  0  0  0  0  0  0  0
   10.8829  -15.7428   21.5392 C   0  0  0  0  0  0  0  0  0  0  0  0
   11.1832  -15.7820   23.0138 C   0  0  0  0  0  0  0  0  0  0  0  0
   12.3386  -15.5872   23.4523 O   0  0  0  0  0  0  0  0  0  0  0  0
    8.0437  -16.3038   25.4309 O   0  0  0  0  0  0  0  0  0  0  0  0
    9.1436  -15.7311   26.0986 C   0  0  0  0  0  0  0  0  0  0  0  0
   10.4304  -16.1687   25.3916 C   0  0  2  0  0  0  0  0  0  0  0  0
   10.1616  -16.0429   23.9713 N   0  0  0  0  0  0  0  0  0  0  0  0
   10.7161  -17.5453   25.7937 C   0  0  0  0  0  0  0  0  0  0  0  0
   10.5411  -18.4874   24.9892 O   0  0  0  0  0  0  0  0  0  0  0  0
   11.1830  -17.8433   27.0605 O   0  0  0  0  0  0  0  0  0  0  0  0
  2  1  1  1
  2  3  1  0
  3  4  1  0
  5  6  2  0
  5  2  1  0
  7  5  1  0
  8  9  1  0
  8  7  1  0
  9 10  2  0
 11 12  1  0
 13 12  1  1
 14  9  1  0
 14 13  1  0
 15 13  1  0
 15 17  1  0
 16 15  2  0
M  END
$$$$
