CGS.pdb
     RDKit          3D

 17 16  0  0  1  0  0  0  0  0999 V2000
    2.7321  -19.1637   20.3464 N   0  0  0  0  0  0  0  0  0  0  0  0
    3.2044  -18.5762   21.5673 C   0  0  1  0  0  0  0  0  0  0  0  0
    3.4156  -19.6256   22.6528 C   0  0  0  0  0  0  0  0  0  0  0  0
    1.8422  -20.4735   22.9583 S   0  0  0  0  0  0  0  0  0  0  0  0
    4.5179  -17.8724   21.3463 C   0  0  0  0  0  0  0  0  0  0  0  0
    5.1644  -17.9974   20.2737 O   0  0  0  0  0  0  0  0  0  0  0  0
    5.0775  -17.0358   22.3500 N   0  0  0  0  0  0  0  0  0  0  0  0
    6.2626  -16.2460   22.1542 C   0  0  0  0  0  0  0  0  0  0  0  0
    7.4475  -17.1095   22.4957 C   0  0  0  0  0  0  0  0  0  0  0  0
    7.4282  -18.3479   22.3190 O   0  0  0  0  0  0  0  0  0  0  0  0
   11.0210  -16.3520   21.5923 O   0  0  0  0  0  0  0  0  0  0  0  0
   11.0193  -16.5190   22.9908 C   0  0  0  0  0  0  0  0  0  0  0  0
    9.7969  -17.3544   23.3848 C   0  0  2  0  0  0  0  0  0  0  0  0
    8.6410  -16.5500   23.0352 N   0  0  0  0  0  0  0  0  0  0  0  0
    9.8842  -17.6264   24.8189 C   0  0  0  0  0  0  0  0  0  0  0  0
    9.1531  -17.0084   25.6245 O   0  0  0  0  0  0  0  0  0  0  0  0
   10.7672  -18.5641   25.3216 O   0  0  0  0  0  0  0  0  0  0  0  0
  2  1  1  6
  2  3  1  0
  3  4  1  0
  5  6  2  0
  5  2  1  0
  7  5  1  0
  8  9  1  0
  8  7  1  0
  9 10  2  0
 11 12  1  0
 13 12  1  1
 14  9  1  0
 14 13  1  0
 15 13  1  0
 15 17  1  0
 16 15  2  0
M  END
$$$$
