FKR.pdb
     RDKit          3D

 32 32  0  0  1  0  0  0  0  0999 V2000
    5.7457  -17.5698   25.8036 N   0  0  0  0  0  0  0  0  0  0  0  0
    6.2138  -16.2909   25.4393 C   0  0  1  0  0  0  0  0  0  0  0  0
    6.9947  -15.6286   26.5398 C   0  0  0  0  0  0  0  0  0  0  0  0
    6.7336  -14.2153   26.7556 C   0  0  0  0  0  0  0  0  0  0  0  0
    7.7840  -13.3121   26.6136 C   0  0  0  0  0  0  0  0  0  0  0  0
    7.4744  -11.9707   26.7865 C   0  0  0  0  0  0  0  0  0  0  0  0
    6.2005  -11.5713   27.0798 C   0  0  0  0  0  0  0  0  0  0  0  0
    5.1548  -12.4513   27.2233 C   0  0  0  0  0  0  0  0  0  0  0  0
    5.4462  -13.7933   27.0543 C   0  0  0  0  0  0  0  0  0  0  0  0
    7.0204  -16.1723   24.2268 C   0  0  0  0  0  0  0  0  0  0  0  0
    7.7864  -17.1518   23.9279 O   0  0  0  0  0  0  0  0  0  0  0  0
    6.9829  -15.0179   23.3836 N   0  0  0  0  0  0  0  0  0  0  0  0
    7.7338  -15.1097   22.1666 C   0  0  1  0  0  0  0  0  0  0  0  0
    7.4035  -13.9469   21.2144 C   0  0  0  0  0  0  0  0  0  0  0  0
    8.1160  -14.2257   19.9241 C   0  0  0  0  0  0  0  0  0  0  0  0
    7.8865  -13.2726   18.8073 C   0  0  0  0  0  0  0  0  0  0  0  0
    8.4234  -13.7148   17.4865 C   0  0  0  0  0  0  0  0  0  0  0  0
    8.3625  -12.7232   16.4422 N   0  0  0  0  0  0  0  0  0  0  0  0
    9.2009  -15.0663   22.4668 C   0  0  0  0  0  0  0  0  0  0  0  0
    9.6316  -14.0830   23.1405 O   0  0  0  0  0  0  0  0  0  0  0  0
   13.0191  -19.8139   26.9682 N   0  0  0  0  0  0  0  0  0  0  0  0
   12.7284  -18.6285   27.7117 C   0  0  0  0  0  0  0  0  0  0  0  0
   13.2525  -18.3867   28.8439 N   0  0  0  0  0  0  0  0  0  0  0  0
   11.8214  -17.6878   27.1365 N   0  0  0  0  0  0  0  0  0  0  0  0
   11.0988  -18.0258   25.9211 C   0  0  0  0  0  0  0  0  0  0  0  0
   11.9202  -17.4807   24.7771 C   0  0  0  0  0  0  0  0  0  0  0  0
   11.3409  -17.6704   23.4227 C   0  0  0  0  0  0  0  0  0  0  0  0
   11.3977  -16.3593   22.6339 C   0  0  2  0  0  0  0  0  0  0  0  0
   10.1017  -16.0474   22.0494 N   0  0  0  0  0  0  0  0  0  0  0  0
   12.4160  -16.4639   21.5837 C   0  0  0  0  0  0  0  0  0  0  0  0
   13.7159  -16.0516   21.7481 O   0  0  0  0  0  0  0  0  0  0  0  0
   12.0421  -16.9723   20.4655 O   0  0  0  0  0  0  0  0  0  0  0  0
  2  1  1  1
  2 10  1  0
  2  3  1  0
  3  4  1  0
  4  9  2  0
  4  5  1  0
  5  6  2  0
  6  7  1  0
  8  7  2  0
  9  8  1  0
 10 11  2  0
 12 10  1  0
 12 13  1  0
 13 19  1  0
 13 14  1  6
 15 14  1  0
 16 15  1  0
 17 16  1  0
 18 17  1  0
 19 29  1  0
 19 20  2  0
 21 22  1  0
 22 23  2  0
 24 22  1  0
 24 25  1  0
 25 26  1  0
 27 26  1  0
 28 27  1  6
 28 30  1  0
 29 28  1  0
 30 31  1  0
 32 30  2  0
M  END
$$$$
