FKR.pdb
     RDKit          3D

 32 32  0  0  1  0  0  0  0  0999 V2000
    5.4885  -18.4650   19.5725 N   0  0  0  0  0  0  0  0  0  0  0  0
    6.3340  -17.3393   19.6454 C   0  0  1  0  0  0  0  0  0  0  0  0
    6.2919  -16.6738   20.9926 C   0  0  0  0  0  0  0  0  0  0  0  0
    7.0779  -15.4600   21.1375 C   0  0  0  0  0  0  0  0  0  0  0  0
    7.9469  -15.3514   22.2202 C   0  0  0  0  0  0  0  0  0  0  0  0
    8.7071  -14.1929   22.2898 C   0  0  0  0  0  0  0  0  0  0  0  0
    8.5986  -13.2178   21.3380 C   0  0  0  0  0  0  0  0  0  0  0  0
    7.7452  -13.3114   20.2649 C   0  0  0  0  0  0  0  0  0  0  0  0
    6.9793  -14.4607   20.1802 C   0  0  0  0  0  0  0  0  0  0  0  0
    7.7456  -17.5153   19.3119 C   0  0  0  0  0  0  0  0  0  0  0  0
    8.3679  -18.4848   19.8670 O   0  0  0  0  0  0  0  0  0  0  0  0
    8.4388  -16.6533   18.4055 N   0  0  0  0  0  0  0  0  0  0  0  0
    9.7760  -17.0453   18.0713 C   0  0  1  0  0  0  0  0  0  0  0  0
   10.3348  -16.2017   16.9120 C   0  0  0  0  0  0  0  0  0  0  0  0
    9.6595  -16.6802   15.6610 C   0  0  0  0  0  0  0  0  0  0  0  0
    9.9689  -15.9485   14.4052 C   0  0  0  0  0  0  0  0  0  0  0  0
    9.2668  -16.4619   13.1921 C   0  0  0  0  0  0  0  0  0  0  0  0
    9.5106  -15.7126   11.9852 N   0  0  0  0  0  0  0  0  0  0  0  0
   10.6732  -16.8635   19.2571 C   0  0  0  0  0  0  0  0  0  0  0  0
   10.6080  -15.7598   19.8766 O   0  0  0  0  0  0  0  0  0  0  0  0
   11.9403  -22.7691   25.7042 N   0  0  0  0  0  0  0  0  0  0  0  0
   11.4637  -21.5646   25.1005 C   0  0  0  0  0  0  0  0  0  0  0  0
   10.2286  -21.3443   24.8982 N   0  0  0  0  0  0  0  0  0  0  0  0
   12.4282  -20.5794   24.7292 N   0  0  0  0  0  0  0  0  0  0  0  0
   13.0163  -20.6039   23.3999 C   0  0  0  0  0  0  0  0  0  0  0  0
   12.7753  -19.2360   22.8071 C   0  0  0  0  0  0  0  0  0  0  0  0
   12.8720  -19.1510   21.3276 C   0  0  0  0  0  0  0  0  0  0  0  0
   12.4606  -17.7559   20.8491 C   0  0  2  0  0  0  0  0  0  0  0  0
   11.5614  -17.8415   19.7079 N   0  0  0  0  0  0  0  0  0  0  0  0
   13.6584  -16.9873   20.4948 C   0  0  0  0  0  0  0  0  0  0  0  0
   14.2986  -16.1412   21.3670 O   0  0  0  0  0  0  0  0  0  0  0  0
   14.1074  -17.1358   19.3010 O   0  0  0  0  0  0  0  0  0  0  0  0
  2  1  1  1
  2 10  1  0
  2  3  1  0
  3  4  1  0
  4  9  2  0
  4  5  1  0
  5  6  2  0
  6  7  1  0
  8  7  2  0
  9  8  1  0
 10 11  2  0
 12 10  1  0
 12 13  1  0
 13 19  1  0
 13 14  1  6
 15 14  1  0
 16 15  1  0
 17 16  1  0
 18 17  1  0
 19 29  1  0
 19 20  2  0
 21 22  1  0
 22 23  2  0
 24 22  1  0
 24 25  1  0
 25 26  1  0
 27 26  1  0
 28 27  1  6
 28 30  1  0
 29 28  1  0
 30 31  1  0
 32 30  2  0
M  END
$$$$
