FKR.pdb
     RDKit          3D

 32 32  0  0  1  0  0  0  0  0999 V2000
    6.5738  -16.1156   26.2149 N   0  0  0  0  0  0  0  0  0  0  0  0
    7.0620  -15.4497   25.0723 C   0  0  1  0  0  0  0  0  0  0  0  0
    7.7415  -14.1517   25.4086 C   0  0  0  0  0  0  0  0  0  0  0  0
    6.8776  -13.0616   25.8299 C   0  0  0  0  0  0  0  0  0  0  0  0
    6.9795  -12.5949   27.1380 C   0  0  0  0  0  0  0  0  0  0  0  0
    6.1651  -11.5244   27.4784 C   0  0  0  0  0  0  0  0  0  0  0  0
    5.3127  -10.9668   26.5669 C   0  0  0  0  0  0  0  0  0  0  0  0
    5.2013  -11.4173   25.2733 C   0  0  0  0  0  0  0  0  0  0  0  0
    6.0065  -12.4847   24.9171 C   0  0  0  0  0  0  0  0  0  0  0  0
    7.9681  -16.1766   24.1861 C   0  0  0  0  0  0  0  0  0  0  0  0
    8.7020  -17.0853   24.7067 O   0  0  0  0  0  0  0  0  0  0  0  0
    8.0600  -15.9068   22.7846 N   0  0  0  0  0  0  0  0  0  0  0  0
    9.1155  -16.5804   22.0877 C   0  0  1  0  0  0  0  0  0  0  0  0
    8.9498  -16.4557   20.5629 C   0  0  0  0  0  0  0  0  0  0  0  0
    8.8624  -14.9906   20.2533 C   0  0  0  0  0  0  0  0  0  0  0  0
    7.8923  -14.5793   19.2054 C   0  0  0  0  0  0  0  0  0  0  0  0
    7.8114  -13.1075   18.9700 C   0  0  0  0  0  0  0  0  0  0  0  0
    8.1977  -12.6806   17.6486 N   0  0  0  0  0  0  0  0  0  0  0  0
   10.4377  -15.9857   22.4648 C   0  0  0  0  0  0  0  0  0  0  0  0
   10.4503  -14.7732   22.8337 O   0  0  0  0  0  0  0  0  0  0  0  0
   10.3132  -20.0393   25.7434 N   0  0  0  0  0  0  0  0  0  0  0  0
   11.4510  -20.7102   26.2891 C   0  0  0  0  0  0  0  0  0  0  0  0
   11.4005  -21.9081   26.7103 N   0  0  0  0  0  0  0  0  0  0  0  0
   12.6843  -19.9929   26.3425 N   0  0  0  0  0  0  0  0  0  0  0  0
   12.6793  -18.5391   26.3419 C   0  0  0  0  0  0  0  0  0  0  0  0
   12.8469  -18.1175   24.9015 C   0  0  0  0  0  0  0  0  0  0  0  0
   12.7279  -16.6603   24.6405 C   0  0  0  0  0  0  0  0  0  0  0  0
   12.8694  -16.3772   23.1424 C   0  0  2  0  0  0  0  0  0  0  0  0
   11.6387  -16.6964   22.4341 N   0  0  0  0  0  0  0  0  0  0  0  0
   13.9847  -17.1599   22.5998 C   0  0  0  0  0  0  0  0  0  0  0  0
   15.2937  -16.9652   22.9676 O   0  0  0  0  0  0  0  0  0  0  0  0
   13.6893  -18.0665   21.7400 O   0  0  0  0  0  0  0  0  0  0  0  0
  2  1  1  1
  2 10  1  0
  2  3  1  0
  3  4  1  0
  4  9  2  0
  4  5  1  0
  5  6  2  0
  6  7  1  0
  8  7  2  0
  9  8  1  0
 10 11  2  0
 12 10  1  0
 12 13  1  0
 13 19  1  0
 13 14  1  6
 15 14  1  0
 16 15  1  0
 17 16  1  0
 18 17  1  0
 19 29  1  0
 19 20  2  0
 21 22  1  0
 22 23  2  0
 24 22  1  0
 24 25  1  0
 25 26  1  0
 27 26  1  0
 28 27  1  1
 28 30  1  0
 29 28  1  0
 30 31  1  0
 32 30  2  0
M  END
$$$$
