FKR.pdb
     RDKit          3D

 32 32  0  0  1  0  0  0  0  0999 V2000
    8.6486  -17.2607   18.8828 N   0  0  0  0  0  0  0  0  0  0  0  0
    8.1337  -16.7221   20.0795 C   0  0  1  0  0  0  0  0  0  0  0  0
    6.9465  -15.8302   19.8456 C   0  0  0  0  0  0  0  0  0  0  0  0
    7.2345  -14.4733   19.4120 C   0  0  0  0  0  0  0  0  0  0  0  0
    6.8642  -14.0896   18.1256 C   0  0  0  0  0  0  0  0  0  0  0  0
    7.1208  -12.7720   17.7747 C   0  0  0  0  0  0  0  0  0  0  0  0
    7.7066  -11.9070   18.6562 C   0  0  0  0  0  0  0  0  0  0  0  0
    8.0776  -12.2720   19.9281 C   0  0  0  0  0  0  0  0  0  0  0  0
    7.8290  -13.5829   20.2944 C   0  0  0  0  0  0  0  0  0  0  0  0
    7.7556  -17.6478   21.1448 C   0  0  0  0  0  0  0  0  0  0  0  0
    7.0272  -17.1931   22.0925 O   0  0  0  0  0  0  0  0  0  0  0  0
    8.1686  -19.0169   21.1616 N   0  0  0  0  0  0  0  0  0  0  0  0
    7.7412  -19.7834   22.2944 C   0  0  1  0  0  0  0  0  0  0  0  0
    8.1903  -21.2508   22.1807 C   0  0  0  0  0  0  0  0  0  0  0  0
    7.7813  -21.9307   23.4537 C   0  0  0  0  0  0  0  0  0  0  0  0
    8.0841  -23.3808   23.5714 C   0  0  0  0  0  0  0  0  0  0  0  0
    7.6922  -23.9987   24.8725 C   0  0  0  0  0  0  0  0  0  0  0  0
    8.1380  -25.3564   25.0599 N   0  0  0  0  0  0  0  0  0  0  0  0
    8.3265  -19.2109   23.5490 C   0  0  0  0  0  0  0  0  0  0  0  0
    9.5880  -19.2329   23.6694 O   0  0  0  0  0  0  0  0  0  0  0  0
    7.5541  -12.1529   28.2736 N   0  0  0  0  0  0  0  0  0  0  0  0
    7.1233  -11.9134   26.9321 C   0  0  0  0  0  0  0  0  0  0  0  0
    6.9029  -10.7448   26.4839 N   0  0  0  0  0  0  0  0  0  0  0  0
    6.9519  -13.0433   26.0764 N   0  0  0  0  0  0  0  0  0  0  0  0
    6.3363  -14.2562   26.5898 C   0  0  0  0  0  0  0  0  0  0  0  0
    7.3420  -15.3623   26.3761 C   0  0  0  0  0  0  0  0  0  0  0  0
    6.8948  -16.4773   25.5029 C   0  0  0  0  0  0  0  0  0  0  0  0
    7.9442  -17.5921   25.4878 C   0  0  2  0  0  0  0  0  0  0  0  0
    7.5581  -18.6577   24.5747 N   0  0  0  0  0  0  0  0  0  0  0  0
    8.1134  -18.1230   26.8444 C   0  0  0  0  0  0  0  0  0  0  0  0
    9.1298  -17.7390   27.6847 O   0  0  0  0  0  0  0  0  0  0  0  0
    7.2502  -18.9885   27.2375 O   0  0  0  0  0  0  0  0  0  0  0  0
  2  1  1  6
  2 10  1  0
  2  3  1  0
  3  4  1  0
  4  9  2  0
  4  5  1  0
  5  6  2  0
  6  7  1  0
  8  7  2  0
  9  8  1  0
 10 11  2  0
 12 10  1  0
 12 13  1  0
 13 19  1  0
 13 14  1  6
 15 14  1  0
 16 15  1  0
 17 16  1  0
 18 17  1  0
 19 29  1  0
 19 20  2  0
 21 22  1  0
 22 23  2  0
 24 22  1  0
 24 25  1  0
 25 26  1  0
 27 26  1  0
 28 27  1  1
 28 30  1  0
 29 28  1  0
 30 31  1  0
 32 30  2  0
M  END
$$$$
