FKR.pdb
     RDKit          3D

 32 32  0  0  1  0  0  0  0  0999 V2000
    7.8121  -16.5691   17.5545 N   0  0  0  0  0  0  0  0  0  0  0  0
    8.8493  -16.8208   18.4755 C   0  0  1  0  0  0  0  0  0  0  0  0
    9.3993  -15.5601   19.0819 C   0  0  0  0  0  0  0  0  0  0  0  0
    8.4525  -14.7228   19.7991 C   0  0  0  0  0  0  0  0  0  0  0  0
    8.1676  -15.0234   21.1287 C   0  0  0  0  0  0  0  0  0  0  0  0
    7.2918  -14.1686   21.7824 C   0  0  0  0  0  0  0  0  0  0  0  0
    6.7453  -13.0915   21.1425 C   0  0  0  0  0  0  0  0  0  0  0  0
    7.0170  -12.7833   19.8311 C   0  0  0  0  0  0  0  0  0  0  0  0
    7.8887  -13.6257   19.1640 C   0  0  0  0  0  0  0  0  0  0  0  0
    8.5793  -17.7329   19.5845 C   0  0  0  0  0  0  0  0  0  0  0  0
    7.4443  -18.3218   19.6031 O   0  0  0  0  0  0  0  0  0  0  0  0
    9.5240  -17.9799   20.6294 N   0  0  0  0  0  0  0  0  0  0  0  0
    9.3197  -19.1809   21.3839 C   0  0  1  0  0  0  0  0  0  0  0  0
    9.2489  -20.4145   20.4668 C   0  0  0  0  0  0  0  0  0  0  0  0
    9.0273  -21.6037   21.3538 C   0  0  0  0  0  0  0  0  0  0  0  0
    8.9412  -22.9317   20.6927 C   0  0  0  0  0  0  0  0  0  0  0  0
    9.3023  -24.0892   21.5633 C   0  0  0  0  0  0  0  0  0  0  0  0
    8.4445  -24.2823   22.7054 N   0  0  0  0  0  0  0  0  0  0  0  0
   10.4503  -19.3780   22.3469 C   0  0  0  0  0  0  0  0  0  0  0  0
   10.5699  -20.5200   22.8831 O   0  0  0  0  0  0  0  0  0  0  0  0
    7.4534  -13.7666   26.8801 N   0  0  0  0  0  0  0  0  0  0  0  0
    8.7423  -13.7465   27.4974 C   0  0  0  0  0  0  0  0  0  0  0  0
    8.9252  -13.3277   28.6831 N   0  0  0  0  0  0  0  0  0  0  0  0
    9.8508  -14.2312   26.7393 N   0  0  0  0  0  0  0  0  0  0  0  0
    9.6450  -14.7283   25.3887 C   0  0  0  0  0  0  0  0  0  0  0  0
   10.0207  -16.1907   25.4161 C   0  0  0  0  0  0  0  0  0  0  0  0
   10.0403  -16.8738   24.0975 C   0  0  0  0  0  0  0  0  0  0  0  0
   11.3905  -17.5613   23.8769 C   0  0  2  0  0  0  0  0  0  0  0  0
   11.3679  -18.3778   22.6722 N   0  0  0  0  0  0  0  0  0  0  0  0
   11.7150  -18.3879   25.0441 C   0  0  0  0  0  0  0  0  0  0  0  0
   12.5829  -17.9922   26.0324 O   0  0  0  0  0  0  0  0  0  0  0  0
   11.1412  -19.5342   25.1171 O   0  0  0  0  0  0  0  0  0  0  0  0
  2  1  1  1
  2 10  1  0
  2  3  1  0
  3  4  1  0
  4  9  2  0
  4  5  1  0
  5  6  2  0
  6  7  1  0
  8  7  2  0
  9  8  1  0
 10 11  2  0
 12 10  1  0
 12 13  1  0
 13 19  1  0
 13 14  1  6
 15 14  1  0
 16 15  1  0
 17 16  1  0
 18 17  1  0
 19 29  1  0
 19 20  2  0
 21 22  1  0
 22 23  2  0
 24 22  1  0
 24 25  1  0
 25 26  1  0
 27 26  1  0
 28 27  1  1
 28 30  1  0
 29 28  1  0
 30 31  1  0
 32 30  2  0
M  END
$$$$
