FKR.pdb
     RDKit          3D

 32 32  0  0  1  0  0  0  0  0999 V2000
    7.7801  -16.0232   25.4458 N   0  0  0  0  0  0  0  0  0  0  0  0
    6.6951  -15.7522   24.5875 C   0  0  1  0  0  0  0  0  0  0  0  0
    6.4474  -14.2791   24.4199 C   0  0  0  0  0  0  0  0  0  0  0  0
    6.6577  -13.4517   25.5960 C   0  0  0  0  0  0  0  0  0  0  0  0
    5.5481  -13.0310   26.3247 C   0  0  0  0  0  0  0  0  0  0  0  0
    5.8036  -12.2806   27.4634 C   0  0  0  0  0  0  0  0  0  0  0  0
    7.0828  -11.9781   27.8384 C   0  0  0  0  0  0  0  0  0  0  0  0
    8.1868  -12.3860   27.1288 C   0  0  0  0  0  0  0  0  0  0  0  0
    7.9498  -13.1354   25.9901 C   0  0  0  0  0  0  0  0  0  0  0  0
    6.7199  -16.3258   23.2439 C   0  0  0  0  0  0  0  0  0  0  0  0
    5.7268  -16.0787   22.4770 O   0  0  0  0  0  0  0  0  0  0  0  0
    7.7961  -17.1402   22.7710 N   0  0  0  0  0  0  0  0  0  0  0  0
    8.8479  -16.4482   22.0868 C   0  0  1  0  0  0  0  0  0  0  0  0
    8.4643  -14.9856   21.8011 C   0  0  0  0  0  0  0  0  0  0  0  0
    8.2656  -14.8697   20.3188 C   0  0  0  0  0  0  0  0  0  0  0  0
    8.7490  -13.6238   19.6689 C   0  0  0  0  0  0  0  0  0  0  0  0
    8.6104  -13.5985   18.1828 C   0  0  0  0  0  0  0  0  0  0  0  0
    9.0009  -12.3605   17.5564 N   0  0  0  0  0  0  0  0  0  0  0  0
   10.0905  -16.4511   22.9237 C   0  0  0  0  0  0  0  0  0  0  0  0
   11.1486  -15.9879   22.4020 O   0  0  0  0  0  0  0  0  0  0  0  0
   14.3745  -19.4068   31.0556 N   0  0  0  0  0  0  0  0  0  0  0  0
   13.1123  -19.1392   30.4408 C   0  0  0  0  0  0  0  0  0  0  0  0
   12.0602  -19.7910   30.7294 N   0  0  0  0  0  0  0  0  0  0  0  0
   13.0510  -18.0873   29.4774 N   0  0  0  0  0  0  0  0  0  0  0  0
   11.7782  -17.7299   28.8726 C   0  0  0  0  0  0  0  0  0  0  0  0
   12.0635  -17.4699   27.4126 C   0  0  0  0  0  0  0  0  0  0  0  0
   10.8764  -17.1842   26.5671 C   0  0  0  0  0  0  0  0  0  0  0  0
   11.2980  -17.0012   25.1065 C   0  0  2  0  0  0  0  0  0  0  0  0
   10.1350  -16.9287   24.2345 N   0  0  0  0  0  0  0  0  0  0  0  0
   12.1650  -18.1137   24.7045 C   0  0  0  0  0  0  0  0  0  0  0  0
   11.7037  -19.2377   24.0640 O   0  0  0  0  0  0  0  0  0  0  0  0
   13.4143  -18.0002   24.9787 O   0  0  0  0  0  0  0  0  0  0  0  0
  2  1  1  6
  2 10  1  0
  2  3  1  0
  3  4  1  0
  4  9  2  0
  4  5  1  0
  5  6  2  0
  6  7  1  0
  8  7  2  0
  9  8  1  0
 10 11  2  0
 12 10  1  0
 12 13  1  0
 13 19  1  0
 13 14  1  1
 15 14  1  0
 16 15  1  0
 17 16  1  0
 18 17  1  0
 19 29  1  0
 19 20  2  0
 21 22  1  0
 22 23  2  0
 24 22  1  0
 24 25  1  0
 25 26  1  0
 27 26  1  0
 28 27  1  1
 28 30  1  0
 29 28  1  0
 30 31  1  0
 32 30  2  0
M  END
$$$$
