FKR.pdb
     RDKit          3D

 32 32  0  0  1  0  0  0  0  0999 V2000
    8.0342  -16.7751   20.4051 N   0  0  0  0  0  0  0  0  0  0  0  0
    8.5807  -16.1810   21.5608 C   0  0  1  0  0  0  0  0  0  0  0  0
    7.9686  -14.8420   21.8643 C   0  0  0  0  0  0  0  0  0  0  0  0
    7.8032  -13.9382   20.7383 C   0  0  0  0  0  0  0  0  0  0  0  0
    6.5428  -13.8157   20.1589 C   0  0  0  0  0  0  0  0  0  0  0  0
    6.4267  -12.9078   19.1162 C   0  0  0  0  0  0  0  0  0  0  0  0
    7.5016  -12.1783   18.6909 C   0  0  0  0  0  0  0  0  0  0  0  0
    8.7508  -12.2894   19.2528 C   0  0  0  0  0  0  0  0  0  0  0  0
    8.8842  -13.1907   20.2942 C   0  0  0  0  0  0  0  0  0  0  0  0
    8.5522  -16.9439   22.8065 C   0  0  0  0  0  0  0  0  0  0  0  0
    9.0374  -16.3884   23.8514 O   0  0  0  0  0  0  0  0  0  0  0  0
    8.0129  -18.2656   22.8912 N   0  0  0  0  0  0  0  0  0  0  0  0
    8.1903  -18.9325   24.1471 C   0  0  1  0  0  0  0  0  0  0  0  0
    7.3855  -20.2428   24.2052 C   0  0  0  0  0  0  0  0  0  0  0  0
    7.7511  -20.9209   25.4923 C   0  0  0  0  0  0  0  0  0  0  0  0
    7.1078  -22.2312   25.7709 C   0  0  0  0  0  0  0  0  0  0  0  0
    7.4525  -22.8291   27.0944 C   0  0  0  0  0  0  0  0  0  0  0  0
    6.7332  -22.2798   28.2161 N   0  0  0  0  0  0  0  0  0  0  0  0
    9.6373  -19.2627   24.3504 C   0  0  0  0  0  0  0  0  0  0  0  0
   10.1746  -20.0673   23.5317 O   0  0  0  0  0  0  0  0  0  0  0  0
   14.1703  -14.7966   21.1285 N   0  0  0  0  0  0  0  0  0  0  0  0
   15.1100  -15.5898   21.8566 C   0  0  0  0  0  0  0  0  0  0  0  0
   16.3664  -15.4624   21.7144 N   0  0  0  0  0  0  0  0  0  0  0  0
   14.5964  -16.5473   22.7828 N   0  0  0  0  0  0  0  0  0  0  0  0
   14.5806  -16.2459   24.2049 C   0  0  0  0  0  0  0  0  0  0  0  0
   13.9009  -17.4156   24.8761 C   0  0  0  0  0  0  0  0  0  0  0  0
   12.4213  -17.4556   24.7535 C   0  0  0  0  0  0  0  0  0  0  0  0
   11.8641  -18.6920   25.4644 C   0  0  2  0  0  0  0  0  0  0  0  0
   10.4115  -18.7290   25.3820 N   0  0  0  0  0  0  0  0  0  0  0  0
   12.2927  -18.6845   26.8670 C   0  0  0  0  0  0  0  0  0  0  0  0
   13.5979  -18.8556   27.2591 O   0  0  0  0  0  0  0  0  0  0  0  0
   11.3773  -18.5055   27.7494 O   0  0  0  0  0  0  0  0  0  0  0  0
  2  1  1  6
  2 10  1  0
  2  3  1  0
  3  4  1  0
  4  9  2  0
  4  5  1  0
  5  6  2  0
  6  7  1  0
  8  7  2  0
  9  8  1  0
 10 11  2  0
 12 10  1  0
 12 13  1  0
 13 19  1  0
 13 14  1  6
 15 14  1  0
 16 15  1  0
 17 16  1  0
 18 17  1  0
 19 29  1  0
 19 20  2  0
 21 22  1  0
 22 23  2  0
 24 22  1  0
 24 25  1  0
 25 26  1  0
 27 26  1  0
 28 27  1  1
 28 30  1  0
 29 28  1  0
 30 31  1  0
 32 30  2  0
M  END
$$$$
