FKR.pdb
     RDKit          3D

 32 32  0  0  1  0  0  0  0  0999 V2000
    8.4123  -14.9007   25.5146 N   0  0  0  0  0  0  0  0  0  0  0  0
    7.5259  -15.2738   24.4839 C   0  0  1  0  0  0  0  0  0  0  0  0
    6.5203  -14.2006   24.1727 C   0  0  0  0  0  0  0  0  0  0  0  0
    6.3909  -13.1344   25.1518 C   0  0  0  0  0  0  0  0  0  0  0  0
    6.6533  -11.8259   24.7540 C   0  0  0  0  0  0  0  0  0  0  0  0
    6.4729  -10.8395   25.7129 C   0  0  0  0  0  0  0  0  0  0  0  0
    6.0585  -11.1506   26.9778 C   0  0  0  0  0  0  0  0  0  0  0  0
    5.7965  -12.4370   27.3842 C   0  0  0  0  0  0  0  0  0  0  0  0
    5.9715  -13.4333   26.4400 C   0  0  0  0  0  0  0  0  0  0  0  0
    8.0942  -15.6951   23.2055 C   0  0  0  0  0  0  0  0  0  0  0  0
    7.3758  -16.4421   22.4563 O   0  0  0  0  0  0  0  0  0  0  0  0
    9.4026  -15.3086   22.7766 N   0  0  0  0  0  0  0  0  0  0  0  0
    9.9860  -16.1176   21.7477 C   0  0  1  0  0  0  0  0  0  0  0  0
   10.2392  -15.3013   20.4681 C   0  0  0  0  0  0  0  0  0  0  0  0
    8.8955  -14.9830   19.8824 C   0  0  0  0  0  0  0  0  0  0  0  0
    8.8796  -14.2754   18.5757 C   0  0  0  0  0  0  0  0  0  0  0  0
    7.5181  -13.9982   18.0302 C   0  0  0  0  0  0  0  0  0  0  0  0
    7.4987  -13.3326   16.7519 N   0  0  0  0  0  0  0  0  0  0  0  0
   11.2965  -16.6727   22.2156 C   0  0  0  0  0  0  0  0  0  0  0  0
   11.9776  -15.9674   23.0186 O   0  0  0  0  0  0  0  0  0  0  0  0
    9.4228  -20.1366   25.6712 N   0  0  0  0  0  0  0  0  0  0  0  0
   10.4054  -20.1071   26.7086 C   0  0  0  0  0  0  0  0  0  0  0  0
   10.1343  -19.7440   27.8959 N   0  0  0  0  0  0  0  0  0  0  0  0
   11.7330  -20.5167   26.3797 N   0  0  0  0  0  0  0  0  0  0  0  0
   12.0497  -20.9313   25.0227 C   0  0  0  0  0  0  0  0  0  0  0  0
   12.4076  -19.6719   24.2699 C   0  0  0  0  0  0  0  0  0  0  0  0
   12.8598  -19.8675   22.8689 C   0  0  0  0  0  0  0  0  0  0  0  0
   13.0676  -18.5133   22.1853 C   0  0  2  0  0  0  0  0  0  0  0  0
   11.7926  -17.9152   21.8176 N   0  0  0  0  0  0  0  0  0  0  0  0
   13.9072  -18.6895   20.9958 C   0  0  0  0  0  0  0  0  0  0  0  0
   15.2609  -18.4573   20.9855 O   0  0  0  0  0  0  0  0  0  0  0  0
   13.3168  -19.0827   19.9255 O   0  0  0  0  0  0  0  0  0  0  0  0
  2  1  1  1
  2 10  1  0
  2  3  1  0
  3  4  1  0
  4  9  2  0
  4  5  1  0
  5  6  2  0
  6  7  1  0
  8  7  2  0
  9  8  1  0
 10 11  2  0
 12 10  1  0
 12 13  1  0
 13 19  1  0
 13 14  1  6
 15 14  1  0
 16 15  1  0
 17 16  1  0
 18 17  1  0
 19 29  1  0
 19 20  2  0
 21 22  1  0
 22 23  2  0
 24 22  1  0
 24 25  1  0
 25 26  1  0
 27 26  1  0
 28 27  1  6
 28 30  1  0
 29 28  1  0
 30 31  1  0
 32 30  2  0
M  END
$$$$
