FKR.pdb
     RDKit          3D

 32 32  0  0  1  0  0  0  0  0999 V2000
    5.5831  -17.6122   24.8063 N   0  0  0  0  0  0  0  0  0  0  0  0
    6.1513  -16.3282   24.6806 C   0  0  1  0  0  0  0  0  0  0  0  0
    6.6443  -15.7857   25.9930 C   0  0  0  0  0  0  0  0  0  0  0  0
    6.7238  -14.3389   26.1040 C   0  0  0  0  0  0  0  0  0  0  0  0
    5.5883  -13.6351   26.4974 C   0  0  0  0  0  0  0  0  0  0  0  0
    5.7272  -12.2611   26.6312 C   0  0  0  0  0  0  0  0  0  0  0  0
    6.9223  -11.6443   26.3869 C   0  0  0  0  0  0  0  0  0  0  0  0
    8.0504  -12.3259   25.9977 C   0  0  0  0  0  0  0  0  0  0  0  0
    7.9293  -13.6973   25.8593 C   0  0  0  0  0  0  0  0  0  0  0  0
    7.2377  -16.1467   23.7206 C   0  0  0  0  0  0  0  0  0  0  0  0
    8.1628  -17.0293   23.7006 O   0  0  0  0  0  0  0  0  0  0  0  0
    7.2986  -15.0344   22.8238 N   0  0  0  0  0  0  0  0  0  0  0  0
    8.4360  -14.9970   21.9529 C   0  0  1  0  0  0  0  0  0  0  0  0
    8.3879  -13.7745   21.0195 C   0  0  0  0  0  0  0  0  0  0  0  0
    7.8910  -14.2614   19.6905 C   0  0  0  0  0  0  0  0  0  0  0  0
    8.2741  -13.4667   18.4947 C   0  0  0  0  0  0  0  0  0  0  0  0
    7.7726  -14.0071   17.1968 C   0  0  0  0  0  0  0  0  0  0  0  0
    8.2590  -13.3237   16.0247 N   0  0  0  0  0  0  0  0  0  0  0  0
    9.6955  -14.9200   22.7603 C   0  0  0  0  0  0  0  0  0  0  0  0
    9.7230  -14.0985   23.7249 O   0  0  0  0  0  0  0  0  0  0  0  0
   11.1951  -20.1362   28.2710 N   0  0  0  0  0  0  0  0  0  0  0  0
   11.3907  -20.7109   26.9772 C   0  0  0  0  0  0  0  0  0  0  0  0
   11.4506  -21.9664   26.7895 N   0  0  0  0  0  0  0  0  0  0  0  0
   11.5087  -19.8230   25.8654 N   0  0  0  0  0  0  0  0  0  0  0  0
   11.4975  -18.3852   26.0802 C   0  0  0  0  0  0  0  0  0  0  0  0
   11.7517  -17.7555   24.7313 C   0  0  0  0  0  0  0  0  0  0  0  0
   11.7644  -16.2706   24.7076 C   0  0  0  0  0  0  0  0  0  0  0  0
   12.0470  -15.7657   23.2900 C   0  0  2  0  0  0  0  0  0  0  0  0
   10.8223  -15.7037   22.5061 N   0  0  0  0  0  0  0  0  0  0  0  0
   13.0206  -16.6499   22.6409 C   0  0  0  0  0  0  0  0  0  0  0  0
   14.3616  -16.6447   22.9383 O   0  0  0  0  0  0  0  0  0  0  0  0
   12.5645  -17.4592   21.7547 O   0  0  0  0  0  0  0  0  0  0  0  0
  2  1  1  1
  2 10  1  0
  2  3  1  0
  3  4  1  0
  4  9  2  0
  4  5  1  0
  5  6  2  0
  6  7  1  0
  8  7  2  0
  9  8  1  0
 10 11  2  0
 12 10  1  0
 12 13  1  0
 13 19  1  0
 13 14  1  6
 15 14  1  0
 16 15  1  0
 17 16  1  0
 18 17  1  0
 19 29  1  0
 19 20  2  0
 21 22  1  0
 22 23  2  0
 24 22  1  0
 24 25  1  0
 25 26  1  0
 27 26  1  0
 28 27  1  1
 28 30  1  0
 29 28  1  0
 30 31  1  0
 32 30  2  0
M  END
$$$$
