FKR.pdb
     RDKit          3D

 32 32  0  0  1  0  0  0  0  0999 V2000
    7.4904  -16.8333   26.7445 N   0  0  0  0  0  0  0  0  0  0  0  0
    6.6665  -16.6510   25.6152 C   0  0  1  0  0  0  0  0  0  0  0  0
    5.7337  -15.4818   25.7657 C   0  0  0  0  0  0  0  0  0  0  0  0
    6.3208  -14.2475   26.2593 C   0  0  0  0  0  0  0  0  0  0  0  0
    5.5531  -13.0859   26.2365 C   0  0  0  0  0  0  0  0  0  0  0  0
    6.1427  -11.9439   26.7592 C   0  0  0  0  0  0  0  0  0  0  0  0
    7.4114  -11.9725   27.2670 C   0  0  0  0  0  0  0  0  0  0  0  0
    8.1805  -13.1111   27.2954 C   0  0  0  0  0  0  0  0  0  0  0  0
    7.6076  -14.2593   26.7779 C   0  0  0  0  0  0  0  0  0  0  0  0
    7.3082  -16.5064   24.3106 C   0  0  0  0  0  0  0  0  0  0  0  0
    7.9846  -17.4988   23.8710 O   0  0  0  0  0  0  0  0  0  0  0  0
    7.2080  -15.3137   23.5280 N   0  0  0  0  0  0  0  0  0  0  0  0
    7.8225  -15.3630   22.2344 C   0  0  1  0  0  0  0  0  0  0  0  0
    7.4672  -14.1219   21.3968 C   0  0  0  0  0  0  0  0  0  0  0  0
    8.0849  -14.3188   20.0441 C   0  0  0  0  0  0  0  0  0  0  0  0
    7.8111  -13.2779   19.0195 C   0  0  0  0  0  0  0  0  0  0  0  0
    8.3023  -13.6046   17.6483 C   0  0  0  0  0  0  0  0  0  0  0  0
    7.9759  -12.6306   16.6372 N   0  0  0  0  0  0  0  0  0  0  0  0
    9.3126  -15.4194   22.3783 C   0  0  0  0  0  0  0  0  0  0  0  0
    9.8938  -14.3980   22.8529 O   0  0  0  0  0  0  0  0  0  0  0  0
   11.6251  -18.1816   29.2609 N   0  0  0  0  0  0  0  0  0  0  0  0
   11.7457  -18.8303   27.9931 C   0  0  0  0  0  0  0  0  0  0  0  0
   11.8211  -20.0935   27.8768 N   0  0  0  0  0  0  0  0  0  0  0  0
   11.7682  -18.0096   26.8251 N   0  0  0  0  0  0  0  0  0  0  0  0
   11.8738  -18.6208   25.5102 C   0  0  0  0  0  0  0  0  0  0  0  0
   11.7557  -17.4945   24.5111 C   0  0  0  0  0  0  0  0  0  0  0  0
   11.8344  -17.8923   23.0824 C   0  0  0  0  0  0  0  0  0  0  0  0
   11.5165  -16.6959   22.1812 C   0  0  2  0  0  0  0  0  0  0  0  0
   10.0790  -16.5308   22.0237 N   0  0  0  0  0  0  0  0  0  0  0  0
   12.1516  -16.8865   20.8731 C   0  0  0  0  0  0  0  0  0  0  0  0
   11.4449  -17.0464   19.7062 O   0  0  0  0  0  0  0  0  0  0  0  0
   13.4353  -16.8986   20.8509 O   0  0  0  0  0  0  0  0  0  0  0  0
  2  1  1  1
  2 10  1  0
  2  3  1  0
  3  4  1  0
  4  9  2  0
  4  5  1  0
  5  6  2  0
  6  7  1  0
  8  7  2  0
  9  8  1  0
 10 11  2  0
 12 10  1  0
 12 13  1  0
 13 19  1  0
 13 14  1  6
 15 14  1  0
 16 15  1  0
 17 16  1  0
 18 17  1  0
 19 29  1  0
 19 20  2  0
 21 22  1  0
 22 23  2  0
 24 22  1  0
 24 25  1  0
 25 26  1  0
 27 26  1  0
 28 27  1  1
 28 30  1  0
 29 28  1  0
 30 31  1  0
 32 30  2  0
M  END
$$$$
