MQF.pdb
     RDKit          3D

 29 29  0  0  1  0  0  0  0  0999 V2000
   19.5298  -10.8660    3.6602 C   0  0  0  0  0  0  0  0  0  0  0  0
   19.3469  -12.3137    4.6519 S   0  0  0  0  0  0  0  0  0  0  0  0
   17.7227  -13.0067    4.7658 C   0  0  0  0  0  0  0  0  0  0  0  0
   17.6327  -14.2887    5.5409 C   0  0  0  0  0  0  0  0  0  0  0  0
   16.2397  -14.8649    5.5588 C   0  0  2  0  0  0  0  0  0  0  0  0
   15.4417  -14.0152    6.4185 N   0  0  0  0  0  0  0  0  0  0  0  0
   16.1704  -16.2435    6.0341 C   0  0  0  0  0  0  0  0  0  0  0  0
   16.2011  -16.4784    7.2669 O   0  0  0  0  0  0  0  0  0  0  0  0
   15.9907  -21.1540    2.1650 N   0  0  0  0  0  0  0  0  0  0  0  0
   16.4538  -21.7949    3.3463 C   0  0  0  0  0  0  0  0  0  0  0  0
   16.6766  -23.0292    3.3006 O   0  0  0  0  0  0  0  0  0  0  0  0
   16.6625  -21.0146    4.5874 C   0  0  0  0  0  0  0  0  0  0  0  0
   16.2453  -19.5784    4.3016 C   0  0  0  0  0  0  0  0  0  0  0  0
   16.3834  -18.7295    5.5725 C   0  0  2  0  0  0  0  0  0  0  0  0
   16.0670  -17.3808    5.1799 N   0  0  0  0  0  0  0  0  0  0  0  0
   17.8226  -18.7929    5.9398 C   0  0  0  0  0  0  0  0  0  0  0  0
   18.6918  -18.1346    5.2766 O   0  0  0  0  0  0  0  0  0  0  0  0
   18.3312  -19.5628    7.0195 N   0  0  0  0  0  0  0  0  0  0  0  0
   19.6550  -19.3058    7.5952 C   0  0  1  0  0  0  0  0  0  0  0  0
   19.8571  -17.8320    7.8211 C   0  0  0  0  0  0  0  0  0  0  0  0
   21.1751  -17.5379    8.4253 C   0  0  0  0  0  0  0  0  0  0  0  0
   22.3433  -17.5857    7.6749 C   0  0  0  0  0  0  0  0  0  0  0  0
   23.5690  -17.3069    8.2210 C   0  0  0  0  0  0  0  0  0  0  0  0
   23.6632  -16.9664    9.5566 C   0  0  0  0  0  0  0  0  0  0  0  0
   22.5363  -16.9103   10.3205 C   0  0  0  0  0  0  0  0  0  0  0  0
   21.3145  -17.1933    9.7553 C   0  0  0  0  0  0  0  0  0  0  0  0
   19.8667  -20.1383    8.7832 C   0  0  0  0  0  0  0  0  0  0  0  0
   18.9690  -20.3946    9.6287 O   0  0  0  0  0  0  0  0  0  0  0  0
   21.1427  -20.6821    8.9921 O   0  0  0  0  0  0  0  0  0  0  0  0
  1  2  1  0
  3  2  1  0
  4  5  1  0
  4  3  1  0
  5  6  1  1
  7 15  1  0
  7  5  1  0
  8  7  2  0
 10  9  1  0
 10 12  1  0
 11 10  2  0
 13 12  1  0
 14 13  1  6
 14 15  1  0
 16 18  1  0
 16 14  1  0
 17 16  2  0
 19 18  1  0
 19 27  1  0
 19 20  1  1
 21 22  2  0
 21 20  1  0
 23 22  1  0
 24 23  2  0
 25 24  1  0
 25 26  2  0
 26 21  1  0
 27 29  1  0
 28 27  2  0
M  END
$$$$
