MQF.pdb
     RDKit          3D

 29 29  0  0  1  0  0  0  0  0999 V2000
   22.9815  -32.5445  -15.9536 C   0  0  0  0  0  0  0  0  0  0  0  0
   21.6630  -32.3556  -17.1106 S   0  0  0  0  0  0  0  0  0  0  0  0
   21.4736  -30.7621  -17.8562 C   0  0  0  0  0  0  0  0  0  0  0  0
   22.0540  -29.6216  -17.0721 C   0  0  0  0  0  0  0  0  0  0  0  0
   21.0155  -28.6134  -16.6502 C   0  0  2  0  0  0  0  0  0  0  0  0
   20.6780  -27.8370  -17.8254 N   0  0  0  0  0  0  0  0  0  0  0  0
   21.4519  -27.7188  -15.5823 C   0  0  0  0  0  0  0  0  0  0  0  0
   22.5442  -27.1095  -15.6892 O   0  0  0  0  0  0  0  0  0  0  0  0
   20.2240  -22.7249  -15.1474 N   0  0  0  0  0  0  0  0  0  0  0  0
   20.6496  -22.7184  -13.7912 C   0  0  0  0  0  0  0  0  0  0  0  0
   20.8270  -21.6086  -13.2326 O   0  0  0  0  0  0  0  0  0  0  0  0
   20.8728  -23.9933  -13.0716 C   0  0  0  0  0  0  0  0  0  0  0  0
   20.7444  -25.1210  -14.0865 C   0  0  0  0  0  0  0  0  0  0  0  0
   21.0393  -26.4682  -13.4134 C   0  0  2  0  0  0  0  0  0  0  0  0
   20.7103  -27.4748  -14.3889 N   0  0  0  0  0  0  0  0  0  0  0  0
   20.0780  -26.5683  -12.2837 C   0  0  0  0  0  0  0  0  0  0  0  0
   18.8461  -26.2805  -12.4517 O   0  0  0  0  0  0  0  0  0  0  0  0
   20.4372  -26.9776  -10.9720 N   0  0  0  0  0  0  0  0  0  0  0  0
   19.5665  -26.7273   -9.8191 C   0  0  1  0  0  0  0  0  0  0  0  0
   19.3094  -25.2533   -9.6600 C   0  0  0  0  0  0  0  0  0  0  0  0
   18.4286  -24.9640   -8.5071 C   0  0  0  0  0  0  0  0  0  0  0  0
   17.1267  -24.5132   -8.6848 C   0  0  0  0  0  0  0  0  0  0  0  0
   16.2983  -24.2502   -7.6251 C   0  0  0  0  0  0  0  0  0  0  0  0
   16.7564  -24.4335   -6.3347 C   0  0  0  0  0  0  0  0  0  0  0  0
   18.0285  -24.8748   -6.1259 C   0  0  0  0  0  0  0  0  0  0  0  0
   18.8458  -25.1339   -7.2017 C   0  0  0  0  0  0  0  0  0  0  0  0
   18.3565  -27.5506   -9.9035 C   0  0  0  0  0  0  0  0  0  0  0  0
   17.6068  -27.5935  -10.9146 O   0  0  0  0  0  0  0  0  0  0  0  0
   18.0120  -28.3373   -8.7944 O   0  0  0  0  0  0  0  0  0  0  0  0
  1  2  1  0
  3  2  1  0
  4  5  1  0
  4  3  1  0
  5  6  1  6
  7 15  1  0
  7  5  1  0
  8  7  2  0
 10  9  1  0
 10 12  1  0
 11 10  2  0
 13 12  1  0
 14 13  1  6
 14 15  1  0
 16 18  1  0
 16 14  1  0
 17 16  2  0
 19 18  1  0
 19 27  1  0
 19 20  1  6
 21 22  2  0
 21 20  1  0
 23 22  1  0
 24 23  2  0
 25 24  1  0
 25 26  2  0
 26 21  1  0
 27 29  1  0
 28 27  2  0
M  END
$$$$
