MQF.pdb
     RDKit          3D

 29 29  0  0  1  0  0  0  0  0999 V2000
   27.1700  -14.6885  -16.4992 C   0  0  0  0  0  0  0  0  0  0  0  0
   28.2703  -15.9070  -17.1454 S   0  0  0  0  0  0  0  0  0  0  0  0
   28.3718  -17.4404  -16.2682 C   0  0  0  0  0  0  0  0  0  0  0  0
   27.6281  -17.4764  -14.9651 C   0  0  0  0  0  0  0  0  0  0  0  0
   27.8942  -18.7320  -14.1741 C   0  0  2  0  0  0  0  0  0  0  0  0
   27.6781  -19.8496  -15.0698 N   0  0  0  0  0  0  0  0  0  0  0  0
   27.0505  -18.8827  -12.9924 C   0  0  0  0  0  0  0  0  0  0  0  0
   26.9380  -17.9297  -12.1831 O   0  0  0  0  0  0  0  0  0  0  0  0
   22.1451  -22.9303  -13.1208 N   0  0  0  0  0  0  0  0  0  0  0  0
   22.1701  -21.5476  -12.7922 C   0  0  0  0  0  0  0  0  0  0  0  0
   21.1127  -21.0218  -12.3670 O   0  0  0  0  0  0  0  0  0  0  0  0
   23.4160  -20.7635  -12.9522 C   0  0  0  0  0  0  0  0  0  0  0  0
   24.4282  -21.3016  -11.9501 C   0  0  0  0  0  0  0  0  0  0  0  0
   25.4187  -20.1961  -11.5603 C   0  0  2  0  0  0  0  0  0  0  0  0
   26.3204  -20.0660  -12.6753 N   0  0  0  0  0  0  0  0  0  0  0  0
   26.1747  -20.7303  -10.3970 C   0  0  0  0  0  0  0  0  0  0  0  0
   27.3838  -21.1163  -10.5299 O   0  0  0  0  0  0  0  0  0  0  0  0
   25.6342  -20.8509   -9.0891 N   0  0  0  0  0  0  0  0  0  0  0  0
   26.4917  -21.0160   -7.9112 C   0  0  1  0  0  0  0  0  0  0  0  0
   27.5595  -19.9564   -7.8810 C   0  0  0  0  0  0  0  0  0  0  0  0
   28.2957  -19.9457   -6.5978 C   0  0  0  0  0  0  0  0  0  0  0  0
   29.2852  -20.8810   -6.3221 C   0  0  0  0  0  0  0  0  0  0  0  0
   29.9801  -20.8761   -5.1408 C   0  0  0  0  0  0  0  0  0  0  0  0
   29.7005  -19.9189   -4.1847 C   0  0  0  0  0  0  0  0  0  0  0  0
   28.7357  -18.9869   -4.4239 C   0  0  0  0  0  0  0  0  0  0  0  0
   28.0484  -19.0071   -5.6154 C   0  0  0  0  0  0  0  0  0  0  0  0
   25.6788  -21.0958   -6.6938 C   0  0  0  0  0  0  0  0  0  0  0  0
   26.0878  -21.5871   -5.6086 O   0  0  0  0  0  0  0  0  0  0  0  0
   24.3688  -20.5961   -6.7382 O   0  0  0  0  0  0  0  0  0  0  0  0
  1  2  1  0
  3  2  1  0
  4  5  1  0
  4  3  1  0
  5  6  1  6
  7 15  1  0
  7  5  1  0
  8  7  2  0
 10  9  1  0
 10 12  1  0
 11 10  2  0
 13 12  1  0
 14 13  1  6
 14 15  1  0
 16 18  1  0
 16 14  1  0
 17 16  2  0
 19 18  1  0
 19 27  1  0
 19 20  1  1
 21 22  2  0
 21 20  1  0
 23 22  1  0
 24 23  2  0
 25 24  1  0
 25 26  2  0
 26 21  1  0
 27 29  1  0
 28 27  2  0
M  END
$$$$
