MQF.pdb
     RDKit          3D

 29 29  0  0  1  0  0  0  0  0999 V2000
   21.1586  -15.6086  -14.9257 C   0  0  0  0  0  0  0  0  0  0  0  0
   22.0928  -15.8399  -16.4044 S   0  0  0  0  0  0  0  0  0  0  0  0
   23.3636  -17.0707  -16.3648 C   0  0  0  0  0  0  0  0  0  0  0  0
   23.1613  -18.1594  -15.3518 C   0  0  0  0  0  0  0  0  0  0  0  0
   24.2974  -18.2596  -14.3659 C   0  0  2  0  0  0  0  0  0  0  0  0
   25.5266  -18.1801  -15.1279 N   0  0  0  0  0  0  0  0  0  0  0  0
   24.2927  -19.4852  -13.5728 C   0  0  0  0  0  0  0  0  0  0  0  0
   23.2478  -19.8310  -12.9690 O   0  0  0  0  0  0  0  0  0  0  0  0
   24.5997  -24.5631  -13.5303 N   0  0  0  0  0  0  0  0  0  0  0  0
   24.8100  -23.9044  -14.7723 C   0  0  0  0  0  0  0  0  0  0  0  0
   24.1566  -24.2988  -15.7687 O   0  0  0  0  0  0  0  0  0  0  0  0
   25.7758  -22.7862  -14.8714 C   0  0  0  0  0  0  0  0  0  0  0  0
   26.3336  -22.5374  -13.4767 C   0  0  0  0  0  0  0  0  0  0  0  0
   25.4053  -21.5927  -12.7016 C   0  0  2  0  0  0  0  0  0  0  0  0
   25.4184  -20.3482  -13.4257 N   0  0  0  0  0  0  0  0  0  0  0  0
   26.0602  -21.3831  -11.3835 C   0  0  0  0  0  0  0  0  0  0  0  0
   27.3311  -21.3084  -11.2942 O   0  0  0  0  0  0  0  0  0  0  0  0
   25.3522  -21.2531  -10.1592 N   0  0  0  0  0  0  0  0  0  0  0  0
   26.0451  -21.2006   -8.8680 C   0  0  1  0  0  0  0  0  0  0  0  0
   27.0540  -20.0844   -8.8536 C   0  0  0  0  0  0  0  0  0  0  0  0
   27.6981  -19.9345   -7.5301 C   0  0  0  0  0  0  0  0  0  0  0  0
   27.3437  -18.9080   -6.6637 C   0  0  0  0  0  0  0  0  0  0  0  0
   27.9267  -18.7638   -5.4319 C   0  0  0  0  0  0  0  0  0  0  0  0
   28.8979  -19.6576   -5.0241 C   0  0  0  0  0  0  0  0  0  0  0  0
   29.2685  -20.6759   -5.8501 C   0  0  0  0  0  0  0  0  0  0  0  0
   28.6723  -20.8052   -7.0831 C   0  0  0  0  0  0  0  0  0  0  0  0
   25.0761  -21.1595   -7.7687 C   0  0  0  0  0  0  0  0  0  0  0  0
   23.9199  -20.6707   -7.8712 O   0  0  0  0  0  0  0  0  0  0  0  0
   25.4571  -21.6954   -6.5296 O   0  0  0  0  0  0  0  0  0  0  0  0
  1  2  1  0
  3  2  1  0
  4  5  1  0
  4  3  1  0
  5  6  1  6
  7 15  1  0
  7  5  1  0
  8  7  2  0
 10  9  1  0
 10 12  1  0
 11 10  2  0
 13 12  1  0
 14 13  1  6
 14 15  1  0
 16 18  1  0
 16 14  1  0
 17 16  2  0
 19 18  1  0
 19 27  1  0
 19 20  1  6
 21 22  2  0
 21 20  1  0
 23 22  1  0
 24 23  2  0
 25 24  1  0
 25 26  2  0
 26 21  1  0
 27 29  1  0
 28 27  2  0
M  END
$$$$
