MQF.pdb
     RDKit          3D

 29 29  0  0  1  0  0  0  0  0999 V2000
   16.7746  -14.5894  -15.5162 C   0  0  0  0  0  0  0  0  0  0  0  0
   16.8399  -13.6937  -17.0349 S   0  0  0  0  0  0  0  0  0  0  0  0
   18.4370  -13.1688  -17.5872 C   0  0  0  0  0  0  0  0  0  0  0  0
   19.3086  -12.5644  -16.5254 C   0  0  0  0  0  0  0  0  0  0  0  0
   20.1465  -11.4205  -17.0375 C   0  0  2  0  0  0  0  0  0  0  0  0
   21.0956  -11.9795  -17.9780 N   0  0  0  0  0  0  0  0  0  0  0  0
   20.8631  -10.6923  -15.9947 C   0  0  0  0  0  0  0  0  0  0  0  0
   20.2186  -10.0999  -15.0950 O   0  0  0  0  0  0  0  0  0  0  0  0
   27.0328  -10.9276  -15.2113 N   0  0  0  0  0  0  0  0  0  0  0  0
   26.5027  -10.2340  -16.3331 C   0  0  0  0  0  0  0  0  0  0  0  0
   27.2827   -9.9480  -17.2739 O   0  0  0  0  0  0  0  0  0  0  0  0
   25.0688   -9.8665  -16.3756 C   0  0  0  0  0  0  0  0  0  0  0  0
   24.4586  -10.2453  -15.0330 C   0  0  0  0  0  0  0  0  0  0  0  0
   22.9978   -9.7793  -14.9709 C   0  0  2  0  0  0  0  0  0  0  0  0
   22.2839  -10.5986  -15.9156 N   0  0  0  0  0  0  0  0  0  0  0  0
   23.0050   -8.3778  -15.4666 C   0  0  0  0  0  0  0  0  0  0  0  0
   23.1515   -8.1293  -16.7098 O   0  0  0  0  0  0  0  0  0  0  0  0
   22.8548   -7.2407  -14.6290 N   0  0  0  0  0  0  0  0  0  0  0  0
   22.4224   -5.9433  -15.1580 C   0  0  1  0  0  0  0  0  0  0  0  0
   21.1091   -6.0771  -15.8800 C   0  0  0  0  0  0  0  0  0  0  0  0
   20.6373   -4.7829  -16.4198 C   0  0  0  0  0  0  0  0  0  0  0  0
   21.1520   -4.2586  -17.5988 C   0  0  0  0  0  0  0  0  0  0  0  0
   20.7170   -3.0652  -18.1136 C   0  0  0  0  0  0  0  0  0  0  0  0
   19.7377   -2.3495  -17.4523 C   0  0  0  0  0  0  0  0  0  0  0  0
   19.2119   -2.8360  -16.2933 C   0  0  0  0  0  0  0  0  0  0  0  0
   19.6606   -4.0357  -15.7915 C   0  0  0  0  0  0  0  0  0  0  0  0
   22.4345   -4.9293  -14.0993 C   0  0  0  0  0  0  0  0  0  0  0  0
   22.7038   -3.7146  -14.2949 O   0  0  0  0  0  0  0  0  0  0  0  0
   22.1284   -5.3337  -12.7915 O   0  0  0  0  0  0  0  0  0  0  0  0
  1  2  1  0
  3  2  1  0
  4  5  1  0
  4  3  1  0
  5  6  1  6
  7 15  1  0
  7  5  1  0
  8  7  2  0
 10  9  1  0
 10 12  1  0
 11 10  2  0
 13 12  1  0
 14 13  1  6
 14 15  1  0
 16 18  1  0
 16 14  1  0
 17 16  2  0
 19 18  1  0
 19 27  1  0
 19 20  1  1
 21 22  2  0
 21 20  1  0
 23 22  1  0
 24 23  2  0
 25 24  1  0
 25 26  2  0
 26 21  1  0
 27 29  1  0
 28 27  2  0
M  END
$$$$
