MQF.pdb
     RDKit          3D

 29 29  0  0  1  0  0  0  0  0999 V2000
   20.2864  -17.4270  -19.8966 C   0  0  0  0  0  0  0  0  0  0  0  0
   20.3776  -15.7264  -20.3576 S   0  0  0  0  0  0  0  0  0  0  0  0
   19.0225  -14.6934  -19.8804 C   0  0  0  0  0  0  0  0  0  0  0  0
   19.1622  -13.2480  -20.2597 C   0  0  0  0  0  0  0  0  0  0  0  0
   17.9432  -12.4316  -19.9124 C   0  0  2  0  0  0  0  0  0  0  0  0
   17.1421  -12.3353  -21.1152 N   0  0  0  0  0  0  0  0  0  0  0  0
   18.2439  -11.0917  -19.4171 C   0  0  0  0  0  0  0  0  0  0  0  0
   18.5404  -10.1809  -20.2286 O   0  0  0  0  0  0  0  0  0  0  0  0
   15.6316   -8.2061  -14.8353 N   0  0  0  0  0  0  0  0  0  0  0  0
   16.6606   -7.2652  -15.1122 C   0  0  0  0  0  0  0  0  0  0  0  0
   16.5868   -6.1333  -14.5751 O   0  0  0  0  0  0  0  0  0  0  0  0
   17.7811   -7.6256  -16.0108 C   0  0  0  0  0  0  0  0  0  0  0  0
   17.5009   -9.0191  -16.5568 C   0  0  0  0  0  0  0  0  0  0  0  0
   18.6108   -9.4329  -17.5323 C   0  0  2  0  0  0  0  0  0  0  0  0
   18.2264  -10.7246  -18.0392 N   0  0  0  0  0  0  0  0  0  0  0  0
   19.8330   -9.5925  -16.7011 C   0  0  0  0  0  0  0  0  0  0  0  0
   20.1915  -10.7455  -16.2878 O   0  0  0  0  0  0  0  0  0  0  0  0
   20.6727   -8.5150  -16.3124 N   0  0  0  0  0  0  0  0  0  0  0  0
   21.9886   -8.7409  -15.7063 C   0  0  1  0  0  0  0  0  0  0  0  0
   22.8108   -9.6704  -16.5572 C   0  0  0  0  0  0  0  0  0  0  0  0
   24.1607   -9.8920  -15.9937 C   0  0  0  0  0  0  0  0  0  0  0  0
   24.3499  -10.6390  -14.8378 C   0  0  0  0  0  0  0  0  0  0  0  0
   25.5959  -10.8585  -14.3110 C   0  0  0  0  0  0  0  0  0  0  0  0
   26.7078  -10.3280  -14.9360 C   0  0  0  0  0  0  0  0  0  0  0  0
   26.5568   -9.5905  -16.0717 C   0  0  0  0  0  0  0  0  0  0  0  0
   25.2984   -9.3805  -16.5862 C   0  0  0  0  0  0  0  0  0  0  0  0
   22.6371   -7.4623  -15.4000 C   0  0  0  0  0  0  0  0  0  0  0  0
   22.5427   -6.4369  -16.1252 O   0  0  0  0  0  0  0  0  0  0  0  0
   23.4082   -7.3740  -14.2316 O   0  0  0  0  0  0  0  0  0  0  0  0
  1  2  1  0
  3  2  1  0
  4  5  1  0
  4  3  1  0
  5  6  1  6
  7 15  1  0
  7  5  1  0
  8  7  2  0
 10  9  1  0
 10 12  1  0
 11 10  2  0
 13 12  1  0
 14 13  1  1
 14 15  1  0
 16 18  1  0
 16 14  1  0
 17 16  2  0
 19 18  1  0
 19 27  1  0
 19 20  1  6
 21 22  2  0
 21 20  1  0
 23 22  1  0
 24 23  2  0
 25 24  1  0
 25 26  2  0
 26 21  1  0
 27 29  1  0
 28 27  2  0
M  END
$$$$
