MQF.pdb
     RDKit          3D

 29 29  0  0  1  0  0  0  0  0999 V2000
   27.9119  -17.6005  -14.4804 C   0  0  0  0  0  0  0  0  0  0  0  0
   28.3134  -17.5749  -16.1982 S   0  0  0  0  0  0  0  0  0  0  0  0
   26.9916  -17.2365  -17.3248 C   0  0  0  0  0  0  0  0  0  0  0  0
   25.9277  -18.2930  -17.3907 C   0  0  0  0  0  0  0  0  0  0  0  0
   26.4597  -19.6321  -17.8343 C   0  0  2  0  0  0  0  0  0  0  0  0
   26.6253  -19.5661  -19.2717 N   0  0  0  0  0  0  0  0  0  0  0  0
   25.5972  -20.7594  -17.4932 C   0  0  0  0  0  0  0  0  0  0  0  0
   24.5599  -20.9747  -18.1666 O   0  0  0  0  0  0  0  0  0  0  0  0
   23.8226  -26.5571  -16.7308 N   0  0  0  0  0  0  0  0  0  0  0  0
   25.0249  -26.0643  -16.1543 C   0  0  0  0  0  0  0  0  0  0  0  0
   26.1142  -26.5235  -16.5760 O   0  0  0  0  0  0  0  0  0  0  0  0
   24.9767  -25.0383  -15.0875 C   0  0  0  0  0  0  0  0  0  0  0  0
   25.8399  -23.8678  -15.5381 C   0  0  0  0  0  0  0  0  0  0  0  0
   24.9491  -22.7076  -16.0022 C   0  0  2  0  0  0  0  0  0  0  0  0
   25.8492  -21.6644  -16.4203 N   0  0  0  0  0  0  0  0  0  0  0  0
   24.2235  -22.2514  -14.7875 C   0  0  0  0  0  0  0  0  0  0  0  0
   24.8563  -21.7242  -13.8126 O   0  0  0  0  0  0  0  0  0  0  0  0
   22.8177  -22.3602  -14.6171 N   0  0  0  0  0  0  0  0  0  0  0  0
   22.1526  -21.9214  -13.3861 C   0  0  1  0  0  0  0  0  0  0  0  0
   22.4956  -20.4885  -13.0810 C   0  0  0  0  0  0  0  0  0  0  0  0
   21.7410  -19.9718  -11.9182 C   0  0  0  0  0  0  0  0  0  0  0  0
   20.4549  -19.4650  -12.0559 C   0  0  0  0  0  0  0  0  0  0  0  0
   19.7424  -18.9917  -10.9851 C   0  0  0  0  0  0  0  0  0  0  0  0
   20.3055  -19.0120   -9.7238 C   0  0  0  0  0  0  0  0  0  0  0  0
   21.5653  -19.5028   -9.5544 C   0  0  0  0  0  0  0  0  0  0  0  0
   22.2655  -19.9738  -10.6407 C   0  0  0  0  0  0  0  0  0  0  0  0
   20.7153  -22.2022  -13.4532 C   0  0  0  0  0  0  0  0  0  0  0  0
   19.9587  -22.2302  -12.4467 O   0  0  0  0  0  0  0  0  0  0  0  0
   20.1478  -22.4546  -14.7110 O   0  0  0  0  0  0  0  0  0  0  0  0
  1  2  1  0
  3  2  1  0
  4  5  1  0
  4  3  1  0
  5  6  1  6
  7 15  1  0
  7  5  1  0
  8  7  2  0
 10  9  1  0
 10 12  1  0
 11 10  2  0
 13 12  1  0
 14 13  1  1
 14 15  1  0
 16 18  1  0
 16 14  1  0
 17 16  2  0
 19 18  1  0
 19 27  1  0
 19 20  1  6
 21 22  2  0
 21 20  1  0
 23 22  1  0
 24 23  2  0
 25 24  1  0
 25 26  2  0
 26 21  1  0
 27 29  1  0
 28 27  2  0
M  END
$$$$
