MQF.pdb
     RDKit          3D

 29 29  0  0  1  0  0  0  0  0999 V2000
   19.7904  -22.1052  -10.6878 C   0  0  0  0  0  0  0  0  0  0  0  0
   19.5564  -20.6108  -11.5961 S   0  0  0  0  0  0  0  0  0  0  0  0
   20.8719  -20.1109  -12.6686 C   0  0  0  0  0  0  0  0  0  0  0  0
   22.1957  -20.7635  -12.3961 C   0  0  0  0  0  0  0  0  0  0  0  0
   23.2891  -20.2731  -13.3109 C   0  0  2  0  0  0  0  0  0  0  0  0
   22.8626  -20.5518  -14.6668 N   0  0  0  0  0  0  0  0  0  0  0  0
   24.5896  -20.8914  -13.0710 C   0  0  0  0  0  0  0  0  0  0  0  0
   24.7687  -22.0979  -13.3679 O   0  0  0  0  0  0  0  0  0  0  0  0
   27.4771  -17.2444  -13.9603 N   0  0  0  0  0  0  0  0  0  0  0  0
   27.8680  -18.2806  -14.8515 C   0  0  0  0  0  0  0  0  0  0  0  0
   27.9076  -18.0210  -16.0788 O   0  0  0  0  0  0  0  0  0  0  0  0
   28.2155  -19.6227  -14.3311 C   0  0  0  0  0  0  0  0  0  0  0  0
   27.9815  -19.6057  -12.8266 C   0  0  0  0  0  0  0  0  0  0  0  0
   27.0406  -20.7510  -12.4294 C   0  0  2  0  0  0  0  0  0  0  0  0
   25.7086  -20.2099  -12.5079 N   0  0  0  0  0  0  0  0  0  0  0  0
   27.3510  -21.0465  -11.0059 C   0  0  0  0  0  0  0  0  0  0  0  0
   28.5169  -21.4357  -10.6626 O   0  0  0  0  0  0  0  0  0  0  0  0
   26.4107  -20.9244   -9.9485 N   0  0  0  0  0  0  0  0  0  0  0  0
   26.8192  -20.9801   -8.5413 C   0  0  1  0  0  0  0  0  0  0  0  0
   27.8471  -19.9217   -8.2462 C   0  0  0  0  0  0  0  0  0  0  0  0
   28.0932  -19.7752   -6.7948 C   0  0  0  0  0  0  0  0  0  0  0  0
   29.0878  -20.5009   -6.1514 C   0  0  0  0  0  0  0  0  0  0  0  0
   29.3312  -20.3676   -4.8093 C   0  0  0  0  0  0  0  0  0  0  0  0
   28.5734  -19.4893   -4.0590 C   0  0  0  0  0  0  0  0  0  0  0  0
   27.5899  -18.7623   -4.6596 C   0  0  0  0  0  0  0  0  0  0  0  0
   27.3599  -18.9091   -6.0079 C   0  0  0  0  0  0  0  0  0  0  0  0
   25.6438  -20.9480   -7.6657 C   0  0  0  0  0  0  0  0  0  0  0  0
   25.6798  -21.2085   -6.4340 O   0  0  0  0  0  0  0  0  0  0  0  0
   24.4060  -20.6074   -8.2310 O   0  0  0  0  0  0  0  0  0  0  0  0
  1  2  1  0
  3  2  1  0
  4  5  1  0
  4  3  1  0
  5  6  1  6
  7 15  1  0
  7  5  1  0
  8  7  2  0
 10  9  1  0
 10 12  1  0
 11 10  2  0
 13 12  1  0
 14 13  1  1
 14 15  1  0
 16 18  1  0
 16 14  1  0
 17 16  2  0
 19 18  1  0
 19 27  1  0
 19 20  1  1
 21 22  2  0
 21 20  1  0
 23 22  1  0
 24 23  2  0
 25 24  1  0
 25 26  2  0
 26 21  1  0
 27 29  1  0
 28 27  2  0
M  END
$$$$
