MQF.pdb
     RDKit          3D

 29 29  0  0  1  0  0  0  0  0999 V2000
   29.0886  -32.3803  -15.1356 C   0  0  0  0  0  0  0  0  0  0  0  0
   28.0554  -33.8103  -15.1452 S   0  0  0  0  0  0  0  0  0  0  0  0
   26.5885  -33.7454  -14.1577 C   0  0  0  0  0  0  0  0  0  0  0  0
   25.6534  -32.6176  -14.4837 C   0  0  0  0  0  0  0  0  0  0  0  0
   24.4726  -33.0575  -15.3114 C   0  0  2  0  0  0  0  0  0  0  0  0
   24.9548  -33.2596  -16.6621 N   0  0  0  0  0  0  0  0  0  0  0  0
   23.3659  -32.1054  -15.3250 C   0  0  0  0  0  0  0  0  0  0  0  0
   23.3130  -31.2264  -16.2196 O   0  0  0  0  0  0  0  0  0  0  0  0
   18.4175  -31.8320  -16.8843 N   0  0  0  0  0  0  0  0  0  0  0  0
   17.9830  -31.0119  -15.8077 C   0  0  0  0  0  0  0  0  0  0  0  0
   16.9300  -30.3460  -15.9594 O   0  0  0  0  0  0  0  0  0  0  0  0
   18.7616  -30.9556  -14.5493 C   0  0  0  0  0  0  0  0  0  0  0  0
   19.9690  -31.8680  -14.7161 C   0  0  0  0  0  0  0  0  0  0  0  0
   21.2508  -31.1171  -14.3312 C   0  0  2  0  0  0  0  0  0  0  0  0
   22.3061  -32.0958  -14.3709 N   0  0  0  0  0  0  0  0  0  0  0  0
   21.0531  -30.6875  -12.9218 C   0  0  0  0  0  0  0  0  0  0  0  0
   20.9629  -31.5508  -11.9862 O   0  0  0  0  0  0  0  0  0  0  0  0
   20.9520  -29.3307  -12.5141 N   0  0  0  0  0  0  0  0  0  0  0  0
   20.7709  -28.9583  -11.1075 C   0  0  1  0  0  0  0  0  0  0  0  0
   21.4675  -27.6581  -10.8102 C   0  0  0  0  0  0  0  0  0  0  0  0
   20.8057  -26.5100  -11.4682 C   0  0  0  0  0  0  0  0  0  0  0  0
   21.0919  -26.1646  -12.7830 C   0  0  0  0  0  0  0  0  0  0  0  0
   20.4792  -25.1089  -13.4062 C   0  0  0  0  0  0  0  0  0  0  0  0
   19.5466  -24.3551  -12.7202 C   0  0  0  0  0  0  0  0  0  0  0  0
   19.2431  -24.6675  -11.4292 C   0  0  0  0  0  0  0  0  0  0  0  0
   19.8679  -25.7308  -10.8198 C   0  0  0  0  0  0  0  0  0  0  0  0
   19.3492  -28.9826  -10.7508 C   0  0  0  0  0  0  0  0  0  0  0  0
   18.4141  -28.9301  -11.5929 O   0  0  0  0  0  0  0  0  0  0  0  0
   19.0085  -29.0695   -9.3928 O   0  0  0  0  0  0  0  0  0  0  0  0
  1  2  1  0
  3  2  1  0
  4  5  1  0
  4  3  1  0
  5  6  1  6
  7 15  1  0
  7  5  1  0
  8  7  2  0
 10  9  1  0
 10 12  1  0
 11 10  2  0
 13 12  1  0
 14 13  1  1
 14 15  1  0
 16 18  1  0
 16 14  1  0
 17 16  2  0
 19 18  1  0
 19 27  1  0
 19 20  1  6
 21 22  2  0
 21 20  1  0
 23 22  1  0
 24 23  2  0
 25 24  1  0
 25 26  2  0
 26 21  1  0
 27 29  1  0
 28 27  2  0
M  END
$$$$
