PGM.pdb
     RDKit          3D

 20 20  0  0  1  0  0  0  0  0999 V2000
    6.5002  -19.5053   21.8299 N   0  0  0  0  0  0  0  0  0  0  0  0
    5.7644  -20.7770   21.8759 C   0  0  0  0  0  0  0  0  0  0  0  0
    6.6619  -21.7195   21.1027 C   0  0  0  0  0  0  0  0  0  0  0  0
    8.0198  -21.0207   21.0213 C   0  0  0  0  0  0  0  0  0  0  0  0
    7.8471  -19.9768   22.1250 C   0  0  1  0  0  0  0  0  0  0  0  0
    8.8104  -18.8810   22.0278 C   0  0  0  0  0  0  0  0  0  0  0  0
   10.0067  -19.0847   22.3574 O   0  0  0  0  0  0  0  0  0  0  0  0
    8.4470  -17.5938   21.5746 N   0  0  0  0  0  0  0  0  0  0  0  0
    9.4791  -16.5813   21.4885 C   0  0  0  0  0  0  0  0  0  0  0  0
    9.7088  -15.8875   22.7535 C   0  0  0  0  0  0  0  0  0  0  0  0
   10.8196  -15.3643   22.9920 O   0  0  0  0  0  0  0  0  0  0  0  0
    6.2782  -10.9329   26.0124 C   0  0  0  0  0  0  0  0  0  0  0  0
    5.9833  -12.6140   26.6656 S   0  0  0  0  0  0  0  0  0  0  0  0
    7.5334  -13.5648   26.5330 C   0  0  0  0  0  0  0  0  0  0  0  0
    7.5498  -14.2814   25.2270 C   0  0  0  0  0  0  0  0  0  0  0  0
    8.8141  -15.0271   24.9599 C   0  0  2  0  0  0  0  0  0  0  0  0
    8.6866  -15.7951   23.7281 N   0  0  0  0  0  0  0  0  0  0  0  0
    9.1710  -15.9596   26.0366 C   0  0  0  0  0  0  0  0  0  0  0  0
    9.4424  -15.5377   27.1824 O   0  0  0  0  0  0  0  0  0  0  0  0
    9.2101  -17.3223   25.7895 O   0  0  0  0  0  0  0  0  0  0  0  0
  1  2  1  0
  1  5  1  0
  2  3  1  0
  3  4  1  0
  5  4  1  0
  5  6  1  6
  6  7  2  0
  8  6  1  0
  9  8  1  0
  9 10  1  0
 10 17  1  0
 11 10  2  0
 13 12  1  0
 14 13  1  0
 15 14  1  0
 16 15  1  1
 16 18  1  0
 17 16  1  0
 18 19  2  0
 18 20  1  0
M  END
$$$$
