PGM.pdb
     RDKit          3D

 20 20  0  0  1  0  0  0  0  0999 V2000
    8.4925  -14.5949   17.9542 N   0  0  0  0  0  0  0  0  0  0  0  0
    8.1692  -13.3239   17.2906 C   0  0  0  0  0  0  0  0  0  0  0  0
    7.2433  -12.6478   18.2793 C   0  0  0  0  0  0  0  0  0  0  0  0
    7.4286  -13.4004   19.5977 C   0  0  0  0  0  0  0  0  0  0  0  0
    8.7460  -14.1206   19.3086 C   0  0  1  0  0  0  0  0  0  0  0  0
    8.9904  -15.2444   20.2118 C   0  0  0  0  0  0  0  0  0  0  0  0
   10.0485  -15.9124   20.0876 O   0  0  0  0  0  0  0  0  0  0  0  0
    8.0780  -15.6110   21.2254 N   0  0  0  0  0  0  0  0  0  0  0  0
    8.4964  -16.5984   22.1991 C   0  0  0  0  0  0  0  0  0  0  0  0
    8.9443  -16.0082   23.4583 C   0  0  0  0  0  0  0  0  0  0  0  0
   10.1565  -15.7606   23.6414 O   0  0  0  0  0  0  0  0  0  0  0  0
    6.0936  -11.2459   26.7304 C   0  0  0  0  0  0  0  0  0  0  0  0
    7.7282  -11.9186   27.1946 S   0  0  0  0  0  0  0  0  0  0  0  0
    7.5274  -13.6798   27.6216 C   0  0  0  0  0  0  0  0  0  0  0  0
    7.2150  -14.4444   26.3818 C   0  0  0  0  0  0  0  0  0  0  0  0
    8.4012  -15.0998   25.7579 C   0  0  2  0  0  0  0  0  0  0  0  0
    8.0221  -15.7080   24.4892 N   0  0  0  0  0  0  0  0  0  0  0  0
    8.9896  -16.1481   26.6013 C   0  0  0  0  0  0  0  0  0  0  0  0
    8.7090  -17.3521   26.4117 O   0  0  0  0  0  0  0  0  0  0  0  0
    9.8652  -15.8088   27.6200 O   0  0  0  0  0  0  0  0  0  0  0  0
  1  2  1  0
  1  5  1  0
  2  3  1  0
  3  4  1  0
  5  4  1  0
  5  6  1  1
  6  7  2  0
  8  6  1  0
  9  8  1  0
  9 10  1  0
 10 17  1  0
 11 10  2  0
 13 12  1  0
 14 13  1  0
 15 14  1  0
 16 15  1  1
 16 18  1  0
 17 16  1  0
 18 19  2  0
 18 20  1  0
M  END
$$$$
