PGM.pdb
     RDKit          3D

 20 20  0  0  1  0  0  0  0  0999 V2000
    7.2864  -14.4366   19.6049 N   0  0  0  0  0  0  0  0  0  0  0  0
    6.9229  -13.2981   18.7493 C   0  0  0  0  0  0  0  0  0  0  0  0
    7.7367  -12.1608   19.3293 C   0  0  0  0  0  0  0  0  0  0  0  0
    8.7986  -12.8217   20.2093 C   0  0  0  0  0  0  0  0  0  0  0  0
    8.7303  -14.2533   19.6769 C   0  0  1  0  0  0  0  0  0  0  0  0
    9.3296  -15.2283   20.5871 C   0  0  0  0  0  0  0  0  0  0  0  0
   10.5782  -15.2421   20.7359 O   0  0  0  0  0  0  0  0  0  0  0  0
    8.5552  -16.1614   21.3109 N   0  0  0  0  0  0  0  0  0  0  0  0
    9.2312  -17.0254   22.2568 C   0  0  0  0  0  0  0  0  0  0  0  0
    9.5505  -16.3578   23.5165 C   0  0  0  0  0  0  0  0  0  0  0  0
   10.7426  -16.1793   23.8499 O   0  0  0  0  0  0  0  0  0  0  0  0
    6.0185  -10.7230   25.9030 C   0  0  0  0  0  0  0  0  0  0  0  0
    6.0551  -12.4592   26.4722 S   0  0  0  0  0  0  0  0  0  0  0  0
    7.5054  -13.2790   25.7311 C   0  0  0  0  0  0  0  0  0  0  0  0
    7.5762  -14.6801   26.2323 C   0  0  0  0  0  0  0  0  0  0  0  0
    8.7614  -15.4413   25.7405 C   0  0  2  0  0  0  0  0  0  0  0  0
    8.5243  -15.9038   24.3792 N   0  0  0  0  0  0  0  0  0  0  0  0
    9.0751  -16.6146   26.5660 C   0  0  0  0  0  0  0  0  0  0  0  0
    8.6208  -17.7421   26.2714 O   0  0  0  0  0  0  0  0  0  0  0  0
    9.8814  -16.4802   27.6846 O   0  0  0  0  0  0  0  0  0  0  0  0
  1  2  1  0
  1  5  1  0
  2  3  1  0
  3  4  1  0
  5  4  1  0
  5  6  1  1
  6  7  2  0
  8  6  1  0
  9  8  1  0
  9 10  1  0
 10 17  1  0
 11 10  2  0
 13 12  1  0
 14 13  1  0
 15 14  1  0
 16 15  1  1
 16 18  1  0
 17 16  1  0
 18 19  2  0
 18 20  1  0
M  END
$$$$
