PGM.pdb
     RDKit          3D

 20 20  0  0  1  0  0  0  0  0999 V2000
    7.1797  -14.3054   19.1833 N   0  0  0  0  0  0  0  0  0  0  0  0
    7.1777  -13.2411   18.1695 C   0  0  0  0  0  0  0  0  0  0  0  0
    8.2404  -12.2875   18.6725 C   0  0  0  0  0  0  0  0  0  0  0  0
    9.0420  -13.0748   19.7100 C   0  0  0  0  0  0  0  0  0  0  0  0
    8.6145  -14.4982   19.3507 C   0  0  1  0  0  0  0  0  0  0  0  0
    8.8849  -15.4603   20.4181 C   0  0  0  0  0  0  0  0  0  0  0  0
   10.0767  -15.7488   20.6967 O   0  0  0  0  0  0  0  0  0  0  0  0
    7.8523  -16.0823   21.1538 N   0  0  0  0  0  0  0  0  0  0  0  0
    8.2189  -16.8997   22.2920 C   0  0  0  0  0  0  0  0  0  0  0  0
    8.7485  -16.1220   23.4097 C   0  0  0  0  0  0  0  0  0  0  0  0
    9.9461  -15.7616   23.4144 O   0  0  0  0  0  0  0  0  0  0  0  0
    6.7008  -10.8577   27.2116 C   0  0  0  0  0  0  0  0  0  0  0  0
    5.6733  -12.2310   26.5805 S   0  0  0  0  0  0  0  0  0  0  0  0
    6.7158  -13.2969   25.5312 C   0  0  0  0  0  0  0  0  0  0  0  0
    7.3155  -14.3675   26.3760 C   0  0  0  0  0  0  0  0  0  0  0  0
    8.4196  -15.1185   25.7105 C   0  0  2  0  0  0  0  0  0  0  0  0
    7.9229  -15.7643   24.5024 N   0  0  0  0  0  0  0  0  0  0  0  0
    9.0071  -16.1570   26.5666 C   0  0  0  0  0  0  0  0  0  0  0  0
    9.7230  -15.8481   27.5446 O   0  0  0  0  0  0  0  0  0  0  0  0
    8.7713  -17.4950   26.2953 O   0  0  0  0  0  0  0  0  0  0  0  0
  1  2  1  0
  1  5  1  0
  2  3  1  0
  3  4  1  0
  5  4  1  0
  5  6  1  1
  6  7  2  0
  8  6  1  0
  9  8  1  0
  9 10  1  0
 10 17  1  0
 11 10  2  0
 13 12  1  0
 14 13  1  0
 15 14  1  0
 16 15  1  1
 16 18  1  0
 17 16  1  0
 18 19  2  0
 18 20  1  0
M  END
$$$$
