PGM.pdb
     RDKit          3D

 20 20  0  0  1  0  0  0  0  0999 V2000
    7.3780  -14.7268   19.8362 N   0  0  0  0  0  0  0  0  0  0  0  0
    6.7236  -13.7424   18.9627 C   0  0  0  0  0  0  0  0  0  0  0  0
    7.3465  -12.4326   19.3967 C   0  0  0  0  0  0  0  0  0  0  0  0
    8.5913  -12.8147   20.1988 C   0  0  0  0  0  0  0  0  0  0  0  0
    8.7585  -14.2675   19.7524 C   0  0  1  0  0  0  0  0  0  0  0  0
    9.6158  -15.0430   20.6477 C   0  0  0  0  0  0  0  0  0  0  0  0
   10.8293  -14.7322   20.7570 O   0  0  0  0  0  0  0  0  0  0  0  0
    9.1304  -16.1351   21.4001 N   0  0  0  0  0  0  0  0  0  0  0  0
   10.0557  -16.8342   22.2679 C   0  0  0  0  0  0  0  0  0  0  0  0
    9.9904  -16.3850   23.6566 C   0  0  0  0  0  0  0  0  0  0  0  0
   11.0232  -16.3671   24.3618 O   0  0  0  0  0  0  0  0  0  0  0  0
    6.3797  -10.7946   26.7143 C   0  0  0  0  0  0  0  0  0  0  0  0
    6.0383  -12.5428   26.3058 S   0  0  0  0  0  0  0  0  0  0  0  0
    7.6295  -13.4081   26.0971 C   0  0  0  0  0  0  0  0  0  0  0  0
    7.3644  -14.8530   25.8500 C   0  0  0  0  0  0  0  0  0  0  0  0
    8.5962  -15.6696   25.6449 C   0  0  2  0  0  0  0  0  0  0  0  0
    8.7654  -15.9652   24.2281 N   0  0  0  0  0  0  0  0  0  0  0  0
    8.5682  -16.9459   26.3705 C   0  0  0  0  0  0  0  0  0  0  0  0
    8.1276  -17.9812   25.8240 O   0  0  0  0  0  0  0  0  0  0  0  0
    9.0323  -17.0131   27.6742 O   0  0  0  0  0  0  0  0  0  0  0  0
  1  2  1  0
  1  5  1  0
  2  3  1  0
  3  4  1  0
  5  4  1  0
  5  6  1  1
  6  7  2  0
  8  6  1  0
  9  8  1  0
  9 10  1  0
 10 17  1  0
 11 10  2  0
 13 12  1  0
 14 13  1  0
 15 14  1  0
 16 15  1  6
 16 18  1  0
 17 16  1  0
 18 19  2  0
 18 20  1  0
M  END
$$$$
