LIW.pdb
     RDKit          3D

 31 32  0  0  1  0  0  0  0  0999 V2000
   19.9825  -15.7345  -13.0120 C   0  0  0  0  0  0  0  0  0  0  0  0
   20.1236  -17.0009  -13.8200 C   0  0  1  0  0  0  0  0  0  0  0  0
   21.1880  -16.7083  -14.8806 C   0  0  0  0  0  0  0  0  0  0  0  0
   20.6946  -18.1264  -13.0063 C   0  0  0  0  0  0  0  0  0  0  0  0
   21.0055  -19.3691  -13.7253 C   0  0  2  0  0  0  0  0  0  0  0  0
   19.7605  -20.0385  -14.0593 N   0  0  0  0  0  0  0  0  0  0  0  0
   21.9153  -20.3122  -12.9892 C   0  0  0  0  0  0  0  0  0  0  0  0
   21.4827  -20.9075  -11.9922 O   0  0  0  0  0  0  0  0  0  0  0  0
   23.3664  -24.5120  -13.7556 C   0  0  0  0  0  0  0  0  0  0  0  0
   23.9427  -23.3649  -14.5141 C   0  0  0  0  0  0  0  0  0  0  0  0
   24.7702  -22.3957  -13.8016 C   0  0  2  0  0  0  0  0  0  0  0  0
   25.9818  -23.1397  -13.1846 C   0  0  0  0  0  0  0  0  0  0  0  0
   24.1968  -21.4356  -12.8474 C   0  0  2  0  0  0  0  0  0  0  0  0
   23.2391  -20.5208  -13.4240 N   0  0  0  0  0  0  0  0  0  0  0  0
   25.1507  -20.7553  -11.9612 C   0  0  0  0  0  0  0  0  0  0  0  0
   25.7593  -19.7512  -12.4128 O   0  0  0  0  0  0  0  0  0  0  0  0
   25.4433  -21.1417  -10.6456 N   0  0  0  0  0  0  0  0  0  0  0  0
   26.4203  -20.3547   -9.8751 C   0  0  1  0  0  0  0  0  0  0  0  0
   26.0972  -20.3227   -8.4302 C   0  0  0  0  0  0  0  0  0  0  0  0
   26.9581  -19.5039   -7.5751 C   0  0  0  0  0  0  0  0  0  0  0  0
   27.2732  -18.1864   -7.7860 C   0  0  0  0  0  0  0  0  0  0  0  0
   28.0052  -17.7517   -6.7795 N   0  0  0  0  0  0  0  0  0  0  0  0
   28.1942  -18.7514   -5.8904 C   0  0  0  0  0  0  0  0  0  0  0  0
   28.8771  -18.8328   -4.6966 C   0  0  0  0  0  0  0  0  0  0  0  0
   28.9273  -20.0062   -3.9767 C   0  0  0  0  0  0  0  0  0  0  0  0
   28.2695  -21.1135   -4.4817 C   0  0  0  0  0  0  0  0  0  0  0  0
   27.5881  -21.0511   -5.6630 C   0  0  0  0  0  0  0  0  0  0  0  0
   27.5474  -19.8674   -6.3640 C   0  0  0  0  0  0  0  0  0  0  0  0
   27.7673  -20.9728  -10.1851 C   0  0  0  0  0  0  0  0  0  0  0  0
   28.9049  -20.1980  -10.3677 O   0  0  0  0  0  0  0  0  0  0  0  0
   27.8893  -22.2091  -10.2917 O   0  0  0  0  0  0  0  0  0  0  0  0
  2  1  1  1
  3  2  1  0
  4  5  1  0
  4  2  1  0
  5  7  1  0
  5  6  1  1
  7  8  2  0
  9 10  1  0
 10 11  1  0
 11 13  1  0
 11 12  1  1
 13 15  1  0
 13 14  1  6
 14  7  1  0
 15 17  1  0
 16 15  2  0
 17 18  1  0
 18 19  1  1
 19 20  1  0
 20 21  2  0
 22 21  1  0
 23 22  1  0
 24 23  2  0
 25 24  1  0
 26 27  1  0
 26 25  2  0
 27 28  2  0
 28 23  1  0
 28 20  1  0
 29 30  1  0
 29 18  1  0
 31 29  2  0
M  END
$$$$
