LIW.pdb
     RDKit          3D

 31 32  0  0  1  0  0  0  0  0999 V2000
   27.5909  -14.9902  -17.2616 C   0  0  0  0  0  0  0  0  0  0  0  0
   27.4467  -16.4554  -16.9314 C   0  0  1  0  0  0  0  0  0  0  0  0
   28.8315  -17.0734  -17.1411 C   0  0  0  0  0  0  0  0  0  0  0  0
   27.1459  -16.6770  -15.4771 C   0  0  0  0  0  0  0  0  0  0  0  0
   27.1957  -18.0643  -14.9967 C   0  0  2  0  0  0  0  0  0  0  0  0
   26.7184  -18.9406  -16.0521 N   0  0  0  0  0  0  0  0  0  0  0  0
   26.4291  -18.3203  -13.7295 C   0  0  0  0  0  0  0  0  0  0  0  0
   26.3503  -17.4183  -12.8834 O   0  0  0  0  0  0  0  0  0  0  0  0
   21.5771  -20.8660  -14.0743 C   0  0  0  0  0  0  0  0  0  0  0  0
   22.7596  -20.0481  -13.6796 C   0  0  0  0  0  0  0  0  0  0  0  0
   23.7280  -20.6168  -12.7466 C   0  0  2  0  0  0  0  0  0  0  0  0
   22.9711  -21.1034  -11.4847 C   0  0  0  0  0  0  0  0  0  0  0  0
   24.9649  -19.9106  -12.3825 C   0  0  2  0  0  0  0  0  0  0  0  0
   25.8064  -19.5639  -13.5042 N   0  0  0  0  0  0  0  0  0  0  0  0
   25.7327  -20.4822  -11.2681 C   0  0  0  0  0  0  0  0  0  0  0  0
   26.4885  -21.4574  -11.5141 O   0  0  0  0  0  0  0  0  0  0  0  0
   25.6857  -20.0286   -9.9423 N   0  0  0  0  0  0  0  0  0  0  0  0
   26.5258  -20.6952   -8.9337 C   0  0  1  0  0  0  0  0  0  0  0  0
   27.5739  -19.7969   -8.3973 C   0  0  0  0  0  0  0  0  0  0  0  0
   28.4243  -20.3305   -7.3320 C   0  0  0  0  0  0  0  0  0  0  0  0
   29.3684  -21.3134   -7.4798 C   0  0  0  0  0  0  0  0  0  0  0  0
   29.9938  -21.4868   -6.3325 N   0  0  0  0  0  0  0  0  0  0  0  0
   29.4895  -20.6404   -5.4079 C   0  0  0  0  0  0  0  0  0  0  0  0
   29.7720  -20.4230   -4.0770 C   0  0  0  0  0  0  0  0  0  0  0  0
   29.0809  -19.4867   -3.3399 C   0  0  0  0  0  0  0  0  0  0  0  0
   28.0870  -18.7598   -3.9705 C   0  0  0  0  0  0  0  0  0  0  0  0
   27.7935  -18.9620   -5.2883 C   0  0  0  0  0  0  0  0  0  0  0  0
   28.4992  -19.8997   -6.0071 C   0  0  0  0  0  0  0  0  0  0  0  0
   25.5624  -21.2041   -7.8821 C   0  0  0  0  0  0  0  0  0  0  0  0
   24.3352  -20.5952   -7.6560 O   0  0  0  0  0  0  0  0  0  0  0  0
   25.8533  -22.1921   -7.1794 O   0  0  0  0  0  0  0  0  0  0  0  0
  2  1  1  1
  3  2  1  0
  4  5  1  0
  4  2  1  0
  5  7  1  0
  5  6  1  6
  7  8  2  0
  9 10  1  0
 10 11  1  0
 11 13  1  0
 11 12  1  1
 13 15  1  0
 13 14  1  6
 14  7  1  0
 15 17  1  0
 16 15  2  0
 17 18  1  0
 18 19  1  1
 19 20  1  0
 20 21  2  0
 22 21  1  0
 23 22  1  0
 24 23  2  0
 25 24  1  0
 26 27  1  0
 26 25  2  0
 27 28  2  0
 28 23  1  0
 28 20  1  0
 29 30  1  0
 29 18  1  0
 31 29  2  0
M  END
$$$$
