LIW.pdb
     RDKit          3D

 31 32  0  0  1  0  0  0  0  0999 V2000
   26.3181  -18.7942  -19.5476 C   0  0  0  0  0  0  0  0  0  0  0  0
   27.2254  -18.9446  -18.3515 C   0  0  1  0  0  0  0  0  0  0  0  0
   27.4522  -17.5295  -17.8134 C   0  0  0  0  0  0  0  0  0  0  0  0
   26.5550  -19.6783  -17.2259 C   0  0  0  0  0  0  0  0  0  0  0  0
   27.2735  -19.7212  -15.9454 C   0  0  2  0  0  0  0  0  0  0  0  0
   28.6019  -20.2621  -16.1741 N   0  0  0  0  0  0  0  0  0  0  0  0
   26.5816  -20.4977  -14.8603 C   0  0  0  0  0  0  0  0  0  0  0  0
   25.8220  -21.4242  -15.1767 O   0  0  0  0  0  0  0  0  0  0  0  0
   29.2624  -21.4757  -10.1073 C   0  0  0  0  0  0  0  0  0  0  0  0
   28.3671  -21.5294  -11.2984 C   0  0  0  0  0  0  0  0  0  0  0  0
   27.0240  -20.9665  -11.1942 C   0  0  2  0  0  0  0  0  0  0  0  0
   26.2771  -21.6813  -10.0395 C   0  0  0  0  0  0  0  0  0  0  0  0
   26.1541  -20.8070  -12.3685 C   0  0  2  0  0  0  0  0  0  0  0  0
   26.7924  -20.1818  -13.5035 N   0  0  0  0  0  0  0  0  0  0  0  0
   24.8153  -20.2589  -12.1129 C   0  0  0  0  0  0  0  0  0  0  0  0
   24.7374  -19.1072  -11.6124 O   0  0  0  0  0  0  0  0  0  0  0  0
   23.6096  -20.9233  -12.3783 N   0  0  0  0  0  0  0  0  0  0  0  0
   22.3409  -20.2264  -12.1096 C   0  0  1  0  0  0  0  0  0  0  0  0
   21.8299  -19.5154  -13.3040 C   0  0  0  0  0  0  0  0  0  0  0  0
   21.6773  -20.3010  -14.5297 C   0  0  0  0  0  0  0  0  0  0  0  0
   20.9693  -21.4691  -14.6474 C   0  0  0  0  0  0  0  0  0  0  0  0
   20.9838  -21.8571  -15.9071 N   0  0  0  0  0  0  0  0  0  0  0  0
   21.6909  -20.9743  -16.6461 C   0  0  0  0  0  0  0  0  0  0  0  0
   22.0158  -20.9135  -17.9837 C   0  0  0  0  0  0  0  0  0  0  0  0
   22.7827  -19.8874  -18.4903 C   0  0  0  0  0  0  0  0  0  0  0  0
   23.2240  -18.9073  -17.6193 C   0  0  0  0  0  0  0  0  0  0  0  0
   22.9118  -18.9517  -16.2911 C   0  0  0  0  0  0  0  0  0  0  0  0
   22.1409  -19.9837  -15.8068 C   0  0  0  0  0  0  0  0  0  0  0  0
   21.4010  -21.2919  -11.5858 C   0  0  0  0  0  0  0  0  0  0  0  0
   20.1432  -20.9794  -11.0877 O   0  0  0  0  0  0  0  0  0  0  0  0
   21.7397  -22.4918  -11.5831 O   0  0  0  0  0  0  0  0  0  0  0  0
  2  1  1  6
  3  2  1  0
  4  5  1  0
  4  2  1  0
  5  7  1  0
  5  6  1  6
  7  8  2  0
  9 10  1  0
 10 11  1  0
 11 13  1  0
 11 12  1  1
 13 15  1  0
 13 14  1  6
 14  7  1  0
 15 17  1  0
 16 15  2  0
 17 18  1  0
 18 19  1  6
 19 20  1  0
 20 21  2  0
 22 21  1  0
 23 22  1  0
 24 23  2  0
 25 24  1  0
 26 27  1  0
 26 25  2  0
 27 28  2  0
 28 23  1  0
 28 20  1  0
 29 30  1  0
 29 18  1  0
 31 29  2  0
M  END
$$$$
