LIW.pdb
     RDKit          3D

 31 32  0  0  1  0  0  0  0  0999 V2000
   27.7378  -17.5056  -16.8652 C   0  0  0  0  0  0  0  0  0  0  0  0
   28.3129  -18.6793  -16.1115 C   0  0  1  0  0  0  0  0  0  0  0  0
   29.4611  -18.1180  -15.2689 C   0  0  0  0  0  0  0  0  0  0  0  0
   27.3413  -19.2355  -15.1108 C   0  0  0  0  0  0  0  0  0  0  0  0
   27.8175  -20.3458  -14.2752 C   0  0  2  0  0  0  0  0  0  0  0  0
   28.3780  -21.3713  -15.1376 N   0  0  0  0  0  0  0  0  0  0  0  0
   26.7769  -20.9458  -13.3717 C   0  0  0  0  0  0  0  0  0  0  0  0
   26.0668  -21.8655  -13.8023 O   0  0  0  0  0  0  0  0  0  0  0  0
   27.4104  -20.4598   -7.8195 C   0  0  0  0  0  0  0  0  0  0  0  0
   26.9970  -21.0287   -9.1342 C   0  0  0  0  0  0  0  0  0  0  0  0
   25.7677  -20.5436   -9.7549 C   0  0  2  0  0  0  0  0  0  0  0  0
   24.5655  -20.9898   -8.8843 C   0  0  0  0  0  0  0  0  0  0  0  0
   25.4878  -20.7405  -11.1846 C   0  0  2  0  0  0  0  0  0  0  0  0
   26.6098  -20.4745  -12.0544 N   0  0  0  0  0  0  0  0  0  0  0  0
   24.2419  -20.1469  -11.6881 C   0  0  0  0  0  0  0  0  0  0  0  0
   24.2529  -18.9259  -11.9908 O   0  0  0  0  0  0  0  0  0  0  0  0
   23.0319  -20.8356  -11.8538 N   0  0  0  0  0  0  0  0  0  0  0  0
   21.8944  -20.1339  -12.4711 C   0  0  1  0  0  0  0  0  0  0  0  0
   22.1767  -19.7330  -13.8685 C   0  0  0  0  0  0  0  0  0  0  0  0
   21.6260  -20.5811  -14.9269 C   0  0  0  0  0  0  0  0  0  0  0  0
   20.3030  -20.9040  -15.0851 C   0  0  0  0  0  0  0  0  0  0  0  0
   20.1621  -21.6193  -16.1833 N   0  0  0  0  0  0  0  0  0  0  0  0
   21.3661  -21.7894  -16.7722 C   0  0  0  0  0  0  0  0  0  0  0  0
   21.7723  -22.4508  -17.9106 C   0  0  0  0  0  0  0  0  0  0  0  0
   23.0969  -22.4846  -18.2874 C   0  0  0  0  0  0  0  0  0  0  0  0
   24.0215  -21.8324  -17.4913 C   0  0  0  0  0  0  0  0  0  0  0  0
   23.6370  -21.1723  -16.3599 C   0  0  0  0  0  0  0  0  0  0  0  0
   22.3077  -21.1477  -16.0042 C   0  0  0  0  0  0  0  0  0  0  0  0
   20.7183  -21.0776  -12.3334 C   0  0  0  0  0  0  0  0  0  0  0  0
   19.4064  -20.6242  -12.3694 O   0  0  0  0  0  0  0  0  0  0  0  0
   20.9007  -22.3009  -12.1760 O   0  0  0  0  0  0  0  0  0  0  0  0
  2  1  1  1
  3  2  1  0
  4  5  1  0
  4  2  1  0
  5  7  1  0
  5  6  1  6
  7  8  2  0
  9 10  1  0
 10 11  1  0
 11 13  1  0
 11 12  1  1
 13 15  1  0
 13 14  1  6
 14  7  1  0
 15 17  1  0
 16 15  2  0
 17 18  1  0
 18 19  1  6
 19 20  1  0
 20 21  2  0
 22 21  1  0
 23 22  1  0
 24 23  2  0
 25 24  1  0
 26 27  1  0
 26 25  2  0
 27 28  2  0
 28 23  1  0
 28 20  1  0
 29 30  1  0
 29 18  1  0
 31 29  2  0
M  END
$$$$
