LIW.pdb
     RDKit          3D

 31 32  0  0  1  0  0  0  0  0999 V2000
   28.1688  -17.9636  -17.2586 C   0  0  0  0  0  0  0  0  0  0  0  0
   28.8080  -18.8644  -16.2307 C   0  0  1  0  0  0  0  0  0  0  0  0
   29.5821  -17.9426  -15.2849 C   0  0  0  0  0  0  0  0  0  0  0  0
   27.7866  -19.5357  -15.3586 C   0  0  0  0  0  0  0  0  0  0  0  0
   28.2950  -20.2728  -14.1941 C   0  0  2  0  0  0  0  0  0  0  0  0
   29.2414  -21.2745  -14.6531 N   0  0  0  0  0  0  0  0  0  0  0  0
   27.2358  -20.9170  -13.3444 C   0  0  0  0  0  0  0  0  0  0  0  0
   26.6153  -21.8905  -13.7947 O   0  0  0  0  0  0  0  0  0  0  0  0
   27.5925  -20.0956   -7.8440 C   0  0  0  0  0  0  0  0  0  0  0  0
   27.2259  -20.8667   -9.0663 C   0  0  0  0  0  0  0  0  0  0  0  0
   26.0138  -20.4988   -9.7924 C   0  0  2  0  0  0  0  0  0  0  0  0
   24.7850  -20.9558   -8.9657 C   0  0  0  0  0  0  0  0  0  0  0  0
   25.8370  -20.8083  -11.2186 C   0  0  2  0  0  0  0  0  0  0  0  0
   26.9512  -20.4263  -12.0547 N   0  0  0  0  0  0  0  0  0  0  0  0
   24.5454  -20.4306  -11.8078 C   0  0  0  0  0  0  0  0  0  0  0  0
   24.2922  -19.2046  -11.9325 O   0  0  0  0  0  0  0  0  0  0  0  0
   23.5633  -21.3332  -12.2398 N   0  0  0  0  0  0  0  0  0  0  0  0
   22.3528  -20.8069  -12.8917 C   0  0  1  0  0  0  0  0  0  0  0  0
   22.0697  -21.4863  -14.1768 C   0  0  0  0  0  0  0  0  0  0  0  0
   20.8459  -21.0961  -14.8789 C   0  0  0  0  0  0  0  0  0  0  0  0
   20.5591  -19.8399  -15.3470 C   0  0  0  0  0  0  0  0  0  0  0  0
   19.4097  -19.8720  -15.9916 N   0  0  0  0  0  0  0  0  0  0  0  0
   18.9102  -21.1272  -15.9673 C   0  0  0  0  0  0  0  0  0  0  0  0
   17.7588  -21.6920  -16.4706 C   0  0  0  0  0  0  0  0  0  0  0  0
   17.4747  -23.0275  -16.2874 C   0  0  0  0  0  0  0  0  0  0  0  0
   18.3800  -23.7991  -15.5810 C   0  0  0  0  0  0  0  0  0  0  0  0
   19.5258  -23.2562  -15.0751 C   0  0  0  0  0  0  0  0  0  0  0  0
   19.7918  -21.9205  -15.2734 C   0  0  0  0  0  0  0  0  0  0  0  0
   21.2481  -20.9561  -11.8669 C   0  0  0  0  0  0  0  0  0  0  0  0
   20.1021  -20.1730  -11.9049 O   0  0  0  0  0  0  0  0  0  0  0  0
   21.3437  -21.7928  -10.9475 O   0  0  0  0  0  0  0  0  0  0  0  0
  2  1  1  6
  3  2  1  0
  4  5  1  0
  4  2  1  0
  5  7  1  0
  5  6  1  6
  7  8  2  0
  9 10  1  0
 10 11  1  0
 11 13  1  0
 11 12  1  1
 13 15  1  0
 13 14  1  6
 14  7  1  0
 15 17  1  0
 16 15  2  0
 17 18  1  0
 18 19  1  6
 19 20  1  0
 20 21  2  0
 22 21  1  0
 23 22  1  0
 24 23  2  0
 25 24  1  0
 26 27  1  0
 26 25  2  0
 27 28  2  0
 28 23  1  0
 28 20  1  0
 29 30  1  0
 29 18  1  0
 31 29  2  0
M  END
$$$$
