LIW.pdb
     RDKit          3D

 31 32  0  0  1  0  0  0  0  0999 V2000
   23.1037  -13.6198  -15.9170 C   0  0  0  0  0  0  0  0  0  0  0  0
   24.3568  -14.3314  -16.3645 C   0  0  1  0  0  0  0  0  0  0  0  0
   25.5186  -13.6180  -15.6682 C   0  0  0  0  0  0  0  0  0  0  0  0
   24.4145  -15.7426  -15.8548 C   0  0  0  0  0  0  0  0  0  0  0  0
   25.6375  -16.5012  -16.1492 C   0  0  2  0  0  0  0  0  0  0  0  0
   25.7987  -16.5848  -17.5903 N   0  0  0  0  0  0  0  0  0  0  0  0
   25.6866  -17.8767  -15.5454 C   0  0  0  0  0  0  0  0  0  0  0  0
   24.9783  -18.7704  -16.0303 O   0  0  0  0  0  0  0  0  0  0  0  0
   28.8667  -21.3109  -16.5349 C   0  0  0  0  0  0  0  0  0  0  0  0
   27.8896  -20.3499  -15.9476 C   0  0  0  0  0  0  0  0  0  0  0  0
   27.7908  -20.2475  -14.4945 C   0  0  2  0  0  0  0  0  0  0  0  0
   27.8522  -21.6748  -13.8936 C   0  0  0  0  0  0  0  0  0  0  0  0
   26.7493  -19.4422  -13.8404 C   0  0  2  0  0  0  0  0  0  0  0  0
   26.5250  -18.1505  -14.4467 N   0  0  0  0  0  0  0  0  0  0  0  0
   26.8167  -19.3636  -12.3750 C   0  0  0  0  0  0  0  0  0  0  0  0
   27.9273  -19.5802  -11.8251 O   0  0  0  0  0  0  0  0  0  0  0  0
   25.7336  -19.0704  -11.5342 N   0  0  0  0  0  0  0  0  0  0  0  0
   25.1691  -20.1459  -10.7024 C   0  0  1  0  0  0  0  0  0  0  0  0
   24.4555  -21.1613  -11.5105 C   0  0  0  0  0  0  0  0  0  0  0  0
   23.1574  -20.7754  -12.0661 C   0  0  0  0  0  0  0  0  0  0  0  0
   22.1241  -20.2099  -11.3647 C   0  0  0  0  0  0  0  0  0  0  0  0
   21.1424  -19.9258  -12.1973 N   0  0  0  0  0  0  0  0  0  0  0  0
   21.4902  -20.2904  -13.4510 C   0  0  0  0  0  0  0  0  0  0  0  0
   20.8407  -20.2263  -14.6643 C   0  0  0  0  0  0  0  0  0  0  0  0
   21.4285  -20.6942  -15.8190 C   0  0  0  0  0  0  0  0  0  0  0  0
   22.6993  -21.2346  -15.7348 C   0  0  0  0  0  0  0  0  0  0  0  0
   23.3576  -21.3062  -14.5411 C   0  0  0  0  0  0  0  0  0  0  0  0
   22.7533  -20.8290  -13.4004 C   0  0  0  0  0  0  0  0  0  0  0  0
   26.3388  -20.7026   -9.9184 C   0  0  0  0  0  0  0  0  0  0  0  0
   26.4661  -20.5026   -8.5503 O   0  0  0  0  0  0  0  0  0  0  0  0
   27.2321  -21.3582  -10.4902 O   0  0  0  0  0  0  0  0  0  0  0  0
  2  1  1  1
  3  2  1  0
  4  5  1  0
  4  2  1  0
  5  7  1  0
  5  6  1  6
  7  8  2  0
  9 10  1  0
 10 11  1  0
 11 13  1  0
 11 12  1  1
 13 15  1  0
 13 14  1  6
 14  7  1  0
 15 17  1  0
 16 15  2  0
 17 18  1  0
 18 19  1  6
 19 20  1  0
 20 21  2  0
 22 21  1  0
 23 22  1  0
 24 23  2  0
 25 24  1  0
 26 27  1  0
 26 25  2  0
 27 28  2  0
 28 23  1  0
 28 20  1  0
 29 30  1  0
 29 18  1  0
 31 29  2  0
M  END
$$$$
