LIW.pdb
     RDKit          3D

 31 32  0  0  1  0  0  0  0  0999 V2000
   27.5416  -18.6728  -17.0404 C   0  0  0  0  0  0  0  0  0  0  0  0
   28.2640  -19.3457  -15.8993 C   0  0  1  0  0  0  0  0  0  0  0  0
   29.0098  -18.2333  -15.1576 C   0  0  0  0  0  0  0  0  0  0  0  0
   27.3110  -19.9088  -14.8846 C   0  0  0  0  0  0  0  0  0  0  0  0
   27.8932  -20.3708  -13.6176 C   0  0  2  0  0  0  0  0  0  0  0  0
   28.8927  -21.3845  -13.9058 N   0  0  0  0  0  0  0  0  0  0  0  0
   26.8981  -20.8979  -12.6220 C   0  0  0  0  0  0  0  0  0  0  0  0
   26.0020  -21.6585  -13.0146 O   0  0  0  0  0  0  0  0  0  0  0  0
   28.2909  -20.4246   -7.0952 C   0  0  0  0  0  0  0  0  0  0  0  0
   27.7815  -20.9894   -8.3776 C   0  0  0  0  0  0  0  0  0  0  0  0
   26.4746  -20.5587   -8.8655 C   0  0  2  0  0  0  0  0  0  0  0  0
   25.4012  -20.9583   -7.8214 C   0  0  0  0  0  0  0  0  0  0  0  0
   26.0188  -20.8524  -10.2320 C   0  0  2  0  0  0  0  0  0  0  0  0
   26.9806  -20.5372  -11.2625 N   0  0  0  0  0  0  0  0  0  0  0  0
   24.6662  -20.3940  -10.5759 C   0  0  0  0  0  0  0  0  0  0  0  0
   24.4973  -19.1647  -10.7838 O   0  0  0  0  0  0  0  0  0  0  0  0
   23.5397  -21.2215  -10.6859 N   0  0  0  0  0  0  0  0  0  0  0  0
   22.4136  -20.7799  -11.5251 C   0  0  1  0  0  0  0  0  0  0  0  0
   22.5639  -21.2109  -12.9340 C   0  0  0  0  0  0  0  0  0  0  0  0
   21.4700  -20.8819  -13.8494 C   0  0  0  0  0  0  0  0  0  0  0  0
   20.8111  -19.6812  -13.9084 C   0  0  0  0  0  0  0  0  0  0  0  0
   19.9407  -19.7151  -14.8978 N   0  0  0  0  0  0  0  0  0  0  0  0
   19.9956  -20.9184  -15.5099 C   0  0  0  0  0  0  0  0  0  0  0  0
   19.3070  -21.4680  -16.5692 C   0  0  0  0  0  0  0  0  0  0  0  0
   19.5514  -22.7554  -16.9940 C   0  0  0  0  0  0  0  0  0  0  0  0
   20.5143  -23.4933  -16.3288 C   0  0  0  0  0  0  0  0  0  0  0  0
   21.2061  -22.9648  -15.2773 C   0  0  0  0  0  0  0  0  0  0  0  0
   20.9488  -21.6750  -14.8720 C   0  0  0  0  0  0  0  0  0  0  0  0
   21.1725  -21.3246  -10.8500 C   0  0  0  0  0  0  0  0  0  0  0  0
   21.2469  -22.2162   -9.7883 O   0  0  0  0  0  0  0  0  0  0  0  0
   20.0374  -20.9864  -11.2396 O   0  0  0  0  0  0  0  0  0  0  0  0
  2  1  1  6
  3  2  1  0
  4  5  1  0
  4  2  1  0
  5  7  1  0
  5  6  1  6
  7  8  2  0
  9 10  1  0
 10 11  1  0
 11 13  1  0
 11 12  1  1
 13 15  1  0
 13 14  1  6
 14  7  1  0
 15 17  1  0
 16 15  2  0
 17 18  1  0
 18 19  1  6
 19 20  1  0
 20 21  2  0
 22 21  1  0
 23 22  1  0
 24 23  2  0
 25 24  1  0
 26 27  1  0
 26 25  2  0
 27 28  2  0
 28 23  1  0
 28 20  1  0
 29 30  1  0
 29 18  1  0
 31 29  2  0
M  END
$$$$
