TTA.pdb
     RDKit          3D

 20 19  0  0  1  0  0  0  0  0999 V2000
   14.4874  -18.4933   18.6193 C   0  0  0  0  0  0  0  0  0  0  0  0
   14.0066  -18.0960   17.2556 C   0  0  1  0  0  0  0  0  0  0  0  0
   14.9069  -18.4360   16.2563 O   0  0  0  0  0  0  0  0  0  0  0  0
   12.6082  -18.6410   16.9742 C   0  0  2  0  0  0  0  0  0  0  0  0
   12.2365  -18.3271   15.6068 N   0  0  0  0  0  0  0  0  0  0  0  0
   11.6011  -18.0600   17.8828 C   0  0  0  0  0  0  0  0  0  0  0  0
   11.2059  -16.8930   17.6659 O   0  0  0  0  0  0  0  0  0  0  0  0
    8.5254  -20.0216   19.0268 C   0  0  0  0  0  0  0  0  0  0  0  0
    9.1745  -19.4011   20.2342 C   0  0  1  0  0  0  0  0  0  0  0  0
    9.7839  -20.3671   21.0258 O   0  0  0  0  0  0  0  0  0  0  0  0
   10.0874  -18.2607   19.8884 C   0  0  2  0  0  0  0  0  0  0  0  0
   11.0806  -18.7663   18.9667 N   0  0  0  0  0  0  0  0  0  0  0  0
   10.6858  -17.5937   21.0622 C   0  0  0  0  0  0  0  0  0  0  0  0
   11.8909  -17.7578   21.3858 O   0  0  0  0  0  0  0  0  0  0  0  0
    9.5674  -15.0010   23.5427 C   0  0  0  0  0  0  0  0  0  0  0  0
   10.5928  -15.9828   22.9579 C   0  0  2  0  0  0  0  0  0  0  0  0
    9.9613  -16.7206   21.9154 N   0  0  0  0  0  0  0  0  0  0  0  0
   11.1136  -16.7739   24.0628 C   0  0  0  0  0  0  0  0  0  0  0  0
   12.0641  -16.3567   24.9839 O   0  0  0  0  0  0  0  0  0  0  0  0
   10.6694  -17.9431   24.2056 O   0  0  0  0  0  0  0  0  0  0  0  0
  2  1  1  1
  2  3  1  0
  2  4  1  0
  4  5  1  6
  6  4  1  0
  6 12  1  0
  7  6  2  0
  9  8  1  6
 10  9  1  0
 11  9  1  0
 11 12  1  6
 11 13  1  0
 13 14  2  0
 16 15  1  1
 16 18  1  0
 17 13  1  0
 17 16  1  0
 18 19  1  0
 20 18  2  0
M  END
$$$$
