TTA.pdb
     RDKit          3D

 20 19  0  0  1  0  0  0  0  0999 V2000
   11.8665  -14.8207   20.6532 C   0  0  0  0  0  0  0  0  0  0  0  0
   11.2686  -13.9334   19.6025 C   0  0  1  0  0  0  0  0  0  0  0  0
   11.9288  -14.0329   18.3864 O   0  0  0  0  0  0  0  0  0  0  0  0
    9.7669  -14.1700   19.4583 C   0  0  2  0  0  0  0  0  0  0  0  0
    9.2448  -13.3157   18.4075 N   0  0  0  0  0  0  0  0  0  0  0  0
    9.0435  -13.8749   20.7102 C   0  0  0  0  0  0  0  0  0  0  0  0
    8.7222  -12.6894   20.9472 O   0  0  0  0  0  0  0  0  0  0  0  0
    5.7794  -15.1420   21.8665 C   0  0  0  0  0  0  0  0  0  0  0  0
    6.8102  -15.5378   22.8889 C   0  0  1  0  0  0  0  0  0  0  0  0
    7.1265  -16.8869   22.7831 O   0  0  0  0  0  0  0  0  0  0  0  0
    8.0180  -14.6466   22.8797 C   0  0  2  0  0  0  0  0  0  0  0  0
    8.7098  -14.8692   21.6292 N   0  0  0  0  0  0  0  0  0  0  0  0
    8.8964  -14.8139   24.0550 C   0  0  0  0  0  0  0  0  0  0  0  0
    9.9348  -15.5242   24.0215 O   0  0  0  0  0  0  0  0  0  0  0  0
    9.1705  -13.3627   27.4975 C   0  0  0  0  0  0  0  0  0  0  0  0
    9.4523  -14.4538   26.4546 C   0  0  2  0  0  0  0  0  0  0  0  0
    8.6474  -14.1949   25.3079 N   0  0  0  0  0  0  0  0  0  0  0  0
    9.2315  -15.7385   27.1018 C   0  0  0  0  0  0  0  0  0  0  0  0
   10.0330  -16.3015   28.0849 O   0  0  0  0  0  0  0  0  0  0  0  0
    8.2264  -16.4077   26.7460 O   0  0  0  0  0  0  0  0  0  0  0  0
  2  1  1  1
  2  3  1  0
  2  4  1  0
  4  5  1  6
  6  4  1  0
  6 12  1  0
  7  6  2  0
  9  8  1  6
 10  9  1  0
 11  9  1  0
 11 12  1  6
 11 13  1  0
 13 14  2  0
 16 15  1  1
 16 18  1  0
 17 13  1  0
 17 16  1  0
 18 19  1  0
 20 18  2  0
M  END
$$$$
