TTA.pdb
     RDKit          3D

 20 19  0  0  1  0  0  0  0  0999 V2000
    8.3137  -19.1707   18.0957 C   0  0  0  0  0  0  0  0  0  0  0  0
    8.7243  -18.4464   16.8485 C   0  0  1  0  0  0  0  0  0  0  0  0
    8.3129  -19.1003   15.6961 O   0  0  0  0  0  0  0  0  0  0  0  0
    8.2690  -16.9890   16.8719 C   0  0  2  0  0  0  0  0  0  0  0  0
    8.6158  -16.3572   15.6120 N   0  0  0  0  0  0  0  0  0  0  0  0
    8.9043  -16.2345   17.9694 C   0  0  0  0  0  0  0  0  0  0  0  0
   10.0795  -15.8343   17.8149 O   0  0  0  0  0  0  0  0  0  0  0  0
    7.4118  -13.2189   19.6459 C   0  0  0  0  0  0  0  0  0  0  0  0
    7.7608  -14.2208   20.7131 C   0  0  1  0  0  0  0  0  0  0  0  0
    6.6180  -14.8203   21.2285 O   0  0  0  0  0  0  0  0  0  0  0  0
    8.7980  -15.2117   20.2708 C   0  0  2  0  0  0  0  0  0  0  0  0
    8.2400  -15.9562   19.1635 N   0  0  0  0  0  0  0  0  0  0  0  0
    9.2936  -16.0854   21.3534 C   0  0  0  0  0  0  0  0  0  0  0  0
    8.7565  -17.1912   21.6227 O   0  0  0  0  0  0  0  0  0  0  0  0
   12.3623  -16.4206   23.3927 C   0  0  0  0  0  0  0  0  0  0  0  0
   10.8472  -16.6058   23.2276 C   0  0  2  0  0  0  0  0  0  0  0  0
   10.4052  -15.7563   22.1726 N   0  0  0  0  0  0  0  0  0  0  0  0
   10.2376  -16.3650   24.5270 C   0  0  0  0  0  0  0  0  0  0  0  0
   10.3847  -17.1617   25.6538 O   0  0  0  0  0  0  0  0  0  0  0  0
    9.5094  -15.3457   24.6518 O   0  0  0  0  0  0  0  0  0  0  0  0
  2  1  1  1
  2  3  1  0
  2  4  1  0
  4  5  1  6
  6  4  1  0
  6 12  1  0
  7  6  2  0
  9  8  1  6
 10  9  1  0
 11  9  1  0
 11 12  1  6
 11 13  1  0
 13 14  2  0
 16 15  1  1
 16 18  1  0
 17 13  1  0
 17 16  1  0
 18 19  1  0
 20 18  2  0
M  END
$$$$
