TTA.pdb
     RDKit          3D

 20 19  0  0  1  0  0  0  0  0999 V2000
    6.6003  -18.9470   19.0974 C   0  0  0  0  0  0  0  0  0  0  0  0
    7.3179  -19.1555   17.7973 C   0  0  1  0  0  0  0  0  0  0  0  0
    6.7031  -20.1097   16.9997 O   0  0  0  0  0  0  0  0  0  0  0  0
    7.5251  -17.8375   17.0545 C   0  0  2  0  0  0  0  0  0  0  0  0
    8.2618  -18.0874   15.8292 N   0  0  0  0  0  0  0  0  0  0  0  0
    8.2777  -16.8631   17.8679 C   0  0  0  0  0  0  0  0  0  0  0  0
    9.5158  -17.0065   17.9748 O   0  0  0  0  0  0  0  0  0  0  0  0
    8.0402  -12.5824   20.3891 C   0  0  0  0  0  0  0  0  0  0  0  0
    7.5466  -13.5878   19.3841 C   0  0  1  0  0  0  0  0  0  0  0  0
    7.4796  -13.0316   18.1124 O   0  0  0  0  0  0  0  0  0  0  0  0
    8.3102  -14.8796   19.4231 C   0  0  2  0  0  0  0  0  0  0  0  0
    7.6559  -15.7960   18.5154 N   0  0  0  0  0  0  0  0  0  0  0  0
    8.4733  -15.4397   20.7798 C   0  0  0  0  0  0  0  0  0  0  0  0
    7.5070  -15.9167   21.4299 O   0  0  0  0  0  0  0  0  0  0  0  0
    9.5951  -17.6076   22.5764 C   0  0  0  0  0  0  0  0  0  0  0  0
    9.8645  -16.1043   22.7343 C   0  0  2  0  0  0  0  0  0  0  0  0
    9.7193  -15.4875   21.4581 N   0  0  0  0  0  0  0  0  0  0  0  0
   11.1721  -15.9619   23.3573 C   0  0  0  0  0  0  0  0  0  0  0  0
   12.2745  -15.3319   22.7976 O   0  0  0  0  0  0  0  0  0  0  0  0
   11.3286  -16.4503   24.5070 O   0  0  0  0  0  0  0  0  0  0  0  0
  2  1  1  1
  2  3  1  0
  2  4  1  0
  4  5  1  6
  6  4  1  0
  6 12  1  0
  7  6  2  0
  9  8  1  1
 10  9  1  0
 11  9  1  0
 11 12  1  6
 11 13  1  0
 13 14  2  0
 16 15  1  6
 16 18  1  0
 17 13  1  0
 17 16  1  0
 18 19  1  0
 20 18  2  0
M  END
$$$$
