TTA.pdb
     RDKit          3D

 20 19  0  0  1  0  0  0  0  0999 V2000
   12.4545  -17.4169   18.5843 C   0  0  0  0  0  0  0  0  0  0  0  0
   13.4375  -16.3304   18.2650 C   0  0  1  0  0  0  0  0  0  0  0  0
   14.2737  -16.6656   17.2099 O   0  0  0  0  0  0  0  0  0  0  0  0
   12.7383  -14.9922   18.0369 C   0  0  2  0  0  0  0  0  0  0  0  0
   13.7290  -13.9811   17.7164 N   0  0  0  0  0  0  0  0  0  0  0  0
   11.9874  -14.5565   19.2301 C   0  0  0  0  0  0  0  0  0  0  0  0
   12.6295  -14.1247   20.2132 O   0  0  0  0  0  0  0  0  0  0  0  0
    8.5952  -12.5413   19.0023 C   0  0  0  0  0  0  0  0  0  0  0  0
    8.4754  -13.7345   19.9113 C   0  0  1  0  0  0  0  0  0  0  0  0
    7.7306  -14.7446   19.3145 O   0  0  0  0  0  0  0  0  0  0  0  0
    9.8002  -14.2092   20.4339 C   0  0  2  0  0  0  0  0  0  0  0  0
   10.5955  -14.6106   19.2946 N   0  0  0  0  0  0  0  0  0  0  0  0
    9.6968  -15.2675   21.4587 C   0  0  0  0  0  0  0  0  0  0  0  0
    9.7467  -16.4910   21.1677 O   0  0  0  0  0  0  0  0  0  0  0  0
   10.2222  -15.5945   25.0637 C   0  0  0  0  0  0  0  0  0  0  0  0
    9.4507  -16.0386   23.8128 C   0  0  2  0  0  0  0  0  0  0  0  0
    9.5346  -14.9982   22.8429 N   0  0  0  0  0  0  0  0  0  0  0  0
    8.1054  -16.3958   24.2380 C   0  0  0  0  0  0  0  0  0  0  0  0
    7.7637  -17.4923   25.0170 O   0  0  0  0  0  0  0  0  0  0  0  0
    7.1590  -15.6506   23.8724 O   0  0  0  0  0  0  0  0  0  0  0  0
  2  1  1  6
  2  3  1  0
  2  4  1  0
  4  5  1  1
  6  4  1  0
  6 12  1  0
  7  6  2  0
  9  8  1  6
 10  9  1  0
 11  9  1  0
 11 12  1  6
 11 13  1  0
 13 14  2  0
 16 15  1  1
 16 18  1  0
 17 13  1  0
 17 16  1  0
 18 19  1  0
 20 18  2  0
M  END
$$$$
