TTA.pdb
     RDKit          3D

 20 19  0  0  1  0  0  0  0  0999 V2000
    8.2450  -19.4200   18.7567 C   0  0  0  0  0  0  0  0  0  0  0  0
    8.6986  -18.8222   17.4584 C   0  0  1  0  0  0  0  0  0  0  0  0
    8.2898  -19.5659   16.3609 O   0  0  0  0  0  0  0  0  0  0  0  0
    8.2847  -17.3570   17.3419 C   0  0  2  0  0  0  0  0  0  0  0  0
    8.6982  -16.8424   16.0492 N   0  0  0  0  0  0  0  0  0  0  0  0
    8.8981  -16.5291   18.3982 C   0  0  0  0  0  0  0  0  0  0  0  0
   10.0720  -16.1285   18.2347 O   0  0  0  0  0  0  0  0  0  0  0  0
    7.4025  -13.3781   19.8670 C   0  0  0  0  0  0  0  0  0  0  0  0
    7.6901  -14.3493   20.9800 C   0  0  1  0  0  0  0  0  0  0  0  0
    6.5191  -14.9317   21.4499 O   0  0  0  0  0  0  0  0  0  0  0  0
    8.7464  -15.3543   20.6232 C   0  0  2  0  0  0  0  0  0  0  0  0
    8.2148  -16.1823   19.5632 N   0  0  0  0  0  0  0  0  0  0  0  0
    9.2367  -16.1430   21.7715 C   0  0  0  0  0  0  0  0  0  0  0  0
    8.7019  -17.2282   22.1180 O   0  0  0  0  0  0  0  0  0  0  0  0
   12.3227  -16.2505   23.8293 C   0  0  0  0  0  0  0  0  0  0  0  0
   10.8305  -16.5577   23.6383 C   0  0  2  0  0  0  0  0  0  0  0  0
   10.3404  -15.7490   22.5725 N   0  0  0  0  0  0  0  0  0  0  0  0
   10.1804  -16.3640   24.9259 C   0  0  0  0  0  0  0  0  0  0  0  0
   10.3852  -17.1322   26.0633 O   0  0  0  0  0  0  0  0  0  0  0  0
    9.3565  -15.4178   25.0289 O   0  0  0  0  0  0  0  0  0  0  0  0
  2  1  1  1
  2  3  1  0
  2  4  1  0
  4  5  1  6
  6  4  1  0
  6 12  1  0
  7  6  2  0
  9  8  1  6
 10  9  1  0
 11  9  1  0
 11 12  1  6
 11 13  1  0
 13 14  2  0
 16 15  1  1
 16 18  1  0
 17 13  1  0
 17 16  1  0
 18 19  1  0
 20 18  2  0
M  END
$$$$
