TTA.pdb
     RDKit          3D

 20 19  0  0  1  0  0  0  0  0999 V2000
   -9.0876  -24.3019   31.5661 C   0  0  0  0  0  0  0  0  0  0  0  0
   -9.1910  -22.9647   30.8953 C   0  0  1  0  0  0  0  0  0  0  0  0
  -10.0155  -22.0879   31.5854 O   0  0  0  0  0  0  0  0  0  0  0  0
   -7.8127  -22.3635   30.6298 C   0  0  2  0  0  0  0  0  0  0  0  0
   -7.9686  -21.0371   30.0615 N   0  0  0  0  0  0  0  0  0  0  0  0
   -7.0263  -23.1893   29.6933 C   0  0  0  0  0  0  0  0  0  0  0  0
   -7.5189  -23.4535   28.5741 O   0  0  0  0  0  0  0  0  0  0  0  0
   -4.5243  -22.4642   27.6457 C   0  0  0  0  0  0  0  0  0  0  0  0
   -3.9072  -23.5046   28.5407 C   0  0  1  0  0  0  0  0  0  0  0  0
   -3.0884  -22.9180   29.4982 O   0  0  0  0  0  0  0  0  0  0  0  0
   -4.9171  -24.4480   29.1267 C   0  0  2  0  0  0  0  0  0  0  0  0
   -5.7613  -23.6800   30.0151 N   0  0  0  0  0  0  0  0  0  0  0  0
   -4.3239  -25.6300   29.7838 C   0  0  0  0  0  0  0  0  0  0  0  0
   -3.8210  -25.5759   30.9362 O   0  0  0  0  0  0  0  0  0  0  0  0
   -4.0463  -29.2966   29.0106 C   0  0  0  0  0  0  0  0  0  0  0  0
   -3.7532  -28.0519   29.8603 C   0  0  2  0  0  0  0  0  0  0  0  0
   -4.2712  -26.9130   29.1787 N   0  0  0  0  0  0  0  0  0  0  0  0
   -2.3214  -28.0327   30.1204 C   0  0  0  0  0  0  0  0  0  0  0  0
   -1.6634  -28.7641   31.0991 O   0  0  0  0  0  0  0  0  0  0  0  0
   -1.6057  -27.2897   29.3990 O   0  0  0  0  0  0  0  0  0  0  0  0
  2  1  1  1
  2  3  1  0
  2  4  1  0
  4  5  1  6
  6  4  1  0
  6 12  1  0
  7  6  2  0
  9  8  1  1
 10  9  1  0
 11  9  1  0
 11 12  1  1
 11 13  1  0
 13 14  2  0
 16 15  1  6
 16 18  1  0
 17 13  1  0
 17 16  1  0
 18 19  1  0
 20 18  2  0
M  END
$$$$
