TTA.pdb
     RDKit          3D

 20 19  0  0  1  0  0  0  0  0999 V2000
   11.2178  -19.4350   21.6312 C   0  0  0  0  0  0  0  0  0  0  0  0
   11.9144  -19.1810   20.3277 C   0  0  1  0  0  0  0  0  0  0  0  0
   12.4469  -20.3377   19.7772 O   0  0  0  0  0  0  0  0  0  0  0  0
   11.0090  -18.4441   19.3434 C   0  0  2  0  0  0  0  0  0  0  0  0
   11.7348  -18.2055   18.1093 N   0  0  0  0  0  0  0  0  0  0  0  0
   10.5546  -17.1478   19.8824 C   0  0  0  0  0  0  0  0  0  0  0  0
   11.3100  -16.1572   19.7677 O   0  0  0  0  0  0  0  0  0  0  0  0
    6.7794  -14.3825   21.3039 C   0  0  0  0  0  0  0  0  0  0  0  0
    7.3627  -15.7309   20.9781 C   0  0  1  0  0  0  0  0  0  0  0  0
    6.9376  -16.1710   19.7304 O   0  0  0  0  0  0  0  0  0  0  0  0
    8.8538  -15.7807   21.1442 C   0  0  2  0  0  0  0  0  0  0  0  0
    9.3190  -16.9946   20.5103 N   0  0  0  0  0  0  0  0  0  0  0  0
    9.3061  -15.6592   22.5447 C   0  0  0  0  0  0  0  0  0  0  0  0
   10.4728  -15.9669   22.9026 O   0  0  0  0  0  0  0  0  0  0  0  0
    8.1806  -13.8389   25.5561 C   0  0  0  0  0  0  0  0  0  0  0  0
    8.9595  -14.9990   24.9199 C   0  0  2  0  0  0  0  0  0  0  0  0
    8.4733  -15.1902   23.5943 N   0  0  0  0  0  0  0  0  0  0  0  0
    8.8323  -16.1446   25.8084 C   0  0  0  0  0  0  0  0  0  0  0  0
    9.4756  -16.3025   27.0279 O   0  0  0  0  0  0  0  0  0  0  0  0
    8.0735  -17.0825   25.4488 O   0  0  0  0  0  0  0  0  0  0  0  0
  2  1  1  1
  2  3  1  0
  2  4  1  0
  4  5  1  6
  6  4  1  0
  6 12  1  0
  7  6  2  0
  9  8  1  6
 10  9  1  0
 11  9  1  0
 11 12  1  1
 11 13  1  0
 13 14  2  0
 16 15  1  1
 16 18  1  0
 17 13  1  0
 17 16  1  0
 18 19  1  0
 20 18  2  0
M  END
$$$$
