GKA.pdb
     RDKit          3D

 19 18  0  0  1  0  0  0  0  0999 V2000
   26.9591  -14.7374  -15.9161 N   0  0  0  0  0  0  0  0  0  0  0  0
   26.9187  -15.9029  -15.0764 C   0  0  0  0  0  0  0  0  0  0  0  0
   26.0180  -16.9576  -15.6202 C   0  0  0  0  0  0  0  0  0  0  0  0
   25.2736  -16.7583  -16.6221 O   0  0  0  0  0  0  0  0  0  0  0  0
   25.9847  -18.2221  -15.0081 N   0  0  0  0  0  0  0  0  0  0  0  0
   25.2442  -19.3551  -15.5223 C   0  0  1  0  0  0  0  0  0  0  0  0
   26.0610  -20.6083  -15.3941 C   0  0  0  0  0  0  0  0  0  0  0  0
   26.3020  -21.3240  -16.6675 C   0  0  0  0  0  0  0  0  0  0  0  0
   27.1339  -22.5614  -16.4362 C   0  0  0  0  0  0  0  0  0  0  0  0
   28.5991  -22.3776  -16.6809 C   0  0  0  0  0  0  0  0  0  0  0  0
   29.2283  -23.6715  -16.4292 N   0  0  0  0  0  0  0  0  0  0  0  0
   23.9391  -19.4146  -14.8638 C   0  0  0  0  0  0  0  0  0  0  0  0
   23.8694  -19.5207  -13.6166 O   0  0  0  0  0  0  0  0  0  0  0  0
   20.3796  -18.8877  -15.8559 C   0  0  0  0  0  0  0  0  0  0  0  0
   21.4205  -19.4858  -14.9042 C   0  0  2  0  0  0  0  0  0  0  0  0
   22.7001  -19.3590  -15.5596 N   0  0  0  0  0  0  0  0  0  0  0  0
   21.0715  -20.9012  -14.6380 C   0  0  0  0  0  0  0  0  0  0  0  0
   20.1202  -21.2992  -13.7163 O   0  0  0  0  0  0  0  0  0  0  0  0
   21.6758  -21.7887  -15.2882 O   0  0  0  0  0  0  0  0  0  0  0  0
  1  2  1  0
  3  2  1  0
  3  5  1  0
  4  3  2  0
  6  5  1  0
  6 12  1  0
  6  7  1  1
  8  7  1  0
  9  8  1  0
 10  9  1  0
 11 10  1  0
 12 16  1  0
 13 12  2  0
 15 17  1  0
 15 14  1  6
 16 15  1  0
 17 18  1  0
 19 17  2  0
M  END
$$$$
