GKA.pdb
     RDKit          3D

 19 18  0  0  1  0  0  0  0  0999 V2000
   15.1236  -15.4361  -17.4416 N   0  0  0  0  0  0  0  0  0  0  0  0
   15.2313  -14.0621  -17.8486 C   0  0  0  0  0  0  0  0  0  0  0  0
   16.1609  -13.2885  -16.9785 C   0  0  0  0  0  0  0  0  0  0  0  0
   15.8583  -12.9536  -15.7978 O   0  0  0  0  0  0  0  0  0  0  0  0
   17.4204  -12.9116  -17.4747 N   0  0  0  0  0  0  0  0  0  0  0  0
   18.4136  -12.1895  -16.7075 C   0  0  1  0  0  0  0  0  0  0  0  0
   19.7940  -12.6007  -17.1312 C   0  0  0  0  0  0  0  0  0  0  0  0
   20.5591  -13.3493  -16.1085 C   0  0  0  0  0  0  0  0  0  0  0  0
   20.3988  -14.8369  -16.3033 C   0  0  0  0  0  0  0  0  0  0  0  0
   21.1653  -15.6756  -15.3289 C   0  0  0  0  0  0  0  0  0  0  0  0
   20.8731  -17.0681  -15.6589 N   0  0  0  0  0  0  0  0  0  0  0  0
   18.1517  -10.7540  -16.8131 C   0  0  0  0  0  0  0  0  0  0  0  0
   18.0098  -10.2230  -17.9398 O   0  0  0  0  0  0  0  0  0  0  0  0
   16.8638   -8.0613  -14.7044 C   0  0  0  0  0  0  0  0  0  0  0  0
   17.8432   -8.4621  -15.8122 C   0  0  2  0  0  0  0  0  0  0  0  0
   18.0424   -9.8865  -15.6916 N   0  0  0  0  0  0  0  0  0  0  0  0
   19.1064   -7.7083  -15.6330 C   0  0  0  0  0  0  0  0  0  0  0  0
   19.2207   -6.3424  -15.8182 O   0  0  0  0  0  0  0  0  0  0  0  0
   20.1310   -8.3490  -15.2933 O   0  0  0  0  0  0  0  0  0  0  0  0
  1  2  1  0
  3  2  1  0
  3  5  1  0
  4  3  2  0
  6  5  1  0
  6 12  1  0
  6  7  1  6
  8  7  1  0
  9  8  1  0
 10  9  1  0
 11 10  1  0
 12 16  1  0
 13 12  2  0
 15 17  1  0
 15 14  1  1
 16 15  1  0
 17 18  1  0
 19 17  2  0
M  END
$$$$
