GKA.pdb
     RDKit          3D

 19 18  0  0  1  0  0  0  0  0999 V2000
   33.4410  -35.6855   -6.3777 N   0  0  0  0  0  0  0  0  0  0  0  0
   32.0909  -36.1644   -6.2639 C   0  0  0  0  0  0  0  0  0  0  0  0
   31.2818  -35.3477   -5.3164 C   0  0  0  0  0  0  0  0  0  0  0  0
   31.8019  -34.4774   -4.5616 O   0  0  0  0  0  0  0  0  0  0  0  0
   29.8916  -35.5411   -5.2490 N   0  0  0  0  0  0  0  0  0  0  0  0
   29.0172  -34.8433   -4.3298 C   0  0  1  0  0  0  0  0  0  0  0  0
   27.7012  -34.5492   -4.9900 C   0  0  0  0  0  0  0  0  0  0  0  0
   27.7565  -33.5172   -6.0500 C   0  0  0  0  0  0  0  0  0  0  0  0
   26.4393  -33.4302   -6.7808 C   0  0  0  0  0  0  0  0  0  0  0  0
   26.4501  -32.5237   -7.9718 C   0  0  0  0  0  0  0  0  0  0  0  0
   25.1017  -32.5570   -8.5322 N   0  0  0  0  0  0  0  0  0  0  0  0
   28.9124  -35.6121   -3.0895 C   0  0  0  0  0  0  0  0  0  0  0  0
   28.5932  -36.8238   -3.1269 O   0  0  0  0  0  0  0  0  0  0  0  0
   29.7673  -35.0960    0.5073 C   0  0  0  0  0  0  0  0  0  0  0  0
   28.9525  -35.8078   -0.5775 C   0  0  2  0  0  0  0  0  0  0  0  0
   29.1548  -35.0660   -1.7990 N   0  0  0  0  0  0  0  0  0  0  0  0
   27.5275  -35.8301   -0.1715 C   0  0  0  0  0  0  0  0  0  0  0  0
   27.0235  -36.6469    0.8244 O   0  0  0  0  0  0  0  0  0  0  0  0
   26.7336  -35.0621   -0.7678 O   0  0  0  0  0  0  0  0  0  0  0  0
  1  2  1  0
  3  2  1  0
  3  5  1  0
  4  3  2  0
  6  5  1  0
  6 12  1  0
  6  7  1  6
  8  7  1  0
  9  8  1  0
 10  9  1  0
 11 10  1  0
 12 16  1  0
 13 12  2  0
 15 17  1  0
 15 14  1  1
 16 15  1  0
 17 18  1  0
 19 17  2  0
M  END
$$$$
