GKA.pdb
     RDKit          3D

 19 18  0  0  1  0  0  0  0  0999 V2000
   19.8158  -21.0212  -13.4636 N   0  0  0  0  0  0  0  0  0  0  0  0
   20.4826  -20.7863  -14.7148 C   0  0  0  0  0  0  0  0  0  0  0  0
   21.8679  -20.2716  -14.5266 C   0  0  0  0  0  0  0  0  0  0  0  0
   22.2575  -19.7665  -13.4354 O   0  0  0  0  0  0  0  0  0  0  0  0
   22.7833  -20.3440  -15.5902 N   0  0  0  0  0  0  0  0  0  0  0  0
   24.1923  -20.0319  -15.4730 C   0  0  1  0  0  0  0  0  0  0  0  0
   25.0151  -21.0960  -16.1400 C   0  0  0  0  0  0  0  0  0  0  0  0
   26.4767  -20.9613  -15.9469 C   0  0  0  0  0  0  0  0  0  0  0  0
   27.2101  -22.1072  -16.5993 C   0  0  0  0  0  0  0  0  0  0  0  0
   28.7009  -22.0326  -16.4878 C   0  0  0  0  0  0  0  0  0  0  0  0
   29.2254  -23.2492  -17.1026 N   0  0  0  0  0  0  0  0  0  0  0  0
   24.4284  -18.6797  -15.9792 C   0  0  0  0  0  0  0  0  0  0  0  0
   23.9283  -18.3221  -17.0718 O   0  0  0  0  0  0  0  0  0  0  0  0
   26.4691  -15.7253  -14.8684 C   0  0  0  0  0  0  0  0  0  0  0  0
   25.5193  -16.4116  -15.8553 C   0  0  2  0  0  0  0  0  0  0  0  0
   25.2112  -17.7071  -15.2985 N   0  0  0  0  0  0  0  0  0  0  0  0
   26.1900  -16.5192  -17.1723 C   0  0  0  0  0  0  0  0  0  0  0  0
   27.0960  -17.5128  -17.4959 O   0  0  0  0  0  0  0  0  0  0  0  0
   25.9183  -15.6570  -18.0433 O   0  0  0  0  0  0  0  0  0  0  0  0
  1  2  1  0
  3  2  1  0
  3  5  1  0
  4  3  2  0
  6  5  1  0
  6 12  1  0
  6  7  1  6
  8  7  1  0
  9  8  1  0
 10  9  1  0
 11 10  1  0
 12 16  1  0
 13 12  2  0
 15 17  1  0
 15 14  1  1
 16 15  1  0
 17 18  1  0
 19 17  2  0
M  END
$$$$
