GKA.pdb
     RDKit          3D

 19 18  0  0  1  0  0  0  0  0999 V2000
   14.2379   -8.1458  -15.4711 N   0  0  0  0  0  0  0  0  0  0  0  0
   15.1973   -7.2158  -16.0002 C   0  0  0  0  0  0  0  0  0  0  0  0
   16.5974   -7.6010  -15.6678 C   0  0  0  0  0  0  0  0  0  0  0  0
   16.8903   -8.2381  -14.6161 O   0  0  0  0  0  0  0  0  0  0  0  0
   17.6381   -7.2506  -16.5446 N   0  0  0  0  0  0  0  0  0  0  0  0
   19.0386   -7.5181  -16.2923 C   0  0  1  0  0  0  0  0  0  0  0  0
   19.7099   -7.9893  -17.5499 C   0  0  0  0  0  0  0  0  0  0  0  0
   21.1400   -8.3396  -17.3951 C   0  0  0  0  0  0  0  0  0  0  0  0
   21.7194   -8.8132  -18.7053 C   0  0  0  0  0  0  0  0  0  0  0  0
   23.1765   -9.1516  -18.6523 C   0  0  0  0  0  0  0  0  0  0  0  0
   23.5882   -9.4333  -20.0251 N   0  0  0  0  0  0  0  0  0  0  0  0
   19.6517   -6.3359  -15.6867 C   0  0  0  0  0  0  0  0  0  0  0  0
   19.3987   -5.1951  -16.1407 O   0  0  0  0  0  0  0  0  0  0  0  0
   22.0240   -5.6994  -12.8398 C   0  0  0  0  0  0  0  0  0  0  0  0
   21.1844   -5.2185  -14.0276 C   0  0  2  0  0  0  0  0  0  0  0  0
   20.5454   -6.3881  -14.5817 N   0  0  0  0  0  0  0  0  0  0  0  0
   22.0752   -4.5557  -15.0091 C   0  0  0  0  0  0  0  0  0  0  0  0
   22.4806   -5.1378  -16.1964 O   0  0  0  0  0  0  0  0  0  0  0  0
   22.4842   -3.3987  -14.7451 O   0  0  0  0  0  0  0  0  0  0  0  0
  1  2  1  0
  3  2  1  0
  3  5  1  0
  4  3  2  0
  6  5  1  0
  6 12  1  0
  6  7  1  6
  8  7  1  0
  9  8  1  0
 10  9  1  0
 11 10  1  0
 12 16  1  0
 13 12  2  0
 15 17  1  0
 15 14  1  1
 16 15  1  0
 17 18  1  0
 19 17  2  0
M  END
$$$$
