GKA.pdb
     RDKit          3D

 19 18  0  0  1  0  0  0  0  0999 V2000
   16.3087  -11.4912  -16.1448 N   0  0  0  0  0  0  0  0  0  0  0  0
   16.8499  -10.2116  -16.5122 C   0  0  0  0  0  0  0  0  0  0  0  0
   18.0570   -9.8604  -15.7128 C   0  0  0  0  0  0  0  0  0  0  0  0
   17.9964   -9.6045  -14.4765 O   0  0  0  0  0  0  0  0  0  0  0  0
   19.3123   -9.8080  -16.3420 N   0  0  0  0  0  0  0  0  0  0  0  0
   20.5336   -9.3898  -15.6864 C   0  0  1  0  0  0  0  0  0  0  0  0
   21.6984  -10.1795  -16.2098 C   0  0  0  0  0  0  0  0  0  0  0  0
   22.9861   -9.9083  -15.5314 C   0  0  0  0  0  0  0  0  0  0  0  0
   24.0967  -10.7236  -16.1467 C   0  0  0  0  0  0  0  0  0  0  0  0
   25.4112  -10.6135  -15.4393 C   0  0  0  0  0  0  0  0  0  0  0  0
   26.3145  -11.5585  -16.0909 N   0  0  0  0  0  0  0  0  0  0  0  0
   20.6780   -7.9401  -15.8195 C   0  0  0  0  0  0  0  0  0  0  0  0
   20.6619   -7.4092  -16.9550 O   0  0  0  0  0  0  0  0  0  0  0  0
   19.7938   -4.9147  -14.7837 C   0  0  0  0  0  0  0  0  0  0  0  0
   21.1339   -5.6527  -14.8656 C   0  0  2  0  0  0  0  0  0  0  0  0
   20.8410   -7.0580  -14.7160 N   0  0  0  0  0  0  0  0  0  0  0  0
   22.0238   -5.1541  -13.7907 C   0  0  0  0  0  0  0  0  0  0  0  0
   22.6667   -3.9301  -13.8294 O   0  0  0  0  0  0  0  0  0  0  0  0
   22.2029   -5.8872  -12.7876 O   0  0  0  0  0  0  0  0  0  0  0  0
  1  2  1  0
  3  2  1  0
  3  5  1  0
  4  3  2  0
  6  5  1  0
  6 12  1  0
  6  7  1  6
  8  7  1  0
  9  8  1  0
 10  9  1  0
 11 10  1  0
 12 16  1  0
 13 12  2  0
 15 17  1  0
 15 14  1  1
 16 15  1  0
 17 18  1  0
 19 17  2  0
M  END
$$$$
