GKA.pdb
     RDKit          3D

 19 18  0  0  1  0  0  0  0  0999 V2000
   22.9454  -11.3117  -19.6722 N   0  0  0  0  0  0  0  0  0  0  0  0
   23.6341  -10.3237  -18.8883 C   0  0  0  0  0  0  0  0  0  0  0  0
   22.6943   -9.3861  -18.2123 C   0  0  0  0  0  0  0  0  0  0  0  0
   22.2837   -8.3266  -18.7660 O   0  0  0  0  0  0  0  0  0  0  0  0
   22.2407   -9.6771  -16.9145 N   0  0  0  0  0  0  0  0  0  0  0  0
   21.2916   -8.8640  -16.1835 C   0  0  1  0  0  0  0  0  0  0  0  0
   20.3844   -9.7370  -15.3656 C   0  0  0  0  0  0  0  0  0  0  0  0
   19.0686  -10.0156  -15.9845 C   0  0  0  0  0  0  0  0  0  0  0  0
   18.2018  -10.8286  -15.0549 C   0  0  0  0  0  0  0  0  0  0  0  0
   16.8085  -11.0598  -15.5505 C   0  0  0  0  0  0  0  0  0  0  0  0
   16.1614  -11.9369  -14.5782 N   0  0  0  0  0  0  0  0  0  0  0  0
   22.0176   -7.8558  -15.4111 C   0  0  0  0  0  0  0  0  0  0  0  0
   22.8279   -8.2093  -14.5222 O   0  0  0  0  0  0  0  0  0  0  0  0
   22.3661   -4.1248  -15.4730 C   0  0  0  0  0  0  0  0  0  0  0  0
   22.4925   -5.4705  -14.7517 C   0  0  2  0  0  0  0  0  0  0  0  0
   21.8662   -6.4547  -15.6016 N   0  0  0  0  0  0  0  0  0  0  0  0
   21.8261   -5.3729  -13.4317 C   0  0  0  0  0  0  0  0  0  0  0  0
   22.4316   -4.8575  -12.3000 O   0  0  0  0  0  0  0  0  0  0  0  0
   20.6433   -5.7824  -13.3378 O   0  0  0  0  0  0  0  0  0  0  0  0
  1  2  1  0
  3  2  1  0
  3  5  1  0
  4  3  2  0
  6  5  1  0
  6 12  1  0
  6  7  1  1
  8  7  1  0
  9  8  1  0
 10  9  1  0
 11 10  1  0
 12 16  1  0
 13 12  2  0
 15 17  1  0
 15 14  1  6
 16 15  1  0
 17 18  1  0
 19 17  2  0
M  END
$$$$
