GKA.pdb
     RDKit          3D

 19 18  0  0  1  0  0  0  0  0999 V2000
   27.8366  -11.0714  -16.4813 N   0  0  0  0  0  0  0  0  0  0  0  0
   26.6938  -11.2233  -15.6234 C   0  0  0  0  0  0  0  0  0  0  0  0
   25.5607  -10.3479  -16.0348 C   0  0  0  0  0  0  0  0  0  0  0  0
   25.6482   -9.5423  -17.0048 O   0  0  0  0  0  0  0  0  0  0  0  0
   24.3471  -10.4097  -15.3291 N   0  0  0  0  0  0  0  0  0  0  0  0
   23.1395   -9.7166  -15.7260 C   0  0  1  0  0  0  0  0  0  0  0  0
   21.9418  -10.5934  -15.5006 C   0  0  0  0  0  0  0  0  0  0  0  0
   20.6475   -9.9855  -15.8841 C   0  0  0  0  0  0  0  0  0  0  0  0
   19.5138  -10.9557  -15.6604 C   0  0  0  0  0  0  0  0  0  0  0  0
   18.1793  -10.4687  -16.1319 C   0  0  0  0  0  0  0  0  0  0  0  0
   17.2132  -11.5107  -15.7939 N   0  0  0  0  0  0  0  0  0  0  0  0
   23.0800   -8.4250  -15.0415 C   0  0  0  0  0  0  0  0  0  0  0  0
   23.1450   -8.3738  -13.7906 O   0  0  0  0  0  0  0  0  0  0  0  0
   23.3651   -4.8559  -16.0661 C   0  0  0  0  0  0  0  0  0  0  0  0
   22.9540   -5.9082  -15.0314 C   0  0  2  0  0  0  0  0  0  0  0  0
   22.9493   -7.1794  -15.7150 N   0  0  0  0  0  0  0  0  0  0  0  0
   21.6160   -5.5606  -14.4976 C   0  0  0  0  0  0  0  0  0  0  0  0
   21.4107   -4.6924  -13.4407 O   0  0  0  0  0  0  0  0  0  0  0  0
   20.6122   -6.0860  -15.0378 O   0  0  0  0  0  0  0  0  0  0  0  0
  1  2  1  0
  3  2  1  0
  3  5  1  0
  4  3  2  0
  6  5  1  0
  6 12  1  0
  6  7  1  1
  8  7  1  0
  9  8  1  0
 10  9  1  0
 11 10  1  0
 12 16  1  0
 13 12  2  0
 15 17  1  0
 15 14  1  6
 16 15  1  0
 17 18  1  0
 19 17  2  0
M  END
$$$$
