QAR.pdb
     RDKit          3D

 26 25  0  0  1  0  0  0  0  0999 V2000
   22.9864  -21.9994  -18.2545 N   0  0  0  0  0  0  0  0  0  0  0  0
   23.8724  -23.0794  -18.4834 C   0  0  0  0  0  0  0  0  0  0  0  0
   24.4178  -23.1959  -19.5914 O   0  0  0  0  0  0  0  0  0  0  0  0
   24.1281  -24.0419  -17.4050 C   0  0  0  0  0  0  0  0  0  0  0  0
   23.3719  -23.7868  -16.1310 C   0  0  0  0  0  0  0  0  0  0  0  0
   23.9423  -22.6408  -15.3710 C   0  0  2  0  0  0  0  0  0  0  0  0
   25.2640  -23.0697  -14.9002 N   0  0  0  0  0  0  0  0  0  0  0  0
   23.0906  -22.2158  -14.2337 C   0  0  0  0  0  0  0  0  0  0  0  0
   23.2422  -22.7623  -13.0902 O   0  0  0  0  0  0  0  0  0  0  0  0
   20.5789  -19.5129  -13.3943 C   0  0  0  0  0  0  0  0  0  0  0  0
   21.2566  -20.8479  -13.1632 C   0  0  2  0  0  0  0  0  0  0  0  0
   22.0836  -21.2150  -14.3134 N   0  0  0  0  0  0  0  0  0  0  0  0
   20.2226  -21.8564  -12.8965 C   0  0  0  0  0  0  0  0  0  0  0  0
   19.8280  -22.5983  -13.8603 O   0  0  0  0  0  0  0  0  0  0  0  0
   16.7920  -25.0891   -5.5257 N   0  0  0  0  0  0  0  0  0  0  0  0
   17.8168  -25.4806   -6.4110 C   0  0  0  0  0  0  0  0  0  0  0  0
   18.8332  -26.1753   -5.9818 N   0  0  0  0  0  0  0  0  0  0  0  0
   17.7970  -25.1443   -7.7989 N   0  0  0  0  0  0  0  0  0  0  0  0
   16.7052  -24.4330   -8.4007 C   0  0  0  0  0  0  0  0  0  0  0  0
   16.9667  -24.1106   -9.8580 C   0  0  0  0  0  0  0  0  0  0  0  0
   18.1786  -23.2595  -10.0671 C   0  0  0  0  0  0  0  0  0  0  0  0
   18.4260  -22.9693  -11.5031 C   0  0  2  0  0  0  0  0  0  0  0  0
   19.6105  -22.0876  -11.6485 N   0  0  0  0  0  0  0  0  0  0  0  0
   17.3193  -22.2153  -12.0971 C   0  0  0  0  0  0  0  0  0  0  0  0
   16.3875  -22.8220  -12.9000 O   0  0  0  0  0  0  0  0  0  0  0  0
   17.1944  -20.9899  -11.8888 O   0  0  0  0  0  0  0  0  0  0  0  0
  2  1  1  0
  2  3  2  0
  4  5  1  0
  4  2  1  0
  6  7  1  1
  6  5  1  0
  8  6  1  0
  9  8  2  0
 11 10  1  6
 11 12  1  0
 12  8  1  0
 13 11  1  0
 13 23  1  0
 14 13  2  0
 16 15  1  0
 17 16  2  0
 18 16  1  0
 19 18  1  0
 20 21  1  0
 20 19  1  0
 22 21  1  1
 22 23  1  0
 22 24  1  0
 24 25  1  0
 26 24  2  0
M  END
$$$$
