QAR.pdb
     RDKit          3D

 26 25  0  0  1  0  0  0  0  0999 V2000
   23.5315  -16.2793  -18.8244 N   0  0  0  0  0  0  0  0  0  0  0  0
   24.4243  -16.3842  -19.9179 C   0  0  0  0  0  0  0  0  0  0  0  0
   25.6207  -16.0985  -19.7575 O   0  0  0  0  0  0  0  0  0  0  0  0
   23.9167  -16.8283  -21.2217 C   0  0  0  0  0  0  0  0  0  0  0  0
   22.4407  -17.1097  -21.2684 C   0  0  0  0  0  0  0  0  0  0  0  0
   22.0923  -18.3518  -20.5253 C   0  0  2  0  0  0  0  0  0  0  0  0
   22.7038  -19.4635  -21.2622 N   0  0  0  0  0  0  0  0  0  0  0  0
   20.6299  -18.5545  -20.3849 C   0  0  0  0  0  0  0  0  0  0  0  0
   19.8505  -18.2271  -21.3413 O   0  0  0  0  0  0  0  0  0  0  0  0
   18.1829  -20.2373  -18.0449 C   0  0  0  0  0  0  0  0  0  0  0  0
   18.5485  -19.2497  -19.1340 C   0  0  2  0  0  0  0  0  0  0  0  0
   20.0011  -19.1023  -19.2332 N   0  0  0  0  0  0  0  0  0  0  0  0
   17.8935  -17.9682  -18.8411 C   0  0  0  0  0  0  0  0  0  0  0  0
   18.4858  -17.1409  -18.0664 O   0  0  0  0  0  0  0  0  0  0  0  0
   13.3924  -11.7121  -22.8387 N   0  0  0  0  0  0  0  0  0  0  0  0
   13.2441  -11.4740  -21.4571 C   0  0  0  0  0  0  0  0  0  0  0  0
   12.7734  -10.3364  -21.0280 N   0  0  0  0  0  0  0  0  0  0  0  0
   13.5944  -12.4472  -20.4724 N   0  0  0  0  0  0  0  0  0  0  0  0
   14.1726  -13.7147  -20.8177 C   0  0  0  0  0  0  0  0  0  0  0  0
   14.2412  -14.6544  -19.6308 C   0  0  0  0  0  0  0  0  0  0  0  0
   14.9117  -15.9541  -19.9436 C   0  0  0  0  0  0  0  0  0  0  0  0
   16.0935  -16.2042  -19.0785 C   0  0  2  0  0  0  0  0  0  0  0  0
   16.6441  -17.5559  -19.3456 N   0  0  0  0  0  0  0  0  0  0  0  0
   15.7274  -16.2194  -17.6601 C   0  0  0  0  0  0  0  0  0  0  0  0
   15.8343  -15.0969  -16.8796 O   0  0  0  0  0  0  0  0  0  0  0  0
   15.3068  -17.2636  -17.1184 O   0  0  0  0  0  0  0  0  0  0  0  0
  2  1  1  0
  2  3  2  0
  4  5  1  0
  4  2  1  0
  6  7  1  6
  6  5  1  0
  8  6  1  0
  9  8  2  0
 11 10  1  1
 11 12  1  0
 12  8  1  0
 13 11  1  0
 13 23  1  0
 14 13  2  0
 16 15  1  0
 17 16  2  0
 18 16  1  0
 19 18  1  0
 20 21  1  0
 20 19  1  0
 22 21  1  6
 22 23  1  0
 22 24  1  0
 24 25  1  0
 26 24  2  0
M  END
$$$$
