QAR.pdb
     RDKit          3D

 26 25  0  0  1  0  0  0  0  0999 V2000
   21.4356  -20.3237  -18.1497 N   0  0  0  0  0  0  0  0  0  0  0  0
   21.8909  -20.2588  -19.4884 C   0  0  0  0  0  0  0  0  0  0  0  0
   21.0836  -20.0038  -20.3950 O   0  0  0  0  0  0  0  0  0  0  0  0
   23.3102  -20.4955  -19.7785 C   0  0  0  0  0  0  0  0  0  0  0  0
   24.1479  -20.8781  -18.5903 C   0  0  0  0  0  0  0  0  0  0  0  0
   24.3210  -19.7390  -17.6476 C   0  0  2  0  0  0  0  0  0  0  0  0
   24.9133  -18.6430  -18.4228 N   0  0  0  0  0  0  0  0  0  0  0  0
   25.1692  -20.0754  -16.4785 C   0  0  0  0  0  0  0  0  0  0  0  0
   24.8546  -21.0605  -15.7304 O   0  0  0  0  0  0  0  0  0  0  0  0
   28.3492  -18.8366  -14.8008 C   0  0  0  0  0  0  0  0  0  0  0  0
   27.1034  -19.6931  -14.8996 C   0  0  2  0  0  0  0  0  0  0  0  0
   26.3453  -19.3672  -16.1082 N   0  0  0  0  0  0  0  0  0  0  0  0
   26.3005  -19.4909  -13.6864 C   0  0  0  0  0  0  0  0  0  0  0  0
   25.6934  -18.3760  -13.5329 O   0  0  0  0  0  0  0  0  0  0  0  0
   18.6153  -22.0676  -11.7664 N   0  0  0  0  0  0  0  0  0  0  0  0
   18.9943  -21.2389  -10.6908 C   0  0  0  0  0  0  0  0  0  0  0  0
   18.1207  -20.8787   -9.7925 N   0  0  0  0  0  0  0  0  0  0  0  0
   20.3298  -20.7590  -10.5300 N   0  0  0  0  0  0  0  0  0  0  0  0
   21.3435  -20.9625  -11.5257 C   0  0  0  0  0  0  0  0  0  0  0  0
   22.7120  -20.5219  -11.0468 C   0  0  0  0  0  0  0  0  0  0  0  0
   23.7806  -20.6839  -12.0804 C   0  0  0  0  0  0  0  0  0  0  0  0
   25.1160  -20.2599  -11.5857 C   0  0  2  0  0  0  0  0  0  0  0  0
   26.1332  -20.4328  -12.6518 N   0  0  0  0  0  0  0  0  0  0  0  0
   25.5754  -21.1097  -10.4844 C   0  0  0  0  0  0  0  0  0  0  0  0
   25.1849  -20.8799   -9.1900 O   0  0  0  0  0  0  0  0  0  0  0  0
   26.3428  -22.0726  -10.6955 O   0  0  0  0  0  0  0  0  0  0  0  0
  2  1  1  0
  2  3  2  0
  4  5  1  0
  4  2  1  0
  6  7  1  6
  6  5  1  0
  8  6  1  0
  9  8  2  0
 11 10  1  1
 11 12  1  0
 12  8  1  0
 13 11  1  0
 13 23  1  0
 14 13  2  0
 16 15  1  0
 17 16  2  0
 18 16  1  0
 19 18  1  0
 20 21  1  0
 20 19  1  0
 22 21  1  6
 22 23  1  0
 22 24  1  0
 24 25  1  0
 26 24  2  0
M  END
$$$$
