QAR.pdb
     RDKit          3D

 26 25  0  0  1  0  0  0  0  0999 V2000
   13.8343  -13.1562  -18.0245 N   0  0  0  0  0  0  0  0  0  0  0  0
   14.4752  -12.0012  -17.5156 C   0  0  0  0  0  0  0  0  0  0  0  0
   13.8086  -10.9760  -17.3075 O   0  0  0  0  0  0  0  0  0  0  0  0
   15.9174  -12.0385  -17.2445 C   0  0  0  0  0  0  0  0  0  0  0  0
   16.3326  -11.4526  -15.9237 C   0  0  0  0  0  0  0  0  0  0  0  0
   17.8056  -11.5324  -15.7236 C   0  0  2  0  0  0  0  0  0  0  0  0
   18.0778  -12.8575  -15.1554 N   0  0  0  0  0  0  0  0  0  0  0  0
   18.3312  -10.4629  -14.8407 C   0  0  0  0  0  0  0  0  0  0  0  0
   18.0178  -10.4521  -13.6034 O   0  0  0  0  0  0  0  0  0  0  0  0
   20.6666   -7.4766  -15.0100 C   0  0  0  0  0  0  0  0  0  0  0  0
   19.5416   -8.2895  -14.4028 C   0  0  2  0  0  0  0  0  0  0  0  0
   19.1853   -9.4112  -15.2726 N   0  0  0  0  0  0  0  0  0  0  0  0
   18.3960   -7.4003  -14.1700 C   0  0  0  0  0  0  0  0  0  0  0  0
   17.5291   -7.2626  -15.0999 O   0  0  0  0  0  0  0  0  0  0  0  0
   13.9903   -4.9156   -6.9199 N   0  0  0  0  0  0  0  0  0  0  0  0
   14.0582   -6.0452   -7.7606 C   0  0  0  0  0  0  0  0  0  0  0  0
   13.6071   -7.1997   -7.3561 N   0  0  0  0  0  0  0  0  0  0  0  0
   14.6134   -5.9868   -9.0751 N   0  0  0  0  0  0  0  0  0  0  0  0
   15.0225   -4.7517   -9.6812 C   0  0  0  0  0  0  0  0  0  0  0  0
   15.3578   -4.9188  -11.1495 C   0  0  0  0  0  0  0  0  0  0  0  0
   16.5459   -5.7949  -11.3888 C   0  0  0  0  0  0  0  0  0  0  0  0
   16.9513   -5.8215  -12.8181 C   0  0  2  0  0  0  0  0  0  0  0  0
   18.1579   -6.6676  -12.9902 N   0  0  0  0  0  0  0  0  0  0  0  0
   17.3519   -4.4930  -13.2876 C   0  0  0  0  0  0  0  0  0  0  0  0
   16.4237   -3.5421  -13.6269 O   0  0  0  0  0  0  0  0  0  0  0  0
   18.5587   -4.1885  -13.3947 O   0  0  0  0  0  0  0  0  0  0  0  0
  2  1  1  0
  2  3  2  0
  4  5  1  0
  4  2  1  0
  6  7  1  1
  6  5  1  0
  8  6  1  0
  9  8  2  0
 11 10  1  6
 11 12  1  0
 12  8  1  0
 13 11  1  0
 13 23  1  0
 14 13  2  0
 16 15  1  0
 17 16  2  0
 18 16  1  0
 19 18  1  0
 20 21  1  0
 20 19  1  0
 22 21  1  1
 22 23  1  0
 22 24  1  0
 24 25  1  0
 26 24  2  0
M  END
$$$$
