QAR.pdb
     RDKit          3D

 26 25  0  0  1  0  0  0  0  0999 V2000
   15.4831  -22.4156    2.7252 N   0  0  0  0  0  0  0  0  0  0  0  0
   15.5343  -21.2354    1.9454 C   0  0  0  0  0  0  0  0  0  0  0  0
   14.6899  -21.0566    1.0544 O   0  0  0  0  0  0  0  0  0  0  0  0
   16.5867  -20.2457    2.2053 C   0  0  0  0  0  0  0  0  0  0  0  0
   16.0994  -18.9139    2.7043 C   0  0  0  0  0  0  0  0  0  0  0  0
   15.1408  -19.0651    3.8333 C   0  0  2  0  0  0  0  0  0  0  0  0
   14.0243  -18.1543    3.5565 N   0  0  0  0  0  0  0  0  0  0  0  0
   15.7468  -18.7691    5.1541 C   0  0  0  0  0  0  0  0  0  0  0  0
   15.8410  -17.5596    5.5509 O   0  0  0  0  0  0  0  0  0  0  0  0
   17.2327  -20.6522    8.1048 C   0  0  0  0  0  0  0  0  0  0  0  0
   16.8718  -19.4048    7.3245 C   0  0  2  0  0  0  0  0  0  0  0  0
   16.2494  -19.7549    6.0471 N   0  0  0  0  0  0  0  0  0  0  0  0
   18.0892  -18.6060    7.1321 C   0  0  0  0  0  0  0  0  0  0  0  0
   18.7447  -18.7418    6.0426 O   0  0  0  0  0  0  0  0  0  0  0  0
   20.2887  -10.1209    7.7446 N   0  0  0  0  0  0  0  0  0  0  0  0
   21.4791  -10.8350    7.4986 C   0  0  0  0  0  0  0  0  0  0  0  0
   22.5879  -10.2025    7.2331 N   0  0  0  0  0  0  0  0  0  0  0  0
   21.5336  -12.2618    7.5267 N   0  0  0  0  0  0  0  0  0  0  0  0
   20.3621  -13.0711    7.7082 C   0  0  0  0  0  0  0  0  0  0  0  0
   20.7001  -14.5405    7.8603 C   0  0  0  0  0  0  0  0  0  0  0  0
   19.4937  -15.4137    7.9967 C   0  0  0  0  0  0  0  0  0  0  0  0
   19.8009  -16.8464    7.7502 C   0  0  2  0  0  0  0  0  0  0  0  0
   18.6144  -17.6825    8.0579 N   0  0  0  0  0  0  0  0  0  0  0  0
   20.8493  -17.3335    8.6499 C   0  0  0  0  0  0  0  0  0  0  0  0
   22.1732  -17.2991    8.2936 O   0  0  0  0  0  0  0  0  0  0  0  0
   20.5638  -17.7989    9.7735 O   0  0  0  0  0  0  0  0  0  0  0  0
  2  1  1  0
  2  3  2  0
  4  5  1  0
  4  2  1  0
  6  7  1  6
  6  5  1  0
  8  6  1  0
  9  8  2  0
 11 10  1  6
 11 12  1  0
 12  8  1  0
 13 11  1  0
 13 23  1  0
 14 13  2  0
 16 15  1  0
 17 16  2  0
 18 16  1  0
 19 18  1  0
 20 21  1  0
 20 19  1  0
 22 21  1  1
 22 23  1  0
 22 24  1  0
 24 25  1  0
 26 24  2  0
M  END
$$$$
