QAR.pdb
     RDKit          3D

 26 25  0  0  1  0  0  0  0  0999 V2000
   18.3262   -9.0500  -19.2267 N   0  0  0  0  0  0  0  0  0  0  0  0
   18.8089  -10.3783  -19.3050 C   0  0  0  0  0  0  0  0  0  0  0  0
   18.8337  -10.9541  -20.4034 O   0  0  0  0  0  0  0  0  0  0  0  0
   19.2702  -11.0499  -18.0839 C   0  0  0  0  0  0  0  0  0  0  0  0
   19.1434  -10.2391  -16.8244 C   0  0  0  0  0  0  0  0  0  0  0  0
   20.4401  -10.1392  -16.0998 C   0  0  2  0  0  0  0  0  0  0  0  0
   20.7950  -11.5029  -15.6910 N   0  0  0  0  0  0  0  0  0  0  0  0
   20.3817   -9.2358  -14.9251 C   0  0  0  0  0  0  0  0  0  0  0  0
   19.8972   -9.6603  -13.8232 O   0  0  0  0  0  0  0  0  0  0  0  0
   21.4727   -5.7219  -13.9713 C   0  0  0  0  0  0  0  0  0  0  0  0
   20.7890   -7.0511  -13.7245 C   0  0  2  0  0  0  0  0  0  0  0  0
   20.8364   -7.8885  -14.9237 N   0  0  0  0  0  0  0  0  0  0  0  0
   19.4071   -6.7934  -13.2990 C   0  0  0  0  0  0  0  0  0  0  0  0
   18.5181   -6.5910  -14.1956 O   0  0  0  0  0  0  0  0  0  0  0  0
   13.8029   -8.8373   -7.0478 N   0  0  0  0  0  0  0  0  0  0  0  0
   13.3981   -7.5174   -7.3329 C   0  0  0  0  0  0  0  0  0  0  0  0
   12.1879   -7.1209   -7.0534 N   0  0  0  0  0  0  0  0  0  0  0  0
   14.2748   -6.5619   -7.9312 N   0  0  0  0  0  0  0  0  0  0  0  0
   15.6150   -6.8916   -8.3256 C   0  0  0  0  0  0  0  0  0  0  0  0
   15.8921   -6.5266   -9.7700 C   0  0  0  0  0  0  0  0  0  0  0  0
   17.2653   -6.9079  -10.2233 C   0  0  0  0  0  0  0  0  0  0  0  0
   17.5429   -6.4730  -11.6167 C   0  0  2  0  0  0  0  0  0  0  0  0
   18.9593   -6.7469  -11.9637 N   0  0  0  0  0  0  0  0  0  0  0  0
   17.3908   -5.0238  -11.7675 C   0  0  0  0  0  0  0  0  0  0  0  0
   18.4552   -4.1717  -11.6200 O   0  0  0  0  0  0  0  0  0  0  0  0
   16.2789   -4.5209  -12.0345 O   0  0  0  0  0  0  0  0  0  0  0  0
  2  1  1  0
  2  3  2  0
  4  5  1  0
  4  2  1  0
  6  7  1  1
  6  5  1  0
  8  6  1  0
  9  8  2  0
 11 10  1  6
 11 12  1  0
 12  8  1  0
 13 11  1  0
 13 23  1  0
 14 13  2  0
 16 15  1  0
 17 16  2  0
 18 16  1  0
 19 18  1  0
 20 21  1  0
 20 19  1  0
 22 21  1  1
 22 23  1  0
 22 24  1  0
 24 25  1  0
 26 24  2  0
M  END
$$$$
