QAR.pdb
     RDKit          3D

 26 25  0  0  1  0  0  0  0  0999 V2000
   26.3737  -20.3675  -16.8450 N   0  0  0  0  0  0  0  0  0  0  0  0
   27.5654  -19.7626  -17.3114 C   0  0  0  0  0  0  0  0  0  0  0  0
   27.7334  -18.5440  -17.1514 O   0  0  0  0  0  0  0  0  0  0  0  0
   28.5799  -20.5891  -17.9766 C   0  0  0  0  0  0  0  0  0  0  0  0
   28.2363  -22.0480  -18.0933 C   0  0  0  0  0  0  0  0  0  0  0  0
   29.4563  -22.9000  -18.1396 C   0  0  2  0  0  0  0  0  0  0  0  0
   30.1384  -22.5828  -19.3993 N   0  0  0  0  0  0  0  0  0  0  0  0
   29.1565  -24.3498  -18.0537 C   0  0  0  0  0  0  0  0  0  0  0  0
   29.0179  -25.0323  -19.1234 O   0  0  0  0  0  0  0  0  0  0  0  0
   28.8961  -27.0737  -15.4311 C   0  0  0  0  0  0  0  0  0  0  0  0
   28.6562  -26.4897  -16.8082 C   0  0  2  0  0  0  0  0  0  0  0  0
   29.0053  -25.0688  -16.8362 N   0  0  0  0  0  0  0  0  0  0  0  0
   27.2494  -26.7083  -17.1694 C   0  0  0  0  0  0  0  0  0  0  0  0
   26.4286  -25.7348  -17.0512 O   0  0  0  0  0  0  0  0  0  0  0  0
   24.6312  -34.6789  -18.5855 N   0  0  0  0  0  0  0  0  0  0  0  0
   23.6815  -34.0246  -17.7748 C   0  0  0  0  0  0  0  0  0  0  0  0
   22.6466  -34.6703  -17.3145 N   0  0  0  0  0  0  0  0  0  0  0  0
   23.7997  -32.6461  -17.4206 N   0  0  0  0  0  0  0  0  0  0  0  0
   24.9671  -31.8711  -17.7318 C   0  0  0  0  0  0  0  0  0  0  0  0
   24.8281  -30.4270  -17.2945 C   0  0  0  0  0  0  0  0  0  0  0  0
   24.9816  -29.4516  -18.4178 C   0  0  0  0  0  0  0  0  0  0  0  0
   25.2609  -28.0737  -17.9371 C   0  0  2  0  0  0  0  0  0  0  0  0
   26.7073  -27.9189  -17.6448 N   0  0  0  0  0  0  0  0  0  0  0  0
   24.5876  -27.8017  -16.6648 C   0  0  0  0  0  0  0  0  0  0  0  0
   23.2593  -27.4645  -16.6140 O   0  0  0  0  0  0  0  0  0  0  0  0
   25.2101  -27.8681  -15.5838 O   0  0  0  0  0  0  0  0  0  0  0  0
  2  1  1  0
  2  3  2  0
  4  5  1  0
  4  2  1  0
  6  7  1  6
  6  5  1  0
  8  6  1  0
  9  8  2  0
 11 10  1  1
 11 12  1  0
 12  8  1  0
 13 11  1  0
 13 23  1  0
 14 13  2  0
 16 15  1  0
 17 16  2  0
 18 16  1  0
 19 18  1  0
 20 21  1  0
 20 19  1  0
 22 21  1  1
 22 23  1  0
 22 24  1  0
 24 25  1  0
 26 24  2  0
M  END
$$$$
