QAR.pdb
     RDKit          3D

 26 25  0  0  1  0  0  0  0  0999 V2000
   24.1139  -25.5272  -19.2636 N   0  0  0  0  0  0  0  0  0  0  0  0
   23.5474  -26.4036  -18.3073 C   0  0  0  0  0  0  0  0  0  0  0  0
   22.7844  -27.3061  -18.6842 O   0  0  0  0  0  0  0  0  0  0  0  0
   23.8730  -26.2270  -16.8869 C   0  0  0  0  0  0  0  0  0  0  0  0
   24.8585  -25.1311  -16.5908 C   0  0  0  0  0  0  0  0  0  0  0  0
   26.2506  -25.5345  -16.9310 C   0  0  2  0  0  0  0  0  0  0  0  0
   26.5507  -26.7201  -16.1203 N   0  0  0  0  0  0  0  0  0  0  0  0
   27.2440  -24.4617  -16.6827 C   0  0  0  0  0  0  0  0  0  0  0  0
   27.4497  -24.0525  -15.4913 O   0  0  0  0  0  0  0  0  0  0  0  0
   29.4115  -22.1023  -18.7327 C   0  0  0  0  0  0  0  0  0  0  0  0
   28.6423  -22.5220  -17.4969 C   0  0  2  0  0  0  0  0  0  0  0  0
   28.0137  -23.8284  -17.6968 N   0  0  0  0  0  0  0  0  0  0  0  0
   27.6485  -21.4847  -17.1910 C   0  0  0  0  0  0  0  0  0  0  0  0
   26.4080  -21.7902  -17.2458 O   0  0  0  0  0  0  0  0  0  0  0  0
   25.6377  -21.4066   -9.5993 N   0  0  0  0  0  0  0  0  0  0  0  0
   24.8965  -20.6063  -10.4923 C   0  0  0  0  0  0  0  0  0  0  0  0
   23.6103  -20.4588  -10.3380 N   0  0  0  0  0  0  0  0  0  0  0  0
   25.5028  -19.9269  -11.5925 N   0  0  0  0  0  0  0  0  0  0  0  0
   26.7351  -20.3679  -12.1819 C   0  0  0  0  0  0  0  0  0  0  0  0
   27.2702  -19.3776  -13.1965 C   0  0  0  0  0  0  0  0  0  0  0  0
   27.8615  -20.0305  -14.4051 C   0  0  0  0  0  0  0  0  0  0  0  0
   27.3027  -19.4900  -15.6713 C   0  0  2  0  0  0  0  0  0  0  0  0
   27.9415  -20.1532  -16.8347 N   0  0  0  0  0  0  0  0  0  0  0  0
   27.6128  -18.0671  -15.8310 C   0  0  0  0  0  0  0  0  0  0  0  0
   28.5535  -17.6345  -16.7302 O   0  0  0  0  0  0  0  0  0  0  0  0
   27.0259  -17.2029  -15.1459 O   0  0  0  0  0  0  0  0  0  0  0  0
  2  1  1  0
  2  3  2  0
  4  5  1  0
  4  2  1  0
  6  7  1  1
  6  5  1  0
  8  6  1  0
  9  8  2  0
 11 10  1  6
 11 12  1  0
 12  8  1  0
 13 11  1  0
 13 23  1  0
 14 13  2  0
 16 15  1  0
 17 16  2  0
 18 16  1  0
 19 18  1  0
 20 21  1  0
 20 19  1  0
 22 21  1  1
 22 23  1  0
 22 24  1  0
 24 25  1  0
 26 24  2  0
M  END
$$$$
