QAR.pdb
     RDKit          3D

 26 25  0  0  1  0  0  0  0  0999 V2000
   20.5839  -21.2285  -13.8703 N   0  0  0  0  0  0  0  0  0  0  0  0
   21.3848  -20.0749  -13.6930 C   0  0  0  0  0  0  0  0  0  0  0  0
   21.8981  -19.8536  -12.5857 O   0  0  0  0  0  0  0  0  0  0  0  0
   21.5919  -19.1616  -14.8233 C   0  0  0  0  0  0  0  0  0  0  0  0
   21.1941  -17.7342  -14.5700 C   0  0  0  0  0  0  0  0  0  0  0  0
   20.1229  -17.2864  -15.5018 C   0  0  2  0  0  0  0  0  0  0  0  0
   20.6754  -17.3987  -16.8564 N   0  0  0  0  0  0  0  0  0  0  0  0
   19.6608  -15.9027  -15.2347 C   0  0  0  0  0  0  0  0  0  0  0  0
   19.1566  -15.6116  -14.0988 O   0  0  0  0  0  0  0  0  0  0  0  0
   19.4875  -12.5392  -16.9911 C   0  0  0  0  0  0  0  0  0  0  0  0
   19.0689  -13.5522  -15.9453 C   0  0  2  0  0  0  0  0  0  0  0  0
   19.7352  -14.8354  -16.1713 N   0  0  0  0  0  0  0  0  0  0  0  0
   17.6070  -13.6873  -15.9852 C   0  0  0  0  0  0  0  0  0  0  0  0
   17.0948  -14.5743  -16.7508 O   0  0  0  0  0  0  0  0  0  0  0  0
   10.6681  -12.9329  -10.3817 N   0  0  0  0  0  0  0  0  0  0  0  0
   10.2035  -13.3997  -11.6281 C   0  0  0  0  0  0  0  0  0  0  0  0
    8.9578  -13.7535  -11.7803 N   0  0  0  0  0  0  0  0  0  0  0  0
   11.0554  -13.5077  -12.7692 N   0  0  0  0  0  0  0  0  0  0  0  0
   12.4754  -13.3147  -12.6877 C   0  0  0  0  0  0  0  0  0  0  0  0
   13.1212  -13.2355  -14.0563 C   0  0  0  0  0  0  0  0  0  0  0  0
   14.6130  -13.1454  -14.0020 C   0  0  0  0  0  0  0  0  0  0  0  0
   15.2273  -13.0986  -15.3541 C   0  0  2  0  0  0  0  0  0  0  0  0
   16.6949  -12.9125  -15.2412 N   0  0  0  0  0  0  0  0  0  0  0  0
   14.7575  -11.9401  -16.1177 C   0  0  0  0  0  0  0  0  0  0  0  0
   13.7367  -12.0465  -17.0273 O   0  0  0  0  0  0  0  0  0  0  0  0
   15.2792  -10.8158  -15.9615 O   0  0  0  0  0  0  0  0  0  0  0  0
  2  1  1  0
  2  3  2  0
  4  5  1  0
  4  2  1  0
  6  7  1  6
  6  5  1  0
  8  6  1  0
  9  8  2  0
 11 10  1  6
 11 12  1  0
 12  8  1  0
 13 11  1  0
 13 23  1  0
 14 13  2  0
 16 15  1  0
 17 16  2  0
 18 16  1  0
 19 18  1  0
 20 21  1  0
 20 19  1  0
 22 21  1  1
 22 23  1  0
 22 24  1  0
 24 25  1  0
 26 24  2  0
M  END
$$$$
