DCM.pdb
     RDKit          3D

 23 22  0  0  1  0  0  0  0  0999 V2000
   25.3683  -32.0118  -17.1544 N   0  0  0  0  0  0  0  0  0  0  0  0
   25.3558  -32.8969  -16.0236 C   0  0  1  0  0  0  0  0  0  0  0  0
   26.7391  -33.4499  -15.7795 C   0  0  0  0  0  0  0  0  0  0  0  0
   27.0775  -34.5973  -16.6303 C   0  0  0  0  0  0  0  0  0  0  0  0
   26.3338  -35.0990  -17.4853 O   0  0  0  0  0  0  0  0  0  0  0  0
   24.9847  -32.1495  -14.7965 C   0  0  0  0  0  0  0  0  0  0  0  0
   25.1733  -30.9098  -14.7965 O   0  0  0  0  0  0  0  0  0  0  0  0
   28.3383  -35.1729  -16.4665 O   0  0  0  0  0  0  0  0  0  0  0  0
   24.4432  -32.7886  -13.6732 N   0  0  0  0  0  0  0  0  0  0  0  0
   23.9938  -32.0641  -12.4816 C   0  0  1  0  0  0  0  0  0  0  0  0
   22.6958  -31.3491  -12.7748 C   0  0  0  0  0  0  0  0  0  0  0  0
   21.8207  -32.2239  -14.0808 S   0  0  0  0  0  0  0  0  0  0  0  0
   23.6864  -33.1136  -11.4633 C   0  0  0  0  0  0  0  0  0  0  0  0
   23.2646  -34.2142  -11.8988 O   0  0  0  0  0  0  0  0  0  0  0  0
   25.6426  -31.7699   -5.4578 C   0  0  0  0  0  0  0  0  0  0  0  0
   26.4392  -33.1890   -6.2028 S   0  0  0  0  0  0  0  0  0  0  0  0
   25.7197  -33.5886   -7.8440 C   0  0  0  0  0  0  0  0  0  0  0  0
   24.2204  -33.7095   -7.7467 C   0  0  0  0  0  0  0  0  0  0  0  0
   23.5962  -33.9977   -9.0851 C   0  0  2  0  0  0  0  0  0  0  0  0
   23.8227  -32.9941  -10.0882 N   0  0  0  0  0  0  0  0  0  0  0  0
   22.1374  -34.1264   -8.9473 C   0  0  0  0  0  0  0  0  0  0  0  0
   21.6440  -35.2462   -8.2848 O   0  0  0  0  0  0  0  0  0  0  0  0
   21.3301  -33.2809   -9.3956 O   0  0  0  0  0  0  0  0  0  0  0  0
  2  1  1  6
  2  3  1  0
  3  4  1  0
  4  5  2  0
  4  8  1  0
  6  9  1  0
  6  2  1  0
  7  6  2  0
 10 13  1  0
 10  9  1  0
 10 11  1  6
 11 12  1  0
 13 20  1  0
 14 13  2  0
 16 15  1  0
 17 16  1  0
 18 17  1  0
 19 18  1  1
 19 21  1  0
 20 19  1  0
 21 22  1  0
 23 21  2  0
M  END
$$$$
