DCM.pdb
     RDKit          3D

 23 22  0  0  1  0  0  0  0  0999 V2000
   20.0335  -12.9539  -16.5598 N   0  0  0  0  0  0  0  0  0  0  0  0
   19.4054  -11.6693  -16.6923 C   0  0  1  0  0  0  0  0  0  0  0  0
   18.3627  -11.4859  -15.6161 C   0  0  0  0  0  0  0  0  0  0  0  0
   17.1797  -12.3384  -15.7853 C   0  0  0  0  0  0  0  0  0  0  0  0
   16.9751  -13.0976  -16.7433 O   0  0  0  0  0  0  0  0  0  0  0  0
   20.4047  -10.5910  -16.4906 C   0  0  0  0  0  0  0  0  0  0  0  0
   21.2570  -10.7558  -15.5858 O   0  0  0  0  0  0  0  0  0  0  0  0
   16.2037  -12.2935  -14.7888 O   0  0  0  0  0  0  0  0  0  0  0  0
   20.4099   -9.4280  -17.2723 N   0  0  0  0  0  0  0  0  0  0  0  0
   21.3880   -8.3516  -17.0955 C   0  0  1  0  0  0  0  0  0  0  0  0
   21.5344   -7.5745  -18.3826 C   0  0  0  0  0  0  0  0  0  0  0  0
   22.6253   -6.1710  -18.1051 S   0  0  0  0  0  0  0  0  0  0  0  0
   20.7851   -7.4187  -16.0959 C   0  0  0  0  0  0  0  0  0  0  0  0
   19.5605   -7.1692  -16.2259 O   0  0  0  0  0  0  0  0  0  0  0  0
   19.2903   -5.0794   -8.8723 C   0  0  0  0  0  0  0  0  0  0  0  0
   20.0824   -6.1976  -10.0237 S   0  0  0  0  0  0  0  0  0  0  0  0
   20.1801   -5.4794  -11.7106 C   0  0  0  0  0  0  0  0  0  0  0  0
   20.7791   -6.4734  -12.6725 C   0  0  0  0  0  0  0  0  0  0  0  0
   20.8963   -5.9050  -14.0607 C   0  0  2  0  0  0  0  0  0  0  0  0
   21.4416   -6.8043  -15.0398 N   0  0  0  0  0  0  0  0  0  0  0  0
   21.7688   -4.7208  -14.0520 C   0  0  0  0  0  0  0  0  0  0  0  0
   21.2709   -3.5516  -13.4849 O   0  0  0  0  0  0  0  0  0  0  0  0
   22.9270   -4.7201  -14.5275 O   0  0  0  0  0  0  0  0  0  0  0  0
  2  1  1  1
  2  3  1  0
  3  4  1  0
  4  5  2  0
  4  8  1  0
  6  9  1  0
  6  2  1  0
  7  6  2  0
 10 13  1  0
 10  9  1  0
 10 11  1  6
 11 12  1  0
 13 20  1  0
 14 13  2  0
 16 15  1  0
 17 16  1  0
 18 17  1  0
 19 18  1  1
 19 21  1  0
 20 19  1  0
 21 22  1  0
 23 21  2  0
M  END
$$$$
