DCM.pdb
     RDKit          3D

 23 22  0  0  1  0  0  0  0  0999 V2000
   17.2851  -13.6998  -14.9805 N   0  0  0  0  0  0  0  0  0  0  0  0
   16.5197  -12.4848  -14.9891 C   0  0  1  0  0  0  0  0  0  0  0  0
   15.1164  -12.7497  -14.4998 C   0  0  0  0  0  0  0  0  0  0  0  0
   14.3268  -13.6026  -15.3966 C   0  0  0  0  0  0  0  0  0  0  0  0
   13.6527  -14.5812  -15.0448 O   0  0  0  0  0  0  0  0  0  0  0  0
   17.1107  -11.5044  -14.0450 C   0  0  0  0  0  0  0  0  0  0  0  0
   17.4602  -11.9272  -12.9175 O   0  0  0  0  0  0  0  0  0  0  0  0
   14.3329  -13.2894  -16.7566 O   0  0  0  0  0  0  0  0  0  0  0  0
   17.2791  -10.1553  -14.3846 N   0  0  0  0  0  0  0  0  0  0  0  0
   18.0587   -9.2186  -13.5712 C   0  0  1  0  0  0  0  0  0  0  0  0
   19.0216   -8.4546  -14.4493 C   0  0  0  0  0  0  0  0  0  0  0  0
   20.6089   -9.3016  -14.4627 S   0  0  0  0  0  0  0  0  0  0  0  0
   17.0744   -8.2246  -13.0458 C   0  0  0  0  0  0  0  0  0  0  0  0
   16.2505   -7.7576  -13.8716 O   0  0  0  0  0  0  0  0  0  0  0  0
   16.0738   -6.2457   -6.4988 C   0  0  0  0  0  0  0  0  0  0  0  0
   14.5080   -6.3167   -7.3628 S   0  0  0  0  0  0  0  0  0  0  0  0
   14.7213   -6.1093   -9.1746 C   0  0  0  0  0  0  0  0  0  0  0  0
   15.7465   -7.0819   -9.6992 C   0  0  0  0  0  0  0  0  0  0  0  0
   15.9831   -6.9011  -11.1740 C   0  0  2  0  0  0  0  0  0  0  0  0
   16.9789   -7.7694  -11.7390 N   0  0  0  0  0  0  0  0  0  0  0  0
   16.4244   -5.5258  -11.4522 C   0  0  0  0  0  0  0  0  0  0  0  0
   15.4450   -4.5571  -11.6499 O   0  0  0  0  0  0  0  0  0  0  0  0
   17.6297   -5.1934  -11.5177 O   0  0  0  0  0  0  0  0  0  0  0  0
  2  1  1  1
  2  3  1  0
  3  4  1  0
  4  5  2  0
  4  8  1  0
  6  9  1  0
  6  2  1  0
  7  6  2  0
 10 13  1  0
 10  9  1  0
 10 11  1  6
 11 12  1  0
 13 20  1  0
 14 13  2  0
 16 15  1  0
 17 16  1  0
 18 17  1  0
 19 18  1  1
 19 21  1  0
 20 19  1  0
 21 22  1  0
 23 21  2  0
M  END
$$$$
