DCM.pdb
     RDKit          3D

 23 22  0  0  1  0  0  0  0  0999 V2000
   13.4037  -10.7017  -11.1723 N   0  0  0  0  0  0  0  0  0  0  0  0
   14.7622  -10.4465  -10.7828 C   0  0  1  0  0  0  0  0  0  0  0  0
   15.7140  -11.0461  -11.7895 C   0  0  0  0  0  0  0  0  0  0  0  0
   15.6583  -12.5114  -11.8585 C   0  0  0  0  0  0  0  0  0  0  0  0
   15.8432  -13.2809  -10.9048 O   0  0  0  0  0  0  0  0  0  0  0  0
   15.0252   -8.9861  -10.7809 C   0  0  0  0  0  0  0  0  0  0  0  0
   14.5993   -8.3216  -11.7553 O   0  0  0  0  0  0  0  0  0  0  0  0
   15.3742  -13.0890  -13.0968 O   0  0  0  0  0  0  0  0  0  0  0  0
   15.7204   -8.3584   -9.7387 N   0  0  0  0  0  0  0  0  0  0  0  0
   15.9290   -6.9094   -9.6771 C   0  0  1  0  0  0  0  0  0  0  0  0
   15.8094   -6.4338   -8.2483 C   0  0  0  0  0  0  0  0  0  0  0  0
   14.1092   -6.6395   -7.6970 S   0  0  0  0  0  0  0  0  0  0  0  0
   17.3490   -6.6885  -10.0866 C   0  0  0  0  0  0  0  0  0  0  0  0
   18.2305   -7.2417   -9.3825 O   0  0  0  0  0  0  0  0  0  0  0  0
   22.9322   -8.7093  -14.5594 C   0  0  0  0  0  0  0  0  0  0  0  0
   21.2899   -8.7508  -13.8493 S   0  0  0  0  0  0  0  0  0  0  0  0
   20.8611   -7.1622  -13.0348 C   0  0  0  0  0  0  0  0  0  0  0  0
   19.4907   -7.2424  -12.4122 C   0  0  0  0  0  0  0  0  0  0  0  0
   19.0905   -5.9393  -11.7754 C   0  0  2  0  0  0  0  0  0  0  0  0
   17.7891   -5.9369  -11.1661 N   0  0  0  0  0  0  0  0  0  0  0  0
   19.0812   -4.8653  -12.7803 C   0  0  0  0  0  0  0  0  0  0  0  0
   20.2981   -4.2797  -13.1162 O   0  0  0  0  0  0  0  0  0  0  0  0
   18.0370   -4.4603  -13.3400 O   0  0  0  0  0  0  0  0  0  0  0  0
  2  1  1  6
  2  3  1  0
  3  4  1  0
  4  5  2  0
  4  8  1  0
  6  9  1  0
  6  2  1  0
  7  6  2  0
 10 13  1  0
 10  9  1  0
 10 11  1  1
 11 12  1  0
 13 20  1  0
 14 13  2  0
 16 15  1  0
 17 16  1  0
 18 17  1  0
 19 18  1  6
 19 21  1  0
 20 19  1  0
 21 22  1  0
 23 21  2  0
M  END
$$$$
