DCM.pdb
     RDKit          3D

 23 22  0  0  1  0  0  0  0  0999 V2000
   23.3635  -21.2427  -18.3703 N   0  0  0  0  0  0  0  0  0  0  0  0
   23.9438  -20.2255  -17.5391 C   0  0  1  0  0  0  0  0  0  0  0  0
   22.8674  -19.3103  -17.0076 C   0  0  0  0  0  0  0  0  0  0  0  0
   22.2094  -18.5046  -18.0434 C   0  0  0  0  0  0  0  0  0  0  0  0
   21.0243  -18.1428  -18.0242 O   0  0  0  0  0  0  0  0  0  0  0  0
   24.5869  -20.8433  -16.3531 C   0  0  0  0  0  0  0  0  0  0  0  0
   23.9633  -21.7625  -15.7715 O   0  0  0  0  0  0  0  0  0  0  0  0
   22.9772  -18.1120  -19.1407 O   0  0  0  0  0  0  0  0  0  0  0  0
   25.8419  -20.4276  -15.8883 N   0  0  0  0  0  0  0  0  0  0  0  0
   26.5411  -21.0851  -14.7813 C   0  0  1  0  0  0  0  0  0  0  0  0
   28.0345  -20.9550  -14.9678 C   0  0  0  0  0  0  0  0  0  0  0  0
   28.5977  -22.2130  -16.1242 S   0  0  0  0  0  0  0  0  0  0  0  0
   26.1902  -20.2999  -13.5593 C   0  0  0  0  0  0  0  0  0  0  0  0
   25.9044  -19.0885  -13.7314 O   0  0  0  0  0  0  0  0  0  0  0  0
   20.8345  -20.2084  -12.4464 C   0  0  0  0  0  0  0  0  0  0  0  0
   21.1758  -20.3266  -10.6935 S   0  0  0  0  0  0  0  0  0  0  0  0
   22.9550  -20.0591  -10.3278 C   0  0  0  0  0  0  0  0  0  0  0  0
   23.8101  -20.6082  -11.4411 C   0  0  0  0  0  0  0  0  0  0  0  0
   25.2738  -20.3638  -11.1925 C   0  0  2  0  0  0  0  0  0  0  0  0
   26.1464  -20.7756  -12.2571 N   0  0  0  0  0  0  0  0  0  0  0  0
   25.7123  -21.0898   -9.9907 C   0  0  0  0  0  0  0  0  0  0  0  0
   25.7351  -20.3956   -8.7849 O   0  0  0  0  0  0  0  0  0  0  0  0
   26.0619  -22.2919  -10.0065 O   0  0  0  0  0  0  0  0  0  0  0  0
  2  1  1  6
  2  3  1  0
  3  4  1  0
  4  5  2  0
  4  8  1  0
  6  9  1  0
  6  2  1  0
  7  6  2  0
 10 13  1  0
 10  9  1  0
 10 11  1  6
 11 12  1  0
 13 20  1  0
 14 13  2  0
 16 15  1  0
 17 16  1  0
 18 17  1  0
 19 18  1  6
 19 21  1  0
 20 19  1  0
 21 22  1  0
 23 21  2  0
M  END
$$$$
