HVM.pdb
     RDKit          3D

 26 26  0  0  1  0  0  0  0  0999 V2000
   11.1814  -17.5382   17.9658 N   0  0  0  0  0  0  0  0  0  0  0  0
   10.3603  -17.8547   19.1191 C   0  0  1  0  0  0  0  0  0  0  0  0
   11.0091  -19.0690   19.7778 C   0  0  0  0  0  0  0  0  0  0  0  0
   10.7330  -20.2348   18.8685 C   0  0  0  0  0  0  0  0  0  0  0  0
    9.5077  -20.5657   18.3290 C   0  0  0  0  0  0  0  0  0  0  0  0
    9.6875  -21.6672   17.5785 N   0  0  0  0  0  0  0  0  0  0  0  0
   10.9716  -22.0412   17.6240 C   0  0  0  0  0  0  0  0  0  0  0  0
   11.5969  -21.1631   18.4110 N   0  0  0  0  0  0  0  0  0  0  0  0
   10.3053  -16.7105   20.0648 C   0  0  0  0  0  0  0  0  0  0  0  0
   11.3138  -16.0175   20.3412 O   0  0  0  0  0  0  0  0  0  0  0  0
    7.2635  -14.1462   19.9610 C   0  0  0  0  0  0  0  0  0  0  0  0
    7.4536  -14.8019   21.2993 C   0  0  2  0  0  0  0  0  0  0  0  0
    6.9885  -13.8548   22.4113 C   0  0  0  0  0  0  0  0  0  0  0  0
    8.8929  -15.2359   21.5588 C   0  0  2  0  0  0  0  0  0  0  0  0
    9.0799  -16.3975   20.6680 N   0  0  0  0  0  0  0  0  0  0  0  0
    9.0675  -15.7674   22.9459 C   0  0  0  0  0  0  0  0  0  0  0  0
    8.8893  -17.0108   23.1919 O   0  0  0  0  0  0  0  0  0  0  0  0
    9.7133  -12.5995   28.9443 C   0  0  0  0  0  0  0  0  0  0  0  0
   10.5377  -14.1899   29.0790 S   0  0  0  0  0  0  0  0  0  0  0  0
   10.1427  -15.2978   27.7291 C   0  0  0  0  0  0  0  0  0  0  0  0
    9.9702  -14.5760   26.4107 C   0  0  0  0  0  0  0  0  0  0  0  0
    9.5796  -15.5737   25.3453 C   0  0  2  0  0  0  0  0  0  0  0  0
    9.4329  -14.9511   24.0485 N   0  0  0  0  0  0  0  0  0  0  0  0
    8.3195  -16.2830   25.7252 C   0  0  0  0  0  0  0  0  0  0  0  0
    8.3260  -17.4982   26.3734 O   0  0  0  0  0  0  0  0  0  0  0  0
    7.2103  -15.7613   25.4485 O   0  0  0  0  0  0  0  0  0  0  0  0
  2  1  1  6
  3  2  1  0
  4  8  1  0
  4  3  1  0
  5  4  2  0
  6  5  1  0
  6  7  1  0
  7  8  2  0
  9  2  1  0
  9 10  2  0
 12 13  1  1
 12 11  1  0
 12 14  1  0
 14 15  1  6
 15  9  1  0
 16 14  1  0
 17 16  2  0
 18 19  1  0
 20 19  1  0
 20 21  1  0
 22 21  1  1
 22 23  1  0
 22 24  1  0
 23 16  1  0
 24 26  2  0
 24 25  1  0
M  END
$$$$
