HVM.pdb
     RDKit          3D

 26 26  0  0  1  0  0  0  0  0999 V2000
    8.3834  -16.6616   19.6994 N   0  0  0  0  0  0  0  0  0  0  0  0
    8.5254  -15.6857   20.7634 C   0  0  1  0  0  0  0  0  0  0  0  0
    7.3826  -14.6912   20.5782 C   0  0  0  0  0  0  0  0  0  0  0  0
    7.6629  -13.9679   19.2896 C   0  0  0  0  0  0  0  0  0  0  0  0
    8.4128  -12.8183   19.1555 C   0  0  0  0  0  0  0  0  0  0  0  0
    8.4198  -12.4976   17.8494 N   0  0  0  0  0  0  0  0  0  0  0  0
    7.7072  -13.3957   17.1590 C   0  0  0  0  0  0  0  0  0  0  0  0
    7.2524  -14.2842   18.0451 N   0  0  0  0  0  0  0  0  0  0  0  0
    8.4459  -16.3352   22.0970 C   0  0  0  0  0  0  0  0  0  0  0  0
    7.3834  -16.8335   22.5400 O   0  0  0  0  0  0  0  0  0  0  0  0
   10.1955  -19.2518   23.0458 C   0  0  0  0  0  0  0  0  0  0  0  0
   10.6685  -18.1867   23.9939 C   0  0  2  0  0  0  0  0  0  0  0  0
   11.0236  -18.8165   25.3456 C   0  0  0  0  0  0  0  0  0  0  0  0
    9.6534  -17.0662   24.1967 C   0  0  2  0  0  0  0  0  0  0  0  0
    9.6028  -16.3908   22.8856 N   0  0  0  0  0  0  0  0  0  0  0  0
   10.1551  -16.0340   25.1558 C   0  0  0  0  0  0  0  0  0  0  0  0
   10.9719  -15.1286   24.7664 O   0  0  0  0  0  0  0  0  0  0  0  0
    6.0117  -11.6272   26.9030 C   0  0  0  0  0  0  0  0  0  0  0  0
    7.7937  -11.7794   26.7347 S   0  0  0  0  0  0  0  0  0  0  0  0
    8.3772  -13.4551   26.9743 C   0  0  0  0  0  0  0  0  0  0  0  0
    9.8830  -13.5694   26.8820 C   0  0  0  0  0  0  0  0  0  0  0  0
   10.3072  -14.9403   27.3552 C   0  0  2  0  0  0  0  0  0  0  0  0
    9.7683  -15.9913   26.5212 N   0  0  0  0  0  0  0  0  0  0  0  0
    9.9066  -15.1524   28.7800 C   0  0  0  0  0  0  0  0  0  0  0  0
    9.0788  -16.1832   29.1658 O   0  0  0  0  0  0  0  0  0  0  0  0
   10.3344  -14.3688   29.6644 O   0  0  0  0  0  0  0  0  0  0  0  0
  2  1  1  6
  3  2  1  0
  4  8  1  0
  4  3  1  0
  5  4  2  0
  6  5  1  0
  6  7  1  0
  7  8  2  0
  9  2  1  0
  9 10  2  0
 12 13  1  1
 12 11  1  0
 12 14  1  0
 14 15  1  6
 15  9  1  0
 16 14  1  0
 17 16  2  0
 18 19  1  0
 20 19  1  0
 20 21  1  0
 22 21  1  6
 22 23  1  0
 22 24  1  0
 23 16  1  0
 24 26  2  0
 24 25  1  0
M  END
$$$$
