HVM.pdb
     RDKit          3D

 26 26  0  0  1  0  0  0  0  0999 V2000
    7.5474  -18.9683   18.7562 N   0  0  0  0  0  0  0  0  0  0  0  0
    7.9763  -17.8208   19.5332 C   0  0  1  0  0  0  0  0  0  0  0  0
    7.2590  -16.6143   18.9339 C   0  0  0  0  0  0  0  0  0  0  0  0
    7.9252  -16.3460   17.6124 C   0  0  0  0  0  0  0  0  0  0  0  0
    9.1166  -15.6758   17.4300 C   0  0  0  0  0  0  0  0  0  0  0  0
    9.3607  -15.6503   16.1076 N   0  0  0  0  0  0  0  0  0  0  0  0
    8.3746  -16.2752   15.4533 C   0  0  0  0  0  0  0  0  0  0  0  0
    7.5083  -16.6935   16.3784 N   0  0  0  0  0  0  0  0  0  0  0  0
    7.6220  -17.9844   20.9664 C   0  0  0  0  0  0  0  0  0  0  0  0
    6.4560  -18.2507   21.3446 O   0  0  0  0  0  0  0  0  0  0  0  0
    8.9509  -20.5049   23.1356 C   0  0  0  0  0  0  0  0  0  0  0  0
    9.3577  -19.1850   23.7269 C   0  0  2  0  0  0  0  0  0  0  0  0
    9.4683  -19.3117   25.2506 C   0  0  0  0  0  0  0  0  0  0  0  0
    8.4068  -18.0465   23.3709 C   0  0  2  0  0  0  0  0  0  0  0  0
    8.6305  -17.8348   21.9276 N   0  0  0  0  0  0  0  0  0  0  0  0
    8.8106  -16.7646   24.0272 C   0  0  0  0  0  0  0  0  0  0  0  0
    9.9896  -16.2943   23.8626 O   0  0  0  0  0  0  0  0  0  0  0  0
    5.5135  -11.2293   26.0602 C   0  0  0  0  0  0  0  0  0  0  0  0
    6.7909  -11.5481   27.2824 S   0  0  0  0  0  0  0  0  0  0  0  0
    8.0023  -12.7455   26.7302 C   0  0  0  0  0  0  0  0  0  0  0  0
    7.3778  -13.9214   26.0116 C   0  0  0  0  0  0  0  0  0  0  0  0
    8.4704  -14.8507   25.5365 C   0  0  2  0  0  0  0  0  0  0  0  0
    7.9373  -16.0069   24.8512 N   0  0  0  0  0  0  0  0  0  0  0  0
    9.3320  -15.2783   26.6811 C   0  0  0  0  0  0  0  0  0  0  0  0
    9.1329  -16.4666   27.3481 O   0  0  0  0  0  0  0  0  0  0  0  0
   10.2736  -14.5353   27.0559 O   0  0  0  0  0  0  0  0  0  0  0  0
  2  1  1  6
  3  2  1  0
  4  8  1  0
  4  3  1  0
  5  4  2  0
  6  5  1  0
  6  7  1  0
  7  8  2  0
  9  2  1  0
  9 10  2  0
 12 13  1  1
 12 11  1  0
 12 14  1  0
 14 15  1  6
 15  9  1  0
 16 14  1  0
 17 16  2  0
 18 19  1  0
 20 19  1  0
 20 21  1  0
 22 21  1  1
 22 23  1  0
 22 24  1  0
 23 16  1  0
 24 26  2  0
 24 25  1  0
M  END
$$$$
