HVM.pdb
     RDKit          3D

 26 26  0  0  1  0  0  0  0  0999 V2000
   11.4954  -17.7215   18.3126 N   0  0  0  0  0  0  0  0  0  0  0  0
   10.8348  -17.9905   19.5758 C   0  0  1  0  0  0  0  0  0  0  0  0
   11.7751  -18.9043   20.3568 C   0  0  0  0  0  0  0  0  0  0  0  0
   11.6097  -20.2775   19.7658 C   0  0  0  0  0  0  0  0  0  0  0  0
   12.5872  -20.9990   19.1134 C   0  0  0  0  0  0  0  0  0  0  0  0
   12.0373  -22.1684   18.7410 N   0  0  0  0  0  0  0  0  0  0  0  0
   10.7579  -22.2115   19.1313 C   0  0  0  0  0  0  0  0  0  0  0  0
   10.5098  -21.0568   19.7529 N   0  0  0  0  0  0  0  0  0  0  0  0
   10.5826  -16.7325   20.3244 C   0  0  0  0  0  0  0  0  0  0  0  0
   11.4567  -15.8427   20.4578 O   0  0  0  0  0  0  0  0  0  0  0  0
    7.4328  -14.5641   19.7701 C   0  0  0  0  0  0  0  0  0  0  0  0
    7.5251  -15.0275   21.1962 C   0  0  2  0  0  0  0  0  0  0  0  0
    6.8910  -13.9835   22.1225 C   0  0  0  0  0  0  0  0  0  0  0  0
    8.9543  -15.3162   21.6449 C   0  0  2  0  0  0  0  0  0  0  0  0
    9.3206  -16.5369   20.9010 N   0  0  0  0  0  0  0  0  0  0  0  0
    9.0124  -15.6993   23.0895 C   0  0  0  0  0  0  0  0  0  0  0  0
    9.0280  -16.9319   23.4341 O   0  0  0  0  0  0  0  0  0  0  0  0
    5.7857  -11.5297   27.1868 C   0  0  0  0  0  0  0  0  0  0  0  0
    7.1642  -12.6055   27.5986 S   0  0  0  0  0  0  0  0  0  0  0  0
    8.1028  -13.1185   26.1627 C   0  0  0  0  0  0  0  0  0  0  0  0
    9.2022  -14.1008   26.5024 C   0  0  0  0  0  0  0  0  0  0  0  0
    9.1864  -15.2307   25.4993 C   0  0  2  0  0  0  0  0  0  0  0  0
    9.0541  -14.7481   24.1427 N   0  0  0  0  0  0  0  0  0  0  0  0
    8.0912  -16.1986   25.8143 C   0  0  0  0  0  0  0  0  0  0  0  0
    6.9572  -16.3039   25.0399 O   0  0  0  0  0  0  0  0  0  0  0  0
    8.1989  -16.9470   26.8180 O   0  0  0  0  0  0  0  0  0  0  0  0
  2  1  1  6
  3  2  1  0
  4  8  1  0
  4  3  1  0
  5  4  2  0
  6  5  1  0
  6  7  1  0
  7  8  2  0
  9  2  1  0
  9 10  2  0
 12 13  1  1
 12 11  1  0
 12 14  1  0
 14 15  1  6
 15  9  1  0
 16 14  1  0
 17 16  2  0
 18 19  1  0
 20 19  1  0
 20 21  1  0
 22 21  1  1
 22 23  1  0
 22 24  1  0
 23 16  1  0
 24 26  2  0
 24 25  1  0
M  END
$$$$
