HVM.pdb
     RDKit          3D

 26 26  0  0  1  0  0  0  0  0999 V2000
    7.9472  -18.8559   18.9944 N   0  0  0  0  0  0  0  0  0  0  0  0
    8.1260  -18.4293   20.3694 C   0  0  1  0  0  0  0  0  0  0  0  0
    8.9888  -19.4988   21.0335 C   0  0  0  0  0  0  0  0  0  0  0  0
    8.1668  -20.7583   21.0335 C   0  0  0  0  0  0  0  0  0  0  0  0
    6.8313  -20.8510   21.3646 C   0  0  0  0  0  0  0  0  0  0  0  0
    6.4782  -22.1425   21.2376 N   0  0  0  0  0  0  0  0  0  0  0  0
    7.5339  -22.8634   20.8416 C   0  0  0  0  0  0  0  0  0  0  0  0
    8.5540  -22.0112   20.7210 N   0  0  0  0  0  0  0  0  0  0  0  0
    8.7910  -17.1026   20.4341 C   0  0  0  0  0  0  0  0  0  0  0  0
   10.0060  -16.9457   20.1645 O   0  0  0  0  0  0  0  0  0  0  0  0
    7.6718  -14.1170   18.5670 C   0  0  0  0  0  0  0  0  0  0  0  0
    7.6078  -13.7959   20.0332 C   0  0  2  0  0  0  0  0  0  0  0  0
    7.8742  -12.3017   20.2488 C   0  0  0  0  0  0  0  0  0  0  0  0
    8.5782  -14.6201   20.8736 C   0  0  2  0  0  0  0  0  0  0  0  0
    8.0292  -15.9885   20.8107 N   0  0  0  0  0  0  0  0  0  0  0  0
    8.5214  -14.2358   22.3179 C   0  0  0  0  0  0  0  0  0  0  0  0
    8.0132  -13.1156   22.6721 O   0  0  0  0  0  0  0  0  0  0  0  0
    7.1913  -11.0001   27.2568 C   0  0  0  0  0  0  0  0  0  0  0  0
    6.2699  -12.4773   26.8142 S   0  0  0  0  0  0  0  0  0  0  0  0
    7.3234  -13.8933   26.5123 C   0  0  0  0  0  0  0  0  0  0  0  0
    7.4326  -14.2391   25.0435 C   0  0  0  0  0  0  0  0  0  0  0  0
    8.8617  -14.6132   24.7260 C   0  0  2  0  0  0  0  0  0  0  0  0
    9.0121  -15.0650   23.3607 N   0  0  0  0  0  0  0  0  0  0  0  0
    9.3554  -15.6577   25.6750 C   0  0  0  0  0  0  0  0  0  0  0  0
    9.6489  -15.3765   26.9909 O   0  0  0  0  0  0  0  0  0  0  0  0
    9.5116  -16.8364   25.2685 O   0  0  0  0  0  0  0  0  0  0  0  0
  2  1  1  6
  3  2  1  0
  4  8  1  0
  4  3  1  0
  5  4  2  0
  6  5  1  0
  6  7  1  0
  7  8  2  0
  9  2  1  0
  9 10  2  0
 12 13  1  6
 12 11  1  0
 12 14  1  0
 14 15  1  1
 15  9  1  0
 16 14  1  0
 17 16  2  0
 18 19  1  0
 20 19  1  0
 20 21  1  0
 22 21  1  1
 22 23  1  0
 22 24  1  0
 23 16  1  0
 24 26  2  0
 24 25  1  0
M  END
$$$$
