HVM.pdb
     RDKit          3D

 26 26  0  0  1  0  0  0  0  0999 V2000
   11.1213  -16.9696   17.9819 N   0  0  0  0  0  0  0  0  0  0  0  0
   10.4988  -17.4261   19.2101 C   0  0  1  0  0  0  0  0  0  0  0  0
   11.3730  -18.5653   19.7274 C   0  0  0  0  0  0  0  0  0  0  0  0
   11.2935  -19.6553   18.6940 C   0  0  0  0  0  0  0  0  0  0  0  0
   12.3615  -20.2058   18.0172 C   0  0  0  0  0  0  0  0  0  0  0  0
   11.8673  -21.1426   17.1882 N   0  0  0  0  0  0  0  0  0  0  0  0
   10.5365  -21.2033   17.3158 C   0  0  0  0  0  0  0  0  0  0  0  0
   10.1996  -20.2948   18.2337 N   0  0  0  0  0  0  0  0  0  0  0  0
   10.4205  -16.3289   20.2084 C   0  0  0  0  0  0  0  0  0  0  0  0
   11.3852  -15.5616   20.4411 O   0  0  0  0  0  0  0  0  0  0  0  0
    6.5723  -15.6968   21.5902 C   0  0  0  0  0  0  0  0  0  0  0  0
    7.5718  -14.5763   21.5393 C   0  0  2  0  0  0  0  0  0  0  0  0
    7.5239  -13.9010   20.1639 C   0  0  0  0  0  0  0  0  0  0  0  0
    8.9972  -15.0259   21.8447 C   0  0  2  0  0  0  0  0  0  0  0  0
    9.2232  -16.1481   20.9134 N   0  0  0  0  0  0  0  0  0  0  0  0
    9.1078  -15.6179   23.2137 C   0  0  0  0  0  0  0  0  0  0  0  0
    9.0210  -16.8837   23.3826 O   0  0  0  0  0  0  0  0  0  0  0  0
   10.1801  -12.5341   29.0723 C   0  0  0  0  0  0  0  0  0  0  0  0
   10.1463  -14.2807   29.4907 S   0  0  0  0  0  0  0  0  0  0  0  0
    9.8078  -15.3303   28.0801 C   0  0  0  0  0  0  0  0  0  0  0  0
    9.7127  -14.5561   26.7838 C   0  0  0  0  0  0  0  0  0  0  0  0
    9.4797  -15.5211   25.6446 C   0  0  2  0  0  0  0  0  0  0  0  0
    9.3117  -14.8370   24.3819 N   0  0  0  0  0  0  0  0  0  0  0  0
    8.2959  -16.3901   25.9250 C   0  0  0  0  0  0  0  0  0  0  0  0
    8.4013  -17.5762   26.6170 O   0  0  0  0  0  0  0  0  0  0  0  0
    7.1605  -16.0356   25.5199 O   0  0  0  0  0  0  0  0  0  0  0  0
  2  1  1  6
  3  2  1  0
  4  8  1  0
  4  3  1  0
  5  4  2  0
  6  5  1  0
  6  7  1  0
  7  8  2  0
  9  2  1  0
  9 10  2  0
 12 13  1  6
 12 11  1  0
 12 14  1  0
 14 15  1  6
 15  9  1  0
 16 14  1  0
 17 16  2  0
 18 19  1  0
 20 19  1  0
 20 21  1  0
 22 21  1  1
 22 23  1  0
 22 24  1  0
 23 16  1  0
 24 26  2  0
 24 25  1  0
M  END
$$$$
