HVM.pdb
     RDKit          3D

 26 26  0  0  1  0  0  0  0  0999 V2000
    8.8722  -19.1004   19.1996 N   0  0  0  0  0  0  0  0  0  0  0  0
    8.8089  -18.6647   20.5819 C   0  0  1  0  0  0  0  0  0  0  0  0
    9.6803  -19.6382   21.3708 C   0  0  0  0  0  0  0  0  0  0  0  0
    8.9345  -20.9442   21.3912 C   0  0  0  0  0  0  0  0  0  0  0  0
    7.6911  -21.1554   21.9491 C   0  0  0  0  0  0  0  0  0  0  0  0
    7.3831  -22.4504   21.7566 N   0  0  0  0  0  0  0  0  0  0  0  0
    8.3789  -23.0601   21.1027 C   0  0  0  0  0  0  0  0  0  0  0  0
    9.3159  -22.1345   20.8862 N   0  0  0  0  0  0  0  0  0  0  0  0
    9.3111  -17.2742   20.7265 C   0  0  0  0  0  0  0  0  0  0  0  0
   10.4549  -16.9292   20.3442 O   0  0  0  0  0  0  0  0  0  0  0  0
    6.9074  -14.3385   19.7597 C   0  0  0  0  0  0  0  0  0  0  0  0
    7.4491  -14.1910   21.1533 C   0  0  2  0  0  0  0  0  0  0  0  0
    7.5657  -12.7046   21.5096 C   0  0  0  0  0  0  0  0  0  0  0  0
    8.7971  -14.8771   21.3517 C   0  0  2  0  0  0  0  0  0  0  0  0
    8.4727  -16.3162   21.3120 N   0  0  0  0  0  0  0  0  0  0  0  0
    9.3451  -14.6314   22.7215 C   0  0  0  0  0  0  0  0  0  0  0  0
    9.9102  -13.5184   23.0046 O   0  0  0  0  0  0  0  0  0  0  0  0
    5.8439  -12.2220   26.3214 C   0  0  0  0  0  0  0  0  0  0  0  0
    7.3408  -12.3117   27.3106 S   0  0  0  0  0  0  0  0  0  0  0  0
    8.3594  -13.7283   26.9089 C   0  0  0  0  0  0  0  0  0  0  0  0
    8.2584  -14.1281   25.4532 C   0  0  0  0  0  0  0  0  0  0  0  0
    9.3519  -15.1206   25.1334 C   0  0  2  0  0  0  0  0  0  0  0  0
    9.2752  -15.5888   23.7676 N   0  0  0  0  0  0  0  0  0  0  0  0
    9.3071  -16.2763   26.0809 C   0  0  0  0  0  0  0  0  0  0  0  0
    9.5862  -16.1390   27.4225 O   0  0  0  0  0  0  0  0  0  0  0  0
    9.0054  -17.4171   25.6488 O   0  0  0  0  0  0  0  0  0  0  0  0
  2  1  1  6
  3  2  1  0
  4  8  1  0
  4  3  1  0
  5  4  2  0
  6  5  1  0
  6  7  1  0
  7  8  2  0
  9  2  1  0
  9 10  2  0
 12 13  1  6
 12 11  1  0
 12 14  1  0
 14 15  1  1
 15  9  1  0
 16 14  1  0
 17 16  2  0
 18 19  1  0
 20 19  1  0
 20 21  1  0
 22 21  1  1
 22 23  1  0
 22 24  1  0
 23 16  1  0
 24 26  2  0
 24 25  1  0
M  END
$$$$
