HVM.pdb
     RDKit          3D

 26 26  0  0  1  0  0  0  0  0999 V2000
   10.0008  -17.9378   17.8518 N   0  0  0  0  0  0  0  0  0  0  0  0
    9.3996  -18.0621   19.1662 C   0  0  1  0  0  0  0  0  0  0  0  0
   10.0077  -19.3149   19.7908 C   0  0  0  0  0  0  0  0  0  0  0  0
    9.5154  -20.4733   18.9675 C   0  0  0  0  0  0  0  0  0  0  0  0
    8.2680  -20.5808   18.3894 C   0  0  0  0  0  0  0  0  0  0  0  0
    8.2283  -21.7602   17.7442 N   0  0  0  0  0  0  0  0  0  0  0  0
    9.3961  -22.3968   17.8927 C   0  0  0  0  0  0  0  0  0  0  0  0
   10.1700  -21.6048   18.6379 N   0  0  0  0  0  0  0  0  0  0  0  0
    9.6874  -16.8667   19.9997 C   0  0  0  0  0  0  0  0  0  0  0  0
   10.8556  -16.4665   20.2206 O   0  0  0  0  0  0  0  0  0  0  0  0
    7.6348  -13.8620   19.1919 C   0  0  0  0  0  0  0  0  0  0  0  0
    7.5988  -14.0309   20.6843 C   0  0  2  0  0  0  0  0  0  0  0  0
    7.5788  -12.6557   21.3613 C   0  0  0  0  0  0  0  0  0  0  0  0
    8.7620  -14.8563   21.2256 C   0  0  2  0  0  0  0  0  0  0  0  0
    8.6115  -16.1635   20.5574 N   0  0  0  0  0  0  0  0  0  0  0  0
    8.6066  -15.1371   22.6865 C   0  0  0  0  0  0  0  0  0  0  0  0
    7.7336  -15.9787   23.0965 O   0  0  0  0  0  0  0  0  0  0  0  0
    6.1186  -10.5596   26.8395 C   0  0  0  0  0  0  0  0  0  0  0  0
    6.1645  -12.3302   26.5396 S   0  0  0  0  0  0  0  0  0  0  0  0
    7.6824  -12.8666   25.7557 C   0  0  0  0  0  0  0  0  0  0  0  0
    7.6836  -14.3445   25.4321 C   0  0  0  0  0  0  0  0  0  0  0  0
    9.0871  -14.7733   25.0726 C   0  0  2  0  0  0  0  0  0  0  0  0
    9.3954  -14.5076   23.6851 N   0  0  0  0  0  0  0  0  0  0  0  0
    9.2897  -16.2224   25.3802 C   0  0  0  0  0  0  0  0  0  0  0  0
   10.4133  -16.6871   26.0270 O   0  0  0  0  0  0  0  0  0  0  0  0
    8.4106  -17.0538   25.0415 O   0  0  0  0  0  0  0  0  0  0  0  0
  2  1  1  6
  3  2  1  0
  4  8  1  0
  4  3  1  0
  5  4  2  0
  6  5  1  0
  6  7  1  0
  7  8  2  0
  9  2  1  0
  9 10  2  0
 12 13  1  1
 12 11  1  0
 12 14  1  0
 14 15  1  6
 15  9  1  0
 16 14  1  0
 17 16  2  0
 18 19  1  0
 20 19  1  0
 20 21  1  0
 22 21  1  6
 22 23  1  0
 22 24  1  0
 23 16  1  0
 24 26  2  0
 24 25  1  0
M  END
$$$$
