HVM.pdb
     RDKit          3D

 26 26  0  0  1  0  0  0  0  0999 V2000
   11.3131  -16.8486   17.9292 N   0  0  0  0  0  0  0  0  0  0  0  0
   10.3068  -17.1621   18.9260 C   0  0  1  0  0  0  0  0  0  0  0  0
   10.7513  -18.4688   19.5771 C   0  0  0  0  0  0  0  0  0  0  0  0
   10.6052  -19.5317   18.5230 C   0  0  0  0  0  0  0  0  0  0  0  0
   10.0889  -19.3484   17.2575 C   0  0  0  0  0  0  0  0  0  0  0  0
   10.1329  -20.5388   16.6332 N   0  0  0  0  0  0  0  0  0  0  0  0
   10.6540  -21.4603   17.4519 C   0  0  0  0  0  0  0  0  0  0  0  0
   10.9370  -20.8362   18.5973 N   0  0  0  0  0  0  0  0  0  0  0  0
   10.2028  -16.0795   19.9378 C   0  0  0  0  0  0  0  0  0  0  0  0
   11.1984  -15.4198   20.3214 O   0  0  0  0  0  0  0  0  0  0  0  0
    6.2717  -15.0823   20.9171 C   0  0  0  0  0  0  0  0  0  0  0  0
    7.3899  -14.0816   20.9917 C   0  0  2  0  0  0  0  0  0  0  0  0
    7.5667  -13.3994   19.6304 C   0  0  0  0  0  0  0  0  0  0  0  0
    8.7147  -14.6905   21.4403 C   0  0  2  0  0  0  0  0  0  0  0  0
    8.9444  -15.7880   20.4809 N   0  0  0  0  0  0  0  0  0  0  0  0
    8.5941  -15.3507   22.7770 C   0  0  0  0  0  0  0  0  0  0  0  0
    8.7588  -16.6147   22.8940 O   0  0  0  0  0  0  0  0  0  0  0  0
   11.2281  -13.0674   29.1812 C   0  0  0  0  0  0  0  0  0  0  0  0
    9.5230  -13.5642   28.9117 S   0  0  0  0  0  0  0  0  0  0  0  0
    9.3432  -14.7519   27.5839 C   0  0  0  0  0  0  0  0  0  0  0  0
    8.7946  -14.1343   26.3164 C   0  0  0  0  0  0  0  0  0  0  0  0
    8.7659  -15.1801   25.2261 C   0  0  2  0  0  0  0  0  0  0  0  0
    8.2987  -14.6388   23.9694 N   0  0  0  0  0  0  0  0  0  0  0  0
    7.9212  -16.3439   25.6354 C   0  0  0  0  0  0  0  0  0  0  0  0
    8.4488  -17.4526   26.2591 O   0  0  0  0  0  0  0  0  0  0  0  0
    6.6857  -16.3200   25.4073 O   0  0  0  0  0  0  0  0  0  0  0  0
  2  1  1  6
  3  2  1  0
  4  8  1  0
  4  3  1  0
  5  4  2  0
  6  5  1  0
  6  7  1  0
  7  8  2  0
  9  2  1  0
  9 10  2  0
 12 13  1  6
 12 11  1  0
 12 14  1  0
 14 15  1  6
 15  9  1  0
 16 14  1  0
 17 16  2  0
 18 19  1  0
 20 19  1  0
 20 21  1  0
 22 21  1  1
 22 23  1  0
 22 24  1  0
 23 16  1  0
 24 26  2  0
 24 25  1  0
M  END
$$$$
