RSL.pdb
     RDKit          3D

 26 25  0  0  1  0  0  0  0  0999 V2000
   20.7425  -21.7653  -15.4729 N   0  0  0  0  0  0  0  0  0  0  0  0
   20.6741  -20.3527  -15.6098 C   0  0  0  0  0  0  0  0  0  0  0  0
   19.6753  -19.7215  -15.0680 N   0  0  0  0  0  0  0  0  0  0  0  0
   21.6359  -19.5772  -16.3073 N   0  0  0  0  0  0  0  0  0  0  0  0
   22.8011  -20.1941  -16.9045 C   0  0  0  0  0  0  0  0  0  0  0  0
   24.0303  -19.8023  -16.1144 C   0  0  0  0  0  0  0  0  0  0  0  0
   25.1950  -19.4862  -17.0048 C   0  0  0  0  0  0  0  0  0  0  0  0
   26.3602  -19.0770  -16.1005 C   0  0  2  0  0  0  0  0  0  0  0  0
   26.5098  -20.0467  -15.0589 N   0  0  0  0  0  0  0  0  0  0  0  0
   26.0691  -17.7060  -15.6200 C   0  0  0  0  0  0  0  0  0  0  0  0
   25.5244  -17.6021  -14.4925 O   0  0  0  0  0  0  0  0  0  0  0  0
   19.5386  -18.7032  -15.1062 O   0  0  0  0  0  0  0  0  0  0  0  0
   26.8496  -14.3156  -17.8225 C   0  0  0  0  0  0  0  0  0  0  0  0
   27.0414  -14.2191  -16.4354 C   0  0  1  0  0  0  0  0  0  0  0  0
   26.1220  -15.2517  -15.8104 N   0  0  0  0  0  0  0  0  0  0  0  0
   26.3830  -16.5665  -16.3810 C   0  0  0  0  0  0  0  0  0  0  0  0
   24.6913  -14.8796  -16.0302 O   0  0  0  0  0  0  0  0  0  0  0  0
   23.9561  -15.5547  -16.8053 C   0  0  0  0  0  0  0  0  0  0  0  0
   19.7582  -13.9256  -15.9259 C   0  0  2  0  0  0  0  0  0  0  0  0
   20.5926  -14.6280  -14.8986 C   0  0  0  0  0  0  0  0  0  0  0  0
   19.8001  -14.9955  -13.6767 C   0  0  0  0  0  0  0  0  0  0  0  0
   21.9135  -14.0830  -14.6260 C   0  0  2  0  0  0  0  0  0  0  0  0
   22.7028  -13.3586  -15.6290 N   0  0  0  0  0  0  0  0  0  0  0  0
   24.1113  -13.7605  -15.3787 C   0  0  0  0  0  0  0  0  0  0  0  0
   22.7041  -11.8893  -15.5822 O   0  0  0  0  0  0  0  0  0  0  0  0
   23.5563  -11.2896  -14.8912 O   0  0  0  0  0  0  0  0  0  0  0  0
  1  2  1  0
  2  3  2  0
  4  2  1  0
  5  4  1  0
  6  5  1  0
  7  8  1  0
  7  6  1  0
  8  9  1  1
 10 15  1  0
 10  8  1  0
 11 10  2  0
 14 13  1  1
 13 12  1  0
 14 15  1  0
 16 17  2  0
 16 14  1  0
 19 18  1  6
 19 21  1  0
 20 19  1  0
 22 21  1  6
 22 23  1  0
 23 16  1  0
 24 22  1  0
 25 24  2  0
 26 24  1  0
M  END
$$$$
