RSL.pdb
     RDKit          3D

 26 25  0  0  1  0  0  0  0  0999 V2000
   29.1665  -21.0679  -19.9975 N   0  0  0  0  0  0  0  0  0  0  0  0
   28.2222  -20.5413  -20.9194 C   0  0  0  0  0  0  0  0  0  0  0  0
   28.2114  -21.0046  -22.1339 N   0  0  0  0  0  0  0  0  0  0  0  0
   27.2795  -19.5311  -20.5973 N   0  0  0  0  0  0  0  0  0  0  0  0
   27.1465  -19.0389  -19.2427 C   0  0  0  0  0  0  0  0  0  0  0  0
   25.8887  -19.6115  -18.6275 C   0  0  0  0  0  0  0  0  0  0  0  0
   25.9831  -19.7016  -17.1335 C   0  0  0  0  0  0  0  0  0  0  0  0
   27.4272  -20.0760  -16.7912 C   0  0  2  0  0  0  0  0  0  0  0  0
   27.9369  -20.9540  -17.7997 N   0  0  0  0  0  0  0  0  0  0  0  0
   27.4078  -20.6583  -15.4289 C   0  0  0  0  0  0  0  0  0  0  0  0
   26.5428  -21.5403  -15.1996 O   0  0  0  0  0  0  0  0  0  0  0  0
   27.6479  -20.6169  -22.9015 O   0  0  0  0  0  0  0  0  0  0  0  0
   29.7870  -19.2619  -12.4538 C   0  0  0  0  0  0  0  0  0  0  0  0
   29.4878  -20.6275  -12.3288 C   0  0  1  0  0  0  0  0  0  0  0  0
   28.2044  -20.8502  -13.1069 N   0  0  0  0  0  0  0  0  0  0  0  0
   28.3102  -20.2512  -14.4307 C   0  0  0  0  0  0  0  0  0  0  0  0
   27.0408  -20.2616  -12.3766 O   0  0  0  0  0  0  0  0  0  0  0  0
   26.5787  -19.1294  -12.6957 C   0  0  0  0  0  0  0  0  0  0  0  0
   23.1306  -20.3916  -13.6414 C   0  0  2  0  0  0  0  0  0  0  0  0
   23.7132  -20.9291  -12.3700 C   0  0  0  0  0  0  0  0  0  0  0  0
   22.8308  -21.9641  -11.7329 C   0  0  0  0  0  0  0  0  0  0  0  0
   24.2917  -19.9687  -11.4430 C   0  0  1  0  0  0  0  0  0  0  0  0
   25.3503  -20.3161  -10.4878 N   0  0  0  0  0  0  0  0  0  0  0  0
   26.4171  -20.9508  -11.3047 C   0  0  0  0  0  0  0  0  0  0  0  0
   25.0393  -21.2896   -9.4312 O   0  0  0  0  0  0  0  0  0  0  0  0
   25.6616  -22.3730   -9.3806 O   0  0  0  0  0  0  0  0  0  0  0  0
  1  2  1  0
  2  3  2  0
  4  2  1  0
  5  4  1  0
  6  5  1  0
  7  8  1  0
  7  6  1  0
  8  9  1  6
 10 15  1  0
 10  8  1  0
 11 10  2  0
 14 13  1  6
 13 12  1  0
 14 15  1  0
 16 17  2  0
 16 14  1  0
 19 18  1  6
 19 21  1  0
 20 19  1  0
 22 21  1  6
 22 23  1  0
 23 16  1  0
 24 22  1  0
 25 24  2  0
 26 24  1  0
M  END
$$$$
