RSL.pdb
     RDKit          3D

 26 25  0  0  1  0  0  0  0  0999 V2000
   19.2265  -22.8065   -9.8280 N   0  0  0  0  0  0  0  0  0  0  0  0
   19.9808  -22.5960   -8.6425 C   0  0  0  0  0  0  0  0  0  0  0  0
   19.9080  -23.4800   -7.6921 N   0  0  0  0  0  0  0  0  0  0  0  0
   20.8179  -21.4712   -8.4256 N   0  0  0  0  0  0  0  0  0  0  0  0
   20.8815  -20.3918   -9.3877 C   0  0  0  0  0  0  0  0  0  0  0  0
   21.6430  -20.8590  -10.6085 C   0  0  0  0  0  0  0  0  0  0  0  0
   22.8279  -19.9874  -10.9009 C   0  0  0  0  0  0  0  0  0  0  0  0
   24.0825  -20.8034  -10.5798 C   0  0  2  0  0  0  0  0  0  0  0  0
   24.4719  -20.5536   -9.2257 N   0  0  0  0  0  0  0  0  0  0  0  0
   25.1044  -20.4326  -11.5865 C   0  0  0  0  0  0  0  0  0  0  0  0
   25.8266  -19.4384  -11.3242 O   0  0  0  0  0  0  0  0  0  0  0  0
   20.4164  -23.4214   -6.8004 O   0  0  0  0  0  0  0  0  0  0  0  0
   25.8570  -22.6467  -14.9671 C   0  0  0  0  0  0  0  0  0  0  0  0
   26.9179  -21.9177  -14.4075 C   0  0  1  0  0  0  0  0  0  0  0  0
   26.2899  -20.7163  -13.7259 N   0  0  0  0  0  0  0  0  0  0  0  0
   25.2681  -21.1519  -12.7832 C   0  0  0  0  0  0  0  0  0  0  0  0
   25.6859  -19.7971  -14.7378 O   0  0  0  0  0  0  0  0  0  0  0  0
   24.4432  -19.8101  -14.9675 C   0  0  0  0  0  0  0  0  0  0  0  0
   24.7825  -15.1738  -15.8021 C   0  0  2  0  0  0  0  0  0  0  0  0
   26.2036  -15.6188  -15.6365 C   0  0  0  0  0  0  0  0  0  0  0  0
   27.1612  -14.4622  -15.6002 C   0  0  0  0  0  0  0  0  0  0  0  0
   26.6458  -16.7501  -16.4370 C   0  0  2  0  0  0  0  0  0  0  0  0
   25.8981  -18.0100  -16.5237 N   0  0  0  0  0  0  0  0  0  0  0  0
   26.4833  -18.8817  -15.4722 C   0  0  0  0  0  0  0  0  0  0  0  0
   25.9901  -18.7872  -17.7680 O   0  0  0  0  0  0  0  0  0  0  0  0
   26.8556  -19.6826  -17.8797 O   0  0  0  0  0  0  0  0  0  0  0  0
  1  2  1  0
  2  3  2  0
  4  2  1  0
  5  4  1  0
  6  5  1  0
  7  8  1  0
  7  6  1  0
  8  9  1  1
 10 15  1  0
 10  8  1  0
 11 10  2  0
 14 13  1  1
 13 12  1  0
 14 15  1  0
 16 17  2  0
 16 14  1  0
 19 18  1  1
 19 21  1  0
 20 19  1  0
 22 21  1  1
 22 23  1  0
 23 16  1  0
 24 22  1  0
 25 24  2  0
 26 24  1  0
M  END
$$$$
