RSL.pdb
     RDKit          3D

 26 25  0  0  1  0  0  0  0  0999 V2000
   28.7044  -22.5136  -19.5606 N   0  0  0  0  0  0  0  0  0  0  0  0
   29.9447  -22.5757  -18.8703 C   0  0  0  0  0  0  0  0  0  0  0  0
   31.0377  -22.7030  -19.5625 N   0  0  0  0  0  0  0  0  0  0  0  0
   30.0697  -22.5072  -17.4587 N   0  0  0  0  0  0  0  0  0  0  0  0
   28.9133  -22.2864  -16.6170 C   0  0  0  0  0  0  0  0  0  0  0  0
   28.2689  -20.9704  -16.9935 C   0  0  0  0  0  0  0  0  0  0  0  0
   27.8190  -20.1986  -15.7890 C   0  0  0  0  0  0  0  0  0  0  0  0
   27.0181  -21.1595  -14.9068 C   0  0  2  0  0  0  0  0  0  0  0  0
   26.0131  -21.7988  -15.6997 N   0  0  0  0  0  0  0  0  0  0  0  0
   26.4872  -20.3622  -13.7764 C   0  0  0  0  0  0  0  0  0  0  0  0
   26.1745  -19.1696  -14.0189 O   0  0  0  0  0  0  0  0  0  0  0  0
   31.9818  -22.7537  -19.1584 O   0  0  0  0  0  0  0  0  0  0  0  0
   23.6375  -21.2025  -11.8702 C   0  0  0  0  0  0  0  0  0  0  0  0
   24.2019  -19.9177  -11.8388 C   0  0  1  0  0  0  0  0  0  0  0  0
   25.6615  -20.1078  -11.4706 N   0  0  0  0  0  0  0  0  0  0  0  0
   26.3357  -20.9036  -12.4879 C   0  0  0  0  0  0  0  0  0  0  0  0
   25.7825  -20.7789  -10.1407 O   0  0  0  0  0  0  0  0  0  0  0  0
   25.8195  -22.0389  -10.0497 C   0  0  0  0  0  0  0  0  0  0  0  0
   28.8665  -20.5505   -6.6917 C   0  0  2  0  0  0  0  0  0  0  0  0
   27.9063  -19.4010   -6.7291 C   0  0  0  0  0  0  0  0  0  0  0  0
   28.3199  -18.2844   -5.8137 C   0  0  0  0  0  0  0  0  0  0  0  0
   26.4865  -19.7168   -6.7007 C   0  0  2  0  0  0  0  0  0  0  0  0
   25.8645  -20.6881   -7.6082 N   0  0  0  0  0  0  0  0  0  0  0  0
   25.8603  -20.0279   -8.9394 C   0  0  0  0  0  0  0  0  0  0  0  0
   24.4674  -21.0728   -7.3612 O   0  0  0  0  0  0  0  0  0  0  0  0
   23.5511  -20.5569   -8.0377 O   0  0  0  0  0  0  0  0  0  0  0  0
  1  2  1  0
  2  3  2  0
  4  2  1  0
  5  4  1  0
  6  5  1  0
  7  8  1  0
  7  6  1  0
  8  9  1  6
 10 15  1  0
 10  8  1  0
 11 10  2  0
 14 13  1  6
 13 12  1  0
 14 15  1  0
 16 17  2  0
 16 14  1  0
 19 18  1  6
 19 21  1  0
 20 19  1  0
 22 21  1  6
 22 23  1  0
 23 16  1  0
 24 22  1  0
 25 24  2  0
 26 24  1  0
M  END
$$$$
