RSL.pdb
     RDKit          3D

 26 25  0  0  1  0  0  0  0  0999 V2000
   20.4005  -18.4510  -14.0272 N   0  0  0  0  0  0  0  0  0  0  0  0
   19.6863  -19.6788  -13.9915 C   0  0  0  0  0  0  0  0  0  0  0  0
   18.8857  -19.9632  -14.9754 N   0  0  0  0  0  0  0  0  0  0  0  0
   19.7912  -20.6257  -12.9401 N   0  0  0  0  0  0  0  0  0  0  0  0
   20.8936  -20.5816  -12.0033 C   0  0  0  0  0  0  0  0  0  0  0  0
   22.1806  -20.8903  -12.7360 C   0  0  0  0  0  0  0  0  0  0  0  0
   23.3686  -20.8696  -11.8209 C   0  0  0  0  0  0  0  0  0  0  0  0
   24.6111  -21.1019  -12.6842 C   0  0  2  0  0  0  0  0  0  0  0  0
   24.2923  -22.0281  -13.7274 N   0  0  0  0  0  0  0  0  0  0  0  0
   25.6873  -21.5566  -11.7730 C   0  0  0  0  0  0  0  0  0  0  0  0
   25.7267  -22.7840  -11.5071 O   0  0  0  0  0  0  0  0  0  0  0  0
   18.2924  -20.8016  -15.0213 O   0  0  0  0  0  0  0  0  0  0  0  0
   29.0806  -19.8628  -11.3970 C   0  0  0  0  0  0  0  0  0  0  0  0
   28.9737  -21.0825  -10.7107 C   0  0  1  0  0  0  0  0  0  0  0  0
   27.5446  -21.1579  -10.2064 N   0  0  0  0  0  0  0  0  0  0  0  0
   26.6267  -20.6658  -11.2250 C   0  0  0  0  0  0  0  0  0  0  0  0
   27.3885  -20.3563   -8.9547 O   0  0  0  0  0  0  0  0  0  0  0  0
   26.6004  -19.3694   -8.9092 C   0  0  0  0  0  0  0  0  0  0  0  0
   27.0447  -19.7755   -3.6783 C   0  0  1  0  0  0  0  0  0  0  0  0
   27.7813  -20.9088   -4.3246 C   0  0  0  0  0  0  0  0  0  0  0  0
   28.4372  -21.8090   -3.3169 C   0  0  0  0  0  0  0  0  0  0  0  0
   28.6004  -20.5961   -5.4854 C   0  0  2  0  0  0  0  0  0  0  0  0
   28.1252  -19.7691   -6.6008 N   0  0  0  0  0  0  0  0  0  0  0  0
   28.1162  -20.6745   -7.7789 C   0  0  0  0  0  0  0  0  0  0  0  0
   28.9400  -18.6142   -7.0047 O   0  0  0  0  0  0  0  0  0  0  0  0
   29.8308  -18.7538   -7.8710 O   0  0  0  0  0  0  0  0  0  0  0  0
  1  2  1  0
  2  3  2  0
  4  2  1  0
  5  4  1  0
  6  5  1  0
  7  8  1  0
  7  6  1  0
  8  9  1  6
 10 15  1  0
 10  8  1  0
 11 10  2  0
 14 13  1  6
 13 12  1  0
 14 15  1  0
 16 17  2  0
 16 14  1  0
 19 18  1  1
 19 21  1  0
 20 19  1  0
 22 21  1  1
 22 23  1  0
 23 16  1  0
 24 22  1  0
 25 24  2  0
 26 24  1  0
M  END
$$$$
