PTA.pdb
     RDKit          3D

 20 20  0  0  1  0  0  0  0  0999 V2000
    7.6655  -14.8931   19.4149 N   0  0  0  0  0  0  0  0  0  0  0  0
    7.9319  -14.0039   18.3110 C   0  0  0  0  0  0  0  0  0  0  0  0
    8.4006  -12.6958   18.8836 C   0  0  0  0  0  0  0  0  0  0  0  0
    7.8892  -12.8052   20.3273 C   0  0  0  0  0  0  0  0  0  0  0  0
    8.2299  -14.2663   20.5784 C   0  0  1  0  0  0  0  0  0  0  0  0
    7.7163  -14.7748   21.8414 C   0  0  0  0  0  0  0  0  0  0  0  0
    6.4755  -14.7568   22.0560 O   0  0  0  0  0  0  0  0  0  0  0  0
    6.9400  -17.6466   23.2145 C   0  0  0  0  0  0  0  0  0  0  0  0
    7.9659  -17.1534   24.2069 C   0  0  1  0  0  0  0  0  0  0  0  0
    9.1768  -17.7507   23.8047 O   0  0  0  0  0  0  0  0  0  0  0  0
    8.1392  -15.6448   24.1855 C   0  0  2  0  0  0  0  0  0  0  0  0
    8.5796  -15.2801   22.8141 N   0  0  0  0  0  0  0  0  0  0  0  0
    9.1075  -15.1310   25.1616 C   0  0  0  0  0  0  0  0  0  0  0  0
   10.3535  -15.0968   24.8383 O   0  0  0  0  0  0  0  0  0  0  0  0
    9.2911  -13.0644   28.2405 C   0  0  0  0  0  0  0  0  0  0  0  0
    9.8196  -14.1992   27.3878 C   0  0  2  0  0  0  0  0  0  0  0  0
    8.8127  -14.6577   26.4421 N   0  0  0  0  0  0  0  0  0  0  0  0
   10.1403  -15.3198   28.3080 C   0  0  0  0  0  0  0  0  0  0  0  0
   11.1872  -15.2859   29.2183 O   0  0  0  0  0  0  0  0  0  0  0  0
    9.4544  -16.3913   28.3066 O   0  0  0  0  0  0  0  0  0  0  0  0
  1  2  1  0
  3  2  1  0
  4  3  1  0
  4  5  1  0
  5  1  1  0
  6 12  1  0
  5  6  1  1
  7  6  2  0
  9  8  1  6
  9 11  1  0
 10  9  1  0
 11 12  1  6
 11 13  1  0
 13 14  2  0
 16 15  1  1
 16 18  1  0
 17 13  1  0
 17 16  1  0
 18 19  1  0
 20 18  2  0
M  END
$$$$
