PTA.pdb
     RDKit          3D

 20 20  0  0  1  0  0  0  0  0999 V2000
    8.8141  -14.9627   20.2145 N   0  0  0  0  0  0  0  0  0  0  0  0
    8.7064  -14.5619   18.8333 C   0  0  0  0  0  0  0  0  0  0  0  0
    7.9067  -13.2902   18.7897 C   0  0  0  0  0  0  0  0  0  0  0  0
    7.2032  -13.3370   20.1538 C   0  0  0  0  0  0  0  0  0  0  0  0
    8.3683  -13.8398   20.9926 C   0  0  1  0  0  0  0  0  0  0  0  0
    8.0006  -14.1678   22.3618 C   0  0  0  0  0  0  0  0  0  0  0  0
    7.4953  -13.2781   23.0960 O   0  0  0  0  0  0  0  0  0  0  0  0
    8.8245  -18.1408   23.8625 C   0  0  0  0  0  0  0  0  0  0  0  0
    7.5914  -17.3502   24.2300 C   0  0  1  0  0  0  0  0  0  0  0  0
    7.2648  -17.7720   25.5339 O   0  0  0  0  0  0  0  0  0  0  0  0
    7.8291  -15.8503   24.2513 C   0  0  2  0  0  0  0  0  0  0  0  0
    8.2007  -15.4522   22.8689 N   0  0  0  0  0  0  0  0  0  0  0  0
    8.8767  -15.4149   25.1826 C   0  0  0  0  0  0  0  0  0  0  0  0
   10.0991  -15.4036   24.7778 O   0  0  0  0  0  0  0  0  0  0  0  0
    9.2658  -13.3716   28.2400 C   0  0  0  0  0  0  0  0  0  0  0  0
    9.7511  -14.5040   27.3590 C   0  0  2  0  0  0  0  0  0  0  0  0
    8.6835  -14.9955   26.5007 N   0  0  0  0  0  0  0  0  0  0  0  0
   10.1693  -15.6067   28.2617 C   0  0  0  0  0  0  0  0  0  0  0  0
    9.6363  -16.8867   28.2028 O   0  0  0  0  0  0  0  0  0  0  0  0
   11.0578  -15.4273   29.1543 O   0  0  0  0  0  0  0  0  0  0  0  0
  1  2  1  0
  3  2  1  0
  4  3  1  0
  4  5  1  0
  5  1  1  0
  6 12  1  0
  5  6  1  1
  7  6  2  0
  9  8  1  1
  9 11  1  0
 10  9  1  0
 11 12  1  6
 11 13  1  0
 13 14  2  0
 16 15  1  1
 16 18  1  0
 17 13  1  0
 17 16  1  0
 18 19  1  0
 20 18  2  0
M  END
$$$$
