FGQ.pdb
     RDKit          3D

 25 25  0  0  1  0  0  0  0  0999 V2000
    7.5209  -16.8225   21.9069 N   0  0  0  0  0  0  0  0  0  0  0  0
    7.9752  -15.9542   22.9758 C   0  0  1  0  0  0  0  0  0  0  0  0
    7.0026  -14.7719   23.0018 C   0  0  0  0  0  0  0  0  0  0  0  0
    7.2115  -13.9965   21.7477 C   0  0  0  0  0  0  0  0  0  0  0  0
    8.1062  -12.9625   21.6348 C   0  0  0  0  0  0  0  0  0  0  0  0
    8.2802  -12.2631   20.4676 C   0  0  0  0  0  0  0  0  0  0  0  0
    7.5331  -12.6025   19.3573 C   0  0  0  0  0  0  0  0  0  0  0  0
    6.6346  -13.6236   19.4312 C   0  0  0  0  0  0  0  0  0  0  0  0
    6.4709  -14.3208   20.6194 C   0  0  0  0  0  0  0  0  0  0  0  0
    7.9450  -16.6274   24.2891 C   0  0  0  0  0  0  0  0  0  0  0  0
    8.4639  -16.0897   25.2899 O   0  0  0  0  0  0  0  0  0  0  0  0
    7.3227  -17.8938   24.4170 N   0  0  0  0  0  0  0  0  0  0  0  0
    7.4753  -18.7253   25.5554 C   0  0  0  0  0  0  0  0  0  0  0  0
    8.8225  -19.3850   25.6667 C   0  0  0  0  0  0  0  0  0  0  0  0
    9.3721  -19.7814   24.5909 O   0  0  0  0  0  0  0  0  0  0  0  0
   12.6669  -17.4528   22.8720 N   0  0  0  0  0  0  0  0  0  0  0  0
   12.4829  -17.4462   24.2757 C   0  0  0  0  0  0  0  0  0  0  0  0
   13.0454  -16.5602   24.9498 O   0  0  0  0  0  0  0  0  0  0  0  0
   11.6141  -18.5129   24.8881 C   0  0  0  0  0  0  0  0  0  0  0  0
   11.4814  -18.1806   26.3286 C   0  0  0  0  0  0  0  0  0  0  0  0
   10.8736  -19.2750   27.1844 C   0  0  2  0  0  0  0  0  0  0  0  0
    9.4974  -19.5804   26.8826 N   0  0  0  0  0  0  0  0  0  0  0  0
   10.9260  -18.8275   28.5816 C   0  0  0  0  0  0  0  0  0  0  0  0
    9.9856  -17.9647   29.1357 O   0  0  0  0  0  0  0  0  0  0  0  0
   11.8473  -19.2254   29.3275 O   0  0  0  0  0  0  0  0  0  0  0  0
  2  1  1  6
  2 10  1  0
  3  2  1  0
  4  9  2  0
  4  3  1  0
  5  4  1  0
  6  7  1  0
  6  5  2  0
  7  8  2  0
  8  9  1  0
 10 11  2  0
 12 10  1  0
 12 13  1  0
 14 13  1  0
 14 15  2  0
 16 17  1  0
 17 19  1  0
 18 17  2  0
 19 20  1  0
 21 20  1  6
 21 23  1  0
 22 21  1  0
 22 14  1  0
 23 25  2  0
 23 24  1  0
M  END
$$$$
