FGQ.pdb
     RDKit          3D

 25 25  0  0  1  0  0  0  0  0999 V2000
    8.4379  -16.0255   23.3506 N   0  0  0  0  0  0  0  0  0  0  0  0
    9.0038  -16.7250   22.2133 C   0  0  1  0  0  0  0  0  0  0  0  0
    9.8299  -15.6878   21.4478 C   0  0  0  0  0  0  0  0  0  0  0  0
    8.9063  -14.5901   21.0484 C   0  0  0  0  0  0  0  0  0  0  0  0
    8.5322  -13.5704   21.8866 C   0  0  0  0  0  0  0  0  0  0  0  0
    7.6793  -12.5700   21.4946 C   0  0  0  0  0  0  0  0  0  0  0  0
    7.1711  -12.5781   20.2109 C   0  0  0  0  0  0  0  0  0  0  0  0
    7.5199  -13.5745   19.3502 C   0  0  0  0  0  0  0  0  0  0  0  0
    8.3837  -14.5786   19.7626 C   0  0  0  0  0  0  0  0  0  0  0  0
    9.8890  -17.8316   22.6263 C   0  0  0  0  0  0  0  0  0  0  0  0
   10.2450  -18.7006   21.8027 O   0  0  0  0  0  0  0  0  0  0  0  0
   10.3394  -17.9101   23.9673 N   0  0  0  0  0  0  0  0  0  0  0  0
   11.2545  -18.8915   24.4255 C   0  0  0  0  0  0  0  0  0  0  0  0
   11.5755  -18.8047   25.8925 C   0  0  0  0  0  0  0  0  0  0  0  0
   11.2737  -17.7272   26.4961 O   0  0  0  0  0  0  0  0  0  0  0  0
   11.3346  -23.0182   30.3159 N   0  0  0  0  0  0  0  0  0  0  0  0
   10.1645  -22.2220   30.2794 C   0  0  0  0  0  0  0  0  0  0  0  0
    9.3236  -22.3502   31.1918 O   0  0  0  0  0  0  0  0  0  0  0  0
    9.9920  -21.2562   29.1370 C   0  0  0  0  0  0  0  0  0  0  0  0
   11.1682  -21.4310   28.2487 C   0  0  0  0  0  0  0  0  0  0  0  0
   11.9819  -20.1740   28.0097 C   0  0  2  0  0  0  0  0  0  0  0  0
   12.1811  -19.8412   26.6212 N   0  0  0  0  0  0  0  0  0  0  0  0
   13.3079  -20.3831   28.6039 C   0  0  0  0  0  0  0  0  0  0  0  0
   14.4206  -20.7596   27.8582 O   0  0  0  0  0  0  0  0  0  0  0  0
   13.4706  -20.2220   29.8331 O   0  0  0  0  0  0  0  0  0  0  0  0
  2  1  1  1
  2 10  1  0
  3  2  1  0
  4  9  2  0
  4  3  1  0
  5  4  1  0
  6  7  1  0
  6  5  2  0
  7  8  2  0
  8  9  1  0
 10 11  2  0
 12 10  1  0
 12 13  1  0
 14 13  1  0
 14 15  2  0
 16 17  1  0
 17 19  1  0
 18 17  2  0
 19 20  1  0
 21 20  1  6
 21 23  1  0
 22 21  1  0
 22 14  1  0
 23 25  2  0
 23 24  1  0
M  END
$$$$
