FGQ.pdb
     RDKit          3D

 25 25  0  0  1  0  0  0  0  0999 V2000
    6.1790  -15.9837   25.0636 N   0  0  0  0  0  0  0  0  0  0  0  0
    7.2109  -15.2978   24.3101 C   0  0  1  0  0  0  0  0  0  0  0  0
    8.0687  -14.5613   25.3425 C   0  0  0  0  0  0  0  0  0  0  0  0
    7.3201  -13.3415   25.7541 C   0  0  0  0  0  0  0  0  0  0  0  0
    7.6716  -12.0710   25.3739 C   0  0  0  0  0  0  0  0  0  0  0  0
    6.9651  -10.9626   25.7667 C   0  0  0  0  0  0  0  0  0  0  0  0
    5.8566  -11.1178   26.5751 C   0  0  0  0  0  0  0  0  0  0  0  0
    5.4771  -12.3640   26.9729 C   0  0  0  0  0  0  0  0  0  0  0  0
    6.2027  -13.4744   26.5667 C   0  0  0  0  0  0  0  0  0  0  0  0
    8.0670  -16.2367   23.5590 C   0  0  0  0  0  0  0  0  0  0  0  0
    8.9477  -15.8102   22.7827 O   0  0  0  0  0  0  0  0  0  0  0  0
    7.8897  -17.6333   23.7189 N   0  0  0  0  0  0  0  0  0  0  0  0
    8.7299  -18.5999   23.1103 C   0  0  0  0  0  0  0  0  0  0  0  0
    9.9250  -18.9918   23.9353 C   0  0  0  0  0  0  0  0  0  0  0  0
    9.8884  -20.1193   24.5219 O   0  0  0  0  0  0  0  0  0  0  0  0
   17.0274  -17.0968   22.7398 N   0  0  0  0  0  0  0  0  0  0  0  0
   15.6160  -16.9904   22.7740 C   0  0  0  0  0  0  0  0  0  0  0  0
   15.0740  -16.0233   22.2023 O   0  0  0  0  0  0  0  0  0  0  0  0
   14.8360  -18.0534   23.5014 C   0  0  0  0  0  0  0  0  0  0  0  0
   13.4025  -17.6870   23.3837 C   0  0  0  0  0  0  0  0  0  0  0  0
   12.4442  -18.6107   24.1102 C   0  0  2  0  0  0  0  0  0  0  0  0
   11.0663  -18.1877   24.0865 N   0  0  0  0  0  0  0  0  0  0  0  0
   12.8606  -18.6659   25.5169 C   0  0  0  0  0  0  0  0  0  0  0  0
   14.0094  -19.3265   25.9409 O   0  0  0  0  0  0  0  0  0  0  0  0
   12.1688  -18.1017   26.3924 O   0  0  0  0  0  0  0  0  0  0  0  0
  2  1  1  1
  2 10  1  0
  3  2  1  0
  4  9  2  0
  4  3  1  0
  5  4  1  0
  6  7  1  0
  6  5  2  0
  7  8  2  0
  8  9  1  0
 10 11  2  0
 12 10  1  0
 12 13  1  0
 14 13  1  0
 14 15  2  0
 16 17  1  0
 17 19  1  0
 18 17  2  0
 19 20  1  0
 21 20  1  6
 21 23  1  0
 22 21  1  0
 22 14  1  0
 23 25  2  0
 23 24  1  0
M  END
$$$$
