FGQ.pdb
     RDKit          3D

 25 25  0  0  1  0  0  0  0  0999 V2000
    6.1531  -16.3156   24.7276 N   0  0  0  0  0  0  0  0  0  0  0  0
    6.9019  -15.2942   24.0213 C   0  0  1  0  0  0  0  0  0  0  0  0
    7.8668  -14.6927   25.0468 C   0  0  0  0  0  0  0  0  0  0  0  0
    7.1940  -13.5089   25.6497 C   0  0  0  0  0  0  0  0  0  0  0  0
    7.1421  -12.2771   25.0477 C   0  0  0  0  0  0  0  0  0  0  0  0
    6.5157  -11.2014   25.6241 C   0  0  0  0  0  0  0  0  0  0  0  0
    5.9108  -11.3505   26.8562 C   0  0  0  0  0  0  0  0  0  0  0  0
    5.9418  -12.5586   27.4846 C   0  0  0  0  0  0  0  0  0  0  0  0
    6.5795  -13.6364   26.8877 C   0  0  0  0  0  0  0  0  0  0  0  0
    7.6827  -15.8532   22.9003 C   0  0  0  0  0  0  0  0  0  0  0  0
    7.8856  -17.0830   22.8194 O   0  0  0  0  0  0  0  0  0  0  0  0
    8.2068  -14.9891   21.9073 N   0  0  0  0  0  0  0  0  0  0  0  0
    8.9979  -15.4406   20.8206 C   0  0  0  0  0  0  0  0  0  0  0  0
   10.3072  -16.0629   21.2217 C   0  0  0  0  0  0  0  0  0  0  0  0
   11.1527  -16.2951   20.3009 O   0  0  0  0  0  0  0  0  0  0  0  0
   13.8364  -19.2347   26.7382 N   0  0  0  0  0  0  0  0  0  0  0  0
   12.6559  -18.7540   26.1220 C   0  0  0  0  0  0  0  0  0  0  0  0
   11.8229  -18.1409   26.8193 O   0  0  0  0  0  0  0  0  0  0  0  0
   12.4633  -19.0073   24.6502 C   0  0  0  0  0  0  0  0  0  0  0  0
   11.3751  -18.1037   24.2003 C   0  0  0  0  0  0  0  0  0  0  0  0
   11.7124  -17.2462   22.9959 C   0  0  2  0  0  0  0  0  0  0  0  0
   10.6408  -16.3937   22.5451 N   0  0  0  0  0  0  0  0  0  0  0  0
   12.0488  -18.1487   21.8879 C   0  0  0  0  0  0  0  0  0  0  0  0
   13.3575  -18.4051   21.4913 O   0  0  0  0  0  0  0  0  0  0  0  0
   11.1361  -18.7249   21.2567 O   0  0  0  0  0  0  0  0  0  0  0  0
  2  1  1  1
  2 10  1  0
  3  2  1  0
  4  9  2  0
  4  3  1  0
  5  4  1  0
  6  7  1  0
  6  5  2  0
  7  8  2  0
  8  9  1  0
 10 11  2  0
 12 10  1  0
 12 13  1  0
 14 13  1  0
 14 15  2  0
 16 17  1  0
 17 19  1  0
 18 17  2  0
 19 20  1  0
 21 20  1  1
 21 23  1  0
 22 21  1  0
 22 14  1  0
 23 25  2  0
 23 24  1  0
M  END
$$$$
