FGQ.pdb
     RDKit          3D

 25 25  0  0  1  0  0  0  0  0999 V2000
    6.5166  -15.6593   23.4177 N   0  0  0  0  0  0  0  0  0  0  0  0
    7.1813  -14.7876   22.4683 C   0  0  1  0  0  0  0  0  0  0  0  0
    6.7891  -13.3601   22.8593 C   0  0  0  0  0  0  0  0  0  0  0  0
    6.9420  -13.2455   24.3362 C   0  0  0  0  0  0  0  0  0  0  0  0
    8.0997  -12.8393   24.9501 C   0  0  0  0  0  0  0  0  0  0  0  0
    8.2154  -12.7418   26.3136 C   0  0  0  0  0  0  0  0  0  0  0  0
    7.1334  -13.0615   27.1093 C   0  0  0  0  0  0  0  0  0  0  0  0
    5.9670  -13.4688   26.5356 C   0  0  0  0  0  0  0  0  0  0  0  0
    5.8669  -13.5619   25.1551 C   0  0  0  0  0  0  0  0  0  0  0  0
    8.6505  -14.9146   22.5320 C   0  0  0  0  0  0  0  0  0  0  0  0
    9.3762  -14.2994   21.7227 O   0  0  0  0  0  0  0  0  0  0  0  0
    9.2437  -15.7406   23.5185 N   0  0  0  0  0  0  0  0  0  0  0  0
   10.6435  -15.9367   23.6312 C   0  0  0  0  0  0  0  0  0  0  0  0
   11.0545  -16.8484   24.7548 C   0  0  0  0  0  0  0  0  0  0  0  0
   12.2893  -16.8889   25.0553 O   0  0  0  0  0  0  0  0  0  0  0  0
    6.8996  -17.8154   25.9829 N   0  0  0  0  0  0  0  0  0  0  0  0
    7.7231  -17.2061   26.9601 C   0  0  0  0  0  0  0  0  0  0  0  0
    7.8998  -15.9724   26.9102 O   0  0  0  0  0  0  0  0  0  0  0  0
    8.3475  -18.0805   28.0152 C   0  0  0  0  0  0  0  0  0  0  0  0
    9.2122  -19.0556   27.3049 C   0  0  0  0  0  0  0  0  0  0  0  0
   10.4363  -18.4584   26.6384 C   0  0  2  0  0  0  0  0  0  0  0  0
   10.1552  -17.6450   25.4819 N   0  0  0  0  0  0  0  0  0  0  0  0
   11.2875  -19.5694   26.1951 C   0  0  0  0  0  0  0  0  0  0  0  0
   11.5366  -19.8436   24.8540 O   0  0  0  0  0  0  0  0  0  0  0  0
   11.8241  -20.3173   27.0415 O   0  0  0  0  0  0  0  0  0  0  0  0
  2  1  1  1
  2 10  1  0
  3  2  1  0
  4  9  2  0
  4  3  1  0
  5  4  1  0
  6  7  1  0
  6  5  2  0
  7  8  2  0
  8  9  1  0
 10 11  2  0
 12 10  1  0
 12 13  1  0
 14 13  1  0
 14 15  2  0
 16 17  1  0
 17 19  1  0
 18 17  2  0
 19 20  1  0
 21 20  1  6
 21 23  1  0
 22 21  1  0
 22 14  1  0
 23 25  2  0
 23 24  1  0
M  END
$$$$
