FGQ.pdb
     RDKit          3D

 25 25  0  0  1  0  0  0  0  0999 V2000
    7.9800  -17.5593   20.3329 N   0  0  0  0  0  0  0  0  0  0  0  0
    9.2195  -16.9196   20.7296 C   0  0  1  0  0  0  0  0  0  0  0  0
    9.4568  -15.7948   19.7182 C   0  0  0  0  0  0  0  0  0  0  0  0
    8.4546  -14.7287   19.9954 C   0  0  0  0  0  0  0  0  0  0  0  0
    7.1355  -14.8130   19.6277 C   0  0  0  0  0  0  0  0  0  0  0  0
    6.2313  -13.8165   19.8947 C   0  0  0  0  0  0  0  0  0  0  0  0
    6.6517  -12.6808   20.5579 C   0  0  0  0  0  0  0  0  0  0  0  0
    7.9540  -12.5614   20.9387 C   0  0  0  0  0  0  0  0  0  0  0  0
    8.8556  -13.5785   20.6608 C   0  0  0  0  0  0  0  0  0  0  0  0
    9.1353  -16.3364   22.0829 C   0  0  0  0  0  0  0  0  0  0  0  0
   10.1061  -15.7193   22.5695 O   0  0  0  0  0  0  0  0  0  0  0  0
    7.9442  -16.4767   22.8372 N   0  0  0  0  0  0  0  0  0  0  0  0
    7.8075  -16.0140   24.1705 C   0  0  0  0  0  0  0  0  0  0  0  0
    9.0438  -16.1716   25.0126 C   0  0  0  0  0  0  0  0  0  0  0  0
   10.0962  -15.5711   24.6273 O   0  0  0  0  0  0  0  0  0  0  0  0
   10.9200  -13.9667   27.0769 N   0  0  0  0  0  0  0  0  0  0  0  0
   10.5173  -14.2756   28.3985 C   0  0  0  0  0  0  0  0  0  0  0  0
   11.1102  -13.7275   29.3493 O   0  0  0  0  0  0  0  0  0  0  0  0
    9.3891  -15.2540   28.5921 C   0  0  0  0  0  0  0  0  0  0  0  0
    9.9801  -16.6120   28.4944 C   0  0  0  0  0  0  0  0  0  0  0  0
   10.2142  -17.1077   27.0805 C   0  0  2  0  0  0  0  0  0  0  0  0
    9.0940  -16.9360   26.1896 N   0  0  0  0  0  0  0  0  0  0  0  0
   10.4972  -18.5463   27.1551 C   0  0  0  0  0  0  0  0  0  0  0  0
    9.5318  -19.4913   27.4878 O   0  0  0  0  0  0  0  0  0  0  0  0
   11.6498  -18.9663   26.9131 O   0  0  0  0  0  0  0  0  0  0  0  0
  2  1  1  6
  2 10  1  0
  3  2  1  0
  4  9  2  0
  4  3  1  0
  5  4  1  0
  6  7  1  0
  6  5  2  0
  7  8  2  0
  8  9  1  0
 10 11  2  0
 12 10  1  0
 12 13  1  0
 14 13  1  0
 14 15  2  0
 16 17  1  0
 17 19  1  0
 18 17  2  0
 19 20  1  0
 21 20  1  1
 21 23  1  0
 22 21  1  0
 22 14  1  0
 23 25  2  0
 23 24  1  0
M  END
$$$$
