FGQ.pdb
     RDKit          3D

 25 25  0  0  1  0  0  0  0  0999 V2000
    8.8833  -15.1837   24.4309 N   0  0  0  0  0  0  0  0  0  0  0  0
    7.8078  -15.9672   25.0072 C   0  0  1  0  0  0  0  0  0  0  0  0
    6.5118  -15.4025   24.4191 C   0  0  0  0  0  0  0  0  0  0  0  0
    6.3329  -14.0313   24.9716 C   0  0  0  0  0  0  0  0  0  0  0  0
    5.7338  -13.7714   26.1782 C   0  0  0  0  0  0  0  0  0  0  0  0
    5.5808  -12.4983   26.6656 C   0  0  0  0  0  0  0  0  0  0  0  0
    6.0429  -11.4294   25.9238 C   0  0  0  0  0  0  0  0  0  0  0  0
    6.6433  -11.6483   24.7210 C   0  0  0  0  0  0  0  0  0  0  0  0
    6.7900  -12.9422   24.2426 C   0  0  0  0  0  0  0  0  0  0  0  0
    7.9107  -17.3966   24.6535 C   0  0  0  0  0  0  0  0  0  0  0  0
    7.0433  -18.2093   25.0372 O   0  0  0  0  0  0  0  0  0  0  0  0
    9.0016  -17.8519   23.8726 N   0  0  0  0  0  0  0  0  0  0  0  0
    9.7878  -18.9809   24.2158 C   0  0  0  0  0  0  0  0  0  0  0  0
   10.8509  -18.7081   25.2443 C   0  0  0  0  0  0  0  0  0  0  0  0
   12.0219  -18.4483   24.8226 O   0  0  0  0  0  0  0  0  0  0  0  0
   10.4943  -13.5923   27.5403 N   0  0  0  0  0  0  0  0  0  0  0  0
   10.7289  -14.8242   28.1974 C   0  0  0  0  0  0  0  0  0  0  0  0
   10.5082  -14.9013   29.4226 O   0  0  0  0  0  0  0  0  0  0  0  0
   11.2350  -15.9847   27.3821 C   0  0  0  0  0  0  0  0  0  0  0  0
   11.4577  -17.1063   28.3283 C   0  0  0  0  0  0  0  0  0  0  0  0
   11.5697  -18.4744   27.6838 C   0  0  2  0  0  0  0  0  0  0  0  0
   10.6187  -18.7224   26.6292 N   0  0  0  0  0  0  0  0  0  0  0  0
   11.3356  -19.4785   28.7289 C   0  0  0  0  0  0  0  0  0  0  0  0
   12.1521  -19.6110   29.8476 O   0  0  0  0  0  0  0  0  0  0  0  0
   10.3656  -20.2616   28.6322 O   0  0  0  0  0  0  0  0  0  0  0  0
  2  1  1  6
  2 10  1  0
  3  2  1  0
  4  9  2  0
  4  3  1  0
  5  4  1  0
  6  7  1  0
  6  5  2  0
  7  8  2  0
  8  9  1  0
 10 11  2  0
 12 10  1  0
 12 13  1  0
 14 13  1  0
 14 15  2  0
 16 17  1  0
 17 19  1  0
 18 17  2  0
 19 20  1  0
 21 20  1  1
 21 23  1  0
 22 21  1  0
 22 14  1  0
 23 25  2  0
 23 24  1  0
M  END
$$$$
