FGQ.pdb
     RDKit          3D

 25 25  0  0  1  0  0  0  0  0999 V2000
    7.1639  -14.7672   20.5609 N   0  0  0  0  0  0  0  0  0  0  0  0
    7.6581  -14.3484   21.8583 C   0  0  1  0  0  0  0  0  0  0  0  0
    6.4189  -14.0381   22.7023 C   0  0  0  0  0  0  0  0  0  0  0  0
    6.8934  -13.5761   24.0362 C   0  0  0  0  0  0  0  0  0  0  0  0
    7.5409  -12.3839   24.2402 C   0  0  0  0  0  0  0  0  0  0  0  0
    7.9685  -11.9806   25.4797 C   0  0  0  0  0  0  0  0  0  0  0  0
    7.7450  -12.7959   26.5713 C   0  0  0  0  0  0  0  0  0  0  0  0
    7.1052  -13.9872   26.4076 C   0  0  0  0  0  0  0  0  0  0  0  0
    6.6792  -14.3801   25.1471 C   0  0  0  0  0  0  0  0  0  0  0  0
    8.4374  -15.4100   22.5249 C   0  0  0  0  0  0  0  0  0  0  0  0
    7.9060  -16.5041   22.8087 O   0  0  0  0  0  0  0  0  0  0  0  0
    9.7993  -15.1876   22.8460 N   0  0  0  0  0  0  0  0  0  0  0  0
   10.6452  -16.1882   23.3882 C   0  0  0  0  0  0  0  0  0  0  0  0
   10.5453  -16.3440   24.8810 C   0  0  0  0  0  0  0  0  0  0  0  0
   11.1422  -15.4832   25.6017 O   0  0  0  0  0  0  0  0  0  0  0  0
    5.7317  -18.2870   24.5500 N   0  0  0  0  0  0  0  0  0  0  0  0
    6.6681  -18.6881   25.5331 C   0  0  0  0  0  0  0  0  0  0  0  0
    7.1175  -19.8511   25.4936 O   0  0  0  0  0  0  0  0  0  0  0  0
    7.0771  -17.6877   26.5817 C   0  0  0  0  0  0  0  0  0  0  0  0
    8.2785  -18.2416   27.2548 C   0  0  0  0  0  0  0  0  0  0  0  0
    9.5799  -17.5380   26.9217 C   0  0  2  0  0  0  0  0  0  0  0  0
    9.8329  -17.3768   25.5117 N   0  0  0  0  0  0  0  0  0  0  0  0
   10.6752  -18.3451   27.4731 C   0  0  0  0  0  0  0  0  0  0  0  0
   10.8299  -18.5810   28.8356 O   0  0  0  0  0  0  0  0  0  0  0  0
   11.5200  -18.8542   26.7046 O   0  0  0  0  0  0  0  0  0  0  0  0
  2  1  1  6
  2 10  1  0
  3  2  1  0
  4  9  2  0
  4  3  1  0
  5  4  1  0
  6  7  1  0
  6  5  2  0
  7  8  2  0
  8  9  1  0
 10 11  2  0
 12 10  1  0
 12 13  1  0
 14 13  1  0
 14 15  2  0
 16 17  1  0
 17 19  1  0
 18 17  2  0
 19 20  1  0
 21 20  1  6
 21 23  1  0
 22 21  1  0
 22 14  1  0
 23 25  2  0
 23 24  1  0
M  END
$$$$
