WKS.pdb
     RDKit          3D

 30 31  0  0  1  0  0  0  0  0999 V2000
   24.6698  -19.2996  -10.5321 N   0  0  0  0  0  0  0  0  0  0  0  0
   25.8379  -20.0733  -10.8682 C   0  0  1  0  0  0  0  0  0  0  0  0
   25.9251  -21.2863  -10.0128 C   0  0  0  0  0  0  0  0  0  0  0  0
   26.1488  -20.9015   -8.6012 C   0  0  0  0  0  0  0  0  0  0  0  0
   25.2043  -20.9050   -7.5728 C   0  0  0  0  0  0  0  0  0  0  0  0
   25.7789  -20.5301   -6.4203 N   0  0  0  0  0  0  0  0  0  0  0  0
   27.0638  -20.2869   -6.6851 C   0  0  0  0  0  0  0  0  0  0  0  0
   28.0636  -19.8707   -5.8456 C   0  0  0  0  0  0  0  0  0  0  0  0
   29.3382  -19.6662   -6.3288 C   0  0  0  0  0  0  0  0  0  0  0  0
   29.6461  -19.8703   -7.6559 C   0  0  0  0  0  0  0  0  0  0  0  0
   28.6050  -20.2952   -8.4881 C   0  0  0  0  0  0  0  0  0  0  0  0
   27.3354  -20.5048   -8.0285 C   0  0  0  0  0  0  0  0  0  0  0  0
   25.7734  -20.3760  -12.3170 C   0  0  0  0  0  0  0  0  0  0  0  0
   24.7015  -20.6704  -12.9001 O   0  0  0  0  0  0  0  0  0  0  0  0
   26.9801  -20.3249  -13.0560 N   0  0  0  0  0  0  0  0  0  0  0  0
   27.0575  -20.3463  -14.4956 C   0  0  1  0  0  0  0  0  0  0  0  0
   28.5272  -20.0438  -14.8378 C   0  0  0  0  0  0  0  0  0  0  0  0
   28.7846  -20.1616  -16.2974 C   0  0  0  0  0  0  0  0  0  0  0  0
   28.2443  -18.9591  -17.0140 C   0  0  0  0  0  0  0  0  0  0  0  0
   28.5120  -18.9718  -18.4821 C   0  0  0  0  0  0  0  0  0  0  0  0
   27.8762  -17.8017  -19.0940 N   0  0  0  0  0  0  0  0  0  0  0  0
   26.8376  -21.7378  -14.9463 C   0  0  0  0  0  0  0  0  0  0  0  0
   27.4643  -22.6553  -14.3439 O   0  0  0  0  0  0  0  0  0  0  0  0
   23.4707  -23.4102  -16.1303 O   0  0  0  0  0  0  0  0  0  0  0  0
   24.4815  -23.6266  -17.0721 C   0  0  0  0  0  0  0  0  0  0  0  0
   25.7999  -23.4958  -16.3049 C   0  0  2  0  0  0  0  0  0  0  0  0
   25.9819  -22.0981  -15.9945 N   0  0  0  0  0  0  0  0  0  0  0  0
   26.9193  -24.0595  -17.0645 C   0  0  0  0  0  0  0  0  0  0  0  0
   27.3149  -25.3668  -16.8770 O   0  0  0  0  0  0  0  0  0  0  0  0
   27.5292  -23.3557  -17.8941 O   0  0  0  0  0  0  0  0  0  0  0  0
  2 13  1  0
  2  1  1  1
  3  2  1  0
  3  4  1  0
  4  5  2  0
  4 12  1  0
  5  6  1  0
  6  7  1  0
  7  8  2  0
  8  9  1  0
 10  9  2  0
 11 10  1  0
 12 11  2  0
 12  7  1  0
 13 14  2  0
 15 16  1  0
 15 13  1  0
 16 22  1  0
 16 17  1  1
 18 17  1  0
 19 18  1  0
 20 19  1  0
 21 20  1  0
 22 23  2  0
 24 25  1  0
 26 25  1  6
 26 28  1  0
 27 22  1  0
 27 26  1  0
 28 30  2  0
 28 29  1  0
M  END
$$$$
