WKS.pdb
     RDKit          3D

 30 31  0  0  1  0  0  0  0  0999 V2000
   26.8521  -22.0448   -9.9860 N   0  0  0  0  0  0  0  0  0  0  0  0
   26.4686  -20.7037   -9.6249 C   0  0  1  0  0  0  0  0  0  0  0  0
   27.6609  -19.8175   -9.5652 C   0  0  0  0  0  0  0  0  0  0  0  0
   28.5900  -20.2806   -8.5102 C   0  0  0  0  0  0  0  0  0  0  0  0
   29.7132  -21.0924   -8.6811 C   0  0  0  0  0  0  0  0  0  0  0  0
   30.3327  -21.2727   -7.5052 N   0  0  0  0  0  0  0  0  0  0  0  0
   29.6354  -20.5990   -6.5887 C   0  0  0  0  0  0  0  0  0  0  0  0
   29.8552  -20.4770   -5.2417 C   0  0  0  0  0  0  0  0  0  0  0  0
   28.9973  -19.7322   -4.4611 C   0  0  0  0  0  0  0  0  0  0  0  0
   27.9033  -19.0935   -5.0020 C   0  0  0  0  0  0  0  0  0  0  0  0
   27.7054  -19.2362   -6.3795 C   0  0  0  0  0  0  0  0  0  0  0  0
   28.5445  -19.9689   -7.1707 C   0  0  0  0  0  0  0  0  0  0  0  0
   25.4459  -20.2528  -10.5973 C   0  0  0  0  0  0  0  0  0  0  0  0
   25.0124  -19.0751  -10.6268 O   0  0  0  0  0  0  0  0  0  0  0  0
   24.9509  -21.2034  -11.5225 N   0  0  0  0  0  0  0  0  0  0  0  0
   24.0732  -20.8915  -12.6231 C   0  0  1  0  0  0  0  0  0  0  0  0
   24.5095  -21.8117  -13.7770 C   0  0  0  0  0  0  0  0  0  0  0  0
   25.7431  -21.3115  -14.4393 C   0  0  0  0  0  0  0  0  0  0  0  0
   26.1706  -22.2636  -15.5173 C   0  0  0  0  0  0  0  0  0  0  0  0
   27.3802  -21.8108  -16.2651 C   0  0  0  0  0  0  0  0  0  0  0  0
   27.7802  -22.8598  -17.2071 N   0  0  0  0  0  0  0  0  0  0  0  0
   22.7111  -21.3440  -12.2661 C   0  0  0  0  0  0  0  0  0  0  0  0
   22.5671  -22.5490  -11.9132 O   0  0  0  0  0  0  0  0  0  0  0  0
   19.5948  -18.8910  -12.3654 O   0  0  0  0  0  0  0  0  0  0  0  0
   19.4390  -19.8988  -11.4086 C   0  0  0  0  0  0  0  0  0  0  0  0
   20.3038  -21.0668  -11.8899 C   0  0  2  0  0  0  0  0  0  0  0  0
   21.5774  -20.5225  -12.2956 N   0  0  0  0  0  0  0  0  0  0  0  0
   19.6408  -21.8184  -12.9592 C   0  0  0  0  0  0  0  0  0  0  0  0
   20.1615  -21.8423  -14.2355 O   0  0  0  0  0  0  0  0  0  0  0  0
   18.5906  -22.4481  -12.7222 O   0  0  0  0  0  0  0  0  0  0  0  0
  2 13  1  0
  2  1  1  6
  3  2  1  0
  3  4  1  0
  4  5  2  0
  4 12  1  0
  5  6  1  0
  6  7  1  0
  7  8  2  0
  8  9  1  0
 10  9  2  0
 11 10  1  0
 12 11  2  0
 12  7  1  0
 13 14  2  0
 15 16  1  0
 15 13  1  0
 16 22  1  0
 16 17  1  6
 18 17  1  0
 19 18  1  0
 20 19  1  0
 21 20  1  0
 22 23  2  0
 24 25  1  0
 26 25  1  6
 26 28  1  0
 27 22  1  0
 27 26  1  0
 28 30  2  0
 28 29  1  0
M  END
$$$$
