WKS.pdb
     RDKit          3D

 30 31  0  0  1  0  0  0  0  0999 V2000
   26.2689  -18.6293   -8.5816 N   0  0  0  0  0  0  0  0  0  0  0  0
   26.5941  -19.9626   -9.0208 C   0  0  1  0  0  0  0  0  0  0  0  0
   26.0799  -20.9703   -8.0561 C   0  0  0  0  0  0  0  0  0  0  0  0
   26.4339  -20.5810   -6.6727 C   0  0  0  0  0  0  0  0  0  0  0  0
   25.5556  -20.4074   -5.6011 C   0  0  0  0  0  0  0  0  0  0  0  0
   26.2408  -20.0898   -4.4926 N   0  0  0  0  0  0  0  0  0  0  0  0
   27.5318  -20.0554   -4.8274 C   0  0  0  0  0  0  0  0  0  0  0  0
   28.6263  -19.7722   -4.0532 C   0  0  0  0  0  0  0  0  0  0  0  0
   29.8898  -19.7811   -4.6041 C   0  0  0  0  0  0  0  0  0  0  0  0
   30.0924  -20.0711   -5.9354 C   0  0  0  0  0  0  0  0  0  0  0  0
   28.9562  -20.3565   -6.7000 C   0  0  0  0  0  0  0  0  0  0  0  0
   27.6957  -20.3540   -6.1728 C   0  0  0  0  0  0  0  0  0  0  0  0
   26.0543  -20.1274  -10.3905 C   0  0  0  0  0  0  0  0  0  0  0  0
   24.9810  -19.5942  -10.7641 O   0  0  0  0  0  0  0  0  0  0  0  0
   26.7940  -20.9213  -11.3001 N   0  0  0  0  0  0  0  0  0  0  0  0
   26.6368  -20.8829  -12.7328 C   0  0  1  0  0  0  0  0  0  0  0  0
   27.7716  -21.7545  -13.2995 C   0  0  0  0  0  0  0  0  0  0  0  0
   29.0850  -21.4011  -12.6990 C   0  0  0  0  0  0  0  0  0  0  0  0
   30.1399  -22.3596  -13.1681 C   0  0  0  0  0  0  0  0  0  0  0  0
   31.4854  -22.0986  -12.5774 C   0  0  0  0  0  0  0  0  0  0  0  0
   32.3803  -23.2079  -12.9183 N   0  0  0  0  0  0  0  0  0  0  0  0
   25.3917  -21.6033  -13.0771 C   0  0  0  0  0  0  0  0  0  0  0  0
   25.4451  -22.8638  -13.1518 O   0  0  0  0  0  0  0  0  0  0  0  0
   21.9195  -19.7230  -13.6890 O   0  0  0  0  0  0  0  0  0  0  0  0
   21.7688  -21.0385  -13.2396 C   0  0  0  0  0  0  0  0  0  0  0  0
   23.0263  -21.7815  -13.6986 C   0  0  2  0  0  0  0  0  0  0  0  0
   24.1642  -20.9765  -13.3243 N   0  0  0  0  0  0  0  0  0  0  0  0
   22.9827  -22.0707  -15.1347 C   0  0  0  0  0  0  0  0  0  0  0  0
   23.8877  -21.4945  -16.0006 O   0  0  0  0  0  0  0  0  0  0  0  0
   22.1193  -22.8468  -15.5901 O   0  0  0  0  0  0  0  0  0  0  0  0
  2 13  1  0
  2  1  1  1
  3  2  1  0
  3  4  1  0
  4  5  2  0
  4 12  1  0
  5  6  1  0
  6  7  1  0
  7  8  2  0
  8  9  1  0
 10  9  2  0
 11 10  1  0
 12 11  2  0
 12  7  1  0
 13 14  2  0
 15 16  1  0
 15 13  1  0
 16 22  1  0
 16 17  1  6
 18 17  1  0
 19 18  1  0
 20 19  1  0
 21 20  1  0
 22 23  2  0
 24 25  1  0
 26 25  1  6
 26 28  1  0
 27 22  1  0
 27 26  1  0
 28 30  2  0
 28 29  1  0
M  END
$$$$
