WKS.pdb
     RDKit          3D

 30 31  0  0  1  0  0  0  0  0999 V2000
   27.7205  -23.5658  -17.3360 N   0  0  0  0  0  0  0  0  0  0  0  0
   26.4939  -23.2887  -16.6324 C   0  0  1  0  0  0  0  0  0  0  0  0
   25.8459  -24.5531  -16.1942 C   0  0  0  0  0  0  0  0  0  0  0  0
   25.3623  -25.3135  -17.3682 C   0  0  0  0  0  0  0  0  0  0  0  0
   25.7160  -26.6162  -17.7256 C   0  0  0  0  0  0  0  0  0  0  0  0
   25.0505  -26.9863  -18.8298 N   0  0  0  0  0  0  0  0  0  0  0  0
   24.2825  -25.9555  -19.1871 C   0  0  0  0  0  0  0  0  0  0  0  0
   23.4241  -25.8343  -20.2483 C   0  0  0  0  0  0  0  0  0  0  0  0
   22.7230  -24.6641  -20.4463 C   0  0  0  0  0  0  0  0  0  0  0  0
   22.8602  -23.5900  -19.5948 C   0  0  0  0  0  0  0  0  0  0  0  0
   23.7432  -23.7439  -18.5207 C   0  0  0  0  0  0  0  0  0  0  0  0
   24.4464  -24.8957  -18.3063 C   0  0  0  0  0  0  0  0  0  0  0  0
   26.8160  -22.3719  -15.5142 C   0  0  0  0  0  0  0  0  0  0  0  0
   27.9201  -22.3936  -14.9174 O   0  0  0  0  0  0  0  0  0  0  0  0
   25.8255  -21.4407  -15.1183 N   0  0  0  0  0  0  0  0  0  0  0  0
   25.9910  -20.4712  -14.0640 C   0  0  1  0  0  0  0  0  0  0  0  0
   25.2430  -19.2116  -14.5359 C   0  0  0  0  0  0  0  0  0  0  0  0
   26.1849  -18.1246  -14.9123 C   0  0  0  0  0  0  0  0  0  0  0  0
   26.7144  -18.3590  -16.2966 C   0  0  0  0  0  0  0  0  0  0  0  0
   27.7507  -17.3688  -16.7123 C   0  0  0  0  0  0  0  0  0  0  0  0
   28.2208  -17.7058  -18.0588 N   0  0  0  0  0  0  0  0  0  0  0  0
   25.2372  -20.9447  -12.8828 C   0  0  0  0  0  0  0  0  0  0  0  0
   24.1754  -21.5988  -13.0883 O   0  0  0  0  0  0  0  0  0  0  0  0
   26.0027  -19.6970   -9.1395 O   0  0  0  0  0  0  0  0  0  0  0  0
   25.5594  -21.0226   -9.1812 C   0  0  0  0  0  0  0  0  0  0  0  0
   24.7684  -21.1559  -10.4851 C   0  0  2  0  0  0  0  0  0  0  0  0
   25.6265  -20.7132  -11.5578 N   0  0  0  0  0  0  0  0  0  0  0  0
   23.5065  -20.4130  -10.4238 C   0  0  0  0  0  0  0  0  0  0  0  0
   22.4669  -20.8481   -9.6297 O   0  0  0  0  0  0  0  0  0  0  0  0
   23.3606  -19.3722  -11.0952 O   0  0  0  0  0  0  0  0  0  0  0  0
  2 13  1  0
  2  1  1  1
  3  2  1  0
  3  4  1  0
  4  5  2  0
  4 12  1  0
  5  6  1  0
  6  7  1  0
  7  8  2  0
  8  9  1  0
 10  9  2  0
 11 10  1  0
 12 11  2  0
 12  7  1  0
 13 14  2  0
 15 16  1  0
 15 13  1  0
 16 22  1  0
 16 17  1  6
 18 17  1  0
 19 18  1  0
 20 19  1  0
 21 20  1  0
 22 23  2  0
 24 25  1  0
 26 25  1  1
 26 28  1  0
 27 22  1  0
 27 26  1  0
 28 30  2  0
 28 29  1  0
M  END
$$$$
