WKS.pdb
     RDKit          3D

 30 31  0  0  1  0  0  0  0  0999 V2000
   18.2947  -11.4938  -15.2899 N   0  0  0  0  0  0  0  0  0  0  0  0
   17.7673  -12.7233  -15.8251 C   0  0  1  0  0  0  0  0  0  0  0  0
   18.8262  -13.4744  -16.5496 C   0  0  0  0  0  0  0  0  0  0  0  0
   19.0631  -12.8698  -17.8796 C   0  0  0  0  0  0  0  0  0  0  0  0
   19.4328  -11.5497  -18.1453 C   0  0  0  0  0  0  0  0  0  0  0  0
   19.5925  -11.3744  -19.4655 N   0  0  0  0  0  0  0  0  0  0  0  0
   19.3343  -12.5459  -20.0495 C   0  0  0  0  0  0  0  0  0  0  0  0
   19.3524  -12.8809  -21.3780 C   0  0  0  0  0  0  0  0  0  0  0  0
   19.0399  -14.1627  -21.7770 C   0  0  0  0  0  0  0  0  0  0  0  0
   18.7024  -15.1383  -20.8650 C   0  0  0  0  0  0  0  0  0  0  0  0
   18.6929  -14.7664  -19.5164 C   0  0  0  0  0  0  0  0  0  0  0  0
   19.0007  -13.5019  -19.1003 C   0  0  0  0  0  0  0  0  0  0  0  0
   17.1696  -13.4813  -14.7013 C   0  0  0  0  0  0  0  0  0  0  0  0
   17.5518  -13.3450  -13.5134 O   0  0  0  0  0  0  0  0  0  0  0  0
   16.1260  -14.3906  -14.9999 N   0  0  0  0  0  0  0  0  0  0  0  0
   15.4122  -15.1661  -14.0161 C   0  0  1  0  0  0  0  0  0  0  0  0
   13.9203  -14.8808  -14.2638 C   0  0  0  0  0  0  0  0  0  0  0  0
   13.0554  -15.6225  -13.3086 C   0  0  0  0  0  0  0  0  0  0  0  0
   11.6148  -15.2727  -13.5405 C   0  0  0  0  0  0  0  0  0  0  0  0
   10.6767  -15.9719  -12.6140 C   0  0  0  0  0  0  0  0  0  0  0  0
    9.2995  -15.6318  -12.9820 N   0  0  0  0  0  0  0  0  0  0  0  0
   15.5884  -16.5975  -14.3442 C   0  0  0  0  0  0  0  0  0  0  0  0
   15.0769  -17.0197  -15.4201 O   0  0  0  0  0  0  0  0  0  0  0  0
   17.4910  -19.2409  -11.9309 O   0  0  0  0  0  0  0  0  0  0  0  0
   17.6120  -19.4900  -13.3015 C   0  0  0  0  0  0  0  0  0  0  0  0
   16.3589  -18.8911  -13.9455 C   0  0  2  0  0  0  0  0  0  0  0  0
   16.2836  -17.5083  -13.5392 N   0  0  0  0  0  0  0  0  0  0  0  0
   15.1585  -19.6535  -13.5908 C   0  0  0  0  0  0  0  0  0  0  0  0
   14.9580  -20.9265  -14.0808 O   0  0  0  0  0  0  0  0  0  0  0  0
   14.3004  -19.1533  -12.8366 O   0  0  0  0  0  0  0  0  0  0  0  0
  2 13  1  0
  2  1  1  1
  3  2  1  0
  3  4  1  0
  4  5  2  0
  4 12  1  0
  5  6  1  0
  6  7  1  0
  7  8  2  0
  8  9  1  0
 10  9  2  0
 11 10  1  0
 12 11  2  0
 12  7  1  0
 13 14  2  0
 15 16  1  0
 15 13  1  0
 16 22  1  0
 16 17  1  6
 18 17  1  0
 19 18  1  0
 20 19  1  0
 21 20  1  0
 22 23  2  0
 24 25  1  0
 26 25  1  1
 26 28  1  0
 27 22  1  0
 27 26  1  0
 28 30  2  0
 28 29  1  0
M  END
$$$$
