WKS.pdb
     RDKit          3D

 30 31  0  0  1  0  0  0  0  0999 V2000
   27.0121  -21.7486  -10.6100 N   0  0  0  0  0  0  0  0  0  0  0  0
   26.3634  -20.7631   -9.7828 C   0  0  1  0  0  0  0  0  0  0  0  0
   27.3060  -19.6651   -9.4418 C   0  0  0  0  0  0  0  0  0  0  0  0
   28.3614  -20.1617   -8.5307 C   0  0  0  0  0  0  0  0  0  0  0  0
   29.4782  -20.9239   -8.8798 C   0  0  0  0  0  0  0  0  0  0  0  0
   30.2327  -21.1561   -7.7955 N   0  0  0  0  0  0  0  0  0  0  0  0
   29.6281  -20.5637   -6.7642 C   0  0  0  0  0  0  0  0  0  0  0  0
   29.9976  -20.5181   -5.4455 C   0  0  0  0  0  0  0  0  0  0  0  0
   29.2160  -19.8517   -4.5262 C   0  0  0  0  0  0  0  0  0  0  0  0
   28.0511  -19.2172   -4.8975 C   0  0  0  0  0  0  0  0  0  0  0  0
   27.7003  -19.2808   -6.2503 C   0  0  0  0  0  0  0  0  0  0  0  0
   28.4618  -19.9351   -7.1772 C   0  0  0  0  0  0  0  0  0  0  0  0
   25.1536  -20.3007  -10.5020 C   0  0  0  0  0  0  0  0  0  0  0  0
   24.4147  -19.3849  -10.0649 O   0  0  0  0  0  0  0  0  0  0  0  0
   24.8356  -20.9291  -11.7303 N   0  0  0  0  0  0  0  0  0  0  0  0
   23.7787  -20.5055  -12.6148 C   0  0  1  0  0  0  0  0  0  0  0  0
   24.2782  -20.8135  -14.0375 C   0  0  0  0  0  0  0  0  0  0  0  0
   24.6566  -19.5733  -14.7651 C   0  0  0  0  0  0  0  0  0  0  0  0
   26.1184  -19.2919  -14.5766 C   0  0  0  0  0  0  0  0  0  0  0  0
   26.5810  -18.0571  -15.2755 C   0  0  0  0  0  0  0  0  0  0  0  0
   25.9556  -17.9944  -16.5993 N   0  0  0  0  0  0  0  0  0  0  0  0
   22.6223  -21.4051  -12.4114 C   0  0  0  0  0  0  0  0  0  0  0  0
   22.8540  -22.6427  -12.3027 O   0  0  0  0  0  0  0  0  0  0  0  0
   19.0349  -20.3518  -10.8975 O   0  0  0  0  0  0  0  0  0  0  0  0
   19.6086  -21.6191  -10.7549 C   0  0  0  0  0  0  0  0  0  0  0  0
   20.2486  -21.9406  -12.1081 C   0  0  2  0  0  0  0  0  0  0  0  0
   21.2934  -20.9706  -12.3329 N   0  0  0  0  0  0  0  0  0  0  0  0
   19.2504  -21.9593  -13.1810 C   0  0  0  0  0  0  0  0  0  0  0  0
   18.2840  -22.9412  -13.2317 O   0  0  0  0  0  0  0  0  0  0  0  0
   19.2667  -21.0801  -14.0654 O   0  0  0  0  0  0  0  0  0  0  0  0
  2 13  1  0
  2  1  1  6
  3  2  1  0
  3  4  1  0
  4  5  2  0
  4 12  1  0
  5  6  1  0
  6  7  1  0
  7  8  2  0
  8  9  1  0
 10  9  2  0
 11 10  1  0
 12 11  2  0
 12  7  1  0
 13 14  2  0
 15 16  1  0
 15 13  1  0
 16 22  1  0
 16 17  1  6
 18 17  1  0
 19 18  1  0
 20 19  1  0
 21 20  1  0
 22 23  2  0
 24 25  1  0
 26 25  1  1
 26 28  1  0
 27 22  1  0
 27 26  1  0
 28 30  2  0
 28 29  1  0
M  END
$$$$
