LPT.pdb
     RDKit          3D

 23 23  0  0  1  0  0  0  0  0999 V2000
    2.9551  -19.3552   22.0783 C   0  0  0  0  0  0  0  0  0  0  0  0
    3.6431  -18.8452   20.8191 C   0  0  1  0  0  0  0  0  0  0  0  0
    2.7033  -17.9109   20.1219 C   0  0  0  0  0  0  0  0  0  0  0  0
    4.9865  -18.2854   21.1122 C   0  0  0  0  0  0  0  0  0  0  0  0
    5.7773  -17.8584   19.8929 C   0  0  2  0  0  0  0  0  0  0  0  0
    5.8088  -18.8482   18.8920 N   0  0  0  0  0  0  0  0  0  0  0  0
    7.0562  -17.3262   20.3574 C   0  0  0  0  0  0  0  0  0  0  0  0
    8.0911  -18.0291   20.0774 O   0  0  0  0  0  0  0  0  0  0  0  0
    7.2788  -16.1412   21.0709 N   0  0  0  0  0  0  0  0  0  0  0  0
    6.3689  -15.1828   21.6600 C   0  0  0  0  0  0  0  0  0  0  0  0
    6.9514  -13.8814   21.0804 C   0  0  0  0  0  0  0  0  0  0  0  0
    8.4086  -14.0789   21.4460 C   0  0  0  0  0  0  0  0  0  0  0  0
    8.6013  -15.5594   21.4142 C   0  0  1  0  0  0  0  0  0  0  0  0
    8.9705  -16.1340   22.7240 C   0  0  0  0  0  0  0  0  0  0  0  0
    8.0884  -16.3020   23.6258 O   0  0  0  0  0  0  0  0  0  0  0  0
   10.8194  -19.3180   22.8131 C   0  0  0  0  0  0  0  0  0  0  0  0
   11.5672  -18.3699   23.6857 C   0  0  1  0  0  0  0  0  0  0  0  0
   12.6898  -17.8695   22.9988 O   0  0  0  0  0  0  0  0  0  0  0  0
   10.7510  -17.1781   24.1306 C   0  0  2  0  0  0  0  0  0  0  0  0
   10.3247  -16.4886   22.9418 N   0  0  0  0  0  0  0  0  0  0  0  0
   11.4886  -16.2614   24.9957 C   0  0  0  0  0  0  0  0  0  0  0  0
   11.9278  -15.1853   24.5293 O   0  0  0  0  0  0  0  0  0  0  0  0
   11.7333  -16.5252   26.3336 O   0  0  0  0  0  0  0  0  0  0  0  0
  2  1  1  1
  3  2  1  0
  4  5  1  0
  4  2  1  0
  5  6  1  6
  5  7  1  0
  7  9  1  0
  8  7  2  0
  9 13  1  0
  9 10  1  0
 10 11  1  0
 11 12  1  0
 13 12  1  0
 13 14  1  1
 14 15  2  0
 14 20  1  0
 17 19  1  0
 17 16  1  6
 18 17  1  0
 19 21  1  0
 19 20  1  6
 21 22  2  0
 21 23  1  0
M  END
$$$$
