LPT.pdb
     RDKit          3D

 23 23  0  0  1  0  0  0  0  0999 V2000
    6.2166  -18.4430   20.4740 C   0  0  0  0  0  0  0  0  0  0  0  0
    5.3752  -17.1741   20.4477 C   0  0  1  0  0  0  0  0  0  0  0  0
    3.9360  -17.5680   20.5725 C   0  0  0  0  0  0  0  0  0  0  0  0
    5.8452  -16.1792   21.4444 C   0  0  0  0  0  0  0  0  0  0  0  0
    7.0722  -15.3940   21.0292 C   0  0  2  0  0  0  0  0  0  0  0  0
    7.5866  -15.8077   19.7855 N   0  0  0  0  0  0  0  0  0  0  0  0
    7.9897  -15.3705   22.1659 C   0  0  0  0  0  0  0  0  0  0  0  0
    9.1879  -15.7590   21.9276 O   0  0  0  0  0  0  0  0  0  0  0  0
    7.7100  -14.9740   23.4803 N   0  0  0  0  0  0  0  0  0  0  0  0
    6.4771  -14.5869   24.1309 C   0  0  0  0  0  0  0  0  0  0  0  0
    6.9321  -13.2718   24.7884 C   0  0  0  0  0  0  0  0  0  0  0  0
    8.1933  -13.7609   25.4715 C   0  0  0  0  0  0  0  0  0  0  0  0
    8.6913  -14.8576   24.5888 C   0  0  1  0  0  0  0  0  0  0  0  0
    8.7179  -16.1789   25.2485 C   0  0  0  0  0  0  0  0  0  0  0  0
    7.6394  -16.8287   25.4339 O   0  0  0  0  0  0  0  0  0  0  0  0
   10.5642  -18.8594   23.8208 C   0  0  0  0  0  0  0  0  0  0  0  0
   11.0655  -18.7537   25.2197 C   0  0  1  0  0  0  0  0  0  0  0  0
   12.2808  -18.0432   25.2413 O   0  0  0  0  0  0  0  0  0  0  0  0
   10.1166  -18.0395   26.1547 C   0  0  2  0  0  0  0  0  0  0  0  0
    9.9703  -16.6947   25.6642 N   0  0  0  0  0  0  0  0  0  0  0  0
   10.5791  -18.0125   27.5397 C   0  0  0  0  0  0  0  0  0  0  0  0
   10.9973  -16.9405   28.0341 O   0  0  0  0  0  0  0  0  0  0  0  0
   10.5796  -19.1343   28.3527 O   0  0  0  0  0  0  0  0  0  0  0  0
  2  1  1  1
  3  2  1  0
  4  5  1  0
  4  2  1  0
  5  6  1  6
  5  7  1  0
  7  9  1  0
  8  7  2  0
  9 13  1  0
  9 10  1  0
 10 11  1  0
 11 12  1  0
 13 12  1  0
 13 14  1  1
 14 15  2  0
 14 20  1  0
 17 19  1  0
 17 16  1  6
 18 17  1  0
 19 21  1  0
 19 20  1  6
 21 22  2  0
 21 23  1  0
M  END
$$$$
