LPT.pdb
     RDKit          3D

 23 23  0  0  1  0  0  0  0  0999 V2000
    8.8551  -12.6832   26.8112 C   0  0  0  0  0  0  0  0  0  0  0  0
    7.6444  -13.5963   26.6709 C   0  0  1  0  0  0  0  0  0  0  0  0
    6.5138  -12.9913   27.4442 C   0  0  0  0  0  0  0  0  0  0  0  0
    7.3441  -13.9005   25.2492 C   0  0  0  0  0  0  0  0  0  0  0  0
    6.4846  -15.1282   25.0294 C   0  0  2  0  0  0  0  0  0  0  0  0
    6.1727  -15.7948   26.2297 N   0  0  0  0  0  0  0  0  0  0  0  0
    7.0969  -15.9130   23.9600 C   0  0  0  0  0  0  0  0  0  0  0  0
    7.0355  -17.1865   24.0933 O   0  0  0  0  0  0  0  0  0  0  0  0
    7.7407  -15.4342   22.8114 N   0  0  0  0  0  0  0  0  0  0  0  0
    8.2837  -14.1349   22.4789 C   0  0  0  0  0  0  0  0  0  0  0  0
    7.6266  -13.9231   21.1034 C   0  0  0  0  0  0  0  0  0  0  0  0
    7.9891  -15.2419   20.4510 C   0  0  0  0  0  0  0  0  0  0  0  0
    8.0385  -16.2142   21.5834 C   0  0  1  0  0  0  0  0  0  0  0  0
    9.3749  -16.8076   21.7927 C   0  0  0  0  0  0  0  0  0  0  0  0
    9.9529  -17.4418   20.8529 O   0  0  0  0  0  0  0  0  0  0  0  0
   12.3989  -15.0037   23.3023 C   0  0  0  0  0  0  0  0  0  0  0  0
   12.0646  -16.2041   24.1189 C   0  0  1  0  0  0  0  0  0  0  0  0
   11.3083  -15.8234   25.2438 O   0  0  0  0  0  0  0  0  0  0  0  0
   11.2593  -17.2434   23.3732 C   0  0  2  0  0  0  0  0  0  0  0  0
    9.9864  -16.6497   23.0609 N   0  0  0  0  0  0  0  0  0  0  0  0
   11.0572  -18.4742   24.1330 C   0  0  0  0  0  0  0  0  0  0  0  0
    9.9398  -18.7104   24.6468 O   0  0  0  0  0  0  0  0  0  0  0  0
   12.0579  -19.4140   24.3192 O   0  0  0  0  0  0  0  0  0  0  0  0
  2  1  1  6
  3  2  1  0
  4  5  1  0
  4  2  1  0
  5  6  1  1
  5  7  1  0
  7  9  1  0
  8  7  2  0
  9 13  1  0
  9 10  1  0
 10 11  1  0
 11 12  1  0
 13 12  1  0
 13 14  1  1
 14 15  2  0
 14 20  1  0
 17 19  1  0
 17 16  1  6
 18 17  1  0
 19 21  1  0
 19 20  1  1
 21 22  2  0
 21 23  1  0
M  END
$$$$
