LPT.pdb
     RDKit          3D

 23 23  0  0  1  0  0  0  0  0999 V2000
    7.3680  -11.7322   27.2050 C   0  0  0  0  0  0  0  0  0  0  0  0
    6.5085  -12.8388   26.6086 C   0  0  1  0  0  0  0  0  0  0  0  0
    5.4208  -12.1992   25.8024 C   0  0  0  0  0  0  0  0  0  0  0  0
    7.3264  -13.8414   25.8806 C   0  0  0  0  0  0  0  0  0  0  0  0
    6.5490  -15.0219   25.3362 C   0  0  2  0  0  0  0  0  0  0  0  0
    5.8819  -15.7444   26.3440 N   0  0  0  0  0  0  0  0  0  0  0  0
    7.4374  -15.7662   24.4466 C   0  0  0  0  0  0  0  0  0  0  0  0
    7.6307  -16.9970   24.7485 O   0  0  0  0  0  0  0  0  0  0  0  0
    8.0989  -15.2897   23.3071 N   0  0  0  0  0  0  0  0  0  0  0  0
    8.2056  -13.9651   22.7351 C   0  0  0  0  0  0  0  0  0  0  0  0
    7.8243  -14.2800   21.2777 C   0  0  0  0  0  0  0  0  0  0  0  0
    8.7586  -15.4458   21.0245 C   0  0  0  0  0  0  0  0  0  0  0  0
    8.9064  -16.0989   22.3593 C   0  0  1  0  0  0  0  0  0  0  0  0
   10.2891  -16.0730   22.8782 C   0  0  0  0  0  0  0  0  0  0  0  0
   10.7273  -15.0492   23.4943 O   0  0  0  0  0  0  0  0  0  0  0  0
   13.8666  -19.1497   24.2549 C   0  0  0  0  0  0  0  0  0  0  0  0
   12.5111  -18.7895   23.7528 C   0  0  1  0  0  0  0  0  0  0  0  0
   11.5567  -18.9789   24.7705 O   0  0  0  0  0  0  0  0  0  0  0  0
   12.3926  -17.3541   23.2943 C   0  0  2  0  0  0  0  0  0  0  0  0
   11.1038  -17.2133   22.6703 N   0  0  0  0  0  0  0  0  0  0  0  0
   13.4408  -16.9569   22.3580 C   0  0  0  0  0  0  0  0  0  0  0  0
   14.4305  -16.3105   22.7715 O   0  0  0  0  0  0  0  0  0  0  0  0
   13.3968  -17.2641   21.0078 O   0  0  0  0  0  0  0  0  0  0  0  0
  2  1  1  6
  3  2  1  0
  4  5  1  0
  4  2  1  0
  5  6  1  1
  5  7  1  0
  7  9  1  0
  8  7  2  0
  9 13  1  0
  9 10  1  0
 10 11  1  0
 11 12  1  0
 13 12  1  0
 13 14  1  1
 14 15  2  0
 14 20  1  0
 17 19  1  0
 17 16  1  1
 18 17  1  0
 19 21  1  0
 19 20  1  6
 21 22  2  0
 21 23  1  0
M  END
$$$$
