LPT.pdb
     RDKit          3D

 23 23  0  0  1  0  0  0  0  0999 V2000
    5.9421  -12.3485   26.5625 C   0  0  0  0  0  0  0  0  0  0  0  0
    7.2643  -13.0296   26.2354 C   0  0  1  0  0  0  0  0  0  0  0  0
    8.3596  -12.2710   26.9188 C   0  0  0  0  0  0  0  0  0  0  0  0
    7.2245  -14.4837   26.5321 C   0  0  0  0  0  0  0  0  0  0  0  0
    6.3678  -15.3021   25.5884 C   0  0  2  0  0  0  0  0  0  0  0  0
    5.4860  -16.1656   26.2661 N   0  0  0  0  0  0  0  0  0  0  0  0
    7.2510  -15.8903   24.5842 C   0  0  0  0  0  0  0  0  0  0  0  0
    7.5578  -17.1225   24.7600 O   0  0  0  0  0  0  0  0  0  0  0  0
    7.7984  -15.2636   23.4570 N   0  0  0  0  0  0  0  0  0  0  0  0
    7.7963  -13.8835   23.0226 C   0  0  0  0  0  0  0  0  0  0  0  0
    7.3186  -14.0688   21.5713 C   0  0  0  0  0  0  0  0  0  0  0  0
    8.2857  -15.1484   21.1291 C   0  0  0  0  0  0  0  0  0  0  0  0
    8.5680  -15.9251   22.3729 C   0  0  1  0  0  0  0  0  0  0  0  0
    9.9839  -15.8749   22.7905 C   0  0  0  0  0  0  0  0  0  0  0  0
   10.4635  -14.8203   23.3174 O   0  0  0  0  0  0  0  0  0  0  0  0
   11.4582  -18.5830   25.0696 C   0  0  0  0  0  0  0  0  0  0  0  0
   12.2173  -18.4868   23.7914 C   0  0  1  0  0  0  0  0  0  0  0  0
   11.7355  -19.4404   22.8745 O   0  0  0  0  0  0  0  0  0  0  0  0
   12.1147  -17.1354   23.1221 C   0  0  2  0  0  0  0  0  0  0  0  0
   10.7831  -17.0270   22.5877 N   0  0  0  0  0  0  0  0  0  0  0  0
   13.0925  -16.9421   22.0546 C   0  0  0  0  0  0  0  0  0  0  0  0
   12.7498  -17.1062   20.8613 O   0  0  0  0  0  0  0  0  0  0  0  0
   14.4072  -16.5791   22.2979 O   0  0  0  0  0  0  0  0  0  0  0  0
  2  1  1  1
  3  2  1  0
  4  5  1  0
  4  2  1  0
  5  6  1  1
  5  7  1  0
  7  9  1  0
  8  7  2  0
  9 13  1  0
  9 10  1  0
 10 11  1  0
 11 12  1  0
 13 12  1  0
 13 14  1  1
 14 15  2  0
 14 20  1  0
 17 19  1  0
 17 16  1  1
 18 17  1  0
 19 21  1  0
 19 20  1  6
 21 22  2  0
 21 23  1  0
M  END
$$$$
