RWA.pdb
     RDKit          3D

 31 32  0  0  1  0  0  0  0  0999 V2000
    7.5911  -14.8388   17.3018 N   0  0  0  0  0  0  0  0  0  0  0  0
    8.2950  -13.6790   17.7492 C   0  0  0  0  0  0  0  0  0  0  0  0
    7.8667  -12.5254   17.3663 N   0  0  0  0  0  0  0  0  0  0  0  0
    9.4249  -13.8254   18.5842 N   0  0  0  0  0  0  0  0  0  0  0  0
    9.8022  -15.1081   19.0652 C   0  0  0  0  0  0  0  0  0  0  0  0
    9.0233  -15.6949   20.1780 C   0  0  0  0  0  0  0  0  0  0  0  0
    9.4064  -17.0266   20.6848 C   0  0  0  0  0  0  0  0  0  0  0  0
    8.5481  -17.5402   21.7900 C   0  0  2  0  0  0  0  0  0  0  0  0
    7.2019  -17.0538   21.5694 N   0  0  0  0  0  0  0  0  0  0  0  0
    9.0145  -16.9654   23.0999 C   0  0  0  0  0  0  0  0  0  0  0  0
    9.6106  -15.8687   23.1162 O   0  0  0  0  0  0  0  0  0  0  0  0
    8.3243  -11.6372   17.6502 N   0  0  0  0  0  0  0  0  0  0  0  0
    8.7720  -17.6711   24.2873 C   0  0  1  0  0  0  0  0  0  0  0  0
    9.3534  -17.2297   25.5180 C   0  0  0  0  0  0  0  0  0  0  0  0
    8.2428  -16.9620   26.5448 C   0  0  0  0  0  0  0  0  0  0  0  0
    7.3816  -15.8486   26.0656 C   0  0  0  0  0  0  0  0  0  0  0  0
    6.2077  -15.9400   25.3583 N   0  0  0  0  0  0  0  0  0  0  0  0
    5.7743  -14.6974   25.1361 C   0  0  0  0  0  0  0  0  0  0  0  0
    6.6392  -13.8100   25.6822 C   0  0  0  0  0  0  0  0  0  0  0  0
    6.6483  -12.4212   25.7298 C   0  0  0  0  0  0  0  0  0  0  0  0
    7.6717  -11.7741   26.3638 C   0  0  0  0  0  0  0  0  0  0  0  0
    8.7088  -12.4851   26.9648 C   0  0  0  0  0  0  0  0  0  0  0  0
    8.6959  -13.8611   26.9152 C   0  0  0  0  0  0  0  0  0  0  0  0
    7.6584  -14.5230   26.2722 C   0  0  0  0  0  0  0  0  0  0  0  0
   10.3330  -18.2080   26.0659 O   0  0  0  0  0  0  0  0  0  0  0  0
   10.1304  -19.4486   26.0352 C   0  0  0  0  0  0  0  0  0  0  0  0
   13.8647  -18.1148   27.1674 C   0  0  2  0  0  0  0  0  0  0  0  0
   12.4731  -18.7511   27.2604 N   0  0  0  0  0  0  0  0  0  0  0  0
   11.5651  -17.7951   26.6609 C   0  0  0  0  0  0  0  0  0  0  0  0
   12.1961  -18.9962   28.6764 O   0  0  0  0  0  0  0  0  0  0  0  0
   12.9856  -19.8744   29.3977 O   0  0  0  0  0  0  0  0  0  0  0  0
  2  1  1  0
  3  2  2  0
  4  2  1  0
  5  4  1  0
  6  5  1  0
  7  6  1  0
  8 10  1  0
  8  7  1  0
  8  9  1  6
 10 11  2  0
 12 13  1  0
 12 10  1  0
 13 14  1  1
 15 16  2  0
 15 14  1  0
 17 16  1  0
 18 23  2  0
 18 17  1  0
 19 18  1  0
 20 21  1  0
 20 19  2  0
 21 22  2  0
 22 23  1  0
 23 15  1  0
 24 28  1  0
 24 13  1  0
 25 24  2  0
 27 26  1  6
 27 29  1  0
 27 28  1  0
 29 30  1  0
 31 29  2  0
M  END
$$$$
