RWA.pdb
     RDKit          3D

 31 32  0  0  1  0  0  0  0  0999 V2000
    8.8202  -13.0431   18.1596 N   0  0  0  0  0  0  0  0  0  0  0  0
    7.9241  -13.9979   17.5887 C   0  0  0  0  0  0  0  0  0  0  0  0
    7.6945  -13.9315   16.3224 N   0  0  0  0  0  0  0  0  0  0  0  0
    7.3214  -14.9726   18.4148 N   0  0  0  0  0  0  0  0  0  0  0  0
    8.0502  -16.1238   18.8179 C   0  0  0  0  0  0  0  0  0  0  0  0
    9.3250  -15.9265   19.5426 C   0  0  0  0  0  0  0  0  0  0  0  0
    9.2913  -15.2910   20.8737 C   0  0  0  0  0  0  0  0  0  0  0  0
   10.6302  -15.0760   21.4926 C   0  0  2  0  0  0  0  0  0  0  0  0
   11.5670  -15.9721   20.8468 N   0  0  0  0  0  0  0  0  0  0  0  0
   10.5823  -15.4624   22.9460 C   0  0  0  0  0  0  0  0  0  0  0  0
   11.5692  -15.2401   23.6773 O   0  0  0  0  0  0  0  0  0  0  0  0
    7.0229  -14.5620   15.8425 N   0  0  0  0  0  0  0  0  0  0  0  0
    9.4265  -16.0679   23.4601 C   0  0  2  0  0  0  0  0  0  0  0  0
    9.2633  -16.2226   24.8732 C   0  0  0  0  0  0  0  0  0  0  0  0
    7.7685  -16.1886   25.2252 C   0  0  0  0  0  0  0  0  0  0  0  0
    7.2059  -14.8580   24.8736 C   0  0  0  0  0  0  0  0  0  0  0  0
    6.6029  -14.4858   23.6968 N   0  0  0  0  0  0  0  0  0  0  0  0
    6.2523  -13.2033   23.8126 C   0  0  0  0  0  0  0  0  0  0  0  0
    6.6144  -12.7417   25.0330 C   0  0  0  0  0  0  0  0  0  0  0  0
    6.4800  -11.4990   25.6404 C   0  0  0  0  0  0  0  0  0  0  0  0
    6.9488  -11.3143   26.9110 C   0  0  0  0  0  0  0  0  0  0  0  0
    7.5607  -12.3535   27.6094 C   0  0  0  0  0  0  0  0  0  0  0  0
    7.6918  -13.5831   27.0038 C   0  0  0  0  0  0  0  0  0  0  0  0
    7.2172  -13.7756   25.7132 C   0  0  0  0  0  0  0  0  0  0  0  0
    9.8812  -17.4781   25.3818 O   0  0  0  0  0  0  0  0  0  0  0  0
    9.7128  -17.8782   26.5619 C   0  0  0  0  0  0  0  0  0  0  0  0
   11.6847  -20.3376   23.8100 C   0  0  2  0  0  0  0  0  0  0  0  0
   11.2697  -19.5437   25.0540 N   0  0  0  0  0  0  0  0  0  0  0  0
   10.7048  -18.3059   24.5577 C   0  0  0  0  0  0  0  0  0  0  0  0
   12.4700  -19.3419   25.8667 O   0  0  0  0  0  0  0  0  0  0  0  0
   12.9697  -18.0669   26.0647 O   0  0  0  0  0  0  0  0  0  0  0  0
  2  1  1  0
  3  2  2  0
  4  2  1  0
  5  4  1  0
  6  5  1  0
  7  6  1  0
  8 10  1  0
  8  7  1  0
  8  9  1  6
 10 11  2  0
 12 13  1  0
 12 10  1  0
 13 14  1  6
 15 16  2  0
 15 14  1  0
 17 16  1  0
 18 23  2  0
 18 17  1  0
 19 18  1  0
 20 21  1  0
 20 19  2  0
 21 22  2  0
 22 23  1  0
 23 15  1  0
 24 28  1  0
 24 13  1  0
 25 24  2  0
 27 26  1  6
 27 29  1  0
 27 28  1  0
 29 30  1  0
 31 29  2  0
M  END
$$$$
