RWA.pdb
     RDKit          3D

 31 32  0  0  1  0  0  0  0  0999 V2000
    6.6397  -14.2504   16.5482 N   0  0  0  0  0  0  0  0  0  0  0  0
    8.0077  -14.2496   16.9596 C   0  0  0  0  0  0  0  0  0  0  0  0
    8.6337  -13.1233   16.9794 N   0  0  0  0  0  0  0  0  0  0  0  0
    8.6285  -15.4645   17.3260 N   0  0  0  0  0  0  0  0  0  0  0  0
    9.0937  -15.6624   18.6540 C   0  0  0  0  0  0  0  0  0  0  0  0
    8.5297  -14.8136   19.7267 C   0  0  0  0  0  0  0  0  0  0  0  0
    9.2702  -14.6935   20.9972 C   0  0  0  0  0  0  0  0  0  0  0  0
    9.7802  -15.9837   21.5423 C   0  0  2  0  0  0  0  0  0  0  0  0
    8.8149  -17.0143   21.2202 N   0  0  0  0  0  0  0  0  0  0  0  0
    9.8540  -15.9035   23.0429 C   0  0  0  0  0  0  0  0  0  0  0  0
   10.4949  -14.9776   23.5815 O   0  0  0  0  0  0  0  0  0  0  0  0
    9.5956  -13.0253   17.3588 N   0  0  0  0  0  0  0  0  0  0  0  0
    9.1996  -16.8722   23.8177 C   0  0  1  0  0  0  0  0  0  0  0  0
    9.2792  -16.8255   25.2456 C   0  0  0  0  0  0  0  0  0  0  0  0
    7.8628  -16.7961   25.8391 C   0  0  0  0  0  0  0  0  0  0  0  0
    7.1664  -15.5578   25.4004 C   0  0  0  0  0  0  0  0  0  0  0  0
    6.3190  -15.4057   24.3301 N   0  0  0  0  0  0  0  0  0  0  0  0
    5.9266  -14.1303   24.3060 C   0  0  0  0  0  0  0  0  0  0  0  0
    6.4998  -13.4590   25.3328 C   0  0  0  0  0  0  0  0  0  0  0  0
    6.4200  -12.1341   25.7444 C   0  0  0  0  0  0  0  0  0  0  0  0
    7.1234  -11.7246   26.8425 C   0  0  0  0  0  0  0  0  0  0  0  0
    7.9213  -12.6154   27.5581 C   0  0  0  0  0  0  0  0  0  0  0  0
    7.9975  -13.9273   27.1468 C   0  0  0  0  0  0  0  0  0  0  0  0
    7.2849  -14.3480   26.0318 C   0  0  0  0  0  0  0  0  0  0  0  0
   10.0473  -17.9698   25.8088 O   0  0  0  0  0  0  0  0  0  0  0  0
    9.5536  -19.1213   25.9153 C   0  0  0  0  0  0  0  0  0  0  0  0
   13.6165  -18.5967   26.6107 C   0  0  2  0  0  0  0  0  0  0  0  0
   12.1369  -18.9540   26.7923 N   0  0  0  0  0  0  0  0  0  0  0  0
   11.3949  -17.8282   26.2635 C   0  0  0  0  0  0  0  0  0  0  0  0
   11.9099  -19.1709   28.2218 O   0  0  0  0  0  0  0  0  0  0  0  0
   12.5488  -20.2081   28.8780 O   0  0  0  0  0  0  0  0  0  0  0  0
  2  1  1  0
  3  2  2  0
  4  2  1  0
  5  4  1  0
  6  5  1  0
  7  6  1  0
  8 10  1  0
  8  7  1  0
  8  9  1  1
 10 11  2  0
 12 13  1  0
 12 10  1  0
 13 14  1  1
 15 16  2  0
 15 14  1  0
 17 16  1  0
 18 23  2  0
 18 17  1  0
 19 18  1  0
 20 21  1  0
 20 19  2  0
 21 22  2  0
 22 23  1  0
 23 15  1  0
 24 28  1  0
 24 13  1  0
 25 24  2  0
 27 26  1  6
 27 29  1  0
 27 28  1  0
 29 30  1  0
 31 29  2  0
M  END
$$$$
