RWA.pdb
     RDKit          3D

 31 32  0  0  1  0  0  0  0  0999 V2000
    7.6222  -12.8412   15.6576 N   0  0  0  0  0  0  0  0  0  0  0  0
    8.0301  -13.6861   16.7348 C   0  0  0  0  0  0  0  0  0  0  0  0
    7.5755  -14.8916   16.7647 N   0  0  0  0  0  0  0  0  0  0  0  0
    8.9052  -13.1849   17.7240 N   0  0  0  0  0  0  0  0  0  0  0  0
    9.4144  -14.0434   18.7353 C   0  0  0  0  0  0  0  0  0  0  0  0
    8.4644  -14.6017   19.7228 C   0  0  0  0  0  0  0  0  0  0  0  0
    8.8673  -14.6539   21.1412 C   0  0  0  0  0  0  0  0  0  0  0  0
    9.4832  -15.9437   21.5641 C   0  0  2  0  0  0  0  0  0  0  0  0
    8.5197  -16.9971   21.3196 N   0  0  0  0  0  0  0  0  0  0  0  0
    9.7403  -15.9180   23.0464 C   0  0  0  0  0  0  0  0  0  0  0  0
   10.4847  -15.0400   23.5293 O   0  0  0  0  0  0  0  0  0  0  0  0
    7.9052  -15.5961   17.4529 N   0  0  0  0  0  0  0  0  0  0  0  0
    9.1382  -16.8829   23.8669 C   0  0  1  0  0  0  0  0  0  0  0  0
    9.3554  -16.8615   25.2811 C   0  0  0  0  0  0  0  0  0  0  0  0
    8.0032  -16.8211   26.0087 C   0  0  0  0  0  0  0  0  0  0  0  0
    7.2603  -15.5971   25.6079 C   0  0  0  0  0  0  0  0  0  0  0  0
    6.2081  -15.5035   24.7299 N   0  0  0  0  0  0  0  0  0  0  0  0
    5.8515  -14.2191   24.6649 C   0  0  0  0  0  0  0  0  0  0  0  0
    6.6471  -13.4849   25.4783 C   0  0  0  0  0  0  0  0  0  0  0  0
    6.6899  -12.1262   25.7668 C   0  0  0  0  0  0  0  0  0  0  0  0
    7.6214  -11.6520   26.6475 C   0  0  0  0  0  0  0  0  0  0  0  0
    8.5312  -12.5100   27.2626 C   0  0  0  0  0  0  0  0  0  0  0  0
    8.4852  -13.8556   26.9739 C   0  0  0  0  0  0  0  0  0  0  0  0
    7.5409  -14.3420   26.0798 C   0  0  0  0  0  0  0  0  0  0  0  0
   10.1552  -18.0265   25.7500 O   0  0  0  0  0  0  0  0  0  0  0  0
    9.8653  -19.2090   25.4357 C   0  0  0  0  0  0  0  0  0  0  0  0
   13.3671  -18.5201   27.5693 C   0  0  2  0  0  0  0  0  0  0  0  0
   11.9698  -19.0134   27.1767 N   0  0  0  0  0  0  0  0  0  0  0  0
   11.3029  -17.8707   26.5873 C   0  0  0  0  0  0  0  0  0  0  0  0
   11.3160  -19.4948   28.3943 O   0  0  0  0  0  0  0  0  0  0  0  0
   11.8205  -20.5940   29.0666 O   0  0  0  0  0  0  0  0  0  0  0  0
  2  1  1  0
  3  2  2  0
  4  2  1  0
  5  4  1  0
  6  5  1  0
  7  6  1  0
  8 10  1  0
  8  7  1  0
  8  9  1  1
 10 11  2  0
 12 13  1  0
 12 10  1  0
 13 14  1  6
 15 16  2  0
 15 14  1  0
 17 16  1  0
 18 23  2  0
 18 17  1  0
 19 18  1  0
 20 21  1  0
 20 19  2  0
 21 22  2  0
 22 23  1  0
 23 15  1  0
 24 28  1  0
 24 13  1  0
 25 24  2  0
 27 26  1  6
 27 29  1  0
 27 28  1  0
 29 30  1  0
 31 29  2  0
M  END
$$$$
