RWA.pdb
     RDKit          3D

 31 32  0  0  1  0  0  0  0  0999 V2000
    8.8386  -12.7789   16.7862 N   0  0  0  0  0  0  0  0  0  0  0  0
    8.5503  -14.0797   16.2711 C   0  0  0  0  0  0  0  0  0  0  0  0
    9.0091  -14.3853   15.1063 N   0  0  0  0  0  0  0  0  0  0  0  0
    7.7805  -14.9813   17.0393 N   0  0  0  0  0  0  0  0  0  0  0  0
    7.7382  -14.8659   18.4549 C   0  0  0  0  0  0  0  0  0  0  0  0
    9.0182  -14.7267   19.1840 C   0  0  0  0  0  0  0  0  0  0  0  0
    8.9853  -14.6004   20.6536 C   0  0  0  0  0  0  0  0  0  0  0  0
    9.6166  -15.7337   21.3879 C   0  0  2  0  0  0  0  0  0  0  0  0
    8.7361  -16.8785   21.2794 N   0  0  0  0  0  0  0  0  0  0  0  0
    9.7180  -15.3936   22.8501 C   0  0  0  0  0  0  0  0  0  0  0  0
   10.4403  -14.4431   23.2147 O   0  0  0  0  0  0  0  0  0  0  0  0
    8.9667  -15.3505   14.7247 N   0  0  0  0  0  0  0  0  0  0  0  0
    8.9973  -16.1506   23.7851 C   0  0  1  0  0  0  0  0  0  0  0  0
    8.9303  -15.7317   25.1517 C   0  0  0  0  0  0  0  0  0  0  0  0
    7.6615  -16.3021   25.8030 C   0  0  0  0  0  0  0  0  0  0  0  0
    6.5878  -15.2737   25.7826 C   0  0  0  0  0  0  0  0  0  0  0  0
    5.2338  -15.4759   25.6706 N   0  0  0  0  0  0  0  0  0  0  0  0
    4.6451  -14.2784   25.6926 C   0  0  0  0  0  0  0  0  0  0  0  0
    5.5856  -13.3119   25.8157 C   0  0  0  0  0  0  0  0  0  0  0  0
    5.4995  -11.9267   25.8852 C   0  0  0  0  0  0  0  0  0  0  0  0
    6.6405  -11.1847   26.0110 C   0  0  0  0  0  0  0  0  0  0  0  0
    7.8918  -11.7953   26.0709 C   0  0  0  0  0  0  0  0  0  0  0  0
    7.9726  -13.1681   26.0017 C   0  0  0  0  0  0  0  0  0  0  0  0
    6.8163  -13.9261   25.8738 C   0  0  0  0  0  0  0  0  0  0  0  0
   10.1329  -16.1383   25.9294 O   0  0  0  0  0  0  0  0  0  0  0  0
   10.9710  -16.9639   25.4855 C   0  0  0  0  0  0  0  0  0  0  0  0
   11.4065  -15.3782   29.3736 C   0  0  2  0  0  0  0  0  0  0  0  0
   11.4893  -16.1328   28.0419 N   0  0  0  0  0  0  0  0  0  0  0  0
   10.4079  -15.6139   27.2302 C   0  0  0  0  0  0  0  0  0  0  0  0
   11.3524  -17.5598   28.3366 O   0  0  0  0  0  0  0  0  0  0  0  0
   10.1852  -18.2283   28.0117 O   0  0  0  0  0  0  0  0  0  0  0  0
  2  1  1  0
  3  2  2  0
  4  2  1  0
  5  4  1  0
  6  5  1  0
  7  6  1  0
  8 10  1  0
  8  7  1  0
  8  9  1  1
 10 11  2  0
 12 13  1  0
 12 10  1  0
 13 14  1  1
 15 16  2  0
 15 14  1  0
 17 16  1  0
 18 23  2  0
 18 17  1  0
 19 18  1  0
 20 21  1  0
 20 19  2  0
 21 22  2  0
 22 23  1  0
 23 15  1  0
 24 28  1  0
 24 13  1  0
 25 24  2  0
 27 26  1  6
 27 29  1  0
 27 28  1  0
 29 30  1  0
 31 29  2  0
M  END
$$$$
