RWA.pdb
     RDKit          3D

 31 32  0  0  1  0  0  0  0  0999 V2000
    8.6408  -12.7012   19.2221 N   0  0  0  0  0  0  0  0  0  0  0  0
    8.7446  -13.4085   17.9854 C   0  0  0  0  0  0  0  0  0  0  0  0
    7.7731  -13.3047   17.1449 N   0  0  0  0  0  0  0  0  0  0  0  0
    9.8900  -14.1921   17.7217 N   0  0  0  0  0  0  0  0  0  0  0  0
   10.6603  -14.7223   18.7915 C   0  0  0  0  0  0  0  0  0  0  0  0
    9.9626  -15.5065   19.8344 C   0  0  0  0  0  0  0  0  0  0  0  0
   10.7458  -16.0255   20.9720 C   0  0  0  0  0  0  0  0  0  0  0  0
    9.9660  -16.8532   21.9358 C   0  0  2  0  0  0  0  0  0  0  0  0
    8.5812  -16.8420   21.5117 N   0  0  0  0  0  0  0  0  0  0  0  0
   10.0137  -16.2190   23.2994 C   0  0  0  0  0  0  0  0  0  0  0  0
   10.7884  -15.2630   23.5095 O   0  0  0  0  0  0  0  0  0  0  0  0
    7.7615  -13.8126   16.2390 N   0  0  0  0  0  0  0  0  0  0  0  0
    9.1847  -16.7115   24.3178 C   0  0  1  0  0  0  0  0  0  0  0  0
    9.1374  -16.0543   25.5879 C   0  0  0  0  0  0  0  0  0  0  0  0
    7.7635  -16.2841   26.2352 C   0  0  0  0  0  0  0  0  0  0  0  0
    6.7706  -15.3534   25.6361 C   0  0  0  0  0  0  0  0  0  0  0  0
    5.6185  -15.6759   24.9612 N   0  0  0  0  0  0  0  0  0  0  0  0
    5.0334  -14.5335   24.5957 C   0  0  0  0  0  0  0  0  0  0  0  0
    5.7796  -13.4853   25.0180 C   0  0  0  0  0  0  0  0  0  0  0  0
    5.6148  -12.1108   24.8964 C   0  0  0  0  0  0  0  0  0  0  0  0
    6.5483  -11.2689   25.4329 C   0  0  0  0  0  0  0  0  0  0  0  0
    7.6652  -11.7665   26.1016 C   0  0  0  0  0  0  0  0  0  0  0  0
    7.8245  -13.1291   26.2198 C   0  0  0  0  0  0  0  0  0  0  0  0
    6.8790  -13.9885   25.6763 C   0  0  0  0  0  0  0  0  0  0  0  0
   10.2185  -16.5113   26.5039 O   0  0  0  0  0  0  0  0  0  0  0  0
   10.9069  -17.5371   26.2696 C   0  0  0  0  0  0  0  0  0  0  0  0
   11.5262  -15.3400   29.8173 C   0  0  1  0  0  0  0  0  0  0  0  0
   11.5365  -16.3109   28.6311 N   0  0  0  0  0  0  0  0  0  0  0  0
   10.5396  -15.8103   27.7073 C   0  0  0  0  0  0  0  0  0  0  0  0
   11.2209  -17.6422   29.1506 O   0  0  0  0  0  0  0  0  0  0  0  0
   12.1516  -18.3324   29.9069 O   0  0  0  0  0  0  0  0  0  0  0  0
  2  1  1  0
  3  2  2  0
  4  2  1  0
  5  4  1  0
  6  5  1  0
  7  6  1  0
  8 10  1  0
  8  7  1  0
  8  9  1  6
 10 11  2  0
 12 13  1  0
 12 10  1  0
 13 14  1  1
 15 16  2  0
 15 14  1  0
 17 16  1  0
 18 23  2  0
 18 17  1  0
 19 18  1  0
 20 21  1  0
 20 19  2  0
 21 22  2  0
 22 23  1  0
 23 15  1  0
 24 28  1  0
 24 13  1  0
 25 24  2  0
 27 26  1  6
 27 29  1  0
 27 28  1  0
 29 30  1  0
 31 29  2  0
M  END
$$$$
