PKW.pdb
     RDKit          3D

 31 33  0  0  1  0  0  0  0  0999 V2000
   23.8208  -24.2585  -16.2853 N   0  0  0  0  0  0  0  0  0  0  0  0
   23.6752  -25.1119  -17.4297 C   0  0  0  0  0  0  0  0  0  0  0  0
   25.1087  -25.4218  -17.8296 C   0  0  0  0  0  0  0  0  0  0  0  0
   25.7847  -25.6020  -16.4711 C   0  0  0  0  0  0  0  0  0  0  0  0
   24.8629  -24.8997  -15.5199 C   0  0  1  0  0  0  0  0  0  0  0  0
   25.5701  -23.8539  -14.7321 C   0  0  0  0  0  0  0  0  0  0  0  0
   26.4099  -24.1822  -13.8680 O   0  0  0  0  0  0  0  0  0  0  0  0
   25.2950  -22.4680  -14.9563 N   0  0  0  0  0  0  0  0  0  0  0  0
   26.0205  -21.3886  -14.3671 C   0  0  1  0  0  0  0  0  0  0  0  0
   26.0862  -20.1537  -15.1902 C   0  0  0  0  0  0  0  0  0  0  0  0
   26.9109  -19.1010  -14.5397 C   0  0  0  0  0  0  0  0  0  0  0  0
   27.0037  -17.8196  -15.3032 C   0  0  0  0  0  0  0  0  0  0  0  0
   27.8456  -16.7843  -14.5534 C   0  0  0  0  0  0  0  0  0  0  0  0
   27.7872  -15.5037  -15.2327 N   0  0  0  0  0  0  0  0  0  0  0  0
   25.5638  -21.1279  -12.9486 C   0  0  0  0  0  0  0  0  0  0  0  0
   24.3641  -20.8454  -12.7163 O   0  0  0  0  0  0  0  0  0  0  0  0
   26.4381  -21.1891  -11.8568 N   0  0  0  0  0  0  0  0  0  0  0  0
   26.0128  -20.9881  -10.4623 C   0  0  1  0  0  0  0  0  0  0  0  0
   27.1373  -21.2411   -9.5290 C   0  0  0  0  0  0  0  0  0  0  0  0
   26.8592  -20.9528   -8.1158 C   0  0  0  0  0  0  0  0  0  0  0  0
   25.6840  -21.2426   -7.4041 C   0  0  0  0  0  0  0  0  0  0  0  0
   25.7832  -20.8022   -6.1413 N   0  0  0  0  0  0  0  0  0  0  0  0
   26.9875  -20.2244   -5.9752 C   0  0  0  0  0  0  0  0  0  0  0  0
   27.5616  -19.6379   -4.8481 C   0  0  0  0  0  0  0  0  0  0  0  0
   28.8400  -19.1446   -4.9896 C   0  0  0  0  0  0  0  0  0  0  0  0
   29.5331  -19.2168   -6.1755 C   0  0  0  0  0  0  0  0  0  0  0  0
   28.9469  -19.7971   -7.2684 C   0  0  0  0  0  0  0  0  0  0  0  0
   27.6654  -20.3066   -7.1771 C   0  0  0  0  0  0  0  0  0  0  0  0
   25.2795  -19.7384  -10.2947 C   0  0  0  0  0  0  0  0  0  0  0  0
   24.0801  -19.7918   -9.5565 O   0  0  0  0  0  0  0  0  0  0  0  0
   25.6049  -18.6238  -10.7385 O   0  0  0  0  0  0  0  0  0  0  0  0
  1  5  1  0
  2  3  1  0
  2  1  1  0
  3  4  1  0
  5  4  1  0
  6  7  2  0
  5  6  1  6
  8  6  1  0
  9  8  1  0
  9 10  1  6
 11 12  1  0
 11 10  1  0
 13 12  1  0
 14 13  1  0
 15  9  1  0
 15 17  1  0
 16 15  2  0
 18 17  1  0
 18 29  1  0
 18 19  1  1
 19 20  1  0
 20 28  1  0
 21 20  2  0
 21 22  1  0
 22 23  1  0
 23 24  1  0
 24 25  2  0
 26 25  1  0
 27 26  2  0
 28 23  2  0
 28 27  1  0
 29 30  1  0
 31 29  2  0
M  END
$$$$
