PKW.pdb
     RDKit          3D

 31 33  0  0  1  0  0  0  0  0999 V2000
   26.9993  -24.1690  -16.9700 N   0  0  0  0  0  0  0  0  0  0  0  0
   27.1935  -24.9060  -18.1859 C   0  0  0  0  0  0  0  0  0  0  0  0
   28.4716  -24.3172  -18.7609 C   0  0  0  0  0  0  0  0  0  0  0  0
   29.3243  -24.1264  -17.5073 C   0  0  0  0  0  0  0  0  0  0  0  0
   28.3213  -24.1207  -16.3930 C   0  0  1  0  0  0  0  0  0  0  0  0
   28.4206  -22.8894  -15.5633 C   0  0  0  0  0  0  0  0  0  0  0  0
   29.4644  -22.6502  -14.9207 O   0  0  0  0  0  0  0  0  0  0  0  0
   27.3249  -21.9722  -15.4939 N   0  0  0  0  0  0  0  0  0  0  0  0
   27.3067  -20.7844  -14.7018 C   0  0  1  0  0  0  0  0  0  0  0  0
   26.8526  -19.5624  -15.4140 C   0  0  0  0  0  0  0  0  0  0  0  0
   26.8658  -18.3697  -14.5257 C   0  0  0  0  0  0  0  0  0  0  0  0
   26.4552  -17.0939  -15.1869 C   0  0  0  0  0  0  0  0  0  0  0  0
   26.4875  -15.9216  -14.2034 C   0  0  0  0  0  0  0  0  0  0  0  0
   25.9752  -14.7213  -14.8371 N   0  0  0  0  0  0  0  0  0  0  0  0
   26.5824  -21.0070  -13.3925 C   0  0  0  0  0  0  0  0  0  0  0  0
   25.3459  -21.2167  -13.3858 O   0  0  0  0  0  0  0  0  0  0  0  0
   27.2432  -20.9901  -12.1584 N   0  0  0  0  0  0  0  0  0  0  0  0
   26.5588  -21.1630  -10.8670 C   0  0  1  0  0  0  0  0  0  0  0  0
   27.5415  -21.3717   -9.7760 C   0  0  0  0  0  0  0  0  0  0  0  0
   27.3633  -20.5148   -8.5963 C   0  0  0  0  0  0  0  0  0  0  0  0
   26.3143  -19.6146   -8.3498 C   0  0  0  0  0  0  0  0  0  0  0  0
   26.5060  -18.9838   -7.1819 N   0  0  0  0  0  0  0  0  0  0  0  0
   27.6503  -19.4285   -6.6299 C   0  0  0  0  0  0  0  0  0  0  0  0
   28.2631  -19.0919   -5.4237 C   0  0  0  0  0  0  0  0  0  0  0  0
   29.4372  -19.7460   -5.1215 C   0  0  0  0  0  0  0  0  0  0  0  0
   29.9944  -20.6876   -5.9552 C   0  0  0  0  0  0  0  0  0  0  0  0
   29.3734  -21.0001   -7.1348 C   0  0  0  0  0  0  0  0  0  0  0  0
   28.1932  -20.3709   -7.4831 C   0  0  0  0  0  0  0  0  0  0  0  0
   25.5378  -20.1432  -10.6547 C   0  0  0  0  0  0  0  0  0  0  0  0
   24.3241  -20.5611  -10.0728 O   0  0  0  0  0  0  0  0  0  0  0  0
   25.6278  -18.9356  -10.9356 O   0  0  0  0  0  0  0  0  0  0  0  0
  1  5  1  0
  2  3  1  0
  2  1  1  0
  3  4  1  0
  5  4  1  0
  6  7  2  0
  5  6  1  6
  8  6  1  0
  9  8  1  0
  9 10  1  6
 11 12  1  0
 11 10  1  0
 13 12  1  0
 14 13  1  0
 15  9  1  0
 15 17  1  0
 16 15  2  0
 18 17  1  0
 18 29  1  0
 18 19  1  1
 19 20  1  0
 20 28  1  0
 21 20  2  0
 21 22  1  0
 22 23  1  0
 23 24  1  0
 24 25  2  0
 26 25  1  0
 27 26  2  0
 28 23  2  0
 28 27  1  0
 29 30  1  0
 31 29  2  0
M  END
$$$$
