PKW.pdb
     RDKit          3D

 31 33  0  0  1  0  0  0  0  0999 V2000
   29.4987  -19.7962  -19.8699 N   0  0  0  0  0  0  0  0  0  0  0  0
   30.6015  -19.4576  -20.7233 C   0  0  0  0  0  0  0  0  0  0  0  0
   30.6408  -20.5989  -21.7268 C   0  0  0  0  0  0  0  0  0  0  0  0
   29.1550  -20.8431  -21.9870 C   0  0  0  0  0  0  0  0  0  0  0  0
   28.4807  -20.2323  -20.7954 C   0  0  1  0  0  0  0  0  0  0  0  0
   27.6031  -21.2078  -20.0937 C   0  0  0  0  0  0  0  0  0  0  0  0
   26.5621  -21.6226  -20.6451 O   0  0  0  0  0  0  0  0  0  0  0  0
   27.9423  -21.6772  -18.7856 N   0  0  0  0  0  0  0  0  0  0  0  0
   27.1837  -22.6304  -18.0409 C   0  0  1  0  0  0  0  0  0  0  0  0
   27.9158  -23.2793  -16.9230 C   0  0  0  0  0  0  0  0  0  0  0  0
   29.0713  -24.0783  -17.4112 C   0  0  0  0  0  0  0  0  0  0  0  0
   29.9838  -24.5769  -16.3378 C   0  0  0  0  0  0  0  0  0  0  0  0
   31.2803  -25.1389  -16.9259 C   0  0  0  0  0  0  0  0  0  0  0  0
   32.2711  -25.3126  -15.8804 N   0  0  0  0  0  0  0  0  0  0  0  0
   25.8473  -22.0611  -17.6184 C   0  0  0  0  0  0  0  0  0  0  0  0
   25.7709  -20.8820  -17.1978 O   0  0  0  0  0  0  0  0  0  0  0  0
   24.6634  -22.8061  -17.6766 N   0  0  0  0  0  0  0  0  0  0  0  0
   23.3359  -22.2485  -17.3716 C   0  0  1  0  0  0  0  0  0  0  0  0
   23.1052  -20.9965  -18.1324 C   0  0  0  0  0  0  0  0  0  0  0  0
   21.7882  -20.3758  -17.9380 C   0  0  0  0  0  0  0  0  0  0  0  0
   21.3937  -19.5287  -16.8899 C   0  0  0  0  0  0  0  0  0  0  0  0
   20.1055  -19.1829  -17.0297 N   0  0  0  0  0  0  0  0  0  0  0  0
   19.6157  -19.7680  -18.1386 C   0  0  0  0  0  0  0  0  0  0  0  0
   18.3460  -19.7016  -18.7107 C   0  0  0  0  0  0  0  0  0  0  0  0
   18.1550  -20.4067  -19.8786 C   0  0  0  0  0  0  0  0  0  0  0  0
   19.1543  -21.1461  -20.4674 C   0  0  0  0  0  0  0  0  0  0  0  0
   20.3928  -21.1959  -19.8854 C   0  0  0  0  0  0  0  0  0  0  0  0
   20.6341  -20.5058  -18.7125 C   0  0  0  0  0  0  0  0  0  0  0  0
   22.2932  -23.2665  -17.4365 C   0  0  0  0  0  0  0  0  0  0  0  0
   21.3893  -23.3293  -16.3571 O   0  0  0  0  0  0  0  0  0  0  0  0
   22.1181  -24.0897  -18.3513 O   0  0  0  0  0  0  0  0  0  0  0  0
  1  5  1  0
  2  3  1  0
  2  1  1  0
  3  4  1  0
  5  4  1  0
  6  7  2  0
  5  6  1  1
  8  6  1  0
  9  8  1  0
  9 10  1  1
 11 12  1  0
 11 10  1  0
 13 12  1  0
 14 13  1  0
 15  9  1  0
 15 17  1  0
 16 15  2  0
 18 17  1  0
 18 29  1  0
 18 19  1  6
 19 20  1  0
 20 28  1  0
 21 20  2  0
 21 22  1  0
 22 23  1  0
 23 24  1  0
 24 25  2  0
 26 25  1  0
 27 26  2  0
 28 23  2  0
 28 27  1  0
 29 30  1  0
 31 29  2  0
M  END
$$$$
