PKW.pdb
     RDKit          3D

 31 33  0  0  1  0  0  0  0  0999 V2000
   27.8066  -17.4037  -18.1498 N   0  0  0  0  0  0  0  0  0  0  0  0
   28.5053  -16.5718  -19.0874 C   0  0  0  0  0  0  0  0  0  0  0  0
   29.2388  -15.5754  -18.2043 C   0  0  0  0  0  0  0  0  0  0  0  0
   29.6994  -16.4584  -17.0453 C   0  0  0  0  0  0  0  0  0  0  0  0
   28.7892  -17.6473  -17.1212 C   0  0  1  0  0  0  0  0  0  0  0  0
   28.0707  -17.8789  -15.8389 C   0  0  0  0  0  0  0  0  0  0  0  0
   28.7148  -18.0533  -14.7833 O   0  0  0  0  0  0  0  0  0  0  0  0
   26.6408  -17.9044  -15.8039 N   0  0  0  0  0  0  0  0  0  0  0  0
   25.8600  -18.1888  -14.6429 C   0  0  1  0  0  0  0  0  0  0  0  0
   24.4368  -17.7712  -14.7263 C   0  0  0  0  0  0  0  0  0  0  0  0
   23.6506  -18.6678  -15.6150 C   0  0  0  0  0  0  0  0  0  0  0  0
   22.1969  -18.3342  -15.7105 C   0  0  0  0  0  0  0  0  0  0  0  0
   21.4643  -19.2999  -16.6451 C   0  0  0  0  0  0  0  0  0  0  0  0
   20.0618  -18.9407  -16.7380 N   0  0  0  0  0  0  0  0  0  0  0  0
   26.0276  -19.6272  -14.2056 C   0  0  0  0  0  0  0  0  0  0  0  0
   26.1394  -20.5359  -15.0629 O   0  0  0  0  0  0  0  0  0  0  0  0
   26.0652  -20.0009  -12.8569 N   0  0  0  0  0  0  0  0  0  0  0  0
   26.3379  -21.3732  -12.4006 C   0  0  1  0  0  0  0  0  0  0  0  0
   27.3649  -21.3762  -11.3307 C   0  0  0  0  0  0  0  0  0  0  0  0
   26.9092  -20.8955  -10.0197 C   0  0  0  0  0  0  0  0  0  0  0  0
   25.6004  -20.5458   -9.6501 C   0  0  0  0  0  0  0  0  0  0  0  0
   25.5730  -20.1202   -8.3786 N   0  0  0  0  0  0  0  0  0  0  0  0
   26.8206  -20.1712   -7.8756 C   0  0  0  0  0  0  0  0  0  0  0  0
   27.2973  -19.8511   -6.6052 C   0  0  0  0  0  0  0  0  0  0  0  0
   28.6451  -20.0322   -6.3854 C   0  0  0  0  0  0  0  0  0  0  0  0
   29.4957  -20.5040   -7.3580 C   0  0  0  0  0  0  0  0  0  0  0  0
   29.0030  -20.8106   -8.5982 C   0  0  0  0  0  0  0  0  0  0  0  0
   27.6577  -20.6456   -8.8681 C   0  0  0  0  0  0  0  0  0  0  0  0
   25.1073  -22.1122  -12.1415 C   0  0  0  0  0  0  0  0  0  0  0  0
   25.2086  -23.5146  -12.0456 O   0  0  0  0  0  0  0  0  0  0  0  0
   23.9709  -21.6300  -11.9955 O   0  0  0  0  0  0  0  0  0  0  0  0
  1  5  1  0
  2  3  1  0
  2  1  1  0
  3  4  1  0
  5  4  1  0
  6  7  2  0
  5  6  1  1
  8  6  1  0
  9  8  1  0
  9 10  1  6
 11 12  1  0
 11 10  1  0
 13 12  1  0
 14 13  1  0
 15  9  1  0
 15 17  1  0
 16 15  2  0
 18 17  1  0
 18 29  1  0
 18 19  1  1
 19 20  1  0
 20 28  1  0
 21 20  2  0
 21 22  1  0
 22 23  1  0
 23 24  1  0
 24 25  2  0
 26 25  1  0
 27 26  2  0
 28 23  2  0
 28 27  1  0
 29 30  1  0
 31 29  2  0
M  END
$$$$
