PKW.pdb
     RDKit          3D

 31 33  0  0  1  0  0  0  0  0999 V2000
   29.6942  -18.9366  -17.3892 N   0  0  0  0  0  0  0  0  0  0  0  0
   30.4467  -17.9923  -18.1645 C   0  0  0  0  0  0  0  0  0  0  0  0
   29.3989  -16.9920  -18.6254 C   0  0  0  0  0  0  0  0  0  0  0  0
   28.5199  -16.8588  -17.3825 C   0  0  0  0  0  0  0  0  0  0  0  0
   28.8211  -18.1015  -16.5998 C   0  0  1  0  0  0  0  0  0  0  0  0
   27.5885  -18.8773  -16.2943 C   0  0  0  0  0  0  0  0  0  0  0  0
   26.6066  -18.3112  -15.7699 O   0  0  0  0  0  0  0  0  0  0  0  0
   27.5177  -20.2737  -16.5970 N   0  0  0  0  0  0  0  0  0  0  0  0
   26.4038  -21.1156  -16.2987 C   0  0  1  0  0  0  0  0  0  0  0  0
   26.2470  -22.2895  -17.1954 C   0  0  0  0  0  0  0  0  0  0  0  0
   26.1133  -21.8815  -18.6193 C   0  0  0  0  0  0  0  0  0  0  0  0
   25.9269  -23.0125  -19.5782 C   0  0  0  0  0  0  0  0  0  0  0  0
   25.9364  -22.5209  -21.0277 C   0  0  0  0  0  0  0  0  0  0  0  0
   25.6482  -23.6187  -21.9313 N   0  0  0  0  0  0  0  0  0  0  0  0
   26.3705  -21.4855  -14.8323 C   0  0  0  0  0  0  0  0  0  0  0  0
   27.3882  -21.9712  -14.2831 O   0  0  0  0  0  0  0  0  0  0  0  0
   25.2301  -21.3065  -14.0401 N   0  0  0  0  0  0  0  0  0  0  0  0
   25.2322  -21.4253  -12.5731 C   0  0  1  0  0  0  0  0  0  0  0  0
   26.3905  -20.7056  -11.9900 C   0  0  0  0  0  0  0  0  0  0  0  0
   26.3546  -20.5327  -10.5318 C   0  0  0  0  0  0  0  0  0  0  0  0
   25.2480  -20.1750   -9.7448 C   0  0  0  0  0  0  0  0  0  0  0  0
   25.6035  -20.0825   -8.4551 N   0  0  0  0  0  0  0  0  0  0  0  0
   26.9145  -20.3667   -8.3436 C   0  0  0  0  0  0  0  0  0  0  0  0
   27.7361  -20.4195   -7.2184 C   0  0  0  0  0  0  0  0  0  0  0  0
   29.0526  -20.7665   -7.4282 C   0  0  0  0  0  0  0  0  0  0  0  0
   29.5520  -21.0503   -8.6780 C   0  0  0  0  0  0  0  0  0  0  0  0
   28.7248  -20.9907   -9.7675 C   0  0  0  0  0  0  0  0  0  0  0  0
   27.3957  -20.6468   -9.6088 C   0  0  0  0  0  0  0  0  0  0  0  0
   23.9193  -21.1405  -12.0051 C   0  0  0  0  0  0  0  0  0  0  0  0
   22.9236  -20.6788  -12.8892 O   0  0  0  0  0  0  0  0  0  0  0  0
   23.5853  -21.2639  -10.8141 O   0  0  0  0  0  0  0  0  0  0  0  0
  1  5  1  0
  2  3  1  0
  2  1  1  0
  3  4  1  0
  5  4  1  0
  6  7  2  0
  5  6  1  6
  8  6  1  0
  9  8  1  0
  9 10  1  6
 11 12  1  0
 11 10  1  0
 13 12  1  0
 14 13  1  0
 15  9  1  0
 15 17  1  0
 16 15  2  0
 18 17  1  0
 18 29  1  0
 18 19  1  1
 19 20  1  0
 20 28  1  0
 21 20  2  0
 21 22  1  0
 22 23  1  0
 23 24  1  0
 24 25  2  0
 26 25  1  0
 27 26  2  0
 28 23  2  0
 28 27  1  0
 29 30  1  0
 31 29  2  0
M  END
$$$$
