PKW.pdb
     RDKit          3D

 31 33  0  0  1  0  0  0  0  0999 V2000
   30.3800  -22.1857  -13.5963 N   0  0  0  0  0  0  0  0  0  0  0  0
   31.6880  -22.3213  -14.1705 C   0  0  0  0  0  0  0  0  0  0  0  0
   32.4641  -21.1596  -13.5713 C   0  0  0  0  0  0  0  0  0  0  0  0
   31.9514  -21.1452  -12.1319 C   0  0  0  0  0  0  0  0  0  0  0  0
   30.6520  -21.8888  -12.2103 C   0  0  1  0  0  0  0  0  0  0  0  0
   29.5191  -21.0845  -11.6773 C   0  0  0  0  0  0  0  0  0  0  0  0
   29.6207  -20.5181  -10.5689 O   0  0  0  0  0  0  0  0  0  0  0  0
   28.3076  -20.9539  -12.4267 N   0  0  0  0  0  0  0  0  0  0  0  0
   27.1386  -20.2720  -11.9715 C   0  0  1  0  0  0  0  0  0  0  0  0
   26.2226  -19.8113  -13.0465 C   0  0  0  0  0  0  0  0  0  0  0  0
   26.8276  -18.7203  -13.8561 C   0  0  0  0  0  0  0  0  0  0  0  0
   26.0412  -18.3305  -15.0657 C   0  0  0  0  0  0  0  0  0  0  0  0
   26.6812  -17.1416  -15.7866 C   0  0  0  0  0  0  0  0  0  0  0  0
   25.9876  -16.8789  -17.0335 N   0  0  0  0  0  0  0  0  0  0  0  0
   26.4300  -21.0566  -10.8895 C   0  0  0  0  0  0  0  0  0  0  0  0
   26.7417  -22.2520  -10.6732 O   0  0  0  0  0  0  0  0  0  0  0  0
   25.4188  -20.4976  -10.0989 N   0  0  0  0  0  0  0  0  0  0  0  0
   24.8967  -21.1323   -8.8780 C   0  0  1  0  0  0  0  0  0  0  0  0
   25.9990  -21.4435   -7.9358 C   0  0  0  0  0  0  0  0  0  0  0  0
   26.5476  -20.2922   -7.2069 C   0  0  0  0  0  0  0  0  0  0  0  0
   26.4750  -18.9392   -7.5756 C   0  0  0  0  0  0  0  0  0  0  0  0
   27.1183  -18.1767   -6.6794 N   0  0  0  0  0  0  0  0  0  0  0  0
   27.6233  -18.9696   -5.7160 C   0  0  0  0  0  0  0  0  0  0  0  0
   28.3508  -18.6498   -4.5704 C   0  0  0  0  0  0  0  0  0  0  0  0
   28.7141  -19.6984   -3.7544 C   0  0  0  0  0  0  0  0  0  0  0  0
   28.3856  -21.0037   -4.0378 C   0  0  0  0  0  0  0  0  0  0  0  0
   27.6711  -21.2919   -5.1697 C   0  0  0  0  0  0  0  0  0  0  0  0
   27.2835  -20.2743   -6.0208 C   0  0  0  0  0  0  0  0  0  0  0  0
   23.7485  -20.4105   -8.3412 C   0  0  0  0  0  0  0  0  0  0  0  0
   23.3073  -19.2809   -9.0592 O   0  0  0  0  0  0  0  0  0  0  0  0
   23.1144  -20.6904   -7.3093 O   0  0  0  0  0  0  0  0  0  0  0  0
  1  5  1  0
  2  3  1  0
  2  1  1  0
  3  4  1  0
  5  4  1  0
  6  7  2  0
  5  6  1  6
  8  6  1  0
  9  8  1  0
  9 10  1  6
 11 12  1  0
 11 10  1  0
 13 12  1  0
 14 13  1  0
 15  9  1  0
 15 17  1  0
 16 15  2  0
 18 17  1  0
 18 29  1  0
 18 19  1  1
 19 20  1  0
 20 28  1  0
 21 20  2  0
 21 22  1  0
 22 23  1  0
 23 24  1  0
 24 25  2  0
 26 25  1  0
 27 26  2  0
 28 23  2  0
 28 27  1  0
 29 30  1  0
 31 29  2  0
M  END
$$$$
