QQC.pdb
     RDKit          3D

 25 24  0  0  1  0  0  0  0  0999 V2000
   22.3706  -20.3947  -11.9901 N   0  0  0  0  0  0  0  0  0  0  0  0
   22.5536  -20.8332  -10.6573 C   0  0  0  0  0  0  0  0  0  0  0  0
   21.6033  -21.1643   -9.9389 O   0  0  0  0  0  0  0  0  0  0  0  0
   23.9617  -20.8865  -10.1289 C   0  0  0  0  0  0  0  0  0  0  0  0
   24.8680  -20.3361  -11.1835 C   0  0  0  0  0  0  0  0  0  0  0  0
   25.1374  -21.2535  -12.3255 C   0  0  2  0  0  0  0  0  0  0  0  0
   26.2312  -22.1379  -11.8469 N   0  0  0  0  0  0  0  0  0  0  0  0
   25.6200  -20.6323  -13.5605 C   0  0  0  0  0  0  0  0  0  0  0  0
   26.8809  -20.4900  -13.7488 O   0  0  0  0  0  0  0  0  0  0  0  0
   24.8423  -19.6835  -19.5439 N   0  0  0  0  0  0  0  0  0  0  0  0
   23.6045  -19.8274  -18.8719 C   0  0  0  0  0  0  0  0  0  0  0  0
   22.5496  -19.6280  -19.5075 O   0  0  0  0  0  0  0  0  0  0  0  0
   23.5596  -20.2011  -17.4552 C   0  0  0  0  0  0  0  0  0  0  0  0
   24.9030  -20.5423  -16.9470 C   0  0  0  0  0  0  0  0  0  0  0  0
   25.4287  -19.5980  -15.8489 C   0  0  2  0  0  0  0  0  0  0  0  0
   24.8377  -20.1443  -14.6362 N   0  0  0  0  0  0  0  0  0  0  0  0
   25.0757  -18.2121  -16.1385 C   0  0  0  0  0  0  0  0  0  0  0  0
   24.0734  -17.6774  -15.5912 O   0  0  0  0  0  0  0  0  0  0  0  0
   25.8070  -17.3827  -17.0272 N   0  0  0  0  0  0  0  0  0  0  0  0
   25.8344  -15.9268  -16.8607 C   0  0  1  0  0  0  0  0  0  0  0  0
   26.5037  -15.6356  -15.5272 C   0  0  0  0  0  0  0  0  0  0  0  0
   26.7232  -13.8458  -15.4144 S   0  0  0  0  0  0  0  0  0  0  0  0
   26.5443  -15.2743  -17.9723 C   0  0  0  0  0  0  0  0  0  0  0  0
   26.1332  -14.1905  -18.4472 O   0  0  0  0  0  0  0  0  0  0  0  0
   27.6800  -15.8391  -18.5195 O   0  0  0  0  0  0  0  0  0  0  0  0
  1  2  1  0
  2  4  1  0
  3  2  2  0
  4  5  1  0
  6  5  1  0
  6  8  1  0
  6  7  1  1
  8  9  2  0
 10 11  1  0
 11 12  2  0
 11 13  1  0
 13 14  1  0
 15 14  1  6
 15 17  1  0
 16 15  1  0
 16  8  1  0
 17 19  1  0
 17 18  2  0
 19 20  1  0
 20 23  1  0
 20 21  1  1
 22 21  1  0
 23 24  2  0
 23 25  1  0
M  END
$$$$
