QQC.pdb
     RDKit          3D

 25 24  0  0  1  0  0  0  0  0999 V2000
   26.3639  -22.6219  -15.7310 N   0  0  0  0  0  0  0  0  0  0  0  0
   27.7675  -22.5402  -15.8900 C   0  0  0  0  0  0  0  0  0  0  0  0
   28.4444  -23.5089  -16.2537 O   0  0  0  0  0  0  0  0  0  0  0  0
   28.4255  -21.2183  -15.5992 C   0  0  0  0  0  0  0  0  0  0  0  0
   27.3693  -20.2781  -15.1121 C   0  0  0  0  0  0  0  0  0  0  0  0
   26.4802  -19.7247  -16.1710 C   0  0  2  0  0  0  0  0  0  0  0  0
   27.2869  -18.6590  -16.8198 N   0  0  0  0  0  0  0  0  0  0  0  0
   25.2437  -19.0862  -15.7155 C   0  0  0  0  0  0  0  0  0  0  0  0
   25.2968  -18.1582  -14.8314 O   0  0  0  0  0  0  0  0  0  0  0  0
   19.9525  -18.4386  -18.7093 N   0  0  0  0  0  0  0  0  0  0  0  0
   19.5535  -17.9630  -17.4369 C   0  0  0  0  0  0  0  0  0  0  0  0
   18.4229  -17.4497  -17.3152 O   0  0  0  0  0  0  0  0  0  0  0  0
   20.4506  -18.0677  -16.2824 C   0  0  0  0  0  0  0  0  0  0  0  0
   21.7566  -18.6387  -16.6671 C   0  0  0  0  0  0  0  0  0  0  0  0
   22.7505  -18.8007  -15.5011 C   0  0  2  0  0  0  0  0  0  0  0  0
   23.9243  -19.3689  -16.1475 N   0  0  0  0  0  0  0  0  0  0  0  0
   22.1770  -19.6150  -14.4348 C   0  0  0  0  0  0  0  0  0  0  0  0
   22.1232  -20.8701  -14.5440 O   0  0  0  0  0  0  0  0  0  0  0  0
   21.6531  -19.0792  -13.2302 N   0  0  0  0  0  0  0  0  0  0  0  0
   21.1413  -19.9509  -12.1688 C   0  0  1  0  0  0  0  0  0  0  0  0
   21.3512  -19.2279  -10.8481 C   0  0  0  0  0  0  0  0  0  0  0  0
   20.6103  -20.2468   -9.5529 S   0  0  0  0  0  0  0  0  0  0  0  0
   19.7229  -20.2786  -12.3828 C   0  0  0  0  0  0  0  0  0  0  0  0
   18.9437  -19.4456  -12.9007 O   0  0  0  0  0  0  0  0  0  0  0  0
   19.2151  -21.5106  -12.0189 O   0  0  0  0  0  0  0  0  0  0  0  0
  1  2  1  0
  2  4  1  0
  3  2  2  0
  4  5  1  0
  6  5  1  0
  6  8  1  0
  6  7  1  1
  8  9  2  0
 10 11  1  0
 11 12  2  0
 11 13  1  0
 13 14  1  0
 15 14  1  6
 15 17  1  0
 16 15  1  0
 16  8  1  0
 17 19  1  0
 17 18  2  0
 19 20  1  0
 20 23  1  0
 20 21  1  1
 22 21  1  0
 23 24  2  0
 23 25  1  0
M  END
$$$$
