QQC.pdb
     RDKit          3D

 25 24  0  0  1  0  0  0  0  0999 V2000
   28.7194  -18.4977  -18.0988 N   0  0  0  0  0  0  0  0  0  0  0  0
   28.1281  -18.4664  -19.3839 C   0  0  0  0  0  0  0  0  0  0  0  0
   28.8028  -18.5212  -20.4186 O   0  0  0  0  0  0  0  0  0  0  0  0
   26.6285  -18.3629  -19.4581 C   0  0  0  0  0  0  0  0  0  0  0  0
   26.0973  -18.3959  -18.0604 C   0  0  0  0  0  0  0  0  0  0  0  0
   24.6377  -18.1278  -17.9337 C   0  0  2  0  0  0  0  0  0  0  0  0
   24.4781  -16.7115  -18.3535 N   0  0  0  0  0  0  0  0  0  0  0  0
   24.0719  -18.2248  -16.5867 C   0  0  0  0  0  0  0  0  0  0  0  0
   24.1448  -17.2192  -15.7936 O   0  0  0  0  0  0  0  0  0  0  0  0
   19.2626  -21.4041  -14.7118 N   0  0  0  0  0  0  0  0  0  0  0  0
   19.7119  -20.9226  -13.4584 C   0  0  0  0  0  0  0  0  0  0  0  0
   18.9909  -21.0961  -12.4551 O   0  0  0  0  0  0  0  0  0  0  0  0
   20.9984  -20.2304  -13.3388 C   0  0  0  0  0  0  0  0  0  0  0  0
   21.6315  -20.0415  -14.6590 C   0  0  0  0  0  0  0  0  0  0  0  0
   23.0231  -19.3822  -14.6109 C   0  0  2  0  0  0  0  0  0  0  0  0
   23.4149  -19.3408  -16.0120 N   0  0  0  0  0  0  0  0  0  0  0  0
   23.9247  -20.1275  -13.7386 C   0  0  0  0  0  0  0  0  0  0  0  0
   24.5390  -21.1420  -14.1669 O   0  0  0  0  0  0  0  0  0  0  0  0
   24.1752  -19.7823  -12.3856 N   0  0  0  0  0  0  0  0  0  0  0  0
   25.0396  -20.6076  -11.5371 C   0  0  1  0  0  0  0  0  0  0  0  0
   25.7981  -19.6683  -10.6134 C   0  0  0  0  0  0  0  0  0  0  0  0
   26.7560  -20.6916   -9.4733 S   0  0  0  0  0  0  0  0  0  0  0  0
   24.2575  -21.5945  -10.7760 C   0  0  0  0  0  0  0  0  0  0  0  0
   23.0591  -21.3755  -10.4845 O   0  0  0  0  0  0  0  0  0  0  0  0
   24.8235  -22.7855  -10.3643 O   0  0  0  0  0  0  0  0  0  0  0  0
  1  2  1  0
  2  4  1  0
  3  2  2  0
  4  5  1  0
  6  5  1  0
  6  8  1  0
  6  7  1  1
  8  9  2  0
 10 11  1  0
 11 12  2  0
 11 13  1  0
 13 14  1  0
 15 14  1  6
 15 17  1  0
 16 15  1  0
 16  8  1  0
 17 19  1  0
 17 18  2  0
 19 20  1  0
 20 23  1  0
 20 21  1  1
 22 21  1  0
 23 24  2  0
 23 25  1  0
M  END
$$$$
