QQC.pdb
     RDKit          3D

 25 24  0  0  1  0  0  0  0  0999 V2000
   18.6224  -20.7694  -13.8591 N   0  0  0  0  0  0  0  0  0  0  0  0
   17.7423  -19.7296  -14.2417 C   0  0  0  0  0  0  0  0  0  0  0  0
   16.5218  -19.9039  -14.3356 O   0  0  0  0  0  0  0  0  0  0  0  0
   18.3434  -18.3818  -14.5365 C   0  0  0  0  0  0  0  0  0  0  0  0
   19.8089  -18.4608  -14.2489 C   0  0  0  0  0  0  0  0  0  0  0  0
   20.6913  -18.3978  -15.4471 C   0  0  2  0  0  0  0  0  0  0  0  0
   20.4493  -19.6789  -16.1597 N   0  0  0  0  0  0  0  0  0  0  0  0
   22.1318  -18.3332  -15.1928 C   0  0  0  0  0  0  0  0  0  0  0  0
   22.6114  -17.3657  -14.5002 O   0  0  0  0  0  0  0  0  0  0  0  0
   26.2260  -22.9164  -15.9745 N   0  0  0  0  0  0  0  0  0  0  0  0
   27.1231  -21.8371  -15.7880 C   0  0  0  0  0  0  0  0  0  0  0  0
   28.3492  -22.0677  -15.7933 O   0  0  0  0  0  0  0  0  0  0  0  0
   26.6239  -20.4733  -15.5894 C   0  0  0  0  0  0  0  0  0  0  0  0
   25.1525  -20.4190  -15.6964 C   0  0  0  0  0  0  0  0  0  0  0  0
   24.5415  -19.0368  -15.3966 C   0  0  2  0  0  0  0  0  0  0  0  0
   23.1206  -19.2489  -15.6298 N   0  0  0  0  0  0  0  0  0  0  0  0
   25.1562  -18.0032  -16.2231 C   0  0  0  0  0  0  0  0  0  0  0  0
   24.8383  -17.8789  -17.4370 O   0  0  0  0  0  0  0  0  0  0  0  0
   26.1263  -17.0857  -15.7441 N   0  0  0  0  0  0  0  0  0  0  0  0
   26.7925  -16.1422  -16.6465 C   0  0  1  0  0  0  0  0  0  0  0  0
   27.3524  -15.0164  -15.7922 C   0  0  0  0  0  0  0  0  0  0  0  0
   25.9495  -14.1685  -15.0321 S   0  0  0  0  0  0  0  0  0  0  0  0
   27.8512  -16.8036  -17.4254 C   0  0  0  0  0  0  0  0  0  0  0  0
   28.1895  -17.9833  -17.1747 O   0  0  0  0  0  0  0  0  0  0  0  0
   28.4980  -16.1418  -18.4511 O   0  0  0  0  0  0  0  0  0  0  0  0
  1  2  1  0
  2  4  1  0
  3  2  2  0
  4  5  1  0
  6  5  1  0
  6  8  1  0
  6  7  1  6
  8  9  2  0
 10 11  1  0
 11 12  2  0
 11 13  1  0
 13 14  1  0
 15 14  1  6
 15 17  1  0
 16 15  1  0
 16  8  1  0
 17 19  1  0
 17 18  2  0
 19 20  1  0
 20 23  1  0
 20 21  1  1
 22 21  1  0
 23 24  2  0
 23 25  1  0
M  END
$$$$
