QQC.pdb
     RDKit          3D

 25 24  0  0  1  0  0  0  0  0999 V2000
   29.8358  -20.8325  -17.9049 N   0  0  0  0  0  0  0  0  0  0  0  0
   29.4225  -21.5693  -19.0400 C   0  0  0  0  0  0  0  0  0  0  0  0
   30.1908  -21.8192  -19.9760 O   0  0  0  0  0  0  0  0  0  0  0  0
   27.9966  -22.0491  -19.0773 C   0  0  0  0  0  0  0  0  0  0  0  0
   27.2988  -21.5063  -17.8710 C   0  0  0  0  0  0  0  0  0  0  0  0
   27.6793  -22.1459  -16.5809 C   0  0  2  0  0  0  0  0  0  0  0  0
   27.7997  -23.5921  -16.8997 N   0  0  0  0  0  0  0  0  0  0  0  0
   26.7067  -22.0436  -15.4911 C   0  0  0  0  0  0  0  0  0  0  0  0
   25.6974  -22.8349  -15.4647 O   0  0  0  0  0  0  0  0  0  0  0  0
   25.9567  -22.2509  -10.5372 N   0  0  0  0  0  0  0  0  0  0  0  0
   25.1765  -21.0883  -10.3271 C   0  0  0  0  0  0  0  0  0  0  0  0
   24.3473  -21.0820   -9.3950 O   0  0  0  0  0  0  0  0  0  0  0  0
   25.3357  -19.9130  -11.1886 C   0  0  0  0  0  0  0  0  0  0  0  0
   26.2552  -20.1896  -12.3099 C   0  0  0  0  0  0  0  0  0  0  0  0
   25.6424  -21.0328  -13.4445 C   0  0  2  0  0  0  0  0  0  0  0  0
   26.7353  -21.1407  -14.3997 N   0  0  0  0  0  0  0  0  0  0  0  0
   24.4286  -20.4096  -13.9617 C   0  0  0  0  0  0  0  0  0  0  0  0
   24.4963  -19.4032  -14.7184 O   0  0  0  0  0  0  0  0  0  0  0  0
   23.1198  -20.8705  -13.6664 N   0  0  0  0  0  0  0  0  0  0  0  0
   21.9494  -20.3422  -14.3731 C   0  0  1  0  0  0  0  0  0  0  0  0
   22.0418  -20.8109  -15.8162 C   0  0  0  0  0  0  0  0  0  0  0  0
   21.3476  -19.5035  -16.8523 S   0  0  0  0  0  0  0  0  0  0  0  0
   20.6971  -20.7880  -13.7422 C   0  0  0  0  0  0  0  0  0  0  0  0
   20.7079  -21.6574  -12.8404 O   0  0  0  0  0  0  0  0  0  0  0  0
   19.4800  -20.2604  -14.1273 O   0  0  0  0  0  0  0  0  0  0  0  0
  1  2  1  0
  2  4  1  0
  3  2  2  0
  4  5  1  0
  6  5  1  0
  6  8  1  0
  6  7  1  6
  8  9  2  0
 10 11  1  0
 11 12  2  0
 11 13  1  0
 13 14  1  0
 15 14  1  1
 15 17  1  0
 16 15  1  0
 16  8  1  0
 17 19  1  0
 17 18  2  0
 19 20  1  0
 20 23  1  0
 20 21  1  6
 22 21  1  0
 23 24  2  0
 23 25  1  0
M  END
$$$$
