QQC.pdb
     RDKit          3D

 25 24  0  0  1  0  0  0  0  0999 V2000
   27.4629  -22.8756  -16.3525 N   0  0  0  0  0  0  0  0  0  0  0  0
   27.9450  -22.3144  -15.1464 C   0  0  0  0  0  0  0  0  0  0  0  0
   29.0883  -22.5348  -14.7306 O   0  0  0  0  0  0  0  0  0  0  0  0
   27.0111  -21.4259  -14.3697 C   0  0  0  0  0  0  0  0  0  0  0  0
   25.6883  -21.4301  -15.0675 C   0  0  0  0  0  0  0  0  0  0  0  0
   24.6235  -20.6258  -14.4061 C   0  0  2  0  0  0  0  0  0  0  0  0
   24.4670  -21.2418  -13.0631 N   0  0  0  0  0  0  0  0  0  0  0  0
   23.2997  -20.6578  -15.0311 C   0  0  0  0  0  0  0  0  0  0  0  0
   23.1995  -20.6040  -16.3088 O   0  0  0  0  0  0  0  0  0  0  0  0
   18.2189  -23.3081  -12.8557 N   0  0  0  0  0  0  0  0  0  0  0  0
   19.2635  -22.6562  -12.1569 C   0  0  0  0  0  0  0  0  0  0  0  0
   19.3557  -22.8219  -10.9238 O   0  0  0  0  0  0  0  0  0  0  0  0
   20.2190  -21.7997  -12.8655 C   0  0  0  0  0  0  0  0  0  0  0  0
   19.9244  -21.7479  -14.3112 C   0  0  0  0  0  0  0  0  0  0  0  0
   20.7836  -20.7427  -15.1019 C   0  0  2  0  0  0  0  0  0  0  0  0
   22.0460  -20.7496  -14.3776 N   0  0  0  0  0  0  0  0  0  0  0  0
   20.1249  -19.4433  -15.1838 C   0  0  0  0  0  0  0  0  0  0  0  0
   19.5915  -18.9287  -14.1636 O   0  0  0  0  0  0  0  0  0  0  0  0
   20.0357  -18.6797  -16.3761 N   0  0  0  0  0  0  0  0  0  0  0  0
   19.3283  -17.3964  -16.4069 C   0  0  1  0  0  0  0  0  0  0  0  0
   19.7477  -16.6781  -17.6793 C   0  0  0  0  0  0  0  0  0  0  0  0
   21.3287  -15.8700  -17.3452 S   0  0  0  0  0  0  0  0  0  0  0  0
   17.8703  -17.5877  -16.3531 C   0  0  0  0  0  0  0  0  0  0  0  0
   17.3424  -18.6243  -16.8176 O   0  0  0  0  0  0  0  0  0  0  0  0
   17.0481  -16.6310  -15.7902 O   0  0  0  0  0  0  0  0  0  0  0  0
  1  2  1  0
  2  4  1  0
  3  2  2  0
  4  5  1  0
  6  5  1  0
  6  8  1  0
  6  7  1  1
  8  9  2  0
 10 11  1  0
 11 12  2  0
 11 13  1  0
 13 14  1  0
 15 14  1  1
 15 17  1  0
 16 15  1  0
 16  8  1  0
 17 19  1  0
 17 18  2  0
 19 20  1  0
 20 23  1  0
 20 21  1  6
 22 21  1  0
 23 24  2  0
 23 25  1  0
M  END
$$$$
