PQE.pdb
     RDKit          3D

 26 26  0  0  1  0  0  0  0  0999 V2000
    7.3643  -19.3050   21.1762 N   0  0  0  0  0  0  0  0  0  0  0  0
    6.4528  -20.4341   20.9336 C   0  0  0  0  0  0  0  0  0  0  0  0
    6.5186  -20.5215   19.4185 C   0  0  0  0  0  0  0  0  0  0  0  0
    8.0041  -20.2943   19.1679 C   0  0  0  0  0  0  0  0  0  0  0  0
    8.5368  -19.7283   20.4492 C   0  0  1  0  0  0  0  0  0  0  0  0
    9.4428  -18.5882   20.1460 C   0  0  0  0  0  0  0  0  0  0  0  0
   10.5977  -18.8234   19.7142 O   0  0  0  0  0  0  0  0  0  0  0  0
    8.4471  -11.8046   18.8200 N   0  0  0  0  0  0  0  0  0  0  0  0
    8.9182  -12.9420   18.1289 C   0  0  0  0  0  0  0  0  0  0  0  0
    8.5242  -13.0801   16.9443 O   0  0  0  0  0  0  0  0  0  0  0  0
    9.8293  -13.9454   18.7301 C   0  0  0  0  0  0  0  0  0  0  0  0
    9.1500  -15.1097   19.3262 C   0  0  0  0  0  0  0  0  0  0  0  0
    9.9723  -16.1750   19.9518 C   0  0  2  0  0  0  0  0  0  0  0  0
    9.0649  -17.2373   20.3216 N   0  0  0  0  0  0  0  0  0  0  0  0
   10.7572  -15.7922   21.1123 C   0  0  0  0  0  0  0  0  0  0  0  0
   10.3335  -15.1503   22.1084 O   0  0  0  0  0  0  0  0  0  0  0  0
   12.1275  -16.1591   21.1593 N   0  0  0  0  0  0  0  0  0  0  0  0
   13.0007  -15.7633   22.2447 C   0  0  1  0  0  0  0  0  0  0  0  0
   13.5004  -17.0420   22.8978 C   0  0  0  0  0  0  0  0  0  0  0  0
   12.3470  -17.5880   23.7384 C   0  0  0  0  0  0  0  0  0  0  0  0
   12.7620  -18.8509   24.3993 C   0  0  0  0  0  0  0  0  0  0  0  0
   12.3227  -19.1192   25.5465 O   0  0  0  0  0  0  0  0  0  0  0  0
   14.1825  -15.0337   21.6631 C   0  0  0  0  0  0  0  0  0  0  0  0
   15.0716  -14.3354   22.4712 O   0  0  0  0  0  0  0  0  0  0  0  0
   13.6218  -19.7196   23.7577 O   0  0  0  0  0  0  0  0  0  0  0  0
   14.4014  -15.0335   20.4293 O   0  0  0  0  0  0  0  0  0  0  0  0
  1  2  1  0
  3  2  1  0
  4  5  1  0
  4  3  1  0
  5  1  1  0
  6 14  1  0
  5  6  1  6
  7  6  2  0
  8  9  1  0
  9 10  2  0
 11 12  1  0
 11  9  1  0
 13 14  1  0
 13 12  1  1
 15 13  1  0
 16 15  2  0
 17 15  1  0
 18 17  1  0
 18 19  1  6
 20 19  1  0
 20 21  1  0
 21 25  1  0
 21 22  2  0
 23 18  1  0
 23 24  1  0
 26 23  2  0
M  END
$$$$
