PQE.pdb
     RDKit          3D

 26 26  0  0  1  0  0  0  0  0999 V2000
    9.1190  -12.8899   18.9983 N   0  0  0  0  0  0  0  0  0  0  0  0
    7.9030  -12.2448   18.4786 C   0  0  0  0  0  0  0  0  0  0  0  0
    6.9926  -13.4517   18.3293 C   0  0  0  0  0  0  0  0  0  0  0  0
    7.3117  -14.2288   19.6003 C   0  0  0  0  0  0  0  0  0  0  0  0
    8.5879  -13.6346   20.1143 C   0  0  1  0  0  0  0  0  0  0  0  0
    9.5046  -14.7263   20.5391 C   0  0  0  0  0  0  0  0  0  0  0  0
    9.0938  -15.5862   21.3560 O   0  0  0  0  0  0  0  0  0  0  0  0
   13.8171  -15.7483   16.7564 N   0  0  0  0  0  0  0  0  0  0  0  0
   14.0672  -14.8302   17.7994 C   0  0  0  0  0  0  0  0  0  0  0  0
   14.6634  -13.7712   17.4818 O   0  0  0  0  0  0  0  0  0  0  0  0
   13.6662  -15.0627   19.2077 C   0  0  0  0  0  0  0  0  0  0  0  0
   12.6755  -16.1384   19.3925 C   0  0  0  0  0  0  0  0  0  0  0  0
   11.6383  -15.9831   20.4425 C   0  0  2  0  0  0  0  0  0  0  0  0
   10.8307  -14.8460   20.0639 N   0  0  0  0  0  0  0  0  0  0  0  0
   12.1135  -15.7994   21.8026 C   0  0  0  0  0  0  0  0  0  0  0  0
   12.3277  -14.6939   22.3645 O   0  0  0  0  0  0  0  0  0  0  0  0
   12.3689  -16.9481   22.5961 N   0  0  0  0  0  0  0  0  0  0  0  0
   12.8621  -16.8594   23.9548 C   0  0  1  0  0  0  0  0  0  0  0  0
   12.3977  -18.1148   24.6756 C   0  0  0  0  0  0  0  0  0  0  0  0
   12.9916  -18.0609   26.0826 C   0  0  0  0  0  0  0  0  0  0  0  0
   12.5830  -19.2670   26.8460 C   0  0  0  0  0  0  0  0  0  0  0  0
   11.8409  -20.1210   26.2976 O   0  0  0  0  0  0  0  0  0  0  0  0
   14.3674  -16.8630   23.9162 C   0  0  0  0  0  0  0  0  0  0  0  0
   15.1194  -16.3090   24.9451 O   0  0  0  0  0  0  0  0  0  0  0  0
   13.0156  -19.4455   28.1446 O   0  0  0  0  0  0  0  0  0  0  0  0
   14.9901  -17.3671   22.9527 O   0  0  0  0  0  0  0  0  0  0  0  0
  1  2  1  0
  3  2  1  0
  4  5  1  0
  4  3  1  0
  5  1  1  0
  6 14  1  0
  5  6  1  6
  7  6  2  0
  8  9  1  0
  9 10  2  0
 11 12  1  0
 11  9  1  0
 13 14  1  0
 13 12  1  6
 15 13  1  0
 16 15  2  0
 17 15  1  0
 18 17  1  0
 18 19  1  1
 20 19  1  0
 20 21  1  0
 21 25  1  0
 21 22  2  0
 23 18  1  0
 23 24  1  0
 26 23  2  0
M  END
$$$$
