PQE.pdb
     RDKit          3D

 26 26  0  0  1  0  0  0  0  0999 V2000
    7.1095  -14.8389   19.9881 N   0  0  0  0  0  0  0  0  0  0  0  0
    6.7541  -14.3293   18.6544 C   0  0  0  0  0  0  0  0  0  0  0  0
    7.1013  -12.8596   18.8189 C   0  0  0  0  0  0  0  0  0  0  0  0
    8.4060  -12.9440   19.6011 C   0  0  0  0  0  0  0  0  0  0  0  0
    8.4585  -14.3461   20.1278 C   0  0  1  0  0  0  0  0  0  0  0  0
    8.8961  -14.3232   21.5492 C   0  0  0  0  0  0  0  0  0  0  0  0
   10.1142  -14.1713   21.8114 O   0  0  0  0  0  0  0  0  0  0  0  0
    5.5120  -12.2131   26.2969 N   0  0  0  0  0  0  0  0  0  0  0  0
    6.6916  -12.6757   26.9195 C   0  0  0  0  0  0  0  0  0  0  0  0
    6.8662  -12.3300   28.1144 O   0  0  0  0  0  0  0  0  0  0  0  0
    7.6976  -13.5249   26.2377 C   0  0  0  0  0  0  0  0  0  0  0  0
    7.4732  -13.6982   24.7913 C   0  0  0  0  0  0  0  0  0  0  0  0
    8.4896  -14.4263   23.9917 C   0  0  2  0  0  0  0  0  0  0  0  0
    7.9993  -14.4654   22.6328 N   0  0  0  0  0  0  0  0  0  0  0  0
    8.8099  -15.7758   24.4225 C   0  0  0  0  0  0  0  0  0  0  0  0
    8.0660  -16.7835   24.3007 O   0  0  0  0  0  0  0  0  0  0  0  0
   10.0657  -16.0141   25.0395 N   0  0  0  0  0  0  0  0  0  0  0  0
   10.5423  -17.3479   25.3410 C   0  0  1  0  0  0  0  0  0  0  0  0
   11.9816  -17.4222   24.8571 C   0  0  0  0  0  0  0  0  0  0  0  0
   12.5158  -18.7931   25.2699 C   0  0  0  0  0  0  0  0  0  0  0  0
   13.8876  -18.9792   24.7336 C   0  0  0  0  0  0  0  0  0  0  0  0
   14.5649  -19.9713   25.1049 O   0  0  0  0  0  0  0  0  0  0  0  0
   10.5336  -17.5302   26.8356 C   0  0  0  0  0  0  0  0  0  0  0  0
   10.3345  -16.4564   27.6949 O   0  0  0  0  0  0  0  0  0  0  0  0
   14.4109  -18.0700   23.8364 O   0  0  0  0  0  0  0  0  0  0  0  0
   10.7061  -18.6587   27.3522 O   0  0  0  0  0  0  0  0  0  0  0  0
  1  2  1  0
  3  2  1  0
  4  5  1  0
  4  3  1  0
  5  1  1  0
  6 14  1  0
  5  6  1  1
  7  6  2  0
  8  9  1  0
  9 10  2  0
 11 12  1  0
 11  9  1  0
 13 14  1  0
 13 12  1  1
 15 13  1  0
 16 15  2  0
 17 15  1  0
 18 17  1  0
 18 19  1  1
 20 19  1  0
 20 21  1  0
 21 25  1  0
 21 22  2  0
 23 18  1  0
 23 24  1  0
 26 23  2  0
M  END
$$$$
