PQE.pdb
     RDKit          3D

 26 26  0  0  1  0  0  0  0  0999 V2000
    6.9594  -14.8174   19.7415 N   0  0  0  0  0  0  0  0  0  0  0  0
    6.5100  -14.3379   18.4252 C   0  0  0  0  0  0  0  0  0  0  0  0
    6.8596  -12.8636   18.5342 C   0  0  0  0  0  0  0  0  0  0  0  0
    8.2156  -12.9260   19.2259 C   0  0  0  0  0  0  0  0  0  0  0  0
    8.3121  -14.3163   19.7771 C   0  0  1  0  0  0  0  0  0  0  0  0
    8.8467  -14.2612   21.1641 C   0  0  0  0  0  0  0  0  0  0  0  0
   10.0613  -13.9985   21.3410 O   0  0  0  0  0  0  0  0  0  0  0  0
    5.3398  -13.4815   26.5203 N   0  0  0  0  0  0  0  0  0  0  0  0
    6.6823  -13.0925   26.7193 C   0  0  0  0  0  0  0  0  0  0  0  0
    6.8896  -12.2336   27.6121 O   0  0  0  0  0  0  0  0  0  0  0  0
    7.8173  -13.6415   25.9392 C   0  0  0  0  0  0  0  0  0  0  0  0
    7.5255  -13.8715   24.5129 C   0  0  0  0  0  0  0  0  0  0  0  0
    8.6138  -14.3590   23.6295 C   0  0  2  0  0  0  0  0  0  0  0  0
    8.0469  -14.4923   22.3067 N   0  0  0  0  0  0  0  0  0  0  0  0
    9.2446  -15.6116   24.0068 C   0  0  0  0  0  0  0  0  0  0  0  0
    8.7278  -16.7549   23.9089 O   0  0  0  0  0  0  0  0  0  0  0  0
   10.5609  -15.5791   24.5366 N   0  0  0  0  0  0  0  0  0  0  0  0
   11.3280  -16.7820   24.7850 C   0  0  1  0  0  0  0  0  0  0  0  0
   12.7944  -16.4086   24.6374 C   0  0  0  0  0  0  0  0  0  0  0  0
   13.6025  -17.6748   24.9183 C   0  0  0  0  0  0  0  0  0  0  0  0
   15.0533  -17.3769   24.8156 C   0  0  0  0  0  0  0  0  0  0  0  0
   15.4979  -16.8312   23.7737 O   0  0  0  0  0  0  0  0  0  0  0  0
   11.0887  -17.2142   26.2074 C   0  0  0  0  0  0  0  0  0  0  0  0
   11.2494  -18.5379   26.5988 O   0  0  0  0  0  0  0  0  0  0  0  0
   15.9026  -17.6973   25.8556 O   0  0  0  0  0  0  0  0  0  0  0  0
   10.7362  -16.3915   27.0845 O   0  0  0  0  0  0  0  0  0  0  0  0
  1  2  1  0
  3  2  1  0
  4  5  1  0
  4  3  1  0
  5  1  1  0
  6 14  1  0
  5  6  1  1
  7  6  2  0
  8  9  1  0
  9 10  2  0
 11 12  1  0
 11  9  1  0
 13 14  1  0
 13 12  1  1
 15 13  1  0
 16 15  2  0
 17 15  1  0
 18 17  1  0
 18 19  1  1
 20 19  1  0
 20 21  1  0
 21 25  1  0
 21 22  2  0
 23 18  1  0
 23 24  1  0
 26 23  2  0
M  END
$$$$
