PQE.pdb
     RDKit          3D

 26 26  0  0  1  0  0  0  0  0999 V2000
    7.2390  -15.0436   20.0705 N   0  0  0  0  0  0  0  0  0  0  0  0
    6.8361  -14.5973   18.7276 C   0  0  0  0  0  0  0  0  0  0  0  0
    7.0478  -13.0988   18.8597 C   0  0  0  0  0  0  0  0  0  0  0  0
    8.3561  -13.0469   19.6386 C   0  0  0  0  0  0  0  0  0  0  0  0
    8.5375  -14.4267   20.1947 C   0  0  1  0  0  0  0  0  0  0  0  0
    8.9737  -14.3334   21.6137 C   0  0  0  0  0  0  0  0  0  0  0  0
   10.1526  -13.9862   21.8692 O   0  0  0  0  0  0  0  0  0  0  0  0
    5.3536  -12.3648   26.1500 N   0  0  0  0  0  0  0  0  0  0  0  0
    6.5847  -12.5892   26.8037 C   0  0  0  0  0  0  0  0  0  0  0  0
    6.6784  -12.1640   27.9819 O   0  0  0  0  0  0  0  0  0  0  0  0
    7.7318  -13.2841   26.1717 C   0  0  0  0  0  0  0  0  0  0  0  0
    7.5185  -13.6610   24.7628 C   0  0  0  0  0  0  0  0  0  0  0  0
    8.5778  -14.4252   24.0584 C   0  0  2  0  0  0  0  0  0  0  0  0
    8.1180  -14.6193   22.7020 N   0  0  0  0  0  0  0  0  0  0  0  0
    8.9389  -15.7113   24.6284 C   0  0  0  0  0  0  0  0  0  0  0  0
    8.1966  -16.7259   24.6851 O   0  0  0  0  0  0  0  0  0  0  0  0
   10.2371  -15.8721   25.1792 N   0  0  0  0  0  0  0  0  0  0  0  0
   10.7073  -17.1377   25.7029 C   0  0  1  0  0  0  0  0  0  0  0  0
   12.2244  -17.1190   25.6061 C   0  0  0  0  0  0  0  0  0  0  0  0
   12.5713  -17.0890   24.1182 C   0  0  0  0  0  0  0  0  0  0  0  0
   14.0449  -17.0293   23.9479 C   0  0  0  0  0  0  0  0  0  0  0  0
   14.6007  -17.7938   23.1187 O   0  0  0  0  0  0  0  0  0  0  0  0
   10.3249  -17.2231   27.1568 C   0  0  0  0  0  0  0  0  0  0  0  0
    9.6567  -16.1834   27.7920 O   0  0  0  0  0  0  0  0  0  0  0  0
   14.7941  -16.1421   24.6943 O   0  0  0  0  0  0  0  0  0  0  0  0
   10.5982  -18.2370   27.8406 O   0  0  0  0  0  0  0  0  0  0  0  0
  1  2  1  0
  3  2  1  0
  4  5  1  0
  4  3  1  0
  5  1  1  0
  6 14  1  0
  5  6  1  1
  7  6  2  0
  8  9  1  0
  9 10  2  0
 11 12  1  0
 11  9  1  0
 13 14  1  0
 13 12  1  1
 15 13  1  0
 16 15  2  0
 17 15  1  0
 18 17  1  0
 18 19  1  1
 20 19  1  0
 20 21  1  0
 21 25  1  0
 21 22  2  0
 23 18  1  0
 23 24  1  0
 26 23  2  0
M  END
$$$$
