PQE.pdb
     RDKit          3D

 26 26  0  0  1  0  0  0  0  0999 V2000
    9.1035  -13.9602   18.3629 N   0  0  0  0  0  0  0  0  0  0  0  0
    8.3321  -12.9532   17.6176 C   0  0  0  0  0  0  0  0  0  0  0  0
    6.9452  -13.1873   18.1916 C   0  0  0  0  0  0  0  0  0  0  0  0
    7.2609  -13.3917   19.6680 C   0  0  0  0  0  0  0  0  0  0  0  0
    8.7368  -13.6462   19.7228 C   0  0  1  0  0  0  0  0  0  0  0  0
    9.0080  -14.7803   20.6463 C   0  0  0  0  0  0  0  0  0  0  0  0
    8.6040  -14.7125   21.8327 O   0  0  0  0  0  0  0  0  0  0  0  0
   12.1687  -20.3864   20.2532 N   0  0  0  0  0  0  0  0  0  0  0  0
   12.2602  -19.2948   19.3625 C   0  0  0  0  0  0  0  0  0  0  0  0
   13.1869  -19.3396   18.5157 O   0  0  0  0  0  0  0  0  0  0  0  0
   11.3344  -18.1371   19.3894 C   0  0  0  0  0  0  0  0  0  0  0  0
   10.2856  -18.2158   20.4221 C   0  0  0  0  0  0  0  0  0  0  0  0
    9.9608  -16.9984   21.2063 C   0  0  2  0  0  0  0  0  0  0  0  0
    9.7060  -15.9444   20.2510 N   0  0  0  0  0  0  0  0  0  0  0  0
   10.9649  -16.5501   22.1551 C   0  0  0  0  0  0  0  0  0  0  0  0
   11.8429  -15.6747   21.9391 O   0  0  0  0  0  0  0  0  0  0  0  0
   10.9858  -17.1303   23.4502 N   0  0  0  0  0  0  0  0  0  0  0  0
   11.9714  -16.7683   24.4476 C   0  0  1  0  0  0  0  0  0  0  0  0
   11.6289  -17.5453   25.7087 C   0  0  0  0  0  0  0  0  0  0  0  0
   12.5539  -17.0289   26.8099 C   0  0  0  0  0  0  0  0  0  0  0  0
   12.2827  -17.7569   28.0751 C   0  0  0  0  0  0  0  0  0  0  0  0
   12.9763  -18.7642   28.3670 O   0  0  0  0  0  0  0  0  0  0  0  0
   13.3248  -17.2184   23.9651 C   0  0  0  0  0  0  0  0  0  0  0  0
   13.4868  -18.4134   23.2746 O   0  0  0  0  0  0  0  0  0  0  0  0
   11.2783  -17.3292   28.9199 O   0  0  0  0  0  0  0  0  0  0  0  0
   14.3496  -16.5275   24.1717 O   0  0  0  0  0  0  0  0  0  0  0  0
  1  2  1  0
  3  2  1  0
  4  5  1  0
  4  3  1  0
  5  1  1  0
  6 14  1  0
  5  6  1  1
  7  6  2  0
  8  9  1  0
  9 10  2  0
 11 12  1  0
 11  9  1  0
 13 14  1  0
 13 12  1  6
 15 13  1  0
 16 15  2  0
 17 15  1  0
 18 17  1  0
 18 19  1  1
 20 19  1  0
 20 21  1  0
 21 25  1  0
 21 22  2  0
 23 18  1  0
 23 24  1  0
 26 23  2  0
M  END
$$$$
