PQE.pdb
     RDKit          3D

 26 26  0  0  1  0  0  0  0  0999 V2000
    8.2982  -14.8117   19.1817 N   0  0  0  0  0  0  0  0  0  0  0  0
    8.1706  -13.7859   18.1348 C   0  0  0  0  0  0  0  0  0  0  0  0
    7.1442  -12.8659   18.7733 C   0  0  0  0  0  0  0  0  0  0  0  0
    7.6209  -12.8409   20.2201 C   0  0  0  0  0  0  0  0  0  0  0  0
    8.5657  -13.9976   20.3427 C   0  0  1  0  0  0  0  0  0  0  0  0
    8.2891  -14.7287   21.6083 C   0  0  0  0  0  0  0  0  0  0  0  0
    8.4101  -14.1248   22.7020 O   0  0  0  0  0  0  0  0  0  0  0  0
    5.6885  -20.5093   21.8420 N   0  0  0  0  0  0  0  0  0  0  0  0
    5.0999  -19.2953   21.4259 C   0  0  0  0  0  0  0  0  0  0  0  0
    4.0644  -19.3881   20.7210 O   0  0  0  0  0  0  0  0  0  0  0  0
    5.6413  -17.9607   21.7779 C   0  0  0  0  0  0  0  0  0  0  0  0
    6.8829  -17.9936   22.5716 C   0  0  0  0  0  0  0  0  0  0  0  0
    7.5562  -16.7125   22.9002 C   0  0  2  0  0  0  0  0  0  0  0  0
    7.8922  -16.0851   21.6424 N   0  0  0  0  0  0  0  0  0  0  0  0
    8.7490  -16.7984   23.7243 C   0  0  0  0  0  0  0  0  0  0  0  0
    9.9347  -16.8185   23.3032 O   0  0  0  0  0  0  0  0  0  0  0  0
    8.5997  -16.8675   25.1340 N   0  0  0  0  0  0  0  0  0  0  0  0
    9.6872  -16.5779   26.0453 C   0  0  1  0  0  0  0  0  0  0  0  0
    9.2367  -15.4148   26.9146 C   0  0  0  0  0  0  0  0  0  0  0  0
   10.3452  -15.1740   27.9385 C   0  0  0  0  0  0  0  0  0  0  0  0
    9.9221  -14.1229   28.8978 C   0  0  0  0  0  0  0  0  0  0  0  0
   10.7155  -13.7596   29.8031 O   0  0  0  0  0  0  0  0  0  0  0  0
    9.8996  -17.7777   26.9299 C   0  0  0  0  0  0  0  0  0  0  0  0
    8.9031  -18.7291   27.1112 O   0  0  0  0  0  0  0  0  0  0  0  0
    8.6694  -13.5524   28.7939 O   0  0  0  0  0  0  0  0  0  0  0  0
   10.9843  -17.9559   27.5315 O   0  0  0  0  0  0  0  0  0  0  0  0
  1  2  1  0
  3  2  1  0
  4  5  1  0
  4  3  1  0
  5  1  1  0
  6 14  1  0
  5  6  1  1
  7  6  2  0
  8  9  1  0
  9 10  2  0
 11 12  1  0
 11  9  1  0
 13 14  1  0
 13 12  1  6
 15 13  1  0
 16 15  2  0
 17 15  1  0
 18 17  1  0
 18 19  1  1
 20 19  1  0
 20 21  1  0
 21 25  1  0
 21 22  2  0
 23 18  1  0
 23 24  1  0
 26 23  2  0
M  END
$$$$
