PQE.pdb
     RDKit          3D

 26 26  0  0  1  0  0  0  0  0999 V2000
    6.8651  -14.7482   19.8331 N   0  0  0  0  0  0  0  0  0  0  0  0
    6.3722  -14.1963   18.5615 C   0  0  0  0  0  0  0  0  0  0  0  0
    6.7463  -12.7339   18.7317 C   0  0  0  0  0  0  0  0  0  0  0  0
    8.1270  -12.8480   19.3657 C   0  0  0  0  0  0  0  0  0  0  0  0
    8.2251  -14.2659   19.8412 C   0  0  1  0  0  0  0  0  0  0  0  0
    8.8134  -14.2886   21.2072 C   0  0  0  0  0  0  0  0  0  0  0  0
   10.0440  -14.0845   21.3462 O   0  0  0  0  0  0  0  0  0  0  0  0
    5.4231  -13.1765   26.3952 N   0  0  0  0  0  0  0  0  0  0  0  0
    6.7737  -13.0937   26.7981 C   0  0  0  0  0  0  0  0  0  0  0  0
    6.9951  -12.5377   27.9025 O   0  0  0  0  0  0  0  0  0  0  0  0
    7.9015  -13.6204   25.9927 C   0  0  0  0  0  0  0  0  0  0  0  0
    7.5871  -13.8404   24.5695 C   0  0  0  0  0  0  0  0  0  0  0  0
    8.6446  -14.3786   23.6781 C   0  0  2  0  0  0  0  0  0  0  0  0
    8.0479  -14.5313   22.3707 N   0  0  0  0  0  0  0  0  0  0  0  0
    9.2510  -15.6369   24.0759 C   0  0  0  0  0  0  0  0  0  0  0  0
    8.7120  -16.7713   23.9967 O   0  0  0  0  0  0  0  0  0  0  0  0
   10.5678  -15.6214   24.6051 N   0  0  0  0  0  0  0  0  0  0  0  0
   11.3609  -16.8244   24.7498 C   0  0  1  0  0  0  0  0  0  0  0  0
   12.8093  -16.4298   24.5093 C   0  0  0  0  0  0  0  0  0  0  0  0
   13.6549  -17.6761   24.7678 C   0  0  0  0  0  0  0  0  0  0  0  0
   15.0843  -17.3766   24.5008 C   0  0  0  0  0  0  0  0  0  0  0  0
   15.4442  -17.0826   23.3325 O   0  0  0  0  0  0  0  0  0  0  0  0
   11.2308  -17.3128   26.1682 C   0  0  0  0  0  0  0  0  0  0  0  0
   11.6535  -18.5839   26.5380 O   0  0  0  0  0  0  0  0  0  0  0  0
   16.0060  -17.4215   25.5274 O   0  0  0  0  0  0  0  0  0  0  0  0
   10.7359  -16.5863   27.0612 O   0  0  0  0  0  0  0  0  0  0  0  0
  1  2  1  0
  3  2  1  0
  4  5  1  0
  4  3  1  0
  5  1  1  0
  6 14  1  0
  5  6  1  1
  7  6  2  0
  8  9  1  0
  9 10  2  0
 11 12  1  0
 11  9  1  0
 13 14  1  0
 13 12  1  1
 15 13  1  0
 16 15  2  0
 17 15  1  0
 18 17  1  0
 18 19  1  1
 20 19  1  0
 20 21  1  0
 21 25  1  0
 21 22  2  0
 23 18  1  0
 23 24  1  0
 26 23  2  0
M  END
$$$$
