AYQ.pdb
     RDKit          3D

 27 27  0  0  1  0  0  0  0  0999 V2000
   40.2841   -0.6117   -6.3160 C   0  0  0  0  0  0  0  0  0  0  0  0
   39.6509   -0.7805   -4.9523 C   0  0  2  0  0  0  0  0  0  0  0  0
   40.0877   -1.9921   -4.2904 N   0  0  0  0  0  0  0  0  0  0  0  0
   38.1624   -0.7573   -5.0417 C   0  0  0  0  0  0  0  0  0  0  0  0
   37.5893   -1.8469   -5.2617 O   0  0  0  0  0  0  0  0  0  0  0  0
   34.8602   -1.7694    0.8532 O   0  0  0  0  0  0  0  0  0  0  0  0
   34.9663   -1.0108   -0.3291 C   0  0  0  0  0  0  0  0  0  0  0  0
   33.9164   -0.9285   -1.2153 C   0  0  0  0  0  0  0  0  0  0  0  0
   34.1005   -0.1564   -2.3644 C   0  0  0  0  0  0  0  0  0  0  0  0
   35.2668    0.5109   -2.6379 C   0  0  0  0  0  0  0  0  0  0  0  0
   35.4608    1.3324   -3.8521 C   0  0  0  0  0  0  0  0  0  0  0  0
   35.9750    0.4754   -4.9504 C   0  0  2  0  0  0  0  0  0  0  0  0
   37.4157    0.4224   -4.8893 N   0  0  0  0  0  0  0  0  0  0  0  0
   35.5734    0.8991   -6.3142 C   0  0  0  0  0  0  0  0  0  0  0  0
   36.1799    1.8663   -6.8365 O   0  0  0  0  0  0  0  0  0  0  0  0
   36.2980    0.4096   -1.7337 C   0  0  0  0  0  0  0  0  0  0  0  0
   36.1368   -0.3475   -0.5933 C   0  0  0  0  0  0  0  0  0  0  0  0
   33.5813   -2.4853  -11.0251 N   0  0  0  0  0  0  0  0  0  0  0  0
   33.6033   -1.2068  -11.6254 C   0  0  0  0  0  0  0  0  0  0  0  0
   33.4333   -1.0861  -12.8472 O   0  0  0  0  0  0  0  0  0  0  0  0
   33.8401   -0.0442  -10.7042 C   0  0  0  0  0  0  0  0  0  0  0  0
   34.0905   -0.5092   -9.3007 C   0  0  0  0  0  0  0  0  0  0  0  0
   34.3271    0.6568   -8.4055 C   0  0  2  0  0  0  0  0  0  0  0  0
   34.5266    0.2315   -7.0221 N   0  0  0  0  0  0  0  0  0  0  0  0
   33.1390    1.5315   -8.3985 C   0  0  0  0  0  0  0  0  0  0  0  0
   32.2798    1.3441   -7.4637 O   0  0  0  0  0  0  0  0  0  0  0  0
   32.8444    2.5330   -9.2809 O   0  0  0  0  0  0  0  0  0  0  0  0
  2  1  1  6
  3  2  1  0
  4 13  1  0
  4  2  1  0
  5  4  2  0
  7  6  1  0
  8  7  2  0
  9  8  1  0
 10  9  2  0
 10 16  1  0
 12 11  1  1
 11 10  1  0
 12 14  1  0
 12 13  1  0
 14 15  2  0
 16 17  2  0
 17  7  1  0
 19 18  1  0
 19 21  1  0
 20 19  2  0
 22 21  1  0
 23 22  1  6
 24 14  1  0
 24 23  1  0
 25 23  1  0
 25 27  1  0
 26 25  2  0
M  END
$$$$
