AYQ.pdb
     RDKit          3D

 27 27  0  0  1  0  0  0  0  0999 V2000
   28.1694  -20.5175  -17.3268 C   0  0  0  0  0  0  0  0  0  0  0  0
   27.1723  -19.7389  -18.1566 C   0  0  2  0  0  0  0  0  0  0  0  0
   27.7902  -18.6395  -18.8683 N   0  0  0  0  0  0  0  0  0  0  0  0
   26.0482  -19.2341  -17.3165 C   0  0  0  0  0  0  0  0  0  0  0  0
   26.2821  -18.2431  -16.5903 O   0  0  0  0  0  0  0  0  0  0  0  0
   22.8650  -13.9660  -19.7567 O   0  0  0  0  0  0  0  0  0  0  0  0
   22.7956  -15.2650  -19.2161 C   0  0  0  0  0  0  0  0  0  0  0  0
   23.3811  -16.3324  -19.8584 C   0  0  0  0  0  0  0  0  0  0  0  0
   23.2680  -17.5883  -19.2579 C   0  0  0  0  0  0  0  0  0  0  0  0
   22.6077  -17.7942  -18.0739 C   0  0  0  0  0  0  0  0  0  0  0  0
   22.4916  -19.1229  -17.4352 C   0  0  0  0  0  0  0  0  0  0  0  0
   23.6595  -19.3462  -16.5457 C   0  0  2  0  0  0  0  0  0  0  0  0
   24.7755  -19.8278  -17.3233 N   0  0  0  0  0  0  0  0  0  0  0  0
   23.4206  -20.2883  -15.4249 C   0  0  0  0  0  0  0  0  0  0  0  0
   23.5660  -21.5162  -15.6423 O   0  0  0  0  0  0  0  0  0  0  0  0
   22.0330  -16.7085  -17.4559 C   0  0  0  0  0  0  0  0  0  0  0  0
   22.1329  -15.4604  -18.0318 C   0  0  0  0  0  0  0  0  0  0  0  0
   26.2353  -20.1296  -10.3930 N   0  0  0  0  0  0  0  0  0  0  0  0
   25.4398  -21.2589  -10.0972 C   0  0  0  0  0  0  0  0  0  0  0  0
   25.7117  -21.9789   -9.1256 O   0  0  0  0  0  0  0  0  0  0  0  0
   24.2796  -21.5135  -11.0167 C   0  0  0  0  0  0  0  0  0  0  0  0
   24.2428  -20.5104  -12.1307 C   0  0  0  0  0  0  0  0  0  0  0  0
   23.1125  -20.8059  -13.0538 C   0  0  2  0  0  0  0  0  0  0  0  0
   23.0355  -19.8212  -14.1304 N   0  0  0  0  0  0  0  0  0  0  0  0
   21.8336  -20.7163  -12.3236 C   0  0  0  0  0  0  0  0  0  0  0  0
   21.1997  -19.6021  -12.3880 O   0  0  0  0  0  0  0  0  0  0  0  0
   21.2359  -21.6949  -11.5797 O   0  0  0  0  0  0  0  0  0  0  0  0
  2  1  1  1
  3  2  1  0
  4 13  1  0
  4  2  1  0
  5  4  2  0
  7  6  1  0
  8  7  2  0
  9  8  1  0
 10  9  2  0
 10 16  1  0
 12 11  1  6
 11 10  1  0
 12 14  1  0
 12 13  1  0
 14 15  2  0
 16 17  2  0
 17  7  1  0
 19 18  1  0
 19 21  1  0
 20 19  2  0
 22 21  1  0
 23 22  1  1
 24 14  1  0
 24 23  1  0
 25 23  1  0
 25 27  1  0
 26 25  2  0
M  END
$$$$
