AYQ.pdb
     RDKit          3D

 27 27  0  0  1  0  0  0  0  0999 V2000
   25.5573  -12.3739  -19.7364 C   0  0  0  0  0  0  0  0  0  0  0  0
   25.2937  -13.3059  -18.5740 C   0  0  2  0  0  0  0  0  0  0  0  0
   25.1493  -14.6833  -18.9966 N   0  0  0  0  0  0  0  0  0  0  0  0
   24.0895  -12.8807  -17.8036 C   0  0  0  0  0  0  0  0  0  0  0  0
   22.9819  -12.9908  -18.3740 O   0  0  0  0  0  0  0  0  0  0  0  0
   21.4758  -18.1406  -14.8752 O   0  0  0  0  0  0  0  0  0  0  0  0
   21.8417  -16.7857  -14.7537 C   0  0  0  0  0  0  0  0  0  0  0  0
   20.8895  -15.7918  -14.7490 C   0  0  0  0  0  0  0  0  0  0  0  0
   21.3330  -14.4733  -14.6248 C   0  0  0  0  0  0  0  0  0  0  0  0
   22.6575  -14.1378  -14.5093 C   0  0  0  0  0  0  0  0  0  0  0  0
   23.1275  -12.7423  -14.3730 C   0  0  0  0  0  0  0  0  0  0  0  0
   23.0200  -12.0554  -15.6852 C   0  0  2  0  0  0  0  0  0  0  0  0
   24.1702  -12.3762  -16.4954 N   0  0  0  0  0  0  0  0  0  0  0  0
   22.8901  -10.5795  -15.6094 C   0  0  0  0  0  0  0  0  0  0  0  0
   23.9399   -9.8960  -15.5287 O   0  0  0  0  0  0  0  0  0  0  0  0
   23.5855  -15.1526  -14.5173 C   0  0  0  0  0  0  0  0  0  0  0  0
   23.1688  -16.4607  -14.6390 C   0  0  0  0  0  0  0  0  0  0  0  0
   18.7204   -6.7184  -17.9851 N   0  0  0  0  0  0  0  0  0  0  0  0
   19.4095   -5.8258  -17.1343 C   0  0  0  0  0  0  0  0  0  0  0  0
   19.1086   -4.6236  -17.1128 O   0  0  0  0  0  0  0  0  0  0  0  0
   20.4969   -6.4218  -16.2865 C   0  0  0  0  0  0  0  0  0  0  0  0
   20.5672   -7.9090  -16.4648 C   0  0  0  0  0  0  0  0  0  0  0  0
   21.6283   -8.4836  -15.5926 C   0  0  2  0  0  0  0  0  0  0  0  0
   21.6101   -9.9441  -15.6270 N   0  0  0  0  0  0  0  0  0  0  0  0
   21.3822   -8.1031  -14.1885 C   0  0  0  0  0  0  0  0  0  0  0  0
   21.8409   -6.9689  -13.8005 O   0  0  0  0  0  0  0  0  0  0  0  0
   20.7115   -8.8254  -13.2415 O   0  0  0  0  0  0  0  0  0  0  0  0
  2  1  1  6
  3  2  1  0
  4 13  1  0
  4  2  1  0
  5  4  2  0
  7  6  1  0
  8  7  2  0
  9  8  1  0
 10  9  2  0
 10 16  1  0
 12 11  1  1
 11 10  1  0
 12 14  1  0
 12 13  1  0
 14 15  2  0
 16 17  2  0
 17  7  1  0
 19 18  1  0
 19 21  1  0
 20 19  2  0
 22 21  1  0
 23 22  1  6
 24 14  1  0
 24 23  1  0
 25 23  1  0
 25 27  1  0
 26 25  2  0
M  END
$$$$
