AYQ.pdb
     RDKit          3D

 27 27  0  0  1  0  0  0  0  0999 V2000
   28.5971  -21.3551  -16.5419 C   0  0  0  0  0  0  0  0  0  0  0  0
   27.1326  -20.9759  -16.5591 C   0  0  2  0  0  0  0  0  0  0  0  0
   26.9354  -19.5564  -16.7671 N   0  0  0  0  0  0  0  0  0  0  0  0
   26.4486  -21.4068  -15.3058 C   0  0  0  0  0  0  0  0  0  0  0  0
   26.4977  -22.6237  -15.0212 O   0  0  0  0  0  0  0  0  0  0  0  0
   30.2787  -21.7526   -9.7674 O   0  0  0  0  0  0  0  0  0  0  0  0
   29.1044  -21.2938  -10.3958 C   0  0  0  0  0  0  0  0  0  0  0  0
   29.1567  -20.6418  -11.6069 C   0  0  0  0  0  0  0  0  0  0  0  0
   27.9485  -20.2179  -12.1647 C   0  0  0  0  0  0  0  0  0  0  0  0
   26.7340  -20.4234  -11.5621 C   0  0  0  0  0  0  0  0  0  0  0  0
   25.4540  -19.9790  -12.1544 C   0  0  0  0  0  0  0  0  0  0  0  0
   25.0794  -20.8939  -13.2625 C   0  0  2  0  0  0  0  0  0  0  0  0
   25.7734  -20.5056  -14.4667 N   0  0  0  0  0  0  0  0  0  0  0  0
   23.6263  -20.9614  -13.5534 C   0  0  0  0  0  0  0  0  0  0  0  0
   23.1147  -20.0377  -14.2324 O   0  0  0  0  0  0  0  0  0  0  0  0
   26.7138  -21.0776  -10.3527 C   0  0  0  0  0  0  0  0  0  0  0  0
   27.8950  -21.5040   -9.7850 C   0  0  0  0  0  0  0  0  0  0  0  0
   20.6990  -26.1050  -14.8906 N   0  0  0  0  0  0  0  0  0  0  0  0
   19.5720  -25.3586  -14.4806 C   0  0  0  0  0  0  0  0  0  0  0  0
   18.4507  -25.8858  -14.4466 O   0  0  0  0  0  0  0  0  0  0  0  0
   19.8251  -23.9272  -14.1017 C   0  0  0  0  0  0  0  0  0  0  0  0
   21.2897  -23.6083  -14.1427 C   0  0  0  0  0  0  0  0  0  0  0  0
   21.5224  -22.1977  -13.7265 C   0  0  2  0  0  0  0  0  0  0  0  0
   22.8226  -22.0435  -13.0784 N   0  0  0  0  0  0  0  0  0  0  0  0
   20.5149  -21.7989  -12.7252 C   0  0  0  0  0  0  0  0  0  0  0  0
   20.7840  -22.0442  -11.4944 O   0  0  0  0  0  0  0  0  0  0  0  0
   19.3145  -21.1879  -12.9579 O   0  0  0  0  0  0  0  0  0  0  0  0
  2  1  1  1
  3  2  1  0
  4 13  1  0
  4  2  1  0
  5  4  2  0
  7  6  1  0
  8  7  2  0
  9  8  1  0
 10  9  2  0
 10 16  1  0
 12 11  1  1
 11 10  1  0
 12 14  1  0
 12 13  1  0
 14 15  2  0
 16 17  2  0
 17  7  1  0
 19 18  1  0
 19 21  1  0
 20 19  2  0
 22 21  1  0
 23 22  1  1
 24 14  1  0
 24 23  1  0
 25 23  1  0
 25 27  1  0
 26 25  2  0
M  END
$$$$
