AYQ.pdb
     RDKit          3D

 27 27  0  0  1  0  0  0  0  0999 V2000
   18.3919   -9.8837  -16.0143 C   0  0  0  0  0  0  0  0  0  0  0  0
   19.0801   -8.8098  -15.2006 C   0  0  2  0  0  0  0  0  0  0  0  0
   20.4825   -9.0987  -14.9848 N   0  0  0  0  0  0  0  0  0  0  0  0
   18.3956   -8.6022  -13.8919 C   0  0  0  0  0  0  0  0  0  0  0  0
   18.5694   -9.4767  -13.0148 O   0  0  0  0  0  0  0  0  0  0  0  0
   13.9596   -5.1720   -7.2116 O   0  0  0  0  0  0  0  0  0  0  0  0
   14.6262   -5.3276   -8.4428 C   0  0  0  0  0  0  0  0  0  0  0  0
   13.9972   -5.0344   -9.6315 C   0  0  0  0  0  0  0  0  0  0  0  0
   14.7260   -5.2149  -10.8092 C   0  0  0  0  0  0  0  0  0  0  0  0
   16.0211   -5.6650  -10.8254 C   0  0  0  0  0  0  0  0  0  0  0  0
   16.7948   -5.8519  -12.0717 C   0  0  0  0  0  0  0  0  0  0  0  0
   16.8412   -7.2968  -12.4114 C   0  0  2  0  0  0  0  0  0  0  0  0
   17.5874   -7.4835  -13.6323 N   0  0  0  0  0  0  0  0  0  0  0  0
   15.5160   -7.9465  -12.5614 C   0  0  0  0  0  0  0  0  0  0  0  0
   14.8923   -7.7781  -13.6378 O   0  0  0  0  0  0  0  0  0  0  0  0
   16.6227   -5.9496   -9.6220 C   0  0  0  0  0  0  0  0  0  0  0  0
   15.9210   -5.7784   -8.4482 C   0  0  0  0  0  0  0  0  0  0  0  0
   12.4207  -12.0808   -8.9588 N   0  0  0  0  0  0  0  0  0  0  0  0
   11.5105  -11.8872  -10.0217 C   0  0  0  0  0  0  0  0  0  0  0  0
   10.4785  -12.5698  -10.0940 O   0  0  0  0  0  0  0  0  0  0  0  0
   11.8742  -10.8285  -11.0234 C   0  0  0  0  0  0  0  0  0  0  0  0
   13.1763  -10.1744  -10.6695 C   0  0  0  0  0  0  0  0  0  0  0  0
   13.6253   -9.2864  -11.7771 C   0  0  2  0  0  0  0  0  0  0  0  0
   14.9563   -8.7438  -11.5157 N   0  0  0  0  0  0  0  0  0  0  0  0
   12.7223   -8.1245  -11.8843 C   0  0  0  0  0  0  0  0  0  0  0  0
   11.6870   -8.2549  -12.6316 O   0  0  0  0  0  0  0  0  0  0  0  0
   12.8598   -6.9111  -11.2703 O   0  0  0  0  0  0  0  0  0  0  0  0
  2  1  1  1
  3  2  1  0
  4 13  1  0
  4  2  1  0
  5  4  2  0
  7  6  1  0
  8  7  2  0
  9  8  1  0
 10  9  2  0
 10 16  1  0
 12 11  1  6
 11 10  1  0
 12 14  1  0
 12 13  1  0
 14 15  2  0
 16 17  2  0
 17  7  1  0
 19 18  1  0
 19 21  1  0
 20 19  2  0
 22 21  1  0
 23 22  1  1
 24 14  1  0
 24 23  1  0
 25 23  1  0
 25 27  1  0
 26 25  2  0
M  END
$$$$
