AYQ.pdb
     RDKit          3D

 27 27  0  0  1  0  0  0  0  0999 V2000
   28.7492  -22.5973  -16.6300 C   0  0  0  0  0  0  0  0  0  0  0  0
   27.3583  -22.0780  -16.9211 C   0  0  2  0  0  0  0  0  0  0  0  0
   27.3773  -20.7459  -17.4886 N   0  0  0  0  0  0  0  0  0  0  0  0
   26.5074  -22.0978  -15.6964 C   0  0  0  0  0  0  0  0  0  0  0  0
   26.3278  -23.2070  -15.1472 O   0  0  0  0  0  0  0  0  0  0  0  0
   26.4428  -21.1881   -7.7758 O   0  0  0  0  0  0  0  0  0  0  0  0
   26.2485  -20.8301   -9.1243 C   0  0  0  0  0  0  0  0  0  0  0  0
   27.2653  -20.9526  -10.0439 C   0  0  0  0  0  0  0  0  0  0  0  0
   26.9932  -20.5766  -11.3612 C   0  0  0  0  0  0  0  0  0  0  0  0
   25.7732  -20.0988  -11.7655 C   0  0  0  0  0  0  0  0  0  0  0  0
   25.4830  -19.7049  -13.1610 C   0  0  0  0  0  0  0  0  0  0  0  0
   25.1398  -20.9132  -13.9532 C   0  0  2  0  0  0  0  0  0  0  0  0
   25.9234  -20.9366  -15.1647 N   0  0  0  0  0  0  0  0  0  0  0  0
   23.7061  -21.0382  -14.3132 C   0  0  0  0  0  0  0  0  0  0  0  0
   23.3150  -20.5062  -15.3809 O   0  0  0  0  0  0  0  0  0  0  0  0
   24.7771  -19.9876  -10.8239 C   0  0  0  0  0  0  0  0  0  0  0  0
   25.0250  -20.3532   -9.5184 C   0  0  0  0  0  0  0  0  0  0  0  0
   18.4325  -25.5792  -14.0319 N   0  0  0  0  0  0  0  0  0  0  0  0
   19.2568  -24.6879  -14.7544 C   0  0  0  0  0  0  0  0  0  0  0  0
   19.7765  -25.0423  -15.8224 O   0  0  0  0  0  0  0  0  0  0  0  0
   19.4497  -23.3253  -14.1523 C   0  0  0  0  0  0  0  0  0  0  0  0
   20.8248  -23.1808  -13.5720 C   0  0  0  0  0  0  0  0  0  0  0  0
   21.4348  -21.8933  -14.0048 C   0  0  2  0  0  0  0  0  0  0  0  0
   22.7878  -21.7426  -13.4747 N   0  0  0  0  0  0  0  0  0  0  0  0
   20.6544  -20.7635  -13.4651 C   0  0  0  0  0  0  0  0  0  0  0  0
   21.1963  -20.0720  -12.5293 O   0  0  0  0  0  0  0  0  0  0  0  0
   19.4072  -20.3602  -13.8524 O   0  0  0  0  0  0  0  0  0  0  0  0
  2  1  1  1
  3  2  1  0
  4 13  1  0
  4  2  1  0
  5  4  2  0
  7  6  1  0
  8  7  2  0
  9  8  1  0
 10  9  2  0
 10 16  1  0
 12 11  1  6
 11 10  1  0
 12 14  1  0
 12 13  1  0
 14 15  2  0
 16 17  2  0
 17  7  1  0
 19 18  1  0
 19 21  1  0
 20 19  2  0
 22 21  1  0
 23 22  1  1
 24 14  1  0
 24 23  1  0
 25 23  1  0
 25 27  1  0
 26 25  2  0
M  END
$$$$
