AYQ.pdb
     RDKit          3D

 27 27  0  0  1  0  0  0  0  0999 V2000
   45.2091  -11.0655   -5.0857 C   0  0  0  0  0  0  0  0  0  0  0  0
   44.4847  -11.7900   -6.1990 C   0  0  2  0  0  0  0  0  0  0  0  0
   45.3849  -12.2307   -7.2440 N   0  0  0  0  0  0  0  0  0  0  0  0
   43.4045  -10.9425   -6.7813 C   0  0  0  0  0  0  0  0  0  0  0  0
   43.6645  -10.3443   -7.8484 O   0  0  0  0  0  0  0  0  0  0  0  0
   35.8120   -6.6245   -7.6299 O   0  0  0  0  0  0  0  0  0  0  0  0
   36.7937   -7.5878   -7.3248 C   0  0  0  0  0  0  0  0  0  0  0  0
   37.1579   -8.5447   -8.2447 C   0  0  0  0  0  0  0  0  0  0  0  0
   38.1386   -9.4641   -7.8660 C   0  0  0  0  0  0  0  0  0  0  0  0
   38.7415   -9.4495   -6.6345 C   0  0  0  0  0  0  0  0  0  0  0  0
   39.7833  -10.4197   -6.2345 C   0  0  0  0  0  0  0  0  0  0  0  0
   41.1148   -9.9156   -6.6564 C   0  0  2  0  0  0  0  0  0  0  0  0
   42.1440  -10.8063   -6.1772 N   0  0  0  0  0  0  0  0  0  0  0  0
   41.4328   -8.5380   -6.2070 C   0  0  0  0  0  0  0  0  0  0  0  0
   41.7492   -8.3657   -5.0044 O   0  0  0  0  0  0  0  0  0  0  0  0
   38.3565   -8.4815   -5.7367 C   0  0  0  0  0  0  0  0  0  0  0  0
   37.3903   -7.5647   -6.0906 C   0  0  0  0  0  0  0  0  0  0  0  0
   43.1679   -3.7808   -3.4964 N   0  0  0  0  0  0  0  0  0  0  0  0
   43.8189   -4.5671   -4.4729 C   0  0  0  0  0  0  0  0  0  0  0  0
   44.7622   -5.3055   -4.1548 O   0  0  0  0  0  0  0  0  0  0  0  0
   43.3002   -4.4458   -5.8774 C   0  0  0  0  0  0  0  0  0  0  0  0
   43.0784   -5.7964   -6.4900 C   0  0  0  0  0  0  0  0  0  0  0  0
   41.6250   -6.1187   -6.5158 C   0  0  2  0  0  0  0  0  0  0  0  0
   41.3832   -7.4314   -7.1099 N   0  0  0  0  0  0  0  0  0  0  0  0
   40.9119   -5.1461   -7.3656 C   0  0  0  0  0  0  0  0  0  0  0  0
   40.5247   -5.5511   -8.5204 O   0  0  0  0  0  0  0  0  0  0  0  0
   40.6087   -3.8484   -7.0615 O   0  0  0  0  0  0  0  0  0  0  0  0
  2  1  1  1
  3  2  1  0
  4 13  1  0
  4  2  1  0
  5  4  2  0
  7  6  1  0
  8  7  2  0
  9  8  1  0
 10  9  2  0
 10 16  1  0
 12 11  1  1
 11 10  1  0
 12 14  1  0
 12 13  1  0
 14 15  2  0
 16 17  2  0
 17  7  1  0
 19 18  1  0
 19 21  1  0
 20 19  2  0
 22 21  1  0
 23 22  1  6
 24 14  1  0
 24 23  1  0
 25 23  1  0
 25 27  1  0
 26 25  2  0
M  END
$$$$
