LRY.pdb
     RDKit          3D

 32 32  0  0  1  0  0  0  0  0999 V2000
    8.9444  -12.8154   19.0801 C   0  0  0  0  0  0  0  0  0  0  0  0
    7.7587  -13.7245   18.7634 C   0  0  2  0  0  0  0  0  0  0  0  0
    6.6768  -12.8281   18.2135 C   0  0  0  0  0  0  0  0  0  0  0  0
    7.3365  -14.4948   19.9923 C   0  0  0  0  0  0  0  0  0  0  0  0
    8.5635  -15.0793   20.6228 C   0  0  2  0  0  0  0  0  0  0  0  0
    9.2736  -15.9247   19.6880 N   0  0  0  0  0  0  0  0  0  0  0  0
    8.3054  -15.8089   21.8624 C   0  0  0  0  0  0  0  0  0  0  0  0
    7.6224  -15.2734   22.7673 O   0  0  0  0  0  0  0  0  0  0  0  0
    5.3946  -22.4840   25.9562 N   0  0  0  0  0  0  0  0  0  0  0  0
    5.0557  -22.4671   24.5717 C   0  0  0  0  0  0  0  0  0  0  0  0
    4.0489  -23.1391   24.1593 N   0  0  0  0  0  0  0  0  0  0  0  0
    5.8383  -21.7067   23.6720 N   0  0  0  0  0  0  0  0  0  0  0  0
    6.8837  -20.7996   24.1280 C   0  0  0  0  0  0  0  0  0  0  0  0
    7.5877  -20.1590   22.9739 C   0  0  0  0  0  0  0  0  0  0  0  0
    8.7643  -19.3085   23.3258 C   0  0  0  0  0  0  0  0  0  0  0  0
    8.5543  -17.8450   23.3409 C   0  0  2  0  0  0  0  0  0  0  0  0
    8.7889  -17.1308   22.1297 N   0  0  0  0  0  0  0  0  0  0  0  0
    9.5567  -17.2851   24.3315 C   0  0  0  0  0  0  0  0  0  0  0  0
   10.7889  -17.2869   24.1025 O   0  0  0  0  0  0  0  0  0  0  0  0
    3.7681  -23.2842   23.1730 O   0  0  0  0  0  0  0  0  0  0  0  0
    5.2253  -12.1103   27.0188 C   0  0  0  0  0  0  0  0  0  0  0  0
    6.4177  -12.7643   26.7974 C   0  0  0  0  0  0  0  0  0  0  0  0
    6.7060  -13.4461   25.6341 C   0  0  0  0  0  0  0  0  0  0  0  0
    7.9268  -14.0750   25.4937 C   0  0  0  0  0  0  0  0  0  0  0  0
    8.9016  -14.0587   26.4809 C   0  0  0  0  0  0  0  0  0  0  0  0
   10.2078  -14.7400   26.3259 C   0  0  1  0  0  0  0  0  0  0  0  0
   10.1033  -16.2336   26.5233 N   0  0  0  0  0  0  0  0  0  0  0  0
    9.1184  -16.7352   25.5645 C   0  0  0  0  0  0  0  0  0  0  0  0
    9.6848  -16.6163   27.8817 O   0  0  0  0  0  0  0  0  0  0  0  0
   10.3014  -16.2684   28.9198 C   0  0  0  0  0  0  0  0  0  0  0  0
    8.6066  -13.3781   27.6352 C   0  0  0  0  0  0  0  0  0  0  0  0
    7.3970  -12.7440   27.7974 O   0  0  0  0  0  0  0  0  0  0  0  0
  2  1  1  1
  2  3  1  0
  4  5  1  0
  4  2  1  0
  5  6  1  6
  7  8  2  0
  7  5  1  0
  9 10  1  0
 10 12  1  0
 10 11  2  0
 12 13  1  0
 13 14  1  0
 14 15  1  0
 16 15  1  6
 16 18  1  0
 16 17  1  0
 17  7  1  0
 18 27  1  0
 19 18  2  0
 21 20  1  0
 22 21  2  0
 23 22  1  0
 24 30  1  0
 24 23  2  0
 25 24  1  0
 26 25  1  6
 27 26  1  0
 28 26  1  0
 29 28  2  0
 30 31  2  0
 31 21  1  0
 32 28  1  0
M  END
$$$$
