LRY.pdb
     RDKit          3D

 32 32  0  0  1  0  0  0  0  0999 V2000
    9.5459  -12.7891   19.3849 C   0  0  0  0  0  0  0  0  0  0  0  0
    8.0786  -13.1714   19.5674 C   0  0  2  0  0  0  0  0  0  0  0  0
    7.3242  -11.8754   19.7345 C   0  0  0  0  0  0  0  0  0  0  0  0
    7.9169  -14.1176   20.7338 C   0  0  0  0  0  0  0  0  0  0  0  0
    8.5481  -15.4257   20.3663 C   0  0  2  0  0  0  0  0  0  0  0  0
    7.8735  -16.0273   19.2368 N   0  0  0  0  0  0  0  0  0  0  0  0
    8.6256  -16.3800   21.4704 C   0  0  0  0  0  0  0  0  0  0  0  0
    7.6946  -17.2009   21.6478 O   0  0  0  0  0  0  0  0  0  0  0  0
   10.3929  -19.4210   19.1568 N   0  0  0  0  0  0  0  0  0  0  0  0
   10.9277  -20.7209   19.3938 C   0  0  0  0  0  0  0  0  0  0  0  0
   11.0645  -21.5357   18.4177 N   0  0  0  0  0  0  0  0  0  0  0  0
   11.3002  -21.0924   20.7066 N   0  0  0  0  0  0  0  0  0  0  0  0
   10.5070  -20.7240   21.8721 C   0  0  0  0  0  0  0  0  0  0  0  0
   10.5487  -19.2482   22.1127 C   0  0  0  0  0  0  0  0  0  0  0  0
    9.7779  -18.7642   23.2972 C   0  0  0  0  0  0  0  0  0  0  0  0
    9.7569  -17.3048   23.5339 C   0  0  2  0  0  0  0  0  0  0  0  0
    9.7189  -16.4504   22.3934 N   0  0  0  0  0  0  0  0  0  0  0  0
   11.0599  -16.9723   24.2348 C   0  0  0  0  0  0  0  0  0  0  0  0
   11.9903  -17.8057   24.3377 O   0  0  0  0  0  0  0  0  0  0  0  0
   11.3760  -22.5215   18.4779 O   0  0  0  0  0  0  0  0  0  0  0  0
    5.4463  -10.9468   26.6466 C   0  0  0  0  0  0  0  0  0  0  0  0
    6.3008  -11.8995   26.1361 C   0  0  0  0  0  0  0  0  0  0  0  0
    6.6951  -11.9373   24.8154 C   0  0  0  0  0  0  0  0  0  0  0  0
    7.5554  -12.9277   24.3858 C   0  0  0  0  0  0  0  0  0  0  0  0
    8.0562  -13.9095   25.2286 C   0  0  0  0  0  0  0  0  0  0  0  0
    8.9753  -14.9727   24.7600 C   0  0  2  0  0  0  0  0  0  0  0  0
   10.2114  -15.0832   25.6205 N   0  0  0  0  0  0  0  0  0  0  0  0
   11.2632  -15.6872   24.8021 C   0  0  0  0  0  0  0  0  0  0  0  0
   10.0137  -15.9046   26.8259 O   0  0  0  0  0  0  0  0  0  0  0  0
    9.7325  -15.4242   27.9524 C   0  0  0  0  0  0  0  0  0  0  0  0
    7.6589  -13.8646   26.5411 C   0  0  0  0  0  0  0  0  0  0  0  0
    6.8027  -12.8871   26.9917 O   0  0  0  0  0  0  0  0  0  0  0  0
  2  1  1  1
  2  3  1  0
  4  5  1  0
  4  2  1  0
  5  6  1  6
  7  8  2  0
  7  5  1  0
  9 10  1  0
 10 12  1  0
 10 11  2  0
 12 13  1  0
 13 14  1  0
 14 15  1  0
 16 15  1  6
 16 18  1  0
 16 17  1  0
 17  7  1  0
 18 27  1  0
 19 18  2  0
 21 20  1  0
 22 21  2  0
 23 22  1  0
 24 30  1  0
 24 23  2  0
 25 24  1  0
 26 25  1  6
 27 26  1  0
 28 26  1  0
 29 28  2  0
 30 31  2  0
 31 21  1  0
 32 28  1  0
M  END
$$$$
