LRY.pdb
     RDKit          3D

 32 32  0  0  1  0  0  0  0  0999 V2000
    8.2645  -13.1200   18.0327 C   0  0  0  0  0  0  0  0  0  0  0  0
    7.4486  -13.3304   19.3066 C   0  0  2  0  0  0  0  0  0  0  0  0
    7.1340  -11.9531   19.8364 C   0  0  0  0  0  0  0  0  0  0  0  0
    8.2067  -14.1945   20.2866 C   0  0  0  0  0  0  0  0  0  0  0  0
    8.4237  -15.5366   19.6569 C   0  0  2  0  0  0  0  0  0  0  0  0
    7.1632  -16.1558   19.3097 N   0  0  0  0  0  0  0  0  0  0  0  0
    9.2254  -16.4513   20.4669 C   0  0  0  0  0  0  0  0  0  0  0  0
    8.6676  -17.1623   21.3361 O   0  0  0  0  0  0  0  0  0  0  0  0
   17.6488  -19.8475   20.3852 N   0  0  0  0  0  0  0  0  0  0  0  0
   16.6292  -20.7694   20.7626 C   0  0  0  0  0  0  0  0  0  0  0  0
   16.8763  -22.0241   20.7523 N   0  0  0  0  0  0  0  0  0  0  0  0
   15.3569  -20.2836   21.1439 N   0  0  0  0  0  0  0  0  0  0  0  0
   15.0445  -18.8604   21.1669 C   0  0  0  0  0  0  0  0  0  0  0  0
   13.6373  -18.6209   21.6144 C   0  0  0  0  0  0  0  0  0  0  0  0
   12.8339  -17.6994   20.7559 C   0  0  0  0  0  0  0  0  0  0  0  0
   11.4484  -17.4166   21.1878 C   0  0  2  0  0  0  0  0  0  0  0  0
   10.6443  -16.6016   20.3385 N   0  0  0  0  0  0  0  0  0  0  0  0
   11.5612  -16.6438   22.4877 C   0  0  0  0  0  0  0  0  0  0  0  0
   12.1499  -15.5394   22.5549 O   0  0  0  0  0  0  0  0  0  0  0  0
   16.2311  -22.7808   21.0415 O   0  0  0  0  0  0  0  0  0  0  0  0
   10.2493  -14.2703   30.8886 C   0  0  0  0  0  0  0  0  0  0  0  0
   10.1559  -14.8033   29.6215 C   0  0  0  0  0  0  0  0  0  0  0  0
   10.1900  -16.1571   29.3620 C   0  0  0  0  0  0  0  0  0  0  0  0
   10.0900  -16.6076   28.0610 C   0  0  0  0  0  0  0  0  0  0  0  0
    9.9542  -15.7540   26.9755 C   0  0  0  0  0  0  0  0  0  0  0  0
    9.8523  -16.2438   25.5812 C   0  0  1  0  0  0  0  0  0  0  0  0
   11.2064  -16.4552   24.9468 N   0  0  0  0  0  0  0  0  0  0  0  0
   10.9934  -17.1594   23.6820 C   0  0  0  0  0  0  0  0  0  0  0  0
   12.1275  -17.2428   25.7823 O   0  0  0  0  0  0  0  0  0  0  0  0
   13.0274  -16.7296   26.4934 C   0  0  0  0  0  0  0  0  0  0  0  0
    9.9210  -14.4086   27.2426 C   0  0  0  0  0  0  0  0  0  0  0  0
   10.0188  -13.9367   28.5307 O   0  0  0  0  0  0  0  0  0  0  0  0
  2  1  1  6
  2  3  1  0
  4  5  1  0
  4  2  1  0
  5  6  1  1
  7  8  2  0
  7  5  1  0
  9 10  1  0
 10 12  1  0
 10 11  2  0
 12 13  1  0
 13 14  1  0
 14 15  1  0
 16 15  1  6
 16 18  1  0
 16 17  1  0
 17  7  1  0
 18 27  1  0
 19 18  2  0
 21 20  1  0
 22 21  2  0
 23 22  1  0
 24 30  1  0
 24 23  2  0
 25 24  1  0
 26 25  1  6
 27 26  1  0
 28 26  1  0
 29 28  2  0
 30 31  2  0
 31 21  1  0
 32 28  1  0
M  END
$$$$
