LRY.pdb
     RDKit          3D

 32 32  0  0  1  0  0  0  0  0999 V2000
    8.2619  -13.4813   18.9574 C   0  0  0  0  0  0  0  0  0  0  0  0
    7.2412  -13.3795   20.0889 C   0  0  2  0  0  0  0  0  0  0  0  0
    7.0168  -11.9057   20.3214 C   0  0  0  0  0  0  0  0  0  0  0  0
    7.7308  -14.1153   21.3140 C   0  0  0  0  0  0  0  0  0  0  0  0
    7.8493  -15.5688   20.9708 C   0  0  2  0  0  0  0  0  0  0  0  0
    6.5606  -16.1253   20.6209 N   0  0  0  0  0  0  0  0  0  0  0  0
    8.4780  -16.3770   22.0135 C   0  0  0  0  0  0  0  0  0  0  0  0
    7.7617  -17.0027   22.8306 O   0  0  0  0  0  0  0  0  0  0  0  0
   13.0539  -21.3618   24.2424 N   0  0  0  0  0  0  0  0  0  0  0  0
   14.0312  -20.8745   25.1585 C   0  0  0  0  0  0  0  0  0  0  0  0
   14.4241  -21.6209   26.1197 N   0  0  0  0  0  0  0  0  0  0  0  0
   14.5537  -19.5709   24.9919 N   0  0  0  0  0  0  0  0  0  0  0  0
   14.0579  -18.6611   23.9673 C   0  0  0  0  0  0  0  0  0  0  0  0
   12.5812  -18.4565   24.0916 C   0  0  0  0  0  0  0  0  0  0  0  0
   11.9639  -17.5625   23.0664 C   0  0  0  0  0  0  0  0  0  0  0  0
   10.5173  -17.2869   23.1995 C   0  0  2  0  0  0  0  0  0  0  0  0
    9.8948  -16.5126   22.1773 N   0  0  0  0  0  0  0  0  0  0  0  0
   10.3585  -16.4701   24.4674 C   0  0  0  0  0  0  0  0  0  0  0  0
   10.1247  -15.2391   24.4395 O   0  0  0  0  0  0  0  0  0  0  0  0
   15.1544  -21.3923   26.8175 O   0  0  0  0  0  0  0  0  0  0  0  0
    6.7579  -10.9598   25.9465 C   0  0  0  0  0  0  0  0  0  0  0  0
    7.1139  -12.2818   26.1016 C   0  0  0  0  0  0  0  0  0  0  0  0
    6.3765  -13.3318   25.5967 C   0  0  0  0  0  0  0  0  0  0  0  0
    6.8051  -14.6285   25.7977 C   0  0  0  0  0  0  0  0  0  0  0  0
    7.9629  -14.9406   26.4956 C   0  0  0  0  0  0  0  0  0  0  0  0
    8.4146  -16.3347   26.7121 C   0  0  2  0  0  0  0  0  0  0  0  0
    9.9078  -16.4289   26.9176 N   0  0  0  0  0  0  0  0  0  0  0  0
   10.4722  -17.0886   25.7399 C   0  0  0  0  0  0  0  0  0  0  0  0
   10.2862  -17.1911   28.1188 O   0  0  0  0  0  0  0  0  0  0  0  0
   10.0276  -16.8125   29.2887 C   0  0  0  0  0  0  0  0  0  0  0  0
    8.6908  -13.8899   26.9946 C   0  0  0  0  0  0  0  0  0  0  0  0
    8.2833  -12.5898   26.8067 O   0  0  0  0  0  0  0  0  0  0  0  0
  2  1  1  6
  2  3  1  0
  4  5  1  0
  4  2  1  0
  5  6  1  1
  7  8  2  0
  7  5  1  0
  9 10  1  0
 10 12  1  0
 10 11  2  0
 12 13  1  0
 13 14  1  0
 14 15  1  0
 16 15  1  6
 16 18  1  0
 16 17  1  0
 17  7  1  0
 18 27  1  0
 19 18  2  0
 21 20  1  0
 22 21  2  0
 23 22  1  0
 24 30  1  0
 24 23  2  0
 25 24  1  0
 26 25  1  6
 27 26  1  0
 28 26  1  0
 29 28  2  0
 30 31  2  0
 31 21  1  0
 32 28  1  0
M  END
$$$$
