LRY.pdb
     RDKit          3D

 32 32  0  0  1  0  0  0  0  0999 V2000
    9.0584  -13.4665   17.6732 C   0  0  0  0  0  0  0  0  0  0  0  0
    7.7823  -13.5918   18.5029 C   0  0  2  0  0  0  0  0  0  0  0  0
    7.3375  -12.1821   18.8055 C   0  0  0  0  0  0  0  0  0  0  0  0
    8.0316  -14.4235   19.7391 C   0  0  0  0  0  0  0  0  0  0  0  0
    8.3894  -15.8120   19.3046 C   0  0  2  0  0  0  0  0  0  0  0  0
    7.2848  -16.4389   18.6119 N   0  0  0  0  0  0  0  0  0  0  0  0
    8.8546  -16.6736   20.3895 C   0  0  0  0  0  0  0  0  0  0  0  0
    8.0234  -17.1798   21.1801 O   0  0  0  0  0  0  0  0  0  0  0  0
   13.2087  -21.9332   21.8102 N   0  0  0  0  0  0  0  0  0  0  0  0
   13.4468  -22.0328   20.4084 C   0  0  0  0  0  0  0  0  0  0  0  0
   13.5199  -23.1858   19.8601 N   0  0  0  0  0  0  0  0  0  0  0  0
   13.5991  -20.8540   19.6420 N   0  0  0  0  0  0  0  0  0  0  0  0
   13.5188  -19.5260   20.2364 C   0  0  0  0  0  0  0  0  0  0  0  0
   12.4293  -19.4540   21.2589 C   0  0  0  0  0  0  0  0  0  0  0  0
   12.1311  -18.0903   21.7910 C   0  0  0  0  0  0  0  0  0  0  0  0
   10.7158  -17.6625   21.7863 C   0  0  2  0  0  0  0  0  0  0  0  0
   10.2311  -16.9933   20.6246 N   0  0  0  0  0  0  0  0  0  0  0  0
   10.5759  -16.6551   22.9111 C   0  0  0  0  0  0  0  0  0  0  0  0
   10.9564  -15.4671   22.7900 O   0  0  0  0  0  0  0  0  0  0  0  0
   13.7089  -23.3812   18.8608 O   0  0  0  0  0  0  0  0  0  0  0  0
    6.2335  -11.1773   27.7147 C   0  0  0  0  0  0  0  0  0  0  0  0
    6.8382  -12.1369   26.9323 C   0  0  0  0  0  0  0  0  0  0  0  0
    8.1846  -12.4280   26.9916 C   0  0  0  0  0  0  0  0  0  0  0  0
    8.7104  -13.4059   26.1713 C   0  0  0  0  0  0  0  0  0  0  0  0
    7.9414  -14.1281   25.2701 C   0  0  0  0  0  0  0  0  0  0  0  0
    8.5128  -15.1729   24.3890 C   0  0  1  0  0  0  0  0  0  0  0  0
    9.5574  -16.0075   25.0910 N   0  0  0  0  0  0  0  0  0  0  0  0
   10.0006  -17.0376   24.1511 C   0  0  0  0  0  0  0  0  0  0  0  0
    9.0608  -16.6591   26.3139 O   0  0  0  0  0  0  0  0  0  0  0  0
    8.4382  -17.7506   26.3127 C   0  0  0  0  0  0  0  0  0  0  0  0
    6.6026  -13.8322   25.2176 C   0  0  0  0  0  0  0  0  0  0  0  0
    6.0567  -12.8621   26.0253 O   0  0  0  0  0  0  0  0  0  0  0  0
  2  1  1  1
  2  3  1  0
  4  5  1  0
  4  2  1  0
  5  6  1  1
  7  8  2  0
  7  5  1  0
  9 10  1  0
 10 12  1  0
 10 11  2  0
 12 13  1  0
 13 14  1  0
 14 15  1  0
 16 15  1  6
 16 18  1  0
 16 17  1  0
 17  7  1  0
 18 27  1  0
 19 18  2  0
 21 20  1  0
 22 21  2  0
 23 22  1  0
 24 30  1  0
 24 23  2  0
 25 24  1  0
 26 25  1  6
 27 26  1  0
 28 26  1  0
 29 28  2  0
 30 31  2  0
 31 21  1  0
 32 28  1  0
M  END
$$$$
