LRY.pdb
     RDKit          3D

 32 32  0  0  1  0  0  0  0  0999 V2000
    5.8062  -12.2862   23.7299 C   0  0  0  0  0  0  0  0  0  0  0  0
    5.7995  -12.7142   25.1960 C   0  0  2  0  0  0  0  0  0  0  0  0
    6.0289  -11.4591   26.0013 C   0  0  0  0  0  0  0  0  0  0  0  0
    6.8356  -13.7857   25.4416 C   0  0  0  0  0  0  0  0  0  0  0  0
    6.5328  -14.9447   24.5417 C   0  0  2  0  0  0  0  0  0  0  0  0
    5.7228  -15.9313   25.2224 N   0  0  0  0  0  0  0  0  0  0  0  0
    7.7182  -15.5784   23.9683 C   0  0  0  0  0  0  0  0  0  0  0  0
    8.2578  -16.5403   24.5648 O   0  0  0  0  0  0  0  0  0  0  0  0
    7.3334  -15.4336   16.8142 N   0  0  0  0  0  0  0  0  0  0  0  0
    7.4222  -14.0417   17.1084 C   0  0  0  0  0  0  0  0  0  0  0  0
    6.5979  -13.2275   16.5672 N   0  0  0  0  0  0  0  0  0  0  0  0
    8.4217  -13.5795   17.9958 N   0  0  0  0  0  0  0  0  0  0  0  0
    9.4604  -14.4569   18.5199 C   0  0  0  0  0  0  0  0  0  0  0  0
    8.9853  -15.1984   19.7291 C   0  0  0  0  0  0  0  0  0  0  0  0
    9.9553  -15.2757   20.8626 C   0  0  0  0  0  0  0  0  0  0  0  0
    9.4506  -15.8179   22.1423 C   0  0  2  0  0  0  0  0  0  0  0  0
    8.3288  -15.1709   22.7380 N   0  0  0  0  0  0  0  0  0  0  0  0
   10.5786  -15.6563   23.1429 C   0  0  0  0  0  0  0  0  0  0  0  0
   11.0664  -14.5352   23.4188 O   0  0  0  0  0  0  0  0  0  0  0  0
    6.5812  -12.1988   16.6859 O   0  0  0  0  0  0  0  0  0  0  0  0
   11.3117  -15.8423   31.5602 C   0  0  0  0  0  0  0  0  0  0  0  0
   11.0668  -16.0127   30.2151 C   0  0  0  0  0  0  0  0  0  0  0  0
   11.0633  -17.2433   29.5931 C   0  0  0  0  0  0  0  0  0  0  0  0
   10.8082  -17.3254   28.2390 C   0  0  0  0  0  0  0  0  0  0  0  0
   10.5493  -16.2127   27.4514 C   0  0  0  0  0  0  0  0  0  0  0  0
   10.2812  -16.3072   25.9976 C   0  0  1  0  0  0  0  0  0  0  0  0
   11.5126  -16.6870   25.2103 N   0  0  0  0  0  0  0  0  0  0  0  0
   11.1205  -16.7893   23.8044 C   0  0  0  0  0  0  0  0  0  0  0  0
   12.1071  -17.9651   25.6342 O   0  0  0  0  0  0  0  0  0  0  0  0
   11.6200  -19.0859   25.3417 C   0  0  0  0  0  0  0  0  0  0  0  0
   10.5545  -14.9922   28.0782 C   0  0  0  0  0  0  0  0  0  0  0  0
   10.8061  -14.8861   29.4262 O   0  0  0  0  0  0  0  0  0  0  0  0
  2  1  1  6
  2  3  1  0
  4  5  1  0
  4  2  1  0
  5  6  1  1
  7  8  2  0
  7  5  1  0
  9 10  1  0
 10 12  1  0
 10 11  2  0
 12 13  1  0
 13 14  1  0
 14 15  1  0
 16 15  1  6
 16 18  1  0
 16 17  1  0
 17  7  1  0
 18 27  1  0
 19 18  2  0
 21 20  1  0
 22 21  2  0
 23 22  1  0
 24 30  1  0
 24 23  2  0
 25 24  1  0
 26 25  1  6
 27 26  1  0
 28 26  1  0
 29 28  2  0
 30 31  2  0
 31 21  1  0
 32 28  1  0
M  END
$$$$
