LRY.pdb
     RDKit          3D

 32 32  0  0  1  0  0  0  0  0999 V2000
    8.7115  -12.0551   19.3897 C   0  0  0  0  0  0  0  0  0  0  0  0
    7.8650  -13.2260   18.8945 C   0  0  2  0  0  0  0  0  0  0  0  0
    6.4932  -12.6639   18.6141 C   0  0  0  0  0  0  0  0  0  0  0  0
    7.8618  -14.3457   19.9084 C   0  0  0  0  0  0  0  0  0  0  0  0
    9.2808  -14.6296   20.2967 C   0  0  2  0  0  0  0  0  0  0  0  0
   10.1071  -14.8335   19.1269 N   0  0  0  0  0  0  0  0  0  0  0  0
    9.4319  -15.7529   21.2192 C   0  0  0  0  0  0  0  0  0  0  0  0
    8.6426  -15.8728   22.1860 O   0  0  0  0  0  0  0  0  0  0  0  0
   13.4252  -22.6611   18.6446 N   0  0  0  0  0  0  0  0  0  0  0  0
   13.6367  -21.2569   18.7684 C   0  0  0  0  0  0  0  0  0  0  0  0
   14.6582  -20.7206   18.2168 N   0  0  0  0  0  0  0  0  0  0  0  0
   12.7131  -20.4750   19.5003 N   0  0  0  0  0  0  0  0  0  0  0  0
   11.5773  -21.0650   20.1970 C   0  0  0  0  0  0  0  0  0  0  0  0
   10.7211  -20.0128   20.8275 C   0  0  0  0  0  0  0  0  0  0  0  0
   11.4496  -18.9719   21.6134 C   0  0  0  0  0  0  0  0  0  0  0  0
   10.6706  -17.7940   22.0515 C   0  0  2  0  0  0  0  0  0  0  0  0
   10.4451  -16.7585   21.0981 N   0  0  0  0  0  0  0  0  0  0  0  0
   11.4763  -17.1437   23.1595 C   0  0  0  0  0  0  0  0  0  0  0  0
   12.2535  -16.1851   22.9409 O   0  0  0  0  0  0  0  0  0  0  0  0
   14.9349  -19.7241   18.2714 O   0  0  0  0  0  0  0  0  0  0  0  0
    8.2498  -12.2352   29.2530 C   0  0  0  0  0  0  0  0  0  0  0  0
    8.6651  -13.1645   28.3244 C   0  0  0  0  0  0  0  0  0  0  0  0
    9.6725  -14.0762   28.5595 C   0  0  0  0  0  0  0  0  0  0  0  0
   10.0271  -14.9743   27.5730 C   0  0  0  0  0  0  0  0  0  0  0  0
    9.4121  -15.0110   26.3298 C   0  0  0  0  0  0  0  0  0  0  0  0
    9.8009  -15.9742   25.2736 C   0  0  1  0  0  0  0  0  0  0  0  0
   11.1120  -16.6597   25.5764 N   0  0  0  0  0  0  0  0  0  0  0  0
   11.3695  -17.6115   24.4954 C   0  0  0  0  0  0  0  0  0  0  0  0
   11.1119  -17.3824   26.8587 O   0  0  0  0  0  0  0  0  0  0  0  0
   10.6356  -18.5362   27.0030 C   0  0  0  0  0  0  0  0  0  0  0  0
    8.4107  -14.1005   26.1042 C   0  0  0  0  0  0  0  0  0  0  0  0
    8.0404  -13.1963   27.0721 O   0  0  0  0  0  0  0  0  0  0  0  0
  2  1  1  1
  2  3  1  0
  4  5  1  0
  4  2  1  0
  5  6  1  6
  7  8  2  0
  7  5  1  0
  9 10  1  0
 10 12  1  0
 10 11  2  0
 12 13  1  0
 13 14  1  0
 14 15  1  0
 16 15  1  6
 16 18  1  0
 16 17  1  0
 17  7  1  0
 18 27  1  0
 19 18  2  0
 21 20  1  0
 22 21  2  0
 23 22  1  0
 24 30  1  0
 24 23  2  0
 25 24  1  0
 26 25  1  6
 27 26  1  0
 28 26  1  0
 29 28  2  0
 30 31  2  0
 31 21  1  0
 32 28  1  0
M  END
$$$$
