LRY.pdb
     RDKit          3D

 32 32  0  0  1  0  0  0  0  0999 V2000
    8.5310  -12.9551   19.4809 C   0  0  0  0  0  0  0  0  0  0  0  0
    7.5779  -13.2366   20.6407 C   0  0  2  0  0  0  0  0  0  0  0  0
    7.0816  -11.8923   21.1127 C   0  0  0  0  0  0  0  0  0  0  0  0
    8.2734  -14.0347   21.7183 C   0  0  0  0  0  0  0  0  0  0  0  0
    8.5593  -15.4022   21.1772 C   0  0  2  0  0  0  0  0  0  0  0  0
    7.3430  -16.0497   20.7364 N   0  0  0  0  0  0  0  0  0  0  0  0
    9.2815  -16.2702   22.1049 C   0  0  0  0  0  0  0  0  0  0  0  0
    8.6818  -16.7609   23.0906 O   0  0  0  0  0  0  0  0  0  0  0  0
   10.9219  -21.3558   20.3946 N   0  0  0  0  0  0  0  0  0  0  0  0
   11.7544  -21.2030   19.2478 C   0  0  0  0  0  0  0  0  0  0  0  0
   11.3943  -21.7149   18.1326 N   0  0  0  0  0  0  0  0  0  0  0  0
   12.9688  -20.4866   19.3588 N   0  0  0  0  0  0  0  0  0  0  0  0
   13.3486  -19.7873   20.5795 C   0  0  0  0  0  0  0  0  0  0  0  0
   12.1925  -19.0317   21.1542 C   0  0  0  0  0  0  0  0  0  0  0  0
   12.4817  -18.2544   22.3966 C   0  0  0  0  0  0  0  0  0  0  0  0
   11.4009  -17.3875   22.9131 C   0  0  2  0  0  0  0  0  0  0  0  0
   10.6658  -16.6133   21.9684 N   0  0  0  0  0  0  0  0  0  0  0  0
   12.0705  -16.3738   23.8207 C   0  0  0  0  0  0  0  0  0  0  0  0
   13.1110  -15.7633   23.4810 O   0  0  0  0  0  0  0  0  0  0  0  0
   11.8853  -21.6217   17.2255 O   0  0  0  0  0  0  0  0  0  0  0  0
    6.2438  -14.5037   27.7748 C   0  0  0  0  0  0  0  0  0  0  0  0
    7.5899  -14.4037   27.4982 C   0  0  0  0  0  0  0  0  0  0  0  0
    8.5651  -14.3645   28.4723 C   0  0  0  0  0  0  0  0  0  0  0  0
    9.8928  -14.2633   28.1082 C   0  0  0  0  0  0  0  0  0  0  0  0
   10.3095  -14.1970   26.7864 C   0  0  0  0  0  0  0  0  0  0  0  0
   11.7357  -14.0834   26.4026 C   0  0  1  0  0  0  0  0  0  0  0  0
   12.3595  -15.4266   26.1071 N   0  0  0  0  0  0  0  0  0  0  0  0
   11.5272  -16.0850   25.0998 C   0  0  0  0  0  0  0  0  0  0  0  0
   12.4580  -16.2986   27.2889 O   0  0  0  0  0  0  0  0  0  0  0  0
   11.8471  -17.3915   27.3957 C   0  0  0  0  0  0  0  0  0  0  0  0
    9.3328  -14.2367   25.8235 C   0  0  0  0  0  0  0  0  0  0  0  0
    8.0037  -14.3374   26.1626 O   0  0  0  0  0  0  0  0  0  0  0  0
  2  1  1  6
  2  3  1  0
  4  5  1  0
  4  2  1  0
  5  6  1  1
  7  8  2  0
  7  5  1  0
  9 10  1  0
 10 12  1  0
 10 11  2  0
 12 13  1  0
 13 14  1  0
 14 15  1  0
 16 15  1  6
 16 18  1  0
 16 17  1  0
 17  7  1  0
 18 27  1  0
 19 18  2  0
 21 20  1  0
 22 21  2  0
 23 22  1  0
 24 30  1  0
 24 23  2  0
 25 24  1  0
 26 25  1  6
 27 26  1  0
 28 26  1  0
 29 28  2  0
 30 31  2  0
 31 21  1  0
 32 28  1  0
M  END
$$$$
