LRY.pdb
     RDKit          3D

 32 32  0  0  1  0  0  0  0  0999 V2000
    5.5584  -11.9316   26.6601 C   0  0  0  0  0  0  0  0  0  0  0  0
    6.6059  -12.7203   27.4433 C   0  0  2  0  0  0  0  0  0  0  0  0
    7.3706  -11.7078   28.2598 C   0  0  0  0  0  0  0  0  0  0  0  0
    7.4784  -13.5215   26.5060 C   0  0  0  0  0  0  0  0  0  0  0  0
    6.6051  -14.4860   25.7632 C   0  0  2  0  0  0  0  0  0  0  0  0
    6.1324  -15.5366   26.6383 N   0  0  0  0  0  0  0  0  0  0  0  0
    7.2328  -15.0656   24.5776 C   0  0  0  0  0  0  0  0  0  0  0  0
    7.7646  -16.1990   24.6480 O   0  0  0  0  0  0  0  0  0  0  0  0
    8.5616  -13.4854   16.4432 N   0  0  0  0  0  0  0  0  0  0  0  0
    8.8252  -14.8862   16.4559 C   0  0  0  0  0  0  0  0  0  0  0  0
    9.4175  -15.4269   15.4599 N   0  0  0  0  0  0  0  0  0  0  0  0
    8.4278  -15.6598   17.5711 N   0  0  0  0  0  0  0  0  0  0  0  0
    7.7365  -15.0766   18.7137 C   0  0  0  0  0  0  0  0  0  0  0  0
    8.7045  -14.6248   19.7609 C   0  0  0  0  0  0  0  0  0  0  0  0
    8.0973  -14.0227   20.9858 C   0  0  0  0  0  0  0  0  0  0  0  0
    8.0970  -14.8501   22.2112 C   0  0  2  0  0  0  0  0  0  0  0  0
    7.2877  -14.4165   23.3017 N   0  0  0  0  0  0  0  0  0  0  0  0
    9.5187  -14.8242   22.7381 C   0  0  0  0  0  0  0  0  0  0  0  0
   10.1154  -13.7505   22.9871 O   0  0  0  0  0  0  0  0  0  0  0  0
    9.6792  -16.4246   15.3670 O   0  0  0  0  0  0  0  0  0  0  0  0
    8.7305  -14.8037   29.0365 C   0  0  0  0  0  0  0  0  0  0  0  0
    9.4252  -15.3619   27.9856 C   0  0  0  0  0  0  0  0  0  0  0  0
    9.3587  -16.6990   27.6553 C   0  0  0  0  0  0  0  0  0  0  0  0
   10.0882  -17.1770   26.5853 C   0  0  0  0  0  0  0  0  0  0  0  0
   10.9030  -16.3680   25.8064 C   0  0  0  0  0  0  0  0  0  0  0  0
   11.6873  -16.8884   24.6624 C   0  0  2  0  0  0  0  0  0  0  0  0
   11.6023  -15.9893   23.4519 N   0  0  0  0  0  0  0  0  0  0  0  0
   10.2226  -16.0353   22.9670 C   0  0  0  0  0  0  0  0  0  0  0  0
   12.5054  -16.3902   22.3608 O   0  0  0  0  0  0  0  0  0  0  0  0
   13.7581  -16.3444   22.4470 C   0  0  0  0  0  0  0  0  0  0  0  0
   10.9634  -15.0390   26.1417 C   0  0  0  0  0  0  0  0  0  0  0  0
   10.2454  -14.5402   27.2035 O   0  0  0  0  0  0  0  0  0  0  0  0
  2  1  1  6
  2  3  1  0
  4  5  1  0
  4  2  1  0
  5  6  1  1
  7  8  2  0
  7  5  1  0
  9 10  1  0
 10 12  1  0
 10 11  2  0
 12 13  1  0
 13 14  1  0
 14 15  1  0
 16 15  1  6
 16 18  1  0
 16 17  1  0
 17  7  1  0
 18 27  1  0
 19 18  2  0
 21 20  1  0
 22 21  2  0
 23 22  1  0
 24 30  1  0
 24 23  2  0
 25 24  1  0
 26 25  1  1
 27 26  1  0
 28 26  1  0
 29 28  2  0
 30 31  2  0
 31 21  1  0
 32 28  1  0
M  END
$$$$
