LRY.pdb
     RDKit          3D

 32 32  0  0  1  0  0  0  0  0999 V2000
    6.0064  -11.6852   24.2380 C   0  0  0  0  0  0  0  0  0  0  0  0
    6.1873  -12.5373   25.4925 C   0  0  2  0  0  0  0  0  0  0  0  0
    6.5476  -11.5805   26.6022 C   0  0  0  0  0  0  0  0  0  0  0  0
    7.2250  -13.6103   25.2612 C   0  0  0  0  0  0  0  0  0  0  0  0
    6.6613  -14.6058   24.2938 C   0  0  2  0  0  0  0  0  0  0  0  0
    5.4494  -15.2025   24.8117 N   0  0  0  0  0  0  0  0  0  0  0  0
    7.6041  -15.6496   23.8970 C   0  0  0  0  0  0  0  0  0  0  0  0
    7.7874  -16.6381   24.6463 O   0  0  0  0  0  0  0  0  0  0  0  0
    8.4831  -19.3062   18.4355 N   0  0  0  0  0  0  0  0  0  0  0  0
    8.2114  -18.3313   17.4317 C   0  0  0  0  0  0  0  0  0  0  0  0
    7.3579  -18.5890   16.5150 N   0  0  0  0  0  0  0  0  0  0  0  0
    8.8901  -17.0910   17.4632 N   0  0  0  0  0  0  0  0  0  0  0  0
    9.8280  -16.7461   18.5239 C   0  0  0  0  0  0  0  0  0  0  0  0
    9.2036  -16.9064   19.8737 C   0  0  0  0  0  0  0  0  0  0  0  0
   10.0284  -16.4371   21.0274 C   0  0  0  0  0  0  0  0  0  0  0  0
    9.4179  -16.5294   22.3708 C   0  0  2  0  0  0  0  0  0  0  0  0
    8.3576  -15.6277   22.6788 N   0  0  0  0  0  0  0  0  0  0  0  0
   10.5196  -16.1976   23.3587 C   0  0  0  0  0  0  0  0  0  0  0  0
   10.8732  -15.0171   23.5874 O   0  0  0  0  0  0  0  0  0  0  0  0
    7.0944  -17.9698   15.7278 O   0  0  0  0  0  0  0  0  0  0  0  0
   11.9672  -15.5419   31.6484 C   0  0  0  0  0  0  0  0  0  0  0  0
   11.6160  -15.8016   30.3416 C   0  0  0  0  0  0  0  0  0  0  0  0
   11.2541  -17.0517   29.8859 C   0  0  0  0  0  0  0  0  0  0  0  0
   10.9161  -17.2253   28.5588 C   0  0  0  0  0  0  0  0  0  0  0  0
   10.9206  -16.1879   27.6374 C   0  0  0  0  0  0  0  0  0  0  0  0
   10.5616  -16.3820   26.2133 C   0  0  1  0  0  0  0  0  0  0  0  0
   11.6934  -16.9804   25.4124 N   0  0  0  0  0  0  0  0  0  0  0  0
   11.1902  -17.2323   24.0618 C   0  0  0  0  0  0  0  0  0  0  0  0
   12.2050  -18.2412   25.9740 O   0  0  0  0  0  0  0  0  0  0  0  0
   11.6686  -19.3587   25.7681 C   0  0  0  0  0  0  0  0  0  0  0  0
   11.2818  -14.9474   28.0991 C   0  0  0  0  0  0  0  0  0  0  0  0
   11.6224  -14.7506   29.4170 O   0  0  0  0  0  0  0  0  0  0  0  0
  2  1  1  6
  2  3  1  0
  4  5  1  0
  4  2  1  0
  5  6  1  1
  7  8  2  0
  7  5  1  0
  9 10  1  0
 10 12  1  0
 10 11  2  0
 12 13  1  0
 13 14  1  0
 14 15  1  0
 16 15  1  6
 16 18  1  0
 16 17  1  0
 17  7  1  0
 18 27  1  0
 19 18  2  0
 21 20  1  0
 22 21  2  0
 23 22  1  0
 24 30  1  0
 24 23  2  0
 25 24  1  0
 26 25  1  6
 27 26  1  0
 28 26  1  0
 29 28  2  0
 30 31  2  0
 31 21  1  0
 32 28  1  0
M  END
$$$$
