CHE.pdb
     RDKit          3D

 26 26  0  0  1  0  0  0  0  0999 V2000
   14.6966  -11.6687  -11.0771 N   0  0  0  0  0  0  0  0  0  0  0  0
   15.8615  -10.9273  -10.7126 C   0  0  1  0  0  0  0  0  0  0  0  0
   16.9643  -11.1864  -11.7243 C   0  0  0  0  0  0  0  0  0  0  0  0
   17.4667  -12.9208  -11.5600 S   0  0  0  0  0  0  0  0  0  0  0  0
   15.5889   -9.4430  -10.6186 C   0  0  0  0  0  0  0  0  0  0  0  0
   14.9431   -8.9563  -11.5476 O   0  0  0  0  0  0  0  0  0  0  0  0
   16.0577   -8.6877   -9.5222 N   0  0  0  0  0  0  0  0  0  0  0  0
   15.8765   -7.3260   -9.2625 C   0  0  1  0  0  0  0  0  0  0  0  0
   15.2119   -6.9641   -7.9270 C   0  0  0  0  0  0  0  0  0  0  0  0
   13.7525   -7.2373   -7.9166 C   0  0  0  0  0  0  0  0  0  0  0  0
   13.0113   -7.7288   -9.0045 C   0  0  0  0  0  0  0  0  0  0  0  0
   11.7444   -7.8470   -8.6274 N   0  0  0  0  0  0  0  0  0  0  0  0
   11.6142   -7.4591   -7.3491 C   0  0  0  0  0  0  0  0  0  0  0  0
   12.8329   -7.1024   -6.9588 N   0  0  0  0  0  0  0  0  0  0  0  0
   16.9678   -6.3980   -9.5387 C   0  0  0  0  0  0  0  0  0  0  0  0
   18.0613   -6.5659   -8.8913 O   0  0  0  0  0  0  0  0  0  0  0  0
   16.9150   -5.3325  -10.4603 N   0  0  0  0  0  0  0  0  0  0  0  0
   18.1384   -4.7198  -11.0092 C   0  0  1  0  0  0  0  0  0  0  0  0
   18.9976   -5.7539  -11.6519 C   0  0  0  0  0  0  0  0  0  0  0  0
   20.2379   -5.1659  -12.2481 C   0  0  0  0  0  0  0  0  0  0  0  0
   21.1156   -6.1565  -12.9022 C   0  0  0  0  0  0  0  0  0  0  0  0
   20.8967   -7.3661  -13.0039 O   0  0  0  0  0  0  0  0  0  0  0  0
   17.8050   -3.6413  -11.9387 C   0  0  0  0  0  0  0  0  0  0  0  0
   18.6830   -2.5281  -12.0485 O   0  0  0  0  0  0  0  0  0  0  0  0
   22.3111   -5.6761  -13.4603 O   0  0  0  0  0  0  0  0  0  0  0  0
   16.8111   -3.5842  -12.6681 O   0  0  0  0  0  0  0  0  0  0  0  0
  2  5  1  0
  2  1  1  6
  3  2  1  0
  4  3  1  0
  5  6  2  0
  7  8  1  0
  7  5  1  0
  9 10  1  0
  8  9  1  1
 10 11  2  0
 11 12  1  0
 13 12  1  0
 14 10  1  0
 14 13  2  0
 15  8  1  0
 15 16  2  0
 17 15  1  0
 18 17  1  0
 18 23  1  0
 18 19  1  6
 20 21  1  0
 20 19  1  0
 21 25  1  0
 22 21  2  0
 23 26  2  0
 23 24  1  0
M  END
$$$$
