CHE.pdb
     RDKit          3D

 26 26  0  0  1  0  0  0  0  0999 V2000
   28.1132  -19.3400  -14.7054 N   0  0  0  0  0  0  0  0  0  0  0  0
   26.8737  -20.0037  -14.9563 C   0  0  1  0  0  0  0  0  0  0  0  0
   26.7943  -21.2645  -14.1132 C   0  0  0  0  0  0  0  0  0  0  0  0
   26.7459  -20.7612  -12.3720 S   0  0  0  0  0  0  0  0  0  0  0  0
   25.6822  -19.1180  -14.6698 C   0  0  0  0  0  0  0  0  0  0  0  0
   25.7300  -18.4778  -13.6187 O   0  0  0  0  0  0  0  0  0  0  0  0
   24.5969  -19.0492  -15.5697 N   0  0  0  0  0  0  0  0  0  0  0  0
   23.4698  -18.2240  -15.5122 C   0  0  1  0  0  0  0  0  0  0  0  0
   23.3959  -17.0896  -16.5435 C   0  0  0  0  0  0  0  0  0  0  0  0
   24.5190  -16.1259  -16.4219 C   0  0  0  0  0  0  0  0  0  0  0  0
   24.6909  -15.2088  -15.3712 C   0  0  0  0  0  0  0  0  0  0  0  0
   25.7998  -14.5162  -15.5988 N   0  0  0  0  0  0  0  0  0  0  0  0
   26.3654  -14.9298  -16.7434 C   0  0  0  0  0  0  0  0  0  0  0  0
   25.5731  -15.8907  -17.2058 N   0  0  0  0  0  0  0  0  0  0  0  0
   22.1526  -18.8297  -15.3488 C   0  0  0  0  0  0  0  0  0  0  0  0
   21.9475  -19.9565  -15.9244 O   0  0  0  0  0  0  0  0  0  0  0  0
   21.0888  -18.2744  -14.6088 N   0  0  0  0  0  0  0  0  0  0  0  0
   19.7907  -18.9612  -14.4810 C   0  0  1  0  0  0  0  0  0  0  0  0
   18.8506  -18.1523  -13.6550 C   0  0  0  0  0  0  0  0  0  0  0  0
   17.5565  -18.8640  -13.4129 C   0  0  0  0  0  0  0  0  0  0  0  0
   16.5370  -18.0389  -12.7353 C   0  0  0  0  0  0  0  0  0  0  0  0
   16.6630  -16.8587  -12.4000 O   0  0  0  0  0  0  0  0  0  0  0  0
   19.2314  -19.2603  -15.7986 C   0  0  0  0  0  0  0  0  0  0  0  0
   18.6310  -20.5298  -16.0221 O   0  0  0  0  0  0  0  0  0  0  0  0
   15.3096  -18.6562  -12.4457 O   0  0  0  0  0  0  0  0  0  0  0  0
   19.2189  -18.5079  -16.7768 O   0  0  0  0  0  0  0  0  0  0  0  0
  2  5  1  0
  2  1  1  1
  3  2  1  0
  4  3  1  0
  5  6  2  0
  7  8  1  0
  7  5  1  0
  9 10  1  0
  8  9  1  6
 10 11  2  0
 11 12  1  0
 13 12  1  0
 14 10  1  0
 14 13  2  0
 15  8  1  0
 15 16  2  0
 17 15  1  0
 18 17  1  0
 18 23  1  0
 18 19  1  6
 20 21  1  0
 20 19  1  0
 21 25  1  0
 22 21  2  0
 23 26  2  0
 23 24  1  0
M  END
$$$$
