CHE.pdb
     RDKit          3D

 26 26  0  0  1  0  0  0  0  0999 V2000
   26.3235  -20.2437   -9.1120 N   0  0  0  0  0  0  0  0  0  0  0  0
   25.5905  -20.9020  -10.1458 C   0  0  1  0  0  0  0  0  0  0  0  0
   24.1349  -21.0309   -9.7318 C   0  0  0  0  0  0  0  0  0  0  0  0
   23.2690  -21.9437  -11.0373 S   0  0  0  0  0  0  0  0  0  0  0  0
   25.6862  -20.1740  -11.4676 C   0  0  0  0  0  0  0  0  0  0  0  0
   24.9798  -19.1714  -11.5802 O   0  0  0  0  0  0  0  0  0  0  0  0
   26.5411  -20.6379  -12.4906 N   0  0  0  0  0  0  0  0  0  0  0  0
   26.7388  -20.1047  -13.7678 C   0  0  1  0  0  0  0  0  0  0  0  0
   28.1235  -20.3193  -14.3946 C   0  0  0  0  0  0  0  0  0  0  0  0
   28.2512  -19.6977  -15.7370 C   0  0  0  0  0  0  0  0  0  0  0  0
   27.2460  -18.9652  -16.3909 C   0  0  0  0  0  0  0  0  0  0  0  0
   27.7173  -18.5662  -17.5656 N   0  0  0  0  0  0  0  0  0  0  0  0
   28.9789  -18.9979  -17.7179 C   0  0  0  0  0  0  0  0  0  0  0  0
   29.2628  -19.6690  -16.6071 N   0  0  0  0  0  0  0  0  0  0  0  0
   25.7047  -20.2839  -14.7812 C   0  0  0  0  0  0  0  0  0  0  0  0
   25.4235  -21.4851  -15.1291 O   0  0  0  0  0  0  0  0  0  0  0  0
   24.9910  -19.2416  -15.4071 N   0  0  0  0  0  0  0  0  0  0  0  0
   23.8471  -19.5100  -16.2975 C   0  0  1  0  0  0  0  0  0  0  0  0
   22.6727  -19.9827  -15.5114 C   0  0  0  0  0  0  0  0  0  0  0  0
   21.8246  -18.8489  -15.0269 C   0  0  0  0  0  0  0  0  0  0  0  0
   20.5577  -19.2742  -14.3997 C   0  0  0  0  0  0  0  0  0  0  0  0
   20.4452  -19.9272  -13.3594 O   0  0  0  0  0  0  0  0  0  0  0  0
   23.5228  -18.3276  -17.0943 C   0  0  0  0  0  0  0  0  0  0  0  0
   23.9782  -17.0535  -16.6567 O   0  0  0  0  0  0  0  0  0  0  0  0
   19.3701  -18.9000  -15.0488 O   0  0  0  0  0  0  0  0  0  0  0  0
   22.8749  -18.3075  -18.1446 O   0  0  0  0  0  0  0  0  0  0  0  0
  2  5  1  0
  2  1  1  1
  3  2  1  0
  4  3  1  0
  5  6  2  0
  7  8  1  0
  7  5  1  0
  9 10  1  0
  8  9  1  6
 10 11  2  0
 11 12  1  0
 13 12  1  0
 14 10  1  0
 14 13  2  0
 15  8  1  0
 15 16  2  0
 17 15  1  0
 18 17  1  0
 18 23  1  0
 18 19  1  1
 20 21  1  0
 20 19  1  0
 21 25  1  0
 22 21  2  0
 23 26  2  0
 23 24  1  0
M  END
$$$$
