CHE.pdb
     RDKit          3D

 26 26  0  0  1  0  0  0  0  0999 V2000
   21.3640  -12.5063  -17.7684 N   0  0  0  0  0  0  0  0  0  0  0  0
   20.7592  -12.1474  -16.5254 C   0  0  1  0  0  0  0  0  0  0  0  0
   21.8341  -12.0022  -15.4622 C   0  0  0  0  0  0  0  0  0  0  0  0
   22.4780  -13.6578  -15.0995 S   0  0  0  0  0  0  0  0  0  0  0  0
   19.9601  -10.8677  -16.6263 C   0  0  0  0  0  0  0  0  0  0  0  0
   20.4629   -9.9736  -17.3080 O   0  0  0  0  0  0  0  0  0  0  0  0
   18.7178  -10.7350  -15.9694 N   0  0  0  0  0  0  0  0  0  0  0  0
   17.8591   -9.6320  -15.9464 C   0  0  1  0  0  0  0  0  0  0  0  0
   16.3566   -9.9333  -15.8571 C   0  0  0  0  0  0  0  0  0  0  0  0
   15.5248   -8.7047  -15.7980 C   0  0  0  0  0  0  0  0  0  0  0  0
   14.8003   -8.2687  -14.6758 C   0  0  0  0  0  0  0  0  0  0  0  0
   14.1798   -7.1391  -14.9924 N   0  0  0  0  0  0  0  0  0  0  0  0
   14.4585   -6.8100  -16.2634 C   0  0  0  0  0  0  0  0  0  0  0  0
   15.2634   -7.7673  -16.7113 N   0  0  0  0  0  0  0  0  0  0  0  0
   18.1861   -8.4937  -15.0945 C   0  0  0  0  0  0  0  0  0  0  0  0
   18.3865   -8.7282  -13.8503 O   0  0  0  0  0  0  0  0  0  0  0  0
   18.2993   -7.1580  -15.5309 N   0  0  0  0  0  0  0  0  0  0  0  0
   18.6039   -6.0594  -14.5963 C   0  0  1  0  0  0  0  0  0  0  0  0
   20.0755   -5.9346  -14.3983 C   0  0  0  0  0  0  0  0  0  0  0  0
   20.8195   -5.9105  -15.6966 C   0  0  0  0  0  0  0  0  0  0  0  0
   22.2753   -5.7151  -15.5490 C   0  0  0  0  0  0  0  0  0  0  0  0
   22.8646   -5.3994  -14.5124 O   0  0  0  0  0  0  0  0  0  0  0  0
   18.0135   -4.8051  -15.0616 C   0  0  0  0  0  0  0  0  0  0  0  0
   17.3124   -4.7888  -16.2987 O   0  0  0  0  0  0  0  0  0  0  0  0
   23.0619   -5.9065  -16.6962 O   0  0  0  0  0  0  0  0  0  0  0  0
   18.0543   -3.7168  -14.4810 O   0  0  0  0  0  0  0  0  0  0  0  0
  2  5  1  0
  2  1  1  6
  3  2  1  0
  4  3  1  0
  5  6  2  0
  7  8  1  0
  7  5  1  0
  9 10  1  0
  8  9  1  1
 10 11  2  0
 11 12  1  0
 13 12  1  0
 14 10  1  0
 14 13  2  0
 15  8  1  0
 15 16  2  0
 17 15  1  0
 18 17  1  0
 18 23  1  0
 18 19  1  6
 20 21  1  0
 20 19  1  0
 21 25  1  0
 22 21  2  0
 23 26  2  0
 23 24  1  0
M  END
$$$$
