CHE.pdb
     RDKit          3D

 26 26  0  0  1  0  0  0  0  0999 V2000
   24.8328  -11.7714  -17.6318 N   0  0  0  0  0  0  0  0  0  0  0  0
   24.7716  -11.1036  -16.3709 C   0  0  1  0  0  0  0  0  0  0  0  0
   26.1178  -10.4690  -16.0677 C   0  0  0  0  0  0  0  0  0  0  0  0
   27.2966  -11.8070  -15.7396 S   0  0  0  0  0  0  0  0  0  0  0  0
   23.6871  -10.0506  -16.3331 C   0  0  0  0  0  0  0  0  0  0  0  0
   23.5528   -9.3818  -17.3586 O   0  0  0  0  0  0  0  0  0  0  0  0
   22.8933   -9.8685  -15.1803 N   0  0  0  0  0  0  0  0  0  0  0  0
   21.8678   -8.9424  -14.9673 C   0  0  1  0  0  0  0  0  0  0  0  0
   20.6938   -9.4066  -14.0941 C   0  0  0  0  0  0  0  0  0  0  0  0
   19.8052  -10.3723  -14.7887 C   0  0  0  0  0  0  0  0  0  0  0  0
   19.9917  -10.8504  -16.0969 C   0  0  0  0  0  0  0  0  0  0  0  0
   19.0054  -11.6926  -16.3781 N   0  0  0  0  0  0  0  0  0  0  0  0
   18.1809  -11.7930  -15.3239 C   0  0  0  0  0  0  0  0  0  0  0  0
   18.6902  -10.9912  -14.3952 N   0  0  0  0  0  0  0  0  0  0  0  0
   22.2119   -7.5630  -14.6397 C   0  0  0  0  0  0  0  0  0  0  0  0
   22.9760   -7.3713  -13.6286 O   0  0  0  0  0  0  0  0  0  0  0  0
   21.7712   -6.4256  -15.3466 N   0  0  0  0  0  0  0  0  0  0  0  0
   22.1779   -5.0635  -14.9562 C   0  0  1  0  0  0  0  0  0  0  0  0
   21.7753   -4.0787  -15.9995 C   0  0  0  0  0  0  0  0  0  0  0  0
   22.2144   -2.6883  -15.6625 C   0  0  0  0  0  0  0  0  0  0  0  0
   21.7940   -1.6722  -16.6474 C   0  0  0  0  0  0  0  0  0  0  0  0
   21.0221   -0.7332  -16.4383 O   0  0  0  0  0  0  0  0  0  0  0  0
   21.6307   -4.7155  -13.6455 C   0  0  0  0  0  0  0  0  0  0  0  0
   22.3799   -3.8633  -12.7884 O   0  0  0  0  0  0  0  0  0  0  0  0
   22.3225   -1.7861  -17.9433 O   0  0  0  0  0  0  0  0  0  0  0  0
   20.5509   -5.0901  -13.1799 O   0  0  0  0  0  0  0  0  0  0  0  0
  2  5  1  0
  2  1  1  6
  3  2  1  0
  4  3  1  0
  5  6  2  0
  7  8  1  0
  7  5  1  0
  9 10  1  0
  8  9  1  1
 10 11  2  0
 11 12  1  0
 13 12  1  0
 14 10  1  0
 14 13  2  0
 15  8  1  0
 15 16  2  0
 17 15  1  0
 18 17  1  0
 18 23  1  0
 18 19  1  6
 20 21  1  0
 20 19  1  0
 21 25  1  0
 22 21  2  0
 23 26  2  0
 23 24  1  0
M  END
$$$$
