CHE.pdb
     RDKit          3D

 26 26  0  0  1  0  0  0  0  0999 V2000
   24.1308  -20.1147  -10.7668 N   0  0  0  0  0  0  0  0  0  0  0  0
   25.4756  -20.2610  -11.2246 C   0  0  1  0  0  0  0  0  0  0  0  0
   26.0787  -21.5222  -10.6309 C   0  0  0  0  0  0  0  0  0  0  0  0
   26.3530  -21.2232   -8.8638 S   0  0  0  0  0  0  0  0  0  0  0  0
   25.5644  -20.3100  -12.7332 C   0  0  0  0  0  0  0  0  0  0  0  0
   24.5001  -20.4857  -13.3278 O   0  0  0  0  0  0  0  0  0  0  0  0
   26.8037  -20.1603  -13.3919 N   0  0  0  0  0  0  0  0  0  0  0  0
   27.0583  -20.1061  -14.7655 C   0  0  1  0  0  0  0  0  0  0  0  0
   28.1848  -19.1671  -15.2187 C   0  0  0  0  0  0  0  0  0  0  0  0
   27.6941  -17.8166  -15.5929 C   0  0  0  0  0  0  0  0  0  0  0  0
   26.3458  -17.4215  -15.6183 C   0  0  0  0  0  0  0  0  0  0  0  0
   26.2901  -16.1514  -15.9988 N   0  0  0  0  0  0  0  0  0  0  0  0
   27.5304  -15.6912  -16.2248 C   0  0  0  0  0  0  0  0  0  0  0  0
   28.3412  -16.7128  -15.9723 N   0  0  0  0  0  0  0  0  0  0  0  0
   27.1142  -21.3487  -15.5280 C   0  0  0  0  0  0  0  0  0  0  0  0
   27.8600  -22.2861  -15.0717 O   0  0  0  0  0  0  0  0  0  0  0  0
   26.4136  -21.5998  -16.7253 N   0  0  0  0  0  0  0  0  0  0  0  0
   25.5709  -22.7974  -16.8948 C   0  0  1  0  0  0  0  0  0  0  0  0
   24.6787  -22.9798  -15.7153 C   0  0  0  0  0  0  0  0  0  0  0  0
   23.7919  -24.1768  -15.8583 C   0  0  0  0  0  0  0  0  0  0  0  0
   24.1786  -25.3144  -15.0006 C   0  0  0  0  0  0  0  0  0  0  0  0
   24.6686  -25.2392  -13.8712 O   0  0  0  0  0  0  0  0  0  0  0  0
   24.8098  -22.7227  -18.1411 C   0  0  0  0  0  0  0  0  0  0  0  0
   24.5782  -23.9144  -18.8815 O   0  0  0  0  0  0  0  0  0  0  0  0
   23.9689  -26.6020  -15.5198 O   0  0  0  0  0  0  0  0  0  0  0  0
   24.3253  -21.7047  -18.6433 O   0  0  0  0  0  0  0  0  0  0  0  0
  2  5  1  0
  2  1  1  6
  3  2  1  0
  4  3  1  0
  5  6  2  0
  7  8  1  0
  7  5  1  0
  9 10  1  0
  8  9  1  1
 10 11  2  0
 11 12  1  0
 13 12  1  0
 14 10  1  0
 14 13  2  0
 15  8  1  0
 15 16  2  0
 17 15  1  0
 18 17  1  0
 18 23  1  0
 18 19  1  1
 20 21  1  0
 20 19  1  0
 21 25  1  0
 22 21  2  0
 23 26  2  0
 23 24  1  0
M  END
$$$$
