CHE.pdb
     RDKit          3D

 26 26  0  0  1  0  0  0  0  0999 V2000
   22.0142  -18.9088  -15.4775 N   0  0  0  0  0  0  0  0  0  0  0  0
   20.8607  -18.0854  -15.3006 C   0  0  1  0  0  0  0  0  0  0  0  0
   20.4053  -18.1555  -13.8534 C   0  0  0  0  0  0  0  0  0  0  0  0
   19.8320  -19.8462  -13.5370 S   0  0  0  0  0  0  0  0  0  0  0  0
   21.1193  -16.6472  -15.6889 C   0  0  0  0  0  0  0  0  0  0  0  0
   22.0474  -16.0912  -15.1003 O   0  0  0  0  0  0  0  0  0  0  0  0
   20.3300  -16.0076  -16.6688 N   0  0  0  0  0  0  0  0  0  0  0  0
   20.4898  -14.7320  -17.2184 C   0  0  1  0  0  0  0  0  0  0  0  0
   20.3068  -14.6111  -18.7377 C   0  0  0  0  0  0  0  0  0  0  0  0
   20.6780  -13.2710  -19.2582 C   0  0  0  0  0  0  0  0  0  0  0  0
   21.9898  -12.8303  -19.5025 C   0  0  0  0  0  0  0  0  0  0  0  0
   21.9337  -11.5862  -19.9609 N   0  0  0  0  0  0  0  0  0  0  0  0
   20.6545  -11.1863  -20.0307 C   0  0  0  0  0  0  0  0  0  0  0  0
   19.9346  -12.2179  -19.6034 N   0  0  0  0  0  0  0  0  0  0  0  0
   19.8731  -13.5889  -16.5540 C   0  0  0  0  0  0  0  0  0  0  0  0
   18.7300  -13.7740  -16.0044 O   0  0  0  0  0  0  0  0  0  0  0  0
   20.4343  -12.2985  -16.4686 N   0  0  0  0  0  0  0  0  0  0  0  0
   19.8635  -11.2605  -15.5912 C   0  0  1  0  0  0  0  0  0  0  0  0
   20.9161  -10.2912  -15.1751 C   0  0  0  0  0  0  0  0  0  0  0  0
   20.3420   -9.1041  -14.4673 C   0  0  0  0  0  0  0  0  0  0  0  0
   21.3483   -8.0999  -14.0693 C   0  0  0  0  0  0  0  0  0  0  0  0
   21.9664   -7.3501  -14.8289 O   0  0  0  0  0  0  0  0  0  0  0  0
   18.7405  -10.5901  -16.2451 C   0  0  0  0  0  0  0  0  0  0  0  0
   17.6423  -10.1523  -15.4549 O   0  0  0  0  0  0  0  0  0  0  0  0
   21.6272   -7.9886  -12.6977 O   0  0  0  0  0  0  0  0  0  0  0  0
   18.6323  -10.3502  -17.4509 O   0  0  0  0  0  0  0  0  0  0  0  0
  2  5  1  0
  2  1  1  1
  3  2  1  0
  4  3  1  0
  5  6  2  0
  7  8  1  0
  7  5  1  0
  9 10  1  0
  8  9  1  6
 10 11  2  0
 11 12  1  0
 13 12  1  0
 14 10  1  0
 14 13  2  0
 15  8  1  0
 15 16  2  0
 17 15  1  0
 18 17  1  0
 18 23  1  0
 18 19  1  6
 20 21  1  0
 20 19  1  0
 21 25  1  0
 22 21  2  0
 23 26  2  0
 23 24  1  0
M  END
$$$$
