CHE.pdb
     RDKit          3D

 26 26  0  0  1  0  0  0  0  0999 V2000
   27.5334  -32.8812   -8.7962 N   0  0  0  0  0  0  0  0  0  0  0  0
   26.9996  -32.8150   -7.4732 C   0  0  1  0  0  0  0  0  0  0  0  0
   25.5430  -33.2448   -7.4924 C   0  0  0  0  0  0  0  0  0  0  0  0
   24.5670  -31.8569   -8.1314 S   0  0  0  0  0  0  0  0  0  0  0  0
   27.7757  -33.6728   -6.4994 C   0  0  0  0  0  0  0  0  0  0  0  0
   27.6177  -34.8891   -6.6120 O   0  0  0  0  0  0  0  0  0  0  0  0
   28.6214  -33.0880   -5.5325 N   0  0  0  0  0  0  0  0  0  0  0  0
   29.4255  -33.7232   -4.5814 C   0  0  1  0  0  0  0  0  0  0  0  0
   30.7585  -33.0412   -4.2435 C   0  0  0  0  0  0  0  0  0  0  0  0
   31.7667  -33.1784   -5.3250 C   0  0  0  0  0  0  0  0  0  0  0  0
   31.5968  -33.9261   -6.5025 C   0  0  0  0  0  0  0  0  0  0  0  0
   32.7016  -33.8170   -7.2295 N   0  0  0  0  0  0  0  0  0  0  0  0
   33.5884  -33.0371   -6.5917 C   0  0  0  0  0  0  0  0  0  0  0  0
   32.9954  -32.6750   -5.4594 N   0  0  0  0  0  0  0  0  0  0  0  0
   28.8123  -34.2402   -3.3627 C   0  0  0  0  0  0  0  0  0  0  0  0
   27.9295  -33.5072   -2.7914 O   0  0  0  0  0  0  0  0  0  0  0  0
   29.1134  -35.4808   -2.7646 N   0  0  0  0  0  0  0  0  0  0  0  0
   28.4951  -35.8999   -1.4937 C   0  0  1  0  0  0  0  0  0  0  0  0
   28.8883  -37.2973   -1.1570 C   0  0  0  0  0  0  0  0  0  0  0  0
   28.0884  -37.8501   -0.0195 C   0  0  0  0  0  0  0  0  0  0  0  0
   28.5510  -39.1703    0.4521 C   0  0  0  0  0  0  0  0  0  0  0  0
   29.7211  -39.4959    0.6671 O   0  0  0  0  0  0  0  0  0  0  0  0
   28.8379  -34.9690   -0.4194 C   0  0  0  0  0  0  0  0  0  0  0  0
   27.8631  -34.6683    0.5713 O   0  0  0  0  0  0  0  0  0  0  0  0
   27.5665  -40.1460    0.6764 O   0  0  0  0  0  0  0  0  0  0  0  0
   29.9184  -34.3925   -0.2670 O   0  0  0  0  0  0  0  0  0  0  0  0
  2  5  1  0
  2  1  1  6
  3  2  1  0
  4  3  1  0
  5  6  2  0
  7  8  1  0
  7  5  1  0
  9 10  1  0
  8  9  1  1
 10 11  2  0
 11 12  1  0
 13 12  1  0
 14 10  1  0
 14 13  2  0
 15  8  1  0
 15 16  2  0
 17 15  1  0
 18 17  1  0
 18 23  1  0
 18 19  1  1
 20 21  1  0
 20 19  1  0
 21 25  1  0
 22 21  2  0
 23 26  2  0
 23 24  1  0
M  END
$$$$
