CHE.pdb
     RDKit          3D

 26 26  0  0  1  0  0  0  0  0999 V2000
   15.4155   -5.6447   -8.5553 N   0  0  0  0  0  0  0  0  0  0  0  0
   16.1805   -6.7466   -9.0455 C   0  0  1  0  0  0  0  0  0  0  0  0
   15.2603   -7.9269   -9.3048 C   0  0  0  0  0  0  0  0  0  0  0  0
   14.8559   -8.6732   -7.7027 S   0  0  0  0  0  0  0  0  0  0  0  0
   16.9397   -6.4003  -10.3064 C   0  0  0  0  0  0  0  0  0  0  0  0
   16.3125   -5.7606  -11.1516 O   0  0  0  0  0  0  0  0  0  0  0  0
   18.2832   -6.7984  -10.4761 N   0  0  0  0  0  0  0  0  0  0  0  0
   19.1011   -6.6443  -11.5995 C   0  0  1  0  0  0  0  0  0  0  0  0
   20.6151   -6.6162  -11.3479 C   0  0  0  0  0  0  0  0  0  0  0  0
   21.3988   -6.3373  -12.5778 C   0  0  0  0  0  0  0  0  0  0  0  0
   21.7437   -5.0587  -13.0476 C   0  0  0  0  0  0  0  0  0  0  0  0
   22.4417   -5.1996  -14.1674 N   0  0  0  0  0  0  0  0  0  0  0  0
   22.5736   -6.5032  -14.4581 C   0  0  0  0  0  0  0  0  0  0  0  0
   21.9387   -7.1509  -13.4875 N   0  0  0  0  0  0  0  0  0  0  0  0
   18.8143   -7.4218  -12.8001 C   0  0  0  0  0  0  0  0  0  0  0  0
   18.8867   -8.6981  -12.7061 O   0  0  0  0  0  0  0  0  0  0  0  0
   18.4639   -6.8811  -14.0541 N   0  0  0  0  0  0  0  0  0  0  0  0
   18.3066   -7.7304  -15.2488 C   0  0  1  0  0  0  0  0  0  0  0  0
   16.8986   -8.2023  -15.3728 C   0  0  0  0  0  0  0  0  0  0  0  0
   15.9141   -7.0841  -15.2309 C   0  0  0  0  0  0  0  0  0  0  0  0
   14.5101   -7.4931  -15.4328 C   0  0  0  0  0  0  0  0  0  0  0  0
   13.9079   -8.3619  -14.7973 O   0  0  0  0  0  0  0  0  0  0  0  0
   18.7459   -7.0210  -16.4496 C   0  0  0  0  0  0  0  0  0  0  0  0
   19.1459   -5.6608  -16.3409 O   0  0  0  0  0  0  0  0  0  0  0  0
   13.7940   -6.8308  -16.4428 O   0  0  0  0  0  0  0  0  0  0  0  0
   18.8132   -7.4855  -17.5911 O   0  0  0  0  0  0  0  0  0  0  0  0
  2  5  1  0
  2  1  1  6
  3  2  1  0
  4  3  1  0
  5  6  2  0
  7  8  1  0
  7  5  1  0
  9 10  1  0
  8  9  1  1
 10 11  2  0
 11 12  1  0
 13 12  1  0
 14 10  1  0
 14 13  2  0
 15  8  1  0
 15 16  2  0
 17 15  1  0
 18 17  1  0
 18 23  1  0
 18 19  1  6
 20 21  1  0
 20 19  1  0
 21 25  1  0
 22 21  2  0
 23 26  2  0
 23 24  1  0
M  END
$$$$
