CHE.pdb
     RDKit          3D

 26 26  0  0  1  0  0  0  0  0999 V2000
   25.2701  -30.0674  -18.9949 N   0  0  0  0  0  0  0  0  0  0  0  0
   25.2439  -30.3164  -17.5889 C   0  0  1  0  0  0  0  0  0  0  0  0
   23.8257  -30.1504  -17.0711 C   0  0  0  0  0  0  0  0  0  0  0  0
   23.5620  -28.3870  -16.7418 S   0  0  0  0  0  0  0  0  0  0  0  0
   25.7593  -31.6950  -17.2422 C   0  0  0  0  0  0  0  0  0  0  0  0
   25.3287  -32.6184  -17.9341 O   0  0  0  0  0  0  0  0  0  0  0  0
   26.6769  -31.8815  -16.1860 N   0  0  0  0  0  0  0  0  0  0  0  0
   27.2558  -33.0720  -15.7362 C   0  0  1  0  0  0  0  0  0  0  0  0
   28.6083  -32.9504  -15.0206 C   0  0  0  0  0  0  0  0  0  0  0  0
   29.7107  -32.5570  -15.9342 C   0  0  0  0  0  0  0  0  0  0  0  0
   29.5835  -32.3540  -17.3188 C   0  0  0  0  0  0  0  0  0  0  0  0
   30.7718  -32.0139  -17.8018 N   0  0  0  0  0  0  0  0  0  0  0  0
   31.6730  -31.9828  -16.8077 C   0  0  0  0  0  0  0  0  0  0  0  0
   31.0031  -32.3123  -15.7088 N   0  0  0  0  0  0  0  0  0  0  0  0
   26.4217  -34.0545  -15.0526 C   0  0  0  0  0  0  0  0  0  0  0  0
   25.7144  -33.6417  -14.0665 O   0  0  0  0  0  0  0  0  0  0  0  0
   26.3321  -35.4203  -15.3903 N   0  0  0  0  0  0  0  0  0  0  0  0
   25.3587  -36.3178  -14.7421 C   0  0  1  0  0  0  0  0  0  0  0  0
   24.1640  -36.5086  -15.6120 C   0  0  0  0  0  0  0  0  0  0  0  0
   23.1455  -37.4067  -14.9829 C   0  0  0  0  0  0  0  0  0  0  0  0
   21.9761  -37.6799  -15.8415 C   0  0  0  0  0  0  0  0  0  0  0  0
   21.3998  -38.7638  -15.9609 O   0  0  0  0  0  0  0  0  0  0  0  0
   25.9826  -37.5937  -14.3944 C   0  0  0  0  0  0  0  0  0  0  0  0
   25.5413  -38.2845  -13.2325 O   0  0  0  0  0  0  0  0  0  0  0  0
   21.4735  -36.6048  -16.5919 O   0  0  0  0  0  0  0  0  0  0  0  0
   26.8826  -38.1628  -15.0184 O   0  0  0  0  0  0  0  0  0  0  0  0
  2  5  1  0
  2  1  1  6
  3  2  1  0
  4  3  1  0
  5  6  2  0
  7  8  1  0
  7  5  1  0
  9 10  1  0
  8  9  1  1
 10 11  2  0
 11 12  1  0
 13 12  1  0
 14 10  1  0
 14 13  2  0
 15  8  1  0
 15 16  2  0
 17 15  1  0
 18 17  1  0
 18 23  1  0
 18 19  1  6
 20 21  1  0
 20 19  1  0
 21 25  1  0
 22 21  2  0
 23 26  2  0
 23 24  1  0
M  END
$$$$
