PHG.pdb
     RDKit          3D

 22 23  0  0  1  0  0  0  0  0999 V2000
    9.8996  -18.4167   19.4065 N   0  0  0  0  0  0  0  0  0  0  0  0
    9.7315  -19.2212   18.2138 C   0  0  0  0  0  0  0  0  0  0  0  0
   10.2825  -18.4391   17.0690 C   0  0  0  0  0  0  0  0  0  0  0  0
   10.6735  -17.1318   17.6669 C   0  0  0  0  0  0  0  0  0  0  0  0
   10.9163  -17.4508   19.1285 C   0  0  1  0  0  0  0  0  0  0  0  0
   10.7031  -16.1926   19.8859 C   0  0  0  0  0  0  0  0  0  0  0  0
   11.4926  -15.2563   19.7449 O   0  0  0  0  0  0  0  0  0  0  0  0
    9.6121  -15.9979   20.7895 N   0  0  0  0  0  0  0  0  0  0  0  0
    9.3503  -14.7960   21.4841 C   0  0  1  0  0  0  0  0  0  0  0  0
    8.1693  -13.9922   21.1597 C   0  0  0  0  0  0  0  0  0  0  0  0
    7.9057  -13.7060   19.7405 C   0  0  0  0  0  0  0  0  0  0  0  0
    8.0544  -12.5979   18.9566 C   0  0  0  0  0  0  0  0  0  0  0  0
    7.6576  -12.9216   17.6870 N   0  0  0  0  0  0  0  0  0  0  0  0
    7.2714  -14.2020   17.6819 C   0  0  0  0  0  0  0  0  0  0  0  0
    7.4169  -14.6740   18.9012 N   0  0  0  0  0  0  0  0  0  0  0  0
    9.2908  -15.1299   22.9576 C   0  0  0  0  0  0  0  0  0  0  0  0
    9.0287  -14.2509   23.8129 O   0  0  0  0  0  0  0  0  0  0  0  0
    9.5299  -16.4515   23.4319 N   0  0  0  0  0  0  0  0  0  0  0  0
    9.5298  -16.7765   24.8420 C   0  0  0  0  0  0  0  0  0  0  0  0
   10.8128  -17.3814   25.2247 C   0  0  0  0  0  0  0  0  0  0  0  0
   11.7173  -17.5285   24.3610 O   0  0  0  0  0  0  0  0  0  0  0  0
   11.0917  -17.8105   26.5144 O   0  0  0  0  0  0  0  0  0  0  0  0
  1  5  1  0
  2  3  1  0
  2  1  1  0
  3  4  1  0
  4  5  1  0
  5  6  1  1
  6  7  2  0
  8  9  1  0
  8  6  1  0
  9 16  1  0
  9 10  1  6
 11 10  1  0
 11 15  1  0
 12 13  1  0
 12 11  2  0
 13 14  1  0
 14 15  2  0
 16 17  2  0
 18 16  1  0
 18 19  1  0
 19 20  1  0
 20 21  2  0
 20 22  1  0
M  END
$$$$
