PHG.pdb
     RDKit          3D

 22 23  0  0  1  0  0  0  0  0999 V2000
    9.2129  -14.1210   19.3302 N   0  0  0  0  0  0  0  0  0  0  0  0
    8.8579  -13.5428   18.0505 C   0  0  0  0  0  0  0  0  0  0  0  0
    7.6010  -12.7638   18.2482 C   0  0  0  0  0  0  0  0  0  0  0  0
    7.2275  -13.0163   19.6681 C   0  0  0  0  0  0  0  0  0  0  0  0
    8.5407  -13.3646   20.3401 C   0  0  1  0  0  0  0  0  0  0  0  0
    8.2120  -14.1962   21.5244 C   0  0  0  0  0  0  0  0  0  0  0  0
    7.4585  -13.7490   22.3917 O   0  0  0  0  0  0  0  0  0  0  0  0
    8.7290  -15.5144   21.7234 N   0  0  0  0  0  0  0  0  0  0  0  0
    8.4798  -16.3104   22.8635 C   0  0  1  0  0  0  0  0  0  0  0  0
    7.9646  -17.6742   22.7197 C   0  0  0  0  0  0  0  0  0  0  0  0
    6.6958  -17.8531   21.9960 C   0  0  0  0  0  0  0  0  0  0  0  0
    5.4600  -17.2816   22.0998 C   0  0  0  0  0  0  0  0  0  0  0  0
    4.6564  -17.8339   21.1389 N   0  0  0  0  0  0  0  0  0  0  0  0
    5.3766  -18.7281   20.4532 C   0  0  0  0  0  0  0  0  0  0  0  0
    6.5911  -18.7439   20.9587 N   0  0  0  0  0  0  0  0  0  0  0  0
    9.7674  -16.3843   23.6528 C   0  0  0  0  0  0  0  0  0  0  0  0
    9.8345  -17.0264   24.7279 O   0  0  0  0  0  0  0  0  0  0  0  0
   10.9516  -15.7291   23.2087 N   0  0  0  0  0  0  0  0  0  0  0  0
   12.1738  -15.7368   23.9835 C   0  0  0  0  0  0  0  0  0  0  0  0
   13.0812  -16.7823   23.4916 C   0  0  0  0  0  0  0  0  0  0  0  0
   12.6575  -17.6475   22.6807 O   0  0  0  0  0  0  0  0  0  0  0  0
   14.4105  -16.8731   23.8787 O   0  0  0  0  0  0  0  0  0  0  0  0
  1  5  1  0
  2  3  1  0
  2  1  1  0
  3  4  1  0
  4  5  1  0
  5  6  1  1
  6  7  2  0
  8  9  1  0
  8  6  1  0
  9 16  1  0
  9 10  1  6
 11 10  1  0
 11 15  1  0
 12 13  1  0
 12 11  2  0
 13 14  1  0
 14 15  2  0
 16 17  2  0
 18 16  1  0
 18 19  1  0
 19 20  1  0
 20 21  2  0
 20 22  1  0
M  END
$$$$
