PHG.pdb
     RDKit          3D

 22 23  0  0  1  0  0  0  0  0999 V2000
    7.7051  -15.2881   19.8788 N   0  0  0  0  0  0  0  0  0  0  0  0
    6.7891  -14.7390   18.9003 C   0  0  0  0  0  0  0  0  0  0  0  0
    7.0581  -13.2742   18.8126 C   0  0  0  0  0  0  0  0  0  0  0  0
    8.0948  -13.0245   19.8531 C   0  0  0  0  0  0  0  0  0  0  0  0
    8.7867  -14.3632   20.0151 C   0  0  1  0  0  0  0  0  0  0  0  0
    9.3639  -14.3878   21.3820 C   0  0  0  0  0  0  0  0  0  0  0  0
   10.2784  -13.6128   21.6704 O   0  0  0  0  0  0  0  0  0  0  0  0
    8.9121  -15.2766   22.4069 N   0  0  0  0  0  0  0  0  0  0  0  0
    9.4936  -15.3837   23.6899 C   0  0  1  0  0  0  0  0  0  0  0  0
    8.6494  -15.5151   24.8800 C   0  0  0  0  0  0  0  0  0  0  0  0
    7.7044  -14.4254   25.1717 C   0  0  0  0  0  0  0  0  0  0  0  0
    7.6349  -13.1117   24.8059 C   0  0  0  0  0  0  0  0  0  0  0  0
    6.5095  -12.5743   25.3705 N   0  0  0  0  0  0  0  0  0  0  0  0
    5.8933  -13.5325   26.0710 C   0  0  0  0  0  0  0  0  0  0  0  0
    6.5997  -14.6363   25.9564 N   0  0  0  0  0  0  0  0  0  0  0  0
   10.4373  -16.5648   23.6608 C   0  0  0  0  0  0  0  0  0  0  0  0
   10.0176  -17.7265   23.4443 O   0  0  0  0  0  0  0  0  0  0  0  0
   11.8360  -16.4058   23.8783 N   0  0  0  0  0  0  0  0  0  0  0  0
   12.7571  -17.5202   23.8180 C   0  0  0  0  0  0  0  0  0  0  0  0
   14.1096  -17.0828   24.1892 C   0  0  0  0  0  0  0  0  0  0  0  0
   14.3795  -15.8535   24.2329 O   0  0  0  0  0  0  0  0  0  0  0  0
   15.1314  -17.9678   24.5020 O   0  0  0  0  0  0  0  0  0  0  0  0
  1  5  1  0
  2  3  1  0
  2  1  1  0
  3  4  1  0
  4  5  1  0
  5  6  1  1
  6  7  2  0
  8  9  1  0
  8  6  1  0
  9 16  1  0
  9 10  1  1
 11 10  1  0
 11 15  1  0
 12 13  1  0
 12 11  2  0
 13 14  1  0
 14 15  2  0
 16 17  2  0
 18 16  1  0
 18 19  1  0
 19 20  1  0
 20 21  2  0
 20 22  1  0
M  END
$$$$
