PHG.pdb
     RDKit          3D

 22 23  0  0  1  0  0  0  0  0999 V2000
    7.2479  -14.9480   20.6268 N   0  0  0  0  0  0  0  0  0  0  0  0
    6.8605  -14.0780   19.5354 C   0  0  0  0  0  0  0  0  0  0  0  0
    7.5536  -12.7728   19.7402 C   0  0  0  0  0  0  0  0  0  0  0  0
    8.2627  -12.9293   21.0410 C   0  0  0  0  0  0  0  0  0  0  0  0
    8.4594  -14.4259   21.1777 C   0  0  1  0  0  0  0  0  0  0  0  0
    8.5746  -14.7151   22.6287 C   0  0  0  0  0  0  0  0  0  0  0  0
    9.5872  -14.3672   23.2399 O   0  0  0  0  0  0  0  0  0  0  0  0
    7.5582  -15.3882   23.3760 N   0  0  0  0  0  0  0  0  0  0  0  0
    7.5605  -15.5364   24.7809 C   0  0  1  0  0  0  0  0  0  0  0  0
    6.5037  -14.9294   25.5940 C   0  0  0  0  0  0  0  0  0  0  0  0
    6.6021  -13.4889   25.8786 C   0  0  0  0  0  0  0  0  0  0  0  0
    7.5648  -12.5459   25.6587 C   0  0  0  0  0  0  0  0  0  0  0  0
    7.0967  -11.3469   26.1249 N   0  0  0  0  0  0  0  0  0  0  0  0
    5.8707  -11.5403   26.6229 C   0  0  0  0  0  0  0  0  0  0  0  0
    5.5709  -12.8131   26.4790 N   0  0  0  0  0  0  0  0  0  0  0  0
    7.5779  -17.0187   25.0786 C   0  0  0  0  0  0  0  0  0  0  0  0
    6.8014  -17.8086   24.4907 O   0  0  0  0  0  0  0  0  0  0  0  0
    8.4735  -17.5754   26.0362 N   0  0  0  0  0  0  0  0  0  0  0  0
    8.4886  -18.9885   26.3474 C   0  0  0  0  0  0  0  0  0  0  0  0
    9.4149  -19.2553   27.4561 C   0  0  0  0  0  0  0  0  0  0  0  0
   10.0871  -18.3120   27.9504 O   0  0  0  0  0  0  0  0  0  0  0  0
    9.5961  -20.5175   28.0031 O   0  0  0  0  0  0  0  0  0  0  0  0
  1  5  1  0
  2  3  1  0
  2  1  1  0
  3  4  1  0
  4  5  1  0
  5  6  1  1
  6  7  2  0
  8  9  1  0
  8  6  1  0
  9 16  1  0
  9 10  1  1
 11 10  1  0
 11 15  1  0
 12 13  1  0
 12 11  2  0
 13 14  1  0
 14 15  2  0
 16 17  2  0
 18 16  1  0
 18 19  1  0
 19 20  1  0
 20 21  2  0
 20 22  1  0
M  END
$$$$
