PHG.pdb
     RDKit          3D

 22 23  0  0  1  0  0  0  0  0999 V2000
    8.0738  -13.9868   20.2823 N   0  0  0  0  0  0  0  0  0  0  0  0
    7.3137  -12.8702   19.7596 C   0  0  0  0  0  0  0  0  0  0  0  0
    7.7991  -12.6126   18.3726 C   0  0  0  0  0  0  0  0  0  0  0  0
    8.9237  -13.5724   18.1890 C   0  0  0  0  0  0  0  0  0  0  0  0
    8.6182  -14.6918   19.1640 C   0  0  1  0  0  0  0  0  0  0  0  0
    9.9114  -15.3390   19.4969 C   0  0  0  0  0  0  0  0  0  0  0  0
   10.4471  -16.0861   18.6755 O   0  0  0  0  0  0  0  0  0  0  0  0
   10.5877  -15.1429   20.7414 N   0  0  0  0  0  0  0  0  0  0  0  0
   11.8159  -15.7470   21.0911 C   0  0  1  0  0  0  0  0  0  0  0  0
   13.0841  -15.0695   20.8101 C   0  0  0  0  0  0  0  0  0  0  0  0
   13.5449  -15.0332   19.4130 C   0  0  0  0  0  0  0  0  0  0  0  0
   13.0254  -15.4867   18.2345 C   0  0  0  0  0  0  0  0  0  0  0  0
   13.8960  -15.1530   17.2321 N   0  0  0  0  0  0  0  0  0  0  0  0
   14.9330  -14.5065   17.7753 C   0  0  0  0  0  0  0  0  0  0  0  0
   14.7296  -14.4320   19.0729 N   0  0  0  0  0  0  0  0  0  0  0  0
   11.7684  -16.0412   22.5735 C   0  0  0  0  0  0  0  0  0  0  0  0
   11.4392  -15.1581   23.4009 O   0  0  0  0  0  0  0  0  0  0  0  0
   12.0954  -17.3285   23.0879 N   0  0  0  0  0  0  0  0  0  0  0  0
   11.9743  -17.6506   24.4935 C   0  0  0  0  0  0  0  0  0  0  0  0
   12.3616  -19.0479   24.7303 C   0  0  0  0  0  0  0  0  0  0  0  0
   12.6185  -19.7999   23.7535 O   0  0  0  0  0  0  0  0  0  0  0  0
   12.4629  -19.5998   25.9993 O   0  0  0  0  0  0  0  0  0  0  0  0
  1  5  1  0
  2  3  1  0
  2  1  1  0
  3  4  1  0
  4  5  1  0
  5  6  1  1
  6  7  2  0
  8  9  1  0
  8  6  1  0
  9 16  1  0
  9 10  1  1
 11 10  1  0
 11 15  1  0
 12 13  1  0
 12 11  2  0
 13 14  1  0
 14 15  2  0
 16 17  2  0
 18 16  1  0
 18 19  1  0
 19 20  1  0
 20 21  2  0
 20 22  1  0
M  END
$$$$
