PHG.pdb
     RDKit          3D

 22 23  0  0  1  0  0  0  0  0999 V2000
    8.4259  -19.0106   19.9847 N   0  0  0  0  0  0  0  0  0  0  0  0
    7.6828  -19.7086   18.9558 C   0  0  0  0  0  0  0  0  0  0  0  0
    7.8217  -18.9215   17.6960 C   0  0  0  0  0  0  0  0  0  0  0  0
    8.5926  -17.7116   18.0976 C   0  0  0  0  0  0  0  0  0  0  0  0
    9.3620  -18.1536   19.3263 C   0  0  1  0  0  0  0  0  0  0  0  0
    9.6445  -16.9325   20.1208 C   0  0  0  0  0  0  0  0  0  0  0  0
   10.6617  -16.2763   19.8870 O   0  0  0  0  0  0  0  0  0  0  0  0
    8.7880  -16.4618   21.1645 N   0  0  0  0  0  0  0  0  0  0  0  0
    8.9537  -15.2360   21.8470 C   0  0  1  0  0  0  0  0  0  0  0  0
    8.0743  -14.1002   21.5590 C   0  0  0  0  0  0  0  0  0  0  0  0
    7.8987  -13.7113   20.1506 C   0  0  0  0  0  0  0  0  0  0  0  0
    6.8110  -13.5765   19.3361 C   0  0  0  0  0  0  0  0  0  0  0  0
    7.2514  -13.1649   18.1070 N   0  0  0  0  0  0  0  0  0  0  0  0
    8.5825  -13.0462   18.1566 C   0  0  0  0  0  0  0  0  0  0  0  0
    8.9735  -13.3700   19.3703 N   0  0  0  0  0  0  0  0  0  0  0  0
    8.8610  -15.5275   23.3277 C   0  0  0  0  0  0  0  0  0  0  0  0
    7.7810  -15.3911   23.9504 O   0  0  0  0  0  0  0  0  0  0  0  0
    9.9931  -15.9665   24.0725 N   0  0  0  0  0  0  0  0  0  0  0  0
    9.8977  -16.3542   25.4634 C   0  0  0  0  0  0  0  0  0  0  0  0
   11.2181  -16.7479   25.9733 C   0  0  0  0  0  0  0  0  0  0  0  0
   12.2232  -16.6909   25.2168 O   0  0  0  0  0  0  0  0  0  0  0  0
   11.4262  -17.1896   27.2720 O   0  0  0  0  0  0  0  0  0  0  0  0
  1  5  1  0
  2  3  1  0
  2  1  1  0
  3  4  1  0
  4  5  1  0
  5  6  1  1
  6  7  2  0
  8  9  1  0
  8  6  1  0
  9 16  1  0
  9 10  1  6
 11 10  1  0
 11 15  1  0
 12 13  1  0
 12 11  2  0
 13 14  1  0
 14 15  2  0
 16 17  2  0
 18 16  1  0
 18 19  1  0
 19 20  1  0
 20 21  2  0
 20 22  1  0
M  END
$$$$
