PHG.pdb
     RDKit          3D

 22 23  0  0  1  0  0  0  0  0999 V2000
    8.9927  -14.7940   23.0969 N   0  0  0  0  0  0  0  0  0  0  0  0
    7.8377  -14.1598   23.6984 C   0  0  0  0  0  0  0  0  0  0  0  0
    6.7458  -14.1693   22.6819 C   0  0  0  0  0  0  0  0  0  0  0  0
    7.3780  -14.7490   21.4638 C   0  0  0  0  0  0  0  0  0  0  0  0
    8.5223  -15.5843   22.0023 C   0  0  1  0  0  0  0  0  0  0  0  0
    9.5320  -15.6821   20.9192 C   0  0  0  0  0  0  0  0  0  0  0  0
    9.3025  -16.3889   19.9354 O   0  0  0  0  0  0  0  0  0  0  0  0
   10.7828  -14.9900   20.9499 N   0  0  0  0  0  0  0  0  0  0  0  0
   11.7342  -15.0052   19.9057 C   0  0  1  0  0  0  0  0  0  0  0  0
   11.6570  -14.0295   18.8156 C   0  0  0  0  0  0  0  0  0  0  0  0
   10.4348  -14.0149   17.9961 C   0  0  0  0  0  0  0  0  0  0  0  0
    9.8572  -14.9128   17.1448 C   0  0  0  0  0  0  0  0  0  0  0  0
    8.6995  -14.3593   16.6680 N   0  0  0  0  0  0  0  0  0  0  0  0
    8.5606  -13.1450   17.2108 C   0  0  0  0  0  0  0  0  0  0  0  0
    9.5903  -12.9346   18.0022 N   0  0  0  0  0  0  0  0  0  0  0  0
   13.1017  -14.8826   20.5389 C   0  0  0  0  0  0  0  0  0  0  0  0
   14.1369  -14.7913   19.8370 O   0  0  0  0  0  0  0  0  0  0  0  0
   13.2685  -14.8667   21.9534 N   0  0  0  0  0  0  0  0  0  0  0  0
   14.5658  -14.7091   22.5750 C   0  0  0  0  0  0  0  0  0  0  0  0
   15.1328  -16.0227   22.9088 C   0  0  0  0  0  0  0  0  0  0  0  0
   14.5138  -17.0712   22.5872 O   0  0  0  0  0  0  0  0  0  0  0  0
   16.3404  -16.1780   23.5742 O   0  0  0  0  0  0  0  0  0  0  0  0
  1  5  1  0
  2  3  1  0
  2  1  1  0
  3  4  1  0
  4  5  1  0
  5  6  1  6
  6  7  2  0
  8  9  1  0
  8  6  1  0
  9 16  1  0
  9 10  1  6
 11 10  1  0
 11 15  1  0
 12 13  1  0
 12 11  2  0
 13 14  1  0
 14 15  2  0
 16 17  2  0
 18 16  1  0
 18 19  1  0
 19 20  1  0
 20 21  2  0
 20 22  1  0
M  END
$$$$
