PHG.pdb
     RDKit          3D

 22 23  0  0  1  0  0  0  0  0999 V2000
    7.6941  -15.1474   20.4488 N   0  0  0  0  0  0  0  0  0  0  0  0
    6.8438  -14.4783   19.4858 C   0  0  0  0  0  0  0  0  0  0  0  0
    7.1641  -13.0224   19.5463 C   0  0  0  0  0  0  0  0  0  0  0  0
    8.1578  -12.9068   20.6502 C   0  0  0  0  0  0  0  0  0  0  0  0
    8.7975  -14.2791   20.7179 C   0  0  1  0  0  0  0  0  0  0  0  0
    9.3082  -14.4493   22.1008 C   0  0  0  0  0  0  0  0  0  0  0  0
   10.2249  -13.7301   22.5037 O   0  0  0  0  0  0  0  0  0  0  0  0
    8.7884  -15.4194   23.0136 N   0  0  0  0  0  0  0  0  0  0  0  0
    9.1265  -15.4947   24.3832 C   0  0  1  0  0  0  0  0  0  0  0  0
    8.0820  -15.4559   25.4098 C   0  0  0  0  0  0  0  0  0  0  0  0
    7.3603  -14.1881   25.6035 C   0  0  0  0  0  0  0  0  0  0  0  0
    7.7400  -12.8765   25.6124 C   0  0  0  0  0  0  0  0  0  0  0  0
    6.6233  -12.1143   25.8274 N   0  0  0  0  0  0  0  0  0  0  0  0
    5.5734  -12.9337   25.9492 C   0  0  0  0  0  0  0  0  0  0  0  0
    6.0058  -14.1691   25.8167 N   0  0  0  0  0  0  0  0  0  0  0  0
    9.9227  -16.7645   24.5827 C   0  0  0  0  0  0  0  0  0  0  0  0
   10.1083  -17.2419   25.7274 O   0  0  0  0  0  0  0  0  0  0  0  0
   10.4927  -17.4665   23.4822 N   0  0  0  0  0  0  0  0  0  0  0  0
   11.2355  -18.6965   23.6537 C   0  0  0  0  0  0  0  0  0  0  0  0
   11.6950  -19.1989   22.3518 C   0  0  0  0  0  0  0  0  0  0  0  0
   11.9597  -18.3873   21.4261 O   0  0  0  0  0  0  0  0  0  0  0  0
   11.8580  -20.5492   22.0772 O   0  0  0  0  0  0  0  0  0  0  0  0
  1  5  1  0
  2  3  1  0
  2  1  1  0
  3  4  1  0
  4  5  1  0
  5  6  1  1
  6  7  2  0
  8  9  1  0
  8  6  1  0
  9 16  1  0
  9 10  1  1
 11 10  1  0
 11 15  1  0
 12 13  1  0
 12 11  2  0
 13 14  1  0
 14 15  2  0
 16 17  2  0
 18 16  1  0
 18 19  1  0
 19 20  1  0
 20 21  2  0
 20 22  1  0
M  END
$$$$
