MYY.pdb
     RDKit          3D

 33 34  0  0  1  0  0  0  0  0999 V2000
   31.7720  -18.8555  -19.5342 C   0  0  0  0  0  0  0  0  0  0  0  0
   30.1233  -18.1101  -19.6433 S   0  0  0  0  0  0  0  0  0  0  0  0
   28.9046  -19.3184  -20.2697 C   0  0  0  0  0  0  0  0  0  0  0  0
   27.9992  -19.7661  -19.1553 C   0  0  0  0  0  0  0  0  0  0  0  0
   28.6805  -20.6347  -18.1737 C   0  0  2  0  0  0  0  0  0  0  0  0
   28.7932  -21.9583  -18.8570 N   0  0  0  0  0  0  0  0  0  0  0  0
   28.0248  -20.8972  -16.9059 C   0  0  0  0  0  0  0  0  0  0  0  0
   27.1285  -21.8012  -16.8498 O   0  0  0  0  0  0  0  0  0  0  0  0
   24.8572  -20.5592   -8.6386 O   0  0  0  0  0  0  0  0  0  0  0  0
   25.6656  -20.4412   -9.7588 C   0  0  0  0  0  0  0  0  0  0  0  0
   26.3518  -21.5320  -10.2340 C   0  0  0  0  0  0  0  0  0  0  0  0
   27.1610  -21.4372  -11.3458 C   0  0  0  0  0  0  0  0  0  0  0  0
   27.3292  -20.2493  -12.0435 C   0  0  0  0  0  0  0  0  0  0  0  0
   28.1769  -20.0913  -13.2323 C   0  0  0  0  0  0  0  0  0  0  0  0
   27.4386  -20.4857  -14.4924 C   0  0  2  0  0  0  0  0  0  0  0  0
   28.2660  -20.2522  -15.6663 N   0  0  0  0  0  0  0  0  0  0  0  0
   26.0909  -19.9183  -14.5827 C   0  0  0  0  0  0  0  0  0  0  0  0
   25.9915  -18.7267  -15.0091 O   0  0  0  0  0  0  0  0  0  0  0  0
   26.6245  -19.1493  -11.5473 C   0  0  0  0  0  0  0  0  0  0  0  0
   25.8158  -19.2447  -10.4359 C   0  0  0  0  0  0  0  0  0  0  0  0
   18.3185  -17.0754  -16.7034 O   0  0  0  0  0  0  0  0  0  0  0  0
   19.5408  -17.6992  -16.4946 C   0  0  0  0  0  0  0  0  0  0  0  0
   19.6970  -19.0671  -16.4400 C   0  0  0  0  0  0  0  0  0  0  0  0
   20.9237  -19.6588  -16.2315 C   0  0  0  0  0  0  0  0  0  0  0  0
   22.0705  -18.8883  -16.0655 C   0  0  0  0  0  0  0  0  0  0  0  0
   23.3717  -19.5125  -15.8304 C   0  0  0  0  0  0  0  0  0  0  0  0
   23.6074  -19.8610  -14.3847 C   0  0  2  0  0  0  0  0  0  0  0  0
   24.8874  -20.5541  -14.2470 N   0  0  0  0  0  0  0  0  0  0  0  0
   22.5225  -20.6883  -13.8580 C   0  0  0  0  0  0  0  0  0  0  0  0
   22.6303  -21.9605  -13.9296 O   0  0  0  0  0  0  0  0  0  0  0  0
   21.9154  -17.5104  -16.1198 C   0  0  0  0  0  0  0  0  0  0  0  0
   20.6922  -16.9393  -16.3274 C   0  0  0  0  0  0  0  0  0  0  0  0
   21.3671  -20.1937  -13.2754 O   0  0  0  0  0  0  0  0  0  0  0  0
  2  1  1  0
  3  2  1  0
  4  3  1  0
  5  4  1  0
  5  6  1  6
  7  8  2  0
  7  5  1  0
  9 10  1  0
 10 20  2  0
 11 12  2  0
 11 10  1  0
 12 13  1  0
 13 14  1  0
 13 19  2  0
 15 14  1  1
 15 16  1  0
 16  7  1  0
 17 15  1  0
 18 17  2  0
 20 19  1  0
 22 21  1  0
 22 23  2  0
 24 23  1  0
 25 24  2  0
 27 26  1  6
 26 25  1  0
 27 28  1  0
 28 17  1  0
 29 33  1  0
 29 27  1  0
 30 29  2  0
 31 32  2  0
 31 25  1  0
 32 22  1  0
M  END
$$$$
