MYY.pdb
     RDKit          3D

 33 34  0  0  1  0  0  0  0  0999 V2000
   25.6666  -39.1441  -15.1037 C   0  0  0  0  0  0  0  0  0  0  0  0
   26.5338  -38.0521  -13.9456 S   0  0  0  0  0  0  0  0  0  0  0  0
   25.7077  -36.4258  -13.8442 C   0  0  0  0  0  0  0  0  0  0  0  0
   26.3747  -35.5701  -12.8025 C   0  0  0  0  0  0  0  0  0  0  0  0
   25.6043  -34.3521  -12.4784 C   0  0  2  0  0  0  0  0  0  0  0  0
   25.9492  -33.3882  -13.5662 N   0  0  0  0  0  0  0  0  0  0  0  0
   25.8868  -33.6627  -11.2330 C   0  0  0  0  0  0  0  0  0  0  0  0
   26.7779  -32.7518  -11.2199 O   0  0  0  0  0  0  0  0  0  0  0  0
   21.2326  -28.8723  -10.2449 O   0  0  0  0  0  0  0  0  0  0  0  0
   22.0361  -29.8436   -9.6678 C   0  0  0  0  0  0  0  0  0  0  0  0
   21.6898  -31.1698   -9.7574 C   0  0  0  0  0  0  0  0  0  0  0  0
   22.4739  -32.1518   -9.1911 C   0  0  0  0  0  0  0  0  0  0  0  0
   23.6455  -31.8640   -8.5051 C   0  0  0  0  0  0  0  0  0  0  0  0
   24.5181  -32.8685   -7.8834 C   0  0  0  0  0  0  0  0  0  0  0  0
   25.7027  -33.1924   -8.7667 C   0  0  2  0  0  0  0  0  0  0  0  0
   25.2697  -33.8782   -9.9747 N   0  0  0  0  0  0  0  0  0  0  0  0
   26.7979  -33.8573   -8.0561 C   0  0  0  0  0  0  0  0  0  0  0  0
   26.7231  -35.1179   -7.9263 O   0  0  0  0  0  0  0  0  0  0  0  0
   23.9836  -30.5106   -8.4230 C   0  0  0  0  0  0  0  0  0  0  0  0
   23.1994  -29.5294   -8.9892 C   0  0  0  0  0  0  0  0  0  0  0  0
   34.1731  -35.9607   -3.6033 O   0  0  0  0  0  0  0  0  0  0  0  0
   33.2030  -35.3011   -4.3454 C   0  0  0  0  0  0  0  0  0  0  0  0
   33.1938  -35.2636   -5.7227 C   0  0  0  0  0  0  0  0  0  0  0  0
   32.2171  -34.6007   -6.4331 C   0  0  0  0  0  0  0  0  0  0  0  0
   31.1859  -33.9329   -5.7796 C   0  0  0  0  0  0  0  0  0  0  0  0
   30.1554  -33.2169   -6.5301 C   0  0  0  0  0  0  0  0  0  0  0  0
   28.9001  -34.0245   -6.7283 C   0  0  2  0  0  0  0  0  0  0  0  0
   27.9306  -33.2475   -7.4991 N   0  0  0  0  0  0  0  0  0  0  0  0
   28.3240  -34.4271   -5.4458 C   0  0  0  0  0  0  0  0  0  0  0  0
   28.5003  -35.6280   -5.0436 O   0  0  0  0  0  0  0  0  0  0  0  0
   31.1934  -33.9692   -4.3924 C   0  0  0  0  0  0  0  0  0  0  0  0
   32.1690  -34.6310   -3.7027 C   0  0  0  0  0  0  0  0  0  0  0  0
   27.5906  -33.5945   -4.6164 O   0  0  0  0  0  0  0  0  0  0  0  0
  2  1  1  0
  3  2  1  0
  4  3  1  0
  5  4  1  0
  5  6  1  6
  7  8  2  0
  7  5  1  0
  9 10  1  0
 10 20  2  0
 11 12  2  0
 11 10  1  0
 12 13  1  0
 13 14  1  0
 13 19  2  0
 15 14  1  1
 15 16  1  0
 16  7  1  0
 17 15  1  0
 18 17  2  0
 20 19  1  0
 22 21  1  0
 22 23  2  0
 24 23  1  0
 25 24  2  0
 27 26  1  1
 26 25  1  0
 27 28  1  0
 28 17  1  0
 29 33  1  0
 29 27  1  0
 30 29  2  0
 31 32  2  0
 31 25  1  0
 32 22  1  0
M  END
$$$$
