MYY.pdb
     RDKit          3D

 33 34  0  0  1  0  0  0  0  0999 V2000
   24.0009  -12.4143  -25.9764 C   0  0  0  0  0  0  0  0  0  0  0  0
   23.3815  -11.9732  -24.3309 S   0  0  0  0  0  0  0  0  0  0  0  0
   24.3461  -10.5928  -23.6225 C   0  0  0  0  0  0  0  0  0  0  0  0
   23.8631  -10.2833  -22.2322 C   0  0  0  0  0  0  0  0  0  0  0  0
   24.5804   -9.1505  -21.6123 C   0  0  2  0  0  0  0  0  0  0  0  0
   25.8724   -9.7350  -21.1427 N   0  0  0  0  0  0  0  0  0  0  0  0
   23.9914   -8.5065  -20.4528 C   0  0  0  0  0  0  0  0  0  0  0  0
   22.8216   -8.0106  -20.5496 O   0  0  0  0  0  0  0  0  0  0  0  0
   20.6895   -7.1058  -12.5535 O   0  0  0  0  0  0  0  0  0  0  0  0
   21.5835   -7.3917  -13.5738 C   0  0  0  0  0  0  0  0  0  0  0  0
   21.7222   -8.6796  -14.0306 C   0  0  0  0  0  0  0  0  0  0  0  0
   22.6049   -8.9862  -15.0439 C   0  0  0  0  0  0  0  0  0  0  0  0
   23.3967   -8.0247  -15.6561 C   0  0  0  0  0  0  0  0  0  0  0  0
   24.3521   -8.2945  -16.7385 C   0  0  0  0  0  0  0  0  0  0  0  0
   23.8611   -7.7411  -18.0580 C   0  0  2  0  0  0  0  0  0  0  0  0
   24.5733   -8.3547  -19.1686 N   0  0  0  0  0  0  0  0  0  0  0  0
   23.8245   -6.2771  -18.1010 C   0  0  0  0  0  0  0  0  0  0  0  0
   24.9391   -5.6694  -18.0927 O   0  0  0  0  0  0  0  0  0  0  0  0
   23.2437   -6.7199  -15.1801 C   0  0  0  0  0  0  0  0  0  0  0  0
   22.3612   -6.4140  -14.1672 C   0  0  0  0  0  0  0  0  0  0  0  0
   22.5703    2.2563  -19.5129 O   0  0  0  0  0  0  0  0  0  0  0  0
   22.5747    0.8684  -19.4909 C   0  0  0  0  0  0  0  0  0  0  0  0
   23.7259    0.1118  -19.4652 C   0  0  0  0  0  0  0  0  0  0  0  0
   23.6996   -1.2655  -19.4433 C   0  0  0  0  0  0  0  0  0  0  0  0
   22.4927   -1.9581  -19.4464 C   0  0  0  0  0  0  0  0  0  0  0  0
   22.4612   -3.4199  -19.4371 C   0  0  0  0  0  0  0  0  0  0  0  0
   22.7909   -4.0095  -18.0914 C   0  0  2  0  0  0  0  0  0  0  0  0
   22.6820   -5.4663  -18.1516 N   0  0  0  0  0  0  0  0  0  0  0  0
   21.9106   -3.4767  -17.0522 C   0  0  0  0  0  0  0  0  0  0  0  0
   22.1620   -2.3200  -16.5685 O   0  0  0  0  0  0  0  0  0  0  0  0
   21.3320   -1.1981  -19.4725 C   0  0  0  0  0  0  0  0  0  0  0  0
   21.3750    0.1669  -19.4939 C   0  0  0  0  0  0  0  0  0  0  0  0
   20.8049   -4.1374  -16.5424 O   0  0  0  0  0  0  0  0  0  0  0  0
  2  1  1  0
  3  2  1  0
  4  3  1  0
  5  4  1  0
  5  6  1  1
  7  8  2  0
  7  5  1  0
  9 10  1  0
 10 20  2  0
 11 12  2  0
 11 10  1  0
 12 13  1  0
 13 14  1  0
 13 19  2  0
 15 14  1  1
 15 16  1  0
 16  7  1  0
 17 15  1  0
 18 17  2  0
 20 19  1  0
 22 21  1  0
 22 23  2  0
 24 23  1  0
 25 24  2  0
 27 26  1  6
 26 25  1  0
 27 28  1  0
 28 17  1  0
 29 33  1  0
 29 27  1  0
 30 29  2  0
 31 32  2  0
 31 25  1  0
 32 22  1  0
M  END
$$$$
