MYY.pdb
     RDKit          3D

 33 34  0  0  1  0  0  0  0  0999 V2000
   25.4289  -17.8362  -19.8900 C   0  0  0  0  0  0  0  0  0  0  0  0
   27.2119  -18.0396  -20.1460 S   0  0  0  0  0  0  0  0  0  0  0  0
   27.7465  -19.7239  -19.6823 C   0  0  0  0  0  0  0  0  0  0  0  0
   27.0032  -20.1847  -18.4586 C   0  0  0  0  0  0  0  0  0  0  0  0
   27.8913  -20.7615  -17.4287 C   0  0  2  0  0  0  0  0  0  0  0  0
   28.3276  -22.0714  -17.9989 N   0  0  0  0  0  0  0  0  0  0  0  0
   27.3356  -21.0626  -16.1223 C   0  0  0  0  0  0  0  0  0  0  0  0
   26.4821  -22.0029  -16.0162 O   0  0  0  0  0  0  0  0  0  0  0  0
   24.6995  -20.9131   -7.6675 O   0  0  0  0  0  0  0  0  0  0  0  0
   25.4257  -20.7440   -8.8364 C   0  0  0  0  0  0  0  0  0  0  0  0
   26.2071  -21.7655   -9.3185 C   0  0  0  0  0  0  0  0  0  0  0  0
   26.9371  -21.6191  -10.4784 C   0  0  0  0  0  0  0  0  0  0  0  0
   26.9271  -20.4459  -11.2199 C   0  0  0  0  0  0  0  0  0  0  0  0
   27.6838  -20.2351  -12.4608 C   0  0  0  0  0  0  0  0  0  0  0  0
   26.9009  -20.6982  -13.6695 C   0  0  2  0  0  0  0  0  0  0  0  0
   27.6358  -20.4205  -14.8942 N   0  0  0  0  0  0  0  0  0  0  0  0
   25.5123  -20.2312  -13.6811 C   0  0  0  0  0  0  0  0  0  0  0  0
   25.3223  -18.9823  -13.8073 O   0  0  0  0  0  0  0  0  0  0  0  0
   26.1274  -19.4167  -10.7160 C   0  0  0  0  0  0  0  0  0  0  0  0
   25.3979  -19.5637   -9.5565 C   0  0  0  0  0  0  0  0  0  0  0  0
   17.6694  -16.9746  -13.9819 O   0  0  0  0  0  0  0  0  0  0  0  0
   18.9037  -17.5929  -14.1259 C   0  0  0  0  0  0  0  0  0  0  0  0
   19.1333  -18.6403  -14.9912 C   0  0  0  0  0  0  0  0  0  0  0  0
   20.3702  -19.2348  -15.1133 C   0  0  0  0  0  0  0  0  0  0  0  0
   21.4527  -18.7955  -14.3573 C   0  0  0  0  0  0  0  0  0  0  0  0
   22.7634  -19.4331  -14.4744 C   0  0  0  0  0  0  0  0  0  0  0  0
   23.0470  -20.4094  -13.3637 C   0  0  2  0  0  0  0  0  0  0  0  0
   24.3594  -21.0206  -13.5678 N   0  0  0  0  0  0  0  0  0  0  0  0
   22.0122  -21.4402  -13.2907 C   0  0  0  0  0  0  0  0  0  0  0  0
   20.8737  -21.1332  -12.7961 O   0  0  0  0  0  0  0  0  0  0  0  0
   21.2237  -17.7410  -13.4850 C   0  0  0  0  0  0  0  0  0  0  0  0
   19.9913  -17.1623  -13.3756 C   0  0  0  0  0  0  0  0  0  0  0  0
   22.1703  -22.7463  -13.7245 O   0  0  0  0  0  0  0  0  0  0  0  0
  2  1  1  0
  3  2  1  0
  4  3  1  0
  5  4  1  0
  5  6  1  6
  7  8  2  0
  7  5  1  0
  9 10  1  0
 10 20  2  0
 11 12  2  0
 11 10  1  0
 12 13  1  0
 13 14  1  0
 13 19  2  0
 15 14  1  1
 15 16  1  0
 16  7  1  0
 17 15  1  0
 18 17  2  0
 20 19  1  0
 22 21  1  0
 22 23  2  0
 24 23  1  0
 25 24  2  0
 27 26  1  6
 26 25  1  0
 27 28  1  0
 28 17  1  0
 29 33  1  0
 29 27  1  0
 30 29  2  0
 31 32  2  0
 31 25  1  0
 32 22  1  0
M  END
$$$$
