WQC.pdb
     RDKit          3D

 30 31  0  0  1  0  0  0  0  0999 V2000
   21.7095  -21.0651  -16.3118 N   0  0  0  0  0  0  0  0  0  0  0  0
   22.3419  -20.1004  -15.4700 C   0  0  1  0  0  0  0  0  0  0  0  0
   21.4484  -19.5093  -14.4075 C   0  0  0  0  0  0  0  0  0  0  0  0
   20.2112  -18.9108  -14.9157 C   0  0  0  0  0  0  0  0  0  0  0  0
   18.9389  -19.3109  -14.6186 C   0  0  0  0  0  0  0  0  0  0  0  0
   18.0880  -18.4835  -15.2768 N   0  0  0  0  0  0  0  0  0  0  0  0
   18.7787  -17.5741  -15.9802 C   0  0  0  0  0  0  0  0  0  0  0  0
   18.3773  -16.5435  -16.7977 C   0  0  0  0  0  0  0  0  0  0  0  0
   19.3155  -15.7391  -17.4227 C   0  0  0  0  0  0  0  0  0  0  0  0
   20.6580  -15.9811  -17.2179 C   0  0  0  0  0  0  0  0  0  0  0  0
   21.0438  -17.0182  -16.3953 C   0  0  0  0  0  0  0  0  0  0  0  0
   20.1249  -17.8334  -15.7608 C   0  0  0  0  0  0  0  0  0  0  0  0
   23.5467  -20.6468  -14.7871 C   0  0  0  0  0  0  0  0  0  0  0  0
   23.5252  -21.8437  -14.3345 O   0  0  0  0  0  0  0  0  0  0  0  0
   28.0384  -21.7637  -16.1807 N   0  0  0  0  0  0  0  0  0  0  0  0
   28.8045  -21.3925  -15.0459 C   0  0  0  0  0  0  0  0  0  0  0  0
   29.8409  -22.1076  -14.8253 O   0  0  0  0  0  0  0  0  0  0  0  0
   28.4457  -20.2468  -14.1526 C   0  0  0  0  0  0  0  0  0  0  0  0
   27.1586  -19.6720  -14.6437 C   0  0  0  0  0  0  0  0  0  0  0  0
   25.9391  -20.3337  -14.0839 C   0  0  2  0  0  0  0  0  0  0  0  0
   24.7019  -19.8414  -14.6451 N   0  0  0  0  0  0  0  0  0  0  0  0
   25.8848  -20.3291  -12.6108 C   0  0  0  0  0  0  0  0  0  0  0  0
   25.4464  -19.2935  -12.0472 O   0  0  0  0  0  0  0  0  0  0  0  0
   26.2894  -21.4029  -11.7935 N   0  0  0  0  0  0  0  0  0  0  0  0
   26.1415  -21.2905  -10.3600 C   0  0  1  0  0  0  0  0  0  0  0  0
   26.9295  -20.0776   -9.9011 C   0  0  0  0  0  0  0  0  0  0  0  0
   26.9321  -20.1406   -8.0711 S   0  0  0  0  0  0  0  0  0  0  0  0
   24.7321  -21.2297   -9.9243 C   0  0  0  0  0  0  0  0  0  0  0  0
   23.7334  -21.1071  -10.8580 O   0  0  0  0  0  0  0  0  0  0  0  0
   24.4443  -21.2892   -8.7145 O   0  0  0  0  0  0  0  0  0  0  0  0
  2  1  1  1
  2  3  1  0
  3  4  1  0
  4  5  2  0
  5  6  1  0
  7  6  1  0
  8  7  2  0
  9  8  1  0
 10 11  1  0
 10  9  2  0
 11 12  2  0
 12  4  1  0
 12  7  1  0
 13  2  1  0
 13 21  1  0
 14 13  2  0
 16 17  2  0
 16 15  1  0
 18 16  1  0
 20 19  1  1
 19 18  1  0
 21 20  1  0
 22 20  1  0
 23 22  2  0
 24 22  1  0
 25 28  1  0
 25 24  1  0
 25 26  1  6
 27 26  1  0
 28 29  1  0
 30 28  2  0
M  END
$$$$
