WQC.pdb
     RDKit          3D

 30 31  0  0  1  0  0  0  0  0999 V2000
   25.9467  -22.8548  -12.3480 N   0  0  0  0  0  0  0  0  0  0  0  0
   25.3141  -21.9676  -11.4250 C   0  0  1  0  0  0  0  0  0  0  0  0
   26.0151  -20.6441  -11.2421 C   0  0  0  0  0  0  0  0  0  0  0  0
   27.2936  -20.7249  -10.5309 C   0  0  0  0  0  0  0  0  0  0  0  0
   28.4944  -21.0956  -11.0674 C   0  0  0  0  0  0  0  0  0  0  0  0
   29.4227  -21.0173  -10.0804 N   0  0  0  0  0  0  0  0  0  0  0  0
   28.8498  -20.6101   -8.9381 C   0  0  0  0  0  0  0  0  0  0  0  0
   29.3604  -20.3860   -7.6808 C   0  0  0  0  0  0  0  0  0  0  0  0
   28.5325  -19.9653   -6.6534 C   0  0  0  0  0  0  0  0  0  0  0  0
   27.1895  -19.7730   -6.9024 C   0  0  0  0  0  0  0  0  0  0  0  0
   26.6935  -20.0021   -8.1683 C   0  0  0  0  0  0  0  0  0  0  0  0
   27.5013  -20.4216   -9.2090 C   0  0  0  0  0  0  0  0  0  0  0  0
   23.9015  -21.6775  -11.7948 C   0  0  0  0  0  0  0  0  0  0  0  0
   23.5729  -21.6220  -13.0304 O   0  0  0  0  0  0  0  0  0  0  0  0
   19.2017  -22.8090   -7.7376 N   0  0  0  0  0  0  0  0  0  0  0  0
   19.3704  -23.7012   -8.8276 C   0  0  0  0  0  0  0  0  0  0  0  0
   18.7817  -24.8298   -8.7095 O   0  0  0  0  0  0  0  0  0  0  0  0
   20.1768  -23.3683  -10.0434 C   0  0  0  0  0  0  0  0  0  0  0  0
   20.7065  -21.9831   -9.8734 C   0  0  0  0  0  0  0  0  0  0  0  0
   21.5142  -21.4896  -11.0322 C   0  0  2  0  0  0  0  0  0  0  0  0
   22.9369  -21.4668  -10.7806 N   0  0  0  0  0  0  0  0  0  0  0  0
   21.0556  -20.1945  -11.5665 C   0  0  0  0  0  0  0  0  0  0  0  0
   21.6514  -19.1585  -11.1740 O   0  0  0  0  0  0  0  0  0  0  0  0
   19.9984  -20.0388  -12.4845 N   0  0  0  0  0  0  0  0  0  0  0  0
   19.9479  -18.8492  -13.3041 C   0  0  1  0  0  0  0  0  0  0  0  0
   21.1513  -18.8652  -14.2283 C   0  0  0  0  0  0  0  0  0  0  0  0
   20.9874  -17.3864  -15.2957 S   0  0  0  0  0  0  0  0  0  0  0  0
   18.6813  -18.7109  -14.0502 C   0  0  0  0  0  0  0  0  0  0  0  0
   18.1138  -17.4711  -14.2082 O   0  0  0  0  0  0  0  0  0  0  0  0
   18.1252  -19.7128  -14.5371 O   0  0  0  0  0  0  0  0  0  0  0  0
  2  1  1  6
  2  3  1  0
  3  4  1  0
  4  5  2  0
  5  6  1  0
  7  6  1  0
  8  7  2  0
  9  8  1  0
 10 11  1  0
 10  9  2  0
 11 12  2  0
 12  4  1  0
 12  7  1  0
 13  2  1  0
 13 21  1  0
 14 13  2  0
 16 17  2  0
 16 15  1  0
 18 16  1  0
 20 19  1  1
 19 18  1  0
 21 20  1  0
 22 20  1  0
 23 22  2  0
 24 22  1  0
 25 28  1  0
 25 24  1  0
 25 26  1  6
 27 26  1  0
 28 29  1  0
 30 28  2  0
M  END
$$$$
