WQC.pdb
     RDKit          3D

 30 31  0  0  1  0  0  0  0  0999 V2000
   23.9122  -20.5155  -10.8946 N   0  0  0  0  0  0  0  0  0  0  0  0
   23.6578  -21.1057   -9.6194 C   0  0  1  0  0  0  0  0  0  0  0  0
   24.4548  -20.5161   -8.4820 C   0  0  0  0  0  0  0  0  0  0  0  0
   25.8992  -20.7474   -8.5660 C   0  0  0  0  0  0  0  0  0  0  0  0
   26.5496  -21.4485   -9.5420 C   0  0  0  0  0  0  0  0  0  0  0  0
   27.8761  -21.4064   -9.2580 N   0  0  0  0  0  0  0  0  0  0  0  0
   28.0866  -20.7029   -8.1357 C   0  0  0  0  0  0  0  0  0  0  0  0
   29.2356  -20.3867   -7.4491 C   0  0  0  0  0  0  0  0  0  0  0  0
   29.1731  -19.6352   -6.2875 C   0  0  0  0  0  0  0  0  0  0  0  0
   27.9466  -19.2061   -5.8246 C   0  0  0  0  0  0  0  0  0  0  0  0
   26.8043  -19.5315   -6.5247 C   0  0  0  0  0  0  0  0  0  0  0  0
   26.8429  -20.2799   -7.6866 C   0  0  0  0  0  0  0  0  0  0  0  0
   22.2199  -21.0377   -9.2398 C   0  0  0  0  0  0  0  0  0  0  0  0
   21.6304  -19.9023   -9.2077 O   0  0  0  0  0  0  0  0  0  0  0  0
   17.6510  -23.7276  -11.2927 N   0  0  0  0  0  0  0  0  0  0  0  0
   18.8955  -23.2658  -11.7932 C   0  0  0  0  0  0  0  0  0  0  0  0
   19.1981  -23.6679  -12.9683 O   0  0  0  0  0  0  0  0  0  0  0  0
   19.8095  -22.3689  -11.0187 C   0  0  0  0  0  0  0  0  0  0  0  0
   19.1819  -22.1187   -9.6876 C   0  0  0  0  0  0  0  0  0  0  0  0
   20.1266  -22.2357   -8.5334 C   0  0  2  0  0  0  0  0  0  0  0  0
   21.5190  -22.2249   -8.9192 N   0  0  0  0  0  0  0  0  0  0  0  0
   19.8380  -23.3750   -7.6435 C   0  0  0  0  0  0  0  0  0  0  0  0
   20.7852  -24.1573   -7.3729 O   0  0  0  0  0  0  0  0  0  0  0  0
   18.5770  -23.6464   -7.0771 N   0  0  0  0  0  0  0  0  0  0  0  0
   18.4063  -24.8392   -6.2789 C   0  0  1  0  0  0  0  0  0  0  0  0
   19.0629  -24.5999   -4.9319 C   0  0  0  0  0  0  0  0  0  0  0  0
   18.6158  -26.0378   -3.8901 S   0  0  0  0  0  0  0  0  0  0  0  0
   16.9944  -25.2480   -6.1393 C   0  0  0  0  0  0  0  0  0  0  0  0
   15.9971  -24.3137   -6.2688 O   0  0  0  0  0  0  0  0  0  0  0  0
   16.7034  -26.4356   -5.9051 O   0  0  0  0  0  0  0  0  0  0  0  0
  2  1  1  6
  2  3  1  0
  3  4  1  0
  4  5  2  0
  5  6  1  0
  7  6  1  0
  8  7  2  0
  9  8  1  0
 10 11  1  0
 10  9  2  0
 11 12  2  0
 12  4  1  0
 12  7  1  0
 13  2  1  0
 13 21  1  0
 14 13  2  0
 16 17  2  0
 16 15  1  0
 18 16  1  0
 20 19  1  6
 19 18  1  0
 21 20  1  0
 22 20  1  0
 23 22  2  0
 24 22  1  0
 25 28  1  0
 25 24  1  0
 25 26  1  1
 27 26  1  0
 28 29  1  0
 30 28  2  0
M  END
$$$$
