WQC.pdb
     RDKit          3D

 30 31  0  0  1  0  0  0  0  0999 V2000
   23.5580  -10.8077  -15.7050 N   0  0  0  0  0  0  0  0  0  0  0  0
   22.4882  -10.0654  -16.2912 C   0  0  1  0  0  0  0  0  0  0  0  0
   21.1587  -10.2196  -15.5947 C   0  0  0  0  0  0  0  0  0  0  0  0
   20.5662  -11.5554  -15.7017 C   0  0  0  0  0  0  0  0  0  0  0  0
   21.0902  -12.7140  -15.2013 C   0  0  0  0  0  0  0  0  0  0  0  0
   20.2231  -13.7147  -15.4990 N   0  0  0  0  0  0  0  0  0  0  0  0
   19.1689  -13.2286  -16.1706 C   0  0  0  0  0  0  0  0  0  0  0  0
   18.0469  -13.8341  -16.6864 C   0  0  0  0  0  0  0  0  0  0  0  0
   17.0929  -13.0866  -17.3565 C   0  0  0  0  0  0  0  0  0  0  0  0
   17.2782  -11.7275  -17.5024 C   0  0  0  0  0  0  0  0  0  0  0  0
   18.4085  -11.1358  -16.9793 C   0  0  0  0  0  0  0  0  0  0  0  0
   19.3734  -11.8621  -16.3063 C   0  0  0  0  0  0  0  0  0  0  0  0
   22.7851   -8.6087  -16.3697 C   0  0  0  0  0  0  0  0  0  0  0  0
   23.4681   -8.0545  -15.4401 O   0  0  0  0  0  0  0  0  0  0  0  0
   22.7262   -6.3403  -21.7725 N   0  0  0  0  0  0  0  0  0  0  0  0
   21.4548   -6.1307  -21.1791 C   0  0  0  0  0  0  0  0  0  0  0  0
   20.4725   -6.0647  -21.9946 O   0  0  0  0  0  0  0  0  0  0  0  0
   21.2508   -5.9929  -19.7030 C   0  0  0  0  0  0  0  0  0  0  0  0
   22.5958   -5.9906  -19.0556 C   0  0  0  0  0  0  0  0  0  0  0  0
   22.5898   -6.4427  -17.6294 C   0  0  2  0  0  0  0  0  0  0  0  0
   22.3119   -7.8515  -17.4680 N   0  0  0  0  0  0  0  0  0  0  0  0
   21.7225   -5.6337  -16.7540 C   0  0  0  0  0  0  0  0  0  0  0  0
   20.4905   -5.8874  -16.7592 O   0  0  0  0  0  0  0  0  0  0  0  0
   22.1785   -4.5986  -15.9142 N   0  0  0  0  0  0  0  0  0  0  0  0
   21.2438   -3.9565  -15.0179 C   0  0  1  0  0  0  0  0  0  0  0  0
   22.0100   -3.4986  -13.7908 C   0  0  0  0  0  0  0  0  0  0  0  0
   22.6446   -5.0208  -12.9952 S   0  0  0  0  0  0  0  0  0  0  0  0
   20.5009   -2.8479  -15.6498 C   0  0  0  0  0  0  0  0  0  0  0  0
   20.7511   -2.5167  -16.9582 O   0  0  0  0  0  0  0  0  0  0  0  0
   19.6487   -2.2120  -15.0024 O   0  0  0  0  0  0  0  0  0  0  0  0
  2  1  1  1
  2  3  1  0
  3  4  1  0
  4  5  2  0
  5  6  1  0
  7  6  1  0
  8  7  2  0
  9  8  1  0
 10 11  1  0
 10  9  2  0
 11 12  2  0
 12  4  1  0
 12  7  1  0
 13  2  1  0
 13 21  1  0
 14 13  2  0
 16 17  2  0
 16 15  1  0
 18 16  1  0
 20 19  1  6
 19 18  1  0
 21 20  1  0
 22 20  1  0
 23 22  2  0
 24 22  1  0
 25 28  1  0
 25 24  1  0
 25 26  1  1
 27 26  1  0
 28 29  1  0
 30 28  2  0
M  END
$$$$
