WQC.pdb
     RDKit          3D

 30 31  0  0  1  0  0  0  0  0999 V2000
   27.0634  -20.9224  -10.1550 N   0  0  0  0  0  0  0  0  0  0  0  0
   25.9052  -20.6791   -9.3559 C   0  0  1  0  0  0  0  0  0  0  0  0
   26.0799  -19.6143   -8.3012 C   0  0  0  0  0  0  0  0  0  0  0  0
   27.4209  -19.5525   -7.7141 C   0  0  0  0  0  0  0  0  0  0  0  0
   28.5198  -18.9610   -8.2706 C   0  0  0  0  0  0  0  0  0  0  0  0
   29.5481  -19.1099   -7.3973 N   0  0  0  0  0  0  0  0  0  0  0  0
   29.1369  -19.7755   -6.3079 C   0  0  0  0  0  0  0  0  0  0  0  0
   29.7954  -20.1694   -5.1665 C   0  0  0  0  0  0  0  0  0  0  0  0
   29.1238  -20.8655   -4.1753 C   0  0  0  0  0  0  0  0  0  0  0  0
   27.7869  -21.1607   -4.3433 C   0  0  0  0  0  0  0  0  0  0  0  0
   27.1415  -20.7585   -5.4933 C   0  0  0  0  0  0  0  0  0  0  0  0
   27.7916  -20.0623   -6.4954 C   0  0  0  0  0  0  0  0  0  0  0  0
   24.7192  -20.3063  -10.1749 C   0  0  0  0  0  0  0  0  0  0  0  0
   23.7323  -19.7109   -9.6190 O   0  0  0  0  0  0  0  0  0  0  0  0
   25.0753  -18.5327  -16.0965 N   0  0  0  0  0  0  0  0  0  0  0  0
   25.4379  -19.8661  -15.7754 C   0  0  0  0  0  0  0  0  0  0  0  0
   26.1460  -20.4689  -16.6526 O   0  0  0  0  0  0  0  0  0  0  0  0
   25.0321  -20.5433  -14.5041 C   0  0  0  0  0  0  0  0  0  0  0  0
   24.1704  -19.5953  -13.7380 C   0  0  0  0  0  0  0  0  0  0  0  0
   23.6542  -20.1446  -12.4456 C   0  0  2  0  0  0  0  0  0  0  0  0
   24.6933  -20.6117  -11.5568 N   0  0  0  0  0  0  0  0  0  0  0  0
   22.6073  -21.1690  -12.6121 C   0  0  0  0  0  0  0  0  0  0  0  0
   22.9780  -22.3490  -12.8412 O   0  0  0  0  0  0  0  0  0  0  0  0
   21.2235  -20.9169  -12.5322 N   0  0  0  0  0  0  0  0  0  0  0  0
   20.2964  -22.0011  -12.7648 C   0  0  1  0  0  0  0  0  0  0  0  0
   19.2361  -21.9520  -11.6803 C   0  0  0  0  0  0  0  0  0  0  0  0
   20.0879  -21.3688  -10.1680 S   0  0  0  0  0  0  0  0  0  0  0  0
   19.7037  -21.9790  -14.1169 C   0  0  0  0  0  0  0  0  0  0  0  0
   18.9219  -23.0262  -14.5369 O   0  0  0  0  0  0  0  0  0  0  0  0
   19.9090  -21.0156  -14.8783 O   0  0  0  0  0  0  0  0  0  0  0  0
  2  1  1  6
  2  3  1  0
  3  4  1  0
  4  5  2  0
  5  6  1  0
  7  6  1  0
  8  7  2  0
  9  8  1  0
 10 11  1  0
 10  9  2  0
 11 12  2  0
 12  4  1  0
 12  7  1  0
 13  2  1  0
 13 21  1  0
 14 13  2  0
 16 17  2  0
 16 15  1  0
 18 16  1  0
 20 19  1  6
 19 18  1  0
 21 20  1  0
 22 20  1  0
 23 22  2  0
 24 22  1  0
 25 28  1  0
 25 24  1  0
 25 26  1  1
 27 26  1  0
 28 29  1  0
 30 28  2  0
M  END
$$$$
