VPV.pdb
     RDKit          3D

 22 22  0  0  1  0  0  0  0  0999 V2000
   25.7508  -14.6924  -16.9381 C   0  0  0  0  0  0  0  0  0  0  0  0
   25.5411  -15.8500  -15.9887 C   0  0  2  0  0  0  0  0  0  0  0  0
   26.4042  -15.5905  -14.7730 C   0  0  0  0  0  0  0  0  0  0  0  0
   25.9164  -17.1627  -16.6533 C   0  0  2  0  0  0  0  0  0  0  0  0
   25.2297  -17.3490  -17.9007 N   0  0  0  0  0  0  0  0  0  0  0  0
   25.8609  -18.2930  -15.7229 C   0  0  0  0  0  0  0  0  0  0  0  0
   24.6971  -18.7781  -15.4918 O   0  0  0  0  0  0  0  0  0  0  0  0
   26.9535  -18.9013  -15.0560 N   0  0  0  0  0  0  0  0  0  0  0  0
   28.3558  -18.5610  -14.9929 C   0  0  0  0  0  0  0  0  0  0  0  0
   29.0090  -19.9312  -15.2370 C   0  0  0  0  0  0  0  0  0  0  0  0
   28.1421  -20.8692  -14.4623 C   0  0  0  0  0  0  0  0  0  0  0  0
   26.8843  -20.1145  -14.2135 C   0  0  1  0  0  0  0  0  0  0  0  0
   26.6128  -19.7822  -12.8166 C   0  0  0  0  0  0  0  0  0  0  0  0
   27.1818  -18.7724  -12.3289 O   0  0  0  0  0  0  0  0  0  0  0  0
   24.0074  -21.1269   -8.7891 C   0  0  0  0  0  0  0  0  0  0  0  0
   24.0792  -20.5066  -10.1613 C   0  0  2  0  0  0  0  0  0  0  0  0
   23.4232  -21.4476  -11.1490 C   0  0  0  0  0  0  0  0  0  0  0  0
   25.4949  -20.2174  -10.5921 C   0  0  2  0  0  0  0  0  0  0  0  0
   25.7494  -20.5175  -11.9615 N   0  0  0  0  0  0  0  0  0  0  0  0
   26.4174  -20.8806   -9.6544 C   0  0  0  0  0  0  0  0  0  0  0  0
   27.1463  -22.0123   -9.9773 O   0  0  0  0  0  0  0  0  0  0  0  0
   26.5602  -20.4068   -8.5003 O   0  0  0  0  0  0  0  0  0  0  0  0
  2  1  1  6
  2  4  1  0
  2  3  1  0
  4  6  1  0
  4  5  1  6
  6  8  1  0
  6  7  2  0
  8 12  1  0
  9 10  1  0
  9  8  1  0
 10 11  1  0
 11 12  1  0
 12 13  1  1
 13 14  2  0
 16 18  1  0
 16 15  1  1
 17 16  1  0
 18 20  1  0
 19 13  1  0
 18 19  1  6
 20 21  1  0
 22 20  2  0
M  END
$$$$
