VPV.pdb
     RDKit          3D

 22 22  0  0  1  0  0  0  0  0999 V2000
   25.1185  -16.1216  -16.8023 C   0  0  0  0  0  0  0  0  0  0  0  0
   25.1514  -16.9905  -15.5657 C   0  0  2  0  0  0  0  0  0  0  0  0
   26.3187  -16.5224  -14.7238 C   0  0  0  0  0  0  0  0  0  0  0  0
   25.3035  -18.4535  -15.9428 C   0  0  2  0  0  0  0  0  0  0  0  0
   24.3033  -18.8725  -16.8842 N   0  0  0  0  0  0  0  0  0  0  0  0
   25.4725  -19.3154  -14.7702 C   0  0  0  0  0  0  0  0  0  0  0  0
   24.3964  -19.7743  -14.2463 O   0  0  0  0  0  0  0  0  0  0  0  0
   26.6946  -19.6915  -14.1589 N   0  0  0  0  0  0  0  0  0  0  0  0
   28.0551  -19.2574  -14.3752 C   0  0  0  0  0  0  0  0  0  0  0  0
   28.7965  -20.6035  -14.4209 C   0  0  0  0  0  0  0  0  0  0  0  0
   28.1293  -21.4011  -13.3484 C   0  0  0  0  0  0  0  0  0  0  0  0
   26.8494  -20.6914  -13.0807 C   0  0  1  0  0  0  0  0  0  0  0  0
   26.7316  -20.0777  -11.7597 C   0  0  0  0  0  0  0  0  0  0  0  0
   27.1241  -18.8909  -11.6233 O   0  0  0  0  0  0  0  0  0  0  0  0
   24.4097  -21.8290   -8.4183 C   0  0  0  0  0  0  0  0  0  0  0  0
   24.6029  -20.3783   -8.7804 C   0  0  2  0  0  0  0  0  0  0  0  0
   23.5397  -19.9879   -9.7848 C   0  0  0  0  0  0  0  0  0  0  0  0
   25.9714  -20.1014   -9.3494 C   0  0  2  0  0  0  0  0  0  0  0  0
   26.2042  -20.7237  -10.6099 N   0  0  0  0  0  0  0  0  0  0  0  0
   26.9813  -20.4274   -8.3276 C   0  0  0  0  0  0  0  0  0  0  0  0
   27.1229  -19.7207   -7.1458 O   0  0  0  0  0  0  0  0  0  0  0  0
   27.7601  -21.3925   -8.5248 O   0  0  0  0  0  0  0  0  0  0  0  0
  2  1  1  6
  2  4  1  0
  2  3  1  0
  4  6  1  0
  4  5  1  1
  6  8  1  0
  6  7  2  0
  8 12  1  0
  9 10  1  0
  9  8  1  0
 10 11  1  0
 11 12  1  0
 12 13  1  1
 13 14  2  0
 16 18  1  0
 16 15  1  6
 17 16  1  0
 18 20  1  0
 19 13  1  0
 18 19  1  6
 20 21  1  0
 22 20  2  0
M  END
$$$$
