VPV.pdb
     RDKit          3D

 22 22  0  0  1  0  0  0  0  0999 V2000
   23.7989  -14.9547  -16.9161 C   0  0  0  0  0  0  0  0  0  0  0  0
   24.1362  -16.1158  -16.0088 C   0  0  2  0  0  0  0  0  0  0  0  0
   25.0747  -15.5905  -14.9441 C   0  0  0  0  0  0  0  0  0  0  0  0
   24.7818  -17.2416  -16.7970 C   0  0  2  0  0  0  0  0  0  0  0  0
   23.9688  -17.6564  -17.9056 N   0  0  0  0  0  0  0  0  0  0  0  0
   25.2712  -18.3173  -15.9310 C   0  0  0  0  0  0  0  0  0  0  0  0
   24.4118  -19.2065  -15.5938 O   0  0  0  0  0  0  0  0  0  0  0  0
   26.5877  -18.4752  -15.4306 N   0  0  0  0  0  0  0  0  0  0  0  0
   27.7538  -17.6255  -15.4981 C   0  0  0  0  0  0  0  0  0  0  0  0
   28.8389  -18.6358  -15.9051 C   0  0  0  0  0  0  0  0  0  0  0  0
   28.4959  -19.8505  -15.1061 C   0  0  0  0  0  0  0  0  0  0  0  0
   27.0890  -19.6401  -14.6704 C   0  0  1  0  0  0  0  0  0  0  0  0
   26.8921  -19.4670  -13.2328 C   0  0  0  0  0  0  0  0  0  0  0  0
   27.1281  -18.3358  -12.7369 O   0  0  0  0  0  0  0  0  0  0  0  0
   24.4967  -20.4130   -9.1036 C   0  0  0  0  0  0  0  0  0  0  0  0
   24.7603  -20.6318  -10.5718 C   0  0  2  0  0  0  0  0  0  0  0  0
   24.4508  -22.0755  -10.9057 C   0  0  0  0  0  0  0  0  0  0  0  0
   26.1817  -20.3100  -10.9585 C   0  0  2  0  0  0  0  0  0  0  0  0
   26.4514  -20.4857  -12.3465 N   0  0  0  0  0  0  0  0  0  0  0  0
   27.0915  -21.0590  -10.0744 C   0  0  0  0  0  0  0  0  0  0  0  0
   27.3113  -20.7239   -8.7495 O   0  0  0  0  0  0  0  0  0  0  0  0
   27.7058  -22.0541  -10.5321 O   0  0  0  0  0  0  0  0  0  0  0  0
  2  1  1  6
  2  4  1  0
  2  3  1  0
  4  6  1  0
  4  5  1  6
  6  8  1  0
  6  7  2  0
  8 12  1  0
  9 10  1  0
  9  8  1  0
 10 11  1  0
 11 12  1  0
 12 13  1  1
 13 14  2  0
 16 18  1  0
 16 15  1  1
 17 16  1  0
 18 20  1  0
 19 13  1  0
 18 19  1  6
 20 21  1  0
 22 20  2  0
M  END
$$$$
