VPV.pdb
     RDKit          3D

 22 22  0  0  1  0  0  0  0  0999 V2000
   23.2837  -20.1398  -13.5312 C   0  0  0  0  0  0  0  0  0  0  0  0
   24.1177  -20.3536  -12.2887 C   0  0  2  0  0  0  0  0  0  0  0  0
   24.7136  -19.0131  -11.9166 C   0  0  0  0  0  0  0  0  0  0  0  0
   25.2057  -21.3816  -12.5440 C   0  0  2  0  0  0  0  0  0  0  0  0
   24.6897  -22.5653  -13.1723 N   0  0  0  0  0  0  0  0  0  0  0  0
   26.0484  -21.6038  -11.3663 C   0  0  0  0  0  0  0  0  0  0  0  0
   25.5913  -22.4202  -10.4903 O   0  0  0  0  0  0  0  0  0  0  0  0
   27.3082  -21.0130  -11.0971 N   0  0  0  0  0  0  0  0  0  0  0  0
   28.0620  -19.9920  -11.7867 C   0  0  0  0  0  0  0  0  0  0  0  0
   29.4637  -20.6230  -11.8185 C   0  0  0  0  0  0  0  0  0  0  0  0
   29.5857  -21.2595  -10.4726 C   0  0  0  0  0  0  0  0  0  0  0  0
   28.1920  -21.3441   -9.9589 C   0  0  1  0  0  0  0  0  0  0  0  0
   27.8973  -20.5145   -8.7925 C   0  0  0  0  0  0  0  0  0  0  0  0
   27.3289  -19.4091   -8.9830 O   0  0  0  0  0  0  0  0  0  0  0  0
   27.5940  -20.0025   -3.8172 C   0  0  0  0  0  0  0  0  0  0  0  0
   28.0672  -20.8095   -4.9995 C   0  0  2  0  0  0  0  0  0  0  0  0
   29.5218  -21.1696   -4.7844 C   0  0  0  0  0  0  0  0  0  0  0  0
   27.9100  -20.0707   -6.3044 C   0  0  2  0  0  0  0  0  0  0  0  0
   28.2058  -20.8636   -7.4507 N   0  0  0  0  0  0  0  0  0  0  0  0
   28.6797  -18.8167   -6.2315 C   0  0  0  0  0  0  0  0  0  0  0  0
   29.8524  -18.6023   -6.9349 O   0  0  0  0  0  0  0  0  0  0  0  0
   28.2631  -17.8862   -5.4982 O   0  0  0  0  0  0  0  0  0  0  0  0
  2  1  1  6
  2  4  1  0
  2  3  1  0
  4  6  1  0
  4  5  1  1
  6  8  1  0
  6  7  2  0
  8 12  1  0
  9 10  1  0
  9  8  1  0
 10 11  1  0
 11 12  1  0
 12 13  1  1
 13 14  2  0
 16 18  1  0
 16 15  1  1
 17 16  1  0
 18 20  1  0
 19 13  1  0
 18 19  1  6
 20 21  1  0
 22 20  2  0
M  END
$$$$
