VPV.pdb
     RDKit          3D

 22 22  0  0  1  0  0  0  0  0999 V2000
   26.0430  -23.3475  -19.5780 C   0  0  0  0  0  0  0  0  0  0  0  0
   26.0999  -22.9875  -18.1109 C   0  0  2  0  0  0  0  0  0  0  0  0
   25.0626  -21.9108  -17.8763 C   0  0  0  0  0  0  0  0  0  0  0  0
   27.4871  -22.4994  -17.7325 C   0  0  2  0  0  0  0  0  0  0  0  0
   28.5085  -23.4328  -18.1169 N   0  0  0  0  0  0  0  0  0  0  0  0
   27.5506  -22.0229  -16.3486 C   0  0  0  0  0  0  0  0  0  0  0  0
   27.8807  -22.8920  -15.4662 O   0  0  0  0  0  0  0  0  0  0  0  0
   27.2864  -20.7090  -15.8875 N   0  0  0  0  0  0  0  0  0  0  0  0
   26.7391  -19.5468  -16.5477 C   0  0  0  0  0  0  0  0  0  0  0  0
   27.7217  -18.4538  -16.0962 C   0  0  0  0  0  0  0  0  0  0  0  0
   27.9847  -18.7962  -14.6661 C   0  0  0  0  0  0  0  0  0  0  0  0
   27.5360  -20.2071  -14.5192 C   0  0  1  0  0  0  0  0  0  0  0  0
   26.3778  -20.4148  -13.6526 C   0  0  0  0  0  0  0  0  0  0  0  0
   25.2487  -20.5294  -14.1940 O   0  0  0  0  0  0  0  0  0  0  0  0
   24.4993  -21.1729   -9.0485 C   0  0  0  0  0  0  0  0  0  0  0  0
   25.6719  -20.8002   -9.9196 C   0  0  2  0  0  0  0  0  0  0  0  0
   26.1469  -19.4192   -9.5210 C   0  0  0  0  0  0  0  0  0  0  0  0
   25.3312  -20.8206  -11.3882 C   0  0  2  0  0  0  0  0  0  0  0  0
   26.4302  -20.4977  -12.2357 N   0  0  0  0  0  0  0  0  0  0  0  0
   24.1415  -19.9799  -11.6075 C   0  0  0  0  0  0  0  0  0  0  0  0
   22.8468  -20.4277  -11.4090 O   0  0  0  0  0  0  0  0  0  0  0  0
   24.2940  -18.7949  -11.9941 O   0  0  0  0  0  0  0  0  0  0  0  0
  2  1  1  6
  2  4  1  0
  2  3  1  0
  4  6  1  0
  4  5  1  1
  6  8  1  0
  6  7  2  0
  8 12  1  0
  9 10  1  0
  9  8  1  0
 10 11  1  0
 11 12  1  0
 12 13  1  1
 13 14  2  0
 16 18  1  0
 16 15  1  1
 17 16  1  0
 18 20  1  0
 19 13  1  0
 18 19  1  6
 20 21  1  0
 22 20  2  0
M  END
$$$$
