VPV.pdb
     RDKit          3D

 22 22  0  0  1  0  0  0  0  0999 V2000
   21.7608  -21.7039  -10.9257 C   0  0  0  0  0  0  0  0  0  0  0  0
   22.7589  -20.7907  -11.6003 C   0  0  2  0  0  0  0  0  0  0  0  0
   22.8631  -21.2341  -13.0435 C   0  0  0  0  0  0  0  0  0  0  0  0
   24.1082  -20.8671  -10.9080 C   0  0  2  0  0  0  0  0  0  0  0  0
   23.9957  -20.6758   -9.4892 N   0  0  0  0  0  0  0  0  0  0  0  0
   25.1248  -20.0537  -11.5798 C   0  0  0  0  0  0  0  0  0  0  0  0
   25.1512  -18.8108  -11.2673 O   0  0  0  0  0  0  0  0  0  0  0  0
   26.0755  -20.4958  -12.5333 N   0  0  0  0  0  0  0  0  0  0  0  0
   26.3468  -21.7998  -13.0920 C   0  0  0  0  0  0  0  0  0  0  0  0
   27.8796  -21.8585  -12.9884 C   0  0  0  0  0  0  0  0  0  0  0  0
   28.3030  -20.4737  -13.3552 C   0  0  0  0  0  0  0  0  0  0  0  0
   27.0749  -19.6457  -13.2150 C   0  0  1  0  0  0  0  0  0  0  0  0
   26.5450  -19.0861  -14.4566 C   0  0  0  0  0  0  0  0  0  0  0  0
   25.7570  -19.7943  -15.1339 O   0  0  0  0  0  0  0  0  0  0  0  0
   25.1590  -14.8595  -16.6426 C   0  0  0  0  0  0  0  0  0  0  0  0
   25.8380  -15.6364  -15.5434 C   0  0  2  0  0  0  0  0  0  0  0  0
   27.1536  -14.9611  -15.2196 C   0  0  0  0  0  0  0  0  0  0  0  0
   26.0800  -17.0768  -15.9174 C   0  0  2  0  0  0  0  0  0  0  0  0
   26.8542  -17.7947  -14.9606 N   0  0  0  0  0  0  0  0  0  0  0  0
   26.6283  -17.1229  -17.2841 C   0  0  0  0  0  0  0  0  0  0  0  0
   25.8514  -17.3458  -18.4079 O   0  0  0  0  0  0  0  0  0  0  0  0
   27.8609  -16.9532  -17.4536 O   0  0  0  0  0  0  0  0  0  0  0  0
  2  1  1  1
  2  4  1  0
  2  3  1  0
  4  6  1  0
  4  5  1  1
  6  8  1  0
  6  7  2  0
  8 12  1  0
  9 10  1  0
  9  8  1  0
 10 11  1  0
 11 12  1  0
 12 13  1  6
 13 14  2  0
 16 18  1  0
 16 15  1  6
 17 16  1  0
 18 20  1  0
 19 13  1  0
 18 19  1  1
 20 21  1  0
 22 20  2  0
M  END
$$$$
