VPV.pdb
     RDKit          3D

 22 22  0  0  1  0  0  0  0  0999 V2000
   20.5592  -17.5784  -18.3837 C   0  0  0  0  0  0  0  0  0  0  0  0
   22.0153  -17.9176  -18.1604 C   0  0  2  0  0  0  0  0  0  0  0  0
   22.2540  -19.2802  -18.7743 C   0  0  0  0  0  0  0  0  0  0  0  0
   22.3428  -17.9230  -16.6777 C   0  0  2  0  0  0  0  0  0  0  0  0
   21.6974  -19.0051  -15.9888 N   0  0  0  0  0  0  0  0  0  0  0  0
   22.1866  -16.5996  -16.0689 C   0  0  0  0  0  0  0  0  0  0  0  0
   21.0897  -16.3935  -15.4385 O   0  0  0  0  0  0  0  0  0  0  0  0
   23.1166  -15.5307  -16.1048 N   0  0  0  0  0  0  0  0  0  0  0  0
   24.4253  -15.4104  -16.7039 C   0  0  0  0  0  0  0  0  0  0  0  0
   25.2239  -14.7714  -15.5561 C   0  0  0  0  0  0  0  0  0  0  0  0
   24.2637  -13.7854  -14.9752 C   0  0  0  0  0  0  0  0  0  0  0  0
   22.9293  -14.2015  -15.4848 C   0  0  1  0  0  0  0  0  0  0  0  0
   22.2848  -13.2669  -16.4049 C   0  0  0  0  0  0  0  0  0  0  0  0
   22.6597  -13.2675  -17.6052 O   0  0  0  0  0  0  0  0  0  0  0  0
   18.4165  -11.5062  -15.6288 C   0  0  0  0  0  0  0  0  0  0  0  0
   19.0610  -11.7654  -16.9669 C   0  0  2  0  0  0  0  0  0  0  0  0
   18.7859  -13.2003  -17.3629 C   0  0  0  0  0  0  0  0  0  0  0  0
   20.5476  -11.5144  -16.9513 C   0  0  2  0  0  0  0  0  0  0  0  0
   21.2603  -12.3514  -16.0448 N   0  0  0  0  0  0  0  0  0  0  0  0
   20.7802  -10.0747  -16.7425 C   0  0  0  0  0  0  0  0  0  0  0  0
   21.3427   -9.5546  -15.5897 O   0  0  0  0  0  0  0  0  0  0  0  0
   20.4567   -9.2664  -17.6475 O   0  0  0  0  0  0  0  0  0  0  0  0
  2  1  1  1
  2  4  1  0
  2  3  1  0
  4  6  1  0
  4  5  1  1
  6  8  1  0
  6  7  2  0
  8 12  1  0
  9 10  1  0
  9  8  1  0
 10 11  1  0
 11 12  1  0
 12 13  1  6
 13 14  2  0
 16 18  1  0
 16 15  1  1
 17 16  1  0
 18 20  1  0
 19 13  1  0
 18 19  1  1
 20 21  1  0
 22 20  2  0
M  END
$$$$
