AFC.pdb
     RDKit          3D

 23 23  0  0  1  0  0  0  0  0999 V2000
   21.4709  -20.2196  -13.6796 C   0  0  0  0  0  0  0  0  0  0  0  0
   22.9240  -20.5214  -13.9507 C   0  0  2  0  0  0  0  0  0  0  0  0
   22.9783  -21.5514  -14.9567 N   0  0  0  0  0  0  0  0  0  0  0  0
   23.6525  -20.9491  -12.7306 C   0  0  0  0  0  0  0  0  0  0  0  0
   23.7497  -22.1673  -12.4597 O   0  0  0  0  0  0  0  0  0  0  0  0
   24.2608  -20.0390  -11.8295 N   0  0  0  0  0  0  0  0  0  0  0  0
   24.9902  -20.4116  -10.6449 C   0  0  1  0  0  0  0  0  0  0  0  0
   26.1195  -19.5368  -10.3002 C   0  0  0  0  0  0  0  0  0  0  0  0
   26.8751  -19.8091   -9.1068 C   0  0  0  0  0  0  0  0  0  0  0  0
   26.6871  -19.1793   -7.9006 C   0  0  0  0  0  0  0  0  0  0  0  0
   27.4698  -19.5144   -6.8118 C   0  0  0  0  0  0  0  0  0  0  0  0
   28.4561  -20.4796   -6.8912 C   0  0  0  0  0  0  0  0  0  0  0  0
   28.6560  -21.1246   -8.1077 C   0  0  0  0  0  0  0  0  0  0  0  0
   27.8745  -20.7897   -9.1937 C   0  0  0  0  0  0  0  0  0  0  0  0
   24.0254  -20.6929   -9.5553 C   0  0  0  0  0  0  0  0  0  0  0  0
   23.0536  -19.9008   -9.3276 O   0  0  0  0  0  0  0  0  0  0  0  0
   24.0827  -21.8232   -8.6944 N   0  0  0  0  0  0  0  0  0  0  0  0
   23.2810  -21.9437   -7.4919 C   0  0  1  0  0  0  0  0  0  0  0  0
   23.4884  -20.7556   -6.5708 C   0  0  0  0  0  0  0  0  0  0  0  0
   22.5485  -21.1050   -5.0494 S   0  0  0  0  0  0  0  0  0  0  0  0
   21.8664  -22.2166   -7.7486 C   0  0  0  0  0  0  0  0  0  0  0  0
   21.2059  -23.2464   -7.0730 O   0  0  0  0  0  0  0  0  0  0  0  0
   21.1564  -21.5748   -8.5641 O   0  0  0  0  0  0  0  0  0  0  0  0
  2  1  1  1
  2  3  1  0
  4  2  1  0
  4  5  2  0
  6  4  1  0
  7  6  1  0
  7  8  1  1
  9  8  1  0
  9 14  2  0
 10  9  1  0
 11 10  2  0
 11 12  1  0
 12 13  2  0
 13 14  1  0
 15  7  1  0
 16 15  2  0
 17 15  1  0
 18 17  1  0
 18 21  1  0
 19 20  1  0
 18 19  1  6
 21 22  1  0
 23 21  2  0
M  END
$$$$
