AFC.pdb
     RDKit          3D

 23 23  0  0  1  0  0  0  0  0999 V2000
   26.4037  -18.9516  -19.0306 C   0  0  0  0  0  0  0  0  0  0  0  0
   27.5068  -19.3640  -18.0876 C   0  0  2  0  0  0  0  0  0  0  0  0
   28.3842  -20.2561  -18.8018 N   0  0  0  0  0  0  0  0  0  0  0  0
   26.9896  -20.0177  -16.8599 C   0  0  0  0  0  0  0  0  0  0  0  0
   26.7990  -21.2549  -16.8477 O   0  0  0  0  0  0  0  0  0  0  0  0
   26.6904  -19.3089  -15.6690 N   0  0  0  0  0  0  0  0  0  0  0  0
   26.2447  -19.9104  -14.4388 C   0  0  1  0  0  0  0  0  0  0  0  0
   26.8359  -19.3517  -13.2148 C   0  0  0  0  0  0  0  0  0  0  0  0
   26.4031  -19.8534  -11.9381 C   0  0  0  0  0  0  0  0  0  0  0  0
   25.3334  -19.3660  -11.2273 C   0  0  0  0  0  0  0  0  0  0  0  0
   25.0005  -19.9191  -10.0052 C   0  0  0  0  0  0  0  0  0  0  0  0
   25.7177  -20.9666   -9.4584 C   0  0  0  0  0  0  0  0  0  0  0  0
   26.8033  -21.4689  -10.1689 C   0  0  0  0  0  0  0  0  0  0  0  0
   27.1349  -20.9164  -11.3884 C   0  0  0  0  0  0  0  0  0  0  0  0
   24.7661  -20.0127  -14.4622 C   0  0  0  0  0  0  0  0  0  0  0  0
   24.0492  -18.9993  -14.7499 O   0  0  0  0  0  0  0  0  0  0  0  0
   24.0317  -21.1973  -14.1807 N   0  0  0  0  0  0  0  0  0  0  0  0
   22.5855  -21.2258  -14.0754 C   0  0  1  0  0  0  0  0  0  0  0  0
   22.0599  -22.6493  -14.0985 C   0  0  0  0  0  0  0  0  0  0  0  0
   22.7829  -23.4481  -15.5681 S   0  0  0  0  0  0  0  0  0  0  0  0
   22.0585  -20.4495  -12.9523 C   0  0  0  0  0  0  0  0  0  0  0  0
   20.6811  -20.2779  -12.7895 O   0  0  0  0  0  0  0  0  0  0  0  0
   22.7705  -19.8951  -12.0766 O   0  0  0  0  0  0  0  0  0  0  0  0
  2  1  1  6
  2  3  1  0
  4  2  1  0
  4  5  2  0
  6  4  1  0
  7  6  1  0
  7  8  1  1
  9  8  1  0
  9 14  2  0
 10  9  1  0
 11 10  2  0
 11 12  1  0
 12 13  2  0
 13 14  1  0
 15  7  1  0
 16 15  2  0
 17 15  1  0
 18 17  1  0
 18 21  1  0
 19 20  1  0
 18 19  1  1
 21 22  1  0
 23 21  2  0
M  END
$$$$
