AFC.pdb
     RDKit          3D

 23 23  0  0  1  0  0  0  0  0999 V2000
   23.5362   -9.9642  -21.5958 C   0  0  0  0  0  0  0  0  0  0  0  0
   24.4615  -10.1243  -20.4149 C   0  0  2  0  0  0  0  0  0  0  0  0
   24.2529  -11.4412  -19.8691 N   0  0  0  0  0  0  0  0  0  0  0  0
   24.2384   -9.0901  -19.3743 C   0  0  0  0  0  0  0  0  0  0  0  0
   23.2779   -9.2049  -18.5798 O   0  0  0  0  0  0  0  0  0  0  0  0
   25.0678   -7.9505  -19.2206 N   0  0  0  0  0  0  0  0  0  0  0  0
   24.9214   -6.9543  -18.1910 C   0  0  1  0  0  0  0  0  0  0  0  0
   25.9636   -6.9624  -17.1549 C   0  0  0  0  0  0  0  0  0  0  0  0
   26.1324   -8.1378  -16.3431 C   0  0  0  0  0  0  0  0  0  0  0  0
   27.2254   -8.9688  -16.3868 C   0  0  0  0  0  0  0  0  0  0  0  0
   27.2896  -10.0771  -15.5633 C   0  0  0  0  0  0  0  0  0  0  0  0
   26.2746  -10.3885  -14.6781 C   0  0  0  0  0  0  0  0  0  0  0  0
   25.1624   -9.5542  -14.6246 C   0  0  0  0  0  0  0  0  0  0  0  0
   25.0991   -8.4485  -15.4467 C   0  0  0  0  0  0  0  0  0  0  0  0
   24.6418   -5.6445  -18.8261 C   0  0  0  0  0  0  0  0  0  0  0  0
   25.2593   -5.2899  -19.8827 O   0  0  0  0  0  0  0  0  0  0  0  0
   23.6990   -4.6955  -18.3441 N   0  0  0  0  0  0  0  0  0  0  0  0
   23.3232   -3.5066  -19.0850 C   0  0  1  0  0  0  0  0  0  0  0  0
   22.8427   -3.8571  -20.4811 C   0  0  0  0  0  0  0  0  0  0  0  0
   22.5055   -2.2793  -21.3280 S   0  0  0  0  0  0  0  0  0  0  0  0
   22.3897   -2.6347  -18.3708 C   0  0  0  0  0  0  0  0  0  0  0  0
   22.6208   -1.2588  -18.2896 O   0  0  0  0  0  0  0  0  0  0  0  0
   21.3455   -3.0334  -17.7947 O   0  0  0  0  0  0  0  0  0  0  0  0
  2  1  1  6
  2  3  1  0
  4  2  1  0
  4  5  2  0
  6  4  1  0
  7  6  1  0
  7  8  1  6
  9  8  1  0
  9 14  2  0
 10  9  1  0
 11 10  2  0
 11 12  1  0
 12 13  2  0
 13 14  1  0
 15  7  1  0
 16 15  2  0
 17 15  1  0
 18 17  1  0
 18 21  1  0
 19 20  1  0
 18 19  1  6
 21 22  1  0
 23 21  2  0
M  END
$$$$
