AFC.pdb
     RDKit          3D

 23 23  0  0  1  0  0  0  0  0999 V2000
   27.6149  -18.4319  -14.8408 C   0  0  0  0  0  0  0  0  0  0  0  0
   28.1438  -19.6127  -14.0649 C   0  0  2  0  0  0  0  0  0  0  0  0
   28.8296  -20.4759  -14.9924 N   0  0  0  0  0  0  0  0  0  0  0  0
   27.0698  -20.3567  -13.3609 C   0  0  0  0  0  0  0  0  0  0  0  0
   26.5611  -21.3679  -13.8954 O   0  0  0  0  0  0  0  0  0  0  0  0
   26.5718  -19.9829  -12.0872 N   0  0  0  0  0  0  0  0  0  0  0  0
   25.5026  -20.6494  -11.3895 C   0  0  1  0  0  0  0  0  0  0  0  0
   25.4981  -20.4743   -9.9304 C   0  0  0  0  0  0  0  0  0  0  0  0
   26.7470  -20.5166   -9.2179 C   0  0  0  0  0  0  0  0  0  0  0  0
   27.8360  -21.2659   -9.5911 C   0  0  0  0  0  0  0  0  0  0  0  0
   28.9922  -21.2374   -8.8342 C   0  0  0  0  0  0  0  0  0  0  0  0
   29.0974  -20.4671   -7.6912 C   0  0  0  0  0  0  0  0  0  0  0  0
   28.0010  -19.7037   -7.3030 C   0  0  0  0  0  0  0  0  0  0  0  0
   26.8476  -19.7327   -8.0588 C   0  0  0  0  0  0  0  0  0  0  0  0
   24.2249  -20.3661  -12.0854 C   0  0  0  0  0  0  0  0  0  0  0  0
   24.0574  -19.2717  -12.7162 O   0  0  0  0  0  0  0  0  0  0  0  0
   23.1086  -21.2463  -12.1193 N   0  0  0  0  0  0  0  0  0  0  0  0
   22.2149  -21.3478  -13.2570 C   0  0  1  0  0  0  0  0  0  0  0  0
   22.9852  -21.5888  -14.5422 C   0  0  0  0  0  0  0  0  0  0  0  0
   21.7635  -21.5687  -15.8939 S   0  0  0  0  0  0  0  0  0  0  0  0
   21.1225  -22.3031  -13.0681 C   0  0  0  0  0  0  0  0  0  0  0  0
   21.3837  -23.6721  -12.9649 O   0  0  0  0  0  0  0  0  0  0  0  0
   19.9085  -21.9857  -12.9861 O   0  0  0  0  0  0  0  0  0  0  0  0
  2  1  1  6
  2  3  1  0
  4  2  1  0
  4  5  2  0
  6  4  1  0
  7  6  1  0
  7  8  1  1
  9  8  1  0
  9 14  2  0
 10  9  1  0
 11 10  2  0
 11 12  1  0
 12 13  2  0
 13 14  1  0
 15  7  1  0
 16 15  2  0
 17 15  1  0
 18 17  1  0
 18 21  1  0
 19 20  1  0
 18 19  1  6
 21 22  1  0
 23 21  2  0
M  END
$$$$
