AFC.pdb
     RDKit          3D

 23 23  0  0  1  0  0  0  0  0999 V2000
   22.3594   -9.4259  -21.0340 C   0  0  0  0  0  0  0  0  0  0  0  0
   23.4581   -9.5719  -20.0105 C   0  0  2  0  0  0  0  0  0  0  0  0
   23.8551  -10.9567  -19.9871 N   0  0  0  0  0  0  0  0  0  0  0  0
   23.0366   -9.1303  -18.6579 C   0  0  0  0  0  0  0  0  0  0  0  0
   22.2422   -9.8338  -17.9938 O   0  0  0  0  0  0  0  0  0  0  0  0
   23.4900   -7.9294  -18.0560 N   0  0  0  0  0  0  0  0  0  0  0  0
   23.1648   -7.5001  -16.7203 C   0  0  1  0  0  0  0  0  0  0  0  0
   24.3136   -7.3042  -15.8250 C   0  0  0  0  0  0  0  0  0  0  0  0
   25.2333   -8.3912  -15.6209 C   0  0  0  0  0  0  0  0  0  0  0  0
   26.4451   -8.5206  -16.2547 C   0  0  0  0  0  0  0  0  0  0  0  0
   27.2566   -9.6073  -15.9882 C   0  0  0  0  0  0  0  0  0  0  0  0
   26.8882  -10.5903  -15.0890 C   0  0  0  0  0  0  0  0  0  0  0  0
   25.6631  -10.4702  -14.4406 C   0  0  0  0  0  0  0  0  0  0  0  0
   24.8538   -9.3856  -14.7071 C   0  0  0  0  0  0  0  0  0  0  0  0
   22.1986   -6.3786  -16.7981 C   0  0  0  0  0  0  0  0  0  0  0  0
   22.3353   -5.4629  -17.6736 O   0  0  0  0  0  0  0  0  0  0  0  0
   21.0727   -6.2188  -15.9445 N   0  0  0  0  0  0  0  0  0  0  0  0
   20.0048   -5.2744  -16.2112 C   0  0  1  0  0  0  0  0  0  0  0  0
   19.4110   -5.4905  -17.5910 C   0  0  0  0  0  0  0  0  0  0  0  0
   18.2949   -4.0847  -17.9043 S   0  0  0  0  0  0  0  0  0  0  0  0
   18.9860   -5.2213  -15.1620 C   0  0  0  0  0  0  0  0  0  0  0  0
   18.5928   -3.9979  -14.6126 O   0  0  0  0  0  0  0  0  0  0  0  0
   18.4034   -6.2293  -14.6869 O   0  0  0  0  0  0  0  0  0  0  0  0
  2  1  1  6
  2  3  1  0
  4  2  1  0
  4  5  2  0
  6  4  1  0
  7  6  1  0
  7  8  1  6
  9  8  1  0
  9 14  2  0
 10  9  1  0
 11 10  2  0
 11 12  1  0
 12 13  2  0
 13 14  1  0
 15  7  1  0
 16 15  2  0
 17 15  1  0
 18 17  1  0
 18 21  1  0
 19 20  1  0
 18 19  1  6
 21 22  1  0
 23 21  2  0
M  END
$$$$
