AFC.pdb
     RDKit          3D

 23 23  0  0  1  0  0  0  0  0999 V2000
   21.7703  -22.8733   -8.8140 C   0  0  0  0  0  0  0  0  0  0  0  0
   22.6659  -21.9359   -8.0424 C   0  0  2  0  0  0  0  0  0  0  0  0
   21.8225  -21.0569   -7.2730 N   0  0  0  0  0  0  0  0  0  0  0  0
   23.5631  -21.1513   -8.9265 C   0  0  0  0  0  0  0  0  0  0  0  0
   23.1842  -20.0446   -9.3724 O   0  0  0  0  0  0  0  0  0  0  0  0
   24.8567  -21.5894   -9.3071 N   0  0  0  0  0  0  0  0  0  0  0  0
   25.7730  -20.8437  -10.1308 C   0  0  1  0  0  0  0  0  0  0  0  0
   27.1768  -20.8747   -9.6974 C   0  0  0  0  0  0  0  0  0  0  0  0
   27.5365  -20.2559   -8.4497 C   0  0  0  0  0  0  0  0  0  0  0  0
   27.0584  -19.0455   -8.0098 C   0  0  0  0  0  0  0  0  0  0  0  0
   27.4693  -18.5366   -6.7922 C   0  0  0  0  0  0  0  0  0  0  0  0
   28.3620  -19.2131   -5.9821 C   0  0  0  0  0  0  0  0  0  0  0  0
   28.8532  -20.4401   -6.4168 C   0  0  0  0  0  0  0  0  0  0  0  0
   28.4428  -20.9472   -7.6320 C   0  0  0  0  0  0  0  0  0  0  0  0
   25.5209  -21.1772  -11.5530 C   0  0  0  0  0  0  0  0  0  0  0  0
   25.6752  -22.3684  -11.9782 O   0  0  0  0  0  0  0  0  0  0  0  0
   25.0994  -20.2453  -12.5409 N   0  0  0  0  0  0  0  0  0  0  0  0
   24.1971  -20.5920  -13.6222 C   0  0  1  0  0  0  0  0  0  0  0  0
   22.9687  -21.3164  -13.1031 C   0  0  0  0  0  0  0  0  0  0  0  0
   22.3979  -22.4047  -14.4484 S   0  0  0  0  0  0  0  0  0  0  0  0
   23.8600  -19.4670  -14.4953 C   0  0  0  0  0  0  0  0  0  0  0  0
   23.9295  -19.5985  -15.8849 O   0  0  0  0  0  0  0  0  0  0  0  0
   23.4949  -18.3355  -14.0859 O   0  0  0  0  0  0  0  0  0  0  0  0
  2  1  1  6
  2  3  1  0
  4  2  1  0
  4  5  2  0
  6  4  1  0
  7  6  1  0
  7  8  1  1
  9  8  1  0
  9 14  2  0
 10  9  1  0
 11 10  2  0
 11 12  1  0
 12 13  2  0
 13 14  1  0
 15  7  1  0
 16 15  2  0
 17 15  1  0
 18 17  1  0
 18 21  1  0
 19 20  1  0
 18 19  1  1
 21 22  1  0
 23 21  2  0
M  END
$$$$
