AFC.pdb
     RDKit          3D

 23 23  0  0  1  0  0  0  0  0999 V2000
   26.0609  -21.5815  -18.7383 C   0  0  0  0  0  0  0  0  0  0  0  0
   27.0523  -21.9757  -17.6716 C   0  0  2  0  0  0  0  0  0  0  0  0
   27.7146  -23.1777  -18.1104 N   0  0  0  0  0  0  0  0  0  0  0  0
   26.4103  -22.1900  -16.3508 C   0  0  0  0  0  0  0  0  0  0  0  0
   25.8967  -23.2995  -16.0821 O   0  0  0  0  0  0  0  0  0  0  0  0
   26.3410  -21.1893  -15.3488 N   0  0  0  0  0  0  0  0  0  0  0  0
   25.6570  -21.3270  -14.0890 C   0  0  1  0  0  0  0  0  0  0  0  0
   26.2430  -20.5765  -12.9696 C   0  0  0  0  0  0  0  0  0  0  0  0
   25.6091  -20.6375  -11.6798 C   0  0  0  0  0  0  0  0  0  0  0  0
   24.4599  -19.9661  -11.3400 C   0  0  0  0  0  0  0  0  0  0  0  0
   23.9313  -20.0915  -10.0690 C   0  0  0  0  0  0  0  0  0  0  0  0
   24.5272  -20.8835   -9.1055 C   0  0  0  0  0  0  0  0  0  0  0  0
   25.6917  -21.5686   -9.4378 C   0  0  0  0  0  0  0  0  0  0  0  0
   26.2185  -21.4429  -10.7063 C   0  0  0  0  0  0  0  0  0  0  0  0
   24.2029  -21.1421  -14.3092 C   0  0  0  0  0  0  0  0  0  0  0  0
   23.7640  -20.1146  -14.9217 O   0  0  0  0  0  0  0  0  0  0  0  0
   23.1969  -22.0511  -13.8806 N   0  0  0  0  0  0  0  0  0  0  0  0
   21.7780  -21.7735  -13.9962 C   0  0  1  0  0  0  0  0  0  0  0  0
   21.0218  -22.9813  -14.5182 C   0  0  0  0  0  0  0  0  0  0  0  0
   21.8899  -23.5292  -16.0237 S   0  0  0  0  0  0  0  0  0  0  0  0
   21.1824  -21.2192  -12.7798 C   0  0  0  0  0  0  0  0  0  0  0  0
   19.8625  -20.7599  -12.7788 O   0  0  0  0  0  0  0  0  0  0  0  0
   21.7828  -21.1139  -11.6800 O   0  0  0  0  0  0  0  0  0  0  0  0
  2  1  1  6
  2  3  1  0
  4  2  1  0
  4  5  2  0
  6  4  1  0
  7  6  1  0
  7  8  1  1
  9  8  1  0
  9 14  2  0
 10  9  1  0
 11 10  2  0
 11 12  1  0
 12 13  2  0
 13 14  1  0
 15  7  1  0
 16 15  2  0
 17 15  1  0
 18 17  1  0
 18 21  1  0
 19 20  1  0
 18 19  1  1
 21 22  1  0
 23 21  2  0
M  END
$$$$
