AFC.pdb
     RDKit          3D

 23 23  0  0  1  0  0  0  0  0999 V2000
   20.4137  -14.6653  -19.5868 C   0  0  0  0  0  0  0  0  0  0  0  0
   21.7044  -15.0337  -18.8981 C   0  0  2  0  0  0  0  0  0  0  0  0
   21.6584  -16.4435  -18.6043 N   0  0  0  0  0  0  0  0  0  0  0  0
   21.9288  -14.2523  -17.6566 C   0  0  0  0  0  0  0  0  0  0  0  0
   21.3620  -14.5962  -16.5947 O   0  0  0  0  0  0  0  0  0  0  0  0
   22.7673  -13.1106  -17.5977 N   0  0  0  0  0  0  0  0  0  0  0  0
   23.0588  -12.3596  -16.4039 C   0  0  1  0  0  0  0  0  0  0  0  0
   24.4721  -12.3403  -16.0019 C   0  0  0  0  0  0  0  0  0  0  0  0
   25.1403  -13.5865  -15.7379 C   0  0  0  0  0  0  0  0  0  0  0  0
   25.0916  -14.2629  -14.5433 C   0  0  0  0  0  0  0  0  0  0  0  0
   25.7727  -15.4560  -14.3915 C   0  0  0  0  0  0  0  0  0  0  0  0
   26.5173  -16.0070  -15.4175 C   0  0  0  0  0  0  0  0  0  0  0  0
   26.5743  -15.3312  -16.6323 C   0  0  0  0  0  0  0  0  0  0  0  0
   25.8943  -14.1407  -16.7830 C   0  0  0  0  0  0  0  0  0  0  0  0
   22.3859  -11.0416  -16.4894 C   0  0  0  0  0  0  0  0  0  0  0  0
   22.4888  -10.3264  -17.5389 O   0  0  0  0  0  0  0  0  0  0  0  0
   21.5930  -10.4686  -15.4574 N   0  0  0  0  0  0  0  0  0  0  0  0
   20.9446   -9.1772  -15.5819 C   0  0  1  0  0  0  0  0  0  0  0  0
   19.5855   -9.1764  -14.9068 C   0  0  0  0  0  0  0  0  0  0  0  0
   18.9582   -7.4682  -14.9997 S   0  0  0  0  0  0  0  0  0  0  0  0
   21.7816   -8.0521  -15.1634 C   0  0  0  0  0  0  0  0  0  0  0  0
   22.8731   -8.2538  -14.3143 O   0  0  0  0  0  0  0  0  0  0  0  0
   21.5968   -6.8598  -15.5177 O   0  0  0  0  0  0  0  0  0  0  0  0
  2  1  1  1
  2  3  1  0
  4  2  1  0
  4  5  2  0
  6  4  1  0
  7  6  1  0
  7  8  1  6
  9  8  1  0
  9 14  2  0
 10  9  1  0
 11 10  2  0
 11 12  1  0
 12 13  2  0
 13 14  1  0
 15  7  1  0
 16 15  2  0
 17 15  1  0
 18 17  1  0
 18 21  1  0
 19 20  1  0
 18 19  1  1
 21 22  1  0
 23 21  2  0
M  END
$$$$
