AFC.pdb
     RDKit          3D

 23 23  0  0  1  0  0  0  0  0999 V2000
   26.6131  -21.3990  -18.1300 C   0  0  0  0  0  0  0  0  0  0  0  0
   27.3319  -22.0264  -16.9613 C   0  0  2  0  0  0  0  0  0  0  0  0
   27.7639  -23.3401  -17.3655 N   0  0  0  0  0  0  0  0  0  0  0  0
   26.4797  -22.1107  -15.7493 C   0  0  0  0  0  0  0  0  0  0  0  0
   25.7686  -23.1231  -15.5586 O   0  0  0  0  0  0  0  0  0  0  0  0
   26.4198  -21.0885  -14.7686 N   0  0  0  0  0  0  0  0  0  0  0  0
   25.6026  -21.1268  -13.5834 C   0  0  1  0  0  0  0  0  0  0  0  0
   26.0804  -20.3047  -12.4629 C   0  0  0  0  0  0  0  0  0  0  0  0
   25.3648  -20.3403  -11.2156 C   0  0  0  0  0  0  0  0  0  0  0  0
   24.1345  -19.7676  -11.0024 C   0  0  0  0  0  0  0  0  0  0  0  0
   23.5311  -19.8576   -9.7622 C   0  0  0  0  0  0  0  0  0  0  0  0
   24.1306  -20.5160   -8.7049 C   0  0  0  0  0  0  0  0  0  0  0  0
   25.3768  -21.1002   -8.9085 C   0  0  0  0  0  0  0  0  0  0  0  0
   25.9783  -21.0099  -10.1464 C   0  0  0  0  0  0  0  0  0  0  0  0
   24.1842  -20.9410  -13.9717 C   0  0  0  0  0  0  0  0  0  0  0  0
   23.8446  -20.0004  -14.7613 O   0  0  0  0  0  0  0  0  0  0  0  0
   23.1086  -21.7565  -13.5245 N   0  0  0  0  0  0  0  0  0  0  0  0
   21.7183  -21.4610  -13.8128 C   0  0  1  0  0  0  0  0  0  0  0  0
   21.0453  -22.6204  -14.5242 C   0  0  0  0  0  0  0  0  0  0  0  0
   22.0922  -23.0307  -15.9581 S   0  0  0  0  0  0  0  0  0  0  0  0
   20.9589  -20.9962  -12.6515 C   0  0  0  0  0  0  0  0  0  0  0  0
   19.6408  -20.5539  -12.7932 O   0  0  0  0  0  0  0  0  0  0  0  0
   21.4095  -20.9572  -11.4782 O   0  0  0  0  0  0  0  0  0  0  0  0
  2  1  1  6
  2  3  1  0
  4  2  1  0
  4  5  2  0
  6  4  1  0
  7  6  1  0
  7  8  1  1
  9  8  1  0
  9 14  2  0
 10  9  1  0
 11 10  2  0
 11 12  1  0
 12 13  2  0
 13 14  1  0
 15  7  1  0
 16 15  2  0
 17 15  1  0
 18 17  1  0
 18 21  1  0
 19 20  1  0
 18 19  1  1
 21 22  1  0
 23 21  2  0
M  END
$$$$
