AFC.pdb
     RDKit          3D

 23 23  0  0  1  0  0  0  0  0999 V2000
   26.3795  -21.5695  -18.5840 C   0  0  0  0  0  0  0  0  0  0  0  0
   27.0941  -22.4762  -17.6127 C   0  0  2  0  0  0  0  0  0  0  0  0
   27.1185  -23.7989  -18.1834 N   0  0  0  0  0  0  0  0  0  0  0  0
   26.4480  -22.4995  -16.2769 C   0  0  0  0  0  0  0  0  0  0  0  0
   25.6498  -23.4197  -15.9885 O   0  0  0  0  0  0  0  0  0  0  0  0
   26.6852  -21.5181  -15.2815 N   0  0  0  0  0  0  0  0  0  0  0  0
   26.0359  -21.4697  -13.9969 C   0  0  1  0  0  0  0  0  0  0  0  0
   26.7987  -20.8052  -12.9310 C   0  0  0  0  0  0  0  0  0  0  0  0
   26.2039  -20.6668  -11.6287 C   0  0  0  0  0  0  0  0  0  0  0  0
   25.5177  -19.5585  -11.1953 C   0  0  0  0  0  0  0  0  0  0  0  0
   24.9843  -19.5252   -9.9206 C   0  0  0  0  0  0  0  0  0  0  0  0
   25.1174  -20.5872   -9.0458 C   0  0  0  0  0  0  0  0  0  0  0  0
   25.8102  -21.7154   -9.4733 C   0  0  0  0  0  0  0  0  0  0  0  0
   26.3422  -21.7478  -10.7454 C   0  0  0  0  0  0  0  0  0  0  0  0
   24.6381  -21.0127  -14.1822 C   0  0  0  0  0  0  0  0  0  0  0  0
   24.3840  -19.9450  -14.8297 O   0  0  0  0  0  0  0  0  0  0  0  0
   23.4918  -21.6885  -13.6809 N   0  0  0  0  0  0  0  0  0  0  0  0
   22.1521  -21.1382  -13.7573 C   0  0  1  0  0  0  0  0  0  0  0  0
   21.2223  -22.0583  -14.5267 C   0  0  0  0  0  0  0  0  0  0  0  0
   21.3528  -21.5830  -16.2809 S   0  0  0  0  0  0  0  0  0  0  0  0
   21.6021  -20.7377  -12.4616 C   0  0  0  0  0  0  0  0  0  0  0  0
   22.1845  -21.1840  -11.2722 O   0  0  0  0  0  0  0  0  0  0  0  0
   20.6017  -19.9900  -12.3159 O   0  0  0  0  0  0  0  0  0  0  0  0
  2  1  1  6
  2  3  1  0
  4  2  1  0
  4  5  2  0
  6  4  1  0
  7  6  1  0
  7  8  1  1
  9  8  1  0
  9 14  2  0
 10  9  1  0
 11 10  2  0
 11 12  1  0
 12 13  2  0
 13 14  1  0
 15  7  1  0
 16 15  2  0
 17 15  1  0
 18 17  1  0
 18 21  1  0
 19 20  1  0
 18 19  1  1
 21 22  1  0
 23 21  2  0
M  END
$$$$
