AFC.pdb
     RDKit          3D

 23 23  0  0  1  0  0  0  0  0999 V2000
   26.8739  -20.9320  -16.6851 C   0  0  0  0  0  0  0  0  0  0  0  0
   27.5293  -21.9774  -15.8169 C   0  0  2  0  0  0  0  0  0  0  0  0
   27.2823  -23.2640  -16.4167 N   0  0  0  0  0  0  0  0  0  0  0  0
   27.0281  -21.9514  -14.4204 C   0  0  0  0  0  0  0  0  0  0  0  0
   26.1058  -22.7247  -14.0764 O   0  0  0  0  0  0  0  0  0  0  0  0
   27.5430  -21.0819  -13.4259 N   0  0  0  0  0  0  0  0  0  0  0  0
   27.0260  -20.9585  -12.0874 C   0  0  1  0  0  0  0  0  0  0  0  0
   27.9765  -20.4464  -11.0904 C   0  0  0  0  0  0  0  0  0  0  0  0
   27.5220  -20.2181   -9.7449 C   0  0  0  0  0  0  0  0  0  0  0  0
   26.6042  -19.2634   -9.3801 C   0  0  0  0  0  0  0  0  0  0  0  0
   26.2350  -19.1240   -8.0554 C   0  0  0  0  0  0  0  0  0  0  0  0
   26.7649  -19.9256   -7.0618 C   0  0  0  0  0  0  0  0  0  0  0  0
   27.6955  -20.8963   -7.4189 C   0  0  0  0  0  0  0  0  0  0  0  0
   28.0634  -21.0347   -8.7409 C   0  0  0  0  0  0  0  0  0  0  0  0
   25.7084  -20.2815  -12.1420 C   0  0  0  0  0  0  0  0  0  0  0  0
   25.5842  -19.1463  -12.7072 O   0  0  0  0  0  0  0  0  0  0  0  0
   24.5050  -20.8063  -11.5958 N   0  0  0  0  0  0  0  0  0  0  0  0
   23.2239  -20.1369  -11.7147 C   0  0  1  0  0  0  0  0  0  0  0  0
   22.7967  -20.0199  -13.1662 C   0  0  0  0  0  0  0  0  0  0  0  0
   22.9708  -21.6802  -13.8964 S   0  0  0  0  0  0  0  0  0  0  0  0
   22.1777  -20.7059  -10.8642 C   0  0  0  0  0  0  0  0  0  0  0  0
   22.4564  -21.7803  -10.0151 O   0  0  0  0  0  0  0  0  0  0  0  0
   20.9904  -20.2935  -10.8277 O   0  0  0  0  0  0  0  0  0  0  0  0
  2  1  1  6
  2  3  1  0
  4  2  1  0
  4  5  2  0
  6  4  1  0
  7  6  1  0
  7  8  1  1
  9  8  1  0
  9 14  2  0
 10  9  1  0
 11 10  2  0
 11 12  1  0
 12 13  2  0
 13 14  1  0
 15  7  1  0
 16 15  2  0
 17 15  1  0
 18 17  1  0
 18 21  1  0
 19 20  1  0
 18 19  1  6
 21 22  1  0
 23 21  2  0
M  END
$$$$
