ADV.pdb
     RDKit          3D

 21 20  0  0  1  0  0  0  0  0999 V2000
    8.2340  -12.3558   19.5560 C   0  0  0  0  0  0  0  0  0  0  0  0
    8.2475  -13.8576   19.3871 C   0  0  2  0  0  0  0  0  0  0  0  0
    7.1335  -14.2119   18.5277 N   0  0  0  0  0  0  0  0  0  0  0  0
    8.0946  -14.5693   20.6680 C   0  0  0  0  0  0  0  0  0  0  0  0
    6.9583  -14.6753   21.2362 O   0  0  0  0  0  0  0  0  0  0  0  0
    9.1797  -15.1823   21.3593 N   0  0  0  0  0  0  0  0  0  0  0  0
    9.0244  -15.8724   22.6143 C   0  0  1  0  0  0  0  0  0  0  0  0
   10.0317  -16.9780   22.6907 C   0  0  0  0  0  0  0  0  0  0  0  0
    9.7965  -18.0877   21.7647 C   0  0  0  0  0  0  0  0  0  0  0  0
   10.6250  -18.6395   21.0245 O   0  0  0  0  0  0  0  0  0  0  0  0
    9.1719  -14.9675   23.7806 C   0  0  0  0  0  0  0  0  0  0  0  0
   10.2714  -14.3786   23.9209 O   0  0  0  0  0  0  0  0  0  0  0  0
    8.4832  -18.5838   21.7083 O   0  0  0  0  0  0  0  0  0  0  0  0
    5.8925  -13.6053   26.2759 C   0  0  0  0  0  0  0  0  0  0  0  0
    7.1769  -12.8570   25.9920 C   0  0  1  0  0  0  0  0  0  0  0  0
    7.4164  -11.9316   27.1663 C   0  0  0  0  0  0  0  0  0  0  0  0
    8.3459  -13.8450   25.8829 C   0  0  2  0  0  0  0  0  0  0  0  0
    8.1613  -14.7219   24.7451 N   0  0  0  0  0  0  0  0  0  0  0  0
    8.4316  -14.6966   27.0883 C   0  0  0  0  0  0  0  0  0  0  0  0
    8.9746  -14.2559   28.2778 O   0  0  0  0  0  0  0  0  0  0  0  0
    7.9952  -15.8683   27.0351 O   0  0  0  0  0  0  0  0  0  0  0  0
  2  1  1  1
  2  3  1  0
  4  2  1  0
  5  4  2  0
  6  4  1  0
  7 11  1  0
  7  6  1  0
  7  8  1  1
  9  8  1  0
 10  9  2  0
 11 18  1  0
 12 11  2  0
 13  9  1  0
 15 16  1  1
 15 14  1  0
 17 19  1  0
 17 18  1  6
 17 15  1  0
 19 20  1  0
 21 19  2  0
M  END
$$$$
