ADV.pdb
     RDKit          3D

 21 20  0  0  1  0  0  0  0  0999 V2000
    6.7893  -13.4450   19.1127 C   0  0  0  0  0  0  0  0  0  0  0  0
    8.0533  -13.2840   19.9256 C   0  0  2  0  0  0  0  0  0  0  0  0
    9.1492  -13.8244   19.1431 N   0  0  0  0  0  0  0  0  0  0  0  0
    7.9934  -14.0067   21.2080 C   0  0  0  0  0  0  0  0  0  0  0  0
    7.0509  -13.8016   22.0414 O   0  0  0  0  0  0  0  0  0  0  0  0
    8.9622  -14.9713   21.6108 N   0  0  0  0  0  0  0  0  0  0  0  0
    8.8311  -15.7680   22.8039 C   0  0  1  0  0  0  0  0  0  0  0  0
    9.7869  -16.9185   22.7294 C   0  0  0  0  0  0  0  0  0  0  0  0
    9.7612  -17.8138   23.8878 C   0  0  0  0  0  0  0  0  0  0  0  0
    8.7723  -18.1552   24.5543 O   0  0  0  0  0  0  0  0  0  0  0  0
    9.0743  -14.9830   24.0390 C   0  0  0  0  0  0  0  0  0  0  0  0
   10.2599  -14.6602   24.2956 O   0  0  0  0  0  0  0  0  0  0  0  0
   10.9975  -18.3468   24.2902 O   0  0  0  0  0  0  0  0  0  0  0  0
    7.4339  -11.7084   25.3961 C   0  0  0  0  0  0  0  0  0  0  0  0
    7.3089  -12.7898   26.4473 C   0  0  1  0  0  0  0  0  0  0  0  0
    5.9196  -13.3769   26.3124 C   0  0  0  0  0  0  0  0  0  0  0  0
    8.3475  -13.8904   26.1931 C   0  0  2  0  0  0  0  0  0  0  0  0
    8.0651  -14.5730   24.9473 N   0  0  0  0  0  0  0  0  0  0  0  0
    8.3174  -14.9036   27.2692 C   0  0  0  0  0  0  0  0  0  0  0  0
    7.9445  -16.2141   27.0518 O   0  0  0  0  0  0  0  0  0  0  0  0
    8.6427  -14.5655   28.4294 O   0  0  0  0  0  0  0  0  0  0  0  0
  2  1  1  6
  2  3  1  0
  4  2  1  0
  5  4  2  0
  6  4  1  0
  7 11  1  0
  7  6  1  0
  7  8  1  6
  9  8  1  0
 10  9  2  0
 11 18  1  0
 12 11  2  0
 13  9  1  0
 15 16  1  6
 15 14  1  0
 17 19  1  0
 17 18  1  6
 17 15  1  0
 19 20  1  0
 21 19  2  0
M  END
$$$$
