ADV.pdb
     RDKit          3D

 21 20  0  0  1  0  0  0  0  0999 V2000
   -1.3199  -27.7015   28.8139 C   0  0  0  0  0  0  0  0  0  0  0  0
   -1.5441  -26.4022   29.5528 C   0  0  2  0  0  0  0  0  0  0  0  0
   -1.0214  -26.5665   30.8963 N   0  0  0  0  0  0  0  0  0  0  0  0
   -2.9708  -26.0470   29.6463 C   0  0  0  0  0  0  0  0  0  0  0  0
   -3.6699  -25.8300   28.6026 O   0  0  0  0  0  0  0  0  0  0  0  0
   -3.6683  -25.9203   30.8826 N   0  0  0  0  0  0  0  0  0  0  0  0
   -5.0650  -25.5774   30.9671 C   0  0  1  0  0  0  0  0  0  0  0  0
   -5.6647  -26.2645   32.1549 C   0  0  0  0  0  0  0  0  0  0  0  0
   -5.8624  -27.7065   31.9948 C   0  0  0  0  0  0  0  0  0  0  0  0
   -5.3640  -28.6154   32.6762 O   0  0  0  0  0  0  0  0  0  0  0  0
   -5.2843  -24.1132   31.0612 C   0  0  0  0  0  0  0  0  0  0  0  0
   -4.7697  -23.5123   32.0357 O   0  0  0  0  0  0  0  0  0  0  0  0
   -6.7135  -28.1061   30.9507 O   0  0  0  0  0  0  0  0  0  0  0  0
   -4.2749  -21.4641   28.5961 C   0  0  0  0  0  0  0  0  0  0  0  0
   -5.7555  -21.2782   28.8483 C   0  0  1  0  0  0  0  0  0  0  0  0
   -6.4860  -22.0024   27.7370 C   0  0  0  0  0  0  0  0  0  0  0  0
   -6.1404  -21.9043   30.1953 C   0  0  2  0  0  0  0  0  0  0  0  0
   -6.0321  -23.3472   30.1308 N   0  0  0  0  0  0  0  0  0  0  0  0
   -7.5394  -21.5811   30.5472 C   0  0  0  0  0  0  0  0  0  0  0  0
   -7.9243  -20.3436   31.0208 O   0  0  0  0  0  0  0  0  0  0  0  0
   -8.4176  -22.4626   30.4124 O   0  0  0  0  0  0  0  0  0  0  0  0
  2  1  1  6
  2  3  1  0
  4  2  1  0
  5  4  2  0
  6  4  1  0
  7 11  1  0
  7  6  1  0
  7  8  1  1
  9  8  1  0
 10  9  2  0
 11 18  1  0
 12 11  2  0
 13  9  1  0
 15 16  1  6
 15 14  1  0
 17 19  1  0
 17 18  1  6
 17 15  1  0
 19 20  1  0
 21 19  2  0
M  END
$$$$
