ADV.pdb
     RDKit          3D

 21 20  0  0  1  0  0  0  0  0999 V2000
    7.1180  -13.2896   18.8160 C   0  0  0  0  0  0  0  0  0  0  0  0
    8.3666  -13.3912   19.6615 C   0  0  2  0  0  0  0  0  0  0  0  0
    9.3447  -14.1537   18.9086 N   0  0  0  0  0  0  0  0  0  0  0  0
    8.1243  -14.0772   20.9426 C   0  0  0  0  0  0  0  0  0  0  0  0
    7.2240  -13.6747   21.7504 O   0  0  0  0  0  0  0  0  0  0  0  0
    8.8600  -15.2196   21.3721 N   0  0  0  0  0  0  0  0  0  0  0  0
    8.6116  -15.8919   22.6218 C   0  0  1  0  0  0  0  0  0  0  0  0
    9.4220  -17.1505   22.6679 C   0  0  0  0  0  0  0  0  0  0  0  0
    9.3051  -17.9105   23.9140 C   0  0  0  0  0  0  0  0  0  0  0  0
    8.3837  -17.8607   24.7431 O   0  0  0  0  0  0  0  0  0  0  0  0
    8.9258  -15.0407   23.7955 C   0  0  0  0  0  0  0  0  0  0  0  0
   10.1147  -14.6629   23.9348 O   0  0  0  0  0  0  0  0  0  0  0  0
   10.3560  -18.7971   24.2035 O   0  0  0  0  0  0  0  0  0  0  0  0
    5.8685  -13.2887   26.3357 C   0  0  0  0  0  0  0  0  0  0  0  0
    7.1540  -12.6175   25.9030 C   0  0  1  0  0  0  0  0  0  0  0  0
    7.5055  -11.6066   26.9742 C   0  0  0  0  0  0  0  0  0  0  0  0
    8.2792  -13.6560   25.8021 C   0  0  2  0  0  0  0  0  0  0  0  0
    7.9806  -14.6250   24.7679 N   0  0  0  0  0  0  0  0  0  0  0  0
    8.4291  -14.3970   27.0725 C   0  0  0  0  0  0  0  0  0  0  0  0
    8.1317  -15.7389   27.1948 O   0  0  0  0  0  0  0  0  0  0  0  0
    8.8429  -13.7880   28.0844 O   0  0  0  0  0  0  0  0  0  0  0  0
  2  1  1  6
  2  3  1  0
  4  2  1  0
  5  4  2  0
  6  4  1  0
  7 11  1  0
  7  6  1  0
  7  8  1  1
  9  8  1  0
 10  9  2  0
 11 18  1  0
 12 11  2  0
 13  9  1  0
 15 16  1  1
 15 14  1  0
 17 19  1  0
 17 18  1  6
 17 15  1  0
 19 20  1  0
 21 19  2  0
M  END
$$$$
