RRI.pdb
     RDKit          3D

 31 30  0  0  1  0  0  0  0  0999 V2000
   21.4505  -15.8339  -18.9489 N   0  0  0  0  0  0  0  0  0  0  0  0
   22.8466  -15.6319  -18.6338 C   0  0  0  0  0  0  0  0  0  0  0  0
   23.4999  -14.6730  -19.1800 N   0  0  0  0  0  0  0  0  0  0  0  0
   23.4588  -16.5085  -17.7223 N   0  0  0  0  0  0  0  0  0  0  0  0
   22.6764  -17.5329  -17.0657 C   0  0  0  0  0  0  0  0  0  0  0  0
   23.5895  -18.3103  -16.1861 C   0  0  0  0  0  0  0  0  0  0  0  0
   25.0281  -18.3098  -16.5425 C   0  0  0  0  0  0  0  0  0  0  0  0
   25.6522  -19.6279  -16.8309 C   0  0  2  0  0  0  0  0  0  0  0  0
   24.7888  -20.5035  -17.5488 N   0  0  0  0  0  0  0  0  0  0  0  0
   25.9533  -20.2526  -15.4848 C   0  0  0  0  0  0  0  0  0  0  0  0
   25.0252  -20.8663  -14.9216 O   0  0  0  0  0  0  0  0  0  0  0  0
   24.4941  -14.5033  -19.0360 N   0  0  0  0  0  0  0  0  0  0  0  0
   32.3883  -22.5271   -9.8825 C   0  0  0  0  0  0  0  0  0  0  0  0
   32.4048  -22.5246  -11.3204 N   0  0  0  0  0  0  0  0  0  0  0  0
   33.0431  -23.4353  -11.9719 N   0  0  0  0  0  0  0  0  0  0  0  0
   31.7247  -21.5284  -12.0639 C   0  0  0  0  0  0  0  0  0  0  0  0
   30.8586  -20.5324  -11.5110 C   0  0  0  0  0  0  0  0  0  0  0  0
   29.3897  -20.7412  -11.8703 C   0  0  0  0  0  0  0  0  0  0  0  0
   29.0795  -20.3372  -13.2690 C   0  0  1  0  0  0  0  0  0  0  0  0
   27.5945  -20.5715  -13.5864 N   0  0  0  0  0  0  0  0  0  0  0  0
   27.2393  -20.1372  -14.9036 C   0  0  0  0  0  0  0  0  0  0  0  0
   26.7681  -19.8732  -12.5485 O   0  0  0  0  0  0  0  0  0  0  0  0
   26.7580  -18.6031  -12.5003 C   0  0  0  0  0  0  0  0  0  0  0  0
   33.0505  -23.3868  -13.0048 C   0  0  0  0  0  0  0  0  0  0  0  0
   22.4155  -20.8662   -8.6421 C   0  0  1  0  0  0  0  0  0  0  0  0
   22.7828  -19.9835   -9.8202 C   0  0  0  0  0  0  0  0  0  0  0  0
   23.7307  -20.6277  -10.7580 C   0  0  2  0  0  0  0  0  0  0  0  0
   23.6323  -22.1494  -10.5728 N   0  0  0  0  0  0  0  0  0  0  0  0
   25.1665  -20.1800  -10.5866 C   0  0  0  0  0  0  0  0  0  0  0  0
   26.0212  -20.6357  -11.6518 O   0  0  0  0  0  0  0  0  0  0  0  0
   25.6441  -20.6270   -9.2689 O   0  0  0  0  0  0  0  0  0  0  0  0
  2  1  1  0
  3  2  2  0
  4  2  1  0
  5  4  1  0
  6  7  1  0
  6  5  1  0
  8  9  1  1
  8 10  1  0
  8  7  1  0
 10 11  2  0
 13 12  1  0
 14 13  2  0
 15 13  1  0
 16 15  1  0
 17 16  1  0
 18 17  1  0
 19 18  1  6
 19 21  1  0
 20 10  1  0
 20 19  1  0
 21 22  2  0
 21 28  1  0
 24 25  1  0
 24 23  1  0
 25 27  1  0
 25 26  1  6
 27 29  1  0
 27 28  1  1
 29 31  2  0
 29 30  1  0
M  END
$$$$
