RRI.pdb
     RDKit          3D

 31 30  0  0  1  0  0  0  0  0999 V2000
   32.0215  -25.3701  -15.1910 N   0  0  0  0  0  0  0  0  0  0  0  0
   32.4107  -25.3392  -16.5827 C   0  0  0  0  0  0  0  0  0  0  0  0
   32.6346  -26.4321  -17.2153 N   0  0  0  0  0  0  0  0  0  0  0  0
   32.5356  -24.0900  -17.2133 N   0  0  0  0  0  0  0  0  0  0  0  0
   31.4716  -23.1156  -17.1073 C   0  0  0  0  0  0  0  0  0  0  0  0
   30.3498  -23.5697  -17.9716 C   0  0  0  0  0  0  0  0  0  0  0  0
   28.9756  -23.3195  -17.4760 C   0  0  0  0  0  0  0  0  0  0  0  0
   28.2983  -22.0872  -17.9585 C   0  0  2  0  0  0  0  0  0  0  0  0
   29.1570  -21.2474  -18.7234 N   0  0  0  0  0  0  0  0  0  0  0  0
   27.8717  -21.3304  -16.7183 C   0  0  0  0  0  0  0  0  0  0  0  0
   28.5589  -20.3432  -16.3892 O   0  0  0  0  0  0  0  0  0  0  0  0
   33.1118  -26.4855  -18.1138 N   0  0  0  0  0  0  0  0  0  0  0  0
   21.1895  -22.2445  -14.3158 C   0  0  0  0  0  0  0  0  0  0  0  0
   20.9543  -21.1567  -13.4050 N   0  0  0  0  0  0  0  0  0  0  0  0
   20.1475  -21.2958  -12.4096 N   0  0  0  0  0  0  0  0  0  0  0  0
   21.5972  -19.9049  -13.5699 C   0  0  0  0  0  0  0  0  0  0  0  0
   22.4629  -19.5576  -14.6551 C   0  0  0  0  0  0  0  0  0  0  0  0
   23.9389  -19.8053  -14.3546 C   0  0  0  0  0  0  0  0  0  0  0  0
   24.5936  -20.6698  -15.3744 C   0  0  2  0  0  0  0  0  0  0  0  0
   26.0583  -20.9416  -14.9980 N   0  0  0  0  0  0  0  0  0  0  0  0
   26.7376  -21.7379  -15.9749 C   0  0  0  0  0  0  0  0  0  0  0  0
   26.0913  -21.5987  -13.6508 O   0  0  0  0  0  0  0  0  0  0  0  0
   25.7158  -22.8070  -13.5293 C   0  0  0  0  0  0  0  0  0  0  0  0
   20.0137  -20.4948  -11.7697 C   0  0  0  0  0  0  0  0  0  0  0  0
   30.2626  -20.3630  -10.3931 C   0  0  2  0  0  0  0  0  0  0  0  0
   29.0878  -21.0907  -11.0195 C   0  0  0  0  0  0  0  0  0  0  0  0
   27.7831  -20.7002  -10.4380 C   0  0  2  0  0  0  0  0  0  0  0  0
   27.7578  -21.1465   -8.9683 N   0  0  0  0  0  0  0  0  0  0  0  0
   26.5872  -21.2706  -11.1699 C   0  0  0  0  0  0  0  0  0  0  0  0
   26.5373  -20.8672  -12.5511 O   0  0  0  0  0  0  0  0  0  0  0  0
   25.3661  -20.8918  -10.4421 O   0  0  0  0  0  0  0  0  0  0  0  0
  2  1  1  0
  3  2  2  0
  4  2  1  0
  5  4  1  0
  6  7  1  0
  6  5  1  0
  8  9  1  1
  8 10  1  0
  8  7  1  0
 10 11  2  0
 13 12  1  0
 14 13  2  0
 15 13  1  0
 16 15  1  0
 17 16  1  0
 18 17  1  0
 19 18  1  6
 19 21  1  0
 20 10  1  0
 20 19  1  0
 21 22  2  0
 21 28  1  0
 24 25  1  0
 24 23  1  0
 25 27  1  0
 25 26  1  6
 27 29  1  0
 27 28  1  1
 29 31  2  0
 29 30  1  0
M  END
$$$$
