RRI.pdb
     RDKit          3D

 31 30  0  0  1  0  0  0  0  0999 V2000
   15.8740  -27.4997  -11.0151 N   0  0  0  0  0  0  0  0  0  0  0  0
   16.8497  -28.2690  -11.7536 C   0  0  0  0  0  0  0  0  0  0  0  0
   16.5129  -29.3726  -12.3135 N   0  0  0  0  0  0  0  0  0  0  0  0
   18.1631  -27.7771  -11.8374 N   0  0  0  0  0  0  0  0  0  0  0  0
   18.5370  -26.5833  -11.1108 C   0  0  0  0  0  0  0  0  0  0  0  0
   19.0704  -27.0033   -9.7876 C   0  0  0  0  0  0  0  0  0  0  0  0
   19.4755  -25.9262   -8.8535 C   0  0  0  0  0  0  0  0  0  0  0  0
   18.5329  -24.7889   -8.6858 C   0  0  2  0  0  0  0  0  0  0  0  0
   19.0899  -23.5438   -9.0947 N   0  0  0  0  0  0  0  0  0  0  0  0
   18.2283  -24.7117   -7.2045 C   0  0  0  0  0  0  0  0  0  0  0  0
   19.0580  -24.1242   -6.4825 O   0  0  0  0  0  0  0  0  0  0  0  0
   17.1482  -29.9565  -12.8550 N   0  0  0  0  0  0  0  0  0  0  0  0
   14.4593  -21.8413   -1.8708 C   0  0  0  0  0  0  0  0  0  0  0  0
   13.5832  -22.8663   -1.3710 N   0  0  0  0  0  0  0  0  0  0  0  0
   13.3302  -22.9574   -0.1105 N   0  0  0  0  0  0  0  0  0  0  0  0
   12.9728  -23.8033   -2.2411 C   0  0  0  0  0  0  0  0  0  0  0  0
   13.3409  -24.0245   -3.6061 C   0  0  0  0  0  0  0  0  0  0  0  0
   14.7671  -24.5433   -3.7715 C   0  0  0  0  0  0  0  0  0  0  0  0
   15.1541  -24.7089   -5.1993 C   0  0  2  0  0  0  0  0  0  0  0  0
   16.6113  -25.1818   -5.3168 N   0  0  0  0  0  0  0  0  0  0  0  0
   17.0467  -25.2864   -6.6768 C   0  0  0  0  0  0  0  0  0  0  0  0
   16.7461  -26.4951   -4.6062 O   0  0  0  0  0  0  0  0  0  0  0  0
   16.3572  -27.5629   -5.1756 C   0  0  0  0  0  0  0  0  0  0  0  0
   12.7345  -23.7369    0.2162 C   0  0  0  0  0  0  0  0  0  0  0  0
   21.0109  -26.9327   -0.8871 C   0  0  2  0  0  0  0  0  0  0  0  0
   19.9876  -27.2644   -1.9572 C   0  0  0  0  0  0  0  0  0  0  0  0
   18.6083  -27.3763   -1.4299 C   0  0  2  0  0  0  0  0  0  0  0  0
   18.5876  -28.4844   -0.3663 N   0  0  0  0  0  0  0  0  0  0  0  0
   17.5652  -27.6599   -2.4894 C   0  0  0  0  0  0  0  0  0  0  0  0
   17.3003  -26.5194   -3.3273 O   0  0  0  0  0  0  0  0  0  0  0  0
   16.3462  -28.1520   -1.8291 O   0  0  0  0  0  0  0  0  0  0  0  0
  2  1  1  0
  3  2  2  0
  4  2  1  0
  5  4  1  0
  6  7  1  0
  6  5  1  0
  8  9  1  1
  8 10  1  0
  8  7  1  0
 10 11  2  0
 13 12  1  0
 14 13  2  0
 15 13  1  0
 16 15  1  0
 17 16  1  0
 18 17  1  0
 19 18  1  1
 19 21  1  0
 20 10  1  0
 20 19  1  0
 21 22  2  0
 21 28  1  0
 24 25  1  0
 24 23  1  0
 25 27  1  0
 25 26  1  6
 27 29  1  0
 27 28  1  1
 29 31  2  0
 29 30  1  0
M  END
$$$$
