RRI.pdb
     RDKit          3D

 31 30  0  0  1  0  0  0  0  0999 V2000
   19.4527  -17.6541  -14.0268 N   0  0  0  0  0  0  0  0  0  0  0  0
   20.6403  -17.0719  -14.6097 C   0  0  0  0  0  0  0  0  0  0  0  0
   20.5416  -16.1086  -15.4505 N   0  0  0  0  0  0  0  0  0  0  0  0
   21.8912  -17.5883  -14.2321 N   0  0  0  0  0  0  0  0  0  0  0  0
   22.1526  -19.0068  -14.3431 C   0  0  0  0  0  0  0  0  0  0  0  0
   21.9105  -19.6207  -13.0103 C   0  0  0  0  0  0  0  0  0  0  0  0
   23.1039  -19.9557  -12.1978 C   0  0  0  0  0  0  0  0  0  0  0  0
   23.7998  -21.2305  -12.5150 C   0  0  2  0  0  0  0  0  0  0  0  0
   22.9122  -22.3414  -12.5908 N   0  0  0  0  0  0  0  0  0  0  0  0
   24.7707  -21.4722  -11.3784 C   0  0  0  0  0  0  0  0  0  0  0  0
   24.3075  -21.9587  -10.3278 O   0  0  0  0  0  0  0  0  0  0  0  0
   21.3380  -15.6354  -15.8745 N   0  0  0  0  0  0  0  0  0  0  0  0
   32.7615  -23.1243   -9.1510 C   0  0  0  0  0  0  0  0  0  0  0  0
   32.5149  -23.0665  -10.5666 N   0  0  0  0  0  0  0  0  0  0  0  0
   33.0936  -23.8927  -11.3688 N   0  0  0  0  0  0  0  0  0  0  0  0
   31.6335  -22.1065  -11.1228 C   0  0  0  0  0  0  0  0  0  0  0  0
   30.9905  -21.0559  -10.3945 C   0  0  0  0  0  0  0  0  0  0  0  0
   29.5658  -21.4000   -9.9676 C   0  0  0  0  0  0  0  0  0  0  0  0
   28.5633  -21.1042  -11.0274 C   0  0  2  0  0  0  0  0  0  0  0  0
   27.1351  -21.3011  -10.4957 N   0  0  0  0  0  0  0  0  0  0  0  0
   26.1435  -21.1551  -11.5181 C   0  0  0  0  0  0  0  0  0  0  0  0
   26.9031  -20.3289   -9.3783 O   0  0  0  0  0  0  0  0  0  0  0  0
   26.5324  -19.1420   -9.6420 C   0  0  0  0  0  0  0  0  0  0  0  0
   32.9482  -23.7739  -12.3857 C   0  0  0  0  0  0  0  0  0  0  0  0
   28.0326  -20.7199   -3.1919 C   0  0  1  0  0  0  0  0  0  0  0  0
   27.4244  -19.9884   -4.3738 C   0  0  0  0  0  0  0  0  0  0  0  0
   27.6016  -20.7057   -5.6572 C   0  0  2  0  0  0  0  0  0  0  0  0
   29.0997  -20.9853   -5.8499 N   0  0  0  0  0  0  0  0  0  0  0  0
   27.0579  -19.9622   -6.8584 C   0  0  0  0  0  0  0  0  0  0  0  0
   27.0983  -20.7490   -8.0635 O   0  0  0  0  0  0  0  0  0  0  0  0
   27.7961  -18.6978   -7.0022 O   0  0  0  0  0  0  0  0  0  0  0  0
  2  1  1  0
  3  2  2  0
  4  2  1  0
  5  4  1  0
  6  7  1  0
  6  5  1  0
  8  9  1  1
  8 10  1  0
  8  7  1  0
 10 11  2  0
 13 12  1  0
 14 13  2  0
 15 13  1  0
 16 15  1  0
 17 16  1  0
 18 17  1  0
 19 18  1  6
 19 21  1  0
 20 10  1  0
 20 19  1  0
 21 22  2  0
 21 28  1  0
 24 25  1  0
 24 23  1  0
 25 27  1  0
 25 26  1  1
 27 29  1  0
 27 28  1  6
 29 31  2  0
 29 30  1  0
M  END
$$$$
