RRI.pdb
     RDKit          3D

 31 30  0  0  1  0  0  0  0  0999 V2000
   18.6832  -24.4237  -11.0293 N   0  0  0  0  0  0  0  0  0  0  0  0
   17.5410  -23.5636  -11.2413 C   0  0  0  0  0  0  0  0  0  0  0  0
   16.6109  -23.4962  -10.3609 N   0  0  0  0  0  0  0  0  0  0  0  0
   17.4812  -22.8134  -12.4277 N   0  0  0  0  0  0  0  0  0  0  0  0
   18.5691  -22.8753  -13.3792 C   0  0  0  0  0  0  0  0  0  0  0  0
   18.0440  -23.4773  -14.6336 C   0  0  0  0  0  0  0  0  0  0  0  0
   19.0096  -23.6729  -15.7410 C   0  0  0  0  0  0  0  0  0  0  0  0
   19.7257  -24.9747  -15.7895 C   0  0  2  0  0  0  0  0  0  0  0  0
   18.9924  -26.0326  -15.1807 N   0  0  0  0  0  0  0  0  0  0  0  0
   21.0101  -24.7758  -15.0126 C   0  0  0  0  0  0  0  0  0  0  0  0
   21.0453  -25.2191  -13.8476 O   0  0  0  0  0  0  0  0  0  0  0  0
   15.7719  -22.9264  -10.4575 N   0  0  0  0  0  0  0  0  0  0  0  0
   27.7062  -27.6364  -16.2960 C   0  0  0  0  0  0  0  0  0  0  0  0
   26.9836  -27.2391  -17.4742 N   0  0  0  0  0  0  0  0  0  0  0  0
   26.7066  -28.0966  -18.3956 N   0  0  0  0  0  0  0  0  0  0  0  0
   26.5548  -25.9015  -17.6600 C   0  0  0  0  0  0  0  0  0  0  0  0
   26.6381  -24.8636  -16.6785 C   0  0  0  0  0  0  0  0  0  0  0  0
   25.4732  -24.8691  -15.6919 C   0  0  0  0  0  0  0  0  0  0  0  0
   24.5366  -23.7320  -15.9056 C   0  0  2  0  0  0  0  0  0  0  0  0
   23.3490  -23.8153  -14.9341 N   0  0  0  0  0  0  0  0  0  0  0  0
   22.1162  -24.1135  -15.5982 C   0  0  0  0  0  0  0  0  0  0  0  0
   23.2557  -22.5220  -14.1816 O   0  0  0  0  0  0  0  0  0  0  0  0
   22.3473  -21.6839  -14.4785 C   0  0  0  0  0  0  0  0  0  0  0  0
   26.1354  -27.7867  -19.1998 C   0  0  0  0  0  0  0  0  0  0  0  0
   25.6334  -20.5166   -8.7568 C   0  0  1  0  0  0  0  0  0  0  0  0
   24.9537  -20.2164  -10.0797 C   0  0  0  0  0  0  0  0  0  0  0  0
   24.9380  -21.3743  -11.0028 C   0  0  2  0  0  0  0  0  0  0  0  0
   26.3867  -21.8360  -11.2212 N   0  0  0  0  0  0  0  0  0  0  0  0
   24.2817  -21.0894  -12.3367 C   0  0  0  0  0  0  0  0  0  0  0  0
   24.1722  -22.2629  -13.1637 O   0  0  0  0  0  0  0  0  0  0  0  0
   25.0269  -20.0123  -13.0067 O   0  0  0  0  0  0  0  0  0  0  0  0
  2  1  1  0
  3  2  2  0
  4  2  1  0
  5  4  1  0
  6  7  1  0
  6  5  1  0
  8  9  1  1
  8 10  1  0
  8  7  1  0
 10 11  2  0
 13 12  1  0
 14 13  2  0
 15 13  1  0
 16 15  1  0
 17 16  1  0
 18 17  1  0
 19 18  1  1
 19 21  1  0
 20 10  1  0
 20 19  1  0
 21 22  2  0
 21 28  1  0
 24 25  1  0
 24 23  1  0
 25 27  1  0
 25 26  1  1
 27 29  1  0
 27 28  1  6
 29 31  2  0
 29 30  1  0
M  END
$$$$
