RRI.pdb
     RDKit          3D

 31 30  0  0  1  0  0  0  0  0999 V2000
   19.3106  -24.1433   -6.6053 N   0  0  0  0  0  0  0  0  0  0  0  0
   18.1532  -25.0026   -6.4995 C   0  0  0  0  0  0  0  0  0  0  0  0
   17.9831  -25.7319   -5.4584 N   0  0  0  0  0  0  0  0  0  0  0  0
   17.2317  -25.0148   -7.5599 N   0  0  0  0  0  0  0  0  0  0  0  0
   17.4066  -24.1183   -8.6817 C   0  0  0  0  0  0  0  0  0  0  0  0
   17.6500  -24.9459   -9.8932 C   0  0  0  0  0  0  0  0  0  0  0  0
   18.8060  -24.5716  -10.7418 C   0  0  0  0  0  0  0  0  0  0  0  0
   18.5414  -23.6398  -11.8695 C   0  0  2  0  0  0  0  0  0  0  0  0
   17.6234  -24.1690  -12.8207 N   0  0  0  0  0  0  0  0  0  0  0  0
   19.8728  -23.4269  -12.5586 C   0  0  0  0  0  0  0  0  0  0  0  0
   20.5426  -24.4433  -12.8296 O   0  0  0  0  0  0  0  0  0  0  0  0
   17.1961  -26.3653   -5.3260 N   0  0  0  0  0  0  0  0  0  0  0  0
   23.3236  -19.2137  -18.9707 C   0  0  0  0  0  0  0  0  0  0  0  0
   23.1242  -18.5953  -17.6878 N   0  0  0  0  0  0  0  0  0  0  0  0
   23.6726  -17.4620  -17.4121 N   0  0  0  0  0  0  0  0  0  0  0  0
   22.3235  -19.2064  -16.6912 C   0  0  0  0  0  0  0  0  0  0  0  0
   22.0813  -18.6742  -15.3852 C   0  0  0  0  0  0  0  0  0  0  0  0
   21.1882  -19.5647  -14.5252 C   0  0  0  0  0  0  0  0  0  0  0  0
   21.3720  -21.0127  -14.8174 C   0  0  1  0  0  0  0  0  0  0  0  0
   21.5651  -21.8098  -13.5181 N   0  0  0  0  0  0  0  0  0  0  0  0
   20.3240  -22.1229  -12.8764 C   0  0  0  0  0  0  0  0  0  0  0  0
   22.4600  -21.0264  -12.6054 O   0  0  0  0  0  0  0  0  0  0  0  0
   21.9565  -20.1766  -11.8055 C   0  0  0  0  0  0  0  0  0  0  0  0
   23.4705  -17.0281  -16.4955 C   0  0  0  0  0  0  0  0  0  0  0  0
   28.0436  -21.2291  -10.0240 C   0  0  1  0  0  0  0  0  0  0  0  0
   26.9783  -20.4042  -10.7216 C   0  0  0  0  0  0  0  0  0  0  0  0
   25.9372  -21.2297  -11.3755 C   0  0  2  0  0  0  0  0  0  0  0  0
   26.6303  -22.2045  -12.3394 N   0  0  0  0  0  0  0  0  0  0  0  0
   24.8915  -20.4266  -12.1191 C   0  0  0  0  0  0  0  0  0  0  0  0
   23.8356  -21.2478  -12.6516 O   0  0  0  0  0  0  0  0  0  0  0  0
   25.5601  -19.6418  -13.1685 O   0  0  0  0  0  0  0  0  0  0  0  0
  2  1  1  0
  3  2  2  0
  4  2  1  0
  5  4  1  0
  6  7  1  0
  6  5  1  0
  8  9  1  6
  8 10  1  0
  8  7  1  0
 10 11  2  0
 13 12  1  0
 14 13  2  0
 15 13  1  0
 16 15  1  0
 17 16  1  0
 18 17  1  0
 19 18  1  6
 19 21  1  0
 20 10  1  0
 20 19  1  0
 21 22  2  0
 21 28  1  0
 24 25  1  0
 24 23  1  0
 25 27  1  0
 25 26  1  6
 27 29  1  0
 27 28  1  6
 29 31  2  0
 29 30  1  0
M  END
$$$$
