RRI.pdb
     RDKit          3D

 31 30  0  0  1  0  0  0  0  0999 V2000
   17.9077  -20.0496  -13.7671 N   0  0  0  0  0  0  0  0  0  0  0  0
   17.8347  -21.4255  -13.3303 C   0  0  0  0  0  0  0  0  0  0  0  0
   17.2212  -22.2977  -14.0426 N   0  0  0  0  0  0  0  0  0  0  0  0
   18.4485  -21.7736  -12.1154 N   0  0  0  0  0  0  0  0  0  0  0  0
   19.7678  -21.2708  -11.8003 C   0  0  0  0  0  0  0  0  0  0  0  0
   20.6594  -21.5777  -12.9504 C   0  0  0  0  0  0  0  0  0  0  0  0
   22.0654  -21.1194  -12.8520 C   0  0  0  0  0  0  0  0  0  0  0  0
   22.6831  -21.1230  -11.4999 C   0  0  2  0  0  0  0  0  0  0  0  0
   21.9218  -20.3948  -10.5419 N   0  0  0  0  0  0  0  0  0  0  0  0
   24.0297  -20.4475  -11.6523 C   0  0  0  0  0  0  0  0  0  0  0  0
   24.0326  -19.2082  -11.7907 O   0  0  0  0  0  0  0  0  0  0  0  0
   17.1173  -23.2775  -13.7833 N   0  0  0  0  0  0  0  0  0  0  0  0
   32.0358  -22.4259   -9.0384 C   0  0  0  0  0  0  0  0  0  0  0  0
   32.1274  -22.5595  -10.4673 N   0  0  0  0  0  0  0  0  0  0  0  0
   33.2120  -22.9837  -11.0196 N   0  0  0  0  0  0  0  0  0  0  0  0
   31.0363  -22.2321  -11.3099 C   0  0  0  0  0  0  0  0  0  0  0  0
   30.0091  -21.2851  -11.0005 C   0  0  0  0  0  0  0  0  0  0  0  0
   28.9631  -21.1453  -12.1036 C   0  0  0  0  0  0  0  0  0  0  0  0
   27.6420  -21.7105  -11.7148 C   0  0  2  0  0  0  0  0  0  0  0  0
   26.5077  -20.7369  -12.0704 N   0  0  0  0  0  0  0  0  0  0  0  0
   25.2262  -21.2044  -11.6354 C   0  0  0  0  0  0  0  0  0  0  0  0
   26.5222  -20.5072  -13.5519 O   0  0  0  0  0  0  0  0  0  0  0  0
   25.8892  -21.2989  -14.3189 C   0  0  0  0  0  0  0  0  0  0  0  0
   33.2377  -23.0703  -12.0496 C   0  0  0  0  0  0  0  0  0  0  0  0
   26.3154  -15.2050  -14.6420 C   0  0  2  0  0  0  0  0  0  0  0  0
   26.1381  -16.7067  -14.7667 C   0  0  0  0  0  0  0  0  0  0  0  0
   27.2834  -17.3761  -15.4248 C   0  0  2  0  0  0  0  0  0  0  0  0
   27.3609  -16.8814  -16.8770 N   0  0  0  0  0  0  0  0  0  0  0  0
   27.2109  -18.8878  -15.3990 C   0  0  0  0  0  0  0  0  0  0  0  0
   27.2331  -19.4220  -14.0622 O   0  0  0  0  0  0  0  0  0  0  0  0
   28.3041  -19.4250  -16.2239 O   0  0  0  0  0  0  0  0  0  0  0  0
  2  1  1  0
  3  2  2  0
  4  2  1  0
  5  4  1  0
  6  7  1  0
  6  5  1  0
  8  9  1  1
  8 10  1  0
  8  7  1  0
 10 11  2  0
 13 12  1  0
 14 13  2  0
 15 13  1  0
 16 15  1  0
 17 16  1  0
 18 17  1  0
 19 18  1  1
 19 21  1  0
 20 10  1  0
 20 19  1  0
 21 22  2  0
 21 28  1  0
 24 25  1  0
 24 23  1  0
 25 27  1  0
 25 26  1  1
 27 29  1  0
 27 28  1  6
 29 31  2  0
 29 30  1  0
M  END
$$$$
