WLP.pdb
     RDKit          3D

 30 32  0  0  1  0  0  0  0  0999 V2000
    6.5120  -19.6249   26.4822 N   0  0  0  0  0  0  0  0  0  0  0  0
    7.2915  -18.4175   26.7848 C   0  0  1  0  0  0  0  0  0  0  0  0
    8.6551  -18.7499   27.2565 C   0  0  0  0  0  0  0  0  0  0  0  0
    9.2098  -17.8711   28.2944 C   0  0  0  0  0  0  0  0  0  0  0  0
    9.4033  -18.2523   29.6308 C   0  0  0  0  0  0  0  0  0  0  0  0
    9.9355  -17.2297   30.3056 N   0  0  0  0  0  0  0  0  0  0  0  0
   10.1083  -16.1694   29.4707 C   0  0  0  0  0  0  0  0  0  0  0  0
   10.6141  -14.9139   29.7236 C   0  0  0  0  0  0  0  0  0  0  0  0
   10.6810  -14.0031   28.7020 C   0  0  0  0  0  0  0  0  0  0  0  0
   10.2347  -14.3903   27.4590 C   0  0  0  0  0  0  0  0  0  0  0  0
    9.7339  -15.6368   27.2128 C   0  0  0  0  0  0  0  0  0  0  0  0
    9.6524  -16.5872   28.2295 C   0  0  0  0  0  0  0  0  0  0  0  0
    7.1554  -17.4643   25.6799 C   0  0  0  0  0  0  0  0  0  0  0  0
    6.8576  -17.8867   24.5306 O   0  0  0  0  0  0  0  0  0  0  0  0
    7.4438  -11.7244   26.4768 C   0  0  0  0  0  0  0  0  0  0  0  0
    6.7915  -13.1390   26.2705 C   0  0  1  0  0  0  0  0  0  0  0  0
    5.3830  -12.7813   25.8248 C   0  0  0  0  0  0  0  0  0  0  0  0
    7.6319  -13.7670   25.2424 C   0  0  0  0  0  0  0  0  0  0  0  0
    7.2788  -15.1372   24.7138 C   0  0  2  0  0  0  0  0  0  0  0  0
    7.3409  -16.0495   25.8516 N   0  0  0  0  0  0  0  0  0  0  0  0
    8.0402  -15.4637   23.5459 C   0  0  0  0  0  0  0  0  0  0  0  0
    9.1426  -16.1062   23.8079 O   0  0  0  0  0  0  0  0  0  0  0  0
    7.8112  -15.2172   22.1767 N   0  0  0  0  0  0  0  0  0  0  0  0
    6.6598  -14.5449   21.6065 C   0  0  0  0  0  0  0  0  0  0  0  0
    6.7687  -14.6908   20.0894 C   0  0  0  0  0  0  0  0  0  0  0  0
    8.2326  -14.8504   19.8655 C   0  0  0  0  0  0  0  0  0  0  0  0
    8.6940  -15.5968   21.1039 C   0  0  1  0  0  0  0  0  0  0  0  0
   10.1235  -15.3977   21.3410 C   0  0  0  0  0  0  0  0  0  0  0  0
   10.6467  -14.8394   22.3261 O   0  0  0  0  0  0  0  0  0  0  0  0
   10.9949  -15.8827   20.3635 O   0  0  0  0  0  0  0  0  0  0  0  0
  2  1  1  6
  2 13  1  0
  2  3  1  0
  4  3  1  0
  4  5  2  0
  6  5  1  0
  7  6  1  0
  8  7  2  0
  9  8  1  0
 10  9  2  0
 10 11  1  0
 11 12  2  0
 12  7  1  0
 12  4  1  0
 13 14  2  0
 16 15  1  6
 16 18  1  0
 17 16  1  0
 19 18  1  1
 20 19  1  0
 20 13  1  0
 21 22  2  0
 21 19  1  0
 23 21  1  0
 24 23  1  0
 25 24  1  0
 26 25  1  0
 26 27  1  0
 27 28  1  1
 27 23  1  0
 28 30  1  0
 29 28  2  0
M  END
$$$$
