WLP.pdb
     RDKit          3D

 30 32  0  0  1  0  0  0  0  0999 V2000
    6.9886  -19.7412   26.5849 N   0  0  0  0  0  0  0  0  0  0  0  0
    7.5749  -18.4014   26.7197 C   0  0  1  0  0  0  0  0  0  0  0  0
    9.0053  -18.4647   27.0967 C   0  0  0  0  0  0  0  0  0  0  0  0
    9.3840  -17.7334   28.3128 C   0  0  0  0  0  0  0  0  0  0  0  0
    9.6493  -18.3413   29.5492 C   0  0  0  0  0  0  0  0  0  0  0  0
    9.9777  -17.4005   30.4388 N   0  0  0  0  0  0  0  0  0  0  0  0
    9.9432  -16.1765   29.8458 C   0  0  0  0  0  0  0  0  0  0  0  0
   10.2005  -14.9291   30.3693 C   0  0  0  0  0  0  0  0  0  0  0  0
   10.0903  -13.8296   29.5591 C   0  0  0  0  0  0  0  0  0  0  0  0
    9.7239  -14.0260   28.2471 C   0  0  0  0  0  0  0  0  0  0  0  0
    9.4698  -15.2651   27.7321 C   0  0  0  0  0  0  0  0  0  0  0  0
    9.5732  -16.4044   28.5289 C   0  0  0  0  0  0  0  0  0  0  0  0
    7.2017  -17.5910   25.5568 C   0  0  0  0  0  0  0  0  0  0  0  0
    6.9329  -18.1606   24.4654 O   0  0  0  0  0  0  0  0  0  0  0  0
    8.2399  -12.3178   24.9736 C   0  0  0  0  0  0  0  0  0  0  0  0
    7.3968  -13.3133   25.8496 C   0  0  1  0  0  0  0  0  0  0  0  0
    6.7021  -12.3753   26.8232 C   0  0  0  0  0  0  0  0  0  0  0  0
    6.5133  -13.9735   24.8794 C   0  0  0  0  0  0  0  0  0  0  0  0
    6.8226  -15.3758   24.4109 C   0  0  2  0  0  0  0  0  0  0  0  0
    7.1198  -16.1570   25.6076 N   0  0  0  0  0  0  0  0  0  0  0  0
    7.7838  -15.3767   23.3496 C   0  0  0  0  0  0  0  0  0  0  0  0
    8.9826  -15.7099   23.7353 O   0  0  0  0  0  0  0  0  0  0  0  0
    7.6652  -15.0853   21.9752 N   0  0  0  0  0  0  0  0  0  0  0  0
    6.5614  -14.3948   21.3365 C   0  0  0  0  0  0  0  0  0  0  0  0
    6.7926  -14.4907   19.8291 C   0  0  0  0  0  0  0  0  0  0  0  0
    8.2702  -14.6426   19.7188 C   0  0  0  0  0  0  0  0  0  0  0  0
    8.6325  -15.4293   20.9651 C   0  0  1  0  0  0  0  0  0  0  0  0
   10.0377  -15.2377   21.3231 C   0  0  0  0  0  0  0  0  0  0  0  0
   11.0012  -15.9484   20.9733 O   0  0  0  0  0  0  0  0  0  0  0  0
   10.3331  -14.1456   22.1417 O   0  0  0  0  0  0  0  0  0  0  0  0
  2  1  1  6
  2 13  1  0
  2  3  1  0
  4  3  1  0
  4  5  2  0
  6  5  1  0
  7  6  1  0
  8  7  2  0
  9  8  1  0
 10  9  2  0
 10 11  1  0
 11 12  2  0
 12  7  1  0
 12  4  1  0
 13 14  2  0
 16 15  1  6
 16 18  1  0
 17 16  1  0
 19 18  1  1
 20 19  1  0
 20 13  1  0
 21 22  2  0
 21 19  1  0
 23 21  1  0
 24 23  1  0
 25 24  1  0
 26 25  1  0
 26 27  1  0
 27 28  1  1
 27 23  1  0
 28 30  1  0
 29 28  2  0
M  END
$$$$
