WLP.pdb
     RDKit          3D

 30 32  0  0  1  0  0  0  0  0999 V2000
    6.2464  -19.2706   26.5792 N   0  0  0  0  0  0  0  0  0  0  0  0
    7.1672  -18.1394   26.7503 C   0  0  1  0  0  0  0  0  0  0  0  0
    8.5368  -18.5933   27.0827 C   0  0  0  0  0  0  0  0  0  0  0  0
    9.2677  -17.7749   28.0589 C   0  0  0  0  0  0  0  0  0  0  0  0
    9.5297  -18.1681   29.3800 C   0  0  0  0  0  0  0  0  0  0  0  0
   10.2235  -17.2060   29.9943 N   0  0  0  0  0  0  0  0  0  0  0  0
   10.4394  -16.1750   29.1332 C   0  0  0  0  0  0  0  0  0  0  0  0
   11.0970  -14.9806   29.3258 C   0  0  0  0  0  0  0  0  0  0  0  0
   11.1763  -14.0876   28.2895 C   0  0  0  0  0  0  0  0  0  0  0  0
   10.5888  -14.4303   27.0931 C   0  0  0  0  0  0  0  0  0  0  0  0
    9.9377  -15.6161   26.9065 C   0  0  0  0  0  0  0  0  0  0  0  0
    9.8392  -16.5470   27.9397 C   0  0  0  0  0  0  0  0  0  0  0  0
    7.0004  -17.2066   25.6322 C   0  0  0  0  0  0  0  0  0  0  0  0
    6.6592  -17.6486   24.5025 O   0  0  0  0  0  0  0  0  0  0  0  0
    6.9285  -11.4799   26.3110 C   0  0  0  0  0  0  0  0  0  0  0  0
    6.5040  -12.9865   26.1724 C   0  0  1  0  0  0  0  0  0  0  0  0
    5.0396  -12.8730   25.7812 C   0  0  0  0  0  0  0  0  0  0  0  0
    7.3923  -13.5070   25.1247 C   0  0  0  0  0  0  0  0  0  0  0  0
    7.2012  -14.9119   24.6038 C   0  0  2  0  0  0  0  0  0  0  0  0
    7.2035  -15.7904   25.7694 N   0  0  0  0  0  0  0  0  0  0  0  0
    8.1092  -15.2060   23.5364 C   0  0  0  0  0  0  0  0  0  0  0  0
    9.1905  -15.8175   23.9284 O   0  0  0  0  0  0  0  0  0  0  0  0
    8.0418  -14.9554   22.1505 N   0  0  0  0  0  0  0  0  0  0  0  0
    6.9772  -14.2580   21.4553 C   0  0  0  0  0  0  0  0  0  0  0  0
    7.2535  -14.4074   19.9599 C   0  0  0  0  0  0  0  0  0  0  0  0
    8.7294  -14.5996   19.9023 C   0  0  0  0  0  0  0  0  0  0  0  0
    9.0314  -15.3553   21.1835 C   0  0  1  0  0  0  0  0  0  0  0  0
   10.4291  -15.1878   21.5808 C   0  0  0  0  0  0  0  0  0  0  0  0
   10.8509  -14.6164   22.6061 O   0  0  0  0  0  0  0  0  0  0  0  0
   11.3931  -15.7231   20.7238 O   0  0  0  0  0  0  0  0  0  0  0  0
  2  1  1  6
  2 13  1  0
  2  3  1  0
  4  3  1  0
  4  5  2  0
  6  5  1  0
  7  6  1  0
  8  7  2  0
  9  8  1  0
 10  9  2  0
 10 11  1  0
 11 12  2  0
 12  7  1  0
 12  4  1  0
 13 14  2  0
 16 15  1  6
 16 18  1  0
 17 16  1  0
 19 18  1  1
 20 19  1  0
 20 13  1  0
 21 22  2  0
 21 19  1  0
 23 21  1  0
 24 23  1  0
 25 24  1  0
 26 25  1  0
 26 27  1  0
 27 28  1  1
 27 23  1  0
 28 30  1  0
 29 28  2  0
M  END
$$$$
