WLP.pdb
     RDKit          3D

 30 32  0  0  1  0  0  0  0  0999 V2000
    5.8214  -18.5772   25.1233 N   0  0  0  0  0  0  0  0  0  0  0  0
    6.4688  -17.2592   25.1460 C   0  0  1  0  0  0  0  0  0  0  0  0
    7.0182  -16.9417   26.4838 C   0  0  0  0  0  0  0  0  0  0  0  0
    7.1708  -15.5145   26.7955 C   0  0  0  0  0  0  0  0  0  0  0  0
    6.1721  -14.5506   26.5907 C   0  0  0  0  0  0  0  0  0  0  0  0
    6.6247  -13.3589   26.9897 N   0  0  0  0  0  0  0  0  0  0  0  0
    7.8962  -13.4841   27.4574 C   0  0  0  0  0  0  0  0  0  0  0  0
    8.7539  -12.5326   27.9624 C   0  0  0  0  0  0  0  0  0  0  0  0
   10.0064  -12.9115   28.3687 C   0  0  0  0  0  0  0  0  0  0  0  0
   10.3515  -14.2386   28.2515 C   0  0  0  0  0  0  0  0  0  0  0  0
    9.4974  -15.1790   27.7502 C   0  0  0  0  0  0  0  0  0  0  0  0
    8.2160  -14.8273   27.3283 C   0  0  0  0  0  0  0  0  0  0  0  0
    7.3574  -17.1368   23.9869 C   0  0  0  0  0  0  0  0  0  0  0  0
    7.8001  -18.1785   23.4331 O   0  0  0  0  0  0  0  0  0  0  0  0
    7.9723  -12.1627   21.1418 C   0  0  0  0  0  0  0  0  0  0  0  0
    7.4984  -13.6455   21.3558 C   0  0  1  0  0  0  0  0  0  0  0  0
    7.1000  -14.0616   19.9492 C   0  0  0  0  0  0  0  0  0  0  0  0
    8.6870  -14.3201   21.8942 C   0  0  0  0  0  0  0  0  0  0  0  0
    8.6178  -15.7806   22.2734 C   0  0  2  0  0  0  0  0  0  0  0  0
    7.7459  -15.8653   23.4410 N   0  0  0  0  0  0  0  0  0  0  0  0
    9.9224  -16.3640   22.3628 C   0  0  0  0  0  0  0  0  0  0  0  0
   10.5293  -16.1086   23.4868 O   0  0  0  0  0  0  0  0  0  0  0  0
   10.6594  -17.1585   21.4608 N   0  0  0  0  0  0  0  0  0  0  0  0
   10.1733  -17.7167   20.2138 C   0  0  0  0  0  0  0  0  0  0  0  0
   11.2635  -18.6521   19.6931 C   0  0  0  0  0  0  0  0  0  0  0  0
   12.5074  -18.0957   20.2946 C   0  0  0  0  0  0  0  0  0  0  0  0
   12.0343  -17.5524   21.6305 C   0  0  1  0  0  0  0  0  0  0  0  0
   12.9439  -16.5251   22.1371 C   0  0  0  0  0  0  0  0  0  0  0  0
   12.6694  -15.3294   22.3621 O   0  0  0  0  0  0  0  0  0  0  0  0
   14.2571  -16.9229   22.3966 O   0  0  0  0  0  0  0  0  0  0  0  0
  2  1  1  1
  2 13  1  0
  2  3  1  0
  4  3  1  0
  4  5  2  0
  6  5  1  0
  7  6  1  0
  8  7  2  0
  9  8  1  0
 10  9  2  0
 10 11  1  0
 11 12  2  0
 12  7  1  0
 12  4  1  0
 13 14  2  0
 16 15  1  6
 16 18  1  0
 17 16  1  0
 19 18  1  1
 20 19  1  0
 20 13  1  0
 21 22  2  0
 21 19  1  0
 23 21  1  0
 24 23  1  0
 25 24  1  0
 26 25  1  0
 26 27  1  0
 27 28  1  6
 27 23  1  0
 28 30  1  0
 29 28  2  0
M  END
$$$$
