WLP.pdb
     RDKit          3D

 30 32  0  0  1  0  0  0  0  0999 V2000
    9.6853  -15.6171   21.5747 N   0  0  0  0  0  0  0  0  0  0  0  0
    9.1292  -15.4101   22.9181 C   0  0  1  0  0  0  0  0  0  0  0  0
    7.7478  -15.9322   23.0254 C   0  0  0  0  0  0  0  0  0  0  0  0
    6.9137  -15.3362   24.0772 C   0  0  0  0  0  0  0  0  0  0  0  0
    6.0849  -16.0709   24.9386 C   0  0  0  0  0  0  0  0  0  0  0  0
    5.4777  -15.2328   25.7831 N   0  0  0  0  0  0  0  0  0  0  0  0
    5.8677  -13.9558   25.5219 C   0  0  0  0  0  0  0  0  0  0  0  0
    5.5020  -12.7746   26.1278 C   0  0  0  0  0  0  0  0  0  0  0  0
    6.0360  -11.5977   25.6724 C   0  0  0  0  0  0  0  0  0  0  0  0
    6.9216  -11.6525   24.6203 C   0  0  0  0  0  0  0  0  0  0  0  0
    7.2816  -12.8265   24.0226 C   0  0  0  0  0  0  0  0  0  0  0  0
    6.7573  -14.0414   24.4615 C   0  0  0  0  0  0  0  0  0  0  0  0
   10.1101  -15.8392   23.9190 C   0  0  0  0  0  0  0  0  0  0  0  0
   11.1857  -16.3764   23.5416 O   0  0  0  0  0  0  0  0  0  0  0  0
    9.8716  -13.9129   29.2434 C   0  0  0  0  0  0  0  0  0  0  0  0
   10.3511  -14.1184   27.7612 C   0  0  1  0  0  0  0  0  0  0  0  0
   11.6568  -13.3407   27.7351 C   0  0  0  0  0  0  0  0  0  0  0  0
   10.4888  -15.5755   27.6353 C   0  0  0  0  0  0  0  0  0  0  0  0
   10.8573  -16.1854   26.3034 C   0  0  2  0  0  0  0  0  0  0  0  0
    9.9016  -15.6656   25.3304 N   0  0  0  0  0  0  0  0  0  0  0  0
   11.0160  -17.6052   26.4001 C   0  0  0  0  0  0  0  0  0  0  0  0
    9.9006  -18.2376   26.6304 O   0  0  0  0  0  0  0  0  0  0  0  0
   12.1523  -18.4326   26.2903 N   0  0  0  0  0  0  0  0  0  0  0  0
   13.4500  -18.0440   25.7727 C   0  0  0  0  0  0  0  0  0  0  0  0
   14.2868  -19.3187   25.6744 C   0  0  0  0  0  0  0  0  0  0  0  0
   13.6806  -20.2061   26.7057 C   0  0  0  0  0  0  0  0  0  0  0  0
   12.2135  -19.8181   26.6789 C   0  0  1  0  0  0  0  0  0  0  0  0
   11.5495  -20.1679   27.9343 C   0  0  0  0  0  0  0  0  0  0  0  0
   10.9344  -19.3941   28.6949 O   0  0  0  0  0  0  0  0  0  0  0  0
   11.6096  -21.5077   28.3234 O   0  0  0  0  0  0  0  0  0  0  0  0
  2  1  1  6
  2 13  1  0
  2  3  1  0
  4  3  1  0
  4  5  2  0
  6  5  1  0
  7  6  1  0
  8  7  2  0
  9  8  1  0
 10  9  2  0
 10 11  1  0
 11 12  2  0
 12  7  1  0
 12  4  1  0
 13 14  2  0
 16 15  1  1
 16 18  1  0
 17 16  1  0
 19 18  1  1
 20 19  1  0
 20 13  1  0
 21 22  2  0
 21 19  1  0
 23 21  1  0
 24 23  1  0
 25 24  1  0
 26 25  1  0
 26 27  1  0
 27 28  1  1
 27 23  1  0
 28 30  1  0
 29 28  2  0
M  END
$$$$
