WLP.pdb
     RDKit          3D

 30 32  0  0  1  0  0  0  0  0999 V2000
    6.1146  -19.3308   23.0337 N   0  0  0  0  0  0  0  0  0  0  0  0
    6.8574  -18.0880   22.7874 C   0  0  1  0  0  0  0  0  0  0  0  0
    6.3232  -17.3531   21.6183 C   0  0  0  0  0  0  0  0  0  0  0  0
    7.2588  -16.4401   20.9487 C   0  0  0  0  0  0  0  0  0  0  0  0
    8.1511  -16.8264   19.9372 C   0  0  0  0  0  0  0  0  0  0  0  0
    8.8457  -15.7589   19.5342 N   0  0  0  0  0  0  0  0  0  0  0  0
    8.4534  -14.6635   20.2394 C   0  0  0  0  0  0  0  0  0  0  0  0
    8.8912  -13.3598   20.1700 C   0  0  0  0  0  0  0  0  0  0  0  0
    8.3364  -12.4242   21.0033 C   0  0  0  0  0  0  0  0  0  0  0  0
    7.3579  -12.8361   21.8791 C   0  0  0  0  0  0  0  0  0  0  0  0
    6.9267  -14.1302   21.9444 C   0  0  0  0  0  0  0  0  0  0  0  0
    7.4698  -15.1067   21.1106 C   0  0  0  0  0  0  0  0  0  0  0  0
    7.0134  -17.3595   24.0496 C   0  0  0  0  0  0  0  0  0  0  0  0
    6.0259  -17.2430   24.8236 O   0  0  0  0  0  0  0  0  0  0  0  0
    9.4995  -16.7545   28.7380 C   0  0  0  0  0  0  0  0  0  0  0  0
   10.0017  -15.7512   27.6378 C   0  0  1  0  0  0  0  0  0  0  0  0
   11.4968  -15.7013   27.9069 C   0  0  0  0  0  0  0  0  0  0  0  0
    9.6151  -16.3929   26.3743 C   0  0  0  0  0  0  0  0  0  0  0  0
    8.3546  -15.9595   25.6636 C   0  0  2  0  0  0  0  0  0  0  0  0
    8.2607  -16.7707   24.4537 N   0  0  0  0  0  0  0  0  0  0  0  0
    8.2899  -14.5356   25.5270 C   0  0  0  0  0  0  0  0  0  0  0  0
    9.3018  -14.0297   24.8812 O   0  0  0  0  0  0  0  0  0  0  0  0
    7.3354  -13.5932   25.9613 N   0  0  0  0  0  0  0  0  0  0  0  0
    6.0257  -13.8884   26.5095 C   0  0  0  0  0  0  0  0  0  0  0  0
    5.2933  -12.5546   26.6480 C   0  0  0  0  0  0  0  0  0  0  0  0
    6.4012  -11.5689   26.7879 C   0  0  0  0  0  0  0  0  0  0  0  0
    7.5049  -12.1632   25.9321 C   0  0  1  0  0  0  0  0  0  0  0  0
    8.8176  -11.6589   26.3346 C   0  0  0  0  0  0  0  0  0  0  0  0
    9.7145  -12.2960   26.9222 O   0  0  0  0  0  0  0  0  0  0  0  0
    9.0974  -10.3251   26.0299 O   0  0  0  0  0  0  0  0  0  0  0  0
  2  1  1  1
  2 13  1  0
  2  3  1  0
  4  3  1  0
  4  5  2  0
  6  5  1  0
  7  6  1  0
  8  7  2  0
  9  8  1  0
 10  9  2  0
 10 11  1  0
 11 12  2  0
 12  7  1  0
 12  4  1  0
 13 14  2  0
 16 15  1  1
 16 18  1  0
 17 16  1  0
 19 18  1  6
 20 19  1  0
 20 13  1  0
 21 22  2  0
 21 19  1  0
 23 21  1  0
 24 23  1  0
 25 24  1  0
 26 25  1  0
 26 27  1  0
 27 28  1  1
 27 23  1  0
 28 30  1  0
 29 28  2  0
M  END
$$$$
