WLP.pdb
     RDKit          3D

 30 32  0  0  1  0  0  0  0  0999 V2000
    5.8922  -18.5420   24.9333 N   0  0  0  0  0  0  0  0  0  0  0  0
    6.3297  -17.1477   24.7869 C   0  0  1  0  0  0  0  0  0  0  0  0
    6.9450  -16.6332   26.0315 C   0  0  0  0  0  0  0  0  0  0  0  0
    6.6850  -15.2216   26.3429 C   0  0  0  0  0  0  0  0  0  0  0  0
    5.4158  -14.6976   26.6314 C   0  0  0  0  0  0  0  0  0  0  0  0
    5.5280  -13.3906   26.8830 N   0  0  0  0  0  0  0  0  0  0  0  0
    6.8305  -13.0126   26.7742 C   0  0  0  0  0  0  0  0  0  0  0  0
    7.4124  -11.7756   26.9393 C   0  0  0  0  0  0  0  0  0  0  0  0
    8.7656  -11.6461   26.7664 C   0  0  0  0  0  0  0  0  0  0  0  0
    9.4862  -12.7700   26.4324 C   0  0  0  0  0  0  0  0  0  0  0  0
    8.9048  -13.9950   26.2698 C   0  0  0  0  0  0  0  0  0  0  0  0
    7.5310  -14.1615   26.4388 C   0  0  0  0  0  0  0  0  0  0  0  0
    7.0785  -17.0047   23.5352 C   0  0  0  0  0  0  0  0  0  0  0  0
    7.6605  -18.0083   23.0434 O   0  0  0  0  0  0  0  0  0  0  0  0
    7.3782  -14.2738   18.8196 C   0  0  0  0  0  0  0  0  0  0  0  0
    8.4326  -13.7849   19.8771 C   0  0  1  0  0  0  0  0  0  0  0  0
    8.4597  -12.2847   19.6340 C   0  0  0  0  0  0  0  0  0  0  0  0
    7.8578  -14.1993   21.1639 C   0  0  0  0  0  0  0  0  0  0  0  0
    7.9672  -15.6384   21.6097 C   0  0  2  0  0  0  0  0  0  0  0  0
    7.1739  -15.7564   22.8293 N   0  0  0  0  0  0  0  0  0  0  0  0
    9.3300  -16.0761   21.6473 C   0  0  0  0  0  0  0  0  0  0  0  0
   10.0278  -15.5201   22.5965 O   0  0  0  0  0  0  0  0  0  0  0  0
   10.0440  -16.9932   20.8491 N   0  0  0  0  0  0  0  0  0  0  0  0
    9.4862  -17.8559   19.8256 C   0  0  0  0  0  0  0  0  0  0  0  0
   10.6061  -18.7955   19.3806 C   0  0  0  0  0  0  0  0  0  0  0  0
   11.8422  -18.0205   19.6808 C   0  0  0  0  0  0  0  0  0  0  0  0
   11.4633  -17.2281   20.9186 C   0  0  1  0  0  0  0  0  0  0  0  0
   12.3085  -16.0440   21.0694 C   0  0  0  0  0  0  0  0  0  0  0  0
   13.3097  -15.9295   21.8044 O   0  0  0  0  0  0  0  0  0  0  0  0
   11.9595  -14.9238   20.3119 O   0  0  0  0  0  0  0  0  0  0  0  0
  2  1  1  1
  2 13  1  0
  2  3  1  0
  4  3  1  0
  4  5  2  0
  6  5  1  0
  7  6  1  0
  8  7  2  0
  9  8  1  0
 10  9  2  0
 10 11  1  0
 11 12  2  0
 12  7  1  0
 12  4  1  0
 13 14  2  0
 16 15  1  6
 16 18  1  0
 17 16  1  0
 19 18  1  1
 20 19  1  0
 20 13  1  0
 21 22  2  0
 21 19  1  0
 23 21  1  0
 24 23  1  0
 25 24  1  0
 26 25  1  0
 26 27  1  0
 27 28  1  6
 27 23  1  0
 28 30  1  0
 29 28  2  0
M  END
$$$$
