WLP.pdb
     RDKit          3D

 30 32  0  0  1  0  0  0  0  0999 V2000
    6.4575  -19.2143   26.3064 N   0  0  0  0  0  0  0  0  0  0  0  0
    7.2726  -18.0117   26.5216 C   0  0  1  0  0  0  0  0  0  0  0  0
    8.6778  -18.3522   26.8406 C   0  0  0  0  0  0  0  0  0  0  0  0
    9.2394  -17.7143   28.0385 C   0  0  0  0  0  0  0  0  0  0  0  0
    9.4027  -18.3598   29.2735 C   0  0  0  0  0  0  0  0  0  0  0  0
    9.9509  -17.5079   30.1442 N   0  0  0  0  0  0  0  0  0  0  0  0
   10.1637  -16.3077   29.5397 C   0  0  0  0  0  0  0  0  0  0  0  0
   10.6980  -15.1428   30.0432 C   0  0  0  0  0  0  0  0  0  0  0  0
   10.8039  -14.0488   29.2250 C   0  0  0  0  0  0  0  0  0  0  0  0
   10.3666  -14.1673   27.9254 C   0  0  0  0  0  0  0  0  0  0  0  0
    9.8375  -15.3249   27.4303 C   0  0  0  0  0  0  0  0  0  0  0  0
    9.7160  -16.4563   28.2357 C   0  0  0  0  0  0  0  0  0  0  0  0
    7.0215  -17.0569   25.4384 C   0  0  0  0  0  0  0  0  0  0  0  0
    6.4166  -17.4412   24.4018 O   0  0  0  0  0  0  0  0  0  0  0  0
    7.6048  -11.4518   26.2219 C   0  0  0  0  0  0  0  0  0  0  0  0
    6.9853  -12.8855   26.0492 C   0  0  1  0  0  0  0  0  0  0  0  0
    5.5033  -12.5800   25.9054 C   0  0  0  0  0  0  0  0  0  0  0  0
    7.6364  -13.4063   24.8399 C   0  0  0  0  0  0  0  0  0  0  0  0
    7.3159  -14.7994   24.3518 C   0  0  2  0  0  0  0  0  0  0  0  0
    7.4325  -15.6815   25.5088 N   0  0  0  0  0  0  0  0  0  0  0  0
    8.0614  -15.1297   23.1747 C   0  0  0  0  0  0  0  0  0  0  0  0
    9.1416  -15.8153   23.4198 O   0  0  0  0  0  0  0  0  0  0  0  0
    7.8365  -14.8490   21.8114 N   0  0  0  0  0  0  0  0  0  0  0  0
    6.6640  -14.2070   21.2494 C   0  0  0  0  0  0  0  0  0  0  0  0
    6.7946  -14.2995   19.7298 C   0  0  0  0  0  0  0  0  0  0  0  0
    8.2661  -14.3913   19.5180 C   0  0  0  0  0  0  0  0  0  0  0  0
    8.7454  -15.1573   20.7375 C   0  0  1  0  0  0  0  0  0  0  0  0
   10.1629  -14.9070   20.9974 C   0  0  0  0  0  0  0  0  0  0  0  0
   10.6517  -14.3545   22.0031 O   0  0  0  0  0  0  0  0  0  0  0  0
   11.0643  -15.3302   20.0184 O   0  0  0  0  0  0  0  0  0  0  0  0
  2  1  1  6
  2 13  1  0
  2  3  1  0
  4  3  1  0
  4  5  2  0
  6  5  1  0
  7  6  1  0
  8  7  2  0
  9  8  1  0
 10  9  2  0
 10 11  1  0
 11 12  2  0
 12  7  1  0
 12  4  1  0
 13 14  2  0
 16 15  1  6
 16 18  1  0
 17 16  1  0
 19 18  1  1
 20 19  1  0
 20 13  1  0
 21 22  2  0
 21 19  1  0
 23 21  1  0
 24 23  1  0
 25 24  1  0
 26 25  1  0
 26 27  1  0
 27 28  1  1
 27 23  1  0
 28 30  1  0
 29 28  2  0
M  END
$$$$
