WLP.pdb
     RDKit          3D

 30 32  0  0  1  0  0  0  0  0999 V2000
    6.9714  -19.5746   26.2816 N   0  0  0  0  0  0  0  0  0  0  0  0
    7.6044  -18.2928   26.6179 C   0  0  1  0  0  0  0  0  0  0  0  0
    8.9734  -18.4809   27.1498 C   0  0  0  0  0  0  0  0  0  0  0  0
    9.2901  -17.7529   28.3854 C   0  0  0  0  0  0  0  0  0  0  0  0
    9.5271  -18.3668   29.6246 C   0  0  0  0  0  0  0  0  0  0  0  0
    9.7998  -17.4273   30.5342 N   0  0  0  0  0  0  0  0  0  0  0  0
    9.7549  -16.1984   29.9520 C   0  0  0  0  0  0  0  0  0  0  0  0
    9.9616  -14.9505   30.4961 C   0  0  0  0  0  0  0  0  0  0  0  0
    9.8519  -13.8457   29.6930 C   0  0  0  0  0  0  0  0  0  0  0  0
    9.5370  -14.0376   28.3671 C   0  0  0  0  0  0  0  0  0  0  0  0
    9.3331  -15.2773   27.8317 C   0  0  0  0  0  0  0  0  0  0  0  0
    9.4374  -16.4219   28.6207 C   0  0  0  0  0  0  0  0  0  0  0  0
    7.4170  -17.3548   25.5075 C   0  0  0  0  0  0  0  0  0  0  0  0
    7.0016  -17.7836   24.3977 O   0  0  0  0  0  0  0  0  0  0  0  0
    8.1316  -11.7291   26.3397 C   0  0  0  0  0  0  0  0  0  0  0  0
    7.3898  -13.1064   26.1922 C   0  0  1  0  0  0  0  0  0  0  0  0
    5.9341  -12.6790   26.0986 C   0  0  0  0  0  0  0  0  0  0  0  0
    7.9534  -13.6792   24.9626 C   0  0  0  0  0  0  0  0  0  0  0  0
    7.5105  -15.0458   24.4957 C   0  0  2  0  0  0  0  0  0  0  0  0
    7.6816  -15.9475   25.6307 N   0  0  0  0  0  0  0  0  0  0  0  0
    8.1254  -15.4027   23.2528 C   0  0  0  0  0  0  0  0  0  0  0  0
    9.1966  -16.1304   23.3938 O   0  0  0  0  0  0  0  0  0  0  0  0
    7.7810  -15.1110   21.9170 N   0  0  0  0  0  0  0  0  0  0  0  0
    6.6243  -14.3568   21.4741 C   0  0  0  0  0  0  0  0  0  0  0  0
    6.5766  -14.4738   19.9514 C   0  0  0  0  0  0  0  0  0  0  0  0
    7.9991  -14.7169   19.5824 C   0  0  0  0  0  0  0  0  0  0  0  0
    8.5303  -15.5186   20.7565 C   0  0  1  0  0  0  0  0  0  0  0  0
    9.9857  -15.4123   20.8559 C   0  0  0  0  0  0  0  0  0  0  0  0
   10.6369  -14.9401   21.8091 O   0  0  0  0  0  0  0  0  0  0  0  0
   10.7248  -15.8888   19.7710 O   0  0  0  0  0  0  0  0  0  0  0  0
  2  1  1  6
  2 13  1  0
  2  3  1  0
  4  3  1  0
  4  5  2  0
  6  5  1  0
  7  6  1  0
  8  7  2  0
  9  8  1  0
 10  9  2  0
 10 11  1  0
 11 12  2  0
 12  7  1  0
 12  4  1  0
 13 14  2  0
 16 15  1  6
 16 18  1  0
 17 16  1  0
 19 18  1  1
 20 19  1  0
 20 13  1  0
 21 22  2  0
 21 19  1  0
 23 21  1  0
 24 23  1  0
 25 24  1  0
 26 25  1  0
 26 27  1  0
 27 28  1  1
 27 23  1  0
 28 30  1  0
 29 28  2  0
M  END
$$$$
