WLP.pdb
     RDKit          3D

 30 32  0  0  1  0  0  0  0  0999 V2000
    6.7972  -20.0912   26.4485 N   0  0  0  0  0  0  0  0  0  0  0  0
    7.4710  -18.8740   26.9187 C   0  0  1  0  0  0  0  0  0  0  0  0
    8.8457  -19.1564   27.3908 C   0  0  0  0  0  0  0  0  0  0  0  0
    9.3917  -18.2201   28.3820 C   0  0  0  0  0  0  0  0  0  0  0  0
    9.5761  -18.5258   29.7389 C   0  0  0  0  0  0  0  0  0  0  0  0
   10.1019  -17.4662   30.3594 N   0  0  0  0  0  0  0  0  0  0  0  0
   10.2791  -16.4538   29.4679 C   0  0  0  0  0  0  0  0  0  0  0  0
   10.7813  -15.1852   29.6539 C   0  0  0  0  0  0  0  0  0  0  0  0
   10.8542  -14.3327   28.5837 C   0  0  0  0  0  0  0  0  0  0  0  0
   10.4174  -14.7894   27.3610 C   0  0  0  0  0  0  0  0  0  0  0  0
    9.9203  -16.0485   27.1812 C   0  0  0  0  0  0  0  0  0  0  0  0
    9.8328  -16.9410   28.2487 C   0  0  0  0  0  0  0  0  0  0  0  0
    7.2846  -17.8061   25.9323 C   0  0  0  0  0  0  0  0  0  0  0  0
    7.1814  -18.1016   24.7117 O   0  0  0  0  0  0  0  0  0  0  0  0
    5.3640  -12.4737   25.9730 C   0  0  0  0  0  0  0  0  0  0  0  0
    6.7586  -12.8163   25.3352 C   0  0  1  0  0  0  0  0  0  0  0  0
    7.5838  -11.5900   25.6892 C   0  0  0  0  0  0  0  0  0  0  0  0
    7.1596  -14.0565   26.0126 C   0  0  0  0  0  0  0  0  0  0  0  0
    7.0604  -15.3777   25.2872 C   0  0  2  0  0  0  0  0  0  0  0  0
    7.2050  -16.4189   26.2998 N   0  0  0  0  0  0  0  0  0  0  0  0
    7.9275  -15.4198   24.1485 C   0  0  0  0  0  0  0  0  0  0  0  0
    9.1463  -15.7780   24.4372 O   0  0  0  0  0  0  0  0  0  0  0  0
    7.6996  -15.1468   22.7842 N   0  0  0  0  0  0  0  0  0  0  0  0
    6.4766  -14.6242   22.2062 C   0  0  0  0  0  0  0  0  0  0  0  0
    6.6443  -14.6829   20.6886 C   0  0  0  0  0  0  0  0  0  0  0  0
    8.1209  -14.6169   20.5048 C   0  0  0  0  0  0  0  0  0  0  0  0
    8.6555  -15.3440   21.7251 C   0  0  1  0  0  0  0  0  0  0  0  0
   10.0337  -14.9496   22.0157 C   0  0  0  0  0  0  0  0  0  0  0  0
   10.4391  -14.3397   23.0252 O   0  0  0  0  0  0  0  0  0  0  0  0
   10.9975  -15.2909   21.0644 O   0  0  0  0  0  0  0  0  0  0  0  0
  2  1  1  6
  2 13  1  0
  2  3  1  0
  4  3  1  0
  4  5  2  0
  6  5  1  0
  7  6  1  0
  8  7  2  0
  9  8  1  0
 10  9  2  0
 10 11  1  0
 11 12  2  0
 12  7  1  0
 12  4  1  0
 13 14  2  0
 16 15  1  1
 16 18  1  0
 17 16  1  0
 19 18  1  1
 20 19  1  0
 20 13  1  0
 21 22  2  0
 21 19  1  0
 23 21  1  0
 24 23  1  0
 25 24  1  0
 26 25  1  0
 26 27  1  0
 27 28  1  1
 27 23  1  0
 28 30  1  0
 29 28  2  0
M  END
$$$$
