WLP.pdb
     RDKit          3D

 30 32  0  0  1  0  0  0  0  0999 V2000
    8.9401  -16.4139   25.2925 N   0  0  0  0  0  0  0  0  0  0  0  0
    7.5494  -16.7506   24.9615 C   0  0  1  0  0  0  0  0  0  0  0  0
    6.5960  -16.1404   25.9159 C   0  0  0  0  0  0  0  0  0  0  0  0
    7.0326  -14.8910   26.5528 C   0  0  0  0  0  0  0  0  0  0  0  0
    6.3050  -13.6919   26.5198 C   0  0  0  0  0  0  0  0  0  0  0  0
    6.9697  -12.7568   27.2040 N   0  0  0  0  0  0  0  0  0  0  0  0
    8.1227  -13.2831   27.6986 C   0  0  0  0  0  0  0  0  0  0  0  0
    9.1142  -12.6964   28.4529 C   0  0  0  0  0  0  0  0  0  0  0  0
   10.1982  -13.4454   28.8290 C   0  0  0  0  0  0  0  0  0  0  0  0
   10.2453  -14.7620   28.4309 C   0  0  0  0  0  0  0  0  0  0  0  0
    9.2595  -15.3397   27.6829 C   0  0  0  0  0  0  0  0  0  0  0  0
    8.1431  -14.6062   27.2839 C   0  0  0  0  0  0  0  0  0  0  0  0
    7.3273  -16.5346   23.5290 C   0  0  0  0  0  0  0  0  0  0  0  0
    6.2414  -16.0268   23.1403 O   0  0  0  0  0  0  0  0  0  0  0  0
    6.8749  -13.6893   20.1409 C   0  0  0  0  0  0  0  0  0  0  0  0
    8.4116  -13.7287   20.4666 C   0  0  1  0  0  0  0  0  0  0  0  0
    8.6907  -12.2911   20.8738 C   0  0  0  0  0  0  0  0  0  0  0  0
    8.5162  -14.7164   21.5488 C   0  0  0  0  0  0  0  0  0  0  0  0
    8.3443  -16.1864   21.2469 C   0  0  2  0  0  0  0  0  0  0  0  0
    8.3081  -16.8730   22.5344 N   0  0  0  0  0  0  0  0  0  0  0  0
    9.2883  -16.6372   20.2691 C   0  0  0  0  0  0  0  0  0  0  0  0
   10.5243  -16.3640   20.5763 O   0  0  0  0  0  0  0  0  0  0  0  0
    9.1203  -17.3183   19.0460 N   0  0  0  0  0  0  0  0  0  0  0  0
    7.8610  -17.5852   18.3782 C   0  0  0  0  0  0  0  0  0  0  0  0
    8.1715  -18.5092   17.2015 C   0  0  0  0  0  0  0  0  0  0  0  0
    9.5940  -18.1978   16.8883 C   0  0  0  0  0  0  0  0  0  0  0  0
   10.1848  -17.8687   18.2471 C   0  0  1  0  0  0  0  0  0  0  0  0
   11.3877  -17.0468   18.1171 C   0  0  0  0  0  0  0  0  0  0  0  0
   11.5304  -15.8666   18.4943 O   0  0  0  0  0  0  0  0  0  0  0  0
   12.4927  -17.6445   17.5073 O   0  0  0  0  0  0  0  0  0  0  0  0
  2  1  1  1
  2 13  1  0
  2  3  1  0
  4  3  1  0
  4  5  2  0
  6  5  1  0
  7  6  1  0
  8  7  2  0
  9  8  1  0
 10  9  2  0
 10 11  1  0
 11 12  2  0
 12  7  1  0
 12  4  1  0
 13 14  2  0
 16 15  1  1
 16 18  1  0
 17 16  1  0
 19 18  1  1
 20 19  1  0
 20 13  1  0
 21 22  2  0
 21 19  1  0
 23 21  1  0
 24 23  1  0
 25 24  1  0
 26 25  1  0
 26 27  1  0
 27 28  1  6
 27 23  1  0
 28 30  1  0
 29 28  2  0
M  END
$$$$
