WRG.pdb
     RDKit          3D

 30 31  0  0  1  0  0  0  0  0999 V2000
   24.0346  -20.1564  -16.9642 N   0  0  0  0  0  0  0  0  0  0  0  0
   24.0839  -20.0609  -15.5429 C   0  0  1  0  0  0  0  0  0  0  0  0
   22.9039  -20.6592  -14.8538 C   0  0  0  0  0  0  0  0  0  0  0  0
   21.7287  -19.7803  -14.7444 C   0  0  0  0  0  0  0  0  0  0  0  0
   20.8950  -19.4243  -15.7808 C   0  0  0  0  0  0  0  0  0  0  0  0
   19.9411  -18.6367  -15.2887 N   0  0  0  0  0  0  0  0  0  0  0  0
   20.1006  -18.4526  -13.9792 C   0  0  0  0  0  0  0  0  0  0  0  0
   19.3894  -17.7315  -13.0456 C   0  0  0  0  0  0  0  0  0  0  0  0
   19.7727  -17.6963  -11.7215 C   0  0  0  0  0  0  0  0  0  0  0  0
   20.8943  -18.4082  -11.3609 C   0  0  0  0  0  0  0  0  0  0  0  0
   21.6002  -19.1258  -12.2947 C   0  0  0  0  0  0  0  0  0  0  0  0
   21.2367  -19.1748  -13.6147 C   0  0  0  0  0  0  0  0  0  0  0  0
   25.2967  -20.7595  -14.9914 C   0  0  0  0  0  0  0  0  0  0  0  0
   25.3649  -21.9949  -15.0905 O   0  0  0  0  0  0  0  0  0  0  0  0
   31.2753  -21.7128   -9.6376 N   0  0  0  0  0  0  0  0  0  0  0  0
   31.9280  -22.2238  -10.7931 C   0  0  0  0  0  0  0  0  0  0  0  0
   32.7268  -23.2339  -10.6371 N   0  0  0  0  0  0  0  0  0  0  0  0
   31.7195  -21.6567  -12.0724 N   0  0  0  0  0  0  0  0  0  0  0  0
   30.6309  -20.7619  -12.2685 C   0  0  0  0  0  0  0  0  0  0  0  0
   29.5758  -21.3090  -13.2074 C   0  0  0  0  0  0  0  0  0  0  0  0
   28.5927  -20.1906  -13.4550 C   0  0  0  0  0  0  0  0  0  0  0  0
   27.1603  -20.6327  -13.2872 C   0  0  2  0  0  0  0  0  0  0  0  0
   26.3589  -20.0591  -14.3658 N   0  0  0  0  0  0  0  0  0  0  0  0
   26.6562  -20.0484  -12.0166 C   0  0  0  0  0  0  0  0  0  0  0  0
   26.7564  -18.8008  -11.7559 O   0  0  0  0  0  0  0  0  0  0  0  0
   33.3071  -23.6035  -11.4369 N   0  0  0  0  0  0  0  0  0  0  0  0
   26.0292  -20.8261  -11.0026 C   0  0  0  0  0  0  0  0  0  0  0  0
   25.7251  -20.2514   -9.6843 C   0  0  0  0  0  0  0  0  0  0  0  0
   25.1189  -21.2768   -8.8287 O   0  0  0  0  0  0  0  0  0  0  0  0
   25.0032  -22.4545   -9.2397 O   0  0  0  0  0  0  0  0  0  0  0  0
  2  1  1  6
  2  3  1  0
  3  4  1  0
  4  5  2  0
  5  6  1  0
  7  8  2  0
  7  6  1  0
  9  8  1  0
 10  9  2  0
 11 10  1  0
 11 12  2  0
 12  4  1  0
 12  7  1  0
 13  2  1  0
 14 13  2  0
 16 15  1  0
 16 18  1  0
 17 16  2  0
 19 18  1  0
 20 21  1  0
 20 19  1  0
 22 23  1  0
 22 21  1  6
 23 13  1  0
 24 22  1  0
 25 24  2  0
 26 24  1  0
 27 26  1  0
 28 27  1  0
 28 30  1  0
 29 28  2  0
M  END
$$$$
