WRG.pdb
     RDKit          3D

 30 31  0  0  1  0  0  0  0  0999 V2000
   28.0812  -20.9252  -10.9334 N   0  0  0  0  0  0  0  0  0  0  0  0
   26.9776  -21.2505  -10.0919 C   0  0  1  0  0  0  0  0  0  0  0  0
   26.9439  -20.4839   -8.8127 C   0  0  0  0  0  0  0  0  0  0  0  0
   28.2303  -20.3879   -8.1045 C   0  0  0  0  0  0  0  0  0  0  0  0
   29.4519  -20.7791   -8.6052 C   0  0  0  0  0  0  0  0  0  0  0  0
   30.3759  -20.5202   -7.6824 N   0  0  0  0  0  0  0  0  0  0  0  0
   29.8288  -19.9779   -6.5960 C   0  0  0  0  0  0  0  0  0  0  0  0
   30.3598  -19.5498   -5.3992 C   0  0  0  0  0  0  0  0  0  0  0  0
   29.5614  -19.0175   -4.4089 C   0  0  0  0  0  0  0  0  0  0  0  0
   28.2102  -18.9273   -4.6559 C   0  0  0  0  0  0  0  0  0  0  0  0
   27.6851  -19.3550   -5.8503 C   0  0  0  0  0  0  0  0  0  0  0  0
   28.4600  -19.8862   -6.8474 C   0  0  0  0  0  0  0  0  0  0  0  0
   25.6682  -20.9821  -10.7822 C   0  0  0  0  0  0  0  0  0  0  0  0
   24.6540  -20.8185  -10.0856 O   0  0  0  0  0  0  0  0  0  0  0  0
   19.7689  -22.1329  -11.7882 N   0  0  0  0  0  0  0  0  0  0  0  0
   19.6597  -21.2949  -12.9319 C   0  0  0  0  0  0  0  0  0  0  0  0
   18.9514  -21.7258  -13.9297 N   0  0  0  0  0  0  0  0  0  0  0  0
   20.2977  -20.0334  -12.9886 N   0  0  0  0  0  0  0  0  0  0  0  0
   21.7097  -19.9595  -12.8315 C   0  0  0  0  0  0  0  0  0  0  0  0
   22.4608  -20.1249  -14.1364 C   0  0  0  0  0  0  0  0  0  0  0  0
   23.9314  -20.1112  -13.7959 C   0  0  0  0  0  0  0  0  0  0  0  0
   24.3298  -21.2642  -12.9088 C   0  0  2  0  0  0  0  0  0  0  0  0
   25.5535  -20.9098  -12.1935 N   0  0  0  0  0  0  0  0  0  0  0  0
   24.6621  -22.4145  -13.7900 C   0  0  0  0  0  0  0  0  0  0  0  0
   25.8382  -22.9132  -13.8413 O   0  0  0  0  0  0  0  0  0  0  0  0
   18.8343  -21.1528  -14.8077 N   0  0  0  0  0  0  0  0  0  0  0  0
   23.7051  -23.0428  -14.6359 C   0  0  0  0  0  0  0  0  0  0  0  0
   24.0755  -24.1851  -15.4836 C   0  0  0  0  0  0  0  0  0  0  0  0
   23.4100  -25.3970  -14.9942 O   0  0  0  0  0  0  0  0  0  0  0  0
   22.7144  -25.3588  -13.9531 O   0  0  0  0  0  0  0  0  0  0  0  0
  2  1  1  6
  2  3  1  0
  3  4  1  0
  4  5  2  0
  5  6  1  0
  7  8  2  0
  7  6  1  0
  9  8  1  0
 10  9  2  0
 11 10  1  0
 11 12  2  0
 12  4  1  0
 12  7  1  0
 13  2  1  0
 14 13  2  0
 16 15  1  0
 16 18  1  0
 17 16  2  0
 19 18  1  0
 20 21  1  0
 20 19  1  0
 22 23  1  0
 22 21  1  6
 23 13  1  0
 24 22  1  0
 25 24  2  0
 26 24  1  0
 27 26  1  0
 28 27  1  0
 28 30  1  0
 29 28  2  0
M  END
$$$$
