WRG.pdb
     RDKit          3D

 30 31  0  0  1  0  0  0  0  0999 V2000
   25.4011  -19.1451  -12.0905 N   0  0  0  0  0  0  0  0  0  0  0  0
   25.8397  -20.5004  -12.0396 C   0  0  1  0  0  0  0  0  0  0  0  0
   25.4154  -21.2291  -10.8091 C   0  0  0  0  0  0  0  0  0  0  0  0
   25.9833  -20.7198   -9.5508 C   0  0  0  0  0  0  0  0  0  0  0  0
   25.2917  -20.0286   -8.5812 C   0  0  0  0  0  0  0  0  0  0  0  0
   26.1375  -19.7539   -7.5904 N   0  0  0  0  0  0  0  0  0  0  0  0
   27.3540  -20.2275   -7.8543 C   0  0  0  0  0  0  0  0  0  0  0  0
   28.5403  -20.1922   -7.1550 C   0  0  0  0  0  0  0  0  0  0  0  0
   29.6886  -20.7647   -7.6598 C   0  0  0  0  0  0  0  0  0  0  0  0
   29.6112  -21.3755   -8.8910 C   0  0  0  0  0  0  0  0  0  0  0  0
   28.4267  -21.4085   -9.5846 C   0  0  0  0  0  0  0  0  0  0  0  0
   27.2744  -20.8467   -9.1015 C   0  0  0  0  0  0  0  0  0  0  0  0
   25.3079  -21.2894  -13.2048 C   0  0  0  0  0  0  0  0  0  0  0  0
   24.2266  -20.9462  -13.7084 O   0  0  0  0  0  0  0  0  0  0  0  0
   27.2487  -27.1527  -18.2029 N   0  0  0  0  0  0  0  0  0  0  0  0
   26.2985  -26.4123  -18.9587 C   0  0  0  0  0  0  0  0  0  0  0  0
   25.4165  -27.0789  -19.6373 N   0  0  0  0  0  0  0  0  0  0  0  0
   26.3070  -24.9976  -18.9759 N   0  0  0  0  0  0  0  0  0  0  0  0
   26.6642  -24.2890  -17.7951 C   0  0  0  0  0  0  0  0  0  0  0  0
   26.1548  -24.9492  -16.5306 C   0  0  0  0  0  0  0  0  0  0  0  0
   26.5978  -24.0805  -15.3783 C   0  0  0  0  0  0  0  0  0  0  0  0
   25.5065  -23.1561  -14.8987 C   0  0  2  0  0  0  0  0  0  0  0  0
   25.9957  -22.4055  -13.7446 N   0  0  0  0  0  0  0  0  0  0  0  0
   24.3812  -24.0010  -14.4193 C   0  0  0  0  0  0  0  0  0  0  0  0
   24.4651  -24.7034  -13.3543 O   0  0  0  0  0  0  0  0  0  0  0  0
   24.6995  -26.5888  -20.2362 N   0  0  0  0  0  0  0  0  0  0  0  0
   23.1360  -24.0916  -15.1028 C   0  0  0  0  0  0  0  0  0  0  0  0
   22.1004  -25.0413  -14.6710 C   0  0  0  0  0  0  0  0  0  0  0  0
   21.0292  -24.3189  -13.9769 O   0  0  0  0  0  0  0  0  0  0  0  0
   21.0811  -23.0728  -13.8594 O   0  0  0  0  0  0  0  0  0  0  0  0
  2  1  1  1
  2  3  1  0
  3  4  1  0
  4  5  2  0
  5  6  1  0
  7  8  2  0
  7  6  1  0
  9  8  1  0
 10  9  2  0
 11 10  1  0
 11 12  2  0
 12  4  1  0
 12  7  1  0
 13  2  1  0
 14 13  2  0
 16 15  1  0
 16 18  1  0
 17 16  2  0
 19 18  1  0
 20 21  1  0
 20 19  1  0
 22 23  1  0
 22 21  1  1
 23 13  1  0
 24 22  1  0
 25 24  2  0
 26 24  1  0
 27 26  1  0
 28 27  1  0
 28 30  1  0
 29 28  2  0
M  END
$$$$
