WRG.pdb
     RDKit          3D

 30 31  0  0  1  0  0  0  0  0999 V2000
   22.4442  -19.5746  -16.9922 N   0  0  0  0  0  0  0  0  0  0  0  0
   23.2742  -18.8154  -16.1167 C   0  0  1  0  0  0  0  0  0  0  0  0
   22.5261  -17.8601  -15.2490 C   0  0  0  0  0  0  0  0  0  0  0  0
   22.5611  -16.4555  -15.6863 C   0  0  0  0  0  0  0  0  0  0  0  0
   21.5268  -15.7793  -16.2938 C   0  0  0  0  0  0  0  0  0  0  0  0
   21.9299  -14.5312  -16.5218 N   0  0  0  0  0  0  0  0  0  0  0  0
   23.1785  -14.3461  -16.0968 C   0  0  0  0  0  0  0  0  0  0  0  0
   24.0169  -13.2534  -16.1138 C   0  0  0  0  0  0  0  0  0  0  0  0
   25.2965  -13.3221  -15.6046 C   0  0  0  0  0  0  0  0  0  0  0  0
   25.7111  -14.5237  -15.0761 C   0  0  0  0  0  0  0  0  0  0  0  0
   24.8721  -15.6104  -15.0610 C   0  0  0  0  0  0  0  0  0  0  0  0
   23.5974  -15.5637  -15.5610 C   0  0  0  0  0  0  0  0  0  0  0  0
   24.0519  -19.7103  -15.1908 C   0  0  0  0  0  0  0  0  0  0  0  0
   23.5309  -20.7735  -14.8184 O   0  0  0  0  0  0  0  0  0  0  0  0
   30.6950  -20.3688  -11.0986 N   0  0  0  0  0  0  0  0  0  0  0  0
   30.2617  -21.7231  -11.0841 C   0  0  0  0  0  0  0  0  0  0  0  0
   30.3824  -22.3829   -9.9736 N   0  0  0  0  0  0  0  0  0  0  0  0
   29.7166  -22.3382  -12.2357 N   0  0  0  0  0  0  0  0  0  0  0  0
   29.0444  -21.5374  -13.2006 C   0  0  0  0  0  0  0  0  0  0  0  0
   28.2902  -20.3766  -12.5859 C   0  0  0  0  0  0  0  0  0  0  0  0
   27.5118  -19.7242  -13.7027 C   0  0  0  0  0  0  0  0  0  0  0  0
   26.0823  -20.2015  -13.7661 C   0  0  2  0  0  0  0  0  0  0  0  0
   25.3526  -19.3827  -14.7313 N   0  0  0  0  0  0  0  0  0  0  0  0
   25.4667  -19.9530  -12.4358 C   0  0  0  0  0  0  0  0  0  0  0  0
   25.3742  -18.7786  -11.9391 O   0  0  0  0  0  0  0  0  0  0  0  0
   30.0873  -23.3931   -9.9004 N   0  0  0  0  0  0  0  0  0  0  0  0
   24.9382  -20.9938  -11.6214 C   0  0  0  0  0  0  0  0  0  0  0  0
   24.4679  -20.7238  -10.2551 C   0  0  0  0  0  0  0  0  0  0  0  0
   25.3496  -21.3899   -9.2908 O   0  0  0  0  0  0  0  0  0  0  0  0
   26.3105  -22.0871   -9.6905 O   0  0  0  0  0  0  0  0  0  0  0  0
  2  1  1  1
  2  3  1  0
  3  4  1  0
  4  5  2  0
  5  6  1  0
  7  8  2  0
  7  6  1  0
  9  8  1  0
 10  9  2  0
 11 10  1  0
 11 12  2  0
 12  4  1  0
 12  7  1  0
 13  2  1  0
 14 13  2  0
 16 15  1  0
 16 18  1  0
 17 16  2  0
 19 18  1  0
 20 21  1  0
 20 19  1  0
 22 23  1  0
 22 21  1  1
 23 13  1  0
 24 22  1  0
 25 24  2  0
 26 24  1  0
 27 26  1  0
 28 27  1  0
 28 30  1  0
 29 28  2  0
M  END
$$$$
