QKF.pdb
     RDKit          3D

 30 30  0  0  1  0  0  0  0  0999 V2000
    9.1446  -12.3257   18.9002 N   0  0  0  0  0  0  0  0  0  0  0  0
    8.2298  -13.0192   18.0444 C   0  0  0  0  0  0  0  0  0  0  0  0
    8.4603  -12.9410   16.8117 O   0  0  0  0  0  0  0  0  0  0  0  0
    7.1090  -13.7602   18.6335 C   0  0  0  0  0  0  0  0  0  0  0  0
    7.2103  -13.9876   20.1046 C   0  0  0  0  0  0  0  0  0  0  0  0
    7.9742  -15.2089   20.5028 C   0  0  2  0  0  0  0  0  0  0  0  0
    7.6304  -16.3597   19.7002 N   0  0  0  0  0  0  0  0  0  0  0  0
    7.7922  -15.5169   21.9632 C   0  0  0  0  0  0  0  0  0  0  0  0
    7.9030  -14.5662   22.7923 O   0  0  0  0  0  0  0  0  0  0  0  0
    7.5091  -16.8072   22.4075 N   0  0  0  0  0  0  0  0  0  0  0  0
    7.5142  -17.0873   23.8675 C   0  0  1  0  0  0  0  0  0  0  0  0
    6.7220  -18.3266   24.0936 C   0  0  0  0  0  0  0  0  0  0  0  0
    5.8969  -18.8464   22.9707 C   0  0  0  0  0  0  0  0  0  0  0  0
    5.1384  -20.1157   23.3530 C   0  0  0  0  0  0  0  0  0  0  0  0
    4.3930  -20.5831   22.1173 C   0  0  0  0  0  0  0  0  0  0  0  0
    3.6617  -21.7835   22.5011 N   0  0  0  0  0  0  0  0  0  0  0  0
    8.9320  -17.3323   24.2727 C   0  0  0  0  0  0  0  0  0  0  0  0
    9.8380  -17.2098   23.3791 O   0  0  0  0  0  0  0  0  0  0  0  0
    9.2936  -17.6833   25.5863 N   0  0  0  0  0  0  0  0  0  0  0  0
   10.3196  -16.9787   26.3453 C   0  0  1  0  0  0  0  0  0  0  0  0
   10.2514  -15.5102   26.1774 C   0  0  0  0  0  0  0  0  0  0  0  0
    9.4114  -14.9036   27.2200 C   0  0  0  0  0  0  0  0  0  0  0  0
    8.2124  -14.2752   26.9815 C   0  0  0  0  0  0  0  0  0  0  0  0
    7.4351  -13.7106   27.9787 C   0  0  0  0  0  0  0  0  0  0  0  0
    7.9152  -13.7986   29.2733 C   0  0  0  0  0  0  0  0  0  0  0  0
    9.1034  -14.4136   29.5658 C   0  0  0  0  0  0  0  0  0  0  0  0
    9.8416  -14.9594   28.5484 C   0  0  0  0  0  0  0  0  0  0  0  0
   10.3477  -17.4995   27.7098 C   0  0  0  0  0  0  0  0  0  0  0  0
    9.2293  -18.0924   28.2583 O   0  0  0  0  0  0  0  0  0  0  0  0
   11.3723  -17.4259   28.4117 O   0  0  0  0  0  0  0  0  0  0  0  0
  2  1  1  0
  3  2  2  0
  4  2  1  0
  5  6  1  0
  5  4  1  0
  6  8  1  0
  6  7  1  6
  8  9  2  0
 10 11  1  0
 10  8  1  0
 11 12  1  6
 13 12  1  0
 13 14  1  0
 15 14  1  0
 16 15  1  0
 17 18  2  0
 17 11  1  0
 19 17  1  0
 20 19  1  0
 20 21  1  1
 21 22  1  0
 22 23  2  0
 23 24  1  0
 25 24  2  0
 26 25  1  0
 27 26  2  0
 27 22  1  0
 28 20  1  0
 29 28  1  0
 30 28  2  0
M  END
$$$$
