QKF.pdb
     RDKit          3D

 30 30  0  0  1  0  0  0  0  0999 V2000
   11.6928  -14.6615   17.5038 N   0  0  0  0  0  0  0  0  0  0  0  0
   11.5700  -13.6058   18.4632 C   0  0  0  0  0  0  0  0  0  0  0  0
   12.5578  -13.4302   19.2196 O   0  0  0  0  0  0  0  0  0  0  0  0
   10.3376  -12.8111   18.5099 C   0  0  0  0  0  0  0  0  0  0  0  0
    9.3874  -13.1890   19.5964 C   0  0  0  0  0  0  0  0  0  0  0  0
    8.5456  -14.3900   19.3085 C   0  0  2  0  0  0  0  0  0  0  0  0
    7.2770  -14.0431   18.7109 N   0  0  0  0  0  0  0  0  0  0  0  0
    8.3318  -15.2182   20.5450 C   0  0  0  0  0  0  0  0  0  0  0  0
    7.4094  -14.8748   21.3417 O   0  0  0  0  0  0  0  0  0  0  0  0
    9.1184  -16.3353   20.8206 N   0  0  0  0  0  0  0  0  0  0  0  0
    8.9438  -17.0414   22.1171 C   0  0  1  0  0  0  0  0  0  0  0  0
    9.3622  -18.4561   21.9222 C   0  0  0  0  0  0  0  0  0  0  0  0
    9.3730  -19.3541   23.1078 C   0  0  0  0  0  0  0  0  0  0  0  0
    9.8240  -20.7697   22.7537 C   0  0  0  0  0  0  0  0  0  0  0  0
    9.8839  -21.5590   24.0477 C   0  0  0  0  0  0  0  0  0  0  0  0
   10.3549  -22.8934   23.7004 N   0  0  0  0  0  0  0  0  0  0  0  0
    9.8566  -16.3934   23.1077 C   0  0  0  0  0  0  0  0  0  0  0  0
   10.7790  -15.6302   22.6595 O   0  0  0  0  0  0  0  0  0  0  0  0
    9.7304  -16.5913   24.4950 N   0  0  0  0  0  0  0  0  0  0  0  0
    9.2549  -15.5581   25.4070 C   0  0  1  0  0  0  0  0  0  0  0  0
    8.0428  -14.8687   24.9122 C   0  0  0  0  0  0  0  0  0  0  0  0
    7.5856  -13.8586   25.8772 C   0  0  0  0  0  0  0  0  0  0  0  0
    7.9825  -13.8070   27.1922 C   0  0  0  0  0  0  0  0  0  0  0  0
    7.5405  -12.8457   28.0855 C   0  0  0  0  0  0  0  0  0  0  0  0
    6.6536  -11.9005   27.6015 C   0  0  0  0  0  0  0  0  0  0  0  0
    6.2261  -11.9065   26.3003 C   0  0  0  0  0  0  0  0  0  0  0  0
    6.6886  -12.8761   25.4494 C   0  0  0  0  0  0  0  0  0  0  0  0
    9.2153  -16.0986   26.7635 C   0  0  0  0  0  0  0  0  0  0  0  0
    8.1652  -16.8947   27.1719 O   0  0  0  0  0  0  0  0  0  0  0  0
   10.1200  -15.8606   27.5838 O   0  0  0  0  0  0  0  0  0  0  0  0
  2  1  1  0
  3  2  2  0
  4  2  1  0
  5  6  1  0
  5  4  1  0
  6  8  1  0
  6  7  1  1
  8  9  2  0
 10 11  1  0
 10  8  1  0
 11 12  1  6
 13 12  1  0
 13 14  1  0
 15 14  1  0
 16 15  1  0
 17 18  2  0
 17 11  1  0
 19 17  1  0
 20 19  1  0
 20 21  1  6
 21 22  1  0
 22 23  2  0
 23 24  1  0
 25 24  2  0
 26 25  1  0
 27 26  2  0
 27 22  1  0
 28 20  1  0
 29 28  1  0
 30 28  2  0
M  END
$$$$
