QKF.pdb
     RDKit          3D

 30 30  0  0  1  0  0  0  0  0999 V2000
    8.5710  -15.5714   17.1106 N   0  0  0  0  0  0  0  0  0  0  0  0
    8.0679  -14.2311   17.1317 C   0  0  0  0  0  0  0  0  0  0  0  0
    8.4752  -13.4746   16.2149 O   0  0  0  0  0  0  0  0  0  0  0  0
    7.1339  -13.8260   18.1881 C   0  0  0  0  0  0  0  0  0  0  0  0
    7.7462  -13.0455   19.3025 C   0  0  0  0  0  0  0  0  0  0  0  0
    8.6545  -13.8275   20.1954 C   0  0  2  0  0  0  0  0  0  0  0  0
    9.5657  -14.6683   19.4542 N   0  0  0  0  0  0  0  0  0  0  0  0
    7.8758  -14.6471   21.1866 C   0  0  0  0  0  0  0  0  0  0  0  0
    6.9623  -14.0729   21.8496 O   0  0  0  0  0  0  0  0  0  0  0  0
    8.1399  -16.0016   21.3816 N   0  0  0  0  0  0  0  0  0  0  0  0
    7.3671  -16.7492   22.4082 C   0  0  1  0  0  0  0  0  0  0  0  0
    7.3470  -18.1817   22.0057 C   0  0  0  0  0  0  0  0  0  0  0  0
    6.5841  -19.1376   22.8520 C   0  0  0  0  0  0  0  0  0  0  0  0
    6.6591  -20.5664   22.3177 C   0  0  0  0  0  0  0  0  0  0  0  0
    5.7402  -21.4156   23.1753 C   0  0  0  0  0  0  0  0  0  0  0  0
    5.8676  -22.7847   22.6931 N   0  0  0  0  0  0  0  0  0  0  0  0
    8.0976  -16.6158   23.7054 C   0  0  0  0  0  0  0  0  0  0  0  0
    9.3751  -16.5835   23.6706 O   0  0  0  0  0  0  0  0  0  0  0  0
    7.4328  -16.5220   24.9419 N   0  0  0  0  0  0  0  0  0  0  0  0
    8.1178  -16.2252   26.1941 C   0  0  1  0  0  0  0  0  0  0  0  0
    7.2833  -15.4449   27.1344 C   0  0  0  0  0  0  0  0  0  0  0  0
    7.0983  -14.0692   26.6507 C   0  0  0  0  0  0  0  0  0  0  0  0
    5.8895  -13.4158   26.6150 C   0  0  0  0  0  0  0  0  0  0  0  0
    5.7367  -12.1183   26.1563 C   0  0  0  0  0  0  0  0  0  0  0  0
    6.8774  -11.4701   25.7171 C   0  0  0  0  0  0  0  0  0  0  0  0
    8.1060  -12.0750   25.7312 C   0  0  0  0  0  0  0  0  0  0  0  0
    8.2127  -13.3607   26.1934 C   0  0  0  0  0  0  0  0  0  0  0  0
    8.7399  -17.4461   26.7003 C   0  0  0  0  0  0  0  0  0  0  0  0
    9.8466  -17.3819   27.5214 O   0  0  0  0  0  0  0  0  0  0  0  0
    8.2936  -18.5705   26.4100 O   0  0  0  0  0  0  0  0  0  0  0  0
  2  1  1  0
  3  2  2  0
  4  2  1  0
  5  6  1  0
  5  4  1  0
  6  8  1  0
  6  7  1  6
  8  9  2  0
 10 11  1  0
 10  8  1  0
 11 12  1  6
 13 12  1  0
 13 14  1  0
 15 14  1  0
 16 15  1  0
 17 18  2  0
 17 11  1  0
 19 17  1  0
 20 19  1  0
 20 21  1  1
 21 22  1  0
 22 23  2  0
 23 24  1  0
 25 24  2  0
 26 25  1  0
 27 26  2  0
 27 22  1  0
 28 20  1  0
 29 28  1  0
 30 28  2  0
M  END
$$$$
