QKF.pdb
     RDKit          3D

 30 30  0  0  1  0  0  0  0  0999 V2000
   12.0042  -13.7184   17.1414 N   0  0  0  0  0  0  0  0  0  0  0  0
   11.5853  -13.0044   18.3097 C   0  0  0  0  0  0  0  0  0  0  0  0
   12.4623  -12.8272   19.1919 O   0  0  0  0  0  0  0  0  0  0  0  0
   10.1997  -12.5330   18.4108 C   0  0  0  0  0  0  0  0  0  0  0  0
    9.3252  -13.3414   19.3097 C   0  0  0  0  0  0  0  0  0  0  0  0
    9.0905  -14.7482   18.8630 C   0  0  2  0  0  0  0  0  0  0  0  0
    8.1281  -14.8318   17.7890 N   0  0  0  0  0  0  0  0  0  0  0  0
    8.6708  -15.6244   20.0104 C   0  0  0  0  0  0  0  0  0  0  0  0
    7.4585  -15.5910   20.3750 O   0  0  0  0  0  0  0  0  0  0  0  0
    9.5784  -16.4555   20.6647 N   0  0  0  0  0  0  0  0  0  0  0  0
    9.1245  -17.2348   21.8464 C   0  0  1  0  0  0  0  0  0  0  0  0
   10.0735  -18.3654   22.0350 C   0  0  0  0  0  0  0  0  0  0  0  0
    9.7026  -19.6932   21.4772 C   0  0  0  0  0  0  0  0  0  0  0  0
   10.8476  -20.6992   21.5753 C   0  0  0  0  0  0  0  0  0  0  0  0
   10.3453  -22.0092   20.9987 C   0  0  0  0  0  0  0  0  0  0  0  0
   11.4322  -22.9697   21.1379 N   0  0  0  0  0  0  0  0  0  0  0  0
    9.1974  -16.3314   23.0350 C   0  0  0  0  0  0  0  0  0  0  0  0
   10.2299  -15.5875   23.1571 O   0  0  0  0  0  0  0  0  0  0  0  0
    8.1794  -16.2729   24.0045 N   0  0  0  0  0  0  0  0  0  0  0  0
    8.0880  -15.2123   25.0005 C   0  0  1  0  0  0  0  0  0  0  0  0
    6.8757  -14.3788   24.8422 C   0  0  0  0  0  0  0  0  0  0  0  0
    6.8112  -13.3468   25.8870 C   0  0  0  0  0  0  0  0  0  0  0  0
    6.1805  -13.5076   27.0977 C   0  0  0  0  0  0  0  0  0  0  0  0
    6.1321  -12.5226   28.0696 C   0  0  0  0  0  0  0  0  0  0  0  0
    6.7597  -11.3241   27.7796 C   0  0  0  0  0  0  0  0  0  0  0  0
    7.4022  -11.1117   26.5889 C   0  0  0  0  0  0  0  0  0  0  0  0
    7.4262  -12.1137   25.6544 C   0  0  0  0  0  0  0  0  0  0  0  0
    8.3505  -15.7740   26.3231 C   0  0  0  0  0  0  0  0  0  0  0  0
    9.2393  -15.1617   27.1824 O   0  0  0  0  0  0  0  0  0  0  0  0
    7.7844  -16.8115   26.7118 O   0  0  0  0  0  0  0  0  0  0  0  0
  2  1  1  0
  3  2  2  0
  4  2  1  0
  5  6  1  0
  5  4  1  0
  6  8  1  0
  6  7  1  6
  8  9  2  0
 10 11  1  0
 10  8  1  0
 11 12  1  1
 13 12  1  0
 13 14  1  0
 15 14  1  0
 16 15  1  0
 17 18  2  0
 17 11  1  0
 19 17  1  0
 20 19  1  0
 20 21  1  1
 21 22  1  0
 22 23  2  0
 23 24  1  0
 25 24  2  0
 26 25  1  0
 27 26  2  0
 27 22  1  0
 28 20  1  0
 29 28  1  0
 30 28  2  0
M  END
$$$$
