QKF.pdb
     RDKit          3D

 30 30  0  0  1  0  0  0  0  0999 V2000
    7.0293  -15.4203   16.1340 N   0  0  0  0  0  0  0  0  0  0  0  0
    7.7258  -14.1697   16.1640 C   0  0  0  0  0  0  0  0  0  0  0  0
    8.5021  -13.9474   15.2013 O   0  0  0  0  0  0  0  0  0  0  0  0
    7.5028  -13.2447   17.2807 C   0  0  0  0  0  0  0  0  0  0  0  0
    7.4113  -13.8904   18.6226 C   0  0  0  0  0  0  0  0  0  0  0  0
    8.7218  -14.1147   19.3053 C   0  0  2  0  0  0  0  0  0  0  0  0
    9.7529  -14.5461   18.3901 N   0  0  0  0  0  0  0  0  0  0  0  0
    8.5880  -15.0917   20.4402 C   0  0  0  0  0  0  0  0  0  0  0  0
    7.6992  -14.8726   21.3152 O   0  0  0  0  0  0  0  0  0  0  0  0
    9.4115  -16.2117   20.5405 N   0  0  0  0  0  0  0  0  0  0  0  0
    9.1735  -17.1894   21.6348 C   0  0  1  0  0  0  0  0  0  0  0  0
    9.8292  -18.4686   21.2497 C   0  0  0  0  0  0  0  0  0  0  0  0
    9.7963  -19.5940   22.2214 C   0  0  0  0  0  0  0  0  0  0  0  0
   10.3735  -20.8798   21.6330 C   0  0  0  0  0  0  0  0  0  0  0  0
   10.2674  -21.9505   22.7023 C   0  0  0  0  0  0  0  0  0  0  0  0
   10.9421  -23.1309   22.1784 N   0  0  0  0  0  0  0  0  0  0  0  0
    9.8308  -16.6541   22.8659 C   0  0  0  0  0  0  0  0  0  0  0  0
   10.9795  -16.1073   22.7398 O   0  0  0  0  0  0  0  0  0  0  0  0
    9.2317  -16.7287   24.1368 N   0  0  0  0  0  0  0  0  0  0  0  0
    9.7993  -16.0996   25.3232 C   0  0  1  0  0  0  0  0  0  0  0  0
    8.7850  -15.4022   26.1443 C   0  0  0  0  0  0  0  0  0  0  0  0
    9.3799  -14.8937   27.3886 C   0  0  0  0  0  0  0  0  0  0  0  0
    9.6781  -15.6735   28.4806 C   0  0  0  0  0  0  0  0  0  0  0  0
   10.2397  -15.1748   29.6439 C   0  0  0  0  0  0  0  0  0  0  0  0
   10.5037  -13.8172   29.6807 C   0  0  0  0  0  0  0  0  0  0  0  0
   10.2262  -12.9955   28.6208 C   0  0  0  0  0  0  0  0  0  0  0  0
    9.6703  -13.5304   27.4882 C   0  0  0  0  0  0  0  0  0  0  0  0
   10.6722  -17.0553   26.0003 C   0  0  0  0  0  0  0  0  0  0  0  0
   11.9657  -16.7107   26.3340 O   0  0  0  0  0  0  0  0  0  0  0  0
   10.2786  -18.1980   26.2951 O   0  0  0  0  0  0  0  0  0  0  0  0
  2  1  1  0
  3  2  2  0
  4  2  1  0
  5  6  1  0
  5  4  1  0
  6  8  1  0
  6  7  1  6
  8  9  2  0
 10 11  1  0
 10  8  1  0
 11 12  1  6
 13 12  1  0
 13 14  1  0
 15 14  1  0
 16 15  1  0
 17 18  2  0
 17 11  1  0
 19 17  1  0
 20 19  1  0
 20 21  1  1
 21 22  1  0
 22 23  2  0
 23 24  1  0
 25 24  2  0
 26 25  1  0
 27 26  2  0
 27 22  1  0
 28 20  1  0
 29 28  1  0
 30 28  2  0
M  END
$$$$
