QKF.pdb
     RDKit          3D

 30 30  0  0  1  0  0  0  0  0999 V2000
    8.8519  -20.6395   16.1064 N   0  0  0  0  0  0  0  0  0  0  0  0
    7.8220  -19.7006   16.4345 C   0  0  0  0  0  0  0  0  0  0  0  0
    6.8155  -19.7007   15.6823 O   0  0  0  0  0  0  0  0  0  0  0  0
    7.9911  -18.8177   17.5939 C   0  0  0  0  0  0  0  0  0  0  0  0
    9.2782  -18.9865   18.3294 C   0  0  0  0  0  0  0  0  0  0  0  0
    9.1480  -19.0783   19.8155 C   0  0  2  0  0  0  0  0  0  0  0  0
    7.8436  -19.5433   20.2265 N   0  0  0  0  0  0  0  0  0  0  0  0
    9.4667  -17.7654   20.4754 C   0  0  0  0  0  0  0  0  0  0  0  0
   10.6486  -17.3208   20.3805 O   0  0  0  0  0  0  0  0  0  0  0  0
    8.4996  -17.0462   21.1753 N   0  0  0  0  0  0  0  0  0  0  0  0
    8.8819  -15.7681   21.8314 C   0  0  1  0  0  0  0  0  0  0  0  0
    7.7372  -14.8275   21.6922 C   0  0  0  0  0  0  0  0  0  0  0  0
    7.2995  -14.4533   20.3209 C   0  0  0  0  0  0  0  0  0  0  0  0
    8.2046  -13.3931   19.6969 C   0  0  0  0  0  0  0  0  0  0  0  0
    7.6224  -13.0477   18.3394 C   0  0  0  0  0  0  0  0  0  0  0  0
    8.4538  -11.9861   17.7873 N   0  0  0  0  0  0  0  0  0  0  0  0
    9.1044  -16.0566   23.2810 C   0  0  0  0  0  0  0  0  0  0  0  0
    8.0851  -16.3493   23.9949 O   0  0  0  0  0  0  0  0  0  0  0  0
   10.3806  -16.0206   23.8724 N   0  0  0  0  0  0  0  0  0  0  0  0
   10.6078  -15.6079   25.2521 C   0  0  1  0  0  0  0  0  0  0  0  0
    9.3540  -15.4800   26.0272 C   0  0  0  0  0  0  0  0  0  0  0  0
    9.6261  -14.9787   27.3819 C   0  0  0  0  0  0  0  0  0  0  0  0
    9.5409  -13.6574   27.7514 C   0  0  0  0  0  0  0  0  0  0  0  0
    9.8005  -13.2055   29.0342 C   0  0  0  0  0  0  0  0  0  0  0  0
   10.1625  -14.1557   29.9725 C   0  0  0  0  0  0  0  0  0  0  0  0
   10.2623  -15.4848   29.6572 C   0  0  0  0  0  0  0  0  0  0  0  0
    9.9965  -15.8893   28.3751 C   0  0  0  0  0  0  0  0  0  0  0  0
   11.6738  -16.4249   25.8265 C   0  0  0  0  0  0  0  0  0  0  0  0
   12.3481  -17.3457   25.0514 O   0  0  0  0  0  0  0  0  0  0  0  0
   12.0039  -16.3150   27.0210 O   0  0  0  0  0  0  0  0  0  0  0  0
  2  1  1  0
  3  2  2  0
  4  2  1  0
  5  6  1  0
  5  4  1  0
  6  8  1  0
  6  7  1  6
  8  9  2  0
 10 11  1  0
 10  8  1  0
 11 12  1  1
 13 12  1  0
 13 14  1  0
 15 14  1  0
 16 15  1  0
 17 18  2  0
 17 11  1  0
 19 17  1  0
 20 19  1  0
 20 21  1  1
 21 22  1  0
 22 23  2  0
 23 24  1  0
 25 24  2  0
 26 25  1  0
 27 26  2  0
 27 22  1  0
 28 20  1  0
 29 28  1  0
 30 28  2  0
M  END
$$$$
