QKF.pdb
     RDKit          3D

 30 30  0  0  1  0  0  0  0  0999 V2000
   13.0910  -14.7276   20.1636 N   0  0  0  0  0  0  0  0  0  0  0  0
   12.3479  -13.5677   19.7733 C   0  0  0  0  0  0  0  0  0  0  0  0
   12.9902  -12.6844   19.1519 O   0  0  0  0  0  0  0  0  0  0  0  0
   10.9226  -13.4756   20.1086 C   0  0  0  0  0  0  0  0  0  0  0  0
   10.0718  -14.5604   19.5380 C   0  0  0  0  0  0  0  0  0  0  0  0
    8.6042  -14.2776   19.5397 C   0  0  2  0  0  0  0  0  0  0  0  0
    8.3142  -12.8706   19.3884 N   0  0  0  0  0  0  0  0  0  0  0  0
    7.9439  -14.8173   20.7780 C   0  0  0  0  0  0  0  0  0  0  0  0
    7.3729  -13.9973   21.5559 O   0  0  0  0  0  0  0  0  0  0  0  0
    7.9513  -16.1790   21.0751 N   0  0  0  0  0  0  0  0  0  0  0  0
    7.1726  -16.6692   22.2426 C   0  0  1  0  0  0  0  0  0  0  0  0
    6.9177  -18.1212   22.0395 C   0  0  0  0  0  0  0  0  0  0  0  0
    6.1328  -18.8470   23.0735 C   0  0  0  0  0  0  0  0  0  0  0  0
    5.9492  -20.3230   22.7263 C   0  0  0  0  0  0  0  0  0  0  0  0
    5.0707  -20.9318   23.8026 C   0  0  0  0  0  0  0  0  0  0  0  0
    4.7695  -22.2917   23.3747 N   0  0  0  0  0  0  0  0  0  0  0  0
    8.0233  -16.4873   23.4581 C   0  0  0  0  0  0  0  0  0  0  0  0
    9.2925  -16.5302   23.3105 O   0  0  0  0  0  0  0  0  0  0  0  0
    7.4788  -16.2697   24.7371 N   0  0  0  0  0  0  0  0  0  0  0  0
    8.2962  -16.0447   25.9231 C   0  0  1  0  0  0  0  0  0  0  0  0
    7.5755  -15.3102   26.9864 C   0  0  0  0  0  0  0  0  0  0  0  0
    7.2880  -13.9313   26.5660 C   0  0  0  0  0  0  0  0  0  0  0  0
    8.2175  -13.0765   26.0230 C   0  0  0  0  0  0  0  0  0  0  0  0
    7.9258  -11.7806   25.6321 C   0  0  0  0  0  0  0  0  0  0  0  0
    6.6227  -11.3506   25.8090 C   0  0  0  0  0  0  0  0  0  0  0  0
    5.6580  -12.1615   26.3452 C   0  0  0  0  0  0  0  0  0  0  0  0
    5.9896  -13.4376   26.7188 C   0  0  0  0  0  0  0  0  0  0  0  0
    8.9532  -17.2950   26.2956 C   0  0  0  0  0  0  0  0  0  0  0  0
   10.0479  -17.2900   27.1353 O   0  0  0  0  0  0  0  0  0  0  0  0
    8.5483  -18.3924   25.8719 O   0  0  0  0  0  0  0  0  0  0  0  0
  2  1  1  0
  3  2  2  0
  4  2  1  0
  5  6  1  0
  5  4  1  0
  6  8  1  0
  6  7  1  1
  8  9  2  0
 10 11  1  0
 10  8  1  0
 11 12  1  6
 13 12  1  0
 13 14  1  0
 15 14  1  0
 16 15  1  0
 17 18  2  0
 17 11  1  0
 19 17  1  0
 20 19  1  0
 20 21  1  1
 21 22  1  0
 22 23  2  0
 23 24  1  0
 25 24  2  0
 26 25  1  0
 27 26  2  0
 27 22  1  0
 28 20  1  0
 29 28  1  0
 30 28  2  0
M  END
$$$$
