QKF.pdb
     RDKit          3D

 30 30  0  0  1  0  0  0  0  0999 V2000
    7.7600  -12.0917   18.4951 N   0  0  0  0  0  0  0  0  0  0  0  0
    7.5989  -13.2992   17.7427 C   0  0  0  0  0  0  0  0  0  0  0  0
    7.6761  -13.1853   16.4937 O   0  0  0  0  0  0  0  0  0  0  0  0
    7.3605  -14.5637   18.4473 C   0  0  0  0  0  0  0  0  0  0  0  0
    7.3785  -14.4663   19.9360 C   0  0  0  0  0  0  0  0  0  0  0  0
    8.1959  -15.5098   20.6265 C   0  0  2  0  0  0  0  0  0  0  0  0
    8.3060  -16.7246   19.8526 N   0  0  0  0  0  0  0  0  0  0  0  0
    7.6559  -15.8104   21.9971 C   0  0  0  0  0  0  0  0  0  0  0  0
    7.0678  -14.8807   22.6243 O   0  0  0  0  0  0  0  0  0  0  0  0
    7.7909  -17.0716   22.5747 N   0  0  0  0  0  0  0  0  0  0  0  0
    7.2472  -17.3050   23.9385 C   0  0  1  0  0  0  0  0  0  0  0  0
    7.0276  -18.7686   24.0940 C   0  0  0  0  0  0  0  0  0  0  0  0
    5.8181  -19.3669   23.4685 C   0  0  0  0  0  0  0  0  0  0  0  0
    6.0002  -20.8535   23.1693 C   0  0  0  0  0  0  0  0  0  0  0  0
    4.7303  -21.3345   22.4932 C   0  0  0  0  0  0  0  0  0  0  0  0
    4.9214  -22.7503   22.2069 N   0  0  0  0  0  0  0  0  0  0  0  0
    8.2847  -16.8593   24.9178 C   0  0  0  0  0  0  0  0  0  0  0  0
    9.5123  -16.9695   24.5787 O   0  0  0  0  0  0  0  0  0  0  0  0
    7.9563  -16.3271   26.1783 N   0  0  0  0  0  0  0  0  0  0  0  0
    8.9570  -15.8791   27.1390 C   0  0  1  0  0  0  0  0  0  0  0  0
    8.5276  -14.6857   27.9012 C   0  0  0  0  0  0  0  0  0  0  0  0
    7.9271  -13.6840   27.0087 C   0  0  0  0  0  0  0  0  0  0  0  0
    6.6113  -13.2896   27.0598 C   0  0  0  0  0  0  0  0  0  0  0  0
    6.0650  -12.3427   26.2099 C   0  0  0  0  0  0  0  0  0  0  0  0
    6.9110  -11.7812   25.2702 C   0  0  0  0  0  0  0  0  0  0  0  0
    8.2299  -12.1384   25.1765 C   0  0  0  0  0  0  0  0  0  0  0  0
    8.7300  -13.0798   26.0376 C   0  0  0  0  0  0  0  0  0  0  0  0
    9.4360  -17.0287   27.9023 C   0  0  0  0  0  0  0  0  0  0  0  0
   10.5180  -16.9076   28.7497 O   0  0  0  0  0  0  0  0  0  0  0  0
    8.8867  -18.1415   27.8133 O   0  0  0  0  0  0  0  0  0  0  0  0
  2  1  1  0
  3  2  2  0
  4  2  1  0
  5  6  1  0
  5  4  1  0
  6  8  1  0
  6  7  1  6
  8  9  2  0
 10 11  1  0
 10  8  1  0
 11 12  1  1
 13 12  1  0
 13 14  1  0
 15 14  1  0
 16 15  1  0
 17 18  2  0
 17 11  1  0
 19 17  1  0
 20 19  1  0
 20 21  1  1
 21 22  1  0
 22 23  2  0
 23 24  1  0
 25 24  2  0
 26 25  1  0
 27 26  2  0
 27 22  1  0
 28 20  1  0
 29 28  1  0
 30 28  2  0
M  END
$$$$
