QKF.pdb
     RDKit          3D

 30 30  0  0  1  0  0  0  0  0999 V2000
    8.4095  -12.1738   17.6887 N   0  0  0  0  0  0  0  0  0  0  0  0
    8.0063  -13.1918   16.7662 C   0  0  0  0  0  0  0  0  0  0  0  0
    7.3258  -12.8068   15.7826 O   0  0  0  0  0  0  0  0  0  0  0  0
    8.3970  -14.5847   17.0105 C   0  0  0  0  0  0  0  0  0  0  0  0
    9.1997  -14.8039   18.2490 C   0  0  0  0  0  0  0  0  0  0  0  0
    9.5786  -16.2257   18.5114 C   0  0  2  0  0  0  0  0  0  0  0  0
    9.2094  -17.1036   17.4253 N   0  0  0  0  0  0  0  0  0  0  0  0
    8.9920  -16.7190   19.8049 C   0  0  0  0  0  0  0  0  0  0  0  0
    7.8175  -16.3535   20.1058 O   0  0  0  0  0  0  0  0  0  0  0  0
    9.7080  -17.5555   20.6594 N   0  0  0  0  0  0  0  0  0  0  0  0
    9.0568  -18.0513   21.9003 C   0  0  1  0  0  0  0  0  0  0  0  0
    9.3437  -19.5072   22.0117 C   0  0  0  0  0  0  0  0  0  0  0  0
    8.4461  -20.4556   21.2997 C   0  0  0  0  0  0  0  0  0  0  0  0
    8.8501  -21.9109   21.5262 C   0  0  0  0  0  0  0  0  0  0  0  0
    7.8173  -22.7773   20.8309 C   0  0  0  0  0  0  0  0  0  0  0  0
    8.2892  -24.1520   20.9338 N   0  0  0  0  0  0  0  0  0  0  0  0
    9.6870  -17.3389   23.0535 C   0  0  0  0  0  0  0  0  0  0  0  0
   10.9110  -16.9875   22.9413 O   0  0  0  0  0  0  0  0  0  0  0  0
    8.9844  -17.0446   24.2364 N   0  0  0  0  0  0  0  0  0  0  0  0
    9.5727  -16.3118   25.3509 C   0  0  1  0  0  0  0  0  0  0  0  0
    8.5568  -15.7026   26.2378 C   0  0  0  0  0  0  0  0  0  0  0  0
    9.1962  -15.0045   27.3623 C   0  0  0  0  0  0  0  0  0  0  0  0
    9.4356  -13.6514   27.3996 C   0  0  0  0  0  0  0  0  0  0  0  0
   10.0387  -13.0125   28.4698 C   0  0  0  0  0  0  0  0  0  0  0  0
   10.4093  -13.8021   29.5437 C   0  0  0  0  0  0  0  0  0  0  0  0
   10.1939  -15.1546   29.5576 C   0  0  0  0  0  0  0  0  0  0  0  0
    9.5938  -15.7469   28.4774 C   0  0  0  0  0  0  0  0  0  0  0  0
   10.6033  -17.1372   25.9756 C   0  0  0  0  0  0  0  0  0  0  0  0
   11.8680  -16.6327   26.1976 O   0  0  0  0  0  0  0  0  0  0  0  0
   10.3734  -18.3091   26.3244 O   0  0  0  0  0  0  0  0  0  0  0  0
  2  1  1  0
  3  2  2  0
  4  2  1  0
  5  6  1  0
  5  4  1  0
  6  8  1  0
  6  7  1  6
  8  9  2  0
 10 11  1  0
 10  8  1  0
 11 12  1  1
 13 12  1  0
 13 14  1  0
 15 14  1  0
 16 15  1  0
 17 18  2  0
 17 11  1  0
 19 17  1  0
 20 19  1  0
 20 21  1  1
 21 22  1  0
 22 23  2  0
 23 24  1  0
 25 24  2  0
 26 25  1  0
 27 26  2  0
 27 22  1  0
 28 20  1  0
 29 28  1  0
 30 28  2  0
M  END
$$$$
