VND.pdb
     RDKit          3D

 24 23  0  0  1  0  0  0  0  0999 V2000
    7.8884  -12.8768   18.3861 C   0  0  0  0  0  0  0  0  0  0  0  0
    7.4977  -13.6823   19.6201 C   0  0  2  0  0  0  0  0  0  0  0  0
    6.9563  -12.8163   20.7047 C   0  0  0  0  0  0  0  0  0  0  0  0
    8.6066  -14.6013   20.0179 C   0  0  2  0  0  0  0  0  0  0  0  0
    9.7284  -13.9046   20.5741 N   0  0  0  0  0  0  0  0  0  0  0  0
    9.0453  -15.5268   18.9548 C   0  0  0  0  0  0  0  0  0  0  0  0
    8.3172  -16.4404   18.4904 O   0  0  0  0  0  0  0  0  0  0  0  0
    8.9491  -14.7277   14.8415 N   0  0  0  0  0  0  0  0  0  0  0  0
    9.4618  -15.8363   15.5211 C   0  0  0  0  0  0  0  0  0  0  0  0
    8.7282  -16.8712   15.6999 O   0  0  0  0  0  0  0  0  0  0  0  0
   10.8439  -15.8287   16.0355 C   0  0  0  0  0  0  0  0  0  0  0  0
   10.9077  -16.3283   17.4701 C   0  0  2  0  0  0  0  0  0  0  0  0
   10.3492  -15.3946   18.4188 N   0  0  0  0  0  0  0  0  0  0  0  0
   12.3298  -16.6598   17.8311 C   0  0  0  0  0  0  0  0  0  0  0  0
   13.2844  -16.1834   17.1579 O   0  0  0  0  0  0  0  0  0  0  0  0
   12.6349  -17.5069   18.9259 N   0  0  0  0  0  0  0  0  0  0  0  0
   14.0156  -17.7017   19.3993 C   0  0  1  0  0  0  0  0  0  0  0  0
   14.5395  -16.3220   19.7322 C   0  0  0  0  0  0  0  0  0  0  0  0
   15.8914  -16.3122   20.2985 C   0  0  0  0  0  0  0  0  0  0  0  0
   16.4803  -17.3933   20.5487 O   0  0  0  0  0  0  0  0  0  0  0  0
   14.0059  -18.5604   20.6174 C   0  0  0  0  0  0  0  0  0  0  0  0
   15.1771  -19.2372   21.0084 O   0  0  0  0  0  0  0  0  0  0  0  0
   16.6125  -15.1446   20.5974 O   0  0  0  0  0  0  0  0  0  0  0  0
   12.9841  -18.7089   21.3205 O   0  0  0  0  0  0  0  0  0  0  0  0
  2  1  1  6
  2  3  1  0
  4  2  1  0
  4  6  1  0
  4  5  1  6
  6 13  1  0
  6  7  2  0
  9  8  1  0
  9 11  1  0
 10  9  2  0
 12 11  1  6
 12 14  1  0
 13 12  1  0
 14 16  1  0
 14 15  2  0
 16 17  1  0
 17 21  1  0
 17 18  1  1
 18 19  1  0
 19 23  1  0
 20 19  2  0
 21 22  1  0
 24 21  2  0
M  END
$$$$
