VND.pdb
     RDKit          3D

 24 23  0  0  1  0  0  0  0  0999 V2000
    7.4908  -12.9461   20.2060 C   0  0  0  0  0  0  0  0  0  0  0  0
    8.6726  -13.0016   19.2445 C   0  0  2  0  0  0  0  0  0  0  0  0
    8.2592  -12.7502   17.8354 C   0  0  0  0  0  0  0  0  0  0  0  0
    9.4751  -14.2412   19.4725 C   0  0  2  0  0  0  0  0  0  0  0  0
    8.9537  -15.3741   18.7671 N   0  0  0  0  0  0  0  0  0  0  0  0
    9.6988  -14.5723   20.8935 C   0  0  0  0  0  0  0  0  0  0  0  0
   10.1437  -13.7490   21.7330 O   0  0  0  0  0  0  0  0  0  0  0  0
    7.5665  -18.7948   21.6546 N   0  0  0  0  0  0  0  0  0  0  0  0
    7.5824  -17.5411   22.2726 C   0  0  0  0  0  0  0  0  0  0  0  0
    6.6972  -16.6671   21.9669 O   0  0  0  0  0  0  0  0  0  0  0  0
    8.6101  -17.2124   23.2779 C   0  0  0  0  0  0  0  0  0  0  0  0
    9.6986  -16.3262   22.6934 C   0  0  2  0  0  0  0  0  0  0  0  0
    9.4037  -15.8787   21.3530 N   0  0  0  0  0  0  0  0  0  0  0  0
   11.0176  -17.0482   22.7301 C   0  0  0  0  0  0  0  0  0  0  0  0
   11.1075  -18.2308   22.3002 O   0  0  0  0  0  0  0  0  0  0  0  0
   12.1845  -16.4277   23.2425 N   0  0  0  0  0  0  0  0  0  0  0  0
   13.4648  -17.1467   23.3530 C   0  0  1  0  0  0  0  0  0  0  0  0
   14.5444  -16.1089   23.1377 C   0  0  0  0  0  0  0  0  0  0  0  0
   14.5317  -15.4945   21.8070 C   0  0  0  0  0  0  0  0  0  0  0  0
   14.5003  -16.2146   20.7781 O   0  0  0  0  0  0  0  0  0  0  0  0
   13.5831  -17.7430   24.7138 C   0  0  0  0  0  0  0  0  0  0  0  0
   14.6645  -18.5927   25.0163 O   0  0  0  0  0  0  0  0  0  0  0  0
   14.5530  -14.1088   21.5781 O   0  0  0  0  0  0  0  0  0  0  0  0
   12.7483  -17.5177   25.6154 O   0  0  0  0  0  0  0  0  0  0  0  0
  2  1  1  1
  2  3  1  0
  4  2  1  0
  4  6  1  0
  4  5  1  1
  6 13  1  0
  6  7  2  0
  9  8  1  0
  9 11  1  0
 10  9  2  0
 12 11  1  6
 12 14  1  0
 13 12  1  0
 14 16  1  0
 14 15  2  0
 16 17  1  0
 17 21  1  0
 17 18  1  1
 18 19  1  0
 19 23  1  0
 20 19  2  0
 21 22  1  0
 24 21  2  0
M  END
$$$$
