VND.pdb
     RDKit          3D

 24 23  0  0  1  0  0  0  0  0999 V2000
    8.0134  -13.1449   21.1287 C   0  0  0  0  0  0  0  0  0  0  0  0
    8.4293  -13.0278   19.6667 C   0  0  2  0  0  0  0  0  0  0  0  0
    7.3819  -12.3670   18.8387 C   0  0  0  0  0  0  0  0  0  0  0  0
    8.9246  -14.3420   19.1566 C   0  0  2  0  0  0  0  0  0  0  0  0
    8.4254  -14.6505   17.8494 N   0  0  0  0  0  0  0  0  0  0  0  0
    8.7078  -15.4761   20.0762 C   0  0  0  0  0  0  0  0  0  0  0  0
    7.7281  -15.5523   20.8603 O   0  0  0  0  0  0  0  0  0  0  0  0
    8.0440  -20.9504   21.0753 N   0  0  0  0  0  0  0  0  0  0  0  0
    9.1854  -20.1438   21.0937 C   0  0  0  0  0  0  0  0  0  0  0  0
   10.1404  -20.4069   21.9060 O   0  0  0  0  0  0  0  0  0  0  0  0
    9.3039  -18.9894   20.1836 C   0  0  0  0  0  0  0  0  0  0  0  0
    9.5059  -17.6926   20.9513 C   0  0  2  0  0  0  0  0  0  0  0  0
    9.6403  -16.5416   20.0906 N   0  0  0  0  0  0  0  0  0  0  0  0
   10.7011  -17.8172   21.8559 C   0  0  0  0  0  0  0  0  0  0  0  0
   10.7700  -18.7584   22.6930 O   0  0  0  0  0  0  0  0  0  0  0  0
   11.7728  -16.8914   21.7943 N   0  0  0  0  0  0  0  0  0  0  0  0
   12.9247  -16.9709   22.7081 C   0  0  1  0  0  0  0  0  0  0  0  0
   13.8182  -15.8026   22.3537 C   0  0  0  0  0  0  0  0  0  0  0  0
   15.1938  -15.9265   22.8445 C   0  0  0  0  0  0  0  0  0  0  0  0
   15.5470  -16.9473   23.4858 O   0  0  0  0  0  0  0  0  0  0  0  0
   12.4502  -16.8522   24.1160 C   0  0  0  0  0  0  0  0  0  0  0  0
   12.9962  -17.6831   25.1132 O   0  0  0  0  0  0  0  0  0  0  0  0
   16.1909  -14.9569   22.6488 O   0  0  0  0  0  0  0  0  0  0  0  0
   11.5721  -16.0317   24.4567 O   0  0  0  0  0  0  0  0  0  0  0  0
  2  1  1  1
  2  3  1  0
  4  2  1  0
  4  6  1  0
  4  5  1  6
  6 13  1  0
  6  7  2  0
  9  8  1  0
  9 11  1  0
 10  9  2  0
 12 11  1  6
 12 14  1  0
 13 12  1  0
 14 16  1  0
 14 15  2  0
 16 17  1  0
 17 21  1  0
 17 18  1  6
 18 19  1  0
 19 23  1  0
 20 19  2  0
 21 22  1  0
 24 21  2  0
M  END
$$$$
