VND.pdb
     RDKit          3D

 24 23  0  0  1  0  0  0  0  0999 V2000
    9.5109  -12.2610   18.7984 C   0  0  0  0  0  0  0  0  0  0  0  0
    8.3711  -13.2731   18.7752 C   0  0  2  0  0  0  0  0  0  0  0  0
    7.0496  -12.6328   19.0266 C   0  0  0  0  0  0  0  0  0  0  0  0
    8.6964  -14.4478   19.6394 C   0  0  2  0  0  0  0  0  0  0  0  0
    8.4369  -14.2012   21.0269 N   0  0  0  0  0  0  0  0  0  0  0  0
   10.0586  -14.9853   19.4536 C   0  0  0  0  0  0  0  0  0  0  0  0
   10.3958  -15.6867   18.4662 O   0  0  0  0  0  0  0  0  0  0  0  0
   14.6039  -15.8956   18.4562 N   0  0  0  0  0  0  0  0  0  0  0  0
   13.9930  -14.6397   18.5122 C   0  0  0  0  0  0  0  0  0  0  0  0
   13.9729  -13.8922   17.4720 O   0  0  0  0  0  0  0  0  0  0  0  0
   13.3672  -14.1639   19.7600 C   0  0  0  0  0  0  0  0  0  0  0  0
   12.4049  -15.1944   20.3292 C   0  0  2  0  0  0  0  0  0  0  0  0
   11.0492  -14.7081   20.4266 N   0  0  0  0  0  0  0  0  0  0  0  0
   12.8952  -15.6618   21.6722 C   0  0  0  0  0  0  0  0  0  0  0  0
   12.8722  -14.8827   22.6641 O   0  0  0  0  0  0  0  0  0  0  0  0
   13.3912  -16.9764   21.8600 N   0  0  0  0  0  0  0  0  0  0  0  0
   13.8842  -17.4439   23.1664 C   0  0  1  0  0  0  0  0  0  0  0  0
   13.2248  -18.7847   23.4040 C   0  0  0  0  0  0  0  0  0  0  0  0
   13.6546  -19.4572   24.6335 C   0  0  0  0  0  0  0  0  0  0  0  0
   13.5684  -18.8683   25.7398 O   0  0  0  0  0  0  0  0  0  0  0  0
   15.3657  -17.5973   23.1117 C   0  0  0  0  0  0  0  0  0  0  0  0
   16.0482  -17.3919   21.8972 O   0  0  0  0  0  0  0  0  0  0  0  0
   14.1772  -20.7601   24.6780 O   0  0  0  0  0  0  0  0  0  0  0  0
   16.0417  -17.9059   24.1158 O   0  0  0  0  0  0  0  0  0  0  0  0
  2  1  1  1
  2  3  1  0
  4  2  1  0
  4  6  1  0
  4  5  1  1
  6 13  1  0
  6  7  2  0
  9  8  1  0
  9 11  1  0
 10  9  2  0
 12 11  1  1
 12 14  1  0
 13 12  1  0
 14 16  1  0
 14 15  2  0
 16 17  1  0
 17 21  1  0
 17 18  1  6
 18 19  1  0
 19 23  1  0
 20 19  2  0
 21 22  1  0
 24 21  2  0
M  END
$$$$
