VND.pdb
     RDKit          3D

 24 23  0  0  1  0  0  0  0  0999 V2000
    8.8793  -12.4527   18.6835 C   0  0  0  0  0  0  0  0  0  0  0  0
    8.0226  -13.5367   19.3279 C   0  0  2  0  0  0  0  0  0  0  0  0
    6.8995  -12.9636   20.1213 C   0  0  0  0  0  0  0  0  0  0  0  0
    8.8825  -14.5266   20.0442 C   0  0  2  0  0  0  0  0  0  0  0  0
    9.3846  -14.0236   21.2884 N   0  0  0  0  0  0  0  0  0  0  0  0
    9.9793  -15.0864   19.2300 C   0  0  0  0  0  0  0  0  0  0  0  0
    9.7922  -15.8643   18.2603 O   0  0  0  0  0  0  0  0  0  0  0  0
   14.1040  -16.3964   16.9272 N   0  0  0  0  0  0  0  0  0  0  0  0
   13.4819  -15.2135   16.5181 C   0  0  0  0  0  0  0  0  0  0  0  0
   13.7037  -14.7477   15.3455 O   0  0  0  0  0  0  0  0  0  0  0  0
   12.5679  -14.4934   17.4242 C   0  0  0  0  0  0  0  0  0  0  0  0
   12.4470  -15.1953   18.7676 C   0  0  2  0  0  0  0  0  0  0  0  0
   11.3167  -14.7416   19.5423 N   0  0  0  0  0  0  0  0  0  0  0  0
   13.7224  -15.0266   19.5469 C   0  0  0  0  0  0  0  0  0  0  0  0
   14.8342  -15.2893   19.0119 O   0  0  0  0  0  0  0  0  0  0  0  0
   13.7121  -14.5722   20.8896 N   0  0  0  0  0  0  0  0  0  0  0  0
   14.6396  -15.1072   21.9004 C   0  0  1  0  0  0  0  0  0  0  0  0
   13.9797  -16.3513   22.4531 C   0  0  0  0  0  0  0  0  0  0  0  0
   13.9268  -16.4046   23.9170 C   0  0  0  0  0  0  0  0  0  0  0  0
   14.4658  -15.5006   24.6028 O   0  0  0  0  0  0  0  0  0  0  0  0
   15.9357  -15.4528   21.2509 C   0  0  0  0  0  0  0  0  0  0  0  0
   15.9667  -16.3911   20.2014 O   0  0  0  0  0  0  0  0  0  0  0  0
   13.2969  -17.4264   24.6464 O   0  0  0  0  0  0  0  0  0  0  0  0
   17.0170  -14.9362   21.6037 O   0  0  0  0  0  0  0  0  0  0  0  0
  2  1  1  1
  2  3  1  0
  4  2  1  0
  4  6  1  0
  4  5  1  1
  6 13  1  0
  6  7  2  0
  9  8  1  0
  9 11  1  0
 10  9  2  0
 12 11  1  6
 12 14  1  0
 13 12  1  0
 14 16  1  0
 14 15  2  0
 16 17  1  0
 17 21  1  0
 17 18  1  6
 18 19  1  0
 19 23  1  0
 20 19  2  0
 21 22  1  0
 24 21  2  0
M  END
$$$$
