VND.pdb
     RDKit          3D

 24 23  0  0  1  0  0  0  0  0999 V2000
    8.5726  -12.1603   19.8773 C   0  0  0  0  0  0  0  0  0  0  0  0
    7.8432  -13.4450   19.5009 C   0  0  2  0  0  0  0  0  0  0  0  0
    6.4165  -13.4239   19.9295 C   0  0  0  0  0  0  0  0  0  0  0  0
    8.6310  -14.6395   19.9310 C   0  0  2  0  0  0  0  0  0  0  0  0
    8.1884  -15.8485   19.3021 N   0  0  0  0  0  0  0  0  0  0  0  0
    8.7219  -14.8182   21.3934 C   0  0  0  0  0  0  0  0  0  0  0  0
    9.2128  -13.9561   22.1656 O   0  0  0  0  0  0  0  0  0  0  0  0
    7.0325  -15.9615   26.2378 N   0  0  0  0  0  0  0  0  0  0  0  0
    6.8505  -17.0104   25.3321 C   0  0  0  0  0  0  0  0  0  0  0  0
    6.6844  -18.2052   25.7634 O   0  0  0  0  0  0  0  0  0  0  0  0
    6.8460  -16.7559   23.8794 C   0  0  0  0  0  0  0  0  0  0  0  0
    8.1916  -16.2346   23.4004 C   0  0  2  0  0  0  0  0  0  0  0  0
    8.2373  -16.0151   21.9744 N   0  0  0  0  0  0  0  0  0  0  0  0
    9.2834  -17.1785   23.8239 C   0  0  0  0  0  0  0  0  0  0  0  0
    9.3958  -18.3086   23.2746 O   0  0  0  0  0  0  0  0  0  0  0  0
   10.2075  -16.8293   24.8406 N   0  0  0  0  0  0  0  0  0  0  0  0
   11.2821  -17.7428   25.2641 C   0  0  1  0  0  0  0  0  0  0  0  0
   12.5501  -16.9176   25.2722 C   0  0  0  0  0  0  0  0  0  0  0  0
   13.2516  -16.8798   23.9858 C   0  0  0  0  0  0  0  0  0  0  0  0
   12.7961  -17.5086   22.9982 O   0  0  0  0  0  0  0  0  0  0  0  0
   10.9877  -18.2543   26.6327 C   0  0  0  0  0  0  0  0  0  0  0  0
   10.8746  -17.3538   27.7093 O   0  0  0  0  0  0  0  0  0  0  0  0
   14.4412  -16.1689   23.7571 O   0  0  0  0  0  0  0  0  0  0  0  0
   10.8338  -19.4708   26.8710 O   0  0  0  0  0  0  0  0  0  0  0  0
  2  1  1  1
  2  3  1  0
  4  2  1  0
  4  6  1  0
  4  5  1  6
  6 13  1  0
  6  7  2  0
  9  8  1  0
  9 11  1  0
 10  9  2  0
 12 11  1  6
 12 14  1  0
 13 12  1  0
 14 16  1  0
 14 15  2  0
 16 17  1  0
 17 21  1  0
 17 18  1  1
 18 19  1  0
 19 23  1  0
 20 19  2  0
 21 22  1  0
 24 21  2  0
M  END
$$$$
