VND.pdb
     RDKit          3D

 24 23  0  0  1  0  0  0  0  0999 V2000
    7.3834  -13.7653   18.8115 C   0  0  0  0  0  0  0  0  0  0  0  0
    8.2352  -12.9302   19.7608 C   0  0  2  0  0  0  0  0  0  0  0  0
    8.2940  -11.5000   19.3478 C   0  0  0  0  0  0  0  0  0  0  0  0
    9.5544  -13.5904   19.9984 C   0  0  2  0  0  0  0  0  0  0  0  0
   10.4502  -13.4493   18.8890 N   0  0  0  0  0  0  0  0  0  0  0  0
    9.4649  -15.0030   20.4170 C   0  0  0  0  0  0  0  0  0  0  0  0
    8.7457  -15.3970   21.3700 O   0  0  0  0  0  0  0  0  0  0  0  0
    9.7203  -17.0866   16.7783 N   0  0  0  0  0  0  0  0  0  0  0  0
    9.1678  -17.7103   17.9007 C   0  0  0  0  0  0  0  0  0  0  0  0
    7.8955  -17.7623   18.0410 O   0  0  0  0  0  0  0  0  0  0  0  0
   10.0367  -18.3129   18.9287 C   0  0  0  0  0  0  0  0  0  0  0  0
   10.2471  -17.3706   20.1032 C   0  0  2  0  0  0  0  0  0  0  0  0
   10.2206  -15.9785   19.7224 N   0  0  0  0  0  0  0  0  0  0  0  0
   11.5393  -17.7029   20.7976 C   0  0  0  0  0  0  0  0  0  0  0  0
   12.4854  -18.2389   20.1581 O   0  0  0  0  0  0  0  0  0  0  0  0
   11.7294  -17.4262   22.1748 N   0  0  0  0  0  0  0  0  0  0  0  0
   13.0652  -17.4357   22.7943 C   0  0  1  0  0  0  0  0  0  0  0  0
   13.8448  -16.3290   22.1188 C   0  0  0  0  0  0  0  0  0  0  0  0
   15.1824  -16.1084   22.6762 C   0  0  0  0  0  0  0  0  0  0  0  0
   15.9690  -17.0750   22.8345 O   0  0  0  0  0  0  0  0  0  0  0  0
   12.9371  -17.1631   24.2540 C   0  0  0  0  0  0  0  0  0  0  0  0
   13.9202  -17.6344   25.1450 O   0  0  0  0  0  0  0  0  0  0  0  0
   15.6773  -14.8526   23.0645 O   0  0  0  0  0  0  0  0  0  0  0  0
   11.9767  -16.5221   24.7308 O   0  0  0  0  0  0  0  0  0  0  0  0
  2  1  1  6
  2  3  1  0
  4  2  1  0
  4  6  1  0
  4  5  1  6
  6 13  1  0
  6  7  2  0
  9  8  1  0
  9 11  1  0
 10  9  2  0
 12 11  1  6
 12 14  1  0
 13 12  1  0
 14 16  1  0
 14 15  2  0
 16 17  1  0
 17 21  1  0
 17 18  1  6
 18 19  1  0
 19 23  1  0
 20 19  2  0
 21 22  1  0
 24 21  2  0
M  END
$$$$
