TCR.pdb
     RDKit          3D

 25 24  0  0  1  0  0  0  0  0999 V2000
   34.4033  -24.6210  -18.9396 C   0  0  0  0  0  0  0  0  0  0  0  0
   33.1546  -24.1350  -18.2582 C   0  0  1  0  0  0  0  0  0  0  0  0
   33.0337  -22.7548  -18.4815 O   0  0  0  0  0  0  0  0  0  0  0  0
   31.8973  -24.8052  -18.7904 C   0  0  2  0  0  0  0  0  0  0  0  0
   31.7005  -24.5438  -20.1852 N   0  0  0  0  0  0  0  0  0  0  0  0
   30.7684  -24.2518  -17.9705 C   0  0  0  0  0  0  0  0  0  0  0  0
   30.7316  -24.4076  -16.7235 O   0  0  0  0  0  0  0  0  0  0  0  0
   29.6839  -23.5242  -18.5579 N   0  0  0  0  0  0  0  0  0  0  0  0
   28.5953  -23.0798  -17.7407 C   0  0  1  0  0  0  0  0  0  0  0  0
   28.1392  -21.6942  -18.0862 C   0  0  0  0  0  0  0  0  0  0  0  0
   27.0460  -21.0940  -16.7581 S   0  0  0  0  0  0  0  0  0  0  0  0
   27.4536  -24.0576  -17.7526 C   0  0  0  0  0  0  0  0  0  0  0  0
   27.2714  -24.7744  -18.7751 O   0  0  0  0  0  0  0  0  0  0  0  0
   26.5226  -31.5169  -15.7082 N   0  0  0  0  0  0  0  0  0  0  0  0
   27.4691  -30.6369  -16.3233 C   0  0  0  0  0  0  0  0  0  0  0  0
   28.7052  -31.0487  -16.4244 N   0  0  0  0  0  0  0  0  0  0  0  0
   27.0856  -29.3746  -16.8003 N   0  0  0  0  0  0  0  0  0  0  0  0
   25.6618  -28.9959  -16.7454 C   0  0  0  0  0  0  0  0  0  0  0  0
   25.5591  -27.6860  -17.4255 C   0  0  0  0  0  0  0  0  0  0  0  0
   26.1342  -26.4760  -16.8726 C   0  0  0  0  0  0  0  0  0  0  0  0
   25.4348  -25.1950  -16.7029 C   0  0  2  0  0  0  0  0  0  0  0  0
   26.5827  -24.2077  -16.6773 N   0  0  0  0  0  0  0  0  0  0  0  0
   24.6142  -24.9487  -15.5279 C   0  0  0  0  0  0  0  0  0  0  0  0
   24.8554  -24.1728  -14.5878 O   0  0  0  0  0  0  0  0  0  0  0  0
   23.3958  -25.6546  -15.4096 O   0  0  0  0  0  0  0  0  0  0  0  0
  2  3  1  0
  2  1  1  6
  4  2  1  0
  4  5  1  6
  6  4  1  0
  7  6  2  0
  8  6  1  0
  9 12  1  0
  9  8  1  0
  9 10  1  6
 11 10  1  0
 12 22  1  0
 13 12  2  0
 15 14  1  0
 15 16  2  0
 17 15  1  0
 18 17  1  0
 19 18  1  0
 20 19  1  0
 21 20  1  1
 22 21  1  0
 23 25  1  0
 23 21  1  0
 24 23  2  0
M  END
$$$$
