TCR.pdb
     RDKit          3D

 25 24  0  0  1  0  0  0  0  0999 V2000
   26.9239  -17.2718  -15.4109 C   0  0  0  0  0  0  0  0  0  0  0  0
   26.2749  -18.3395  -14.5752 C   0  0  1  0  0  0  0  0  0  0  0  0
   25.1467  -18.8168  -15.2599 O   0  0  0  0  0  0  0  0  0  0  0  0
   27.1964  -19.5212  -14.3145 C   0  0  2  0  0  0  0  0  0  0  0  0
   27.5466  -20.2044  -15.5241 N   0  0  0  0  0  0  0  0  0  0  0  0
   26.4409  -20.4226  -13.3819 C   0  0  0  0  0  0  0  0  0  0  0  0
   26.0896  -21.5772  -13.7340 O   0  0  0  0  0  0  0  0  0  0  0  0
   26.0832  -20.0204  -12.0550 N   0  0  0  0  0  0  0  0  0  0  0  0
   25.4113  -20.9391  -11.1859 C   0  0  1  0  0  0  0  0  0  0  0  0
   25.7368  -20.7130   -9.7402 C   0  0  0  0  0  0  0  0  0  0  0  0
   27.5470  -20.7534   -9.5389 S   0  0  0  0  0  0  0  0  0  0  0  0
   23.9272  -20.9485  -11.4245 C   0  0  0  0  0  0  0  0  0  0  0  0
   23.3570  -19.8807  -11.7811 O   0  0  0  0  0  0  0  0  0  0  0  0
   18.1551  -24.3104   -6.6777 N   0  0  0  0  0  0  0  0  0  0  0  0
   18.0675  -24.5461   -8.0867 C   0  0  0  0  0  0  0  0  0  0  0  0
   17.4412  -25.6216   -8.4851 N   0  0  0  0  0  0  0  0  0  0  0  0
   18.6352  -23.6556   -9.0100 N   0  0  0  0  0  0  0  0  0  0  0  0
   19.3090  -22.4441   -8.5079 C   0  0  0  0  0  0  0  0  0  0  0  0
   19.7774  -21.7096   -9.7037 C   0  0  0  0  0  0  0  0  0  0  0  0
   21.1635  -21.7174  -10.1272 C   0  0  0  0  0  0  0  0  0  0  0  0
   21.6480  -22.0776  -11.4668 C   0  0  2  0  0  0  0  0  0  0  0  0
   23.1491  -22.0920  -11.2680 N   0  0  0  0  0  0  0  0  0  0  0  0
   21.3622  -21.2275  -12.6115 C   0  0  0  0  0  0  0  0  0  0  0  0
   20.6789  -21.5105  -13.6100 O   0  0  0  0  0  0  0  0  0  0  0  0
   21.9070  -19.9237  -12.6223 O   0  0  0  0  0  0  0  0  0  0  0  0
  2  3  1  0
  2  1  1  6
  4  2  1  0
  4  5  1  6
  6  4  1  0
  7  6  2  0
  8  6  1  0
  9 12  1  0
  9  8  1  0
  9 10  1  1
 11 10  1  0
 12 22  1  0
 13 12  2  0
 15 14  1  0
 15 16  2  0
 17 15  1  0
 18 17  1  0
 19 18  1  0
 20 19  1  0
 21 20  1  1
 22 21  1  0
 23 25  1  0
 23 21  1  0
 24 23  2  0
M  END
$$$$
