TCR.pdb
     RDKit          3D

 25 24  0  0  1  0  0  0  0  0999 V2000
   19.2188  -19.4703  -12.3133 C   0  0  0  0  0  0  0  0  0  0  0  0
   18.5556  -20.5985  -11.5736 C   0  0  1  0  0  0  0  0  0  0  0  0
   17.7806  -20.0566  -10.5367 O   0  0  0  0  0  0  0  0  0  0  0  0
   17.6355  -21.4215  -12.4621 C   0  0  2  0  0  0  0  0  0  0  0  0
   16.9684  -22.4563  -11.7295 N   0  0  0  0  0  0  0  0  0  0  0  0
   18.5177  -21.9967  -13.5317 C   0  0  0  0  0  0  0  0  0  0  0  0
   19.1518  -23.0665  -13.3475 O   0  0  0  0  0  0  0  0  0  0  0  0
   18.6828  -21.3648  -14.8060 N   0  0  0  0  0  0  0  0  0  0  0  0
   19.6106  -21.9017  -15.7555 C   0  0  1  0  0  0  0  0  0  0  0  0
   19.0440  -21.9757  -17.1414 C   0  0  0  0  0  0  0  0  0  0  0  0
   20.3421  -22.5787  -18.2685 S   0  0  0  0  0  0  0  0  0  0  0  0
   20.9213  -21.1661  -15.7317 C   0  0  0  0  0  0  0  0  0  0  0  0
   20.9191  -19.9072  -15.8192 O   0  0  0  0  0  0  0  0  0  0  0  0
   27.6698  -20.9666  -10.7601 N   0  0  0  0  0  0  0  0  0  0  0  0
   26.2781  -21.1567  -10.4847 C   0  0  0  0  0  0  0  0  0  0  0  0
   25.8257  -20.7463   -9.3294 N   0  0  0  0  0  0  0  0  0  0  0  0
   25.4276  -21.7639  -11.4205 N   0  0  0  0  0  0  0  0  0  0  0  0
   25.9951  -22.2339  -12.6976 C   0  0  0  0  0  0  0  0  0  0  0  0
   25.3619  -21.4144  -13.7542 C   0  0  0  0  0  0  0  0  0  0  0  0
   24.1118  -21.7897  -14.3844 C   0  0  0  0  0  0  0  0  0  0  0  0
   23.4501  -21.0615  -15.4756 C   0  0  2  0  0  0  0  0  0  0  0  0
   22.1458  -21.8178  -15.6166 N   0  0  0  0  0  0  0  0  0  0  0  0
   24.0611  -20.9853  -16.7931 C   0  0  0  0  0  0  0  0  0  0  0  0
   24.6668  -20.0206  -17.2896 O   0  0  0  0  0  0  0  0  0  0  0  0
   23.9763  -22.1203  -17.6306 O   0  0  0  0  0  0  0  0  0  0  0  0
  2  3  1  0
  2  1  1  6
  4  2  1  0
  4  5  1  1
  6  4  1  0
  7  6  2  0
  8  6  1  0
  9 12  1  0
  9  8  1  0
  9 10  1  6
 11 10  1  0
 12 22  1  0
 13 12  2  0
 15 14  1  0
 15 16  2  0
 17 15  1  0
 18 17  1  0
 19 18  1  0
 20 19  1  0
 21 20  1  1
 22 21  1  0
 23 25  1  0
 23 21  1  0
 24 23  2  0
M  END
$$$$
