TCR.pdb
     RDKit          3D

 25 24  0  0  1  0  0  0  0  0999 V2000
   17.1706   -2.5531   -8.8050 C   0  0  0  0  0  0  0  0  0  0  0  0
   17.4556   -3.4289   -9.9930 C   0  0  1  0  0  0  0  0  0  0  0  0
   16.2618   -4.0572  -10.3797 O   0  0  0  0  0  0  0  0  0  0  0  0
   17.9780   -2.6453  -11.1874 C   0  0  2  0  0  0  0  0  0  0  0  0
   17.0349   -1.6664  -11.6397 N   0  0  0  0  0  0  0  0  0  0  0  0
   18.2504   -3.6681  -12.2517 C   0  0  0  0  0  0  0  0  0  0  0  0
   17.5581   -3.7178  -13.2998 O   0  0  0  0  0  0  0  0  0  0  0  0
   19.3024   -4.6322  -12.1319 N   0  0  0  0  0  0  0  0  0  0  0  0
   19.6439   -5.4605  -13.2491 C   0  0  1  0  0  0  0  0  0  0  0  0
   21.0962   -5.3759  -13.6107 C   0  0  0  0  0  0  0  0  0  0  0  0
   22.0777   -5.3657  -12.0758 S   0  0  0  0  0  0  0  0  0  0  0  0
   19.2067   -6.8837  -13.0423 C   0  0  0  0  0  0  0  0  0  0  0  0
   19.5798   -7.4946  -12.0030 O   0  0  0  0  0  0  0  0  0  0  0  0
   13.9787  -11.7165  -11.3114 N   0  0  0  0  0  0  0  0  0  0  0  0
   13.3519  -10.5129  -10.8561 C   0  0  0  0  0  0  0  0  0  0  0  0
   12.3622  -10.6256  -10.0103 N   0  0  0  0  0  0  0  0  0  0  0  0
   13.7826   -9.2546  -11.3025 N   0  0  0  0  0  0  0  0  0  0  0  0
   14.2550   -9.1163  -12.6922 C   0  0  0  0  0  0  0  0  0  0  0  0
   15.7250   -9.2770  -12.6438 C   0  0  0  0  0  0  0  0  0  0  0  0
   16.5768   -8.9832  -13.7790 C   0  0  0  0  0  0  0  0  0  0  0  0
   18.0456   -9.0232  -13.7810 C   0  0  2  0  0  0  0  0  0  0  0  0
   18.4025   -7.5618  -13.9539 N   0  0  0  0  0  0  0  0  0  0  0  0
   18.7650   -9.7766  -14.7956 C   0  0  0  0  0  0  0  0  0  0  0  0
   19.0124  -10.9943  -14.7979 O   0  0  0  0  0  0  0  0  0  0  0  0
   19.2516   -9.0759  -15.9221 O   0  0  0  0  0  0  0  0  0  0  0  0
  2  3  1  0
  2  1  1  1
  4  2  1  0
  4  5  1  6
  6  4  1  0
  7  6  2  0
  8  6  1  0
  9 12  1  0
  9  8  1  0
  9 10  1  1
 11 10  1  0
 12 22  1  0
 13 12  2  0
 15 14  1  0
 15 16  2  0
 17 15  1  0
 18 17  1  0
 19 18  1  0
 20 19  1  0
 21 20  1  6
 22 21  1  0
 23 25  1  0
 23 21  1  0
 24 23  2  0
M  END
$$$$
