TCR.pdb
     RDKit          3D

 25 24  0  0  1  0  0  0  0  0999 V2000
   23.6055  -21.4365  -12.2063 C   0  0  0  0  0  0  0  0  0  0  0  0
   23.3249  -20.6839  -10.9357 C   0  0  1  0  0  0  0  0  0  0  0  0
   22.1033  -21.1342  -10.4118 O   0  0  0  0  0  0  0  0  0  0  0  0
   24.3947  -20.9016   -9.8766 C   0  0  2  0  0  0  0  0  0  0  0  0
   24.0583  -20.2670   -8.6371 N   0  0  0  0  0  0  0  0  0  0  0  0
   25.6557  -20.3283  -10.4546 C   0  0  0  0  0  0  0  0  0  0  0  0
   25.9510  -19.1162  -10.2996 O   0  0  0  0  0  0  0  0  0  0  0  0
   26.5806  -21.1225  -11.2059 N   0  0  0  0  0  0  0  0  0  0  0  0
   27.6450  -20.4908  -11.9262 C   0  0  1  0  0  0  0  0  0  0  0  0
   28.9958  -21.0148  -11.5418 C   0  0  0  0  0  0  0  0  0  0  0  0
   30.2570  -20.1571  -12.5382 S   0  0  0  0  0  0  0  0  0  0  0  0
   27.4281  -20.5559  -13.4122 C   0  0  0  0  0  0  0  0  0  0  0  0
   27.2613  -21.6813  -13.9584 O   0  0  0  0  0  0  0  0  0  0  0  0
   20.9795  -18.5717  -17.6566 N   0  0  0  0  0  0  0  0  0  0  0  0
   21.0796  -18.8243  -16.2513 C   0  0  0  0  0  0  0  0  0  0  0  0
   19.9785  -19.0995  -15.6035 N   0  0  0  0  0  0  0  0  0  0  0  0
   22.3157  -18.7769  -15.5898 N   0  0  0  0  0  0  0  0  0  0  0  0
   23.5418  -18.5865  -16.3863 C   0  0  0  0  0  0  0  0  0  0  0  0
   24.6629  -18.5908  -15.4210 C   0  0  0  0  0  0  0  0  0  0  0  0
   26.0457  -18.4591  -15.8350 C   0  0  0  0  0  0  0  0  0  0  0  0
   27.0834  -19.4899  -15.6961 C   0  0  2  0  0  0  0  0  0  0  0  0
   27.4032  -19.4209  -14.2176 N   0  0  0  0  0  0  0  0  0  0  0  0
   28.3373  -19.3820  -16.4247 C   0  0  0  0  0  0  0  0  0  0  0  0
   29.2765  -18.6002  -16.1991 O   0  0  0  0  0  0  0  0  0  0  0  0
   28.5457  -20.2508  -17.5194 O   0  0  0  0  0  0  0  0  0  0  0  0
  2  3  1  0
  2  1  1  6
  4  2  1  0
  4  5  1  1
  6  4  1  0
  7  6  2  0
  8  6  1  0
  9 12  1  0
  9  8  1  0
  9 10  1  6
 11 10  1  0
 12 22  1  0
 13 12  2  0
 15 14  1  0
 15 16  2  0
 17 15  1  0
 18 17  1  0
 19 18  1  0
 20 19  1  0
 21 20  1  6
 22 21  1  0
 23 25  1  0
 23 21  1  0
 24 23  2  0
M  END
$$$$
