TCR.pdb
     RDKit          3D

 25 24  0  0  1  0  0  0  0  0999 V2000
   33.8501  -30.7487    7.9436 C   0  0  0  0  0  0  0  0  0  0  0  0
   33.2100  -30.3454    9.2426 C   0  0  1  0  0  0  0  0  0  0  0  0
   34.0768  -29.4686    9.9130 O   0  0  0  0  0  0  0  0  0  0  0  0
   31.8831  -29.6287    9.0450 C   0  0  2  0  0  0  0  0  0  0  0  0
   31.2661  -29.2902   10.2929 N   0  0  0  0  0  0  0  0  0  0  0  0
   31.0272  -30.5766    8.2564 C   0  0  0  0  0  0  0  0  0  0  0  0
   30.0678  -31.1873    8.7920 O   0  0  0  0  0  0  0  0  0  0  0  0
   31.2549  -30.8338    6.8662 N   0  0  0  0  0  0  0  0  0  0  0  0
   30.3123  -31.6109    6.1191 C   0  0  1  0  0  0  0  0  0  0  0  0
   28.9206  -31.0582    6.1892 C   0  0  0  0  0  0  0  0  0  0  0  0
   27.8311  -32.0949    5.1609 S   0  0  0  0  0  0  0  0  0  0  0  0
   30.7575  -31.8115    4.6974 C   0  0  0  0  0  0  0  0  0  0  0  0
   31.2591  -30.8387    4.0693 O   0  0  0  0  0  0  0  0  0  0  0  0
   34.6686  -32.8145   -0.7141 N   0  0  0  0  0  0  0  0  0  0  0  0
   35.7318  -32.1907    0.0133 C   0  0  0  0  0  0  0  0  0  0  0  0
   36.8632  -31.9967   -0.6112 N   0  0  0  0  0  0  0  0  0  0  0  0
   35.5678  -31.8018    1.3511 N   0  0  0  0  0  0  0  0  0  0  0  0
   34.2085  -31.7710    1.9213 C   0  0  0  0  0  0  0  0  0  0  0  0
   34.0922  -32.9773    2.7700 C   0  0  0  0  0  0  0  0  0  0  0  0
   32.8725  -33.3165    3.4757 C   0  0  0  0  0  0  0  0  0  0  0  0
   31.5340  -33.4097    2.8770 C   0  0  2  0  0  0  0  0  0  0  0  0
   30.6396  -33.0322    4.0391 N   0  0  0  0  0  0  0  0  0  0  0  0
   31.0494  -34.6705    2.3381 C   0  0  0  0  0  0  0  0  0  0  0  0
   31.2846  -35.1524    1.2172 O   0  0  0  0  0  0  0  0  0  0  0  0
   30.2140  -35.4643    3.1558 O   0  0  0  0  0  0  0  0  0  0  0  0
  2  3  1  0
  2  1  1  6
  4  2  1  0
  4  5  1  1
  6  4  1  0
  7  6  2  0
  8  6  1  0
  9 12  1  0
  9  8  1  0
  9 10  1  6
 11 10  1  0
 12 22  1  0
 13 12  2  0
 15 14  1  0
 15 16  2  0
 17 15  1  0
 18 17  1  0
 19 18  1  0
 20 19  1  0
 21 20  1  1
 22 21  1  0
 23 25  1  0
 23 21  1  0
 24 23  2  0
M  END
$$$$
