TCR.pdb
     RDKit          3D

 25 24  0  0  1  0  0  0  0  0999 V2000
   23.7041  -14.8866  -19.7537 C   0  0  0  0  0  0  0  0  0  0  0  0
   23.7438  -13.8969  -18.6229 C   0  0  1  0  0  0  0  0  0  0  0  0
   24.6538  -14.3580  -17.6592 O   0  0  0  0  0  0  0  0  0  0  0  0
   24.1971  -12.5152  -19.0685 C   0  0  2  0  0  0  0  0  0  0  0  0
   25.5425  -12.5257  -19.5609 N   0  0  0  0  0  0  0  0  0  0  0  0
   24.0704  -11.6396  -17.8560 C   0  0  0  0  0  0  0  0  0  0  0  0
   23.0045  -11.5986  -17.1906 O   0  0  0  0  0  0  0  0  0  0  0  0
   25.1451  -10.8123  -17.3966 N   0  0  0  0  0  0  0  0  0  0  0  0
   24.9668   -9.9842  -16.2419 C   0  0  1  0  0  0  0  0  0  0  0  0
   26.2600   -9.4407  -15.7132 C   0  0  0  0  0  0  0  0  0  0  0  0
   27.2849  -10.8338  -15.1404 S   0  0  0  0  0  0  0  0  0  0  0  0
   23.9664   -8.8900  -16.4896 C   0  0  0  0  0  0  0  0  0  0  0  0
   23.9834   -8.2829  -17.5958 O   0  0  0  0  0  0  0  0  0  0  0  0
   17.8943  -10.8956  -20.0388 N   0  0  0  0  0  0  0  0  0  0  0  0
   17.9314  -11.3308  -18.6757 C   0  0  0  0  0  0  0  0  0  0  0  0
   17.1566  -12.3262  -18.3343 N   0  0  0  0  0  0  0  0  0  0  0  0
   18.7687  -10.7105  -17.7365 N   0  0  0  0  0  0  0  0  0  0  0  0
   19.5915   -9.5644  -18.1646 C   0  0  0  0  0  0  0  0  0  0  0  0
   20.3276   -9.1160  -16.9621 C   0  0  0  0  0  0  0  0  0  0  0  0
   21.2724   -8.0173  -16.9939 C   0  0  0  0  0  0  0  0  0  0  0  0
   21.9719   -7.4551  -15.8305 C   0  0  2  0  0  0  0  0  0  0  0  0
   23.0153   -8.5147  -15.5451 N   0  0  0  0  0  0  0  0  0  0  0  0
   21.2573   -7.1938  -14.5913 C   0  0  0  0  0  0  0  0  0  0  0  0
   21.4386   -7.7340  -13.4870 O   0  0  0  0  0  0  0  0  0  0  0  0
   20.2340   -6.2195  -14.6081 O   0  0  0  0  0  0  0  0  0  0  0  0
  2  3  1  0
  2  1  1  6
  4  2  1  0
  4  5  1  1
  6  4  1  0
  7  6  2  0
  8  6  1  0
  9 12  1  0
  9  8  1  0
  9 10  1  6
 11 10  1  0
 12 22  1  0
 13 12  2  0
 15 14  1  0
 15 16  2  0
 17 15  1  0
 18 17  1  0
 19 18  1  0
 20 19  1  0
 21 20  1  6
 22 21  1  0
 23 25  1  0
 23 21  1  0
 24 23  2  0
M  END
$$$$
