TCR.pdb
     RDKit          3D

 25 24  0  0  1  0  0  0  0  0999 V2000
   30.6156  -26.9014  -17.6732 C   0  0  0  0  0  0  0  0  0  0  0  0
   29.9222  -25.6285  -17.2747 C   0  0  1  0  0  0  0  0  0  0  0  0
   29.1633  -25.8770  -16.1207 O   0  0  0  0  0  0  0  0  0  0  0  0
   30.8965  -24.5041  -16.9586 C   0  0  2  0  0  0  0  0  0  0  0  0
   31.7859  -24.8506  -15.8903 N   0  0  0  0  0  0  0  0  0  0  0  0
   30.0442  -23.3238  -16.5934 C   0  0  0  0  0  0  0  0  0  0  0  0
   29.8471  -23.0095  -15.3922 O   0  0  0  0  0  0  0  0  0  0  0  0
   29.4161  -22.5009  -17.5828 N   0  0  0  0  0  0  0  0  0  0  0  0
   28.5180  -21.4601  -17.1819 C   0  0  1  0  0  0  0  0  0  0  0  0
   28.1064  -20.5786  -18.3224 C   0  0  0  0  0  0  0  0  0  0  0  0
   29.5441  -19.5852  -18.8373 S   0  0  0  0  0  0  0  0  0  0  0  0
   27.3264  -22.0050  -16.4452 C   0  0  0  0  0  0  0  0  0  0  0  0
   27.3542  -23.1968  -16.0313 O   0  0  0  0  0  0  0  0  0  0  0  0
   26.9713  -20.8698   -8.7892 N   0  0  0  0  0  0  0  0  0  0  0  0
   25.5836  -20.7474   -9.1181 C   0  0  0  0  0  0  0  0  0  0  0  0
   24.7383  -20.5837   -8.1351 N   0  0  0  0  0  0  0  0  0  0  0  0
   25.1437  -20.8028  -10.4490 N   0  0  0  0  0  0  0  0  0  0  0  0
   25.9976  -21.4630  -11.4534 C   0  0  0  0  0  0  0  0  0  0  0  0
   26.1680  -20.4871  -12.5522 C   0  0  0  0  0  0  0  0  0  0  0  0
   26.4337  -20.8930  -13.9181 C   0  0  0  0  0  0  0  0  0  0  0  0
   25.4263  -21.3376  -14.8909 C   0  0  2  0  0  0  0  0  0  0  0  0
   26.1857  -21.2467  -16.1979 N   0  0  0  0  0  0  0  0  0  0  0  0
   24.1794  -20.6071  -15.0529 C   0  0  0  0  0  0  0  0  0  0  0  0
   23.9920  -19.5705  -15.7120 O   0  0  0  0  0  0  0  0  0  0  0  0
   23.0289  -21.1052  -14.4008 O   0  0  0  0  0  0  0  0  0  0  0  0
  2  3  1  0
  2  1  1  1
  4  2  1  0
  4  5  1  1
  6  4  1  0
  7  6  2  0
  8  6  1  0
  9 12  1  0
  9  8  1  0
  9 10  1  6
 11 10  1  0
 12 22  1  0
 13 12  2  0
 15 14  1  0
 15 16  2  0
 17 15  1  0
 18 17  1  0
 19 18  1  0
 20 19  1  0
 21 20  1  1
 22 21  1  0
 23 25  1  0
 23 21  1  0
 24 23  2  0
M  END
$$$$
