TCR.pdb
     RDKit          3D

 25 24  0  0  1  0  0  0  0  0999 V2000
   23.3023  -21.6618   -9.6353 C   0  0  0  0  0  0  0  0  0  0  0  0
   24.3449  -21.0976  -10.5597 C   0  0  1  0  0  0  0  0  0  0  0  0
   23.8876  -19.8634  -11.0466 O   0  0  0  0  0  0  0  0  0  0  0  0
   25.6773  -20.8600   -9.8656 C   0  0  2  0  0  0  0  0  0  0  0  0
   25.5542  -19.9478   -8.7678 N   0  0  0  0  0  0  0  0  0  0  0  0
   26.5908  -20.3143  -10.9242 C   0  0  0  0  0  0  0  0  0  0  0  0
   26.4539  -19.1441  -11.3628 O   0  0  0  0  0  0  0  0  0  0  0  0
   27.6563  -21.0889  -11.4859 N   0  0  0  0  0  0  0  0  0  0  0  0
   28.4120  -20.5726  -12.5873 C   0  0  1  0  0  0  0  0  0  0  0  0
   29.7378  -21.2530  -12.7500 C   0  0  0  0  0  0  0  0  0  0  0  0
   30.7587  -20.8948  -11.2841 S   0  0  0  0  0  0  0  0  0  0  0  0
   27.6197  -20.5911  -13.8645 C   0  0  0  0  0  0  0  0  0  0  0  0
   26.7299  -21.4722  -14.0211 O   0  0  0  0  0  0  0  0  0  0  0  0
   20.3603  -18.5434  -15.6902 N   0  0  0  0  0  0  0  0  0  0  0  0
   21.0460  -19.6324  -15.0637 C   0  0  0  0  0  0  0  0  0  0  0  0
   20.3391  -20.6734  -14.7112 N   0  0  0  0  0  0  0  0  0  0  0  0
   22.4290  -19.5853  -14.8333 N   0  0  0  0  0  0  0  0  0  0  0  0
   23.1685  -18.3611  -15.1917 C   0  0  0  0  0  0  0  0  0  0  0  0
   24.3496  -18.8064  -15.9634 C   0  0  0  0  0  0  0  0  0  0  0  0
   25.6177  -19.1167  -15.3338 C   0  0  0  0  0  0  0  0  0  0  0  0
   26.8484  -19.5093  -16.0339 C   0  0  2  0  0  0  0  0  0  0  0  0
   27.8263  -19.6720  -14.8893 N   0  0  0  0  0  0  0  0  0  0  0  0
   27.4582  -18.6241  -17.0134 C   0  0  0  0  0  0  0  0  0  0  0  0
   28.2431  -17.6855  -16.7971 O   0  0  0  0  0  0  0  0  0  0  0  0
   27.1454  -18.8266  -18.3764 O   0  0  0  0  0  0  0  0  0  0  0  0
  2  3  1  0
  2  1  1  1
  4  2  1  0
  4  5  1  1
  6  4  1  0
  7  6  2  0
  8  6  1  0
  9 12  1  0
  9  8  1  0
  9 10  1  6
 11 10  1  0
 12 22  1  0
 13 12  2  0
 15 14  1  0
 15 16  2  0
 17 15  1  0
 18 17  1  0
 19 18  1  0
 20 19  1  0
 21 20  1  1
 22 21  1  0
 23 25  1  0
 23 21  1  0
 24 23  2  0
M  END
$$$$
