TCR.pdb
     RDKit          3D

 25 24  0  0  1  0  0  0  0  0999 V2000
   22.4881  -19.9789  -17.7048 C   0  0  0  0  0  0  0  0  0  0  0  0
   21.5980  -20.1781  -16.5099 C   0  0  1  0  0  0  0  0  0  0  0  0
   20.9417  -21.4112  -16.6439 O   0  0  0  0  0  0  0  0  0  0  0  0
   22.3711  -20.2015  -15.2002 C   0  0  2  0  0  0  0  0  0  0  0  0
   21.5153  -20.4445  -14.0773 N   0  0  0  0  0  0  0  0  0  0  0  0
   23.0308  -18.8570  -15.0982 C   0  0  0  0  0  0  0  0  0  0  0  0
   22.3575  -17.8148  -14.8959 O   0  0  0  0  0  0  0  0  0  0  0  0
   24.4474  -18.6907  -15.2246 N   0  0  0  0  0  0  0  0  0  0  0  0
   25.0232  -17.3817  -15.1495 C   0  0  1  0  0  0  0  0  0  0  0  0
   26.4393  -17.3988  -14.6580 C   0  0  0  0  0  0  0  0  0  0  0  0
   26.9863  -15.6799  -14.4020 S   0  0  0  0  0  0  0  0  0  0  0  0
   24.8980  -16.6419  -16.4521 C   0  0  0  0  0  0  0  0  0  0  0  0
   25.2305  -17.2235  -17.5215 O   0  0  0  0  0  0  0  0  0  0  0  0
   20.4399   -9.0192  -17.7589 N   0  0  0  0  0  0  0  0  0  0  0  0
   20.9255   -9.4415  -19.0373 C   0  0  0  0  0  0  0  0  0  0  0  0
   20.6488   -8.6910  -20.0707 N   0  0  0  0  0  0  0  0  0  0  0  0
   21.6715  -10.6211  -19.1788 N   0  0  0  0  0  0  0  0  0  0  0  0
   21.9145  -11.4561  -17.9882 C   0  0  0  0  0  0  0  0  0  0  0  0
   22.8354  -12.5300  -18.4212 C   0  0  0  0  0  0  0  0  0  0  0  0
   23.3992  -13.4912  -17.4943 C   0  0  0  0  0  0  0  0  0  0  0  0
   24.2846  -14.6080  -17.8514 C   0  0  2  0  0  0  0  0  0  0  0  0
   24.4280  -15.3341  -16.5303 N   0  0  0  0  0  0  0  0  0  0  0  0
   25.6218  -14.3584  -18.3656 C   0  0  0  0  0  0  0  0  0  0  0  0
   26.6673  -14.2118  -17.7103 O   0  0  0  0  0  0  0  0  0  0  0  0
   25.7881  -14.2671  -19.7659 O   0  0  0  0  0  0  0  0  0  0  0  0
  2  3  1  0
  2  1  1  6
  4  2  1  0
  4  5  1  1
  6  4  1  0
  7  6  2  0
  8  6  1  0
  9 12  1  0
  9  8  1  0
  9 10  1  6
 11 10  1  0
 12 22  1  0
 13 12  2  0
 15 14  1  0
 15 16  2  0
 17 15  1  0
 18 17  1  0
 19 18  1  0
 20 19  1  0
 21 20  1  1
 22 21  1  0
 23 25  1  0
 23 21  1  0
 24 23  2  0
M  END
$$$$
