TAC.pdb
     RDKit          3D

 19 18  0  0  1  0  0  0  0  0999 V2000
    9.7203  -19.3466   18.1112 C   0  0  0  0  0  0  0  0  0  0  0  0
    9.7118  -17.8649   18.4290 C   0  0  1  0  0  0  0  0  0  0  0  0
    9.0431  -17.2391   17.3663 O   0  0  0  0  0  0  0  0  0  0  0  0
    8.9624  -17.6911   19.7278 C   0  0  2  0  0  0  0  0  0  0  0  0
    7.5843  -18.0615   19.5441 N   0  0  0  0  0  0  0  0  0  0  0  0
    9.0408  -16.3199   20.2574 C   0  0  0  0  0  0  0  0  0  0  0  0
   10.1466  -15.8426   20.6379 O   0  0  0  0  0  0  0  0  0  0  0  0
    6.6340  -13.4497   20.5962 C   0  0  0  0  0  0  0  0  0  0  0  0
    7.9807  -14.1123   20.8839 C   0  0  2  0  0  0  0  0  0  0  0  0
    7.9146  -15.4550   20.3776 N   0  0  0  0  0  0  0  0  0  0  0  0
    8.2103  -14.0948   22.3707 C   0  0  0  0  0  0  0  0  0  0  0  0
    8.4059  -13.0047   22.9643 O   0  0  0  0  0  0  0  0  0  0  0  0
    8.2155  -15.2735   23.1425 N   0  0  0  0  0  0  0  0  0  0  0  0
    8.4454  -15.3483   24.5497 C   0  0  1  0  0  0  0  0  0  0  0  0
    7.1791  -15.4975   25.3577 C   0  0  0  0  0  0  0  0  0  0  0  0
    6.5132  -17.1629   25.0223 S   0  0  0  0  0  0  0  0  0  0  0  0
    9.4581  -16.3645   24.9197 C   0  0  0  0  0  0  0  0  0  0  0  0
    9.8632  -16.4622   26.1007 O   0  0  0  0  0  0  0  0  0  0  0  0
    9.9763  -17.2249   23.9702 O   0  0  0  0  0  0  0  0  0  0  0  0
  2  1  1  6
  2  3  1  0
  4  6  1  0
  4  2  1  0
  4  5  1  6
  6 10  1  0
  7  6  2  0
  9  8  1  1
 10  9  1  0
 11  9  1  0
 12 11  2  0
 13 11  1  0
 14 13  1  0
 14 17  1  0
 14 15  1  1
 16 15  1  0
 17 19  1  0
 18 17  2  0
M  END
$$$$
