TAC.pdb
     RDKit          3D

 19 18  0  0  1  0  0  0  0  0999 V2000
    7.0859  -17.9782   19.6434 C   0  0  0  0  0  0  0  0  0  0  0  0
    7.9683  -17.9859   18.4114 C   0  0  1  0  0  0  0  0  0  0  0  0
    7.6457  -19.1539   17.7044 O   0  0  0  0  0  0  0  0  0  0  0  0
    7.6310  -16.7500   17.6129 C   0  0  2  0  0  0  0  0  0  0  0  0
    8.0898  -16.9093   16.2587 N   0  0  0  0  0  0  0  0  0  0  0  0
    8.2013  -15.5208   18.1882 C   0  0  0  0  0  0  0  0  0  0  0  0
    9.4398  -15.2884   18.1024 O   0  0  0  0  0  0  0  0  0  0  0  0
    6.8059  -12.4628   19.8818 C   0  0  0  0  0  0  0  0  0  0  0  0
    7.9780  -13.3485   19.4613 C   0  0  2  0  0  0  0  0  0  0  0  0
    7.4273  -14.5326   18.8628 N   0  0  0  0  0  0  0  0  0  0  0  0
    8.7886  -13.6761   20.6858 C   0  0  0  0  0  0  0  0  0  0  0  0
    9.4490  -12.7759   21.2625 O   0  0  0  0  0  0  0  0  0  0  0  0
    8.8400  -14.9767   21.2251 N   0  0  0  0  0  0  0  0  0  0  0  0
    9.5664  -15.3685   22.3903 C   0  0  1  0  0  0  0  0  0  0  0  0
    8.7368  -16.1497   23.3803 C   0  0  0  0  0  0  0  0  0  0  0  0
    9.8535  -16.6907   24.7182 S   0  0  0  0  0  0  0  0  0  0  0  0
   10.8412  -16.0552   22.0765 C   0  0  0  0  0  0  0  0  0  0  0  0
   10.9315  -16.8116   21.0824 O   0  0  0  0  0  0  0  0  0  0  0  0
   11.9562  -15.8755   22.8733 O   0  0  0  0  0  0  0  0  0  0  0  0
  2  1  1  1
  2  3  1  0
  4  6  1  0
  4  2  1  0
  4  5  1  6
  6 10  1  0
  7  6  2  0
  9  8  1  1
 10  9  1  0
 11  9  1  0
 12 11  2  0
 13 11  1  0
 14 13  1  0
 14 17  1  0
 14 15  1  6
 16 15  1  0
 17 19  1  0
 18 17  2  0
M  END
$$$$
