TAC.pdb
     RDKit          3D

 19 18  0  0  1  0  0  0  0  0999 V2000
    7.8075  -12.6813   20.3620 C   0  0  0  0  0  0  0  0  0  0  0  0
    8.5660  -13.8408   19.7482 C   0  0  1  0  0  0  0  0  0  0  0  0
    9.8337  -13.8429   20.3488 O   0  0  0  0  0  0  0  0  0  0  0  0
    7.8003  -15.0995   20.0773 C   0  0  2  0  0  0  0  0  0  0  0  0
    6.5286  -15.0814   19.4047 N   0  0  0  0  0  0  0  0  0  0  0  0
    7.5939  -15.2851   21.5230 C   0  0  0  0  0  0  0  0  0  0  0  0
    6.7421  -14.5883   22.1429 O   0  0  0  0  0  0  0  0  0  0  0  0
    8.7756  -17.7517   24.0925 C   0  0  0  0  0  0  0  0  0  0  0  0
    8.1197  -16.4232   23.7179 C   0  0  2  0  0  0  0  0  0  0  0  0
    8.3140  -16.2321   22.3074 N   0  0  0  0  0  0  0  0  0  0  0  0
    8.7734  -15.3291   24.5173 C   0  0  0  0  0  0  0  0  0  0  0  0
    9.8428  -14.8075   24.1131 O   0  0  0  0  0  0  0  0  0  0  0  0
    8.2262  -14.8540   25.7256 N   0  0  0  0  0  0  0  0  0  0  0  0
    8.8170  -13.8754   26.5812 C   0  0  1  0  0  0  0  0  0  0  0  0
    8.0415  -12.5816   26.6387 C   0  0  0  0  0  0  0  0  0  0  0  0
    6.3356  -12.9920   27.1398 S   0  0  0  0  0  0  0  0  0  0  0  0
    9.1223  -14.3955   27.9346 C   0  0  0  0  0  0  0  0  0  0  0  0
    8.6627  -15.4968   28.3144 O   0  0  0  0  0  0  0  0  0  0  0  0
    9.9198  -13.6768   28.8051 O   0  0  0  0  0  0  0  0  0  0  0  0
  2  1  1  1
  2  3  1  0
  4  6  1  0
  4  2  1  0
  4  5  1  6
  6 10  1  0
  7  6  2  0
  9  8  1  1
 10  9  1  0
 11  9  1  0
 12 11  2  0
 13 11  1  0
 14 13  1  0
 14 17  1  0
 14 15  1  1
 16 15  1  0
 17 19  1  0
 18 17  2  0
M  END
$$$$
