TAC.pdb
     RDKit          3D

 19 18  0  0  1  0  0  0  0  0999 V2000
   10.5494  -18.9262   20.1499 C   0  0  0  0  0  0  0  0  0  0  0  0
    9.2525  -18.3892   19.5787 C   0  0  1  0  0  0  0  0  0  0  0  0
    8.5419  -19.5017   19.1040 O   0  0  0  0  0  0  0  0  0  0  0  0
    8.5162  -17.7077   20.7066 C   0  0  2  0  0  0  0  0  0  0  0  0
    7.0976  -17.8154   20.4925 N   0  0  0  0  0  0  0  0  0  0  0  0
    8.8878  -16.2919   20.8629 C   0  0  0  0  0  0  0  0  0  0  0  0
   10.0497  -15.9729   21.2418 O   0  0  0  0  0  0  0  0  0  0  0  0
    7.2462  -12.9813   20.1834 C   0  0  0  0  0  0  0  0  0  0  0  0
    8.2984  -13.8340   20.8912 C   0  0  2  0  0  0  0  0  0  0  0  0
    7.9966  -15.2096   20.6079 N   0  0  0  0  0  0  0  0  0  0  0  0
    8.2280  -13.5471   22.3665 C   0  0  0  0  0  0  0  0  0  0  0  0
    8.4286  -12.3816   22.7910 O   0  0  0  0  0  0  0  0  0  0  0  0
    7.9405  -14.5508   23.3126 N   0  0  0  0  0  0  0  0  0  0  0  0
    7.5404  -14.3317   24.6657 C   0  0  1  0  0  0  0  0  0  0  0  0
    6.3722  -13.3854   24.8005 C   0  0  0  0  0  0  0  0  0  0  0  0
    6.0795  -13.1334   26.5839 S   0  0  0  0  0  0  0  0  0  0  0  0
    7.3203  -15.5895   25.4172 C   0  0  0  0  0  0  0  0  0  0  0  0
    6.9711  -15.5624   26.6196 O   0  0  0  0  0  0  0  0  0  0  0  0
    7.4956  -16.8175   24.8076 O   0  0  0  0  0  0  0  0  0  0  0  0
  2  1  1  1
  2  3  1  0
  4  6  1  0
  4  2  1  0
  4  5  1  6
  6 10  1  0
  7  6  2  0
  9  8  1  6
 10  9  1  0
 11  9  1  0
 12 11  2  0
 13 11  1  0
 14 13  1  0
 14 17  1  0
 14 15  1  6
 16 15  1  0
 17 19  1  0
 18 17  2  0
M  END
$$$$
