TAC.pdb
     RDKit          3D

 19 18  0  0  1  0  0  0  0  0999 V2000
    6.9056  -17.4603   16.6919 C   0  0  0  0  0  0  0  0  0  0  0  0
    8.0354  -17.2056   15.7145 C   0  0  1  0  0  0  0  0  0  0  0  0
    7.5844  -17.6590   14.4659 O   0  0  0  0  0  0  0  0  0  0  0  0
    8.2863  -15.7170   15.7003 C   0  0  2  0  0  0  0  0  0  0  0  0
    9.2102  -15.3927   14.6462 N   0  0  0  0  0  0  0  0  0  0  0  0
    8.7993  -15.2085   16.9829 C   0  0  0  0  0  0  0  0  0  0  0  0
    9.9538  -15.5287   17.3831 O   0  0  0  0  0  0  0  0  0  0  0  0
    7.4611  -12.9587   19.6936 C   0  0  0  0  0  0  0  0  0  0  0  0
    8.4987  -13.9392   19.1481 C   0  0  2  0  0  0  0  0  0  0  0  0
    8.0591  -14.3458   17.8423 N   0  0  0  0  0  0  0  0  0  0  0  0
    8.5864  -15.1097   20.0892 C   0  0  0  0  0  0  0  0  0  0  0  0
    7.8994  -16.1403   19.8773 O   0  0  0  0  0  0  0  0  0  0  0  0
    9.4238  -15.0996   21.2223 N   0  0  0  0  0  0  0  0  0  0  0  0
   10.0649  -16.2392   21.7959 C   0  0  1  0  0  0  0  0  0  0  0  0
   10.7717  -17.1045   20.7809 C   0  0  0  0  0  0  0  0  0  0  0  0
   11.4243  -18.5599   21.6673 S   0  0  0  0  0  0  0  0  0  0  0  0
   10.9457  -15.8971   22.9371 C   0  0  0  0  0  0  0  0  0  0  0  0
   11.8200  -15.0074   22.8249 O   0  0  0  0  0  0  0  0  0  0  0  0
   10.8211  -16.5519   24.1479 O   0  0  0  0  0  0  0  0  0  0  0  0
  2  1  1  1
  2  3  1  0
  4  6  1  0
  4  2  1  0
  4  5  1  6
  6 10  1  0
  7  6  2  0
  9  8  1  1
 10  9  1  0
 11  9  1  0
 12 11  2  0
 13 11  1  0
 14 13  1  0
 14 17  1  0
 14 15  1  6
 16 15  1  0
 17 19  1  0
 18 17  2  0
M  END
$$$$
