TAC.pdb
     RDKit          3D

 19 18  0  0  1  0  0  0  0  0999 V2000
    8.9959  -12.7578   20.8512 C   0  0  0  0  0  0  0  0  0  0  0  0
    8.0032  -13.4540   19.9422 C   0  0  1  0  0  0  0  0  0  0  0  0
    8.0313  -12.7588   18.7240 O   0  0  0  0  0  0  0  0  0  0  0  0
    8.4753  -14.8779   19.7728 C   0  0  2  0  0  0  0  0  0  0  0  0
    7.6182  -15.5640   18.8430 N   0  0  0  0  0  0  0  0  0  0  0  0
    8.5256  -15.6215   21.0422 C   0  0  0  0  0  0  0  0  0  0  0  0
    7.4644  -16.0535   21.5737 O   0  0  0  0  0  0  0  0  0  0  0  0
   10.9744  -17.4677   23.0549 C   0  0  0  0  0  0  0  0  0  0  0  0
    9.7855  -16.5077   23.0464 C   0  0  2  0  0  0  0  0  0  0  0  0
    9.7332  -15.9017   21.7451 N   0  0  0  0  0  0  0  0  0  0  0  0
    9.9975  -15.4801   24.1247 C   0  0  0  0  0  0  0  0  0  0  0  0
   10.1062  -14.2650   23.8232 O   0  0  0  0  0  0  0  0  0  0  0  0
   10.0813  -15.8292   25.4871 N   0  0  0  0  0  0  0  0  0  0  0  0
    9.9366  -14.9322   26.5886 C   0  0  1  0  0  0  0  0  0  0  0  0
    8.6048  -14.2219   26.6132 C   0  0  0  0  0  0  0  0  0  0  0  0
    8.6156  -13.0958   28.0490 S   0  0  0  0  0  0  0  0  0  0  0  0
   10.2509  -15.5593   27.8936 C   0  0  0  0  0  0  0  0  0  0  0  0
   10.7909  -14.8953   28.8079 O   0  0  0  0  0  0  0  0  0  0  0  0
    9.9549  -16.8887   28.1290 O   0  0  0  0  0  0  0  0  0  0  0  0
  2  1  1  1
  2  3  1  0
  4  6  1  0
  4  2  1  0
  4  5  1  6
  6 10  1  0
  7  6  2  0
  9  8  1  6
 10  9  1  0
 11  9  1  0
 12 11  2  0
 13 11  1  0
 14 13  1  0
 14 17  1  0
 14 15  1  1
 16 15  1  0
 17 19  1  0
 18 17  2  0
M  END
$$$$
