TAC.pdb
     RDKit          3D

 19 18  0  0  1  0  0  0  0  0999 V2000
    7.8963  -20.0167   22.0624 C   0  0  0  0  0  0  0  0  0  0  0  0
    6.6101  -19.2371   21.8767 C   0  0  1  0  0  0  0  0  0  0  0  0
    5.5699  -20.1769   21.9292 O   0  0  0  0  0  0  0  0  0  0  0  0
    6.5172  -18.2510   23.0160 C   0  0  2  0  0  0  0  0  0  0  0  0
    5.1561  -17.8084   23.1623 N   0  0  0  0  0  0  0  0  0  0  0  0
    7.4011  -17.0868   22.8418 C   0  0  0  0  0  0  0  0  0  0  0  0
    8.6561  -17.2293   22.8458 O   0  0  0  0  0  0  0  0  0  0  0  0
    6.9431  -13.5778   21.6786 C   0  0  0  0  0  0  0  0  0  0  0  0
    7.7757  -14.6228   22.4203 C   0  0  2  0  0  0  0  0  0  0  0  0
    6.9258  -15.7555   22.6614 N   0  0  0  0  0  0  0  0  0  0  0  0
    8.2626  -14.0153   23.7077 C   0  0  0  0  0  0  0  0  0  0  0  0
    9.1466  -13.1225   23.6874 O   0  0  0  0  0  0  0  0  0  0  0  0
    7.7590  -14.4130   24.9620 N   0  0  0  0  0  0  0  0  0  0  0  0
    8.2393  -13.9711   26.2320 C   0  0  1  0  0  0  0  0  0  0  0  0
    7.1625  -13.3766   27.1072 C   0  0  0  0  0  0  0  0  0  0  0  0
    6.1946  -12.2263   26.0729 S   0  0  0  0  0  0  0  0  0  0  0  0
    9.0234  -15.0043   26.9481 C   0  0  0  0  0  0  0  0  0  0  0  0
    9.1821  -16.1434   26.4525 O   0  0  0  0  0  0  0  0  0  0  0  0
    9.5955  -14.7328   28.1767 O   0  0  0  0  0  0  0  0  0  0  0  0
  2  1  1  1
  2  3  1  0
  4  6  1  0
  4  2  1  0
  4  5  1  6
  6 10  1  0
  7  6  2  0
  9  8  1  1
 10  9  1  0
 11  9  1  0
 12 11  2  0
 13 11  1  0
 14 13  1  0
 14 17  1  0
 14 15  1  1
 16 15  1  0
 17 19  1  0
 18 17  2  0
M  END
$$$$
