TAC.pdb
     RDKit          3D

 19 18  0  0  1  0  0  0  0  0999 V2000
   11.3615  -21.2778   17.8203 C   0  0  0  0  0  0  0  0  0  0  0  0
   10.8086  -20.0808   17.0733 C   0  0  1  0  0  0  0  0  0  0  0  0
   11.0151  -20.3388   15.7100 O   0  0  0  0  0  0  0  0  0  0  0  0
    9.3371  -19.9921   17.3986 C   0  0  2  0  0  0  0  0  0  0  0  0
    8.6963  -19.0760   16.4932 N   0  0  0  0  0  0  0  0  0  0  0  0
    9.0796  -19.5779   18.7876 C   0  0  0  0  0  0  0  0  0  0  0  0
    9.2816  -18.3843   19.1477 O   0  0  0  0  0  0  0  0  0  0  0  0
    7.8066  -21.2838   21.8962 C   0  0  0  0  0  0  0  0  0  0  0  0
    8.4575  -20.1004   21.1812 C   0  0  2  0  0  0  0  0  0  0  0  0
    8.5995  -20.4608   19.7979 N   0  0  0  0  0  0  0  0  0  0  0  0
    9.7930  -19.8353   21.8214 C   0  0  0  0  0  0  0  0  0  0  0  0
   10.8126  -20.4571   21.4305 O   0  0  0  0  0  0  0  0  0  0  0  0
    9.9529  -18.8997   22.8626 N   0  0  0  0  0  0  0  0  0  0  0  0
   11.1830  -18.5751   23.5109 C   0  0  1  0  0  0  0  0  0  0  0  0
   11.4500  -17.0911   23.5832 C   0  0  0  0  0  0  0  0  0  0  0  0
   11.3462  -16.4365   21.8830 S   0  0  0  0  0  0  0  0  0  0  0  0
   11.3325  -19.2269   24.8330 C   0  0  0  0  0  0  0  0  0  0  0  0
   12.4303  -19.2051   25.4354 O   0  0  0  0  0  0  0  0  0  0  0  0
   10.2649  -19.8720   25.4283 O   0  0  0  0  0  0  0  0  0  0  0  0
  2  1  1  1
  2  3  1  0
  4  6  1  0
  4  2  1  0
  4  5  1  6
  6 10  1  0
  7  6  2  0
  9  8  1  1
 10  9  1  0
 11  9  1  0
 12 11  2  0
 13 11  1  0
 14 13  1  0
 14 17  1  0
 14 15  1  1
 16 15  1  0
 17 19  1  0
 18 17  2  0
M  END
$$$$
