TAC.pdb
     RDKit          3D

 19 18  0  0  1  0  0  0  0  0999 V2000
   10.9387  -14.4726   20.4584 C   0  0  0  0  0  0  0  0  0  0  0  0
   10.1066  -13.4402   19.7248 C   0  0  1  0  0  0  0  0  0  0  0  0
   10.6938  -13.2891   18.4598 O   0  0  0  0  0  0  0  0  0  0  0  0
    8.7050  -13.9906   19.6174 C   0  0  2  0  0  0  0  0  0  0  0  0
    7.8994  -13.1085   18.8157 N   0  0  0  0  0  0  0  0  0  0  0  0
    8.0651  -14.1929   20.9275 C   0  0  0  0  0  0  0  0  0  0  0  0
    7.5798  -13.2139   21.5611 O   0  0  0  0  0  0  0  0  0  0  0  0
    7.1817  -17.1887   23.0261 C   0  0  0  0  0  0  0  0  0  0  0  0
    7.2968  -15.6785   22.8229 C   0  0  2  0  0  0  0  0  0  0  0  0
    7.9476  -15.4643   21.5602 N   0  0  0  0  0  0  0  0  0  0  0  0
    8.0987  -15.1063   23.9601 C   0  0  0  0  0  0  0  0  0  0  0  0
    9.3539  -15.0947   23.9016 O   0  0  0  0  0  0  0  0  0  0  0  0
    7.4895  -14.5715   25.1125 N   0  0  0  0  0  0  0  0  0  0  0  0
    8.1689  -13.9431   26.1998 C   0  0  1  0  0  0  0  0  0  0  0  0
    7.3303  -12.9124   26.9162 C   0  0  0  0  0  0  0  0  0  0  0  0
    5.6877  -12.9002   26.1217 S   0  0  0  0  0  0  0  0  0  0  0  0
    8.7763  -14.9112   27.1426 C   0  0  0  0  0  0  0  0  0  0  0  0
    8.5355  -16.1362   27.0437 O   0  0  0  0  0  0  0  0  0  0  0  0
    9.6205  -14.4831   28.1498 O   0  0  0  0  0  0  0  0  0  0  0  0
  2  1  1  1
  2  3  1  0
  4  6  1  0
  4  2  1  0
  4  5  1  6
  6 10  1  0
  7  6  2  0
  9  8  1  1
 10  9  1  0
 11  9  1  0
 12 11  2  0
 13 11  1  0
 14 13  1  0
 14 17  1  0
 14 15  1  1
 16 15  1  0
 17 19  1  0
 18 17  2  0
M  END
$$$$
