TAC.pdb
     RDKit          3D

 19 18  0  0  1  0  0  0  0  0999 V2000
    9.3014  -12.6126   19.8829 C   0  0  0  0  0  0  0  0  0  0  0  0
    8.2687  -13.3808   19.0829 C   0  0  1  0  0  0  0  0  0  0  0  0
    8.5327  -13.1051   17.7330 O   0  0  0  0  0  0  0  0  0  0  0  0
    8.4632  -14.8455   19.3925 C   0  0  2  0  0  0  0  0  0  0  0  0
    7.6871  -15.6400   18.4779 N   0  0  0  0  0  0  0  0  0  0  0  0
    8.1053  -15.1926   20.7775 C   0  0  0  0  0  0  0  0  0  0  0  0
    6.9061  -15.1179   21.1669 O   0  0  0  0  0  0  0  0  0  0  0  0
    9.8320  -16.9004   23.6151 C   0  0  0  0  0  0  0  0  0  0  0  0
    8.7077  -16.0064   23.0936 C   0  0  2  0  0  0  0  0  0  0  0  0
    9.0511  -15.6245   21.7520 N   0  0  0  0  0  0  0  0  0  0  0  0
    8.5968  -14.8079   23.9963 C   0  0  0  0  0  0  0  0  0  0  0  0
    9.4160  -13.8611   23.8886 O   0  0  0  0  0  0  0  0  0  0  0  0
    7.5923  -14.6993   24.9783 N   0  0  0  0  0  0  0  0  0  0  0  0
    7.3935  -13.5849   25.8486 C   0  0  1  0  0  0  0  0  0  0  0  0
    5.9611  -13.1115   25.9000 C   0  0  0  0  0  0  0  0  0  0  0  0
    5.8923  -11.7126   27.0697 S   0  0  0  0  0  0  0  0  0  0  0  0
    7.9519  -13.7996   27.2041 C   0  0  0  0  0  0  0  0  0  0  0  0
    8.0631  -14.9553   27.6735 O   0  0  0  0  0  0  0  0  0  0  0  0
    8.3612  -12.7300   27.9780 O   0  0  0  0  0  0  0  0  0  0  0  0
  2  1  1  1
  2  3  1  0
  4  6  1  0
  4  2  1  0
  4  5  1  6
  6 10  1  0
  7  6  2  0
  9  8  1  1
 10  9  1  0
 11  9  1  0
 12 11  2  0
 13 11  1  0
 14 13  1  0
 14 17  1  0
 14 15  1  1
 16 15  1  0
 17 19  1  0
 18 17  2  0
M  END
$$$$
