TAC.pdb
     RDKit          3D

 19 18  0  0  1  0  0  0  0  0999 V2000
    8.5257  -16.2466   17.6065 C   0  0  0  0  0  0  0  0  0  0  0  0
    8.8435  -14.7755   17.4296 C   0  0  1  0  0  0  0  0  0  0  0  0
    8.5687  -14.4727   16.0877 O   0  0  0  0  0  0  0  0  0  0  0  0
    7.9381  -14.0078   18.3623 C   0  0  2  0  0  0  0  0  0  0  0  0
    8.0223  -12.6018   18.0691 N   0  0  0  0  0  0  0  0  0  0  0  0
    8.2487  -14.2374   19.7828 C   0  0  0  0  0  0  0  0  0  0  0  0
    9.2284  -13.6544   20.3264 O   0  0  0  0  0  0  0  0  0  0  0  0
    6.6934  -16.1970   22.5934 C   0  0  0  0  0  0  0  0  0  0  0  0
    7.8729  -15.4553   21.9657 C   0  0  2  0  0  0  0  0  0  0  0  0
    7.4943  -15.1047   20.6250 N   0  0  0  0  0  0  0  0  0  0  0  0
    9.0691  -16.3676   21.9798 C   0  0  0  0  0  0  0  0  0  0  0  0
    9.5057  -16.8493   20.9044 O   0  0  0  0  0  0  0  0  0  0  0  0
    9.7351  -16.7125   23.1725 N   0  0  0  0  0  0  0  0  0  0  0  0
   10.8931  -17.5420   23.2715 C   0  0  1  0  0  0  0  0  0  0  0  0
   12.0780  -17.0131   22.5001 C   0  0  0  0  0  0  0  0  0  0  0  0
   12.6015  -15.4610   23.3043 S   0  0  0  0  0  0  0  0  0  0  0  0
   11.2506  -17.8758   24.6701 C   0  0  0  0  0  0  0  0  0  0  0  0
   10.6295  -17.3617   25.6283 O   0  0  0  0  0  0  0  0  0  0  0  0
   12.2759  -18.7607   24.9460 O   0  0  0  0  0  0  0  0  0  0  0  0
  2  1  1  6
  2  3  1  0
  4  6  1  0
  4  2  1  0
  4  5  1  6
  6 10  1  0
  7  6  2  0
  9  8  1  6
 10  9  1  0
 11  9  1  0
 12 11  2  0
 13 11  1  0
 14 13  1  0
 14 17  1  0
 14 15  1  1
 16 15  1  0
 17 19  1  0
 18 17  2  0
M  END
$$$$
