VQH.pdb
     RDKit          3D

 27 27  0  0  1  0  0  0  0  0999 V2000
    7.9171  -12.2388   18.9346 C   0  0  0  0  0  0  0  0  0  0  0  0
    8.3853  -13.1177   20.0700 C   0  0  1  0  0  0  0  0  0  0  0  0
    7.5040  -12.9649   21.2750 C   0  0  0  0  0  0  0  0  0  0  0  0
    8.6875  -14.5163   19.6739 C   0  0  2  0  0  0  0  0  0  0  0  0
    7.4691  -15.0711   19.0803 N   0  0  0  0  0  0  0  0  0  0  0  0
    9.0939  -15.4302   20.7497 C   0  0  0  0  0  0  0  0  0  0  0  0
    8.2154  -16.1028   21.3979 O   0  0  0  0  0  0  0  0  0  0  0  0
   12.7257  -19.2136   21.1775 N   0  0  0  0  0  0  0  0  0  0  0  0
   12.8775  -19.1194   22.5911 C   0  0  0  0  0  0  0  0  0  0  0  0
   13.1331  -20.1626   23.2241 O   0  0  0  0  0  0  0  0  0  0  0  0
   12.7253  -17.7788   23.2590 C   0  0  0  0  0  0  0  0  0  0  0  0
   12.2015  -16.8450   22.2202 C   0  0  0  0  0  0  0  0  0  0  0  0
   10.7324  -16.5428   22.3127 C   0  0  2  0  0  0  0  0  0  0  0  0
   10.4246  -15.6736   21.1832 N   0  0  0  0  0  0  0  0  0  0  0  0
   10.4254  -15.9497   23.6132 C   0  0  0  0  0  0  0  0  0  0  0  0
   10.0817  -14.7589   23.7905 O   0  0  0  0  0  0  0  0  0  0  0  0
   10.5124  -16.7524   24.7860 N   0  0  0  0  0  0  0  0  0  0  0  0
    9.7331  -16.4759   25.9761 C   0  0  1  0  0  0  0  0  0  0  0  0
    8.2786  -16.6720   25.5970 C   0  0  0  0  0  0  0  0  0  0  0  0
    7.5390  -15.3723   25.5631 C   0  0  0  0  0  0  0  0  0  0  0  0
    8.0480  -14.1160   25.7845 C   0  0  0  0  0  0  0  0  0  0  0  0
    7.0388  -13.2445   25.6553 N   0  0  0  0  0  0  0  0  0  0  0  0
    5.9221  -13.9287   25.3604 C   0  0  0  0  0  0  0  0  0  0  0  0
    6.2334  -15.2242   25.3057 N   0  0  0  0  0  0  0  0  0  0  0  0
   10.1571  -17.3680   27.0600 C   0  0  0  0  0  0  0  0  0  0  0  0
    9.7573  -17.1710   28.2315 O   0  0  0  0  0  0  0  0  0  0  0  0
   11.0005  -18.4437   26.8363 O   0  0  0  0  0  0  0  0  0  0  0  0
  2  4  1  0
  2  1  1  6
  3  2  1  0
  4  5  1  1
  6  4  1  0
  6  7  2  0
  9  8  1  0
  9 10  2  0
 11 12  1  0
 11  9  1  0
 13 12  1  1
 13 15  1  0
 13 14  1  0
 14  6  1  0
 15 17  1  0
 16 15  2  0
 17 18  1  0
 18 25  1  0
 18 19  1  6
 20 19  1  0
 21 20  2  0
 22 23  1  0
 22 21  1  0
 23 24  2  0
 24 20  1  0
 25 26  2  0
 25 27  1  0
M  END
$$$$
