VQH.pdb
     RDKit          3D

 27 27  0  0  1  0  0  0  0  0999 V2000
    8.5368  -11.8796   19.1552 C   0  0  0  0  0  0  0  0  0  0  0  0
    8.9978  -13.1584   19.8132 C   0  0  1  0  0  0  0  0  0  0  0  0
    8.8728  -13.0774   21.3065 C   0  0  0  0  0  0  0  0  0  0  0  0
    8.4544  -14.3933   19.1936 C   0  0  2  0  0  0  0  0  0  0  0  0
    6.9940  -14.2912   19.2333 N   0  0  0  0  0  0  0  0  0  0  0  0
    8.8122  -15.6637   19.8385 C   0  0  0  0  0  0  0  0  0  0  0  0
    8.0847  -16.1426   20.7796 O   0  0  0  0  0  0  0  0  0  0  0  0
   10.5966  -20.9404   17.8937 N   0  0  0  0  0  0  0  0  0  0  0  0
    9.3924  -20.2002   17.7131 C   0  0  0  0  0  0  0  0  0  0  0  0
    8.5727  -20.6115   16.8686 O   0  0  0  0  0  0  0  0  0  0  0  0
    9.1585  -18.9639   18.5395 C   0  0  0  0  0  0  0  0  0  0  0  0
   10.3607  -18.8009   19.4077 C   0  0  0  0  0  0  0  0  0  0  0  0
   10.3242  -17.6209   20.3374 C   0  0  2  0  0  0  0  0  0  0  0  0
    9.9351  -16.4750   19.5241 N   0  0  0  0  0  0  0  0  0  0  0  0
   11.6200  -17.4633   20.9955 C   0  0  0  0  0  0  0  0  0  0  0  0
   12.2923  -18.4017   21.4804 O   0  0  0  0  0  0  0  0  0  0  0  0
   12.1915  -16.1644   21.1128 N   0  0  0  0  0  0  0  0  0  0  0  0
   13.5195  -15.9457   21.6502 C   0  0  1  0  0  0  0  0  0  0  0  0
   13.9502  -14.5661   21.1928 C   0  0  0  0  0  0  0  0  0  0  0  0
   14.3073  -14.5550   19.7403 C   0  0  0  0  0  0  0  0  0  0  0  0
   14.4075  -15.6342   18.8969 C   0  0  0  0  0  0  0  0  0  0  0  0
   14.7498  -15.1696   17.6879 N   0  0  0  0  0  0  0  0  0  0  0  0
   14.8632  -13.8341   17.7627 C   0  0  0  0  0  0  0  0  0  0  0  0
   14.5925  -13.4658   19.0155 N   0  0  0  0  0  0  0  0  0  0  0  0
   13.4853  -16.0687   23.1111 C   0  0  0  0  0  0  0  0  0  0  0  0
   12.3888  -16.1726   23.7094 O   0  0  0  0  0  0  0  0  0  0  0  0
   14.6416  -16.0750   23.8734 O   0  0  0  0  0  0  0  0  0  0  0  0
  2  4  1  0
  2  1  1  6
  3  2  1  0
  4  5  1  1
  6  4  1  0
  6  7  2  0
  9  8  1  0
  9 10  2  0
 11 12  1  0
 11  9  1  0
 13 12  1  6
 13 15  1  0
 13 14  1  0
 14  6  1  0
 15 17  1  0
 16 15  2  0
 17 18  1  0
 18 25  1  0
 18 19  1  1
 20 19  1  0
 21 20  2  0
 22 23  1  0
 22 21  1  0
 23 24  2  0
 24 20  1  0
 25 26  2  0
 25 27  1  0
M  END
$$$$
