VQH.pdb
     RDKit          3D

 27 27  0  0  1  0  0  0  0  0999 V2000
    5.6914  -11.1189   25.8853 C   0  0  0  0  0  0  0  0  0  0  0  0
    6.7134  -12.1751   25.5375 C   0  0  1  0  0  0  0  0  0  0  0  0
    7.7894  -12.2550   26.5804 C   0  0  0  0  0  0  0  0  0  0  0  0
    6.1294  -13.4754   25.1224 C   0  0  2  0  0  0  0  0  0  0  0  0
    5.3774  -13.9970   26.2656 N   0  0  0  0  0  0  0  0  0  0  0  0
    7.0778  -14.5226   24.7202 C   0  0  0  0  0  0  0  0  0  0  0  0
    7.5683  -15.3251   25.5919 O   0  0  0  0  0  0  0  0  0  0  0  0
    8.8946  -18.3252   19.5473 N   0  0  0  0  0  0  0  0  0  0  0  0
    9.4472  -17.0248   19.7314 C   0  0  0  0  0  0  0  0  0  0  0  0
    9.5544  -16.2866   18.7325 O   0  0  0  0  0  0  0  0  0  0  0  0
    9.8757  -16.5965   21.1096 C   0  0  0  0  0  0  0  0  0  0  0  0
    8.8057  -15.6933   21.6243 C   0  0  0  0  0  0  0  0  0  0  0  0
    8.5541  -15.7765   23.1035 C   0  0  2  0  0  0  0  0  0  0  0  0
    7.5435  -14.7684   23.4009 N   0  0  0  0  0  0  0  0  0  0  0  0
    9.8062  -15.5890   23.8344 C   0  0  0  0  0  0  0  0  0  0  0  0
   10.3849  -14.4893   23.9871 O   0  0  0  0  0  0  0  0  0  0  0  0
   10.4438  -16.7144   24.4296 N   0  0  0  0  0  0  0  0  0  0  0  0
   11.1689  -16.6245   25.6812 C   0  0  1  0  0  0  0  0  0  0  0  0
   10.1807  -16.1323   26.7200 C   0  0  0  0  0  0  0  0  0  0  0  0
   10.7827  -16.1202   28.0893 C   0  0  0  0  0  0  0  0  0  0  0  0
   12.0359  -16.5472   28.4542 C   0  0  0  0  0  0  0  0  0  0  0  0
   12.1579  -16.3551   29.7744 N   0  0  0  0  0  0  0  0  0  0  0  0
   11.0147  -15.8216   30.2333 C   0  0  0  0  0  0  0  0  0  0  0  0
   10.1810  -15.6810   29.2020 N   0  0  0  0  0  0  0  0  0  0  0  0
   11.7330  -17.9355   26.0181 C   0  0  0  0  0  0  0  0  0  0  0  0
   11.3193  -18.9673   25.4389 O   0  0  0  0  0  0  0  0  0  0  0  0
   12.7265  -18.0829   26.9717 O   0  0  0  0  0  0  0  0  0  0  0  0
  2  4  1  0
  2  1  1  1
  3  2  1  0
  4  5  1  1
  6  4  1  0
  6  7  2  0
  9  8  1  0
  9 10  2  0
 11 12  1  0
 11  9  1  0
 13 12  1  6
 13 15  1  0
 13 14  1  0
 14  6  1  0
 15 17  1  0
 16 15  2  0
 17 18  1  0
 18 25  1  0
 18 19  1  1
 20 19  1  0
 21 20  2  0
 22 23  1  0
 22 21  1  0
 23 24  2  0
 24 20  1  0
 25 26  2  0
 25 27  1  0
M  END
$$$$
