VQH.pdb
     RDKit          3D

 27 27  0  0  1  0  0  0  0  0999 V2000
    8.8572  -13.1452   20.5886 C   0  0  0  0  0  0  0  0  0  0  0  0
    8.1312  -13.5750   19.3359 C   0  0  1  0  0  0  0  0  0  0  0  0
    7.0516  -12.5987   18.9711 C   0  0  0  0  0  0  0  0  0  0  0  0
    9.0249  -13.9834   18.2229 C   0  0  2  0  0  0  0  0  0  0  0  0
    8.1701  -14.4657   17.1360 N   0  0  0  0  0  0  0  0  0  0  0  0
    9.9903  -15.0515   18.5142 C   0  0  0  0  0  0  0  0  0  0  0  0
    9.6955  -16.2768   18.2772 O   0  0  0  0  0  0  0  0  0  0  0  0
   16.1322  -15.3726   18.1614 N   0  0  0  0  0  0  0  0  0  0  0  0
   15.2906  -14.2227   18.1635 C   0  0  0  0  0  0  0  0  0  0  0  0
   15.7027  -13.1937   17.5930 O   0  0  0  0  0  0  0  0  0  0  0  0
   13.9510  -14.2934   18.8467 C   0  0  0  0  0  0  0  0  0  0  0  0
   13.4832  -15.7041   18.7171 C   0  0  0  0  0  0  0  0  0  0  0  0
   12.1639  -16.0040   19.3709 C   0  0  2  0  0  0  0  0  0  0  0  0
   11.2909  -14.8786   19.0588 N   0  0  0  0  0  0  0  0  0  0  0  0
   12.3546  -16.2219   20.8039 C   0  0  0  0  0  0  0  0  0  0  0  0
   12.3515  -15.3171   21.6693 O   0  0  0  0  0  0  0  0  0  0  0  0
   12.5618  -17.5445   21.2886 N   0  0  0  0  0  0  0  0  0  0  0  0
   12.6210  -17.8529   22.7035 C   0  0  1  0  0  0  0  0  0  0  0  0
   12.4751  -19.3568   22.8256 C   0  0  0  0  0  0  0  0  0  0  0  0
   11.0790  -19.8002   22.5229 C   0  0  0  0  0  0  0  0  0  0  0  0
    9.9906  -19.0067   22.2547 C   0  0  0  0  0  0  0  0  0  0  0  0
    8.9450  -19.8167   22.0416 N   0  0  0  0  0  0  0  0  0  0  0  0
    9.3587  -21.0872   22.1710 C   0  0  0  0  0  0  0  0  0  0  0  0
   10.6595  -21.0705   22.4642 N   0  0  0  0  0  0  0  0  0  0  0  0
   13.8858  -17.3633   23.2611 C   0  0  0  0  0  0  0  0  0  0  0  0
   14.8076  -16.9885   22.4988 O   0  0  0  0  0  0  0  0  0  0  0  0
   14.1079  -17.2967   24.6266 O   0  0  0  0  0  0  0  0  0  0  0  0
  2  4  1  0
  2  1  1  1
  3  2  1  0
  4  5  1  6
  6  4  1  0
  6  7  2  0
  9  8  1  0
  9 10  2  0
 11 12  1  0
 11  9  1  0
 13 12  1  6
 13 15  1  0
 13 14  1  0
 14  6  1  0
 15 17  1  0
 16 15  2  0
 17 18  1  0
 18 25  1  0
 18 19  1  6
 20 19  1  0
 21 20  2  0
 22 23  1  0
 22 21  1  0
 23 24  2  0
 24 20  1  0
 25 26  2  0
 25 27  1  0
M  END
$$$$
