VQH.pdb
     RDKit          3D

 27 27  0  0  1  0  0  0  0  0999 V2000
    7.4423  -12.5877   19.3696 C   0  0  0  0  0  0  0  0  0  0  0  0
    8.8307  -13.1505   19.5610 C   0  0  1  0  0  0  0  0  0  0  0  0
    9.0186  -13.6722   20.9554 C   0  0  0  0  0  0  0  0  0  0  0  0
    9.2753  -14.0593   18.4744 C   0  0  2  0  0  0  0  0  0  0  0  0
    8.2658  -15.1129   18.3509 N   0  0  0  0  0  0  0  0  0  0  0  0
   10.5697  -14.7271   18.6656 C   0  0  0  0  0  0  0  0  0  0  0  0
   10.6218  -15.9821   18.9239 O   0  0  0  0  0  0  0  0  0  0  0  0
   13.1627  -17.1157   15.6378 N   0  0  0  0  0  0  0  0  0  0  0  0
   14.1137  -16.1359   16.0453 C   0  0  0  0  0  0  0  0  0  0  0  0
   15.2565  -16.5230   16.3588 O   0  0  0  0  0  0  0  0  0  0  0  0
   13.7067  -14.6869   16.0815 C   0  0  0  0  0  0  0  0  0  0  0  0
   13.9345  -14.2177   17.4792 C   0  0  0  0  0  0  0  0  0  0  0  0
   13.0839  -14.8823   18.5246 C   0  0  2  0  0  0  0  0  0  0  0  0
   11.8479  -14.1118   18.5927 N   0  0  0  0  0  0  0  0  0  0  0  0
   13.8093  -14.9455   19.7923 C   0  0  0  0  0  0  0  0  0  0  0  0
   14.8911  -15.5514   19.9654 O   0  0  0  0  0  0  0  0  0  0  0  0
   13.2787  -14.2826   20.9354 N   0  0  0  0  0  0  0  0  0  0  0  0
   13.1863  -14.9236   22.2319 C   0  0  1  0  0  0  0  0  0  0  0  0
   12.0380  -15.9095   22.1469 C   0  0  0  0  0  0  0  0  0  0  0  0
   11.9687  -16.7791   23.3620 C   0  0  0  0  0  0  0  0  0  0  0  0
   12.7567  -16.7093   24.4847 C   0  0  0  0  0  0  0  0  0  0  0  0
   12.3517  -17.6741   25.3211 N   0  0  0  0  0  0  0  0  0  0  0  0
   11.3360  -18.3366   24.7453 C   0  0  0  0  0  0  0  0  0  0  0  0
   11.1075  -17.7866   23.5521 N   0  0  0  0  0  0  0  0  0  0  0  0
   14.4620  -15.5720   22.5520 C   0  0  0  0  0  0  0  0  0  0  0  0
   14.6007  -16.1906   23.6333 O   0  0  0  0  0  0  0  0  0  0  0  0
   15.5439  -15.5275   21.6885 O   0  0  0  0  0  0  0  0  0  0  0  0
  2  4  1  0
  2  1  1  6
  3  2  1  0
  4  5  1  1
  6  4  1  0
  6  7  2  0
  9  8  1  0
  9 10  2  0
 11 12  1  0
 11  9  1  0
 13 12  1  6
 13 15  1  0
 13 14  1  0
 14  6  1  0
 15 17  1  0
 16 15  2  0
 17 18  1  0
 18 25  1  0
 18 19  1  6
 20 19  1  0
 21 20  2  0
 22 23  1  0
 22 21  1  0
 23 24  2  0
 24 20  1  0
 25 26  2  0
 25 27  1  0
M  END
$$$$
