VQH.pdb
     RDKit          3D

 27 27  0  0  1  0  0  0  0  0999 V2000
   10.0819  -12.6813   19.5271 C   0  0  0  0  0  0  0  0  0  0  0  0
    8.6776  -13.1724   19.2665 C   0  0  1  0  0  0  0  0  0  0  0  0
    7.6803  -12.0579   19.3893 C   0  0  0  0  0  0  0  0  0  0  0  0
    8.5427  -14.0186   18.0541 C   0  0  2  0  0  0  0  0  0  0  0  0
    7.1475  -14.4583   17.9860 N   0  0  0  0  0  0  0  0  0  0  0  0
    9.3755  -15.2275   18.0012 C   0  0  0  0  0  0  0  0  0  0  0  0
    9.0633  -16.2627   18.6906 O   0  0  0  0  0  0  0  0  0  0  0  0
   10.9747  -18.9541   13.4176 N   0  0  0  0  0  0  0  0  0  0  0  0
   10.5133  -17.6316   13.6789 C   0  0  0  0  0  0  0  0  0  0  0  0
   10.4181  -16.8434   12.7177 O   0  0  0  0  0  0  0  0  0  0  0  0
   10.1624  -17.2407   15.0897 C   0  0  0  0  0  0  0  0  0  0  0  0
   11.4543  -17.0708   15.8161 C   0  0  0  0  0  0  0  0  0  0  0  0
   11.3311  -16.6326   17.2482 C   0  0  2  0  0  0  0  0  0  0  0  0
   10.5561  -15.3976   17.2297 N   0  0  0  0  0  0  0  0  0  0  0  0
   12.6591  -16.4858   17.8416 C   0  0  0  0  0  0  0  0  0  0  0  0
   13.4906  -15.6068   17.5200 O   0  0  0  0  0  0  0  0  0  0  0  0
   13.0728  -17.3888   18.8618 N   0  0  0  0  0  0  0  0  0  0  0  0
   14.3646  -17.2881   19.5112 C   0  0  1  0  0  0  0  0  0  0  0  0
   14.4285  -15.9091   20.1372 C   0  0  0  0  0  0  0  0  0  0  0  0
   15.1052  -14.9265   19.2349 C   0  0  0  0  0  0  0  0  0  0  0  0
   15.6794  -15.1737   18.0121 C   0  0  0  0  0  0  0  0  0  0  0  0
   16.1666  -14.0128   17.5543 N   0  0  0  0  0  0  0  0  0  0  0  0
   15.9088  -13.0570   18.4609 C   0  0  0  0  0  0  0  0  0  0  0  0
   15.2620  -13.6199   19.4824 N   0  0  0  0  0  0  0  0  0  0  0  0
   14.5028  -18.3619   20.5003 C   0  0  0  0  0  0  0  0  0  0  0  0
   15.5706  -18.4927   21.1435 O   0  0  0  0  0  0  0  0  0  0  0  0
   13.4781  -19.2574   20.7581 O   0  0  0  0  0  0  0  0  0  0  0  0
  2  4  1  0
  2  1  1  6
  3  2  1  0
  4  5  1  1
  6  4  1  0
  6  7  2  0
  9  8  1  0
  9 10  2  0
 11 12  1  0
 11  9  1  0
 13 12  1  6
 13 15  1  0
 13 14  1  0
 14  6  1  0
 15 17  1  0
 16 15  2  0
 17 18  1  0
 18 25  1  0
 18 19  1  1
 20 19  1  0
 21 20  2  0
 22 23  1  0
 22 21  1  0
 23 24  2  0
 24 20  1  0
 25 26  2  0
 25 27  1  0
M  END
$$$$
