VQH.pdb
     RDKit          3D

 27 27  0  0  1  0  0  0  0  0999 V2000
    7.6823  -13.1436   17.6537 C   0  0  0  0  0  0  0  0  0  0  0  0
    8.0905  -13.6367   19.0216 C   0  0  1  0  0  0  0  0  0  0  0  0
    8.2714  -12.4958   19.9794 C   0  0  0  0  0  0  0  0  0  0  0  0
    7.2787  -14.7721   19.5278 C   0  0  2  0  0  0  0  0  0  0  0  0
    5.8864  -14.3211   19.5766 N   0  0  0  0  0  0  0  0  0  0  0  0
    7.6136  -15.2728   20.8676 C   0  0  0  0  0  0  0  0  0  0  0  0
    7.4155  -14.5424   21.9028 O   0  0  0  0  0  0  0  0  0  0  0  0
    7.8008  -21.1562   23.2648 N   0  0  0  0  0  0  0  0  0  0  0  0
    7.4739  -20.1407   24.2094 C   0  0  0  0  0  0  0  0  0  0  0  0
    6.5936  -20.3894   25.0563 O   0  0  0  0  0  0  0  0  0  0  0  0
    8.1959  -18.8211   24.1493 C   0  0  0  0  0  0  0  0  0  0  0  0
    7.8955  -18.2342   22.8111 C   0  0  0  0  0  0  0  0  0  0  0  0
    8.5677  -16.9218   22.5217 C   0  0  2  0  0  0  0  0  0  0  0  0
    8.1627  -16.5470   21.1720 N   0  0  0  0  0  0  0  0  0  0  0  0
   10.0142  -17.0544   22.6872 C   0  0  0  0  0  0  0  0  0  0  0  0
   10.8430  -17.0460   21.7488 O   0  0  0  0  0  0  0  0  0  0  0  0
   10.5575  -17.2058   23.9945 N   0  0  0  0  0  0  0  0  0  0  0  0
   11.9769  -17.0920   24.2639 C   0  0  1  0  0  0  0  0  0  0  0  0
   12.4173  -15.7521   23.7085 C   0  0  0  0  0  0  0  0  0  0  0  0
   13.1053  -15.9030   22.3890 C   0  0  0  0  0  0  0  0  0  0  0  0
   13.3072  -17.0620   21.6803 C   0  0  0  0  0  0  0  0  0  0  0  0
   13.9629  -16.7382   20.5579 N   0  0  0  0  0  0  0  0  0  0  0  0
   14.1707  -15.4120   20.5550 C   0  0  0  0  0  0  0  0  0  0  0  0
   13.6460  -14.9089   21.6730 N   0  0  0  0  0  0  0  0  0  0  0  0
   12.2147  -17.2088   25.7062 C   0  0  0  0  0  0  0  0  0  0  0  0
   13.3772  -17.3839   26.1412 O   0  0  0  0  0  0  0  0  0  0  0  0
   11.1837  -17.1316   26.6277 O   0  0  0  0  0  0  0  0  0  0  0  0
  2  4  1  0
  2  1  1  6
  3  2  1  0
  4  5  1  1
  6  4  1  0
  6  7  2  0
  9  8  1  0
  9 10  2  0
 11 12  1  0
 11  9  1  0
 13 12  1  6
 13 15  1  0
 13 14  1  0
 14  6  1  0
 15 17  1  0
 16 15  2  0
 17 18  1  0
 18 25  1  0
 18 19  1  1
 20 19  1  0
 21 20  2  0
 22 23  1  0
 22 21  1  0
 23 24  2  0
 24 20  1  0
 25 26  2  0
 25 27  1  0
M  END
$$$$
