EIQ.pdb
     RDKit          3D

 27 26  0  0  1  0  0  0  0  0999 V2000
    8.9299  -16.2122   20.4708 N   0  0  0  0  0  0  0  0  0  0  0  0
    8.0367  -16.3479   21.6204 C   0  0  1  0  0  0  0  0  0  0  0  0
    7.8608  -17.8077   21.9396 C   0  0  0  0  0  0  0  0  0  0  0  0
    8.6183  -18.7382   21.0354 C   0  0  0  0  0  0  0  0  0  0  0  0
    8.6332  -20.1406   21.4628 C   0  0  0  0  0  0  0  0  0  0  0  0
    9.2730  -21.0255   20.8562 O   0  0  0  0  0  0  0  0  0  0  0  0
    8.5908  -15.6456   22.7977 C   0  0  0  0  0  0  0  0  0  0  0  0
    9.8082  -15.5666   23.0894 O   0  0  0  0  0  0  0  0  0  0  0  0
    7.9062  -20.5390   22.6010 O   0  0  0  0  0  0  0  0  0  0  0  0
    6.9886  -11.3498   27.0968 C   0  0  0  0  0  0  0  0  0  0  0  0
    7.9613  -12.3524   26.5125 C   0  0  0  0  0  0  0  0  0  0  0  0
    7.2975  -13.2518   25.4942 C   0  0  2  0  0  0  0  0  0  0  0  0
    6.0293  -13.8640   26.0089 C   0  0  0  0  0  0  0  0  0  0  0  0
    8.2157  -14.2236   24.8492 C   0  0  2  0  0  0  0  0  0  0  0  0
    7.7612  -14.9664   23.7481 N   0  0  0  0  0  0  0  0  0  0  0  0
    8.8060  -15.1244   25.8917 C   0  0  0  0  0  0  0  0  0  0  0  0
    8.2043  -16.1497   26.3115 O   0  0  0  0  0  0  0  0  0  0  0  0
   14.2958  -15.9375   25.4135 N   0  0  0  0  0  0  0  0  0  0  0  0
   13.5440  -17.1184   25.2879 C   0  0  0  0  0  0  0  0  0  0  0  0
   13.8166  -18.0349   24.4849 O   0  0  0  0  0  0  0  0  0  0  0  0
   12.3406  -17.2656   26.1867 C   0  0  0  0  0  0  0  0  0  0  0  0
   12.1643  -16.0295   27.0112 C   0  0  0  0  0  0  0  0  0  0  0  0
   10.7411  -15.8244   27.3785 C   0  0  2  0  0  0  0  0  0  0  0  0
   10.0843  -14.8722   26.4689 N   0  0  0  0  0  0  0  0  0  0  0  0
   10.4724  -15.4653   28.7818 C   0  0  0  0  0  0  0  0  0  0  0  0
   10.8284  -16.2240   29.7482 O   0  0  0  0  0  0  0  0  0  0  0  0
    9.8289  -14.3016   29.1619 O   0  0  0  0  0  0  0  0  0  0  0  0
  2  1  1  6
  2  3  1  0
  4  3  1  0
  4  5  1  0
  5  9  1  0
  6  5  2  0
  7 15  1  0
  7  2  1  0
  8  7  2  0
 11 10  1  0
 12 11  1  0
 12 13  1  1
 14 15  1  6
 14 12  1  0
 16 14  1  0
 17 16  2  0
 19 20  2  0
 19 18  1  0
 21 19  1  0
 22 21  1  0
 23 22  1  1
 23 24  1  0
 24 16  1  0
 25 23  1  0
 26 25  2  0
 27 25  1  0
M  END
$$$$
