EIQ.pdb
     RDKit          3D

 27 26  0  0  1  0  0  0  0  0999 V2000
    8.6192  -15.0605   20.2934 N   0  0  0  0  0  0  0  0  0  0  0  0
    8.4949  -15.9530   21.4448 C   0  0  1  0  0  0  0  0  0  0  0  0
    9.3734  -17.1562   21.2342 C   0  0  0  0  0  0  0  0  0  0  0  0
    9.0884  -17.9221   19.9734 C   0  0  0  0  0  0  0  0  0  0  0  0
    9.8373  -19.1740   19.8272 C   0  0  0  0  0  0  0  0  0  0  0  0
    9.4375  -20.2599   20.2975 O   0  0  0  0  0  0  0  0  0  0  0  0
    8.8927  -15.2593   22.6884 C   0  0  0  0  0  0  0  0  0  0  0  0
   10.0725  -15.0187   23.0399 O   0  0  0  0  0  0  0  0  0  0  0  0
   11.0623  -19.1863   19.1329 O   0  0  0  0  0  0  0  0  0  0  0  0
    6.8826  -11.3801   27.1385 C   0  0  0  0  0  0  0  0  0  0  0  0
    7.8291  -12.4639   26.6671 C   0  0  0  0  0  0  0  0  0  0  0  0
    7.3140  -13.1600   25.4275 C   0  0  2  0  0  0  0  0  0  0  0  0
    5.9007  -13.6363   25.5818 C   0  0  0  0  0  0  0  0  0  0  0  0
    8.2367  -14.1836   24.8756 C   0  0  2  0  0  0  0  0  0  0  0  0
    7.9357  -14.7805   23.6412 N   0  0  0  0  0  0  0  0  0  0  0  0
    8.5116  -15.2254   25.9176 C   0  0  0  0  0  0  0  0  0  0  0  0
    7.9319  -16.3450   25.9167 O   0  0  0  0  0  0  0  0  0  0  0  0
   13.8741  -18.3010   26.0086 N   0  0  0  0  0  0  0  0  0  0  0  0
   12.5270  -17.9478   25.8186 C   0  0  0  0  0  0  0  0  0  0  0  0
   11.7868  -18.4654   24.9566 O   0  0  0  0  0  0  0  0  0  0  0  0
   11.9635  -16.8775   26.7212 C   0  0  0  0  0  0  0  0  0  0  0  0
   10.5394  -17.1900   27.0572 C   0  0  0  0  0  0  0  0  0  0  0  0
    9.9178  -16.0958   27.8438 C   0  0  2  0  0  0  0  0  0  0  0  0
    9.4464  -15.0087   26.9711 N   0  0  0  0  0  0  0  0  0  0  0  0
   10.7171  -15.5536   28.9562 C   0  0  0  0  0  0  0  0  0  0  0  0
   11.2085  -16.3124   29.8611 O   0  0  0  0  0  0  0  0  0  0  0  0
   10.9981  -14.2081   29.1090 O   0  0  0  0  0  0  0  0  0  0  0  0
  2  1  1  6
  2  3  1  0
  4  3  1  0
  4  5  1  0
  5  9  1  0
  6  5  2  0
  7 15  1  0
  7  2  1  0
  8  7  2  0
 11 10  1  0
 12 11  1  0
 12 13  1  1
 14 15  1  6
 14 12  1  0
 16 14  1  0
 17 16  2  0
 19 20  2  0
 19 18  1  0
 21 19  1  0
 22 21  1  0
 23 22  1  6
 23 24  1  0
 24 16  1  0
 25 23  1  0
 26 25  2  0
 27 25  1  0
M  END
$$$$
