EIQ.pdb
     RDKit          3D

 27 26  0  0  1  0  0  0  0  0999 V2000
    6.8413  -14.6840   19.7930 N   0  0  0  0  0  0  0  0  0  0  0  0
    6.7924  -15.7174   20.8262 C   0  0  1  0  0  0  0  0  0  0  0  0
    7.2124  -17.0330   20.2293 C   0  0  0  0  0  0  0  0  0  0  0  0
    6.2949  -17.5519   19.1586 C   0  0  0  0  0  0  0  0  0  0  0  0
    5.7102  -18.8689   19.4294 C   0  0  0  0  0  0  0  0  0  0  0  0
    5.9604  -19.5194   20.4660 O   0  0  0  0  0  0  0  0  0  0  0  0
    7.6887  -15.3738   21.9509 C   0  0  0  0  0  0  0  0  0  0  0  0
    8.9193  -15.6120   21.9973 O   0  0  0  0  0  0  0  0  0  0  0  0
    4.8258  -19.4524   18.5020 O   0  0  0  0  0  0  0  0  0  0  0  0
    7.8946  -11.7646   27.1066 C   0  0  0  0  0  0  0  0  0  0  0  0
    8.4889  -12.8057   26.1817 C   0  0  0  0  0  0  0  0  0  0  0  0
    7.4898  -13.2753   25.1483 C   0  0  2  0  0  0  0  0  0  0  0  0
    6.1646  -13.6328   25.7517 C   0  0  0  0  0  0  0  0  0  0  0  0
    8.0184  -14.2968   24.2098 C   0  0  2  0  0  0  0  0  0  0  0  0
    7.2199  -14.7143   23.1334 N   0  0  0  0  0  0  0  0  0  0  0  0
    8.5258  -15.4754   24.9846 C   0  0  0  0  0  0  0  0  0  0  0  0
    7.7671  -16.1881   25.6959 O   0  0  0  0  0  0  0  0  0  0  0  0
   12.6362  -19.2855   27.6029 N   0  0  0  0  0  0  0  0  0  0  0  0
   13.0319  -18.7957   26.3463 C   0  0  0  0  0  0  0  0  0  0  0  0
   14.1350  -18.2536   26.1265 O   0  0  0  0  0  0  0  0  0  0  0  0
   12.0494  -18.9446   25.2104 C   0  0  0  0  0  0  0  0  0  0  0  0
   11.5990  -17.5960   24.7442 C   0  0  0  0  0  0  0  0  0  0  0  0
   10.3601  -17.1700   25.4415 C   0  0  2  0  0  0  0  0  0  0  0  0
    9.8983  -15.8580   24.9609 N   0  0  0  0  0  0  0  0  0  0  0  0
   10.3957  -17.1960   26.9140 C   0  0  0  0  0  0  0  0  0  0  0  0
    9.8219  -18.1234   27.5825 O   0  0  0  0  0  0  0  0  0  0  0  0
   11.0412  -16.2412   27.6786 O   0  0  0  0  0  0  0  0  0  0  0  0
  2  1  1  6
  2  3  1  0
  4  3  1  0
  4  5  1  0
  5  9  1  0
  6  5  2  0
  7 15  1  0
  7  2  1  0
  8  7  2  0
 11 10  1  0
 12 11  1  0
 12 13  1  1
 14 15  1  6
 14 12  1  0
 16 14  1  0
 17 16  2  0
 19 20  2  0
 19 18  1  0
 21 19  1  0
 22 21  1  0
 23 22  1  6
 23 24  1  0
 24 16  1  0
 25 23  1  0
 26 25  2  0
 27 25  1  0
M  END
$$$$
