EIQ.pdb
     RDKit          3D

 27 26  0  0  1  0  0  0  0  0999 V2000
    7.5925  -16.4535   21.0169 N   0  0  0  0  0  0  0  0  0  0  0  0
    8.7894  -16.9054   21.7248 C   0  0  1  0  0  0  0  0  0  0  0  0
    9.9071  -17.0931   20.7352 C   0  0  0  0  0  0  0  0  0  0  0  0
    9.4546  -17.4035   19.3366 C   0  0  0  0  0  0  0  0  0  0  0  0
   10.5357  -17.6095   18.3678 C   0  0  0  0  0  0  0  0  0  0  0  0
   10.6758  -16.8991   17.3500 O   0  0  0  0  0  0  0  0  0  0  0  0
    9.1937  -15.9188   22.7492 C   0  0  0  0  0  0  0  0  0  0  0  0
   10.3758  -15.6499   23.0714 O   0  0  0  0  0  0  0  0  0  0  0  0
   11.4715  -18.6431   18.5642 O   0  0  0  0  0  0  0  0  0  0  0  0
    7.0261  -11.5296   26.7030 C   0  0  0  0  0  0  0  0  0  0  0  0
    8.0317  -12.5901   26.3068 C   0  0  0  0  0  0  0  0  0  0  0  0
    7.5343  -13.4339   25.1549 C   0  0  2  0  0  0  0  0  0  0  0  0
    6.1513  -13.9645   25.3869 C   0  0  0  0  0  0  0  0  0  0  0  0
    8.5013  -14.4592   24.6886 C   0  0  2  0  0  0  0  0  0  0  0  0
    8.2412  -15.1514   23.4954 N   0  0  0  0  0  0  0  0  0  0  0  0
    8.7965  -15.4151   25.8049 C   0  0  0  0  0  0  0  0  0  0  0  0
    7.9813  -16.3112   26.1544 O   0  0  0  0  0  0  0  0  0  0  0  0
   12.6752  -19.9174   25.9538 N   0  0  0  0  0  0  0  0  0  0  0  0
   12.6531  -18.5573   25.5998 C   0  0  0  0  0  0  0  0  0  0  0  0
   13.6000  -17.9691   25.0373 O   0  0  0  0  0  0  0  0  0  0  0  0
   11.4006  -17.7821   25.9285 C   0  0  0  0  0  0  0  0  0  0  0  0
   11.5411  -17.1278   27.2668 C   0  0  0  0  0  0  0  0  0  0  0  0
   10.3391  -16.3254   27.6040 C   0  0  2  0  0  0  0  0  0  0  0  0
   10.0185  -15.3649   26.5361 N   0  0  0  0  0  0  0  0  0  0  0  0
   10.3468  -15.6542   28.9153 C   0  0  0  0  0  0  0  0  0  0  0  0
   10.2790  -14.3809   29.0175 O   0  0  0  0  0  0  0  0  0  0  0  0
   10.4237  -16.3315   30.1188 O   0  0  0  0  0  0  0  0  0  0  0  0
  2  1  1  6
  2  3  1  0
  4  3  1  0
  4  5  1  0
  5  9  1  0
  6  5  2  0
  7 15  1  0
  7  2  1  0
  8  7  2  0
 11 10  1  0
 12 11  1  0
 12 13  1  1
 14 15  1  6
 14 12  1  0
 16 14  1  0
 17 16  2  0
 19 20  2  0
 19 18  1  0
 21 19  1  0
 22 21  1  0
 23 22  1  6
 23 24  1  0
 24 16  1  0
 25 23  1  0
 26 25  2  0
 27 25  1  0
M  END
$$$$
