EIQ.pdb
     RDKit          3D

 27 26  0  0  1  0  0  0  0  0999 V2000
    8.4616  -14.5629   20.0722 N   0  0  0  0  0  0  0  0  0  0  0  0
    7.5398  -14.9412   21.1422 C   0  0  1  0  0  0  0  0  0  0  0  0
    7.1025  -16.3661   20.9366 C   0  0  0  0  0  0  0  0  0  0  0  0
    8.2026  -17.3804   21.0717 C   0  0  0  0  0  0  0  0  0  0  0  0
    7.7841  -18.7745   20.8954 C   0  0  0  0  0  0  0  0  0  0  0  0
    8.5405  -19.7416   21.1250 O   0  0  0  0  0  0  0  0  0  0  0  0
    8.1901  -14.8072   22.4633 C   0  0  0  0  0  0  0  0  0  0  0  0
    9.3999  -15.0354   22.7033 O   0  0  0  0  0  0  0  0  0  0  0  0
    6.4813  -19.0690   20.4498 O   0  0  0  0  0  0  0  0  0  0  0  0
    5.8780  -11.3741   26.3548 C   0  0  0  0  0  0  0  0  0  0  0  0
    6.8025  -12.0651   25.3747 C   0  0  0  0  0  0  0  0  0  0  0  0
    7.2969  -13.3910   25.9075 C   0  0  2  0  0  0  0  0  0  0  0  0
    8.0078  -13.2533   27.2204 C   0  0  0  0  0  0  0  0  0  0  0  0
    8.0280  -14.2136   24.9113 C   0  0  2  0  0  0  0  0  0  0  0  0
    7.4755  -14.3899   23.6329 N   0  0  0  0  0  0  0  0  0  0  0  0
    8.3919  -15.5339   25.5206 C   0  0  0  0  0  0  0  0  0  0  0  0
    7.5432  -16.4503   25.6930 O   0  0  0  0  0  0  0  0  0  0  0  0
   13.2926  -18.7784   24.3285 N   0  0  0  0  0  0  0  0  0  0  0  0
   12.9229  -19.5054   25.4732 C   0  0  0  0  0  0  0  0  0  0  0  0
   13.5035  -20.5421   25.8568 O   0  0  0  0  0  0  0  0  0  0  0  0
   11.7522  -18.9837   26.2700 C   0  0  0  0  0  0  0  0  0  0  0  0
   11.2363  -17.7216   25.6537 C   0  0  0  0  0  0  0  0  0  0  0  0
   10.1142  -17.1552   26.4426 C   0  0  2  0  0  0  0  0  0  0  0  0
    9.7212  -15.8289   25.9405 N   0  0  0  0  0  0  0  0  0  0  0  0
   10.2937  -17.1203   27.9043 C   0  0  0  0  0  0  0  0  0  0  0  0
   10.5044  -16.0236   28.5282 O   0  0  0  0  0  0  0  0  0  0  0  0
   10.2476  -18.2464   28.7059 O   0  0  0  0  0  0  0  0  0  0  0  0
  2  1  1  6
  2  3  1  0
  4  3  1  0
  4  5  1  0
  5  9  1  0
  6  5  2  0
  7 15  1  0
  7  2  1  0
  8  7  2  0
 11 10  1  0
 12 11  1  0
 12 13  1  1
 14 15  1  6
 14 12  1  0
 16 14  1  0
 17 16  2  0
 19 20  2  0
 19 18  1  0
 21 19  1  0
 22 21  1  0
 23 22  1  6
 23 24  1  0
 24 16  1  0
 25 23  1  0
 26 25  2  0
 27 25  1  0
M  END
$$$$
