EIQ.pdb
     RDKit          3D

 27 26  0  0  1  0  0  0  0  0999 V2000
    9.5837  -15.6422   20.3827 N   0  0  0  0  0  0  0  0  0  0  0  0
    8.8600  -16.2592   21.4931 C   0  0  1  0  0  0  0  0  0  0  0  0
    9.2592  -17.7059   21.5998 C   0  0  0  0  0  0  0  0  0  0  0  0
    8.6346  -18.4407   22.7519 C   0  0  0  0  0  0  0  0  0  0  0  0
    9.5115  -19.4098   23.4164 C   0  0  0  0  0  0  0  0  0  0  0  0
   10.0928  -19.1669   24.4950 O   0  0  0  0  0  0  0  0  0  0  0  0
    9.1629  -15.5656   22.7633 C   0  0  0  0  0  0  0  0  0  0  0  0
   10.3089  -15.4052   23.2474 O   0  0  0  0  0  0  0  0  0  0  0  0
    9.7282  -20.6762   22.8403 O   0  0  0  0  0  0  0  0  0  0  0  0
    6.7798  -11.3917   26.7498 C   0  0  0  0  0  0  0  0  0  0  0  0
    7.8070  -12.4470   26.3974 C   0  0  0  0  0  0  0  0  0  0  0  0
    7.3422  -13.3254   25.2578 C   0  0  2  0  0  0  0  0  0  0  0  0
    5.9849  -13.9136   25.5027 C   0  0  0  0  0  0  0  0  0  0  0  0
    8.3514  -14.3126   24.7987 C   0  0  2  0  0  0  0  0  0  0  0  0
    8.1415  -14.9921   23.5884 N   0  0  0  0  0  0  0  0  0  0  0  0
    8.6494  -15.2777   25.9062 C   0  0  0  0  0  0  0  0  0  0  0  0
    7.9084  -16.2680   26.1510 O   0  0  0  0  0  0  0  0  0  0  0  0
   13.2067  -18.6112   26.2291 N   0  0  0  0  0  0  0  0  0  0  0  0
   12.7067  -18.9982   27.4844 C   0  0  0  0  0  0  0  0  0  0  0  0
   13.1047  -20.0009   28.1130 O   0  0  0  0  0  0  0  0  0  0  0  0
   11.6255  -18.1360   28.0888 C   0  0  0  0  0  0  0  0  0  0  0  0
   11.2919  -17.0099   27.1618 C   0  0  0  0  0  0  0  0  0  0  0  0
   10.2008  -16.1657   27.7089 C   0  0  2  0  0  0  0  0  0  0  0  0
    9.7902  -15.1302   26.7472 N   0  0  0  0  0  0  0  0  0  0  0  0
   10.4354  -15.5719   29.0364 C   0  0  0  0  0  0  0  0  0  0  0  0
   10.6921  -16.2960   30.0592 O   0  0  0  0  0  0  0  0  0  0  0  0
   10.4007  -14.2110   29.2806 O   0  0  0  0  0  0  0  0  0  0  0  0
  2  1  1  6
  2  3  1  0
  4  3  1  0
  4  5  1  0
  5  9  1  0
  6  5  2  0
  7 15  1  0
  7  2  1  0
  8  7  2  0
 11 10  1  0
 12 11  1  0
 12 13  1  1
 14 15  1  6
 14 12  1  0
 16 14  1  0
 17 16  2  0
 19 20  2  0
 19 18  1  0
 21 19  1  0
 22 21  1  0
 23 22  1  6
 23 24  1  0
 24 16  1  0
 25 23  1  0
 26 25  2  0
 27 25  1  0
M  END
$$$$
