EIQ.pdb
     RDKit          3D

 27 26  0  0  1  0  0  0  0  0999 V2000
    8.5952  -14.8786   20.1745 N   0  0  0  0  0  0  0  0  0  0  0  0
    7.5380  -14.8528   21.1842 C   0  0  1  0  0  0  0  0  0  0  0  0
    6.6653  -16.0669   21.0168 C   0  0  0  0  0  0  0  0  0  0  0  0
    7.3969  -17.3763   21.1042 C   0  0  0  0  0  0  0  0  0  0  0  0
    6.5792  -18.5617   20.8287 C   0  0  0  0  0  0  0  0  0  0  0  0
    5.3725  -18.4923   20.5139 O   0  0  0  0  0  0  0  0  0  0  0  0
    8.1162  -14.8409   22.5451 C   0  0  0  0  0  0  0  0  0  0  0  0
    9.2678  -15.2351   22.8480 O   0  0  0  0  0  0  0  0  0  0  0  0
    7.1484  -19.8468   20.9141 O   0  0  0  0  0  0  0  0  0  0  0  0
    6.0645  -11.0941   26.2695 C   0  0  0  0  0  0  0  0  0  0  0  0
    6.8854  -11.9398   25.3190 C   0  0  0  0  0  0  0  0  0  0  0  0
    7.2404  -13.2800   25.9225 C   0  0  2  0  0  0  0  0  0  0  0  0
    7.9376  -13.1484   27.2434 C   0  0  0  0  0  0  0  0  0  0  0  0
    7.9068  -14.2148   24.9813 C   0  0  2  0  0  0  0  0  0  0  0  0
    7.3909  -14.3617   23.6841 N   0  0  0  0  0  0  0  0  0  0  0  0
    8.0807  -15.5503   25.6394 C   0  0  0  0  0  0  0  0  0  0  0  0
    7.1148  -16.3401   25.8207 O   0  0  0  0  0  0  0  0  0  0  0  0
   11.1863  -19.9706   23.9310 N   0  0  0  0  0  0  0  0  0  0  0  0
   11.9852  -18.8487   24.2111 C   0  0  0  0  0  0  0  0  0  0  0  0
   13.0916  -18.6308   23.6749 O   0  0  0  0  0  0  0  0  0  0  0  0
   11.4543  -17.8626   25.2228 C   0  0  0  0  0  0  0  0  0  0  0  0
   10.1004  -18.2920   25.6932 C   0  0  0  0  0  0  0  0  0  0  0  0
    9.5470  -17.3386   26.6868 C   0  0  2  0  0  0  0  0  0  0  0  0
    9.3511  -16.0041   26.0984 N   0  0  0  0  0  0  0  0  0  0  0  0
   10.2674  -17.2362   27.9677 C   0  0  0  0  0  0  0  0  0  0  0  0
   10.4877  -18.2635   28.6973 O   0  0  0  0  0  0  0  0  0  0  0  0
   10.7568  -16.0462   28.4749 O   0  0  0  0  0  0  0  0  0  0  0  0
  2  1  1  6
  2  3  1  0
  4  3  1  0
  4  5  1  0
  5  9  1  0
  6  5  2  0
  7 15  1  0
  7  2  1  0
  8  7  2  0
 11 10  1  0
 12 11  1  0
 12 13  1  1
 14 15  1  6
 14 12  1  0
 16 14  1  0
 17 16  2  0
 19 20  2  0
 19 18  1  0
 21 19  1  0
 22 21  1  0
 23 22  1  6
 23 24  1  0
 24 16  1  0
 25 23  1  0
 26 25  2  0
 27 25  1  0
M  END
$$$$
