EIQ.pdb
     RDKit          3D

 27 26  0  0  1  0  0  0  0  0999 V2000
    8.2683  -15.3677   19.7839 N   0  0  0  0  0  0  0  0  0  0  0  0
    7.3606  -15.5459   20.9162 C   0  0  1  0  0  0  0  0  0  0  0  0
    6.9987  -17.0015   21.0347 C   0  0  0  0  0  0  0  0  0  0  0  0
    6.3687  -17.5886   19.8036 C   0  0  0  0  0  0  0  0  0  0  0  0
    6.0022  -19.0042   19.9109 C   0  0  0  0  0  0  0  0  0  0  0  0
    5.4062  -19.6189   19.0015 O   0  0  0  0  0  0  0  0  0  0  0  0
    7.9951  -15.0883   22.1709 C   0  0  0  0  0  0  0  0  0  0  0  0
    9.1586  -15.3742   22.5422 O   0  0  0  0  0  0  0  0  0  0  0  0
    6.3214  -19.7293   21.0749 O   0  0  0  0  0  0  0  0  0  0  0  0
    7.0685  -11.3081   27.1427 C   0  0  0  0  0  0  0  0  0  0  0  0
    7.8030  -12.4206   26.4246 C   0  0  0  0  0  0  0  0  0  0  0  0
    7.1168  -12.8051   25.1332 C   0  0  2  0  0  0  0  0  0  0  0  0
    5.6412  -13.0074   25.3051 C   0  0  0  0  0  0  0  0  0  0  0  0
    7.7906  -13.8972   24.3869 C   0  0  2  0  0  0  0  0  0  0  0  0
    7.3178  -14.2469   23.1122 N   0  0  0  0  0  0  0  0  0  0  0  0
    7.9041  -15.1081   25.2631 C   0  0  0  0  0  0  0  0  0  0  0  0
    6.9298  -15.8816   25.4687 O   0  0  0  0  0  0  0  0  0  0  0  0
    9.1964  -20.3157   25.5878 N   0  0  0  0  0  0  0  0  0  0  0  0
   10.5484  -20.0479   25.8630 C   0  0  0  0  0  0  0  0  0  0  0  0
   11.4089  -20.9329   26.0511 O   0  0  0  0  0  0  0  0  0  0  0  0
   10.9617  -18.5979   25.9304 C   0  0  0  0  0  0  0  0  0  0  0  0
    9.8591  -17.7278   25.4148 C   0  0  0  0  0  0  0  0  0  0  0  0
    9.3707  -16.7976   26.4630 C   0  0  2  0  0  0  0  0  0  0  0  0
    9.1229  -15.4545   25.9151 N   0  0  0  0  0  0  0  0  0  0  0  0
   10.1801  -16.7118   27.6909 C   0  0  0  0  0  0  0  0  0  0  0  0
   10.0755  -17.5793   28.6251 O   0  0  0  0  0  0  0  0  0  0  0  0
   11.1021  -15.7087   27.9285 O   0  0  0  0  0  0  0  0  0  0  0  0
  2  1  1  6
  2  3  1  0
  4  3  1  0
  4  5  1  0
  5  9  1  0
  6  5  2  0
  7 15  1  0
  7  2  1  0
  8  7  2  0
 11 10  1  0
 12 11  1  0
 12 13  1  1
 14 15  1  6
 14 12  1  0
 16 14  1  0
 17 16  2  0
 19 20  2  0
 19 18  1  0
 21 19  1  0
 22 21  1  0
 23 22  1  6
 23 24  1  0
 24 16  1  0
 25 23  1  0
 26 25  2  0
 27 25  1  0
M  END
$$$$
