EIQ.pdb
     RDKit          3D

 27 26  0  0  1  0  0  0  0  0999 V2000
    7.3333  -14.1644   20.3065 N   0  0  0  0  0  0  0  0  0  0  0  0
    7.0865  -15.0523   21.4416 C   0  0  1  0  0  0  0  0  0  0  0  0
    7.4186  -16.4651   21.0449 C   0  0  0  0  0  0  0  0  0  0  0  0
    7.4597  -16.7019   19.5618 C   0  0  0  0  0  0  0  0  0  0  0  0
    7.6825  -18.0952   19.1634 C   0  0  0  0  0  0  0  0  0  0  0  0
    8.7674  -18.6859   19.3481 O   0  0  0  0  0  0  0  0  0  0  0  0
    7.9110  -14.6560   22.6033 C   0  0  0  0  0  0  0  0  0  0  0  0
    9.1543  -14.4909   22.5885 O   0  0  0  0  0  0  0  0  0  0  0  0
    6.6501  -18.8256   18.5443 O   0  0  0  0  0  0  0  0  0  0  0  0
    5.6708  -11.6527   26.8063 C   0  0  0  0  0  0  0  0  0  0  0  0
    6.6331  -12.1277   25.7381 C   0  0  0  0  0  0  0  0  0  0  0  0
    7.3721  -13.3768   26.1626 C   0  0  2  0  0  0  0  0  0  0  0  0
    8.2269  -13.1546   27.3741 C   0  0  0  0  0  0  0  0  0  0  0  0
    8.0690  -14.0783   25.0553 C   0  0  2  0  0  0  0  0  0  0  0  0
    7.3483  -14.4151   23.8988 N   0  0  0  0  0  0  0  0  0  0  0  0
    8.7955  -15.2726   25.5964 C   0  0  0  0  0  0  0  0  0  0  0  0
    8.2010  -16.3469   25.8829 O   0  0  0  0  0  0  0  0  0  0  0  0
   14.5384  -16.6180   23.9675 N   0  0  0  0  0  0  0  0  0  0  0  0
   14.3392  -17.7020   24.8398 C   0  0  0  0  0  0  0  0  0  0  0  0
   15.1538  -18.6369   24.9853 O   0  0  0  0  0  0  0  0  0  0  0  0
   13.0580  -17.7156   25.6373 C   0  0  0  0  0  0  0  0  0  0  0  0
   12.2301  -16.5171   25.2950 C   0  0  0  0  0  0  0  0  0  0  0  0
   10.9707  -16.4893   26.0795 C   0  0  2  0  0  0  0  0  0  0  0  0
   10.2031  -15.2612   25.8182 N   0  0  0  0  0  0  0  0  0  0  0  0
   11.0971  -16.7192   27.5290 C   0  0  0  0  0  0  0  0  0  0  0  0
   11.5415  -17.8238   27.9967 O   0  0  0  0  0  0  0  0  0  0  0  0
   10.7552  -15.7786   28.4835 O   0  0  0  0  0  0  0  0  0  0  0  0
  2  1  1  6
  2  3  1  0
  4  3  1  0
  4  5  1  0
  5  9  1  0
  6  5  2  0
  7 15  1  0
  7  2  1  0
  8  7  2  0
 11 10  1  0
 12 11  1  0
 12 13  1  1
 14 15  1  6
 14 12  1  0
 16 14  1  0
 17 16  2  0
 19 20  2  0
 19 18  1  0
 21 19  1  0
 22 21  1  0
 23 22  1  1
 23 24  1  0
 24 16  1  0
 25 23  1  0
 26 25  2  0
 27 25  1  0
M  END
$$$$
