EIQ.pdb
     RDKit          3D

 27 26  0  0  1  0  0  0  0  0999 V2000
    9.2955  -15.2915   19.9416 N   0  0  0  0  0  0  0  0  0  0  0  0
    8.3885  -15.8002   20.9694 C   0  0  1  0  0  0  0  0  0  0  0  0
    8.3526  -17.3026   20.8969 C   0  0  0  0  0  0  0  0  0  0  0  0
    7.0183  -17.8755   20.5113 C   0  0  0  0  0  0  0  0  0  0  0  0
    6.9736  -19.3386   20.4284 C   0  0  0  0  0  0  0  0  0  0  0  0
    7.8498  -20.0097   19.8434 O   0  0  0  0  0  0  0  0  0  0  0  0
    8.8348  -15.3785   22.3145 C   0  0  0  0  0  0  0  0  0  0  0  0
    9.9987  -15.5029   22.7653 O   0  0  0  0  0  0  0  0  0  0  0  0
    5.9117  -20.0468   21.0229 O   0  0  0  0  0  0  0  0  0  0  0  0
    7.1825  -11.7342   27.1442 C   0  0  0  0  0  0  0  0  0  0  0  0
    8.0397  -12.8249   26.5376 C   0  0  0  0  0  0  0  0  0  0  0  0
    7.4502  -13.3515   25.2485 C   0  0  2  0  0  0  0  0  0  0  0  0
    6.0154  -13.7602   25.3980 C   0  0  0  0  0  0  0  0  0  0  0  0
    8.2941  -14.3602   24.5599 C   0  0  2  0  0  0  0  0  0  0  0  0
    7.9499  -14.7676   23.2614 N   0  0  0  0  0  0  0  0  0  0  0  0
    8.4901  -15.5462   25.4554 C   0  0  0  0  0  0  0  0  0  0  0  0
    7.5987  -16.4240   25.6115 O   0  0  0  0  0  0  0  0  0  0  0  0
   12.9058  -19.2429   24.9258 N   0  0  0  0  0  0  0  0  0  0  0  0
   12.4339  -19.8172   26.1186 C   0  0  0  0  0  0  0  0  0  0  0  0
   12.8400  -20.9062   26.5750 O   0  0  0  0  0  0  0  0  0  0  0  0
   11.3739  -19.0550   26.8758 C   0  0  0  0  0  0  0  0  0  0  0  0
   11.0478  -17.7834   26.1579 C   0  0  0  0  0  0  0  0  0  0  0  0
   10.0009  -17.0127   26.8738 C   0  0  2  0  0  0  0  0  0  0  0  0
    9.6985  -15.7491   26.1830 N   0  0  0  0  0  0  0  0  0  0  0  0
   10.2308  -16.7731   28.3090 C   0  0  0  0  0  0  0  0  0  0  0  0
   10.4568  -15.5997   28.7653 O   0  0  0  0  0  0  0  0  0  0  0  0
   10.2188  -17.7758   29.2616 O   0  0  0  0  0  0  0  0  0  0  0  0
  2  1  1  6
  2  3  1  0
  4  3  1  0
  4  5  1  0
  5  9  1  0
  6  5  2  0
  7 15  1  0
  7  2  1  0
  8  7  2  0
 11 10  1  0
 12 11  1  0
 12 13  1  1
 14 15  1  6
 14 12  1  0
 16 14  1  0
 17 16  2  0
 19 20  2  0
 19 18  1  0
 21 19  1  0
 22 21  1  0
 23 22  1  6
 23 24  1  0
 24 16  1  0
 25 23  1  0
 26 25  2  0
 27 25  1  0
M  END
$$$$
