EIQ.pdb
     RDKit          3D

 27 26  0  0  1  0  0  0  0  0999 V2000
    5.5474  -17.6979   22.4092 N   0  0  0  0  0  0  0  0  0  0  0  0
    7.0041  -17.5971   22.3343 C   0  0  1  0  0  0  0  0  0  0  0  0
    7.4392  -17.7822   20.9059 C   0  0  0  0  0  0  0  0  0  0  0  0
    6.8921  -19.0147   20.2434 C   0  0  0  0  0  0  0  0  0  0  0  0
    7.2633  -19.1763   18.8342 C   0  0  0  0  0  0  0  0  0  0  0  0
    8.0222  -18.3822   18.2396 O   0  0  0  0  0  0  0  0  0  0  0  0
    7.4621  -16.2800   22.8260 C   0  0  0  0  0  0  0  0  0  0  0  0
    8.2479  -15.5123   22.2207 O   0  0  0  0  0  0  0  0  0  0  0  0
    6.7598  -20.2619   18.0921 O   0  0  0  0  0  0  0  0  0  0  0  0
    7.1857  -11.6879   26.9998 C   0  0  0  0  0  0  0  0  0  0  0  0
    7.9688  -12.7654   26.2799 C   0  0  0  0  0  0  0  0  0  0  0  0
    7.0583  -13.7575   25.5920 C   0  0  2  0  0  0  0  0  0  0  0  0
    5.9516  -14.2352   26.4837 C   0  0  0  0  0  0  0  0  0  0  0  0
    7.7717  -14.8485   24.8818 C   0  0  2  0  0  0  0  0  0  0  0  0
    7.0370  -15.7386   24.0826 N   0  0  0  0  0  0  0  0  0  0  0  0
    8.6391  -15.5945   25.8502 C   0  0  0  0  0  0  0  0  0  0  0  0
    8.1828  -16.4985   26.6015 O   0  0  0  0  0  0  0  0  0  0  0  0
   14.4586  -17.6747   24.1171 N   0  0  0  0  0  0  0  0  0  0  0  0
   13.8676  -16.4748   24.5491 C   0  0  0  0  0  0  0  0  0  0  0  0
   14.4619  -15.3771   24.5773 O   0  0  0  0  0  0  0  0  0  0  0  0
   12.4291  -16.5411   25.0008 C   0  0  0  0  0  0  0  0  0  0  0  0
   12.3156  -16.0681   26.4158 C   0  0  0  0  0  0  0  0  0  0  0  0
   10.9062  -16.0890   26.8803 C   0  0  2  0  0  0  0  0  0  0  0  0
   10.0324  -15.3236   25.9768 N   0  0  0  0  0  0  0  0  0  0  0  0
   10.6723  -15.6942   28.2801 C   0  0  0  0  0  0  0  0  0  0  0  0
   10.1950  -14.5466   28.5825 O   0  0  0  0  0  0  0  0  0  0  0  0
   10.9416  -16.5155   29.3598 O   0  0  0  0  0  0  0  0  0  0  0  0
  2  1  1  6
  2  3  1  0
  4  3  1  0
  4  5  1  0
  5  9  1  0
  6  5  2  0
  7 15  1  0
  7  2  1  0
  8  7  2  0
 11 10  1  0
 12 11  1  0
 12 13  1  1
 14 15  1  1
 14 12  1  0
 16 14  1  0
 17 16  2  0
 19 20  2  0
 19 18  1  0
 21 19  1  0
 22 21  1  0
 23 22  1  6
 23 24  1  0
 24 16  1  0
 25 23  1  0
 26 25  2  0
 27 25  1  0
M  END
$$$$
