ENV.pdb
     RDKit          3D

 25 24  0  0  1  0  0  0  0  0999 V2000
   30.3364  -24.4961  -17.3792 N   0  0  0  0  0  0  0  0  0  0  0  0
   28.9122  -24.4175  -17.3011 C   0  0  1  0  0  0  0  0  0  0  0  0
   28.2575  -25.5920  -16.6656 C   0  0  0  0  0  0  0  0  0  0  0  0
   27.2504  -26.3390  -17.4504 C   0  0  0  0  0  0  0  0  0  0  0  0
   25.8774  -25.9890  -17.1144 C   0  0  0  0  0  0  0  0  0  0  0  0
   25.1404  -26.4985  -16.2547 O   0  0  0  0  0  0  0  0  0  0  0  0
   28.5743  -23.2315  -16.4200 C   0  0  0  0  0  0  0  0  0  0  0  0
   29.3819  -22.9170  -15.5375 O   0  0  0  0  0  0  0  0  0  0  0  0
   25.2889  -24.9363  -17.8499 O   0  0  0  0  0  0  0  0  0  0  0  0
   27.2088  -18.2457  -15.1894 N   0  0  0  0  0  0  0  0  0  0  0  0
   26.2321  -19.0453  -15.8230 C   0  0  0  0  0  0  0  0  0  0  0  0
   25.0309  -18.7962  -15.6732 O   0  0  0  0  0  0  0  0  0  0  0  0
   26.6726  -20.1790  -16.6635 C   0  0  0  0  0  0  0  0  0  0  0  0
   26.9992  -21.3870  -15.8510 C   0  0  2  0  0  0  0  0  0  0  0  0
   27.3673  -22.5269  -16.6252 N   0  0  0  0  0  0  0  0  0  0  0  0
   25.8631  -21.6557  -14.9021 C   0  0  0  0  0  0  0  0  0  0  0  0
   24.8721  -22.2582  -15.3444 O   0  0  0  0  0  0  0  0  0  0  0  0
   25.5985  -19.8959  -10.8870 C   0  0  0  0  0  0  0  0  0  0  0  0
   25.3253  -21.3352  -11.1790 C   0  0  2  0  0  0  0  0  0  0  0  0
   26.4907  -22.2468  -10.9029 C   0  0  0  0  0  0  0  0  0  0  0  0
   24.8793  -21.4862  -12.6134 C   0  0  2  0  0  0  0  0  0  0  0  0
   25.9375  -21.2292  -13.5513 N   0  0  0  0  0  0  0  0  0  0  0  0
   23.7520  -20.5605  -12.8752 C   0  0  0  0  0  0  0  0  0  0  0  0
   23.8433  -19.5289  -13.5834 O   0  0  0  0  0  0  0  0  0  0  0  0
   22.4888  -20.8117  -12.3194 O   0  0  0  0  0  0  0  0  0  0  0  0
  2  1  1  1
  2  7  1  0
  3  4  1  0
  3  2  1  0
  5  4  1  0
  6  5  2  0
  7  8  2  0
  9  5  1  0
 11 10  1  0
 11 12  2  0
 14 13  1  6
 13 11  1  0
 15  7  1  0
 15 14  1  0
 16 14  1  0
 16 17  2  0
 19 18  1  6
 19 21  1  0
 20 19  1  0
 21 23  1  0
 21 22  1  6
 22 16  1  0
 23 25  1  0
 24 23  2  0
M  END
$$$$
