ENV.pdb
     RDKit          3D

 25 24  0  0  1  0  0  0  0  0999 V2000
   28.1161  -18.7746  -13.7139 N   0  0  0  0  0  0  0  0  0  0  0  0
   27.3133  -18.9561  -14.8814 C   0  0  1  0  0  0  0  0  0  0  0  0
   28.0036  -19.6299  -16.0133 C   0  0  0  0  0  0  0  0  0  0  0  0
   28.8258  -20.8236  -15.7182 C   0  0  0  0  0  0  0  0  0  0  0  0
   28.5484  -21.9507  -16.5976 C   0  0  0  0  0  0  0  0  0  0  0  0
   28.5038  -23.1584  -16.3122 O   0  0  0  0  0  0  0  0  0  0  0  0
   26.1634  -19.8668  -14.4999 C   0  0  0  0  0  0  0  0  0  0  0  0
   25.3781  -20.2123  -15.3909 O   0  0  0  0  0  0  0  0  0  0  0  0
   28.2945  -21.6536  -17.9550 O   0  0  0  0  0  0  0  0  0  0  0  0
   25.2253  -20.4271   -9.2119 N   0  0  0  0  0  0  0  0  0  0  0  0
   25.8187  -20.7404  -10.4546 C   0  0  0  0  0  0  0  0  0  0  0  0
   26.8960  -20.2276  -10.7768 O   0  0  0  0  0  0  0  0  0  0  0  0
   25.1299  -21.6881  -11.3564 C   0  0  0  0  0  0  0  0  0  0  0  0
   24.9489  -21.1280  -12.7274 C   0  0  2  0  0  0  0  0  0  0  0  0
   26.0198  -20.2913  -13.1602 N   0  0  0  0  0  0  0  0  0  0  0  0
   23.6040  -20.4583  -12.8048 C   0  0  0  0  0  0  0  0  0  0  0  0
   23.4839  -19.3420  -12.2754 O   0  0  0  0  0  0  0  0  0  0  0  0
   21.1323  -21.3475  -15.9875 C   0  0  0  0  0  0  0  0  0  0  0  0
   21.0925  -20.0879  -15.1854 C   0  0  2  0  0  0  0  0  0  0  0  0
   22.0971  -19.0548  -15.6196 C   0  0  0  0  0  0  0  0  0  0  0  0
   21.2825  -20.4113  -13.7231 C   0  0  2  0  0  0  0  0  0  0  0  0
   22.5206  -21.0936  -13.4642 N   0  0  0  0  0  0  0  0  0  0  0  0
   20.1512  -21.2469  -13.2558 C   0  0  0  0  0  0  0  0  0  0  0  0
   20.2486  -22.4675  -12.9825 O   0  0  0  0  0  0  0  0  0  0  0  0
   18.8769  -20.6832  -13.0943 O   0  0  0  0  0  0  0  0  0  0  0  0
  2  1  1  1
  2  7  1  0
  3  4  1  0
  3  2  1  0
  5  4  1  0
  6  5  2  0
  7  8  2  0
  9  5  1  0
 11 10  1  0
 11 12  2  0
 14 13  1  1
 13 11  1  0
 15  7  1  0
 15 14  1  0
 16 14  1  0
 16 17  2  0
 19 18  1  6
 19 21  1  0
 20 19  1  0
 21 23  1  0
 21 22  1  6
 22 16  1  0
 23 25  1  0
 24 23  2  0
M  END
$$$$
