ENV.pdb
     RDKit          3D

 25 24  0  0  1  0  0  0  0  0999 V2000
   36.4337   -8.6289  -13.5223 N   0  0  0  0  0  0  0  0  0  0  0  0
   36.7777   -7.8067  -14.6386 C   0  0  1  0  0  0  0  0  0  0  0  0
   38.0613   -8.1610  -15.3010 C   0  0  0  0  0  0  0  0  0  0  0  0
   39.2259   -8.4729  -14.4441 C   0  0  0  0  0  0  0  0  0  0  0  0
   40.4511   -8.7102  -15.1947 C   0  0  0  0  0  0  0  0  0  0  0  0
   40.8993   -9.7881  -15.6179 O   0  0  0  0  0  0  0  0  0  0  0  0
   35.7040   -8.0030  -15.6902 C   0  0  0  0  0  0  0  0  0  0  0  0
   35.8698   -8.8989  -16.5268 O   0  0  0  0  0  0  0  0  0  0  0  0
   41.2472   -7.5813  -15.4902 O   0  0  0  0  0  0  0  0  0  0  0  0
   31.6829   -9.1828  -18.6750 N   0  0  0  0  0  0  0  0  0  0  0  0
   31.6181   -8.8224  -17.3110 C   0  0  0  0  0  0  0  0  0  0  0  0
   30.5270   -8.5871  -16.7806 O   0  0  0  0  0  0  0  0  0  0  0  0
   32.8736   -8.7329  -16.5353 C   0  0  0  0  0  0  0  0  0  0  0  0
   33.4678   -7.3652  -16.5846 C   0  0  2  0  0  0  0  0  0  0  0  0
   34.5608   -7.1731  -15.6886 N   0  0  0  0  0  0  0  0  0  0  0  0
   32.3700   -6.3519  -16.4072 C   0  0  0  0  0  0  0  0  0  0  0  0
   31.8446   -6.2606  -15.2864 O   0  0  0  0  0  0  0  0  0  0  0  0
   32.1184   -3.0789  -19.0688 C   0  0  0  0  0  0  0  0  0  0  0  0
   31.6954   -3.1026  -17.6363 C   0  0  2  0  0  0  0  0  0  0  0  0
   32.8099   -2.8199  -16.6651 C   0  0  0  0  0  0  0  0  0  0  0  0
   31.0571   -4.4331  -17.3176 C   0  0  2  0  0  0  0  0  0  0  0  0
   31.9613   -5.5363  -17.4934 N   0  0  0  0  0  0  0  0  0  0  0  0
   29.8694   -4.6256  -18.1829 C   0  0  0  0  0  0  0  0  0  0  0  0
   29.8236   -5.4372  -19.1385 O   0  0  0  0  0  0  0  0  0  0  0  0
   28.7038   -3.8782  -17.9581 O   0  0  0  0  0  0  0  0  0  0  0  0
  2  1  1  1
  2  7  1  0
  3  4  1  0
  3  2  1  0
  5  4  1  0
  6  5  2  0
  7  8  2  0
  9  5  1  0
 11 10  1  0
 11 12  2  0
 14 13  1  1
 13 11  1  0
 15  7  1  0
 15 14  1  0
 16 14  1  0
 16 17  2  0
 19 18  1  6
 19 21  1  0
 20 19  1  0
 21 23  1  0
 21 22  1  6
 22 16  1  0
 23 25  1  0
 24 23  2  0
M  END
$$$$
