ENV.pdb
     RDKit          3D

 25 24  0  0  1  0  0  0  0  0999 V2000
   14.5653  -13.2174  -14.6395 N   0  0  0  0  0  0  0  0  0  0  0  0
   15.9089  -13.2740  -15.1213 C   0  0  1  0  0  0  0  0  0  0  0  0
   16.1382  -14.2574  -16.2132 C   0  0  0  0  0  0  0  0  0  0  0  0
   16.1983  -15.6923  -15.8588 C   0  0  0  0  0  0  0  0  0  0  0  0
   16.4836  -16.5585  -16.9941 C   0  0  0  0  0  0  0  0  0  0  0  0
   17.5734  -16.7627  -17.5532 O   0  0  0  0  0  0  0  0  0  0  0  0
   16.2320  -11.9173  -15.7148 C   0  0  0  0  0  0  0  0  0  0  0  0
   15.5212  -11.5058  -16.6397 O   0  0  0  0  0  0  0  0  0  0  0  0
   15.3934  -17.2672  -17.5459 O   0  0  0  0  0  0  0  0  0  0  0  0
   16.2308   -6.4708  -15.7548 N   0  0  0  0  0  0  0  0  0  0  0  0
   16.8997   -7.6007  -16.2750 C   0  0  0  0  0  0  0  0  0  0  0  0
   17.8091   -7.4604  -17.1001 O   0  0  0  0  0  0  0  0  0  0  0  0
   16.4930   -8.9458  -15.8158 C   0  0  0  0  0  0  0  0  0  0  0  0
   17.6557   -9.8729  -15.6937 C   0  0  2  0  0  0  0  0  0  0  0  0
   17.3171  -11.1697  -15.2058 N   0  0  0  0  0  0  0  0  0  0  0  0
   18.7323   -9.1982  -14.8881 C   0  0  0  0  0  0  0  0  0  0  0  0
   18.4753   -8.9098  -13.7085 O   0  0  0  0  0  0  0  0  0  0  0  0
   22.6226   -8.9319  -16.5494 C   0  0  0  0  0  0  0  0  0  0  0  0
   22.4073   -9.0793  -15.0786 C   0  0  2  0  0  0  0  0  0  0  0  0
   22.4401  -10.5045  -14.5959 C   0  0  0  0  0  0  0  0  0  0  0  0
   21.1003   -8.4316  -14.6895 C   0  0  2  0  0  0  0  0  0  0  0  0
   19.9927   -8.9088  -15.4711 N   0  0  0  0  0  0  0  0  0  0  0  0
   21.2172   -6.9623  -14.8446 C   0  0  0  0  0  0  0  0  0  0  0  0
   21.9989   -6.2475  -14.1724 O   0  0  0  0  0  0  0  0  0  0  0  0
   20.4271   -6.2870  -15.7866 O   0  0  0  0  0  0  0  0  0  0  0  0
  2  1  1  6
  2  7  1  0
  3  4  1  0
  3  2  1  0
  5  4  1  0
  6  5  2  0
  7  8  2  0
  9  5  1  0
 11 10  1  0
 11 12  2  0
 14 13  1  1
 13 11  1  0
 15  7  1  0
 15 14  1  0
 16 14  1  0
 16 17  2  0
 19 18  1  6
 19 21  1  0
 20 19  1  0
 21 23  1  0
 21 22  1  6
 22 16  1  0
 23 25  1  0
 24 23  2  0
M  END
$$$$
