ENV.pdb
     RDKit          3D

 25 24  0  0  1  0  0  0  0  0999 V2000
   15.7871  -13.2697  -18.1852 N   0  0  0  0  0  0  0  0  0  0  0  0
   16.3036  -13.1079  -16.8632 C   0  0  1  0  0  0  0  0  0  0  0  0
   17.3558  -14.0871  -16.4813 C   0  0  0  0  0  0  0  0  0  0  0  0
   16.9406  -15.4730  -16.1734 C   0  0  0  0  0  0  0  0  0  0  0  0
   15.9473  -15.5585  -15.1120 C   0  0  0  0  0  0  0  0  0  0  0  0
   16.1318  -15.5931  -13.8845 O   0  0  0  0  0  0  0  0  0  0  0  0
   16.9669  -11.7464  -16.8026 C   0  0  0  0  0  0  0  0  0  0  0  0
   17.7360  -11.4356  -17.7202 O   0  0  0  0  0  0  0  0  0  0  0  0
   14.5924  -15.6095  -15.5085 O   0  0  0  0  0  0  0  0  0  0  0  0
   18.1306   -6.9889  -15.6394 N   0  0  0  0  0  0  0  0  0  0  0  0
   16.8478   -7.1909  -15.0842 C   0  0  0  0  0  0  0  0  0  0  0  0
   16.2094   -6.2358  -14.6286 O   0  0  0  0  0  0  0  0  0  0  0  0
   16.2876   -8.5589  -15.0590 C   0  0  0  0  0  0  0  0  0  0  0  0
   17.2308   -9.5625  -15.6329 C   0  0  2  0  0  0  0  0  0  0  0  0
   16.6950  -10.8815  -15.7193 N   0  0  0  0  0  0  0  0  0  0  0  0
   18.5290   -9.4978  -14.8754 C   0  0  0  0  0  0  0  0  0  0  0  0
   18.5342   -9.9063  -13.7033 O   0  0  0  0  0  0  0  0  0  0  0  0
   23.2820   -9.8747  -14.8693 C   0  0  0  0  0  0  0  0  0  0  0  0
   22.0258   -9.7375  -15.6658 C   0  0  2  0  0  0  0  0  0  0  0  0
   22.2121   -9.0384  -16.9856 C   0  0  0  0  0  0  0  0  0  0  0  0
   20.9800   -9.0221  -14.8450 C   0  0  2  0  0  0  0  0  0  0  0  0
   19.6981   -8.9851  -15.4938 N   0  0  0  0  0  0  0  0  0  0  0  0
   21.4349   -7.6384  -14.5715 C   0  0  0  0  0  0  0  0  0  0  0  0
   22.3771   -7.3521  -13.7942 O   0  0  0  0  0  0  0  0  0  0  0  0
   20.8048   -6.5519  -15.1961 O   0  0  0  0  0  0  0  0  0  0  0  0
  2  1  1  6
  2  7  1  0
  3  4  1  0
  3  2  1  0
  5  4  1  0
  6  5  2  0
  7  8  2  0
  9  5  1  0
 11 10  1  0
 11 12  2  0
 14 13  1  1
 13 11  1  0
 15  7  1  0
 15 14  1  0
 16 14  1  0
 16 17  2  0
 19 18  1  1
 19 21  1  0
 20 19  1  0
 21 23  1  0
 21 22  1  6
 22 16  1  0
 23 25  1  0
 24 23  2  0
M  END
$$$$
