ENV.pdb
     RDKit          3D

 25 24  0  0  1  0  0  0  0  0999 V2000
   17.3657  -11.7473  -12.6744 N   0  0  0  0  0  0  0  0  0  0  0  0
   16.8880  -10.6660  -13.4763 C   0  0  1  0  0  0  0  0  0  0  0  0
   16.0437  -11.0726  -14.6312 C   0  0  0  0  0  0  0  0  0  0  0  0
   16.5939  -12.0613  -15.5840 C   0  0  0  0  0  0  0  0  0  0  0  0
   16.3356  -13.4422  -15.2003 C   0  0  0  0  0  0  0  0  0  0  0  0
   16.8144  -14.4797  -15.6862 O   0  0  0  0  0  0  0  0  0  0  0  0
   15.9976   -9.8118  -12.5962 C   0  0  0  0  0  0  0  0  0  0  0  0
   15.4935   -8.7975  -13.0932 O   0  0  0  0  0  0  0  0  0  0  0  0
   15.4255  -13.6504  -14.1403 O   0  0  0  0  0  0  0  0  0  0  0  0
   12.7453  -10.7368  -11.5565 N   0  0  0  0  0  0  0  0  0  0  0  0
   12.9789  -11.0467  -10.1985 C   0  0  0  0  0  0  0  0  0  0  0  0
   12.2705  -11.8771   -9.6189 O   0  0  0  0  0  0  0  0  0  0  0  0
   14.0807  -10.3625   -9.4889 C   0  0  0  0  0  0  0  0  0  0  0  0
   14.8734   -9.4834  -10.3972 C   0  0  2  0  0  0  0  0  0  0  0  0
   15.7691  -10.1889  -11.2540 N   0  0  0  0  0  0  0  0  0  0  0  0
   15.5512   -8.4211   -9.5754 C   0  0  0  0  0  0  0  0  0  0  0  0
   16.4511   -8.7788   -8.7989 O   0  0  0  0  0  0  0  0  0  0  0  0
   15.8023   -4.4152  -10.6974 C   0  0  0  0  0  0  0  0  0  0  0  0
   16.5970   -5.0734   -9.6173 C   0  0  2  0  0  0  0  0  0  0  0  0
   17.8302   -5.7813  -10.1108 C   0  0  0  0  0  0  0  0  0  0  0  0
   15.7183   -6.0361   -8.8555 C   0  0  2  0  0  0  0  0  0  0  0  0
   15.1639   -7.0618   -9.6957 N   0  0  0  0  0  0  0  0  0  0  0  0
   14.6197   -5.2846   -8.2037 C   0  0  0  0  0  0  0  0  0  0  0  0
   13.4155   -5.3680   -8.5454 O   0  0  0  0  0  0  0  0  0  0  0  0
   14.8946   -4.4164   -7.1367 O   0  0  0  0  0  0  0  0  0  0  0  0
  2  1  1  1
  2  7  1  0
  3  4  1  0
  3  2  1  0
  5  4  1  0
  6  5  2  0
  7  8  2  0
  9  5  1  0
 11 10  1  0
 11 12  2  0
 14 13  1  1
 13 11  1  0
 15  7  1  0
 15 14  1  0
 16 14  1  0
 16 17  2  0
 19 18  1  6
 19 21  1  0
 20 19  1  0
 21 23  1  0
 21 22  1  6
 22 16  1  0
 23 25  1  0
 24 23  2  0
M  END
$$$$
