ENV.pdb
     RDKit          3D

 25 24  0  0  1  0  0  0  0  0999 V2000
   24.4513   -7.5657  -20.9667 N   0  0  0  0  0  0  0  0  0  0  0  0
   23.2728   -7.2666  -20.2169 C   0  0  1  0  0  0  0  0  0  0  0  0
   22.0678   -6.9778  -21.0394 C   0  0  0  0  0  0  0  0  0  0  0  0
   22.1824   -7.0936  -22.5096 C   0  0  0  0  0  0  0  0  0  0  0  0
   22.2932   -8.4687  -22.9761 C   0  0  0  0  0  0  0  0  0  0  0  0
   21.6226   -9.4556  -22.6325 O   0  0  0  0  0  0  0  0  0  0  0  0
   22.9308   -8.4999  -19.4048 C   0  0  0  0  0  0  0  0  0  0  0  0
   21.8847   -8.4870  -18.7450 O   0  0  0  0  0  0  0  0  0  0  0  0
   23.2858   -8.7358  -23.9450 O   0  0  0  0  0  0  0  0  0  0  0  0
   21.0455  -13.5620  -18.5332 N   0  0  0  0  0  0  0  0  0  0  0  0
   21.8957  -12.5390  -18.0587 C   0  0  0  0  0  0  0  0  0  0  0  0
   22.3944  -12.6176  -16.9306 O   0  0  0  0  0  0  0  0  0  0  0  0
   22.1754  -11.3798  -18.9326 C   0  0  0  0  0  0  0  0  0  0  0  0
   23.5332  -10.8100  -18.6922 C   0  0  2  0  0  0  0  0  0  0  0  0
   23.7996   -9.6136  -19.4217 N   0  0  0  0  0  0  0  0  0  0  0  0
   24.5592  -11.8861  -18.9219 C   0  0  0  0  0  0  0  0  0  0  0  0
   24.7212  -12.2902  -20.0843 O   0  0  0  0  0  0  0  0  0  0  0  0
   28.2834  -14.5742  -17.1297 C   0  0  0  0  0  0  0  0  0  0  0  0
   27.2137  -13.5765  -16.8268 C   0  0  2  0  0  0  0  0  0  0  0  0
   26.4046  -13.9013  -15.5999 C   0  0  0  0  0  0  0  0  0  0  0  0
   26.3036  -13.4295  -18.0223 C   0  0  2  0  0  0  0  0  0  0  0  0
   25.3078  -12.4100  -17.8369 N   0  0  0  0  0  0  0  0  0  0  0  0
   25.6382  -14.7259  -18.2928 C   0  0  0  0  0  0  0  0  0  0  0  0
   24.5142  -15.0448  -17.8358 O   0  0  0  0  0  0  0  0  0  0  0  0
   26.2643  -15.6850  -19.1028 O   0  0  0  0  0  0  0  0  0  0  0  0
  2  1  1  6
  2  7  1  0
  3  4  1  0
  3  2  1  0
  5  4  1  0
  6  5  2  0
  7  8  2  0
  9  5  1  0
 11 10  1  0
 11 12  2  0
 14 13  1  6
 13 11  1  0
 15  7  1  0
 15 14  1  0
 16 14  1  0
 16 17  2  0
 19 18  1  6
 19 21  1  0
 20 19  1  0
 21 23  1  0
 21 22  1  1
 22 16  1  0
 23 25  1  0
 24 23  2  0
M  END
$$$$
