ENV.pdb
     RDKit          3D

 25 24  0  0  1  0  0  0  0  0999 V2000
   18.9514  -14.6273  -18.8256 N   0  0  0  0  0  0  0  0  0  0  0  0
   18.1461  -13.6723  -18.1327 C   0  0  1  0  0  0  0  0  0  0  0  0
   17.7752  -14.0599  -16.7456 C   0  0  0  0  0  0  0  0  0  0  0  0
   16.9495  -15.2727  -16.5571 C   0  0  0  0  0  0  0  0  0  0  0  0
   16.6020  -15.5271  -15.1659 C   0  0  0  0  0  0  0  0  0  0  0  0
   16.9171  -14.8705  -14.1602 O   0  0  0  0  0  0  0  0  0  0  0  0
   18.9654  -12.4041  -18.0004 C   0  0  0  0  0  0  0  0  0  0  0  0
   20.1828  -12.4770  -18.2065 O   0  0  0  0  0  0  0  0  0  0  0  0
   15.8035  -16.6628  -14.9051 O   0  0  0  0  0  0  0  0  0  0  0  0
   16.7195   -8.4061  -19.9089 N   0  0  0  0  0  0  0  0  0  0  0  0
   18.0020   -8.7555  -19.4318 C   0  0  0  0  0  0  0  0  0  0  0  0
   18.9033   -9.0469  -20.2256 O   0  0  0  0  0  0  0  0  0  0  0  0
   18.2432   -8.7657  -17.9732 C   0  0  0  0  0  0  0  0  0  0  0  0
   19.0333   -9.9559  -17.5429 C   0  0  2  0  0  0  0  0  0  0  0  0
   18.3296  -11.1917  -17.6517 N   0  0  0  0  0  0  0  0  0  0  0  0
   19.5797   -9.7036  -16.1641 C   0  0  0  0  0  0  0  0  0  0  0  0
   18.7976   -9.8059  -15.2057 O   0  0  0  0  0  0  0  0  0  0  0  0
   23.8037   -9.0206  -15.5447 C   0  0  0  0  0  0  0  0  0  0  0  0
   22.9146   -9.7153  -14.5656 C   0  0  2  0  0  0  0  0  0  0  0  0
   22.8962  -11.2131  -14.7125 C   0  0  0  0  0  0  0  0  0  0  0  0
   21.5121   -9.1677  -14.6764 C   0  0  2  0  0  0  0  0  0  0  0  0
   20.9444   -9.3618  -15.9823 N   0  0  0  0  0  0  0  0  0  0  0  0
   21.5249   -7.7212  -14.3537 C   0  0  0  0  0  0  0  0  0  0  0  0
   21.7407   -7.2618  -13.2065 O   0  0  0  0  0  0  0  0  0  0  0  0
   21.2868   -6.7718  -15.3586 O   0  0  0  0  0  0  0  0  0  0  0  0
  2  1  1  1
  2  7  1  0
  3  4  1  0
  3  2  1  0
  5  4  1  0
  6  5  2  0
  7  8  2  0
  9  5  1  0
 11 10  1  0
 11 12  2  0
 14 13  1  1
 13 11  1  0
 15  7  1  0
 15 14  1  0
 16 14  1  0
 16 17  2  0
 19 18  1  6
 19 21  1  0
 20 19  1  0
 21 23  1  0
 21 22  1  6
 22 16  1  0
 23 25  1  0
 24 23  2  0
M  END
$$$$
