YYT.pdb
     RDKit          3D

 32 33  0  0  1  0  0  0  0  0999 V2000
   11.9611  -31.8969   26.9641 O   0  0  0  0  0  0  0  0  0  0  0  0
   11.8478  -30.5328   26.6803 C   0  0  0  0  0  0  0  0  0  0  0  0
   12.8990  -29.8162   26.1486 C   0  0  0  0  0  0  0  0  0  0  0  0
   12.7876  -28.4695   25.8683 C   0  0  0  0  0  0  0  0  0  0  0  0
   11.6049  -27.7824   26.1131 C   0  0  0  0  0  0  0  0  0  0  0  0
   11.5076  -26.3540   25.8089 C   0  0  0  0  0  0  0  0  0  0  0  0
   12.3636  -25.5255   26.7473 C   0  0  2  0  0  0  0  0  0  0  0  0
   11.7725  -25.6246   28.0691 N   0  0  0  0  0  0  0  0  0  0  0  0
   12.3861  -24.1166   26.3504 C   0  0  0  0  0  0  0  0  0  0  0  0
   11.3331  -23.4190   26.3208 O   0  0  0  0  0  0  0  0  0  0  0  0
   10.5728  -28.5275   26.6449 C   0  0  0  0  0  0  0  0  0  0  0  0
   10.6662  -29.8718   26.9308 C   0  0  0  0  0  0  0  0  0  0  0  0
   11.8757  -20.9119   31.6654 O   0  0  0  0  0  0  0  0  0  0  0  0
   12.4717  -20.9730   30.4023 C   0  0  0  0  0  0  0  0  0  0  0  0
   11.9638  -20.2276   29.3602 C   0  0  0  0  0  0  0  0  0  0  0  0
   12.5169  -20.2553   28.0992 C   0  0  0  0  0  0  0  0  0  0  0  0
   13.6223  -21.0489   27.8343 C   0  0  0  0  0  0  0  0  0  0  0  0
   14.2808  -21.1467   26.5328 C   0  0  0  0  0  0  0  0  0  0  0  0
   13.5879  -22.0441   25.5494 C   0  0  2  0  0  0  0  0  0  0  0  0
   13.5852  -23.4260   25.9694 N   0  0  0  0  0  0  0  0  0  0  0  0
   14.2588  -21.8648   24.2354 C   0  0  0  0  0  0  0  0  0  0  0  0
   15.1864  -22.6321   23.8787 O   0  0  0  0  0  0  0  0  0  0  0  0
   14.1261  -21.7925   28.8804 C   0  0  0  0  0  0  0  0  0  0  0  0
   13.5692  -21.7658   30.1538 C   0  0  0  0  0  0  0  0  0  0  0  0
   14.3565  -19.6867   19.8190 C   0  0  0  0  0  0  0  0  0  0  0  0
   13.7241  -19.7560   21.1923 C   0  0  1  0  0  0  0  0  0  0  0  0
   12.4640  -20.3326   21.0268 O   0  0  0  0  0  0  0  0  0  0  0  0
   14.5670  -20.6727   22.0492 C   0  0  2  0  0  0  0  0  0  0  0  0
   13.8914  -20.8329   23.3296 N   0  0  0  0  0  0  0  0  0  0  0  0
   15.9102  -20.1339   22.2831 C   0  0  0  0  0  0  0  0  0  0  0  0
   16.1556  -19.4154   23.2837 O   0  0  0  0  0  0  0  0  0  0  0  0
   16.9200  -20.4234   21.3860 O   0  0  0  0  0  0  0  0  0  0  0  0
  2 12  2  0
  2  1  1  0
  3  2  1  0
  4  5  1  0
  4  3  2  0
  5 11  2  0
  6  5  1  0
  7  9  1  0
  7  6  1  0
  7  8  1  1
  9 10  2  0
 11 12  1  0
 14 15  2  0
 14 13  1  0
 16 15  1  0
 17 16  2  0
 19 18  1  1
 18 17  1  0
 20 19  1  0
 20  9  1  0
 21 22  2  0
 21 19  1  0
 23 17  1  0
 23 24  2  0
 24 14  1  0
 26 25  1  6
 26 28  1  0
 27 26  1  0
 28 30  1  0
 28 29  1  1
 29 21  1  0
 30 32  1  0
 31 30  2  0
M  END
$$$$
