YYT.pdb
     RDKit          3D

 32 33  0  0  1  0  0  0  0  0999 V2000
   -1.5429  -21.8234   24.3557 O   0  0  0  0  0  0  0  0  0  0  0  0
   -0.2616  -21.3116   24.1314 C   0  0  0  0  0  0  0  0  0  0  0  0
   -0.0676  -20.0238   23.6783 C   0  0  0  0  0  0  0  0  0  0  0  0
    1.1971  -19.5180   23.4567 C   0  0  0  0  0  0  0  0  0  0  0  0
    2.3282  -20.2928   23.6836 C   0  0  0  0  0  0  0  0  0  0  0  0
    3.6607  -19.7373   23.4421 C   0  0  0  0  0  0  0  0  0  0  0  0
    3.9108  -19.5136   21.9632 C   0  0  2  0  0  0  0  0  0  0  0  0
    4.1193  -20.8172   21.3602 N   0  0  0  0  0  0  0  0  0  0  0  0
    5.1058  -18.6986   21.7382 C   0  0  0  0  0  0  0  0  0  0  0  0
    6.2396  -19.2223   21.5471 O   0  0  0  0  0  0  0  0  0  0  0  0
    2.1003  -21.5758   24.1364 C   0  0  0  0  0  0  0  0  0  0  0  0
    0.8454  -22.0970   24.3630 C   0  0  0  0  0  0  0  0  0  0  0  0
   10.2190  -11.8655   19.1980 O   0  0  0  0  0  0  0  0  0  0  0  0
    9.1536  -12.6507   19.6485 C   0  0  0  0  0  0  0  0  0  0  0  0
    8.7655  -13.7653   18.9367 C   0  0  0  0  0  0  0  0  0  0  0  0
    7.7224  -14.5687   19.3411 C   0  0  0  0  0  0  0  0  0  0  0  0
    7.0176  -14.2752   20.4982 C   0  0  0  0  0  0  0  0  0  0  0  0
    5.8983  -15.0640   21.0104 C   0  0  0  0  0  0  0  0  0  0  0  0
    6.2496  -16.4739   21.3865 C   0  0  2  0  0  0  0  0  0  0  0  0
    5.0863  -17.2636   21.7168 N   0  0  0  0  0  0  0  0  0  0  0  0
    7.2128  -16.4052   22.5162 C   0  0  0  0  0  0  0  0  0  0  0  0
    6.8855  -15.8766   23.6071 O   0  0  0  0  0  0  0  0  0  0  0  0
    7.4101  -13.1592   21.2062 C   0  0  0  0  0  0  0  0  0  0  0  0
    8.4626  -12.3471   20.7997 C   0  0  0  0  0  0  0  0  0  0  0  0
    8.8805  -18.8577   24.6442 C   0  0  0  0  0  0  0  0  0  0  0  0
    9.9842  -18.1508   23.8871 C   0  0  1  0  0  0  0  0  0  0  0  0
   10.2017  -18.8806   22.7176 O   0  0  0  0  0  0  0  0  0  0  0  0
    9.4860  -16.7737   23.5124 C   0  0  2  0  0  0  0  0  0  0  0  0
    8.5322  -16.9254   22.4222 N   0  0  0  0  0  0  0  0  0  0  0  0
   10.5719  -15.8905   23.0763 C   0  0  0  0  0  0  0  0  0  0  0  0
   10.6601  -15.5122   21.8818 O   0  0  0  0  0  0  0  0  0  0  0  0
   11.5116  -15.4695   23.9971 O   0  0  0  0  0  0  0  0  0  0  0  0
  2 12  2  0
  2  1  1  0
  3  2  1  0
  4  5  1  0
  4  3  2  0
  5 11  2  0
  6  5  1  0
  7  9  1  0
  7  6  1  0
  7  8  1  6
  9 10  2  0
 11 12  1  0
 14 15  2  0
 14 13  1  0
 16 15  1  0
 17 16  2  0
 19 18  1  1
 18 17  1  0
 20 19  1  0
 20  9  1  0
 21 22  2  0
 21 19  1  0
 23 17  1  0
 23 24  2  0
 24 14  1  0
 26 25  1  1
 26 28  1  0
 27 26  1  0
 28 30  1  0
 28 29  1  6
 29 21  1  0
 30 32  1  0
 31 30  2  0
M  END
$$$$
