YYT.pdb
     RDKit          3D

 32 33  0  0  1  0  0  0  0  0999 V2000
   11.3428  -19.8274    9.9008 O   0  0  0  0  0  0  0  0  0  0  0  0
   11.8182  -20.2234   11.1543 C   0  0  0  0  0  0  0  0  0  0  0  0
   11.0014  -20.2366   12.2651 C   0  0  0  0  0  0  0  0  0  0  0  0
   11.4703  -20.6274   13.5028 C   0  0  0  0  0  0  0  0  0  0  0  0
   12.7908  -21.0243   13.6758 C   0  0  0  0  0  0  0  0  0  0  0  0
   13.2683  -21.4349   14.9971 C   0  0  0  0  0  0  0  0  0  0  0  0
   13.4168  -22.9412   15.0919 C   0  0  2  0  0  0  0  0  0  0  0  0
   12.0813  -23.4992   15.1985 N   0  0  0  0  0  0  0  0  0  0  0  0
   14.1819  -23.3315   16.2772 C   0  0  0  0  0  0  0  0  0  0  0  0
   13.6174  -23.7957   17.3079 O   0  0  0  0  0  0  0  0  0  0  0  0
   13.5815  -20.9999   12.5456 C   0  0  0  0  0  0  0  0  0  0  0  0
   13.1305  -20.6129   11.3029 C   0  0  0  0  0  0  0  0  0  0  0  0
   20.7455  -26.3233   21.4369 O   0  0  0  0  0  0  0  0  0  0  0  0
   20.0047  -25.7891   20.3784 C   0  0  0  0  0  0  0  0  0  0  0  0
   18.9864  -26.5215   19.8070 C   0  0  0  0  0  0  0  0  0  0  0  0
   18.2298  -26.0373   18.7629 C   0  0  0  0  0  0  0  0  0  0  0  0
   18.4738  -24.7747   18.2450 C   0  0  0  0  0  0  0  0  0  0  0  0
   17.7280  -24.1724   17.1413 C   0  0  0  0  0  0  0  0  0  0  0  0
   16.3596  -23.6783   17.5097 C   0  0  2  0  0  0  0  0  0  0  0  0
   15.6103  -23.2205   16.3629 N   0  0  0  0  0  0  0  0  0  0  0  0
   16.5329  -22.6057   18.5236 C   0  0  0  0  0  0  0  0  0  0  0  0
   16.8808  -21.4490   18.1809 O   0  0  0  0  0  0  0  0  0  0  0  0
   19.4934  -24.0467   18.8204 C   0  0  0  0  0  0  0  0  0  0  0  0
   20.2582  -24.5336   19.8742 C   0  0  0  0  0  0  0  0  0  0  0  0
   13.9898  -21.1487   20.7559 C   0  0  0  0  0  0  0  0  0  0  0  0
   15.0634  -21.7418   21.6427 C   0  0  1  0  0  0  0  0  0  0  0  0
   14.6965  -23.0656   21.8888 O   0  0  0  0  0  0  0  0  0  0  0  0
   16.3632  -21.7354   20.8709 C   0  0  2  0  0  0  0  0  0  0  0  0
   16.3174  -22.8296   19.9107 N   0  0  0  0  0  0  0  0  0  0  0  0
   17.5274  -21.9154   21.7435 C   0  0  0  0  0  0  0  0  0  0  0  0
   17.8767  -21.0198   22.5520 O   0  0  0  0  0  0  0  0  0  0  0  0
   18.2498  -23.0908   21.6725 O   0  0  0  0  0  0  0  0  0  0  0  0
  2 12  2  0
  2  1  1  0
  3  2  1  0
  4  5  1  0
  4  3  2  0
  5 11  2  0
  6  5  1  0
  7  9  1  0
  7  6  1  0
  7  8  1  1
  9 10  2  0
 11 12  1  0
 14 15  2  0
 14 13  1  0
 16 15  1  0
 17 16  2  0
 19 18  1  6
 18 17  1  0
 20 19  1  0
 20  9  1  0
 21 22  2  0
 21 19  1  0
 23 17  1  0
 23 24  2  0
 24 14  1  0
 26 25  1  6
 26 28  1  0
 27 26  1  0
 28 30  1  0
 28 29  1  6
 29 21  1  0
 30 32  1  0
 31 30  2  0
M  END
$$$$
