YYT.pdb
     RDKit          3D

 32 33  0  0  1  0  0  0  0  0999 V2000
    5.2155  -12.8952   15.9417 O   0  0  0  0  0  0  0  0  0  0  0  0
    6.2105  -13.6136   16.6109 C   0  0  0  0  0  0  0  0  0  0  0  0
    6.4797  -14.9308   16.3048 C   0  0  0  0  0  0  0  0  0  0  0  0
    7.4620  -15.6405   16.9651 C   0  0  0  0  0  0  0  0  0  0  0  0
    8.2202  -15.0499   17.9688 C   0  0  0  0  0  0  0  0  0  0  0  0
    9.2571  -15.8202   18.6571 C   0  0  0  0  0  0  0  0  0  0  0  0
   10.6469  -15.3843   18.2349 C   0  0  2  0  0  0  0  0  0  0  0  0
   10.8534  -15.8593   16.8792 N   0  0  0  0  0  0  0  0  0  0  0  0
   11.6771  -15.9674   19.0960 C   0  0  0  0  0  0  0  0  0  0  0  0
   12.1929  -17.0930   18.8443 O   0  0  0  0  0  0  0  0  0  0  0  0
    7.9264  -13.7318   18.2510 C   0  0  0  0  0  0  0  0  0  0  0  0
    6.9499  -13.0084   17.6023 C   0  0  0  0  0  0  0  0  0  0  0  0
   17.8924  -14.2428   17.0742 O   0  0  0  0  0  0  0  0  0  0  0  0
   17.0086  -14.4226   18.1423 C   0  0  0  0  0  0  0  0  0  0  0  0
   17.2347  -15.4184   19.0681 C   0  0  0  0  0  0  0  0  0  0  0  0
   16.3923  -15.6333   20.1363 C   0  0  0  0  0  0  0  0  0  0  0  0
   15.2700  -14.8397   20.3166 C   0  0  0  0  0  0  0  0  0  0  0  0
   14.3173  -14.9872   21.4156 C   0  0  0  0  0  0  0  0  0  0  0  0
   13.1748  -15.9174   21.1297 C   0  0  2  0  0  0  0  0  0  0  0  0
   12.1758  -15.3189   20.2753 N   0  0  0  0  0  0  0  0  0  0  0  0
   12.6069  -16.3382   22.4371 C   0  0  0  0  0  0  0  0  0  0  0  0
   12.1639  -15.4878   23.2477 O   0  0  0  0  0  0  0  0  0  0  0  0
   15.0488  -13.8452   19.3876 C   0  0  0  0  0  0  0  0  0  0  0  0
   15.8978  -13.6267   18.3087 C   0  0  0  0  0  0  0  0  0  0  0  0
    9.7267  -18.3279   23.2202 C   0  0  0  0  0  0  0  0  0  0  0  0
   10.8689  -19.0745   23.8751 C   0  0  1  0  0  0  0  0  0  0  0  0
   11.3076  -20.0273   22.9546 O   0  0  0  0  0  0  0  0  0  0  0  0
   11.9889  -18.0902   24.1236 C   0  0  2  0  0  0  0  0  0  0  0  0
   12.5369  -17.7021   22.8311 N   0  0  0  0  0  0  0  0  0  0  0  0
   13.0606  -18.6644   24.9427 C   0  0  0  0  0  0  0  0  0  0  0  0
   12.8365  -19.0768   26.1078 O   0  0  0  0  0  0  0  0  0  0  0  0
   14.3368  -18.7518   24.4212 O   0  0  0  0  0  0  0  0  0  0  0  0
  2 12  2  0
  2  1  1  0
  3  2  1  0
  4  5  1  0
  4  3  2  0
  5 11  2  0
  6  5  1  0
  7  9  1  0
  7  6  1  0
  7  8  1  6
  9 10  2  0
 11 12  1  0
 14 15  2  0
 14 13  1  0
 16 15  1  0
 17 16  2  0
 19 18  1  1
 18 17  1  0
 20 19  1  0
 20  9  1  0
 21 22  2  0
 21 19  1  0
 23 17  1  0
 23 24  2  0
 24 14  1  0
 26 25  1  6
 26 28  1  0
 27 26  1  0
 28 30  1  0
 28 29  1  6
 29 21  1  0
 30 32  1  0
 31 30  2  0
M  END
$$$$
