YYT.pdb
     RDKit          3D

 32 33  0  0  1  0  0  0  0  0999 V2000
    3.1962  -16.7733   12.4201 O   0  0  0  0  0  0  0  0  0  0  0  0
    4.3536  -16.9463   13.1846 C   0  0  0  0  0  0  0  0  0  0  0  0
    5.5250  -16.2852   12.8809 C   0  0  0  0  0  0  0  0  0  0  0  0
    6.6679  -16.4556   13.6353 C   0  0  0  0  0  0  0  0  0  0  0  0
    6.6801  -17.3049   14.7351 C   0  0  0  0  0  0  0  0  0  0  0  0
    7.9031  -17.4718   15.5220 C   0  0  0  0  0  0  0  0  0  0  0  0
    9.0362  -16.6247   14.9759 C   0  0  2  0  0  0  0  0  0  0  0  0
    9.4374  -17.2080   13.7090 N   0  0  0  0  0  0  0  0  0  0  0  0
   10.1899  -16.6263   15.8769 C   0  0  0  0  0  0  0  0  0  0  0  0
   11.0635  -17.5382   15.8344 O   0  0  0  0  0  0  0  0  0  0  0  0
    5.4932  -17.9510   15.0122 C   0  0  0  0  0  0  0  0  0  0  0  0
    4.3432  -17.7929   14.2704 C   0  0  0  0  0  0  0  0  0  0  0  0
   16.3996  -14.1362   21.6891 O   0  0  0  0  0  0  0  0  0  0  0  0
   15.2288  -14.2040   20.9282 C   0  0  0  0  0  0  0  0  0  0  0  0
   14.0083  -14.3638   21.5483 C   0  0  0  0  0  0  0  0  0  0  0  0
   12.8288  -14.4358   20.8409 C   0  0  0  0  0  0  0  0  0  0  0  0
   12.8330  -14.3482   19.4573 C   0  0  0  0  0  0  0  0  0  0  0  0
   11.6376  -14.4130   18.6182 C   0  0  0  0  0  0  0  0  0  0  0  0
   11.5192  -15.6638   17.7973 C   0  0  2  0  0  0  0  0  0  0  0  0
   10.4180  -15.6099   16.8642 N   0  0  0  0  0  0  0  0  0  0  0  0
   11.3911  -16.8042   18.7416 C   0  0  0  0  0  0  0  0  0  0  0  0
   10.3318  -16.9831   19.3915 O   0  0  0  0  0  0  0  0  0  0  0  0
   14.0566  -14.1885   18.8424 C   0  0  0  0  0  0  0  0  0  0  0  0
   15.2482  -14.1156   19.5547 C   0  0  0  0  0  0  0  0  0  0  0  0
   13.5928  -20.2452   18.4257 C   0  0  0  0  0  0  0  0  0  0  0  0
   12.2978  -20.1181   19.1988 C   0  0  1  0  0  0  0  0  0  0  0  0
   12.2821  -21.1560   20.1316 O   0  0  0  0  0  0  0  0  0  0  0  0
   12.3238  -18.8013   19.9406 C   0  0  2  0  0  0  0  0  0  0  0  0
   12.4432  -17.7359   18.9546 N   0  0  0  0  0  0  0  0  0  0  0  0
   13.4494  -18.7135   20.8759 C   0  0  0  0  0  0  0  0  0  0  0  0
   14.4169  -17.9432   20.6560 O   0  0  0  0  0  0  0  0  0  0  0  0
   13.4422  -19.4923   22.0168 O   0  0  0  0  0  0  0  0  0  0  0  0
  2 12  2  0
  2  1  1  0
  3  2  1  0
  4  5  1  0
  4  3  2  0
  5 11  2  0
  6  5  1  0
  7  9  1  0
  7  6  1  0
  7  8  1  6
  9 10  2  0
 11 12  1  0
 14 15  2  0
 14 13  1  0
 16 15  1  0
 17 16  2  0
 19 18  1  1
 18 17  1  0
 20 19  1  0
 20  9  1  0
 21 22  2  0
 21 19  1  0
 23 17  1  0
 23 24  2  0
 24 14  1  0
 26 25  1  6
 26 28  1  0
 27 26  1  0
 28 30  1  0
 28 29  1  6
 29 21  1  0
 30 32  1  0
 31 30  2  0
M  END
$$$$
