YYT.pdb
     RDKit          3D

 32 33  0  0  1  0  0  0  0  0999 V2000
    8.3277  -13.3524   15.3759 O   0  0  0  0  0  0  0  0  0  0  0  0
    8.1522  -13.6236   16.7358 C   0  0  0  0  0  0  0  0  0  0  0  0
    9.1968  -14.0520   17.5274 C   0  0  0  0  0  0  0  0  0  0  0  0
    9.0240  -14.3200   18.8700 C   0  0  0  0  0  0  0  0  0  0  0  0
    7.7834  -14.1668   19.4771 C   0  0  0  0  0  0  0  0  0  0  0  0
    7.6212  -14.4566   20.9027 C   0  0  0  0  0  0  0  0  0  0  0  0
    7.7727  -15.9379   21.1902 C   0  0  2  0  0  0  0  0  0  0  0  0
    6.5931  -16.6007   20.6655 N   0  0  0  0  0  0  0  0  0  0  0  0
    7.8547  -16.1998   22.6281 C   0  0  0  0  0  0  0  0  0  0  0  0
    6.8181  -16.3344   23.3380 O   0  0  0  0  0  0  0  0  0  0  0  0
    6.7596  -13.7370   18.6583 C   0  0  0  0  0  0  0  0  0  0  0  0
    6.9139  -13.4650   17.3167 C   0  0  0  0  0  0  0  0  0  0  0  0
   10.8440  -16.8732   30.9570 O   0  0  0  0  0  0  0  0  0  0  0  0
   10.7604  -16.8340   29.5620 C   0  0  0  0  0  0  0  0  0  0  0  0
   11.3533  -15.8057   28.8614 C   0  0  0  0  0  0  0  0  0  0  0  0
   11.2975  -15.7249   27.4877 C   0  0  0  0  0  0  0  0  0  0  0  0
   10.6307  -16.6936   26.7536 C   0  0  0  0  0  0  0  0  0  0  0  0
   10.5158  -16.6973   25.2962 C   0  0  0  0  0  0  0  0  0  0  0  0
    9.1864  -16.2359   24.7744 C   0  0  2  0  0  0  0  0  0  0  0  0
    9.0975  -16.3229   23.3354 N   0  0  0  0  0  0  0  0  0  0  0  0
    8.9764  -14.8473   25.2604 C   0  0  0  0  0  0  0  0  0  0  0  0
    9.7325  -13.9162   24.8890 O   0  0  0  0  0  0  0  0  0  0  0  0
   10.0396  -17.7198   27.4595 C   0  0  0  0  0  0  0  0  0  0  0  0
   10.0947  -17.8031   28.8460 C   0  0  0  0  0  0  0  0  0  0  0  0
    6.1129  -12.5533   24.8589 C   0  0  0  0  0  0  0  0  0  0  0  0
    6.2837  -12.7686   26.3473 C   0  0  1  0  0  0  0  0  0  0  0  0
    5.4791  -13.8555   26.6921 O   0  0  0  0  0  0  0  0  0  0  0  0
    7.7277  -13.1350   26.6038 C   0  0  2  0  0  0  0  0  0  0  0  0
    7.9264  -14.5066   26.1559 N   0  0  0  0  0  0  0  0  0  0  0  0
    8.0800  -13.0415   28.0239 C   0  0  0  0  0  0  0  0  0  0  0  0
    8.4613  -14.0519   28.6654 O   0  0  0  0  0  0  0  0  0  0  0  0
    7.9898  -11.8204   28.6635 O   0  0  0  0  0  0  0  0  0  0  0  0
  2 12  2  0
  2  1  1  0
  3  2  1  0
  4  5  1  0
  4  3  2  0
  5 11  2  0
  6  5  1  0
  7  9  1  0
  7  6  1  0
  7  8  1  1
  9 10  2  0
 11 12  1  0
 14 15  2  0
 14 13  1  0
 16 15  1  0
 17 16  2  0
 19 18  1  6
 18 17  1  0
 20 19  1  0
 20  9  1  0
 21 22  2  0
 21 19  1  0
 23 17  1  0
 23 24  2  0
 24 14  1  0
 26 25  1  6
 26 28  1  0
 27 26  1  0
 28 30  1  0
 28 29  1  1
 29 21  1  0
 30 32  1  0
 31 30  2  0
M  END
$$$$
