YYT.pdb
     RDKit          3D

 32 33  0  0  1  0  0  0  0  0999 V2000
    1.4525  -19.2001   18.7614 O   0  0  0  0  0  0  0  0  0  0  0  0
    2.5344  -18.9610   19.6136 C   0  0  0  0  0  0  0  0  0  0  0  0
    2.3782  -18.2898   20.8079 C   0  0  0  0  0  0  0  0  0  0  0  0
    3.4460  -18.0534   21.6496 C   0  0  0  0  0  0  0  0  0  0  0  0
    4.7253  -18.4859   21.3223 C   0  0  0  0  0  0  0  0  0  0  0  0
    5.8445  -18.2248   22.2289 C   0  0  0  0  0  0  0  0  0  0  0  0
    6.1304  -16.7402   22.3470 C   0  0  2  0  0  0  0  0  0  0  0  0
    6.6802  -16.3057   21.0761 N   0  0  0  0  0  0  0  0  0  0  0  0
    7.1107  -16.4644   23.3986 C   0  0  0  0  0  0  0  0  0  0  0  0
    8.3521  -16.4598   23.1635 O   0  0  0  0  0  0  0  0  0  0  0  0
    4.8480  -19.1539   20.1215 C   0  0  0  0  0  0  0  0  0  0  0  0
    3.7937  -19.3986   19.2693 C   0  0  0  0  0  0  0  0  0  0  0  0
    6.7991   -9.6776   26.1398 O   0  0  0  0  0  0  0  0  0  0  0  0
    6.8972  -11.0565   26.3484 C   0  0  0  0  0  0  0  0  0  0  0  0
    5.7978  -11.7730   26.7700 C   0  0  0  0  0  0  0  0  0  0  0  0
    5.8463  -13.1319   26.9886 C   0  0  0  0  0  0  0  0  0  0  0  0
    7.0246  -13.8341   26.7876 C   0  0  0  0  0  0  0  0  0  0  0  0
    7.1776  -15.2737   26.9910 C   0  0  0  0  0  0  0  0  0  0  0  0
    7.7257  -16.0159   25.8073 C   0  0  2  0  0  0  0  0  0  0  0  0
    6.7472  -16.1818   24.7580 N   0  0  0  0  0  0  0  0  0  0  0  0
    8.2379  -17.3211   26.2999 C   0  0  0  0  0  0  0  0  0  0  0  0
    7.4578  -18.1700   26.7974 O   0  0  0  0  0  0  0  0  0  0  0  0
    8.1211  -13.1124   26.3659 C   0  0  0  0  0  0  0  0  0  0  0  0
    8.0741  -11.7408   26.1446 C   0  0  0  0  0  0  0  0  0  0  0  0
   10.3149  -19.7287   24.4004 C   0  0  0  0  0  0  0  0  0  0  0  0
   11.0679  -19.5007   25.6934 C   0  0  1  0  0  0  0  0  0  0  0  0
   12.0287  -18.5226   25.4328 O   0  0  0  0  0  0  0  0  0  0  0  0
   10.0919  -18.9604   26.7136 C   0  0  2  0  0  0  0  0  0  0  0  0
    9.6141  -17.6705   26.2346 N   0  0  0  0  0  0  0  0  0  0  0  0
   10.7092  -18.7807   28.0311 C   0  0  0  0  0  0  0  0  0  0  0  0
   10.8334  -17.6386   28.5389 O   0  0  0  0  0  0  0  0  0  0  0  0
   11.1606  -19.8882   28.7226 O   0  0  0  0  0  0  0  0  0  0  0  0
  2 12  2  0
  2  1  1  0
  3  2  1  0
  4  5  1  0
  4  3  2  0
  5 11  2  0
  6  5  1  0
  7  9  1  0
  7  6  1  0
  7  8  1  6
  9 10  2  0
 11 12  1  0
 14 15  2  0
 14 13  1  0
 16 15  1  0
 17 16  2  0
 19 18  1  1
 18 17  1  0
 20 19  1  0
 20  9  1  0
 21 22  2  0
 21 19  1  0
 23 17  1  0
 23 24  2  0
 24 14  1  0
 26 25  1  6
 26 28  1  0
 27 26  1  0
 28 30  1  0
 28 29  1  6
 29 21  1  0
 30 32  1  0
 31 30  2  0
M  END
$$$$
