YYT.pdb
     RDKit          3D

 32 33  0  0  1  0  0  0  0  0999 V2000
    7.7693  -14.5329   16.5967 O   0  0  0  0  0  0  0  0  0  0  0  0
    7.3878  -15.6004   17.4145 C   0  0  0  0  0  0  0  0  0  0  0  0
    6.6793  -16.6737   16.9171 C   0  0  0  0  0  0  0  0  0  0  0  0
    6.3025  -17.7279   17.7240 C   0  0  0  0  0  0  0  0  0  0  0  0
    6.6252  -17.7463   19.0755 C   0  0  0  0  0  0  0  0  0  0  0  0
    6.2158  -18.8739   19.9142 C   0  0  0  0  0  0  0  0  0  0  0  0
    5.0680  -18.4977   20.8311 C   0  0  2  0  0  0  0  0  0  0  0  0
    3.9699  -18.0609   19.9887 N   0  0  0  0  0  0  0  0  0  0  0  0
    5.4346  -17.3996   21.7270 C   0  0  0  0  0  0  0  0  0  0  0  0
    5.0556  -16.2135   21.5121 O   0  0  0  0  0  0  0  0  0  0  0  0
    7.3340  -16.6585   19.5418 C   0  0  0  0  0  0  0  0  0  0  0  0
    7.7183  -15.5980   18.7511 C   0  0  0  0  0  0  0  0  0  0  0  0
    8.1584  -12.3209   28.4176 O   0  0  0  0  0  0  0  0  0  0  0  0
    7.7608  -13.3945   27.6152 C   0  0  0  0  0  0  0  0  0  0  0  0
    6.5800  -13.3296   26.9072 C   0  0  0  0  0  0  0  0  0  0  0  0
    6.1473  -14.3615   26.1042 C   0  0  0  0  0  0  0  0  0  0  0  0
    6.9004  -15.5190   25.9811 C   0  0  0  0  0  0  0  0  0  0  0  0
    6.5284  -16.6670   25.1559 C   0  0  0  0  0  0  0  0  0  0  0  0
    6.7348  -16.4688   23.6826 C   0  0  2  0  0  0  0  0  0  0  0  0
    6.2400  -17.5783   22.9014 N   0  0  0  0  0  0  0  0  0  0  0  0
    8.1870  -16.2403   23.4645 C   0  0  0  0  0  0  0  0  0  0  0  0
    9.0258  -17.1320   23.7435 O   0  0  0  0  0  0  0  0  0  0  0  0
    8.0805  -15.5784   26.6915 C   0  0  0  0  0  0  0  0  0  0  0  0
    8.5189  -14.5379   27.5025 C   0  0  0  0  0  0  0  0  0  0  0  0
    9.3749  -13.9250   20.3676 C   0  0  0  0  0  0  0  0  0  0  0  0
   10.1815  -13.6741   21.6235 C   0  0  1  0  0  0  0  0  0  0  0  0
    9.5773  -12.6028   22.2829 O   0  0  0  0  0  0  0  0  0  0  0  0
   10.0771  -14.9020   22.4989 C   0  0  2  0  0  0  0  0  0  0  0  0
    8.6933  -15.0211   22.9375 N   0  0  0  0  0  0  0  0  0  0  0  0
   10.9452  -14.8187   23.6774 C   0  0  0  0  0  0  0  0  0  0  0  0
   10.4667  -14.8442   24.8385 O   0  0  0  0  0  0  0  0  0  0  0  0
   12.3114  -14.7103   23.5040 O   0  0  0  0  0  0  0  0  0  0  0  0
  2 12  2  0
  2  1  1  0
  3  2  1  0
  4  5  1  0
  4  3  2  0
  5 11  2  0
  6  5  1  0
  7  9  1  0
  7  6  1  0
  7  8  1  6
  9 10  2  0
 11 12  1  0
 14 15  2  0
 14 13  1  0
 16 15  1  0
 17 16  2  0
 19 18  1  1
 18 17  1  0
 20 19  1  0
 20  9  1  0
 21 22  2  0
 21 19  1  0
 23 17  1  0
 23 24  2  0
 24 14  1  0
 26 25  1  6
 26 28  1  0
 27 26  1  0
 28 30  1  0
 28 29  1  1
 29 21  1  0
 30 32  1  0
 31 30  2  0
M  END
$$$$
