YYT.pdb
     RDKit          3D

 32 33  0  0  1  0  0  0  0  0999 V2000
    7.3895  -12.4261   17.1271 O   0  0  0  0  0  0  0  0  0  0  0  0
    7.7484  -13.0969   18.2998 C   0  0  0  0  0  0  0  0  0  0  0  0
    7.2633  -12.7089   19.5308 C   0  0  0  0  0  0  0  0  0  0  0  0
    7.6173  -13.3708   20.6889 C   0  0  0  0  0  0  0  0  0  0  0  0
    8.4809  -14.4590   20.6564 C   0  0  0  0  0  0  0  0  0  0  0  0
    8.8441  -15.1470   21.8963 C   0  0  0  0  0  0  0  0  0  0  0  0
    9.7366  -16.3433   21.6281 C   0  0  2  0  0  0  0  0  0  0  0  0
    8.9669  -17.2853   20.8365 N   0  0  0  0  0  0  0  0  0  0  0  0
   10.1419  -17.0003   22.8719 C   0  0  0  0  0  0  0  0  0  0  0  0
    9.4370  -17.9030   23.4054 O   0  0  0  0  0  0  0  0  0  0  0  0
    8.9484  -14.8218   19.4102 C   0  0  0  0  0  0  0  0  0  0  0  0
    8.6057  -14.1729   18.2444 C   0  0  0  0  0  0  0  0  0  0  0  0
   13.2293  -22.2432   20.9222 O   0  0  0  0  0  0  0  0  0  0  0  0
   13.1874  -21.2005   21.8526 C   0  0  0  0  0  0  0  0  0  0  0  0
   12.6718  -21.4169   23.1123 C   0  0  0  0  0  0  0  0  0  0  0  0
   12.6098  -20.4210   24.0617 C   0  0  0  0  0  0  0  0  0  0  0  0
   13.0728  -19.1464   23.7738 C   0  0  0  0  0  0  0  0  0  0  0  0
   13.0512  -18.0245   24.7110 C   0  0  0  0  0  0  0  0  0  0  0  0
   11.7294  -17.3206   24.8105 C   0  0  2  0  0  0  0  0  0  0  0  0
   11.3516  -16.6776   23.5736 N   0  0  0  0  0  0  0  0  0  0  0  0
   11.8260  -16.3513   25.9329 C   0  0  0  0  0  0  0  0  0  0  0  0
   12.7773  -15.5341   25.9948 O   0  0  0  0  0  0  0  0  0  0  0  0
   13.5874  -18.9356   22.5123 C   0  0  0  0  0  0  0  0  0  0  0  0
   13.6509  -19.9395   21.5527 C   0  0  0  0  0  0  0  0  0  0  0  0
    9.9985  -13.5104   26.8673 C   0  0  0  0  0  0  0  0  0  0  0  0
    9.8279  -14.4260   28.0603 C   0  0  1  0  0  0  0  0  0  0  0  0
    8.6646  -15.1643   27.8383 O   0  0  0  0  0  0  0  0  0  0  0  0
   11.0042  -15.3748   28.0932 C   0  0  2  0  0  0  0  0  0  0  0  0
   10.8629  -16.2997   26.9770 N   0  0  0  0  0  0  0  0  0  0  0  0
   11.0646  -16.1405   29.3420 C   0  0  0  0  0  0  0  0  0  0  0  0
   10.9820  -17.3939   29.3390 O   0  0  0  0  0  0  0  0  0  0  0  0
   11.2151  -15.4689   30.5398 O   0  0  0  0  0  0  0  0  0  0  0  0
  2 12  2  0
  2  1  1  0
  3  2  1  0
  4  5  1  0
  4  3  2  0
  5 11  2  0
  6  5  1  0
  7  9  1  0
  7  6  1  0
  7  8  1  6
  9 10  2  0
 11 12  1  0
 14 15  2  0
 14 13  1  0
 16 15  1  0
 17 16  2  0
 19 18  1  6
 18 17  1  0
 20 19  1  0
 20  9  1  0
 21 22  2  0
 21 19  1  0
 23 17  1  0
 23 24  2  0
 24 14  1  0
 26 25  1  6
 26 28  1  0
 27 26  1  0
 28 30  1  0
 28 29  1  6
 29 21  1  0
 30 32  1  0
 31 30  2  0
M  END
$$$$
