YYT.pdb
     RDKit          3D

 32 33  0  0  1  0  0  0  0  0999 V2000
    5.5893  -13.5941   13.6717 O   0  0  0  0  0  0  0  0  0  0  0  0
    6.4661  -14.1376   14.6150 C   0  0  0  0  0  0  0  0  0  0  0  0
    7.0914  -13.3494   15.5579 C   0  0  0  0  0  0  0  0  0  0  0  0
    7.9571  -13.8855   16.4894 C   0  0  0  0  0  0  0  0  0  0  0  0
    8.2319  -15.2475   16.5112 C   0  0  0  0  0  0  0  0  0  0  0  0
    9.1534  -15.7960   17.5074 C   0  0  0  0  0  0  0  0  0  0  0  0
   10.5793  -15.3462   17.2539 C   0  0  2  0  0  0  0  0  0  0  0  0
   10.9831  -15.8977   15.9735 N   0  0  0  0  0  0  0  0  0  0  0  0
   11.4908  -15.8446   18.2852 C   0  0  0  0  0  0  0  0  0  0  0  0
   11.9970  -17.0005   18.2208 O   0  0  0  0  0  0  0  0  0  0  0  0
    7.5907  -16.0081   15.5555 C   0  0  0  0  0  0  0  0  0  0  0  0
    6.7239  -15.4902   14.6185 C   0  0  0  0  0  0  0  0  0  0  0  0
   17.9840  -13.7337   17.1356 O   0  0  0  0  0  0  0  0  0  0  0  0
   16.9550  -13.9438   18.0584 C   0  0  0  0  0  0  0  0  0  0  0  0
   15.7284  -13.3421   17.8766 C   0  0  0  0  0  0  0  0  0  0  0  0
   14.6853  -13.5194   18.7583 C   0  0  0  0  0  0  0  0  0  0  0  0
   14.8400  -14.3237   19.8768 C   0  0  0  0  0  0  0  0  0  0  0  0
   13.7961  -14.5748   20.8690 C   0  0  0  0  0  0  0  0  0  0  0  0
   12.7669  -15.5834   20.4496 C   0  0  2  0  0  0  0  0  0  0  0  0
   11.8765  -15.0740   19.4329 N   0  0  0  0  0  0  0  0  0  0  0  0
   12.0322  -16.0025   21.6716 C   0  0  0  0  0  0  0  0  0  0  0  0
   11.3261  -15.1825   22.3085 O   0  0  0  0  0  0  0  0  0  0  0  0
   16.0690  -14.9231   20.0536 C   0  0  0  0  0  0  0  0  0  0  0  0
   17.1230  -14.7454   19.1648 C   0  0  0  0  0  0  0  0  0  0  0  0
    9.4709  -18.5931   22.0914 C   0  0  0  0  0  0  0  0  0  0  0  0
   10.5746  -18.9687   23.0565 C   0  0  1  0  0  0  0  0  0  0  0  0
   11.4093  -19.8634   22.3853 O   0  0  0  0  0  0  0  0  0  0  0  0
   11.3622  -17.7184   23.3752 C   0  0  2  0  0  0  0  0  0  0  0  0
   12.0894  -17.3308   22.1743 N   0  0  0  0  0  0  0  0  0  0  0  0
   12.3198  -17.9287   24.4653 C   0  0  0  0  0  0  0  0  0  0  0  0
   13.5569  -17.8361   24.2687 O   0  0  0  0  0  0  0  0  0  0  0  0
   11.8499  -18.2336   25.7280 O   0  0  0  0  0  0  0  0  0  0  0  0
  2 12  2  0
  2  1  1  0
  3  2  1  0
  4  5  1  0
  4  3  2  0
  5 11  2  0
  6  5  1  0
  7  9  1  0
  7  6  1  0
  7  8  1  6
  9 10  2  0
 11 12  1  0
 14 15  2  0
 14 13  1  0
 16 15  1  0
 17 16  2  0
 19 18  1  1
 18 17  1  0
 20 19  1  0
 20  9  1  0
 21 22  2  0
 21 19  1  0
 23 17  1  0
 23 24  2  0
 24 14  1  0
 26 25  1  6
 26 28  1  0
 27 26  1  0
 28 30  1  0
 28 29  1  6
 29 21  1  0
 30 32  1  0
 31 30  2  0
M  END
$$$$
