YYT.pdb
     RDKit          3D

 32 33  0  0  1  0  0  0  0  0999 V2000
   10.8041  -14.1072   31.3330 O   0  0  0  0  0  0  0  0  0  0  0  0
   10.5470  -14.7876   30.1394 C   0  0  0  0  0  0  0  0  0  0  0  0
   10.6543  -16.1595   30.0528 C   0  0  0  0  0  0  0  0  0  0  0  0
   10.4005  -16.8317   28.8745 C   0  0  0  0  0  0  0  0  0  0  0  0
   10.0253  -16.1463   27.7254 C   0  0  0  0  0  0  0  0  0  0  0  0
    9.7609  -16.8783   26.4857 C   0  0  0  0  0  0  0  0  0  0  0  0
    8.2830  -16.8815   26.1457 C   0  0  2  0  0  0  0  0  0  0  0  0
    7.7411  -18.1509   26.5944 N   0  0  0  0  0  0  0  0  0  0  0  0
    8.0639  -16.7641   24.7031 C   0  0  0  0  0  0  0  0  0  0  0  0
    8.0057  -17.7815   23.9561 O   0  0  0  0  0  0  0  0  0  0  0  0
    9.9269  -14.7755   27.8451 C   0  0  0  0  0  0  0  0  0  0  0  0
   10.1764  -14.0883   29.0127 C   0  0  0  0  0  0  0  0  0  0  0  0
    7.7365  -13.1447   16.5321 O   0  0  0  0  0  0  0  0  0  0  0  0
    7.6735  -13.3583   17.9123 C   0  0  0  0  0  0  0  0  0  0  0  0
    6.8233  -14.3132   18.4271 C   0  0  0  0  0  0  0  0  0  0  0  0
    6.7271  -14.5590   19.7788 C   0  0  0  0  0  0  0  0  0  0  0  0
    7.4969  -13.8400   20.6801 C   0  0  0  0  0  0  0  0  0  0  0  0
    7.4675  -14.0261   22.1298 C   0  0  0  0  0  0  0  0  0  0  0  0
    7.9091  -15.3836   22.5932 C   0  0  2  0  0  0  0  0  0  0  0  0
    7.9004  -15.5058   24.0323 N   0  0  0  0  0  0  0  0  0  0  0  0
    9.2595  -15.6297   22.0235 C   0  0  0  0  0  0  0  0  0  0  0  0
   10.2639  -15.0209   22.4675 O   0  0  0  0  0  0  0  0  0  0  0  0
    8.3455  -12.8862   20.1596 C   0  0  0  0  0  0  0  0  0  0  0  0
    8.4441  -12.6366   18.7955 C   0  0  0  0  0  0  0  0  0  0  0  0
   11.3236  -18.7631   21.7931 C   0  0  0  0  0  0  0  0  0  0  0  0
   11.0335  -18.2864   20.3862 C   0  0  1  0  0  0  0  0  0  0  0  0
    9.8430  -18.8982   19.9911 O   0  0  0  0  0  0  0  0  0  0  0  0
   10.8161  -16.7912   20.4349 C   0  0  2  0  0  0  0  0  0  0  0  0
    9.4805  -16.5515   20.9643 N   0  0  0  0  0  0  0  0  0  0  0  0
   10.9221  -16.1717   19.1104 C   0  0  0  0  0  0  0  0  0  0  0  0
    9.9067  -15.7291   18.5182 O   0  0  0  0  0  0  0  0  0  0  0  0
   12.1610  -16.0749   18.5069 O   0  0  0  0  0  0  0  0  0  0  0  0
  2 12  2  0
  2  1  1  0
  3  2  1  0
  4  5  1  0
  4  3  2  0
  5 11  2  0
  6  5  1  0
  7  9  1  0
  7  6  1  0
  7  8  1  6
  9 10  2  0
 11 12  1  0
 14 15  2  0
 14 13  1  0
 16 15  1  0
 17 16  2  0
 19 18  1  1
 18 17  1  0
 20 19  1  0
 20  9  1  0
 21 22  2  0
 21 19  1  0
 23 17  1  0
 23 24  2  0
 24 14  1  0
 26 25  1  1
 26 28  1  0
 27 26  1  0
 28 30  1  0
 28 29  1  6
 29 21  1  0
 30 32  1  0
 31 30  2  0
M  END
$$$$
