SGN.pdb
     RDKit          3D

 19 18  0  0  1  0  0  0  0  0999 V2000
    9.5702  -18.3207   15.1737 O   0  0  0  0  0  0  0  0  0  0  0  0
    9.8168  -18.7782   16.4843 C   0  0  0  0  0  0  0  0  0  0  0  0
   10.0353  -17.5640   17.3384 C   0  0  2  0  0  0  0  0  0  0  0  0
   11.4205  -17.3126   17.5701 N   0  0  0  0  0  0  0  0  0  0  0  0
    9.2598  -17.6825   18.6033 C   0  0  0  0  0  0  0  0  0  0  0  0
    7.9944  -17.5654   18.6208 O   0  0  0  0  0  0  0  0  0  0  0  0
    9.8722  -17.9316   19.8667 N   0  0  0  0  0  0  0  0  0  0  0  0
    9.0808  -17.9782   21.0815 C   0  0  0  0  0  0  0  0  0  0  0  0
   10.0247  -17.9297   22.2447 C   0  0  0  0  0  0  0  0  0  0  0  0
   10.0963  -18.8347   23.1111 O   0  0  0  0  0  0  0  0  0  0  0  0
   13.5110  -17.4518   21.5586 N   0  0  0  0  0  0  0  0  0  0  0  0
   13.6785  -16.1236   22.0934 C   0  0  0  0  0  0  0  0  0  0  0  0
   14.5743  -15.4028   21.5922 O   0  0  0  0  0  0  0  0  0  0  0  0
   12.7975  -15.7019   23.1805 C   0  0  0  0  0  0  0  0  0  0  0  0
   11.7374  -16.7304   23.5609 C   0  0  2  0  0  0  0  0  0  0  0  0
   10.8764  -16.8094   22.3716 N   0  0  0  0  0  0  0  0  0  0  0  0
   10.9099  -16.2985   24.7114 C   0  0  0  0  0  0  0  0  0  0  0  0
   11.2032  -16.6114   25.8786 O   0  0  0  0  0  0  0  0  0  0  0  0
    9.7767  -15.5266   24.5087 O   0  0  0  0  0  0  0  0  0  0  0  0
  1  2  1  0
  3  2  1  0
  3  5  1  0
  3  4  1  1
  5  6  2  0
  7  8  1  0
  7  5  1  0
  8  9  1  0
  9 10  2  0
  9 16  1  0
 12 11  1  0
 12 13  2  0
 14 12  1  0
 15 14  1  6
 16 15  1  0
 17 15  1  0
 17 19  1  0
 18 17  2  0
M  END
$$$$
