SGN.pdb
     RDKit          3D

 19 18  0  0  1  0  0  0  0  0999 V2000
    2.0206  -19.5825   19.3189 O   0  0  0  0  0  0  0  0  0  0  0  0
    3.1452  -18.7384   19.2151 C   0  0  0  0  0  0  0  0  0  0  0  0
    3.9531  -18.9294   20.4650 C   0  0  2  0  0  0  0  0  0  0  0  0
    3.1346  -19.2435   21.5907 N   0  0  0  0  0  0  0  0  0  0  0  0
    4.8151  -17.7397   20.7034 C   0  0  0  0  0  0  0  0  0  0  0  0
    5.7439  -17.4194   19.8972 O   0  0  0  0  0  0  0  0  0  0  0  0
    4.6629  -16.8875   21.8364 N   0  0  0  0  0  0  0  0  0  0  0  0
    5.4595  -15.6831   21.9748 C   0  0  0  0  0  0  0  0  0  0  0  0
    6.4457  -15.9112   23.0801 C   0  0  0  0  0  0  0  0  0  0  0  0
    7.1712  -15.0032   23.5532 O   0  0  0  0  0  0  0  0  0  0  0  0
    9.0832  -18.4232   26.7642 N   0  0  0  0  0  0  0  0  0  0  0  0
    7.6783  -18.7447   26.7994 C   0  0  0  0  0  0  0  0  0  0  0  0
    7.2668  -19.4531   27.7492 O   0  0  0  0  0  0  0  0  0  0  0  0
    6.8255  -18.2268   25.7315 C   0  0  0  0  0  0  0  0  0  0  0  0
    7.5732  -17.4385   24.6611 C   0  0  2  0  0  0  0  0  0  0  0  0
    6.5639  -17.2132   23.6160 N   0  0  0  0  0  0  0  0  0  0  0  0
    8.6974  -18.2020   24.0709 C   0  0  0  0  0  0  0  0  0  0  0  0
    8.6284  -18.6828   22.9262 O   0  0  0  0  0  0  0  0  0  0  0  0
    9.8650  -18.3991   24.7913 O   0  0  0  0  0  0  0  0  0  0  0  0
  1  2  1  0
  3  2  1  0
  3  5  1  0
  3  4  1  1
  5  6  2  0
  7  8  1  0
  7  5  1  0
  8  9  1  0
  9 10  2  0
  9 16  1  0
 12 11  1  0
 12 13  2  0
 14 12  1  0
 15 14  1  1
 16 15  1  0
 17 15  1  0
 17 19  1  0
 18 17  2  0
M  END
$$$$
