SGN.pdb
     RDKit          3D

 19 18  0  0  1  0  0  0  0  0999 V2000
    7.7674  -12.8730   17.5888 O   0  0  0  0  0  0  0  0  0  0  0  0
    7.3855  -13.2733   18.8857 C   0  0  0  0  0  0  0  0  0  0  0  0
    8.4145  -14.2561   19.3617 C   0  0  2  0  0  0  0  0  0  0  0  0
    8.6933  -15.2574   18.3843 N   0  0  0  0  0  0  0  0  0  0  0  0
    8.0010  -14.8368   20.6683 C   0  0  0  0  0  0  0  0  0  0  0  0
    7.6593  -16.0561   20.7757 O   0  0  0  0  0  0  0  0  0  0  0  0
    7.9590  -14.0776   21.8746 N   0  0  0  0  0  0  0  0  0  0  0  0
    7.5610  -14.6914   23.1273 C   0  0  0  0  0  0  0  0  0  0  0  0
    8.7901  -14.8489   23.9705 C   0  0  0  0  0  0  0  0  0  0  0  0
    9.9277  -14.4633   23.6075 O   0  0  0  0  0  0  0  0  0  0  0  0
   10.4777  -13.4284   29.0311 N   0  0  0  0  0  0  0  0  0  0  0  0
   10.0881  -14.7423   28.5837 C   0  0  0  0  0  0  0  0  0  0  0  0
   10.5695  -15.7299   29.1888 O   0  0  0  0  0  0  0  0  0  0  0  0
    9.1603  -14.8406   27.4588 C   0  0  0  0  0  0  0  0  0  0  0  0
    9.7922  -15.3579   26.1706 C   0  0  2  0  0  0  0  0  0  0  0  0
    8.6610  -15.4619   25.2370 N   0  0  0  0  0  0  0  0  0  0  0  0
   10.3941  -16.7022   26.3299 C   0  0  0  0  0  0  0  0  0  0  0  0
    9.7158  -17.7378   26.2123 O   0  0  0  0  0  0  0  0  0  0  0  0
   11.7435  -16.8360   26.6171 O   0  0  0  0  0  0  0  0  0  0  0  0
  1  2  1  0
  3  2  1  0
  3  5  1  0
  3  4  1  6
  5  6  2  0
  7  8  1  0
  7  5  1  0
  8  9  1  0
  9 10  2  0
  9 16  1  0
 12 11  1  0
 12 13  2  0
 14 12  1  0
 15 14  1  1
 16 15  1  0
 17 15  1  0
 17 19  1  0
 18 17  2  0
M  END
$$$$
