SGN.pdb
     RDKit          3D

 19 18  0  0  1  0  0  0  0  0999 V2000
   11.0472  -13.8980   17.7696 O   0  0  0  0  0  0  0  0  0  0  0  0
    9.7464  -14.3047   18.1308 C   0  0  0  0  0  0  0  0  0  0  0  0
    9.3036  -13.4114   19.2521 C   0  0  2  0  0  0  0  0  0  0  0  0
   10.3643  -13.1271   20.1630 N   0  0  0  0  0  0  0  0  0  0  0  0
    8.1131  -13.9935   19.9298 C   0  0  0  0  0  0  0  0  0  0  0  0
    7.0925  -14.3708   19.2732 O   0  0  0  0  0  0  0  0  0  0  0  0
    8.0338  -14.1662   21.3430 N   0  0  0  0  0  0  0  0  0  0  0  0
    6.8634  -14.7659   21.9554 C   0  0  0  0  0  0  0  0  0  0  0  0
    7.1096  -14.8457   23.4317 C   0  0  0  0  0  0  0  0  0  0  0  0
    6.3072  -15.3795   24.2353 O   0  0  0  0  0  0  0  0  0  0  0  0
    5.6336  -12.0543   26.4816 N   0  0  0  0  0  0  0  0  0  0  0  0
    6.9559  -12.6284   26.4642 C   0  0  0  0  0  0  0  0  0  0  0  0
    7.9025  -11.9232   26.8883 O   0  0  0  0  0  0  0  0  0  0  0  0
    7.1096  -13.9903   25.9565 C   0  0  0  0  0  0  0  0  0  0  0  0
    8.4966  -14.2977   25.4014 C   0  0  2  0  0  0  0  0  0  0  0  0
    8.3048  -14.2925   23.9436 N   0  0  0  0  0  0  0  0  0  0  0  0
    8.9894  -15.6352   25.8051 C   0  0  0  0  0  0  0  0  0  0  0  0
    9.1568  -15.9342   27.0004 O   0  0  0  0  0  0  0  0  0  0  0  0
    9.2780  -16.5941   24.8467 O   0  0  0  0  0  0  0  0  0  0  0  0
  1  2  1  0
  3  2  1  0
  3  5  1  0
  3  4  1  1
  5  6  2  0
  7  8  1  0
  7  5  1  0
  8  9  1  0
  9 10  2  0
  9 16  1  0
 12 11  1  0
 12 13  2  0
 14 12  1  0
 15 14  1  1
 16 15  1  0
 17 15  1  0
 17 19  1  0
 18 17  2  0
M  END
$$$$
