SGN.pdb
     RDKit          3D

 19 18  0  0  1  0  0  0  0  0999 V2000
    8.7742  -13.0642   17.0168 O   0  0  0  0  0  0  0  0  0  0  0  0
    7.9362  -13.2853   18.1289 C   0  0  0  0  0  0  0  0  0  0  0  0
    8.2737  -14.6441   18.6685 C   0  0  2  0  0  0  0  0  0  0  0  0
    8.0840  -15.6704   17.6958 N   0  0  0  0  0  0  0  0  0  0  0  0
    7.5117  -14.9004   19.9212 C   0  0  0  0  0  0  0  0  0  0  0  0
    6.3353  -15.3808   19.8973 O   0  0  0  0  0  0  0  0  0  0  0  0
    8.0392  -14.6290   21.2178 N   0  0  0  0  0  0  0  0  0  0  0  0
    7.2915  -14.9721   22.4127 C   0  0  0  0  0  0  0  0  0  0  0  0
    8.1237  -14.5892   23.5989 C   0  0  0  0  0  0  0  0  0  0  0  0
    9.3571  -14.3678   23.5317 O   0  0  0  0  0  0  0  0  0  0  0  0
    5.3376  -12.2573   26.5430 N   0  0  0  0  0  0  0  0  0  0  0  0
    6.7629  -12.3443   26.7414 C   0  0  0  0  0  0  0  0  0  0  0  0
    7.4321  -11.2897   26.6269 O   0  0  0  0  0  0  0  0  0  0  0  0
    7.3358  -13.6499   27.0627 C   0  0  0  0  0  0  0  0  0  0  0  0
    8.3254  -14.1707   26.0254 C   0  0  2  0  0  0  0  0  0  0  0  0
    7.4877  -14.4716   24.8552 N   0  0  0  0  0  0  0  0  0  0  0  0
    8.9979  -15.4191   26.4546 C   0  0  0  0  0  0  0  0  0  0  0  0
    9.8657  -15.4184   27.3452 O   0  0  0  0  0  0  0  0  0  0  0  0
    8.6700  -16.6298   25.8649 O   0  0  0  0  0  0  0  0  0  0  0  0
  1  2  1  0
  3  2  1  0
  3  5  1  0
  3  4  1  6
  5  6  2  0
  7  8  1  0
  7  5  1  0
  8  9  1  0
  9 10  2  0
  9 16  1  0
 12 11  1  0
 12 13  2  0
 14 12  1  0
 15 14  1  1
 16 15  1  0
 17 15  1  0
 17 19  1  0
 18 17  2  0
M  END
$$$$
