SGN.pdb
     RDKit          3D

 19 18  0  0  1  0  0  0  0  0999 V2000
    8.3051  -13.6406   17.9118 O   0  0  0  0  0  0  0  0  0  0  0  0
    7.5366  -13.8565   19.0740 C   0  0  0  0  0  0  0  0  0  0  0  0
    7.8547  -15.2404   19.5588 C   0  0  2  0  0  0  0  0  0  0  0  0
    7.2819  -16.2464   18.7248 N   0  0  0  0  0  0  0  0  0  0  0  0
    7.4531  -15.3876   20.9844 C   0  0  0  0  0  0  0  0  0  0  0  0
    6.2329  -15.4912   21.3242 O   0  0  0  0  0  0  0  0  0  0  0  0
    8.3948  -15.4219   22.0546 N   0  0  0  0  0  0  0  0  0  0  0  0
    7.9537  -15.5468   23.4309 C   0  0  0  0  0  0  0  0  0  0  0  0
    9.1667  -15.4764   24.3084 C   0  0  0  0  0  0  0  0  0  0  0  0
   10.2926  -15.1047   23.8976 O   0  0  0  0  0  0  0  0  0  0  0  0
   10.9391  -13.2549   28.9640 N   0  0  0  0  0  0  0  0  0  0  0  0
   10.3704  -14.5771   28.8834 C   0  0  0  0  0  0  0  0  0  0  0  0
   10.6830  -15.4008   29.7762 O   0  0  0  0  0  0  0  0  0  0  0  0
    9.4688  -14.8734   27.7719 C   0  0  0  0  0  0  0  0  0  0  0  0
   10.1472  -15.5326   26.5754 C   0  0  2  0  0  0  0  0  0  0  0  0
    9.0356  -15.8467   25.6657 N   0  0  0  0  0  0  0  0  0  0  0  0
   10.8326  -16.7965   26.9327 C   0  0  0  0  0  0  0  0  0  0  0  0
   12.0456  -16.8253   27.2049 O   0  0  0  0  0  0  0  0  0  0  0  0
   10.1273  -17.9891   26.9718 O   0  0  0  0  0  0  0  0  0  0  0  0
  1  2  1  0
  3  2  1  0
  3  5  1  0
  3  4  1  6
  5  6  2  0
  7  8  1  0
  7  5  1  0
  8  9  1  0
  9 10  2  0
  9 16  1  0
 12 11  1  0
 12 13  2  0
 14 12  1  0
 15 14  1  1
 16 15  1  0
 17 15  1  0
 17 19  1  0
 18 17  2  0
M  END
$$$$
