KRI.pdb
     RDKit          3D

 29 28  0  0  1  0  0  0  0  0999 V2000
    9.1841  -21.1944   22.8339 N   0  0  0  0  0  0  0  0  0  0  0  0
    8.0455  -20.5126   23.3604 C   0  0  1  0  0  0  0  0  0  0  0  0
    7.5905  -21.1242   24.6301 C   0  0  0  0  0  0  0  0  0  0  0  0
    6.8149  -22.3801   24.5397 C   0  0  0  0  0  0  0  0  0  0  0  0
    7.5408  -23.6173   24.1725 C   0  0  0  0  0  0  0  0  0  0  0  0
    6.5923  -24.8250   24.0813 C   0  0  0  0  0  0  0  0  0  0  0  0
    7.3879  -25.9863   23.8042 N   0  0  0  0  0  0  0  0  0  0  0  0
    8.2349  -19.0409   23.4337 C   0  0  0  0  0  0  0  0  0  0  0  0
    9.1861  -18.5388   24.1074 O   0  0  0  0  0  0  0  0  0  0  0  0
    7.3988  -14.4920   18.6468 N   0  0  0  0  0  0  0  0  0  0  0  0
    8.1931  -13.4915   19.3243 C   0  0  0  0  0  0  0  0  0  0  0  0
    8.1538  -12.2577   18.9476 N   0  0  0  0  0  0  0  0  0  0  0  0
    9.0198  -13.8756   20.4109 N   0  0  0  0  0  0  0  0  0  0  0  0
    8.5407  -13.9887   21.7702 C   0  0  0  0  0  0  0  0  0  0  0  0
    7.0895  -14.4169   21.8385 C   0  0  0  0  0  0  0  0  0  0  0  0
    7.0226  -15.8956   21.6960 C   0  0  0  0  0  0  0  0  0  0  0  0
    7.4820  -16.6818   22.8697 C   0  0  2  0  0  0  0  0  0  0  0  0
    7.3917  -18.1073   22.7762 N   0  0  0  0  0  0  0  0  0  0  0  0
    7.0623  -16.1430   24.1714 C   0  0  0  0  0  0  0  0  0  0  0  0
    5.8839  -16.2213   24.5356 O   0  0  0  0  0  0  0  0  0  0  0  0
    8.7715  -11.5790   19.4097 C   0  0  0  0  0  0  0  0  0  0  0  0
    9.8105  -13.4797   29.1276 C   0  0  0  0  0  0  0  0  0  0  0  0
    8.5414  -13.9621   28.4703 C   0  0  2  0  0  0  0  0  0  0  0  0
    8.7606  -14.3956   27.0766 C   0  0  0  0  0  0  0  0  0  0  0  0
    9.3654  -13.2314   26.2922 C   0  0  2  0  0  0  0  0  0  0  0  0
    7.6168  -14.9049   26.3023 N   0  0  0  0  0  0  0  0  0  0  0  0
    7.9894  -15.5278   25.0206 C   0  0  0  0  0  0  0  0  0  0  0  0
    6.4950  -13.9550   26.0866 O   0  0  0  0  0  0  0  0  0  0  0  0
    5.5093  -13.7175   27.0274 O   0  0  0  0  0  0  0  0  0  0  0  0
  2  1  1  1
  2  8  1  0
  3  4  1  0
  3  2  1  0
  5  6  1  0
  5  4  1  0
  7  6  1  0
  8 18  1  0
  8  9  2  0
 11 13  1  0
 11 10  1  0
 12 11  2  0
 14 15  1  0
 14 13  1  0
 17 16  1  6
 16 15  1  0
 17 19  1  0
 18 17  1  0
 19 20  2  0
 21 22  1  0
 22 23  1  0
 23 25  1  0
 23 24  1  6
 25 27  1  0
 25 26  1  6
 26 19  1  0
 27 29  2  0
 27 28  1  0
M  END
$$$$
