KRI.pdb
     RDKit          3D

 29 28  0  0  1  0  0  0  0  0999 V2000
   10.1667  -19.6855   20.8950 N   0  0  0  0  0  0  0  0  0  0  0  0
    9.0856  -19.2533   21.7214 C   0  0  1  0  0  0  0  0  0  0  0  0
    9.0208  -20.0359   22.9771 C   0  0  0  0  0  0  0  0  0  0  0  0
   10.2629  -20.1499   23.7716 C   0  0  0  0  0  0  0  0  0  0  0  0
   10.2220  -20.9641   25.0076 C   0  0  0  0  0  0  0  0  0  0  0  0
   11.5895  -20.9951   25.7114 C   0  0  0  0  0  0  0  0  0  0  0  0
   11.4363  -21.7312   26.9332 N   0  0  0  0  0  0  0  0  0  0  0  0
    9.0658  -17.7820   21.9260 C   0  0  0  0  0  0  0  0  0  0  0  0
   10.0865  -17.1716   22.3692 O   0  0  0  0  0  0  0  0  0  0  0  0
    8.7496  -15.4346   17.3282 N   0  0  0  0  0  0  0  0  0  0  0  0
    8.3785  -14.0416   17.2141 C   0  0  0  0  0  0  0  0  0  0  0  0
    8.1963  -13.5046   16.0548 N   0  0  0  0  0  0  0  0  0  0  0  0
    8.2147  -13.2649   18.3895 N   0  0  0  0  0  0  0  0  0  0  0  0
    8.4253  -13.7875   19.7209 C   0  0  0  0  0  0  0  0  0  0  0  0
    7.2555  -13.5117   20.6425 C   0  0  0  0  0  0  0  0  0  0  0  0
    6.7890  -14.8010   21.2182 C   0  0  0  0  0  0  0  0  0  0  0  0
    7.8038  -15.5785   21.9746 C   0  0  2  0  0  0  0  0  0  0  0  0
    7.9370  -16.9665   21.6510 N   0  0  0  0  0  0  0  0  0  0  0  0
    7.8422  -15.2973   23.4171 C   0  0  0  0  0  0  0  0  0  0  0  0
    7.1134  -15.9171   24.1995 O   0  0  0  0  0  0  0  0  0  0  0  0
    7.9483  -12.5089   16.0038 C   0  0  0  0  0  0  0  0  0  0  0  0
    6.4347  -11.3993   27.2091 C   0  0  0  0  0  0  0  0  0  0  0  0
    7.6171  -12.3142   27.0094 C   0  0  2  0  0  0  0  0  0  0  0  0
    7.6248  -12.9380   25.6718 C   0  0  0  0  0  0  0  0  0  0  0  0
    6.2865  -13.6434   25.4540 C   0  0  2  0  0  0  0  0  0  0  0  0
    8.6908  -13.8981   25.3414 N   0  0  0  0  0  0  0  0  0  0  0  0
    8.7024  -14.3197   23.9300 C   0  0  0  0  0  0  0  0  0  0  0  0
    8.7931  -15.0929   26.2184 O   0  0  0  0  0  0  0  0  0  0  0  0
    9.6284  -15.1579   27.3190 O   0  0  0  0  0  0  0  0  0  0  0  0
  2  1  1  1
  2  8  1  0
  3  4  1  0
  3  2  1  0
  5  6  1  0
  5  4  1  0
  7  6  1  0
  8 18  1  0
  8  9  2  0
 11 13  1  0
 11 10  1  0
 12 11  2  0
 14 15  1  0
 14 13  1  0
 17 16  1  1
 16 15  1  0
 17 19  1  0
 18 17  1  0
 19 20  2  0
 21 22  1  0
 22 23  1  0
 23 25  1  0
 23 24  1  6
 25 27  1  0
 25 26  1  1
 26 19  1  0
 27 29  2  0
 27 28  1  0
M  END
$$$$
