KRI.pdb
     RDKit          3D

 29 28  0  0  1  0  0  0  0  0999 V2000
   44.8773 -121.9711  170.0922 N   0  0  0  0  0  0  0  0  0  0  0  0
   44.4943 -123.3456  170.0440 C   0  0  1  0  0  0  0  0  0  0  0  0
   44.5687 -123.8780  168.6640 C   0  0  0  0  0  0  0  0  0  0  0  0
   45.0870 -125.2525  168.4929 C   0  0  0  0  0  0  0  0  0  0  0  0
   45.1227 -126.1322  169.6834 C   0  0  0  0  0  0  0  0  0  0  0  0
   45.8758 -127.4426  169.3972 C   0  0  0  0  0  0  0  0  0  0  0  0
   44.9341 -128.5201  169.5003 N   0  0  0  0  0  0  0  0  0  0  0  0
   45.2007 -124.1790  171.0508 C   0  0  0  0  0  0  0  0  0  0  0  0
   45.1629 -123.8829  172.2844 O   0  0  0  0  0  0  0  0  0  0  0  0
   51.8069 -126.4163  171.9716 N   0  0  0  0  0  0  0  0  0  0  0  0
   51.0496 -127.2757  172.8542 C   0  0  0  0  0  0  0  0  0  0  0  0
   51.4489 -127.4893  174.0628 N   0  0  0  0  0  0  0  0  0  0  0  0
   49.8593 -127.8854  172.3820 N   0  0  0  0  0  0  0  0  0  0  0  0
   48.7651 -128.2640  173.2478 C   0  0  0  0  0  0  0  0  0  0  0  0
   47.4306 -128.2541  172.5318 C   0  0  0  0  0  0  0  0  0  0  0  0
   46.9579 -126.8481  172.4259 C   0  0  0  0  0  0  0  0  0  0  0  0
   45.9051 -126.5926  171.4096 C   0  0  2  0  0  0  0  0  0  0  0  0
   45.9521 -125.3377  170.7226 N   0  0  0  0  0  0  0  0  0  0  0  0
   44.5514 -127.0003  171.8127 C   0  0  0  0  0  0  0  0  0  0  0  0
   44.2793 -127.1923  173.0029 O   0  0  0  0  0  0  0  0  0  0  0  0
   51.7645 -128.4325  174.3206 C   0  0  0  0  0  0  0  0  0  0  0  0
   44.0203 -131.8489  171.5533 C   0  0  0  0  0  0  0  0  0  0  0  0
   43.9283 -130.3619  171.7885 C   0  0  2  0  0  0  0  0  0  0  0  0
   43.4202 -129.6370  170.6075 C   0  0  0  0  0  0  0  0  0  0  0  0
   44.5934 -129.3425  169.6730 C   0  0  1  0  0  0  0  0  0  0  0  0
   42.6865 -128.3767  170.8085 N   0  0  0  0  0  0  0  0  0  0  0  0
   43.5470 -127.1821  170.8550 C   0  0  0  0  0  0  0  0  0  0  0  0
   41.7321 -128.3471  171.9468 O   0  0  0  0  0  0  0  0  0  0  0  0
   41.1782 -127.1810  172.4433 O   0  0  0  0  0  0  0  0  0  0  0  0
  2  1  1  6
  2  8  1  0
  3  4  1  0
  3  2  1  0
  5  6  1  0
  5  4  1  0
  7  6  1  0
  8 18  1  0
  8  9  2  0
 11 13  1  0
 11 10  1  0
 12 11  2  0
 14 15  1  0
 14 13  1  0
 17 16  1  1
 16 15  1  0
 17 19  1  0
 18 17  1  0
 19 20  2  0
 21 22  1  0
 22 23  1  0
 23 25  1  0
 23 24  1  6
 25 27  1  0
 25 26  1  1
 26 19  1  0
 27 29  2  0
 27 28  1  0
M  END
$$$$
