KRI.pdb
     RDKit          3D

 29 28  0  0  1  0  0  0  0  0999 V2000
    7.9438  -21.9440   24.6896 N   0  0  0  0  0  0  0  0  0  0  0  0
    7.1235  -20.9703   25.3357 C   0  0  1  0  0  0  0  0  0  0  0  0
    7.0206  -21.2315   26.7898 C   0  0  0  0  0  0  0  0  0  0  0  0
    6.6098  -22.5889   27.2089 C   0  0  0  0  0  0  0  0  0  0  0  0
    6.5642  -22.8816   28.6597 C   0  0  0  0  0  0  0  0  0  0  0  0
    6.1075  -24.3250   28.9326 C   0  0  0  0  0  0  0  0  0  0  0  0
    6.2545  -24.5721   30.3381 N   0  0  0  0  0  0  0  0  0  0  0  0
    7.5073  -19.5751   24.9992 C   0  0  0  0  0  0  0  0  0  0  0  0
    8.4758  -19.0051   25.5890 O   0  0  0  0  0  0  0  0  0  0  0  0
    6.4329  -13.2843   20.1501 N   0  0  0  0  0  0  0  0  0  0  0  0
    7.8346  -13.3631   19.8039 C   0  0  0  0  0  0  0  0  0  0  0  0
    8.4483  -12.3373   19.3172 N   0  0  0  0  0  0  0  0  0  0  0  0
    8.5350  -14.5802   20.0033 N   0  0  0  0  0  0  0  0  0  0  0  0
    7.8924  -15.8049   20.4241 C   0  0  0  0  0  0  0  0  0  0  0  0
    7.3190  -15.7067   21.8224 C   0  0  0  0  0  0  0  0  0  0  0  0
    6.8476  -17.0541   22.2392 C   0  0  0  0  0  0  0  0  0  0  0  0
    7.1939  -17.4625   23.6248 C   0  0  2  0  0  0  0  0  0  0  0  0
    6.8406  -18.7918   24.0210 N   0  0  0  0  0  0  0  0  0  0  0  0
    6.9238  -16.4442   24.6502 C   0  0  0  0  0  0  0  0  0  0  0  0
    5.8575  -16.4465   25.2751 O   0  0  0  0  0  0  0  0  0  0  0  0
    9.4275  -12.4395   19.0234 C   0  0  0  0  0  0  0  0  0  0  0  0
   10.5536  -14.5866   28.3971 C   0  0  0  0  0  0  0  0  0  0  0  0
    9.3114  -15.0496   27.6776 C   0  0  2  0  0  0  0  0  0  0  0  0
    8.7986  -14.0370   26.7341 C   0  0  0  0  0  0  0  0  0  0  0  0
    8.4640  -12.7665   27.5153 C   0  0  2  0  0  0  0  0  0  0  0  0
    7.6292  -14.3674   25.9032 N   0  0  0  0  0  0  0  0  0  0  0  0
    7.8681  -15.4511   24.9346 C   0  0  0  0  0  0  0  0  0  0  0  0
    6.9660  -13.2268   25.2201 O   0  0  0  0  0  0  0  0  0  0  0  0
    6.0825  -12.3718   25.8539 O   0  0  0  0  0  0  0  0  0  0  0  0
  2  1  1  1
  2  8  1  0
  3  4  1  0
  3  2  1  0
  5  6  1  0
  5  4  1  0
  7  6  1  0
  8 18  1  0
  8  9  2  0
 11 13  1  0
 11 10  1  0
 12 11  2  0
 14 15  1  0
 14 13  1  0
 17 16  1  6
 16 15  1  0
 17 19  1  0
 18 17  1  0
 19 20  2  0
 21 22  1  0
 22 23  1  0
 23 25  1  0
 23 24  1  6
 25 27  1  0
 25 26  1  1
 26 19  1  0
 27 29  2  0
 27 28  1  0
M  END
$$$$
