KRI.pdb
     RDKit          3D

 29 28  0  0  1  0  0  0  0  0999 V2000
   10.0289  -14.8538   18.5961 N   0  0  0  0  0  0  0  0  0  0  0  0
    9.0131  -14.1382   19.2994 C   0  0  1  0  0  0  0  0  0  0  0  0
    7.8400  -13.8773   18.4339 C   0  0  0  0  0  0  0  0  0  0  0  0
    8.0073  -14.0908   16.9800 C   0  0  0  0  0  0  0  0  0  0  0  0
    7.0079  -13.4842   16.0715 C   0  0  0  0  0  0  0  0  0  0  0  0
    7.3155  -13.8009   14.5980 C   0  0  0  0  0  0  0  0  0  0  0  0
    6.3264  -13.1434   13.7933 N   0  0  0  0  0  0  0  0  0  0  0  0
    8.6722  -14.7533   20.6080 C   0  0  0  0  0  0  0  0  0  0  0  0
    7.7332  -14.2864   21.3229 O   0  0  0  0  0  0  0  0  0  0  0  0
   13.4530  -20.7218   21.2968 N   0  0  0  0  0  0  0  0  0  0  0  0
   12.2464  -20.5866   22.0822 C   0  0  0  0  0  0  0  0  0  0  0  0
   12.2981  -20.6044   23.3716 N   0  0  0  0  0  0  0  0  0  0  0  0
   10.9994  -20.4332   21.4241 N   0  0  0  0  0  0  0  0  0  0  0  0
    9.7568  -20.1986   22.1249 C   0  0  0  0  0  0  0  0  0  0  0  0
    9.1248  -18.8731   21.7541 C   0  0  0  0  0  0  0  0  0  0  0  0
    9.6471  -17.8242   22.6697 C   0  0  0  0  0  0  0  0  0  0  0  0
    9.1332  -16.4493   22.4414 C   0  0  2  0  0  0  0  0  0  0  0  0
    9.3498  -15.8782   21.1469 N   0  0  0  0  0  0  0  0  0  0  0  0
    9.3678  -15.5144   23.5513 C   0  0  0  0  0  0  0  0  0  0  0  0
   10.4692  -14.9728   23.6969 O   0  0  0  0  0  0  0  0  0  0  0  0
   11.4269  -20.4888   23.9038 C   0  0  0  0  0  0  0  0  0  0  0  0
    6.5962  -11.3562   26.9946 C   0  0  0  0  0  0  0  0  0  0  0  0
    7.7077  -12.3749   26.9510 C   0  0  2  0  0  0  0  0  0  0  0  0
    7.5469  -13.3345   25.8412 C   0  0  0  0  0  0  0  0  0  0  0  0
    6.1858  -14.0162   25.9782 C   0  0  2  0  0  0  0  0  0  0  0  0
    8.5562  -14.3914   25.6634 N   0  0  0  0  0  0  0  0  0  0  0  0
    8.3490  -15.2236   24.4658 C   0  0  0  0  0  0  0  0  0  0  0  0
    8.8062  -15.2646   26.8390 O   0  0  0  0  0  0  0  0  0  0  0  0
    9.4609  -14.8344   27.9790 O   0  0  0  0  0  0  0  0  0  0  0  0
  2  1  1  6
  2  8  1  0
  3  4  1  0
  3  2  1  0
  5  6  1  0
  5  4  1  0
  7  6  1  0
  8 18  1  0
  8  9  2  0
 11 13  1  0
 11 10  1  0
 12 11  2  0
 14 15  1  0
 14 13  1  0
 17 16  1  1
 16 15  1  0
 17 19  1  0
 18 17  1  0
 19 20  2  0
 21 22  1  0
 22 23  1  0
 23 25  1  0
 23 24  1  6
 25 27  1  0
 25 26  1  1
 26 19  1  0
 27 29  2  0
 27 28  1  0
M  END
$$$$
