KRI.pdb
     RDKit          3D

 29 28  0  0  1  0  0  0  0  0999 V2000
    9.9046  -16.5032   18.8224 N   0  0  0  0  0  0  0  0  0  0  0  0
    9.6974  -15.3445   19.6305 C   0  0  1  0  0  0  0  0  0  0  0  0
    9.0132  -14.2729   18.8709 C   0  0  0  0  0  0  0  0  0  0  0  0
    8.5431  -14.6005   17.5075 C   0  0  0  0  0  0  0  0  0  0  0  0
    7.9801  -13.5039   16.6871 C   0  0  0  0  0  0  0  0  0  0  0  0
    7.4536  -14.0193   15.3367 C   0  0  0  0  0  0  0  0  0  0  0  0
    6.8917  -12.9035   14.6314 N   0  0  0  0  0  0  0  0  0  0  0  0
    9.0639  -15.6560   20.9376 C   0  0  0  0  0  0  0  0  0  0  0  0
    7.8619  -15.3246   21.1749 O   0  0  0  0  0  0  0  0  0  0  0  0
   10.2745  -20.7983   20.7568 N   0  0  0  0  0  0  0  0  0  0  0  0
   11.1003  -21.0757   21.9110 C   0  0  0  0  0  0  0  0  0  0  0  0
   12.3358  -21.4194   21.7658 N   0  0  0  0  0  0  0  0  0  0  0  0
   10.5420  -20.9671   23.2103 N   0  0  0  0  0  0  0  0  0  0  0  0
    9.2132  -20.4565   23.4621 C   0  0  0  0  0  0  0  0  0  0  0  0
    8.9745  -19.1142   22.8025 C   0  0  0  0  0  0  0  0  0  0  0  0
    9.3505  -18.0401   23.7597 C   0  0  0  0  0  0  0  0  0  0  0  0
    9.1760  -16.6474   23.2731 C   0  0  2  0  0  0  0  0  0  0  0  0
    9.7328  -16.3285   21.9936 N   0  0  0  0  0  0  0  0  0  0  0  0
    9.3926  -15.6099   24.2919 C   0  0  0  0  0  0  0  0  0  0  0  0
   10.4965  -15.0677   24.4143 O   0  0  0  0  0  0  0  0  0  0  0  0
   12.9123  -21.5606   22.6044 C   0  0  0  0  0  0  0  0  0  0  0  0
    5.8641  -11.6373   25.5753 C   0  0  0  0  0  0  0  0  0  0  0  0
    7.0820  -12.4811   25.2926 C   0  0  2  0  0  0  0  0  0  0  0  0
    7.4660  -13.3172   26.4466 C   0  0  0  0  0  0  0  0  0  0  0  0
    7.8534  -12.4006   27.6067 C   0  0  2  0  0  0  0  0  0  0  0  0
    8.5462  -14.3038   26.2814 N   0  0  0  0  0  0  0  0  0  0  0  0
    8.3533  -15.2201   25.1444 C   0  0  0  0  0  0  0  0  0  0  0  0
    8.9142  -15.0830   27.4917 O   0  0  0  0  0  0  0  0  0  0  0  0
    9.7214  -14.5856   28.4987 O   0  0  0  0  0  0  0  0  0  0  0  0
  2  1  1  6
  2  8  1  0
  3  4  1  0
  3  2  1  0
  5  6  1  0
  5  4  1  0
  7  6  1  0
  8 18  1  0
  8  9  2  0
 11 13  1  0
 11 10  1  0
 12 11  2  0
 14 15  1  0
 14 13  1  0
 17 16  1  1
 16 15  1  0
 17 19  1  0
 18 17  1  0
 19 20  2  0
 21 22  1  0
 22 23  1  0
 23 25  1  0
 23 24  1  1
 25 27  1  0
 25 26  1  6
 26 19  1  0
 27 29  2  0
 27 28  1  0
M  END
$$$$
