KRI.pdb
     RDKit          3D

 29 28  0  0  1  0  0  0  0  0999 V2000
   11.4529  -19.3238   21.7930 N   0  0  0  0  0  0  0  0  0  0  0  0
   12.0906  -18.4087   22.6843 C   0  0  1  0  0  0  0  0  0  0  0  0
   13.4876  -18.1400   22.2724 C   0  0  0  0  0  0  0  0  0  0  0  0
   14.1140  -19.0937   21.3315 C   0  0  0  0  0  0  0  0  0  0  0  0
   14.3358  -18.6464   19.9376 C   0  0  0  0  0  0  0  0  0  0  0  0
   15.1434  -19.6792   19.1328 C   0  0  0  0  0  0  0  0  0  0  0  0
   15.3478  -19.1456   17.8169 N   0  0  0  0  0  0  0  0  0  0  0  0
   11.2873  -17.1829   22.9278 C   0  0  0  0  0  0  0  0  0  0  0  0
   11.7131  -16.2663   23.6954 O   0  0  0  0  0  0  0  0  0  0  0  0
    8.3806  -12.3549   18.3891 N   0  0  0  0  0  0  0  0  0  0  0  0
    8.1415  -13.7749   18.2579 C   0  0  0  0  0  0  0  0  0  0  0  0
    8.6432  -14.4356   17.2692 N   0  0  0  0  0  0  0  0  0  0  0  0
    7.3487  -14.4413   19.2270 N   0  0  0  0  0  0  0  0  0  0  0  0
    6.7900  -13.7801   20.3849 C   0  0  0  0  0  0  0  0  0  0  0  0
    7.5196  -14.1371   21.6632 C   0  0  0  0  0  0  0  0  0  0  0  0
    8.3698  -15.3303   21.4085 C   0  0  0  0  0  0  0  0  0  0  0  0
    9.1916  -15.7978   22.5542 C   0  0  2  0  0  0  0  0  0  0  0  0
   10.0173  -16.9471   22.3393 N   0  0  0  0  0  0  0  0  0  0  0  0
    8.4949  -15.7991   23.8488 C   0  0  0  0  0  0  0  0  0  0  0  0
    7.6962  -16.6982   24.1336 O   0  0  0  0  0  0  0  0  0  0  0  0
    8.5276  -15.4562   17.2461 C   0  0  0  0  0  0  0  0  0  0  0  0
    5.8309  -11.5510   26.3158 C   0  0  0  0  0  0  0  0  0  0  0  0
    6.2440  -12.9145   25.8205 C   0  0  2  0  0  0  0  0  0  0  0  0
    7.5201  -13.3634   26.4106 C   0  0  0  0  0  0  0  0  0  0  0  0
    8.6098  -12.3573   26.0414 C   0  0  1  0  0  0  0  0  0  0  0  0
    8.0244  -14.7056   26.0767 N   0  0  0  0  0  0  0  0  0  0  0  0
    8.7208  -14.7797   24.7808 C   0  0  0  0  0  0  0  0  0  0  0  0
    7.0462  -15.8189   26.1804 O   0  0  0  0  0  0  0  0  0  0  0  0
    6.5914  -16.3204   27.3865 O   0  0  0  0  0  0  0  0  0  0  0  0
  2  1  1  6
  2  8  1  0
  3  4  1  0
  3  2  1  0
  5  6  1  0
  5  4  1  0
  7  6  1  0
  8 18  1  0
  8  9  2  0
 11 13  1  0
 11 10  1  0
 12 11  2  0
 14 15  1  0
 14 13  1  0
 17 16  1  6
 16 15  1  0
 17 19  1  0
 18 17  1  0
 19 20  2  0
 21 22  1  0
 22 23  1  0
 23 25  1  0
 23 24  1  1
 25 27  1  0
 25 26  1  6
 26 19  1  0
 27 29  2  0
 27 28  1  0
M  END
$$$$
