TPQ.pdb
     RDKit          3D

 24 24  0  0  1  0  0  0  0  0999 V2000
    3.5803  -17.9543   20.8334 C   0  0  0  0  0  0  0  0  0  0  0  0
    4.8939  -17.4433   21.3578 C   0  0  1  0  0  0  0  0  0  0  0  0
    5.3469  -18.2791   22.3257 O   0  0  0  0  0  0  0  0  0  0  0  0
    5.8638  -17.1106   20.2440 C   0  0  2  0  0  0  0  0  0  0  0  0
    6.0723  -18.4121   19.5710 N   0  0  0  0  0  0  0  0  0  0  0  0
    7.1593  -16.5806   20.7574 C   0  0  0  0  0  0  0  0  0  0  0  0
    7.8937  -17.4806   21.2710 O   0  0  0  0  0  0  0  0  0  0  0  0
    7.5242  -15.2307   20.6776 N   0  0  0  0  0  0  0  0  0  0  0  0
    7.3154  -14.4647   19.4179 C   0  0  0  0  0  0  0  0  0  0  0  0
    6.6170  -13.2437   19.9649 C   0  0  0  0  0  0  0  0  0  0  0  0
    7.1487  -13.0908   21.3783 C   0  0  0  0  0  0  0  0  0  0  0  0
    8.1341  -14.2543   21.4963 C   0  0  1  0  0  0  0  0  0  0  0  0
    8.5006  -14.5466   22.8561 C   0  0  0  0  0  0  0  0  0  0  0  0
    7.8200  -14.1666   23.8345 O   0  0  0  0  0  0  0  0  0  0  0  0
    6.9015  -18.4218   26.0698 N   0  0  0  0  0  0  0  0  0  0  0  0
    8.0720  -18.2320   26.8410 C   0  0  0  0  0  0  0  0  0  0  0  0
    8.1750  -18.7875   27.9447 O   0  0  0  0  0  0  0  0  0  0  0  0
    9.1469  -17.3760   26.3188 C   0  0  0  0  0  0  0  0  0  0  0  0
    8.8485  -16.7411   24.9935 C   0  0  0  0  0  0  0  0  0  0  0  0
    9.9114  -15.8234   24.5294 C   0  0  2  0  0  0  0  0  0  0  0  0
    9.6646  -15.2907   23.2035 N   0  0  0  0  0  0  0  0  0  0  0  0
   11.2460  -16.4753   24.5699 C   0  0  0  0  0  0  0  0  0  0  0  0
   11.9341  -16.7560   25.7343 O   0  0  0  0  0  0  0  0  0  0  0  0
   11.8282  -16.8106   23.4953 O   0  0  0  0  0  0  0  0  0  0  0  0
  2  1  1  6
  2  3  1  0
  4  2  1  0
  4  5  1  1
  6  4  1  0
  7  6  2  0
  8 12  1  0
  8  6  1  0
  9  8  1  0
 10  9  1  0
 10 11  1  0
 11 12  1  0
 12 13  1  1
 13 14  2  0
 16 15  1  0
 17 16  2  0
 18 16  1  0
 19 18  1  0
 20 19  1  6
 21 20  1  0
 21 13  1  0
 22 20  1  0
 23 22  1  0
 24 22  2  0
M  END
$$$$
