TPQ.pdb
     RDKit          3D

 24 24  0  0  1  0  0  0  0  0999 V2000
    7.3069  -17.1774   17.1629 C   0  0  0  0  0  0  0  0  0  0  0  0
    8.5177  -16.8111   16.3495 C   0  0  1  0  0  0  0  0  0  0  0  0
    8.2852  -17.0975   15.0439 O   0  0  0  0  0  0  0  0  0  0  0  0
    9.0117  -15.4136   16.6571 C   0  0  2  0  0  0  0  0  0  0  0  0
   10.0697  -15.1937   15.6458 N   0  0  0  0  0  0  0  0  0  0  0  0
    9.5785  -15.3002   18.0314 C   0  0  0  0  0  0  0  0  0  0  0  0
   10.5108  -16.1339   18.2527 O   0  0  0  0  0  0  0  0  0  0  0  0
    9.1275  -14.3691   18.9754 N   0  0  0  0  0  0  0  0  0  0  0  0
    8.8162  -12.9709   18.5686 C   0  0  0  0  0  0  0  0  0  0  0  0
    7.4501  -12.8135   19.1904 C   0  0  0  0  0  0  0  0  0  0  0  0
    7.4664  -13.7262   20.4032 C   0  0  0  0  0  0  0  0  0  0  0  0
    8.8775  -14.3142   20.3647 C   0  0  1  0  0  0  0  0  0  0  0  0
    9.0249  -15.4801   21.1940 C   0  0  0  0  0  0  0  0  0  0  0  0
    8.2954  -16.4893   21.0743 O   0  0  0  0  0  0  0  0  0  0  0  0
   13.4468  -19.2814   21.4719 N   0  0  0  0  0  0  0  0  0  0  0  0
   13.6337  -17.8797   21.5052 C   0  0  0  0  0  0  0  0  0  0  0  0
   14.6471  -17.3846   20.9902 O   0  0  0  0  0  0  0  0  0  0  0  0
   12.6209  -17.0338   22.1532 C   0  0  0  0  0  0  0  0  0  0  0  0
   11.2733  -17.6757   22.2966 C   0  0  0  0  0  0  0  0  0  0  0  0
   10.2753  -16.8051   22.9550 C   0  0  2  0  0  0  0  0  0  0  0  0
   10.0098  -15.5850   22.2178 N   0  0  0  0  0  0  0  0  0  0  0  0
   10.6781  -16.4752   24.3466 C   0  0  0  0  0  0  0  0  0  0  0  0
   10.8017  -15.1875   24.8309 O   0  0  0  0  0  0  0  0  0  0  0  0
   10.9353  -17.3990   25.1753 O   0  0  0  0  0  0  0  0  0  0  0  0
  2  1  1  1
  2  3  1  0
  4  2  1  0
  4  5  1  6
  6  4  1  0
  7  6  2  0
  8 12  1  0
  8  6  1  0
  9  8  1  0
 10  9  1  0
 10 11  1  0
 11 12  1  0
 12 13  1  6
 13 14  2  0
 16 15  1  0
 17 16  2  0
 18 16  1  0
 19 18  1  0
 20 19  1  6
 21 20  1  0
 21 13  1  0
 22 20  1  0
 23 22  1  0
 24 22  2  0
M  END
$$$$
