TPQ.pdb
     RDKit          3D

 24 24  0  0  1  0  0  0  0  0999 V2000
    6.4137  -18.0493   19.1865 C   0  0  0  0  0  0  0  0  0  0  0  0
    7.5413  -18.1356   18.1950 C   0  0  1  0  0  0  0  0  0  0  0  0
    7.1391  -18.8574   17.1190 O   0  0  0  0  0  0  0  0  0  0  0  0
    8.1561  -16.7820   17.9092 C   0  0  2  0  0  0  0  0  0  0  0  0
    9.0598  -17.0501   16.7682 N   0  0  0  0  0  0  0  0  0  0  0  0
    8.9300  -16.2526   19.0684 C   0  0  0  0  0  0  0  0  0  0  0  0
    9.7998  -17.0721   19.4987 O   0  0  0  0  0  0  0  0  0  0  0  0
    8.7174  -14.9830   19.6201 N   0  0  0  0  0  0  0  0  0  0  0  0
    8.4199  -13.8177   18.7422 C   0  0  0  0  0  0  0  0  0  0  0  0
    7.2041  -13.2631   19.4437 C   0  0  0  0  0  0  0  0  0  0  0  0
    7.3902  -13.6393   20.9024 C   0  0  0  0  0  0  0  0  0  0  0  0
    8.7324  -14.3720   20.8938 C   0  0  1  0  0  0  0  0  0  0  0  0
    8.9612  -15.1429   22.0863 C   0  0  0  0  0  0  0  0  0  0  0  0
    8.0724  -15.8466   22.6153 O   0  0  0  0  0  0  0  0  0  0  0  0
   10.6003  -20.1712   22.0775 N   0  0  0  0  0  0  0  0  0  0  0  0
   10.8959  -20.0141   23.4518 C   0  0  0  0  0  0  0  0  0  0  0  0
   11.0959  -21.0163   24.1537 O   0  0  0  0  0  0  0  0  0  0  0  0
   10.9590  -18.6615   24.0243 C   0  0  0  0  0  0  0  0  0  0  0  0
   10.6262  -17.5618   23.0607 C   0  0  0  0  0  0  0  0  0  0  0  0
   10.6058  -16.2209   23.6843 C   0  0  2  0  0  0  0  0  0  0  0  0
   10.2138  -15.1711   22.7641 N   0  0  0  0  0  0  0  0  0  0  0  0
   11.9176  -15.8888   24.2981 C   0  0  0  0  0  0  0  0  0  0  0  0
   12.9204  -15.1940   23.6502 O   0  0  0  0  0  0  0  0  0  0  0  0
   12.1778  -16.2456   25.4860 O   0  0  0  0  0  0  0  0  0  0  0  0
  2  1  1  1
  2  3  1  0
  4  2  1  0
  4  5  1  6
  6  4  1  0
  7  6  2  0
  8 12  1  0
  8  6  1  0
  9  8  1  0
 10  9  1  0
 10 11  1  0
 11 12  1  0
 12 13  1  1
 13 14  2  0
 16 15  1  0
 17 16  2  0
 18 16  1  0
 19 18  1  0
 20 19  1  6
 21 20  1  0
 21 13  1  0
 22 20  1  0
 23 22  1  0
 24 22  2  0
M  END
$$$$
