TPQ.pdb
     RDKit          3D

 24 24  0  0  1  0  0  0  0  0999 V2000
    8.0939  -14.1586   16.7566 C   0  0  0  0  0  0  0  0  0  0  0  0
    8.6051  -14.6760   18.0730 C   0  0  1  0  0  0  0  0  0  0  0  0
    9.4249  -15.7341   17.8520 O   0  0  0  0  0  0  0  0  0  0  0  0
    9.1519  -13.5689   18.9490 C   0  0  2  0  0  0  0  0  0  0  0  0
   10.2438  -12.9934   18.1324 N   0  0  0  0  0  0  0  0  0  0  0  0
    9.6881  -14.0798   20.2430 C   0  0  0  0  0  0  0  0  0  0  0  0
   10.8484  -14.5848   20.1331 O   0  0  0  0  0  0  0  0  0  0  0  0
    8.9828  -14.0067   21.4507 N   0  0  0  0  0  0  0  0  0  0  0  0
    8.1213  -12.8303   21.7526 C   0  0  0  0  0  0  0  0  0  0  0  0
    6.8533  -13.5331   22.1722 C   0  0  0  0  0  0  0  0  0  0  0  0
    7.3160  -14.8536   22.7605 C   0  0  0  0  0  0  0  0  0  0  0  0
    8.8374  -14.7656   22.6333 C   0  0  1  0  0  0  0  0  0  0  0  0
    9.4900  -16.0383   22.7857 C   0  0  0  0  0  0  0  0  0  0  0  0
    9.0299  -17.0947   22.2989 O   0  0  0  0  0  0  0  0  0  0  0  0
   14.3248  -16.0230   20.9966 N   0  0  0  0  0  0  0  0  0  0  0  0
   14.4503  -15.6255   22.3483 C   0  0  0  0  0  0  0  0  0  0  0  0
   15.2272  -14.7065   22.6468 O   0  0  0  0  0  0  0  0  0  0  0  0
   13.6561  -16.3124   23.3771 C   0  0  0  0  0  0  0  0  0  0  0  0
   12.7496  -17.3846   22.8506 C   0  0  0  0  0  0  0  0  0  0  0  0
   11.4492  -17.4508   23.5519 C   0  0  2  0  0  0  0  0  0  0  0  0
   10.7108  -16.2038   23.5009 N   0  0  0  0  0  0  0  0  0  0  0  0
   11.6166  -17.8796   24.9647 C   0  0  0  0  0  0  0  0  0  0  0  0
   12.2291  -19.0570   25.3476 O   0  0  0  0  0  0  0  0  0  0  0  0
   11.1854  -17.1539   25.9100 O   0  0  0  0  0  0  0  0  0  0  0  0
  2  1  1  6
  2  3  1  0
  4  2  1  0
  4  5  1  6
  6  4  1  0
  7  6  2  0
  8 12  1  0
  8  6  1  0
  9  8  1  0
 10  9  1  0
 10 11  1  0
 11 12  1  0
 12 13  1  6
 13 14  2  0
 16 15  1  0
 17 16  2  0
 18 16  1  0
 19 18  1  0
 20 19  1  1
 21 20  1  0
 21 13  1  0
 22 20  1  0
 23 22  1  0
 24 22  2  0
M  END
$$$$
