TPQ.pdb
     RDKit          3D

 24 24  0  0  1  0  0  0  0  0999 V2000
    5.8132  -13.8859   20.0455 C   0  0  0  0  0  0  0  0  0  0  0  0
    6.5816  -14.2881   21.2741 C   0  0  1  0  0  0  0  0  0  0  0  0
    7.3299  -15.3852   20.9969 O   0  0  0  0  0  0  0  0  0  0  0  0
    7.3061  -13.1176   21.9041 C   0  0  2  0  0  0  0  0  0  0  0  0
    8.1676  -12.6183   20.8092 N   0  0  0  0  0  0  0  0  0  0  0  0
    8.1384  -13.5256   23.0718 C   0  0  0  0  0  0  0  0  0  0  0  0
    9.0792  -14.3184   22.7563 O   0  0  0  0  0  0  0  0  0  0  0  0
    7.9042  -13.0773   24.3779 N   0  0  0  0  0  0  0  0  0  0  0  0
    7.4386  -11.6849   24.6268 C   0  0  0  0  0  0  0  0  0  0  0  0
    6.2719  -11.9574   25.5444 C   0  0  0  0  0  0  0  0  0  0  0  0
    6.6379  -13.2392   26.2704 C   0  0  0  0  0  0  0  0  0  0  0  0
    8.0163  -13.5705   25.6969 C   0  0  1  0  0  0  0  0  0  0  0  0
    8.4218  -14.9266   25.9523 C   0  0  0  0  0  0  0  0  0  0  0  0
    8.2972  -15.8386   25.1053 O   0  0  0  0  0  0  0  0  0  0  0  0
   14.0474  -15.7783   25.9239 N   0  0  0  0  0  0  0  0  0  0  0  0
   13.1949  -16.5661   25.1155 C   0  0  0  0  0  0  0  0  0  0  0  0
   13.6781  -17.2517   24.2024 O   0  0  0  0  0  0  0  0  0  0  0  0
   11.7475  -16.5560   25.3727 C   0  0  0  0  0  0  0  0  0  0  0  0
   11.3164  -15.6251   26.4664 C   0  0  0  0  0  0  0  0  0  0  0  0
   10.1988  -16.1519   27.2794 C   0  0  2  0  0  0  0  0  0  0  0  0
    8.9975  -15.3453   27.1863 N   0  0  0  0  0  0  0  0  0  0  0  0
   10.5916  -16.3080   28.7039 C   0  0  0  0  0  0  0  0  0  0  0  0
   10.6680  -15.2627   29.6035 O   0  0  0  0  0  0  0  0  0  0  0  0
   10.8847  -17.4511   29.1661 O   0  0  0  0  0  0  0  0  0  0  0  0
  2  1  1  6
  2  3  1  0
  4  2  1  0
  4  5  1  6
  6  4  1  0
  7  6  2  0
  8 12  1  0
  8  6  1  0
  9  8  1  0
 10  9  1  0
 10 11  1  0
 11 12  1  0
 12 13  1  6
 13 14  2  0
 16 15  1  0
 17 16  2  0
 18 16  1  0
 19 18  1  0
 20 19  1  6
 21 20  1  0
 21 13  1  0
 22 20  1  0
 23 22  1  0
 24 22  2  0
M  END
$$$$
