TPQ.pdb
     RDKit          3D

 24 24  0  0  1  0  0  0  0  0999 V2000
    7.8573  -16.8259   14.8986 C   0  0  0  0  0  0  0  0  0  0  0  0
    8.3600  -16.5043   16.2791 C   0  0  1  0  0  0  0  0  0  0  0  0
    9.1493  -17.5171   16.7170 O   0  0  0  0  0  0  0  0  0  0  0  0
    8.9411  -15.1091   16.3653 C   0  0  2  0  0  0  0  0  0  0  0  0
    9.9288  -15.0805   15.2634 N   0  0  0  0  0  0  0  0  0  0  0  0
    9.6150  -14.8532   17.6704 C   0  0  0  0  0  0  0  0  0  0  0  0
   10.7446  -15.4261   17.7650 O   0  0  0  0  0  0  0  0  0  0  0  0
    9.0571  -14.0618   18.6823 N   0  0  0  0  0  0  0  0  0  0  0  0
    8.3172  -12.8144   18.3447 C   0  0  0  0  0  0  0  0  0  0  0  0
    7.0599  -13.0273   19.1518 C   0  0  0  0  0  0  0  0  0  0  0  0
    7.4950  -13.8713   20.3360 C   0  0  0  0  0  0  0  0  0  0  0  0
    8.9947  -14.0460   20.0935 C   0  0  1  0  0  0  0  0  0  0  0  0
    9.5723  -15.1058   20.8759 C   0  0  0  0  0  0  0  0  0  0  0  0
    9.2426  -16.3043   20.7354 O   0  0  0  0  0  0  0  0  0  0  0  0
   15.8226  -17.6819   23.4590 N   0  0  0  0  0  0  0  0  0  0  0  0
   14.9287  -16.5857   23.4443 C   0  0  0  0  0  0  0  0  0  0  0  0
   15.3693  -15.4344   23.5771 O   0  0  0  0  0  0  0  0  0  0  0  0
   13.4897  -16.8328   23.2730 C   0  0  0  0  0  0  0  0  0  0  0  0
   12.7283  -15.6869   22.6765 C   0  0  0  0  0  0  0  0  0  0  0  0
   11.2781  -15.9483   22.5494 C   0  0  2  0  0  0  0  0  0  0  0  0
   10.5647  -14.8824   21.8730 N   0  0  0  0  0  0  0  0  0  0  0  0
   10.6565  -16.2094   23.8734 C   0  0  0  0  0  0  0  0  0  0  0  0
   10.9308  -17.3176   24.6510 O   0  0  0  0  0  0  0  0  0  0  0  0
    9.8162  -15.3942   24.3587 O   0  0  0  0  0  0  0  0  0  0  0  0
  2  1  1  6
  2  3  1  0
  4  2  1  0
  4  5  1  6
  6  4  1  0
  7  6  2  0
  8 12  1  0
  8  6  1  0
  9  8  1  0
 10  9  1  0
 10 11  1  0
 11 12  1  0
 12 13  1  1
 13 14  2  0
 16 15  1  0
 17 16  2  0
 18 16  1  0
 19 18  1  0
 20 19  1  1
 21 20  1  0
 21 13  1  0
 22 20  1  0
 23 22  1  0
 24 22  2  0
M  END
$$$$
