TPQ.pdb
     RDKit          3D

 24 24  0  0  1  0  0  0  0  0999 V2000
    8.3590  -16.6225   17.6826 C   0  0  0  0  0  0  0  0  0  0  0  0
    8.9865  -15.3352   17.2232 C   0  0  1  0  0  0  0  0  0  0  0  0
    8.6732  -15.1225   15.9205 O   0  0  0  0  0  0  0  0  0  0  0  0
    8.7137  -14.1933   18.1789 C   0  0  2  0  0  0  0  0  0  0  0  0
    9.2994  -13.0220   17.4895 N   0  0  0  0  0  0  0  0  0  0  0  0
    9.3664  -14.3926   19.5045 C   0  0  0  0  0  0  0  0  0  0  0  0
   10.5617  -14.8115   19.4097 O   0  0  0  0  0  0  0  0  0  0  0  0
    8.7247  -14.1413   20.7238 N   0  0  0  0  0  0  0  0  0  0  0  0
    7.7961  -12.9858   20.8648 C   0  0  0  0  0  0  0  0  0  0  0  0
    6.6087  -13.6769   21.4893 C   0  0  0  0  0  0  0  0  0  0  0  0
    7.1995  -14.8337   22.2747 C   0  0  0  0  0  0  0  0  0  0  0  0
    8.7009  -14.6754   22.0313 C   0  0  1  0  0  0  0  0  0  0  0  0
    9.4535  -15.8541   22.3675 C   0  0  0  0  0  0  0  0  0  0  0  0
    9.0943  -17.0032   22.0278 O   0  0  0  0  0  0  0  0  0  0  0  0
   15.5318  -16.6404   22.2236 N   0  0  0  0  0  0  0  0  0  0  0  0
   14.9975  -15.6328   23.0603 C   0  0  0  0  0  0  0  0  0  0  0  0
   15.7047  -14.6674   23.3847 O   0  0  0  0  0  0  0  0  0  0  0  0
   13.6102  -15.7501   23.5322 C   0  0  0  0  0  0  0  0  0  0  0  0
   12.8492  -16.9021   22.9472 C   0  0  0  0  0  0  0  0  0  0  0  0
   11.4540  -16.9899   23.4299 C   0  0  2  0  0  0  0  0  0  0  0  0
   10.6669  -15.8140   23.1128 N   0  0  0  0  0  0  0  0  0  0  0  0
   11.4017  -17.2518   24.8916 C   0  0  0  0  0  0  0  0  0  0  0  0
   10.7521  -16.4386   25.7998 O   0  0  0  0  0  0  0  0  0  0  0  0
   11.9750  -18.2706   25.3809 O   0  0  0  0  0  0  0  0  0  0  0  0
  2  1  1  1
  2  3  1  0
  4  2  1  0
  4  5  1  6
  6  4  1  0
  7  6  2  0
  8 12  1  0
  8  6  1  0
  9  8  1  0
 10  9  1  0
 10 11  1  0
 11 12  1  0
 12 13  1  6
 13 14  2  0
 16 15  1  0
 17 16  2  0
 18 16  1  0
 19 18  1  0
 20 19  1  1
 21 20  1  0
 21 13  1  0
 22 20  1  0
 23 22  1  0
 24 22  2  0
M  END
$$$$
