TPQ.pdb
     RDKit          3D

 24 24  0  0  1  0  0  0  0  0999 V2000
    6.1248  -17.7753   19.2691 C   0  0  0  0  0  0  0  0  0  0  0  0
    7.0825  -18.0145   18.1344 C   0  0  1  0  0  0  0  0  0  0  0  0
    6.4675  -18.7508   17.1752 O   0  0  0  0  0  0  0  0  0  0  0  0
    7.7578  -16.7388   17.6777 C   0  0  2  0  0  0  0  0  0  0  0  0
    8.4537  -17.1449   16.4363 N   0  0  0  0  0  0  0  0  0  0  0  0
    8.7390  -16.2258   18.6763 C   0  0  0  0  0  0  0  0  0  0  0  0
    9.5980  -17.0964   19.0187 O   0  0  0  0  0  0  0  0  0  0  0  0
    8.7127  -14.9191   19.1796 N   0  0  0  0  0  0  0  0  0  0  0  0
    8.4573  -13.7653   18.2736 C   0  0  0  0  0  0  0  0  0  0  0  0
    7.3773  -13.0537   19.0513 C   0  0  0  0  0  0  0  0  0  0  0  0
    7.6590  -13.3878   20.5049 C   0  0  0  0  0  0  0  0  0  0  0  0
    8.9107  -14.2616   20.4142 C   0  0  1  0  0  0  0  0  0  0  0  0
    9.1686  -15.0033   21.6193 C   0  0  0  0  0  0  0  0  0  0  0  0
    8.2777  -15.6426   22.2214 O   0  0  0  0  0  0  0  0  0  0  0  0
   10.7887  -20.0863   21.6466 N   0  0  0  0  0  0  0  0  0  0  0  0
   11.0960  -19.9067   23.0156 C   0  0  0  0  0  0  0  0  0  0  0  0
   11.3443  -20.8948   23.7222 O   0  0  0  0  0  0  0  0  0  0  0  0
   11.1137  -18.5482   23.5770 C   0  0  0  0  0  0  0  0  0  0  0  0
   10.6908  -17.4739   22.6201 C   0  0  0  0  0  0  0  0  0  0  0  0
   10.8447  -16.1079   23.1656 C   0  0  2  0  0  0  0  0  0  0  0  0
   10.4548  -15.0731   22.2276 N   0  0  0  0  0  0  0  0  0  0  0  0
   12.2333  -15.8650   23.6350 C   0  0  0  0  0  0  0  0  0  0  0  0
   12.6741  -16.1329   24.9164 O   0  0  0  0  0  0  0  0  0  0  0  0
   13.1008  -15.3822   22.8472 O   0  0  0  0  0  0  0  0  0  0  0  0
  2  1  1  1
  2  3  1  0
  4  2  1  0
  4  5  1  6
  6  4  1  0
  7  6  2  0
  8 12  1  0
  8  6  1  0
  9  8  1  0
 10  9  1  0
 10 11  1  0
 11 12  1  0
 12 13  1  1
 13 14  2  0
 16 15  1  0
 17 16  2  0
 18 16  1  0
 19 18  1  0
 20 19  1  6
 21 20  1  0
 21 13  1  0
 22 20  1  0
 23 22  1  0
 24 22  2  0
M  END
$$$$
