TPQ.pdb
     RDKit          3D

 24 24  0  0  1  0  0  0  0  0999 V2000
    8.0152  -18.6728   17.9151 C   0  0  0  0  0  0  0  0  0  0  0  0
    8.2770  -17.7341   19.0605 C   0  0  1  0  0  0  0  0  0  0  0  0
    8.8341  -18.4232   20.0878 O   0  0  0  0  0  0  0  0  0  0  0  0
    8.9996  -16.4796   18.6179 C   0  0  2  0  0  0  0  0  0  0  0  0
   10.2084  -17.0009   17.9414 N   0  0  0  0  0  0  0  0  0  0  0  0
    9.3843  -15.6097   19.7660 C   0  0  0  0  0  0  0  0  0  0  0  0
   10.3703  -16.0658   20.4241 O   0  0  0  0  0  0  0  0  0  0  0  0
    8.7252  -14.4146   20.0807 N   0  0  0  0  0  0  0  0  0  0  0  0
    8.3022  -13.4785   19.0027 C   0  0  0  0  0  0  0  0  0  0  0  0
    6.8658  -13.2469   19.4036 C   0  0  0  0  0  0  0  0  0  0  0  0
    6.8507  -13.4118   20.9124 C   0  0  0  0  0  0  0  0  0  0  0  0
    8.3157  -13.7098   21.2344 C   0  0  1  0  0  0  0  0  0  0  0  0
    8.5025  -14.2620   22.5493 C   0  0  0  0  0  0  0  0  0  0  0  0
    8.1185  -13.6780   23.5868 O   0  0  0  0  0  0  0  0  0  0  0  0
    5.8507  -18.1590   25.5272 N   0  0  0  0  0  0  0  0  0  0  0  0
    6.2591  -18.3954   24.1937 C   0  0  0  0  0  0  0  0  0  0  0  0
    5.5980  -19.1616   23.4775 O   0  0  0  0  0  0  0  0  0  0  0  0
    7.4640  -17.7274   23.6810 C   0  0  0  0  0  0  0  0  0  0  0  0
    8.0631  -16.7203   24.6166 C   0  0  0  0  0  0  0  0  0  0  0  0
    9.3021  -16.1012   24.0980 C   0  0  2  0  0  0  0  0  0  0  0  0
    9.1380  -15.5156   22.7817 N   0  0  0  0  0  0  0  0  0  0  0  0
   10.4268  -17.0720   24.0807 C   0  0  0  0  0  0  0  0  0  0  0  0
   11.1594  -17.3861   22.9526 O   0  0  0  0  0  0  0  0  0  0  0  0
   10.7698  -17.6742   25.1418 O   0  0  0  0  0  0  0  0  0  0  0  0
  2  1  1  6
  2  3  1  0
  4  2  1  0
  4  5  1  1
  6  4  1  0
  7  6  2  0
  8 12  1  0
  8  6  1  0
  9  8  1  0
 10  9  1  0
 10 11  1  0
 11 12  1  0
 12 13  1  1
 13 14  2  0
 16 15  1  0
 17 16  2  0
 18 16  1  0
 19 18  1  0
 20 19  1  6
 21 20  1  0
 21 13  1  0
 22 20  1  0
 23 22  1  0
 24 22  2  0
M  END
$$$$
