NWQ.pdb
     RDKit          3D

 32 33  0  0  1  0  0  0  0  0999 V2000
    7.3837  -17.3269   18.4992 N   0  0  0  0  0  0  0  0  0  0  0  0
    7.5437  -15.9324   18.7271 C   0  0  0  0  0  0  0  0  0  0  0  0
    7.1807  -15.1287   17.8327 O   0  0  0  0  0  0  0  0  0  0  0  0
    8.1177  -15.3860   19.9681 C   0  0  0  0  0  0  0  0  0  0  0  0
    8.5173  -16.5888   20.8346 C   0  0  2  0  0  0  0  0  0  0  0  0
    7.2858  -17.2796   21.2392 N   0  0  0  0  0  0  0  0  0  0  0  0
    9.1785  -16.0999   22.0644 C   0  0  0  0  0  0  0  0  0  0  0  0
   10.1589  -15.3328   21.9733 O   0  0  0  0  0  0  0  0  0  0  0  0
    8.7272  -16.4796   23.3696 N   0  0  0  0  0  0  0  0  0  0  0  0
    9.5651  -16.1867   24.4920 C   0  0  1  0  0  0  0  0  0  0  0  0
    8.6648  -16.1744   25.7156 C   0  0  0  0  0  0  0  0  0  0  0  0
    7.5637  -15.1890   25.6150 C   0  0  0  0  0  0  0  0  0  0  0  0
    6.2386  -15.4735   25.2821 C   0  0  0  0  0  0  0  0  0  0  0  0
    5.5432  -14.3279   25.2882 N   0  0  0  0  0  0  0  0  0  0  0  0
    6.3722  -13.3275   25.6114 C   0  0  0  0  0  0  0  0  0  0  0  0
    6.1499  -11.9690   25.7529 C   0  0  0  0  0  0  0  0  0  0  0  0
    7.1840  -11.1352   26.0994 C   0  0  0  0  0  0  0  0  0  0  0  0
    8.4443  -11.6158   26.3113 C   0  0  0  0  0  0  0  0  0  0  0  0
    8.6716  -12.9640   26.1723 C   0  0  0  0  0  0  0  0  0  0  0  0
    7.6564  -13.8331   25.8250 C   0  0  0  0  0  0  0  0  0  0  0  0
   10.6284  -17.2124   24.6196 C   0  0  0  0  0  0  0  0  0  0  0  0
   10.2510  -18.4212   24.4910 O   0  0  0  0  0  0  0  0  0  0  0  0
   16.2496  -16.9289   22.3519 N   0  0  0  0  0  0  0  0  0  0  0  0
   15.7733  -15.9885   23.3149 C   0  0  0  0  0  0  0  0  0  0  0  0
   16.3415  -14.8446   23.3666 O   0  0  0  0  0  0  0  0  0  0  0  0
   14.6604  -16.3100   24.2196 C   0  0  0  0  0  0  0  0  0  0  0  0
   14.0995  -17.6645   24.0191 C   0  0  0  0  0  0  0  0  0  0  0  0
   12.9792  -18.0057   24.9344 C   0  0  2  0  0  0  0  0  0  0  0  0
   11.9798  -16.9037   24.8656 N   0  0  0  0  0  0  0  0  0  0  0  0
   13.2591  -18.2144   26.3398 C   0  0  0  0  0  0  0  0  0  0  0  0
   12.6320  -17.5689   27.2367 O   0  0  0  0  0  0  0  0  0  0  0  0
   14.2127  -19.1294   26.8253 O   0  0  0  0  0  0  0  0  0  0  0  0
  2  1  1  0
  3  2  2  0
  4  5  1  0
  4  2  1  0
  5  6  1  1
  7  5  1  0
  7  8  2  0
  9  7  1  0
 10  9  1  0
 10 11  1  1
 12 11  1  0
 12 13  2  0
 14 13  1  0
 15 20  2  0
 15 14  1  0
 16 15  1  0
 17 18  1  0
 17 16  2  0
 18 19  2  0
 19 20  1  0
 20 12  1  0
 21 10  1  0
 22 21  2  0
 23 24  1  0
 24 26  1  0
 25 24  2  0
 27 26  1  0
 28 27  1  6
 28 29  1  0
 28 30  1  0
 29 21  1  0
 30 32  1  0
 31 30  2  0
M  END
$$$$
