NWQ.pdb
     RDKit          3D

 32 33  0  0  1  0  0  0  0  0999 V2000
    7.6746  -12.5848   18.3075 N   0  0  0  0  0  0  0  0  0  0  0  0
    7.2544  -13.6805   19.1107 C   0  0  0  0  0  0  0  0  0  0  0  0
    6.6327  -14.6257   18.5652 O   0  0  0  0  0  0  0  0  0  0  0  0
    7.5156  -13.7572   20.5577 C   0  0  0  0  0  0  0  0  0  0  0  0
    8.3391  -15.0321   20.7890 C   0  0  2  0  0  0  0  0  0  0  0  0
    7.4006  -16.1535   20.9292 N   0  0  0  0  0  0  0  0  0  0  0  0
    9.0764  -14.9062   22.0654 C   0  0  0  0  0  0  0  0  0  0  0  0
    9.8913  -13.9729   22.2163 O   0  0  0  0  0  0  0  0  0  0  0  0
    8.8849  -15.8273   23.1453 N   0  0  0  0  0  0  0  0  0  0  0  0
    9.6321  -15.6299   24.3496 C   0  0  1  0  0  0  0  0  0  0  0  0
    8.7421  -16.0851   25.4935 C   0  0  0  0  0  0  0  0  0  0  0  0
    7.5611  -15.2133   25.6910 C   0  0  0  0  0  0  0  0  0  0  0  0
    6.2266  -15.6029   25.5685 C   0  0  0  0  0  0  0  0  0  0  0  0
    5.4490  -14.5398   25.8159 N   0  0  0  0  0  0  0  0  0  0  0  0
    6.2348  -13.4912   26.0906 C   0  0  0  0  0  0  0  0  0  0  0  0
    5.9270  -12.1802   26.4095 C   0  0  0  0  0  0  0  0  0  0  0  0
    6.9322  -11.2776   26.6536 C   0  0  0  0  0  0  0  0  0  0  0  0
    8.2464  -11.6425   26.5895 C   0  0  0  0  0  0  0  0  0  0  0  0
    8.5585  -12.9429   26.2732 C   0  0  0  0  0  0  0  0  0  0  0  0
    7.5747  -13.8785   26.0213 C   0  0  0  0  0  0  0  0  0  0  0  0
   10.8908  -16.4127   24.3060 C   0  0  0  0  0  0  0  0  0  0  0  0
   11.4893  -16.5629   25.4194 O   0  0  0  0  0  0  0  0  0  0  0  0
   14.0948  -14.1419   20.0050 N   0  0  0  0  0  0  0  0  0  0  0  0
   14.3360  -15.4748   20.4566 C   0  0  0  0  0  0  0  0  0  0  0  0
   15.4870  -15.9837   20.2324 O   0  0  0  0  0  0  0  0  0  0  0  0
   13.3046  -16.2461   21.1649 C   0  0  0  0  0  0  0  0  0  0  0  0
   13.7282  -16.7262   22.4988 C   0  0  0  0  0  0  0  0  0  0  0  0
   12.7529  -17.6299   23.1632 C   0  0  2  0  0  0  0  0  0  0  0  0
   11.4183  -16.9701   23.1256 N   0  0  0  0  0  0  0  0  0  0  0  0
   12.9780  -18.0154   24.5408 C   0  0  0  0  0  0  0  0  0  0  0  0
   13.0982  -19.2369   24.8691 O   0  0  0  0  0  0  0  0  0  0  0  0
   13.0915  -17.1013   25.6056 O   0  0  0  0  0  0  0  0  0  0  0  0
  2  1  1  0
  3  2  2  0
  4  5  1  0
  4  2  1  0
  5  6  1  1
  7  5  1  0
  7  8  2  0
  9  7  1  0
 10  9  1  0
 10 11  1  1
 12 11  1  0
 12 13  2  0
 14 13  1  0
 15 20  2  0
 15 14  1  0
 16 15  1  0
 17 18  1  0
 17 16  2  0
 18 19  2  0
 19 20  1  0
 20 12  1  0
 21 10  1  0
 22 21  2  0
 23 24  1  0
 24 26  1  0
 25 24  2  0
 27 26  1  0
 28 27  1  1
 28 29  1  0
 28 30  1  0
 29 21  1  0
 30 32  1  0
 31 30  2  0
M  END
$$$$
