NWQ.pdb
     RDKit          3D

 32 33  0  0  1  0  0  0  0  0999 V2000
    8.4337  -17.0776   16.8310 N   0  0  0  0  0  0  0  0  0  0  0  0
    8.3947  -17.4100   18.2131 C   0  0  0  0  0  0  0  0  0  0  0  0
    7.9006  -18.5129   18.5552 O   0  0  0  0  0  0  0  0  0  0  0  0
    8.9086  -16.5168   19.2648 C   0  0  0  0  0  0  0  0  0  0  0  0
    8.0195  -16.7320   20.4977 C   0  0  2  0  0  0  0  0  0  0  0  0
    6.7957  -15.9410   20.3122 N   0  0  0  0  0  0  0  0  0  0  0  0
    8.7141  -16.2041   21.6925 C   0  0  0  0  0  0  0  0  0  0  0  0
    9.3941  -15.1615   21.5990 O   0  0  0  0  0  0  0  0  0  0  0  0
    8.6319  -16.8541   22.9660 N   0  0  0  0  0  0  0  0  0  0  0  0
    9.3656  -16.2998   24.0625 C   0  0  1  0  0  0  0  0  0  0  0  0
    8.5422  -16.5592   25.3125 C   0  0  0  0  0  0  0  0  0  0  0  0
    7.4290  -15.5973   25.4830 C   0  0  0  0  0  0  0  0  0  0  0  0
    6.0711  -15.8812   25.3300 C   0  0  0  0  0  0  0  0  0  0  0  0
    5.3737  -14.7601   25.5596 N   0  0  0  0  0  0  0  0  0  0  0  0
    6.2329  -13.7758   25.8524 C   0  0  0  0  0  0  0  0  0  0  0  0
    6.0216  -12.4442   26.1643 C   0  0  0  0  0  0  0  0  0  0  0  0
    7.0886  -11.6227   26.4314 C   0  0  0  0  0  0  0  0  0  0  0  0
    8.3712  -12.0895   26.3975 C   0  0  0  0  0  0  0  0  0  0  0  0
    8.5877  -13.4110   26.0882 C   0  0  0  0  0  0  0  0  0  0  0  0
    7.5396  -14.2670   25.8137 C   0  0  0  0  0  0  0  0  0  0  0  0
   10.7015  -16.9361   24.1593 C   0  0  0  0  0  0  0  0  0  0  0  0
   10.7800  -18.1298   23.7243 O   0  0  0  0  0  0  0  0  0  0  0  0
   15.6254  -15.1476   21.6298 N   0  0  0  0  0  0  0  0  0  0  0  0
   16.2644  -15.7658   22.7469 C   0  0  0  0  0  0  0  0  0  0  0  0
   17.5420  -15.7509   22.7896 O   0  0  0  0  0  0  0  0  0  0  0  0
   15.4895  -16.3968   23.8248 C   0  0  0  0  0  0  0  0  0  0  0  0
   14.0706  -15.9789   23.8641 C   0  0  0  0  0  0  0  0  0  0  0  0
   13.1698  -16.9330   24.5623 C   0  0  2  0  0  0  0  0  0  0  0  0
   11.8331  -16.2894   24.6918 N   0  0  0  0  0  0  0  0  0  0  0  0
   13.5284  -17.3969   25.8864 C   0  0  0  0  0  0  0  0  0  0  0  0
   13.0259  -16.8666   26.9260 O   0  0  0  0  0  0  0  0  0  0  0  0
   14.4287  -18.4506   26.1345 O   0  0  0  0  0  0  0  0  0  0  0  0
  2  1  1  0
  3  2  2  0
  4  5  1  0
  4  2  1  0
  5  6  1  6
  7  5  1  0
  7  8  2  0
  9  7  1  0
 10  9  1  0
 10 11  1  1
 12 11  1  0
 12 13  2  0
 14 13  1  0
 15 20  2  0
 15 14  1  0
 16 15  1  0
 17 18  1  0
 17 16  2  0
 18 19  2  0
 19 20  1  0
 20 12  1  0
 21 10  1  0
 22 21  2  0
 23 24  1  0
 24 26  1  0
 25 24  2  0
 27 26  1  0
 28 27  1  1
 28 29  1  0
 28 30  1  0
 29 21  1  0
 30 32  1  0
 31 30  2  0
M  END
$$$$
