NWQ.pdb
     RDKit          3D

 32 33  0  0  1  0  0  0  0  0999 V2000
   12.6011  -16.6890   16.8095 N   0  0  0  0  0  0  0  0  0  0  0  0
   11.3123  -16.6101   17.4052 C   0  0  0  0  0  0  0  0  0  0  0  0
   10.3438  -17.1595   16.8241 O   0  0  0  0  0  0  0  0  0  0  0  0
   11.0608  -15.9110   18.6764 C   0  0  0  0  0  0  0  0  0  0  0  0
   10.7058  -16.9903   19.7090 C   0  0  2  0  0  0  0  0  0  0  0  0
    9.4911  -17.6736   19.2447 N   0  0  0  0  0  0  0  0  0  0  0  0
   10.3852  -16.3389   20.9980 C   0  0  0  0  0  0  0  0  0  0  0  0
   11.2825  -15.7386   21.6246 O   0  0  0  0  0  0  0  0  0  0  0  0
    9.0671  -16.3728   21.5573 N   0  0  0  0  0  0  0  0  0  0  0  0
    8.8772  -15.8731   22.8846 C   0  0  1  0  0  0  0  0  0  0  0  0
    7.3877  -15.6217   23.0460 C   0  0  0  0  0  0  0  0  0  0  0  0
    7.0200  -15.1737   24.4090 C   0  0  0  0  0  0  0  0  0  0  0  0
    6.4762  -15.9740   25.4148 C   0  0  0  0  0  0  0  0  0  0  0  0
    6.2746  -15.2144   26.5003 N   0  0  0  0  0  0  0  0  0  0  0  0
    6.6681  -13.9646   26.2252 C   0  0  0  0  0  0  0  0  0  0  0  0
    6.6687  -12.8178   26.9999 C   0  0  0  0  0  0  0  0  0  0  0  0
    7.1339  -11.6360   26.4787 C   0  0  0  0  0  0  0  0  0  0  0  0
    7.6029  -11.5592   25.1987 C   0  0  0  0  0  0  0  0  0  0  0  0
    7.6047  -12.6945   24.4243 C   0  0  0  0  0  0  0  0  0  0  0  0
    7.1446  -13.9008   24.9141 C   0  0  0  0  0  0  0  0  0  0  0  0
    9.3647  -16.8598   23.8785 C   0  0  0  0  0  0  0  0  0  0  0  0
    9.2034  -18.0840   23.5695 O   0  0  0  0  0  0  0  0  0  0  0  0
   13.7216  -19.1139   23.5840 N   0  0  0  0  0  0  0  0  0  0  0  0
   13.8939  -19.2169   24.9976 C   0  0  0  0  0  0  0  0  0  0  0  0
   14.7464  -20.0622   25.4368 O   0  0  0  0  0  0  0  0  0  0  0  0
   13.1271  -18.3781   25.9297 C   0  0  0  0  0  0  0  0  0  0  0  0
   12.1703  -17.4664   25.2643 C   0  0  0  0  0  0  0  0  0  0  0  0
   10.7948  -17.5050   25.8262 C   0  0  2  0  0  0  0  0  0  0  0  0
    9.9735  -16.5000   25.0959 N   0  0  0  0  0  0  0  0  0  0  0  0
   10.6045  -17.2389   27.2368 C   0  0  0  0  0  0  0  0  0  0  0  0
   10.1757  -16.1130   27.6403 O   0  0  0  0  0  0  0  0  0  0  0  0
   10.8585  -18.1764   28.2562 O   0  0  0  0  0  0  0  0  0  0  0  0
  2  1  1  0
  3  2  2  0
  4  5  1  0
  4  2  1  0
  5  6  1  6
  7  5  1  0
  7  8  2  0
  9  7  1  0
 10  9  1  0
 10 11  1  1
 12 11  1  0
 12 13  2  0
 14 13  1  0
 15 20  2  0
 15 14  1  0
 16 15  1  0
 17 18  1  0
 17 16  2  0
 18 19  2  0
 19 20  1  0
 20 12  1  0
 21 10  1  0
 22 21  2  0
 23 24  1  0
 24 26  1  0
 25 24  2  0
 27 26  1  0
 28 27  1  6
 28 29  1  0
 28 30  1  0
 29 21  1  0
 30 32  1  0
 31 30  2  0
M  END
$$$$
