NWQ.pdb
     RDKit          3D

 32 33  0  0  1  0  0  0  0  0999 V2000
    9.3122  -16.5797   18.4463 N   0  0  0  0  0  0  0  0  0  0  0  0
   10.2740  -16.9412   19.4293 C   0  0  0  0  0  0  0  0  0  0  0  0
   11.1487  -17.7926   19.1340 O   0  0  0  0  0  0  0  0  0  0  0  0
   10.2907  -16.3609   20.7825 C   0  0  0  0  0  0  0  0  0  0  0  0
   10.2791  -17.5393   21.7665 C   0  0  2  0  0  0  0  0  0  0  0  0
    9.1071  -18.3696   21.4588 N   0  0  0  0  0  0  0  0  0  0  0  0
   10.1082  -17.0194   23.1410 C   0  0  0  0  0  0  0  0  0  0  0  0
   10.9487  -16.2231   23.6072 O   0  0  0  0  0  0  0  0  0  0  0  0
    8.9995  -17.4014   23.9634 N   0  0  0  0  0  0  0  0  0  0  0  0
    8.9326  -16.8887   25.2977 C   0  0  1  0  0  0  0  0  0  0  0  0
    7.5146  -16.3817   25.4984 C   0  0  0  0  0  0  0  0  0  0  0  0
    7.2778  -15.0603   24.8726 C   0  0  0  0  0  0  0  0  0  0  0  0
    7.1746  -14.8097   23.5036 C   0  0  0  0  0  0  0  0  0  0  0  0
    6.9656  -13.4979   23.3261 N   0  0  0  0  0  0  0  0  0  0  0  0
    6.9318  -12.9052   24.5261 C   0  0  0  0  0  0  0  0  0  0  0  0
    6.7454  -11.5814   24.8840 C   0  0  0  0  0  0  0  0  0  0  0  0
    6.7516  -11.2196   26.2083 C   0  0  0  0  0  0  0  0  0  0  0  0
    6.9392  -12.1427   27.1966 C   0  0  0  0  0  0  0  0  0  0  0  0
    7.1250  -13.4589   26.8477 C   0  0  0  0  0  0  0  0  0  0  0  0
    7.1251  -13.8602   25.5265 C   0  0  0  0  0  0  0  0  0  0  0  0
    9.2634  -17.9549   26.2737 C   0  0  0  0  0  0  0  0  0  0  0  0
    8.4476  -18.0939   27.2408 O   0  0  0  0  0  0  0  0  0  0  0  0
   11.3805  -22.1856   23.2949 N   0  0  0  0  0  0  0  0  0  0  0  0
   10.8620  -22.5367   24.5781 C   0  0  0  0  0  0  0  0  0  0  0  0
   10.9603  -23.7556   24.9504 O   0  0  0  0  0  0  0  0  0  0  0  0
   10.2391  -21.5364   25.4566 C   0  0  0  0  0  0  0  0  0  0  0  0
   11.1323  -21.0432   26.5281 C   0  0  0  0  0  0  0  0  0  0  0  0
   10.6508  -19.8134   27.2098 C   0  0  2  0  0  0  0  0  0  0  0  0
   10.3989  -18.7805   26.1669 N   0  0  0  0  0  0  0  0  0  0  0  0
   11.4935  -19.1876   28.2075 C   0  0  0  0  0  0  0  0  0  0  0  0
   11.3080  -19.3954   29.4471 O   0  0  0  0  0  0  0  0  0  0  0  0
   12.5671  -18.3284   27.9046 O   0  0  0  0  0  0  0  0  0  0  0  0
  2  1  1  0
  3  2  2  0
  4  5  1  0
  4  2  1  0
  5  6  1  6
  7  5  1  0
  7  8  2  0
  9  7  1  0
 10  9  1  0
 10 11  1  1
 12 11  1  0
 12 13  2  0
 14 13  1  0
 15 20  2  0
 15 14  1  0
 16 15  1  0
 17 18  1  0
 17 16  2  0
 18 19  2  0
 19 20  1  0
 20 12  1  0
 21 10  1  0
 22 21  2  0
 23 24  1  0
 24 26  1  0
 25 24  2  0
 27 26  1  0
 28 27  1  6
 28 29  1  0
 28 30  1  0
 29 21  1  0
 30 32  1  0
 31 30  2  0
M  END
$$$$
