YRW.pdb
     RDKit          3D

 38 40  0  0  1  0  0  0  0  0999 V2000
   17.4168  -14.5071   17.2630 O   0  0  0  0  0  0  0  0  0  0  0  0
   16.2150  -14.4264   17.9547 C   0  0  0  0  0  0  0  0  0  0  0  0
   15.8909  -15.4639   18.8124 C   0  0  0  0  0  0  0  0  0  0  0  0
   14.7194  -15.4635   19.5366 C   0  0  0  0  0  0  0  0  0  0  0  0
   13.8213  -14.4166   19.4285 C   0  0  0  0  0  0  0  0  0  0  0  0
   12.5940  -14.4863   20.2339 C   0  0  0  0  0  0  0  0  0  0  0  0
   11.6901  -15.5693   19.6821 C   0  0  2  0  0  0  0  0  0  0  0  0
   11.1565  -15.1023   18.4351 N   0  0  0  0  0  0  0  0  0  0  0  0
   10.5698  -15.8424   20.6342 C   0  0  0  0  0  0  0  0  0  0  0  0
    9.5449  -15.1260   20.5594 O   0  0  0  0  0  0  0  0  0  0  0  0
   14.1459  -13.3888   18.5767 C   0  0  0  0  0  0  0  0  0  0  0  0
   15.3239  -13.3902   17.8491 C   0  0  0  0  0  0  0  0  0  0  0  0
    6.8819  -23.2629   23.2097 N   0  0  0  0  0  0  0  0  0  0  0  0
    6.3654  -22.2680   24.0715 C   0  0  0  0  0  0  0  0  0  0  0  0
    5.3579  -22.5689   24.8170 N   0  0  0  0  0  0  0  0  0  0  0  0
    6.9638  -20.9852   24.0855 N   0  0  0  0  0  0  0  0  0  0  0  0
    7.9416  -20.6579   23.0806 C   0  0  0  0  0  0  0  0  0  0  0  0
    8.4354  -19.2432   23.3603 C   0  0  0  0  0  0  0  0  0  0  0  0
    9.3876  -18.7743   22.3130 C   0  0  0  0  0  0  0  0  0  0  0  0
    9.7700  -17.3130   22.5606 C   0  0  2  0  0  0  0  0  0  0  0  0
   10.7016  -16.8820   21.5694 N   0  0  0  0  0  0  0  0  0  0  0  0
   10.2696  -17.1247   23.9237 C   0  0  0  0  0  0  0  0  0  0  0  0
   11.0248  -17.9797   24.4441 O   0  0  0  0  0  0  0  0  0  0  0  0
    4.9421  -21.9233   25.5141 N   0  0  0  0  0  0  0  0  0  0  0  0
    9.9135  -15.9837   24.6761 C   0  0  2  0  0  0  0  0  0  0  0  0
    9.4525  -16.0256   26.0529 C   0  0  0  0  0  0  0  0  0  0  0  0
    7.9797  -16.1773   26.0985 C   0  0  0  0  0  0  0  0  0  0  0  0
    7.3159  -15.0276   25.4579 C   0  0  0  0  0  0  0  0  0  0  0  0
    6.9307  -14.8569   24.1480 N   0  0  0  0  0  0  0  0  0  0  0  0
    6.3635  -13.6545   24.0111 C   0  0  0  0  0  0  0  0  0  0  0  0
    6.3696  -13.0364   25.2004 C   0  0  0  0  0  0  0  0  0  0  0  0
    5.8998  -11.7781   25.5813 C   0  0  0  0  0  0  0  0  0  0  0  0
    6.0408  -11.4045   26.8835 C   0  0  0  0  0  0  0  0  0  0  0  0
    6.6282  -12.2287   27.8191 C   0  0  0  0  0  0  0  0  0  0  0  0
    7.0947  -13.4820   27.4333 C   0  0  0  0  0  0  0  0  0  0  0  0
    6.9563  -13.8716   26.1121 C   0  0  0  0  0  0  0  0  0  0  0  0
   10.1380  -17.0994   26.8319 O   0  0  0  0  0  0  0  0  0  0  0  0
   11.0175  -17.9996   26.2711 O   0  0  0  0  0  0  0  0  0  0  0  0
  2  1  1  0
  3  2  2  0
  4  3  1  0
  5 11  1  0
  5  4  2  0
  6  7  1  0
  6  5  1  0
  7  8  1  6
  9  7  1  0
 10  9  2  0
 11 12  2  0
 12  2  1  0
 13 14  1  0
 14 15  2  0
 14 16  1  0
 16 17  1  0
 17 18  1  0
 18 19  1  0
 20 19  1  6
 20 22  1  0
 20 21  1  0
 21  9  1  0
 22 23  2  0
 24 25  1  0
 24 22  1  0
 25 26  1  6
 27 26  1  0
 27 28  2  0
 29 28  1  0
 30 29  1  0
 31 30  2  0
 32 31  1  0
 33 32  2  0
 33 34  1  0
 34 35  2  0
 35 30  1  0
 35 27  1  0
 36 25  1  0
 36 37  1  0
 38 36  2  0
M  END
$$$$
