YRW.pdb
     RDKit          3D

 38 40  0  0  1  0  0  0  0  0999 V2000
    7.5530  -11.8220   16.6629 O   0  0  0  0  0  0  0  0  0  0  0  0
    7.6820  -12.6101   17.7995 C   0  0  0  0  0  0  0  0  0  0  0  0
    6.5253  -13.0977   18.3837 C   0  0  0  0  0  0  0  0  0  0  0  0
    6.5628  -13.8865   19.5120 C   0  0  0  0  0  0  0  0  0  0  0  0
    7.7689  -14.2193   20.1026 C   0  0  0  0  0  0  0  0  0  0  0  0
    7.7286  -15.0661   21.3032 C   0  0  0  0  0  0  0  0  0  0  0  0
    8.5530  -16.3146   21.0671 C   0  0  2  0  0  0  0  0  0  0  0  0
    7.9326  -17.0562   20.0075 N   0  0  0  0  0  0  0  0  0  0  0  0
    8.5915  -17.1506   22.3064 C   0  0  0  0  0  0  0  0  0  0  0  0
    7.5311  -17.7057   22.6761 O   0  0  0  0  0  0  0  0  0  0  0  0
    8.9147  -13.7339   19.5205 C   0  0  0  0  0  0  0  0  0  0  0  0
    8.8758  -12.9410   18.3861 C   0  0  0  0  0  0  0  0  0  0  0  0
   13.6055  -19.0560   19.7017 N   0  0  0  0  0  0  0  0  0  0  0  0
   14.5601  -18.8244   20.7189 C   0  0  0  0  0  0  0  0  0  0  0  0
   15.7111  -18.3532   20.3803 N   0  0  0  0  0  0  0  0  0  0  0  0
   14.2253  -19.1175   22.0627 N   0  0  0  0  0  0  0  0  0  0  0  0
   12.9695  -19.7621   22.3466 C   0  0  0  0  0  0  0  0  0  0  0  0
   11.9723  -18.6779   22.7387 C   0  0  0  0  0  0  0  0  0  0  0  0
   11.1419  -19.0889   23.9070 C   0  0  0  0  0  0  0  0  0  0  0  0
   10.0681  -18.0356   24.1905 C   0  0  2  0  0  0  0  0  0  0  0  0
    9.8018  -17.2854   23.0062 N   0  0  0  0  0  0  0  0  0  0  0  0
   10.4499  -17.1877   25.3212 C   0  0  0  0  0  0  0  0  0  0  0  0
   11.3642  -16.3390   25.1947 O   0  0  0  0  0  0  0  0  0  0  0  0
   16.4829  -18.1775   21.0503 N   0  0  0  0  0  0  0  0  0  0  0  0
    9.8008  -17.3073   26.5698 C   0  0  1  0  0  0  0  0  0  0  0  0
   10.2361  -16.6376   27.7830 C   0  0  0  0  0  0  0  0  0  0  0  0
    9.0700  -16.0992   28.5208 C   0  0  0  0  0  0  0  0  0  0  0  0
    8.1201  -15.4530   27.5972 C   0  0  0  0  0  0  0  0  0  0  0  0
    7.0979  -16.0081   26.8624 N   0  0  0  0  0  0  0  0  0  0  0  0
    6.4923  -15.0471   26.1582 C   0  0  0  0  0  0  0  0  0  0  0  0
    7.0951  -13.8780   26.4159 C   0  0  0  0  0  0  0  0  0  0  0  0
    6.8417  -12.5914   25.9370 C   0  0  0  0  0  0  0  0  0  0  0  0
    7.6291  -11.5720   26.3799 C   0  0  0  0  0  0  0  0  0  0  0  0
    8.6549  -11.7796   27.2768 C   0  0  0  0  0  0  0  0  0  0  0  0
    8.9026  -13.0647   27.7506 C   0  0  0  0  0  0  0  0  0  0  0  0
    8.1083  -14.1079   27.3069 C   0  0  0  0  0  0  0  0  0  0  0  0
   11.0614  -17.5364   28.6437 O   0  0  0  0  0  0  0  0  0  0  0  0
   11.7322  -17.1050   29.7672 O   0  0  0  0  0  0  0  0  0  0  0  0
  2  1  1  0
  3  2  2  0
  4  3  1  0
  5 11  1  0
  5  4  2  0
  6  7  1  0
  6  5  1  0
  7  8  1  6
  9  7  1  0
 10  9  2  0
 11 12  2  0
 12  2  1  0
 13 14  1  0
 14 15  2  0
 14 16  1  0
 16 17  1  0
 17 18  1  0
 18 19  1  0
 20 19  1  6
 20 22  1  0
 20 21  1  0
 21  9  1  0
 22 23  2  0
 24 25  1  0
 24 22  1  0
 25 26  1  1
 27 26  1  0
 27 28  2  0
 29 28  1  0
 30 29  1  0
 31 30  2  0
 32 31  1  0
 33 32  2  0
 33 34  1  0
 34 35  2  0
 35 30  1  0
 35 27  1  0
 36 25  1  0
 36 37  1  0
 38 36  2  0
M  END
$$$$
