YRW.pdb
     RDKit          3D

 38 40  0  0  1  0  0  0  0  0999 V2000
    7.1921  -11.4929   16.9895 O   0  0  0  0  0  0  0  0  0  0  0  0
    7.4671  -12.2344   18.1315 C   0  0  0  0  0  0  0  0  0  0  0  0
    6.4111  -12.8759   18.7563 C   0  0  0  0  0  0  0  0  0  0  0  0
    6.5955  -13.6317   19.8928 C   0  0  0  0  0  0  0  0  0  0  0  0
    7.8534  -13.7746   20.4510 C   0  0  0  0  0  0  0  0  0  0  0  0
    7.9712  -14.5979   21.6627 C   0  0  0  0  0  0  0  0  0  0  0  0
    8.6432  -15.9105   21.3167 C   0  0  2  0  0  0  0  0  0  0  0  0
    7.7569  -16.6448   20.4606 N   0  0  0  0  0  0  0  0  0  0  0  0
    8.9061  -16.6999   22.5592 C   0  0  0  0  0  0  0  0  0  0  0  0
    7.9264  -17.0263   23.2685 O   0  0  0  0  0  0  0  0  0  0  0  0
    8.8989  -13.1369   19.8285 C   0  0  0  0  0  0  0  0  0  0  0  0
    8.7124  -12.3774   18.6859 C   0  0  0  0  0  0  0  0  0  0  0  0
   13.5258  -18.5408   19.7910 N   0  0  0  0  0  0  0  0  0  0  0  0
   13.4363  -19.9460   19.9211 C   0  0  0  0  0  0  0  0  0  0  0  0
   13.3888  -20.6569   18.8469 N   0  0  0  0  0  0  0  0  0  0  0  0
   13.3990  -20.5210   21.2141 N   0  0  0  0  0  0  0  0  0  0  0  0
   13.5080  -19.6629   22.3651 C   0  0  0  0  0  0  0  0  0  0  0  0
   12.1336  -19.0545   22.6192 C   0  0  0  0  0  0  0  0  0  0  0  0
   12.1247  -18.2046   23.8444 C   0  0  0  0  0  0  0  0  0  0  0  0
   10.7235  -17.6379   24.0858 C   0  0  2  0  0  0  0  0  0  0  0  0
   10.2274  -17.0466   22.8857 N   0  0  0  0  0  0  0  0  0  0  0  0
   10.7210  -16.7073   25.2159 C   0  0  0  0  0  0  0  0  0  0  0  0
   11.2643  -15.5823   25.1097 O   0  0  0  0  0  0  0  0  0  0  0  0
   13.3048  -21.6905   18.8417 N   0  0  0  0  0  0  0  0  0  0  0  0
   10.1107  -17.0551   26.4412 C   0  0  1  0  0  0  0  0  0  0  0  0
   10.4102  -16.4176   27.7116 C   0  0  0  0  0  0  0  0  0  0  0  0
    9.1589  -16.0035   28.3876 C   0  0  0  0  0  0  0  0  0  0  0  0
    8.1118  -15.6858   27.3999 C   0  0  0  0  0  0  0  0  0  0  0  0
    7.2811  -16.5316   26.7014 N   0  0  0  0  0  0  0  0  0  0  0  0
    6.4835  -15.8078   25.9101 C   0  0  0  0  0  0  0  0  0  0  0  0
    6.7741  -14.5097   26.0755 C   0  0  0  0  0  0  0  0  0  0  0  0
    6.2309  -13.3670   25.4855 C   0  0  0  0  0  0  0  0  0  0  0  0
    6.7305  -12.1536   25.8506 C   0  0  0  0  0  0  0  0  0  0  0  0
    7.7452  -12.0310   26.7753 C   0  0  0  0  0  0  0  0  0  0  0  0
    8.2827  -13.1740   27.3600 C   0  0  0  0  0  0  0  0  0  0  0  0
    7.7821  -14.4123   26.9961 C   0  0  0  0  0  0  0  0  0  0  0  0
   11.2410  -17.2962   28.5876 O   0  0  0  0  0  0  0  0  0  0  0  0
   11.5482  -18.6032   28.2783 O   0  0  0  0  0  0  0  0  0  0  0  0
  2  1  1  0
  3  2  2  0
  4  3  1  0
  5 11  1  0
  5  4  2  0
  6  7  1  0
  6  5  1  0
  7  8  1  6
  9  7  1  0
 10  9  2  0
 11 12  2  0
 12  2  1  0
 13 14  1  0
 14 15  2  0
 14 16  1  0
 16 17  1  0
 17 18  1  0
 18 19  1  0
 20 19  1  6
 20 22  1  0
 20 21  1  0
 21  9  1  0
 22 23  2  0
 24 25  1  0
 24 22  1  0
 25 26  1  6
 27 26  1  0
 27 28  2  0
 29 28  1  0
 30 29  1  0
 31 30  2  0
 32 31  1  0
 33 32  2  0
 33 34  1  0
 34 35  2  0
 35 30  1  0
 35 27  1  0
 36 25  1  0
 36 37  1  0
 38 36  2  0
M  END
$$$$
