YRW.pdb
     RDKit          3D

 38 40  0  0  1  0  0  0  0  0999 V2000
    8.3595  -21.8974   29.7519 O   0  0  0  0  0  0  0  0  0  0  0  0
    8.1818  -21.0834   28.6404 C   0  0  0  0  0  0  0  0  0  0  0  0
    6.9089  -20.9893   28.1040 C   0  0  0  0  0  0  0  0  0  0  0  0
    6.6449  -20.2050   27.0031 C   0  0  0  0  0  0  0  0  0  0  0  0
    7.6531  -19.4798   26.3930 C   0  0  0  0  0  0  0  0  0  0  0  0
    7.2940  -18.6647   25.2241 C   0  0  0  0  0  0  0  0  0  0  0  0
    7.2341  -19.5465   23.9941 C   0  0  2  0  0  0  0  0  0  0  0  0
    8.0501  -20.7002   24.2411 N   0  0  0  0  0  0  0  0  0  0  0  0
    7.7584  -18.8092   22.8034 C   0  0  0  0  0  0  0  0  0  0  0  0
    8.8495  -19.1813   22.3131 O   0  0  0  0  0  0  0  0  0  0  0  0
    8.9149  -19.5754   26.9278 C   0  0  0  0  0  0  0  0  0  0  0  0
    9.1791  -20.3642   28.0346 C   0  0  0  0  0  0  0  0  0  0  0  0
    9.0065  -14.6618   16.8817 N   0  0  0  0  0  0  0  0  0  0  0  0
    8.1600  -13.5785   17.2124 C   0  0  0  0  0  0  0  0  0  0  0  0
    8.0813  -12.5911   16.3876 N   0  0  0  0  0  0  0  0  0  0  0  0
    7.4356  -13.6116   18.4281 N   0  0  0  0  0  0  0  0  0  0  0  0
    7.7276  -14.6434   19.3890 C   0  0  0  0  0  0  0  0  0  0  0  0
    6.8343  -14.4107   20.6020 C   0  0  0  0  0  0  0  0  0  0  0  0
    6.3354  -15.6943   21.1738 C   0  0  0  0  0  0  0  0  0  0  0  0
    7.4875  -16.4720   21.8148 C   0  0  2  0  0  0  0  0  0  0  0  0
    7.0181  -17.7370   22.2792 N   0  0  0  0  0  0  0  0  0  0  0  0
    8.1283  -15.6860   22.8706 C   0  0  0  0  0  0  0  0  0  0  0  0
    8.0223  -14.4367   22.8817 O   0  0  0  0  0  0  0  0  0  0  0  0
    7.5515  -11.7202   16.5783 N   0  0  0  0  0  0  0  0  0  0  0  0
    8.8743  -16.3145   23.8920 C   0  0  1  0  0  0  0  0  0  0  0  0
    9.8469  -15.6333   24.7287 C   0  0  0  0  0  0  0  0  0  0  0  0
    9.2944  -15.4126   26.0853 C   0  0  0  0  0  0  0  0  0  0  0  0
    7.9652  -14.7797   26.0115 C   0  0  0  0  0  0  0  0  0  0  0  0
    6.7228  -15.3615   25.9049 N   0  0  0  0  0  0  0  0  0  0  0  0
    5.7918  -14.4034   25.8687 C   0  0  0  0  0  0  0  0  0  0  0  0
    6.3970  -13.2101   25.9489 C   0  0  0  0  0  0  0  0  0  0  0  0
    5.8736  -11.9158   25.9522 C   0  0  0  0  0  0  0  0  0  0  0  0
    6.7411  -10.8700   26.0469 C   0  0  0  0  0  0  0  0  0  0  0  0
    8.1034  -11.0585   26.1380 C   0  0  0  0  0  0  0  0  0  0  0  0
    8.6192  -12.3513   26.1342 C   0  0  0  0  0  0  0  0  0  0  0  0
    7.7462  -13.4214   26.0384 C   0  0  0  0  0  0  0  0  0  0  0  0
   11.1442  -16.3710   24.7791 O   0  0  0  0  0  0  0  0  0  0  0  0
   11.3508  -17.5853   24.1619 O   0  0  0  0  0  0  0  0  0  0  0  0
  2  1  1  0
  3  2  2  0
  4  3  1  0
  5 11  1  0
  5  4  2  0
  6  7  1  0
  6  5  1  0
  7  8  1  1
  9  7  1  0
 10  9  2  0
 11 12  2  0
 12  2  1  0
 13 14  1  0
 14 15  2  0
 14 16  1  0
 16 17  1  0
 17 18  1  0
 18 19  1  0
 20 19  1  1
 20 22  1  0
 20 21  1  0
 21  9  1  0
 22 23  2  0
 24 25  1  0
 24 22  1  0
 25 26  1  1
 27 26  1  0
 27 28  2  0
 29 28  1  0
 30 29  1  0
 31 30  2  0
 32 31  1  0
 33 32  2  0
 33 34  1  0
 34 35  2  0
 35 30  1  0
 35 27  1  0
 36 25  1  0
 36 37  1  0
 38 36  2  0
M  END
$$$$
