YRW.pdb
     RDKit          3D

 38 40  0  0  1  0  0  0  0  0999 V2000
    6.6562  -18.8642   15.3024 O   0  0  0  0  0  0  0  0  0  0  0  0
    7.6622  -18.7459   16.2529 C   0  0  0  0  0  0  0  0  0  0  0  0
    8.9724  -18.8929   15.8303 C   0  0  0  0  0  0  0  0  0  0  0  0
   10.0300  -18.7906   16.7066 C   0  0  0  0  0  0  0  0  0  0  0  0
    9.8141  -18.5356   18.0492 C   0  0  0  0  0  0  0  0  0  0  0  0
   10.9925  -18.4388   18.9221 C   0  0  0  0  0  0  0  0  0  0  0  0
   10.5432  -18.3109   20.3629 C   0  0  2  0  0  0  0  0  0  0  0  0
    9.1955  -18.7953   20.4468 N   0  0  0  0  0  0  0  0  0  0  0  0
   10.5874  -16.8795   20.7931 C   0  0  0  0  0  0  0  0  0  0  0  0
   11.6738  -16.2650   20.6858 O   0  0  0  0  0  0  0  0  0  0  0  0
    8.5129  -18.3904   18.4652 C   0  0  0  0  0  0  0  0  0  0  0  0
    7.4504  -18.4933   17.5834 C   0  0  0  0  0  0  0  0  0  0  0  0
    7.2307  -13.1877   16.3508 N   0  0  0  0  0  0  0  0  0  0  0  0
    8.3815  -14.0083   16.3896 C   0  0  0  0  0  0  0  0  0  0  0  0
    9.0115  -14.2292   15.2870 N   0  0  0  0  0  0  0  0  0  0  0  0
    8.7989  -14.5580   17.6255 N   0  0  0  0  0  0  0  0  0  0  0  0
    7.8298  -14.7355   18.6755 C   0  0  0  0  0  0  0  0  0  0  0  0
    8.1895  -13.7748   19.8030 C   0  0  0  0  0  0  0  0  0  0  0  0
    7.9323  -14.3761   21.1430 C   0  0  0  0  0  0  0  0  0  0  0  0
    9.2309  -14.9323   21.7322 C   0  0  2  0  0  0  0  0  0  0  0  0
    9.4226  -16.2776   21.2965 N   0  0  0  0  0  0  0  0  0  0  0  0
    9.2427  -14.8048   23.1905 C   0  0  0  0  0  0  0  0  0  0  0  0
    9.0253  -13.6940   23.7299 O   0  0  0  0  0  0  0  0  0  0  0  0
    9.8424  -14.8451   15.2100 N   0  0  0  0  0  0  0  0  0  0  0  0
    9.4978  -15.9230   24.0148 C   0  0  1  0  0  0  0  0  0  0  0  0
    9.9654  -15.8350   25.3873 C   0  0  0  0  0  0  0  0  0  0  0  0
    8.8941  -16.2466   26.3237 C   0  0  0  0  0  0  0  0  0  0  0  0
    7.6584  -15.4833   26.0722 C   0  0  0  0  0  0  0  0  0  0  0  0
    6.4622  -15.9044   25.5381 N   0  0  0  0  0  0  0  0  0  0  0  0
    5.6151  -14.8717   25.4921 C   0  0  0  0  0  0  0  0  0  0  0  0
    6.2301  -13.7866   25.9832 C   0  0  0  0  0  0  0  0  0  0  0  0
    5.7806  -12.4754   26.1493 C   0  0  0  0  0  0  0  0  0  0  0  0
    6.6384  -11.5629   26.6849 C   0  0  0  0  0  0  0  0  0  0  0  0
    7.9208  -11.9005   27.0606 C   0  0  0  0  0  0  0  0  0  0  0  0
    8.3631  -13.2094   26.8924 C   0  0  0  0  0  0  0  0  0  0  0  0
    7.4993  -14.1447   26.3491 C   0  0  0  0  0  0  0  0  0  0  0  0
   11.2119  -16.6298   25.5975 O   0  0  0  0  0  0  0  0  0  0  0  0
   11.9050  -16.6531   26.7880 O   0  0  0  0  0  0  0  0  0  0  0  0
  2  1  1  0
  3  2  2  0
  4  3  1  0
  5 11  1  0
  5  4  2  0
  6  7  1  0
  6  5  1  0
  7  8  1  6
  9  7  1  0
 10  9  2  0
 11 12  2  0
 12  2  1  0
 13 14  1  0
 14 15  2  0
 14 16  1  0
 16 17  1  0
 17 18  1  0
 18 19  1  0
 20 19  1  1
 20 22  1  0
 20 21  1  0
 21  9  1  0
 22 23  2  0
 24 25  1  0
 24 22  1  0
 25 26  1  1
 27 26  1  0
 27 28  2  0
 29 28  1  0
 30 29  1  0
 31 30  2  0
 32 31  1  0
 33 32  2  0
 33 34  1  0
 34 35  2  0
 35 30  1  0
 35 27  1  0
 36 25  1  0
 36 37  1  0
 38 36  2  0
M  END
$$$$
