YRW.pdb
     RDKit          3D

 38 40  0  0  1  0  0  0  0  0999 V2000
    4.1218  -23.6245   19.7826 O   0  0  0  0  0  0  0  0  0  0  0  0
    4.8621  -23.0683   20.8181 C   0  0  0  0  0  0  0  0  0  0  0  0
    5.6640  -23.9129   21.5666 C   0  0  0  0  0  0  0  0  0  0  0  0
    6.4304  -23.4443   22.6106 C   0  0  0  0  0  0  0  0  0  0  0  0
    6.4226  -22.1023   22.9471 C   0  0  0  0  0  0  0  0  0  0  0  0
    7.2677  -21.6773   24.0720 C   0  0  0  0  0  0  0  0  0  0  0  0
    7.1296  -20.1819   24.2691 C   0  0  2  0  0  0  0  0  0  0  0  0
    5.7877  -19.8153   23.9187 N   0  0  0  0  0  0  0  0  0  0  0  0
    8.0931  -19.4531   23.3880 C   0  0  0  0  0  0  0  0  0  0  0  0
    9.3123  -19.7175   23.5022 O   0  0  0  0  0  0  0  0  0  0  0  0
    5.6258  -21.2670   22.2024 C   0  0  0  0  0  0  0  0  0  0  0  0
    4.8558  -21.7391   21.1530 C   0  0  0  0  0  0  0  0  0  0  0  0
    7.4001  -13.5985   17.2813 N   0  0  0  0  0  0  0  0  0  0  0  0
    8.3187  -12.9679   18.1518 C   0  0  0  0  0  0  0  0  0  0  0  0
    8.6417  -11.7426   17.9154 N   0  0  0  0  0  0  0  0  0  0  0  0
    8.8513  -13.6962   19.2426 N   0  0  0  0  0  0  0  0  0  0  0  0
    8.4871  -15.0798   19.4049 C   0  0  0  0  0  0  0  0  0  0  0  0
    7.8219  -15.2251   20.7687 C   0  0  0  0  0  0  0  0  0  0  0  0
    7.3213  -16.6117   20.9931 C   0  0  0  0  0  0  0  0  0  0  0  0
    8.2735  -17.3757   21.9165 C   0  0  2  0  0  0  0  0  0  0  0  0
    7.6050  -18.5079   22.4709 N   0  0  0  0  0  0  0  0  0  0  0  0
    8.8318  -16.4925   22.9418 C   0  0  0  0  0  0  0  0  0  0  0  0
    8.2818  -15.3955   23.1992 O   0  0  0  0  0  0  0  0  0  0  0  0
    9.3859  -11.2326   18.4267 N   0  0  0  0  0  0  0  0  0  0  0  0
    9.9940  -16.8554   23.6577 C   0  0  1  0  0  0  0  0  0  0  0  0
   10.2767  -16.4377   25.0199 C   0  0  0  0  0  0  0  0  0  0  0  0
    9.1007  -16.6799   25.8874 C   0  0  0  0  0  0  0  0  0  0  0  0
    8.7215  -15.4516   26.6087 C   0  0  0  0  0  0  0  0  0  0  0  0
    8.9700  -15.0896   27.9127 N   0  0  0  0  0  0  0  0  0  0  0  0
    8.4388  -13.8848   28.1420 C   0  0  0  0  0  0  0  0  0  0  0  0
    7.8495  -13.4519   27.0185 C   0  0  0  0  0  0  0  0  0  0  0  0
    7.1621  -12.2688   26.7420 C   0  0  0  0  0  0  0  0  0  0  0  0
    6.6597  -12.0932   25.4882 C   0  0  0  0  0  0  0  0  0  0  0  0
    6.8126  -13.0435   24.5016 C   0  0  0  0  0  0  0  0  0  0  0  0
    7.4988  -14.2212   24.7835 C   0  0  0  0  0  0  0  0  0  0  0  0
    8.0135  -14.4097   26.0547 C   0  0  0  0  0  0  0  0  0  0  0  0
   11.5006  -17.1026   25.5582 O   0  0  0  0  0  0  0  0  0  0  0  0
   12.3624  -16.4995   26.4480 O   0  0  0  0  0  0  0  0  0  0  0  0
  2  1  1  0
  3  2  2  0
  4  3  1  0
  5 11  1  0
  5  4  2  0
  6  7  1  0
  6  5  1  0
  7  8  1  6
  9  7  1  0
 10  9  2  0
 11 12  2  0
 12  2  1  0
 13 14  1  0
 14 15  2  0
 14 16  1  0
 16 17  1  0
 17 18  1  0
 18 19  1  0
 20 19  1  1
 20 22  1  0
 20 21  1  0
 21  9  1  0
 22 23  2  0
 24 25  1  0
 24 22  1  0
 25 26  1  1
 27 26  1  0
 27 28  2  0
 29 28  1  0
 30 29  1  0
 31 30  2  0
 32 31  1  0
 33 32  2  0
 33 34  1  0
 34 35  2  0
 35 30  1  0
 35 27  1  0
 36 25  1  0
 36 37  1  0
 38 36  2  0
M  END
$$$$
