YRW.pdb
     RDKit          3D

 38 40  0  0  1  0  0  0  0  0999 V2000
   18.5290  -14.7828   17.7093 O   0  0  0  0  0  0  0  0  0  0  0  0
   17.2484  -14.5430   18.1913 C   0  0  0  0  0  0  0  0  0  0  0  0
   16.7575  -15.3877   19.1723 C   0  0  0  0  0  0  0  0  0  0  0  0
   15.4985  -15.2213   19.7052 C   0  0  0  0  0  0  0  0  0  0  0  0
   14.6772  -14.1952   19.2728 C   0  0  0  0  0  0  0  0  0  0  0  0
   13.3482  -14.0805   19.8897 C   0  0  0  0  0  0  0  0  0  0  0  0
   12.4265  -15.1272   19.2988 C   0  0  2  0  0  0  0  0  0  0  0  0
   12.0357  -14.6806   17.9928 N   0  0  0  0  0  0  0  0  0  0  0  0
   11.2118  -15.2894   20.1558 C   0  0  0  0  0  0  0  0  0  0  0  0
   10.4450  -14.3070   20.2835 O   0  0  0  0  0  0  0  0  0  0  0  0
   15.1674  -13.3589   18.2994 C   0  0  0  0  0  0  0  0  0  0  0  0
   16.4333  -13.5271   17.7643 C   0  0  0  0  0  0  0  0  0  0  0  0
    9.8952  -18.9256   16.9585 N   0  0  0  0  0  0  0  0  0  0  0  0
    8.6437  -18.3358   16.6664 C   0  0  0  0  0  0  0  0  0  0  0  0
    8.4835  -17.7827   15.5132 N   0  0  0  0  0  0  0  0  0  0  0  0
    7.6180  -18.3688   17.6415 N   0  0  0  0  0  0  0  0  0  0  0  0
    7.9375  -18.7945   18.9793 C   0  0  0  0  0  0  0  0  0  0  0  0
    8.7534  -17.6859   19.6341 C   0  0  0  0  0  0  0  0  0  0  0  0
    9.0772  -18.0047   21.0543 C   0  0  0  0  0  0  0  0  0  0  0  0
    9.9166  -16.8831   21.6710 C   0  0  2  0  0  0  0  0  0  0  0  0
   10.9727  -16.5240   20.7811 N   0  0  0  0  0  0  0  0  0  0  0  0
   10.4023  -17.2604   22.9995 C   0  0  0  0  0  0  0  0  0  0  0  0
   10.5827  -18.4673   23.2875 O   0  0  0  0  0  0  0  0  0  0  0  0
    7.6248  -17.2743   15.2309 N   0  0  0  0  0  0  0  0  0  0  0  0
   10.6759  -16.2792   23.9779 C   0  0  2  0  0  0  0  0  0  0  0  0
    9.7130  -15.8193   24.9635 C   0  0  0  0  0  0  0  0  0  0  0  0
    8.4925  -15.3133   24.2939 C   0  0  0  0  0  0  0  0  0  0  0  0
    7.5059  -14.8501   25.2863 C   0  0  0  0  0  0  0  0  0  0  0  0
    6.5931  -15.5746   26.0179 N   0  0  0  0  0  0  0  0  0  0  0  0
    5.8971  -14.7422   26.7981 C   0  0  0  0  0  0  0  0  0  0  0  0
    6.3338  -13.4916   26.5931 C   0  0  0  0  0  0  0  0  0  0  0  0
    5.9361  -12.2783   27.1575 C   0  0  0  0  0  0  0  0  0  0  0  0
    6.5682  -11.1415   26.7532 C   0  0  0  0  0  0  0  0  0  0  0  0
    7.5763  -11.1623   25.8135 C   0  0  0  0  0  0  0  0  0  0  0  0
    7.9683  -12.3752   25.2544 C   0  0  0  0  0  0  0  0  0  0  0  0
    7.3324  -13.5366   25.6583 C   0  0  0  0  0  0  0  0  0  0  0  0
    9.3901  -16.8849   25.9584 O   0  0  0  0  0  0  0  0  0  0  0  0
   10.3094  -17.8082   26.4064 O   0  0  0  0  0  0  0  0  0  0  0  0
  2  1  1  0
  3  2  2  0
  4  3  1  0
  5 11  1  0
  5  4  2  0
  6  7  1  0
  6  5  1  0
  7  8  1  6
  9  7  1  0
 10  9  2  0
 11 12  2  0
 12  2  1  0
 13 14  1  0
 14 15  2  0
 14 16  1  0
 16 17  1  0
 17 18  1  0
 18 19  1  0
 20 19  1  6
 20 22  1  0
 20 21  1  0
 21  9  1  0
 22 23  2  0
 24 25  1  0
 24 22  1  0
 25 26  1  6
 27 26  1  0
 27 28  2  0
 29 28  1  0
 30 29  1  0
 31 30  2  0
 32 31  1  0
 33 32  2  0
 33 34  1  0
 34 35  2  0
 35 30  1  0
 35 27  1  0
 36 25  1  0
 36 37  1  0
 38 36  2  0
M  END
$$$$
