YRW.pdb
     RDKit          3D

 38 40  0  0  1  0  0  0  0  0999 V2000
   -0.3437  -20.4634   20.4797 O   0  0  0  0  0  0  0  0  0  0  0  0
    0.9306  -19.9830   20.7533 C   0  0  0  0  0  0  0  0  0  0  0  0
    1.4205  -20.1428   22.0383 C   0  0  0  0  0  0  0  0  0  0  0  0
    2.6736  -19.6960   22.3946 C   0  0  0  0  0  0  0  0  0  0  0  0
    3.4897  -19.0675   21.4708 C   0  0  0  0  0  0  0  0  0  0  0  0
    4.8138  -18.6200   21.9250 C   0  0  0  0  0  0  0  0  0  0  0  0
    5.8660  -19.0731   20.9342 C   0  0  2  0  0  0  0  0  0  0  0  0
    5.8894  -20.5074   20.9441 N   0  0  0  0  0  0  0  0  0  0  0  0
    7.2091  -18.5486   21.3305 C   0  0  0  0  0  0  0  0  0  0  0  0
    7.8710  -19.1988   22.1722 O   0  0  0  0  0  0  0  0  0  0  0  0
    3.0006  -18.9105   20.1967 C   0  0  0  0  0  0  0  0  0  0  0  0
    1.7406  -19.3601   19.8396 C   0  0  0  0  0  0  0  0  0  0  0  0
    8.8008  -12.2408   16.3608 N   0  0  0  0  0  0  0  0  0  0  0  0
    8.7337  -13.6513   16.4354 C   0  0  0  0  0  0  0  0  0  0  0  0
    9.0543  -14.3340   15.3901 N   0  0  0  0  0  0  0  0  0  0  0  0
    8.3178  -14.2621   17.6427 N   0  0  0  0  0  0  0  0  0  0  0  0
    7.9800  -13.4298   18.7681 C   0  0  0  0  0  0  0  0  0  0  0  0
    7.5938  -14.3480   19.9219 C   0  0  0  0  0  0  0  0  0  0  0  0
    8.7311  -15.2174   20.3392 C   0  0  0  0  0  0  0  0  0  0  0  0
    8.2675  -16.2270   21.3921 C   0  0  2  0  0  0  0  0  0  0  0  0
    7.6795  -17.3585   20.7516 N   0  0  0  0  0  0  0  0  0  0  0  0
    7.3695  -15.5986   22.3626 C   0  0  0  0  0  0  0  0  0  0  0  0
    6.2296  -15.2121   22.0114 O   0  0  0  0  0  0  0  0  0  0  0  0
    9.0298  -15.3699   15.3470 N   0  0  0  0  0  0  0  0  0  0  0  0
    7.7659  -15.4158   23.7058 C   0  0  1  0  0  0  0  0  0  0  0  0
    9.1402  -15.4968   24.1690 C   0  0  0  0  0  0  0  0  0  0  0  0
    9.2442  -15.0032   25.5617 C   0  0  0  0  0  0  0  0  0  0  0  0
    7.9943  -14.3408   25.9761 C   0  0  0  0  0  0  0  0  0  0  0  0
    6.7510  -14.8829   26.2078 N   0  0  0  0  0  0  0  0  0  0  0  0
    5.9081  -13.9093   26.5653 C   0  0  0  0  0  0  0  0  0  0  0  0
    6.5717  -12.7447   26.5723 C   0  0  0  0  0  0  0  0  0  0  0  0
    6.1460  -11.4496   26.8729 C   0  0  0  0  0  0  0  0  0  0  0  0
    7.0550  -10.4381   26.7958 C   0  0  0  0  0  0  0  0  0  0  0  0
    8.3657  -10.6617   26.4329 C   0  0  0  0  0  0  0  0  0  0  0  0
    8.7840  -11.9552   26.1342 C   0  0  0  0  0  0  0  0  0  0  0  0
    7.8682  -12.9905   26.2096 C   0  0  0  0  0  0  0  0  0  0  0  0
    9.6867  -16.8800   24.0359 O   0  0  0  0  0  0  0  0  0  0  0  0
   10.9911  -17.1497   23.6837 O   0  0  0  0  0  0  0  0  0  0  0  0
  2  1  1  0
  3  2  2  0
  4  3  1  0
  5 11  1  0
  5  4  2  0
  6  7  1  0
  6  5  1  0
  7  8  1  1
  9  7  1  0
 10  9  2  0
 11 12  2  0
 12  2  1  0
 13 14  1  0
 14 15  2  0
 14 16  1  0
 16 17  1  0
 17 18  1  0
 18 19  1  0
 20 19  1  6
 20 22  1  0
 20 21  1  0
 21  9  1  0
 22 23  2  0
 24 25  1  0
 24 22  1  0
 25 26  1  1
 27 26  1  0
 27 28  2  0
 29 28  1  0
 30 29  1  0
 31 30  2  0
 32 31  1  0
 33 32  2  0
 33 34  1  0
 34 35  2  0
 35 30  1  0
 35 27  1  0
 36 25  1  0
 36 37  1  0
 38 36  2  0
M  END
$$$$
