YRW.pdb
     RDKit          3D

 38 40  0  0  1  0  0  0  0  0999 V2000
    7.4588  -11.5246   17.0399 O   0  0  0  0  0  0  0  0  0  0  0  0
    7.4840  -12.3706   18.1414 C   0  0  0  0  0  0  0  0  0  0  0  0
    8.7044  -12.5988   18.7543 C   0  0  0  0  0  0  0  0  0  0  0  0
    8.8188  -13.4233   19.8515 C   0  0  0  0  0  0  0  0  0  0  0  0
    7.7075  -14.0553   20.3805 C   0  0  0  0  0  0  0  0  0  0  0  0
    7.9085  -14.9183   21.5529 C   0  0  0  0  0  0  0  0  0  0  0  0
    8.4822  -16.2475   21.1077 C   0  0  2  0  0  0  0  0  0  0  0  0
    7.4821  -16.9178   20.3276 N   0  0  0  0  0  0  0  0  0  0  0  0
    8.8321  -17.0839   22.2969 C   0  0  0  0  0  0  0  0  0  0  0  0
    7.9380  -17.8088   22.7913 O   0  0  0  0  0  0  0  0  0  0  0  0
    6.4982  -13.8267   19.7700 C   0  0  0  0  0  0  0  0  0  0  0  0
    6.3843  -12.9975   18.6669 C   0  0  0  0  0  0  0  0  0  0  0  0
   15.5561  -20.8199   24.4050 N   0  0  0  0  0  0  0  0  0  0  0  0
   15.0124  -20.7727   23.1006 C   0  0  0  0  0  0  0  0  0  0  0  0
   15.8220  -20.8285   22.0991 N   0  0  0  0  0  0  0  0  0  0  0  0
   13.6104  -20.6638   22.9381 N   0  0  0  0  0  0  0  0  0  0  0  0
   12.7649  -20.7124   24.1025 C   0  0  0  0  0  0  0  0  0  0  0  0
   12.5389  -19.2790   24.5692 C   0  0  0  0  0  0  0  0  0  0  0  0
   12.0070  -18.4195   23.4729 C   0  0  0  0  0  0  0  0  0  0  0  0
   10.6942  -17.7617   23.9051 C   0  0  2  0  0  0  0  0  0  0  0  0
   10.1370  -17.0308   22.8135 N   0  0  0  0  0  0  0  0  0  0  0  0
   10.8890  -16.9342   25.0969 C   0  0  0  0  0  0  0  0  0  0  0  0
   11.7686  -16.0408   25.1095 O   0  0  0  0  0  0  0  0  0  0  0  0
   15.5163  -20.8183   21.1082 N   0  0  0  0  0  0  0  0  0  0  0  0
   10.0955  -17.1239   26.2498 C   0  0  1  0  0  0  0  0  0  0  0  0
   10.3250  -16.4528   27.5175 C   0  0  0  0  0  0  0  0  0  0  0  0
    9.0372  -16.1835   28.1981 C   0  0  0  0  0  0  0  0  0  0  0  0
    8.0307  -15.6957   27.2380 C   0  0  0  0  0  0  0  0  0  0  0  0
    7.1431  -16.4061   26.4630 N   0  0  0  0  0  0  0  0  0  0  0  0
    6.4155  -15.5528   25.7360 C   0  0  0  0  0  0  0  0  0  0  0  0
    6.8072  -14.3023   26.0180 C   0  0  0  0  0  0  0  0  0  0  0  0
    6.3644  -13.0715   25.5302 C   0  0  0  0  0  0  0  0  0  0  0  0
    6.9554  -11.9397   26.0046 C   0  0  0  0  0  0  0  0  0  0  0  0
    7.9656  -11.9822   26.9412 C   0  0  0  0  0  0  0  0  0  0  0  0
    8.4029  -13.2124   27.4237 C   0  0  0  0  0  0  0  0  0  0  0  0
    7.8089  -14.3688   26.9482 C   0  0  0  0  0  0  0  0  0  0  0  0
   11.2549  -17.2279   28.3917 O   0  0  0  0  0  0  0  0  0  0  0  0
   11.7707  -18.4583   28.0478 O   0  0  0  0  0  0  0  0  0  0  0  0
  2  1  1  0
  3  2  2  0
  4  3  1  0
  5 11  1  0
  5  4  2  0
  6  7  1  0
  6  5  1  0
  7  8  1  6
  9  7  1  0
 10  9  2  0
 11 12  2  0
 12  2  1  0
 13 14  1  0
 14 15  2  0
 14 16  1  0
 16 17  1  0
 17 18  1  0
 18 19  1  0
 20 19  1  6
 20 22  1  0
 20 21  1  0
 21  9  1  0
 22 23  2  0
 24 25  1  0
 24 22  1  0
 25 26  1  1
 27 26  1  0
 27 28  2  0
 29 28  1  0
 30 29  1  0
 31 30  2  0
 32 31  1  0
 33 32  2  0
 33 34  1  0
 34 35  2  0
 35 30  1  0
 35 27  1  0
 36 25  1  0
 36 37  1  0
 38 36  2  0
M  END
$$$$
