WIC.pdb
     RDKit          3D

 29 30  0  0  1  0  0  0  0  0999 V2000
   24.9270  -19.6913  -16.4761 N   0  0  0  0  0  0  0  0  0  0  0  0
   23.7421  -19.3993  -15.7287 C   0  0  1  0  0  0  0  0  0  0  0  0
   22.5730  -19.3069  -16.7008 C   0  0  0  0  0  0  0  0  0  0  0  0
   22.7174  -18.0925  -17.5442 C   0  0  0  0  0  0  0  0  0  0  0  0
   23.3756  -17.9404  -18.7469 C   0  0  0  0  0  0  0  0  0  0  0  0
   23.2467  -16.6622  -19.1529 N   0  0  0  0  0  0  0  0  0  0  0  0
   22.5281  -15.9567  -18.2675 C   0  0  0  0  0  0  0  0  0  0  0  0
   22.1315  -14.6364  -18.2351 C   0  0  0  0  0  0  0  0  0  0  0  0
   21.3771  -14.2463  -17.1333 C   0  0  0  0  0  0  0  0  0  0  0  0
   21.0329  -15.1056  -16.1216 C   0  0  0  0  0  0  0  0  0  0  0  0
   21.4454  -16.4363  -16.1762 C   0  0  0  0  0  0  0  0  0  0  0  0
   22.1918  -16.8364  -17.2596 C   0  0  0  0  0  0  0  0  0  0  0  0
   23.3980  -20.4633  -14.7524 C   0  0  0  0  0  0  0  0  0  0  0  0
   23.4331  -21.6529  -15.1088 O   0  0  0  0  0  0  0  0  0  0  0  0
   25.2724  -20.6067   -9.7455 C   0  0  0  0  0  0  0  0  0  0  0  0
   24.7020  -20.8816  -11.1042 C   0  0  0  0  0  0  0  0  0  0  0  0
   23.1986  -20.7362  -11.0956 C   0  0  2  0  0  0  0  0  0  0  0  0
   22.5408  -21.5950  -10.0510 C   0  0  0  0  0  0  0  0  0  0  0  0
   22.6211  -21.0802  -12.4366 C   0  0  2  0  0  0  0  0  0  0  0  0
   23.0351  -20.1124  -13.4309 N   0  0  0  0  0  0  0  0  0  0  0  0
   21.1466  -21.2124  -12.4079 C   0  0  0  0  0  0  0  0  0  0  0  0
   20.4643  -20.1803  -12.2406 O   0  0  0  0  0  0  0  0  0  0  0  0
   20.4991  -22.4531  -12.5619 N   0  0  0  0  0  0  0  0  0  0  0  0
   19.0621  -22.4940  -12.7032 C   0  0  1  0  0  0  0  0  0  0  0  0
   18.6948  -23.7226  -13.5020 C   0  0  0  0  0  0  0  0  0  0  0  0
   19.7173  -23.6901  -15.0240 S   0  0  0  0  0  0  0  0  0  0  0  0
   18.4275  -22.4393  -11.3750 C   0  0  0  0  0  0  0  0  0  0  0  0
   19.1156  -22.6851  -10.3611 O   0  0  0  0  0  0  0  0  0  0  0  0
   17.0866  -22.1194  -11.2709 O   0  0  0  0  0  0  0  0  0  0  0  0
  2  1  1  6
  3  4  1  0
  3  2  1  0
  4 12  1  0
  5  4  2  0
  5  6  1  0
  6  7  1  0
  7  8  1  0
  8  9  2  0
 10  9  1  0
 11 10  2  0
 12  7  2  0
 12 11  1  0
 13 20  1  0
 13  2  1  0
 14 13  2  0
 16 15  1  0
 17 16  1  0
 17 18  1  1
 19 17  1  0
 19 20  1  6
 21 19  1  0
 22 21  2  0
 23 21  1  0
 24 27  1  0
 24 23  1  0
 24 25  1  1
 26 25  1  0
 27 29  1  0
 28 27  2  0
M  END
$$$$
