WIC.pdb
     RDKit          3D

 29 30  0  0  1  0  0  0  0  0999 V2000
   25.1746  -20.6699  -13.1969 N   0  0  0  0  0  0  0  0  0  0  0  0
   24.0388  -20.2516  -12.4334 C   0  0  1  0  0  0  0  0  0  0  0  0
   22.7929  -20.4283  -13.2919 C   0  0  0  0  0  0  0  0  0  0  0  0
   22.8745  -19.5424  -14.4816 C   0  0  0  0  0  0  0  0  0  0  0  0
   23.9123  -19.3775  -15.3754 C   0  0  0  0  0  0  0  0  0  0  0  0
   23.5471  -18.4687  -16.3006 N   0  0  0  0  0  0  0  0  0  0  0  0
   22.3064  -18.0216  -16.0580 C   0  0  0  0  0  0  0  0  0  0  0  0
   21.5062  -17.1051  -16.7070 C   0  0  0  0  0  0  0  0  0  0  0  0
   20.2469  -16.8879  -16.1573 C   0  0  0  0  0  0  0  0  0  0  0  0
   19.8006  -17.5352  -15.0337 C   0  0  0  0  0  0  0  0  0  0  0  0
   20.6277  -18.4579  -14.3946 C   0  0  0  0  0  0  0  0  0  0  0  0
   21.8754  -18.6829  -14.9267 C   0  0  0  0  0  0  0  0  0  0  0  0
   23.8309  -21.0693  -11.2120 C   0  0  0  0  0  0  0  0  0  0  0  0
   23.6162  -22.2878  -11.3228 O   0  0  0  0  0  0  0  0  0  0  0  0
   26.6205  -19.4022   -7.2019 C   0  0  0  0  0  0  0  0  0  0  0  0
   25.9278  -20.4895   -7.9665 C   0  0  0  0  0  0  0  0  0  0  0  0
   24.4666  -20.5636   -7.5911 C   0  0  2  0  0  0  0  0  0  0  0  0
   24.2323  -21.3543   -6.3336 C   0  0  0  0  0  0  0  0  0  0  0  0
   23.6603  -21.1714   -8.7004 C   0  0  2  0  0  0  0  0  0  0  0  0
   23.8794  -20.4540   -9.9390 N   0  0  0  0  0  0  0  0  0  0  0  0
   22.2164  -21.2496   -8.3820 C   0  0  0  0  0  0  0  0  0  0  0  0
   21.5566  -20.1899   -8.3674 O   0  0  0  0  0  0  0  0  0  0  0  0
   21.5733  -22.4696   -8.0986 N   0  0  0  0  0  0  0  0  0  0  0  0
   20.1663  -22.4740   -7.7715 C   0  0  1  0  0  0  0  0  0  0  0  0
   19.4564  -23.4057   -8.7258 C   0  0  0  0  0  0  0  0  0  0  0  0
   20.2087  -25.0636   -8.5056 S   0  0  0  0  0  0  0  0  0  0  0  0
   19.9839  -22.8272   -6.3531 C   0  0  0  0  0  0  0  0  0  0  0  0
   20.9818  -23.1484   -5.6728 O   0  0  0  0  0  0  0  0  0  0  0  0
   18.7176  -22.7990   -5.7993 O   0  0  0  0  0  0  0  0  0  0  0  0
  2  1  1  6
  3  4  1  0
  3  2  1  0
  4 12  1  0
  5  4  2  0
  5  6  1  0
  6  7  1  0
  7  8  1  0
  8  9  2  0
 10  9  1  0
 11 10  2  0
 12  7  2  0
 12 11  1  0
 13 20  1  0
 13  2  1  0
 14 13  2  0
 16 15  1  0
 17 16  1  0
 17 18  1  1
 19 17  1  0
 19 20  1  6
 21 19  1  0
 22 21  2  0
 23 21  1  0
 24 27  1  0
 24 23  1  0
 24 25  1  6
 26 25  1  0
 27 29  1  0
 28 27  2  0
M  END
$$$$
