WIC.pdb
     RDKit          3D

 29 30  0  0  1  0  0  0  0  0999 V2000
   21.6212  -20.9923  -16.9378 N   0  0  0  0  0  0  0  0  0  0  0  0
   22.1619  -20.0139  -16.0441 C   0  0  1  0  0  0  0  0  0  0  0  0
   21.1706  -19.8041  -14.9067 C   0  0  0  0  0  0  0  0  0  0  0  0
   19.9888  -19.0539  -15.4042 C   0  0  0  0  0  0  0  0  0  0  0  0
   18.6864  -19.4819  -15.5570 C   0  0  0  0  0  0  0  0  0  0  0  0
   17.9494  -18.4632  -16.0409 N   0  0  0  0  0  0  0  0  0  0  0  0
   18.7100  -17.3729  -16.2164 C   0  0  0  0  0  0  0  0  0  0  0  0
   18.4241  -16.1057  -16.6790 C   0  0  0  0  0  0  0  0  0  0  0  0
   19.4888  -15.2117  -16.7256 C   0  0  0  0  0  0  0  0  0  0  0  0
   20.7616  -15.5452  -16.3394 C   0  0  0  0  0  0  0  0  0  0  0  0
   21.0267  -16.8328  -15.8750 C   0  0  0  0  0  0  0  0  0  0  0  0
   19.9839  -17.7275  -15.8232 C   0  0  0  0  0  0  0  0  0  0  0  0
   23.4380  -20.4447  -15.4197 C   0  0  0  0  0  0  0  0  0  0  0  0
   23.6881  -21.6571  -15.3167 O   0  0  0  0  0  0  0  0  0  0  0  0
   27.1163  -17.0358  -16.2821 C   0  0  0  0  0  0  0  0  0  0  0  0
   26.9364  -18.4901  -15.9669 C   0  0  0  0  0  0  0  0  0  0  0  0
   26.6008  -18.6863  -14.5073 C   0  0  2  0  0  0  0  0  0  0  0  0
   27.8156  -18.9721  -13.6682 C   0  0  0  0  0  0  0  0  0  0  0  0
   25.6183  -19.8060  -14.3310 C   0  0  2  0  0  0  0  0  0  0  0  0
   24.3526  -19.4728  -14.9503 N   0  0  0  0  0  0  0  0  0  0  0  0
   25.4303  -20.1842  -12.9118 C   0  0  0  0  0  0  0  0  0  0  0  0
   24.5302  -19.6123  -12.2625 O   0  0  0  0  0  0  0  0  0  0  0  0
   26.2272  -21.1582  -12.2806 N   0  0  0  0  0  0  0  0  0  0  0  0
   26.0224  -21.4480  -10.8803 C   0  0  1  0  0  0  0  0  0  0  0  0
   27.0120  -22.5102  -10.4619 C   0  0  0  0  0  0  0  0  0  0  0  0
   28.6798  -21.7570  -10.5817 S   0  0  0  0  0  0  0  0  0  0  0  0
   26.1182  -20.2062  -10.0937 C   0  0  0  0  0  0  0  0  0  0  0  0
   26.7558  -19.2380  -10.5603 O   0  0  0  0  0  0  0  0  0  0  0  0
   25.5051  -20.1318   -8.8569 O   0  0  0  0  0  0  0  0  0  0  0  0
  2  1  1  6
  3  4  1  0
  3  2  1  0
  4 12  1  0
  5  4  2  0
  5  6  1  0
  6  7  1  0
  7  8  1  0
  8  9  2  0
 10  9  1  0
 11 10  2  0
 12  7  2  0
 12 11  1  0
 13 20  1  0
 13  2  1  0
 14 13  2  0
 16 15  1  0
 17 16  1  0
 17 18  1  1
 19 17  1  0
 19 20  1  1
 21 19  1  0
 22 21  2  0
 23 21  1  0
 24 27  1  0
 24 23  1  0
 24 25  1  1
 26 25  1  0
 27 29  1  0
 28 27  2  0
M  END
$$$$
