WIC.pdb
     RDKit          3D

 29 30  0  0  1  0  0  0  0  0999 V2000
   24.5985  -15.9043  -15.8545 N   0  0  0  0  0  0  0  0  0  0  0  0
   24.0982  -14.7520  -16.5401 C   0  0  1  0  0  0  0  0  0  0  0  0
   22.5761  -14.8084  -16.5246 C   0  0  0  0  0  0  0  0  0  0  0  0
   22.1095  -15.9661  -17.3302 C   0  0  0  0  0  0  0  0  0  0  0  0
   22.7522  -17.1571  -17.5973 C   0  0  0  0  0  0  0  0  0  0  0  0
   21.9533  -17.9163  -18.3722 N   0  0  0  0  0  0  0  0  0  0  0  0
   20.8033  -17.2776  -18.6319 C   0  0  0  0  0  0  0  0  0  0  0  0
   19.6894  -17.6311  -19.3640 C   0  0  0  0  0  0  0  0  0  0  0  0
   18.6624  -16.6942  -19.4149 C   0  0  0  0  0  0  0  0  0  0  0  0
   18.7274  -15.4794  -18.7820 C   0  0  0  0  0  0  0  0  0  0  0  0
   19.8641  -15.1441  -18.0474 C   0  0  0  0  0  0  0  0  0  0  0  0
   20.8875  -16.0604  -17.9881 C   0  0  0  0  0  0  0  0  0  0  0  0
   24.4815  -13.4773  -15.8828 C   0  0  0  0  0  0  0  0  0  0  0  0
   24.5411  -13.4239  -14.6431 O   0  0  0  0  0  0  0  0  0  0  0  0
   28.8787  -11.4035  -16.9747 C   0  0  0  0  0  0  0  0  0  0  0  0
   27.5474  -11.7674  -16.3898 C   0  0  0  0  0  0  0  0  0  0  0  0
   26.5337  -10.6761  -16.6403 C   0  0  2  0  0  0  0  0  0  0  0  0
   26.9309   -9.3648  -16.0202 C   0  0  0  0  0  0  0  0  0  0  0  0
   25.1848  -11.0692  -16.1150 C   0  0  2  0  0  0  0  0  0  0  0  0
   24.7737  -12.3406  -16.6727 N   0  0  0  0  0  0  0  0  0  0  0  0
   24.1551  -10.0310  -16.3478 C   0  0  0  0  0  0  0  0  0  0  0  0
   23.7750   -9.8284  -17.5196 O   0  0  0  0  0  0  0  0  0  0  0  0
   23.5985   -9.2745  -15.2988 N   0  0  0  0  0  0  0  0  0  0  0  0
   22.5472   -8.3260  -15.5846 C   0  0  1  0  0  0  0  0  0  0  0  0
   21.6185   -8.2682  -14.3942 C   0  0  0  0  0  0  0  0  0  0  0  0
   21.0905   -9.9904  -14.0503 S   0  0  0  0  0  0  0  0  0  0  0  0
   23.1334   -7.0228  -15.9424 C   0  0  0  0  0  0  0  0  0  0  0  0
   24.3660   -6.8562  -15.8215 O   0  0  0  0  0  0  0  0  0  0  0  0
   22.3147   -6.0088  -16.4034 O   0  0  0  0  0  0  0  0  0  0  0  0
  2  1  1  1
  3  4  1  0
  3  2  1  0
  4 12  1  0
  5  4  2  0
  5  6  1  0
  6  7  1  0
  7  8  1  0
  8  9  2  0
 10  9  1  0
 11 10  2  0
 12  7  2  0
 12 11  1  0
 13 20  1  0
 13  2  1  0
 14 13  2  0
 16 15  1  0
 17 16  1  0
 17 18  1  1
 19 17  1  0
 19 20  1  6
 21 19  1  0
 22 21  2  0
 23 21  1  0
 24 27  1  0
 24 23  1  0
 24 25  1  1
 26 25  1  0
 27 29  1  0
 28 27  2  0
M  END
$$$$
